data_functionalizedCrystal
_audit_creation_method	'EQeq! by Chris Wilmer'
_symmetry_space_group_name_H-M	'P1'
_symmetry_Int_Tables_number	1
_symmetry_cell_setting	triclinic
loop_
_symmetry_equiv_pos_as_xyz
  x,y,z
_cell_length_a	22.661
_cell_length_b	32.05
_cell_length_c	41.94
_cell_angle_alpha	90
_cell_angle_beta	90
_cell_angle_gamma	90
loop_
_atom_site_label
_atom_site_type_symbol
_atom_site_fract_x
_atom_site_fract_y
_atom_site_fract_z
_atom_site_charge
Mof_Fe	Fe	0.46593	0.36257	0.01145	1.043
Mof_Fe	Fe	0.83755	0.10965	0.95998	1.001
Mof_Fe	Fe	0.39997	0.44761	0.9846	0.988
Mof_Fe	Fe	0.0985	0.38973	0.77538	0.958
Mof_Fe	Fe	0.07543	0.36263	0.70149	0.989
Mof_Fe	Fe	0.03142	0.9065	0.75758	0.974
Mof_Fe	Fe	0.69324	0.38376	0.53816	0.969
Mof_Fe	Fe	0.07033	0.15735	0.48695	1.018
Mof_Fe	Fe	0.12057	0.07163	0.52029	0.998
Mof_Fe	Fe	0.43906	0.15251	0.80759	1.034
Mof_Fe	Fe	0.46298	0.61978	0.745	0.97
Mof_Fe	Fe	0.39818	0.13658	0.73477	1.023
Mof_Fe	Fe	0.03407	0.63743	0.51145	1.045
Mof_Fe	Fe	0.66245	0.89035	0.45998	1.001
Mof_Fe	Fe	0.10003	0.55239	0.4846	0.988
Mof_Fe	Fe	0.4015	0.61027	0.27538	0.959
Mof_Fe	Fe	0.42457	0.63737	0.20149	0.989
Mof_Fe	Fe	0.46858	0.0935	0.25758	0.973
Mof_Fe	Fe	0.80676	0.61624	0.03816	0.97
Mof_Fe	Fe	0.42967	0.84265	0.98695	1.019
Mof_Fe	Fe	0.37943	0.92837	0.02029	0.999
Mof_Fe	Fe	0.06094	0.84749	0.30759	1.037
Mof_Fe	Fe	0.03702	0.38022	0.245	0.973
Mof_Fe	Fe	0.10182	0.86342	0.23477	1.024
Mof_Fe	Fe	0.53407	0.86257	0.48855	1.044
Mof_Fe	Fe	0.16245	0.60965	0.54002	1.002
Mof_Fe	Fe	0.60003	0.94761	0.5154	0.989
Mof_Fe	Fe	0.9015	0.88973	0.72462	0.958
Mof_Fe	Fe	0.92457	0.86263	0.79851	0.987
Mof_Fe	Fe	0.96858	0.4065	0.74242	0.971
Mof_Fe	Fe	0.30676	0.88376	0.96184	0.97
Mof_Fe	Fe	0.92967	0.65735	0.01305	1.018
Mof_Fe	Fe	0.87943	0.57163	0.97971	0.999
Mof_Fe	Fe	0.56094	0.65251	0.69241	1.035
Mof_Fe	Fe	0.53702	0.11978	0.755	0.971
Mof_Fe	Fe	0.60182	0.63658	0.76523	1.024
Mof_Fe	Fe	0.96593	0.13743	0.98855	1.042
Mof_Fe	Fe	0.33755	0.39035	0.04002	1.002
Mof_Fe	Fe	0.89997	0.05239	0.0154	0.989
Mof_Fe	Fe	0.5985	0.11027	0.22462	0.959
Mof_Fe	Fe	0.57543	0.13737	0.29851	0.989
Mof_Fe	Fe	0.53142	0.5935	0.24242	0.973
Mof_Fe	Fe	0.19324	0.11624	0.46184	0.97
Mof_Fe	Fe	0.57033	0.34265	0.51305	1.019
Mof_Fe	Fe	0.62057	0.42837	0.47971	0.999
Mof_Fe	Fe	0.93906	0.34749	0.19241	1.034
Mof_Fe	Fe	0.96298	0.88022	0.255	0.969
Mof_Fe	Fe	0.89818	0.36342	0.26523	1.024
Mof_H 	H 	0.4259	0.2356	0.0076	0.037
Mof_H 	H 	0.4064	0.1647	0.0005	0.07
Mof_H 	H 	0.3163	0.1483	0.0205	0.026
Mof_H 	H 	0.2402	0.1891	0.0418	0.072
Mof_H 	H 	0.2681	0.261	0.04	0.039
Mof_H 	H 	0.5441	0.3479	0.0959	0.044
Mof_H 	H 	0.5937	0.3537	0.1476	0.055
Mof_H 	H 	0.5404	0.3666	0.1923	0.033
Mof_H 	H 	0.4509	0.402	0.1901	0.061
Mof_H 	H 	0.4063	0.4065	0.1354	0.039
Mof_H 	H 	0.7945	0.0019	0.9028	-0.009
Mof_H 	H 	0.7835	0.9439	0.8693	0.144
Mof_H 	H 	0.7893	0.8862	0.8904	-0.042
Mof_H 	H 	0.8346	0.8734	0.9407	0.104
Mof_H 	H 	0.8611	0.9346	0.9734	0.016
Mof_H 	H 	0.4875	0.3093	0.9171	0.031
Mof_H 	H 	0.4826	0.2769	0.8687	0.085
Mof_H 	H 	0.4435	0.3206	0.8309	0.023
Mof_H 	H 	0.4173	0.3895	0.8336	0.079
Mof_H 	H 	0.3948	0.4039	0.8886	0.036
Mof_H 	H 	0.6198	0.4305	0.041	-0.052
Mof_H 	H 	0.6866	0.4674	0.0674	0.18
Mof_H 	H 	0.6986	0.5342	0.0495	-0.075
Mof_H 	H 	0.6357	0.5629	0.0131	0.187
Mof_H 	H 	0.5681	0.5217	0.9913	-0.053
Mof_H 	H 	0.7906	0.0845	0.8928	0.01
Mof_H 	H 	0.7197	0.0967	0.8557	0.088
Mof_H 	H 	0.6427	0.1306	0.8751	0.026
Mof_H 	H 	0.7236	0.1586	0.9549	0.032
Mof_H 	H 	0.5134	0.2858	0.9747	0.045
Mof_H 	H 	0.6713	0.2504	0.998	0.031
Mof_H 	H 	0.6716	0.304	0.0337	0.071
Mof_H 	H 	0.5908	0.3477	0.0415	0.019
Mof_H 	H 	0.4394	0.5402	0.9755	0.023
Mof_H 	H 	0.4331	0.5942	0.94	0.067
Mof_H 	H 	0.3836	0.5826	0.8885	0.042
Mof_H 	H 	0.3505	0.4706	0.9189	0.039
Mof_H 	H 	0.2507	0.4051	0.8853	0.031
Mof_H 	H 	0.1906	0.3537	0.8837	0.077
Mof_H 	H 	0.1295	0.343	0.8398	0.02
Mof_H 	H 	0.1939	0.4443	0.8027	0.04
Mof_H 	H 	0.0258	0.3645	0.8668	0.046
Mof_H 	H 	0.9761	0.3475	0.9165	0.066
Mof_H 	H 	0.8819	0.3386	0.9157	0.019
Mof_H 	H 	0.8312	0.3373	0.8692	0.069
Mof_H 	H 	0.8696	0.3713	0.8255	0.041
Mof_H 	H 	0.1329	0.533	0.7834	0.047
Mof_H 	H 	0.1392	0.6074	0.7823	0.06
Mof_H 	H 	0.0457	0.6371	0.7722	0.035
Mof_H 	H 	0.9613	0.6044	0.7601	0.052
Mof_H 	H 	0.9553	0.5304	0.7656	0.051
Mof_H 	H 	0.0796	0.4669	0.6321	0.05
Mof_H 	H 	0.0677	0.5145	0.5925	0.052
Mof_H 	H 	0.9818	0.5552	0.5853	0.051
Mof_H 	H 	0.9068	0.5208	0.6112	0.043
Mof_H 	H 	0.9101	0.486	0.6615	0.048
Mof_H 	H 	0.9399	0.2864	0.6433	0.049
Mof_H 	H 	0.8605	0.2619	0.6065	0.053
Mof_H 	H 	0.7651	0.284	0.6221	0.047
Mof_H 	H 	0.7456	0.31	0.6717	0.05
Mof_H 	H 	0.824	0.3433	0.7036	0.054
Mof_H 	H 	0.2752	0.4474	0.7551	0.016
Mof_H 	H 	0.36	0.4773	0.7444	0.093
Mof_H 	H 	0.3964	0.4626	0.6932	0.01
Mof_H 	H 	0.3537	0.4079	0.6626	0.085
Mof_H 	H 	0.2562	0.397	0.6694	0.006
Mof_H 	H 	0.1577	0.2705	0.801	0.031
Mof_H 	H 	0.1862	0.2007	0.8131	0.07
Mof_H 	H 	0.1994	0.1564	0.7705	0.028
Mof_H 	H 	0.1472	0.1691	0.7229	0.069
Mof_H 	H 	0.1348	0.2417	0.7118	0.032
Mof_H 	H 	0.1663	0.3078	0.6674	-0.001
Mof_H 	H 	0.1925	0.2761	0.6192	0.077
Mof_H 	H 	0.1092	0.2726	0.5815	0.038
Mof_H 	H 	0.0263	0.3565	0.6355	0.038
Mof_H 	H 	0.8847	0.2836	0.4926	0.044
Mof_H 	H 	0.8876	0.2427	0.4455	0.058
Mof_H 	H 	0.9665	0.1979	0.4404	0.032
Mof_H 	H 	0.0337	0.2386	0.5192	0.036
Mof_H 	H 	0.8232	0.3502	0.5436	0.045
Mof_H 	H 	0.9101	0.3954	0.6198	0.049
Mof_H 	H 	0.8307	0.4357	0.6322	0.059
Mof_H 	H 	0.7332	0.4125	0.6068	0.028
Mof_H 	H 	0.1544	0.9092	0.7902	0.006
Mof_H 	H 	0.239	0.9542	0.7884	0.079
Mof_H 	H 	0.2596	0.9815	0.7388	0.024
Mof_H 	H 	0.1016	0.9491	0.7094	0.032
Mof_H 	H 	0.1652	0.0547	0.5856	0.042
Mof_H 	H 	0.0937	0.951	0.6205	0.031
Mof_H 	H 	0.065	0.9345	0.5687	0.085
Mof_H 	H 	0.0599	0.9865	0.5331	0
Mof_H 	H 	0.3287	0.1959	0.6898	0.012
Mof_H 	H 	0.2583	0.1954	0.6496	0.079
Mof_H 	H 	0.213	0.1314	0.6402	0.029
Mof_H 	H 	0.3137	0.079	0.7055	0.034
Mof_H 	H 	0.2444	0.0599	0.7556	0.057
Mof_H 	H 	0.1481	0.0478	0.7757	0.047
Mof_H 	H 	0.1005	0.0607	0.825	0.051
Mof_H 	H 	0.1704	0.0922	0.8632	0.042
Mof_H 	H 	0.2648	0.1121	0.8465	0.046
Mof_H 	H 	0.6258	0.5034	0.7813	0.051
Mof_H 	H 	0.6457	0.4352	0.7686	0.049
Mof_H 	H 	0.5716	0.3876	0.7482	0.042
Mof_H 	H 	0.4838	0.4214	0.7307	0.051
Mof_H 	H 	0.462	0.4906	0.7416	0.045
Mof_H 	H 	0.2904	0.2515	0.7296	0.006
Mof_H 	H 	0.2489	0.3139	0.7274	0.102
Mof_H 	H 	0.2561	0.3557	0.7696	0.012
Mof_H 	H 	0.3001	0.3399	0.8176	0.089
Mof_H 	H 	0.3358	0.2688	0.8196	0.018
Mof_H 	H 	0.5592	0.7	0.8498	0.028
Mof_H 	H 	0.5404	0.7186	0.9031	0.062
Mof_H 	H 	0.4455	0.7042	0.9226	0.035
Mof_H 	H 	0.3724	0.6685	0.8888	0.058
Mof_H 	H 	0.4033	0.6491	0.8357	0.047
Mof_H 	H 	0.5618	0.2259	0.8521	0.049
Mof_H 	H 	0.6309	0.2736	0.8762	0.058
Mof_H 	H 	0.7298	0.2682	0.8601	0.036
Mof_H 	H 	0.7556	0.2252	0.8178	0.058
Mof_H 	H 	0.6872	0.1858	0.7918	0.04
Mof_H 	H 	0.5006	0.0758	0.8829	0.042
Mof_H 	H 	0.5346	0.0304	0.92	0.059
Mof_H 	H 	0.6345	0.0006	0.9119	0.041
Mof_H 	H 	0.6744	0.0095	0.8624	0.052
Mof_H 	H 	0.6258	0.0432	0.8217	0.041
Mof_H 	H 	0.3399	0.6054	0.714	0.016
Mof_H 	H 	0.2454	0.5821	0.7233	0.072
Mof_H 	H 	0.2366	0.5388	0.7662	0.034
Mof_H 	H 	0.398	0.5677	0.7984	0.046
Mof_H 	H 	0.3399	0.1827	0.8533	0.02
Mof_H 	H 	0.3393	0.2292	0.9019	0.068
Mof_H 	H 	0.4191	0.2208	0.9339	0.037
Mof_H 	H 	0.5115	0.1618	0.8687	0.043
Mof_H 	H 	0.1915	0.0008	0.4046	0.067
Mof_H 	H 	0.1821	0.9391	0.378	0.023
Mof_H 	H 	0.1136	0.8888	0.3928	0.097
Mof_H 	H 	0.0666	0.9052	0.4354	0.007
Mof_H 	H 	0.0952	0.9537	0.4684	0.076
Mof_H 	H 	0.6486	0.3762	0.6369	0.031
Mof_H 	H 	0.632	0.3708	0.6903	0.068
Mof_H 	H 	0.5743	0.3089	0.6995	0.032
Mof_H 	H 	0.4999	0.2834	0.6637	0.066
Mof_H 	H 	0.5145	0.3097	0.6074	0.034
Mof_H 	H 	0.9642	0.0079	0.5053	0.042
Mof_H 	H 	0.8744	0.9679	0.4956	0.056
Mof_H 	H 	0.7884	0.0081	0.4761	0.048
Mof_H 	H 	0.8106	0.0722	0.4576	0.05
Mof_H 	H 	0.8909	0.1158	0.471	0.049
Mof_H 	H 	0.0457	0.2062	0.5764	0.046
Mof_H 	H 	0.0939	0.0986	0.6163	0.043
Mof_H 	H 	0.0844	0.1309	0.6677	0.061
Mof_H 	H 	0.0433	0.1978	0.6713	0.033
Mof_H 	H 	0.0309	0.2373	0.6262	0.063
Mof_H 	H 	0.7632	0.2807	0.5314	0.075
Mof_H 	H 	0.8368	0.2229	0.5378	0.052
Mof_H 	H 	0.7812	0.1605	0.5306	0.043
Mof_H 	H 	0.6849	0.1453	0.5297	0.051
Mof_H 	H 	0.6144	0.2067	0.5222	0.047
Mof_H 	H 	0.2753	0.0651	0.5812	0.009
Mof_H 	H 	0.34	0.0925	0.6211	0.113
Mof_H 	H 	0.426	0.109	0.598	-0.005
Mof_H 	H 	0.4344	0.1444	0.5495	0.108
Mof_H 	H 	0.3557	0.1333	0.5172	-0.003
Mof_H 	H 	0.0741	0.7644	0.5076	0.038
Mof_H 	H 	0.0936	0.8353	0.5005	0.07
Mof_H 	H 	0.1837	0.8517	0.5205	0.026
Mof_H 	H 	0.2598	0.8109	0.5418	0.072
Mof_H 	H 	0.2319	0.739	0.54	0.039
Mof_H 	H 	0.9559	0.6521	0.5959	0.047
Mof_H 	H 	0.9063	0.6463	0.6476	0.052
Mof_H 	H 	0.9596	0.6334	0.6923	0.036
Mof_H 	H 	0.0491	0.598	0.6901	0.057
Mof_H 	H 	0.0937	0.5935	0.6354	0.041
Mof_H 	H 	0.7055	0.9981	0.4028	-0.009
Mof_H 	H 	0.7165	0.0561	0.3693	0.144
Mof_H 	H 	0.7107	0.1138	0.3904	-0.042
Mof_H 	H 	0.6654	0.1266	0.4407	0.104
Mof_H 	H 	0.6389	0.0654	0.4734	0.017
Mof_H 	H 	0.0125	0.6907	0.4171	0.031
Mof_H 	H 	0.0174	0.7231	0.3687	0.085
Mof_H 	H 	0.0565	0.6794	0.3309	0.024
Mof_H 	H 	0.0827	0.6105	0.3336	0.079
Mof_H 	H 	0.1052	0.5961	0.3886	0.036
Mof_H 	H 	0.8802	0.5695	0.541	-0.052
Mof_H 	H 	0.8134	0.5326	0.5674	0.179
Mof_H 	H 	0.8014	0.4658	0.5495	-0.075
Mof_H 	H 	0.8643	0.4371	0.5131	0.186
Mof_H 	H 	0.9319	0.4783	0.4913	-0.054
Mof_H 	H 	0.7094	0.9155	0.3928	0.01
Mof_H 	H 	0.7803	0.9033	0.3557	0.088
Mof_H 	H 	0.8573	0.8694	0.3751	0.026
Mof_H 	H 	0.7764	0.8414	0.4549	0.032
Mof_H 	H 	0.9866	0.7142	0.4747	0.043
Mof_H 	H 	0.8287	0.7496	0.498	0.031
Mof_H 	H 	0.8284	0.696	0.5337	0.071
Mof_H 	H 	0.9092	0.6523	0.5415	0.019
Mof_H 	H 	0.0606	0.4598	0.4755	0.023
Mof_H 	H 	0.0669	0.4058	0.44	0.068
Mof_H 	H 	0.1164	0.4174	0.3885	0.042
Mof_H 	H 	0.1495	0.5294	0.4189	0.039
Mof_H 	H 	0.2493	0.5949	0.3853	0.031
Mof_H 	H 	0.3094	0.6463	0.3837	0.077
Mof_H 	H 	0.3705	0.657	0.3398	0.02
Mof_H 	H 	0.3061	0.5557	0.3027	0.04
Mof_H 	H 	0.4742	0.6355	0.3668	0.038
Mof_H 	H 	0.5239	0.6525	0.4165	0.075
Mof_H 	H 	0.6181	0.6614	0.4157	0.011
Mof_H 	H 	0.6688	0.6627	0.3692	0.076
Mof_H 	H 	0.6304	0.6287	0.3255	0.035
Mof_H 	H 	0.3671	0.467	0.2834	0.047
Mof_H 	H 	0.3608	0.3926	0.2823	0.059
Mof_H 	H 	0.4543	0.3629	0.2722	0.036
Mof_H 	H 	0.5387	0.3956	0.2601	0.051
Mof_H 	H 	0.5447	0.4696	0.2656	0.051
Mof_H 	H 	0.4204	0.5331	0.1321	0.052
Mof_H 	H 	0.4323	0.4855	0.0925	0.052
Mof_H 	H 	0.5182	0.4448	0.0853	0.051
Mof_H 	H 	0.5932	0.4792	0.1112	0.043
Mof_H 	H 	0.5899	0.514	0.1615	0.05
Mof_H 	H 	0.5601	0.7136	0.1433	0.05
Mof_H 	H 	0.6395	0.7381	0.1065	0.053
Mof_H 	H 	0.7349	0.716	0.1221	0.048
Mof_H 	H 	0.7544	0.69	0.1717	0.049
Mof_H 	H 	0.676	0.6567	0.2036	0.054
Mof_H 	H 	0.2248	0.5526	0.2551	0.016
Mof_H 	H 	0.14	0.5227	0.2444	0.094
Mof_H 	H 	0.1036	0.5374	0.1932	0.01
Mof_H 	H 	0.1463	0.5921	0.1626	0.085
Mof_H 	H 	0.2438	0.603	0.1694	0.006
Mof_H 	H 	0.3423	0.7295	0.301	0.031
Mof_H 	H 	0.3138	0.7993	0.3131	0.07
Mof_H 	H 	0.3006	0.8436	0.2705	0.028
Mof_H 	H 	0.3528	0.8309	0.2229	0.069
Mof_H 	H 	0.3652	0.7583	0.2118	0.032
Mof_H 	H 	0.3337	0.6922	0.1674	-0.001
Mof_H 	H 	0.3075	0.7239	0.1192	0.077
Mof_H 	H 	0.3908	0.7274	0.0815	0.039
Mof_H 	H 	0.4737	0.6435	0.1355	0.037
Mof_H 	H 	0.6153	0.7164	0.9926	0.044
Mof_H 	H 	0.6124	0.7573	0.9455	0.059
Mof_H 	H 	0.5335	0.8021	0.9404	0.032
Mof_H 	H 	0.4663	0.7614	0.0192	0.037
Mof_H 	H 	0.6768	0.6498	0.0436	0.045
Mof_H 	H 	0.5899	0.6046	0.1198	0.05
Mof_H 	H 	0.6693	0.5643	0.1322	0.059
Mof_H 	H 	0.7668	0.5875	0.1068	0.028
Mof_H 	H 	0.3456	0.0908	0.2902	0.006
Mof_H 	H 	0.261	0.0458	0.2884	0.079
Mof_H 	H 	0.2404	0.0185	0.2388	0.024
Mof_H 	H 	0.3984	0.0509	0.2094	0.032
Mof_H 	H 	0.3348	0.9453	0.0856	0.042
Mof_H 	H 	0.4063	0.049	0.1205	0.031
Mof_H 	H 	0.435	0.0655	0.0687	0.085
Mof_H 	H 	0.4401	0.0135	0.0331	0
Mof_H 	H 	0.1713	0.8041	0.1898	0.012
Mof_H 	H 	0.2417	0.8046	0.1496	0.079
Mof_H 	H 	0.287	0.8686	0.1402	0.029
Mof_H 	H 	0.1863	0.921	0.2055	0.034
Mof_H 	H 	0.2556	0.9401	0.2556	0.057
Mof_H 	H 	0.3519	0.9522	0.2757	0.047
Mof_H 	H 	0.3995	0.9393	0.325	0.051
Mof_H 	H 	0.3296	0.9078	0.3632	0.042
Mof_H 	H 	0.2352	0.8879	0.3465	0.046
Mof_H 	H 	0.8742	0.4966	0.2813	0.048
Mof_H 	H 	0.8543	0.5648	0.2686	0.051
Mof_H 	H 	0.9284	0.6124	0.2482	0.038
Mof_H 	H 	0.0162	0.5786	0.2307	0.059
Mof_H 	H 	0.038	0.5094	0.2416	0.04
Mof_H 	H 	0.2096	0.7485	0.2296	0.006
Mof_H 	H 	0.2511	0.6861	0.2274	0.102
Mof_H 	H 	0.2439	0.6443	0.2696	0.012
Mof_H 	H 	0.1999	0.6601	0.3176	0.09
Mof_H 	H 	0.1642	0.7312	0.3196	0.018
Mof_H 	H 	0.9408	0.3	0.3498	0.03
Mof_H 	H 	0.9596	0.2814	0.4031	0.062
Mof_H 	H 	0.0545	0.2958	0.4226	0.034
Mof_H 	H 	0.1276	0.3315	0.3888	0.058
Mof_H 	H 	0.0967	0.3509	0.3357	0.048
Mof_H 	H 	0.9382	0.7741	0.3521	0.049
Mof_H 	H 	0.8691	0.7264	0.3762	0.058
Mof_H 	H 	0.7702	0.7318	0.3601	0.036
Mof_H 	H 	0.7444	0.7748	0.3178	0.059
Mof_H 	H 	0.8128	0.8142	0.2918	0.04
Mof_H 	H 	0.9994	0.9242	0.3829	0.042
Mof_H 	H 	0.9654	0.9696	0.42	0.058
Mof_H 	H 	0.8655	0.9994	0.4119	0.041
Mof_H 	H 	0.8256	0.9905	0.3624	0.052
Mof_H 	H 	0.8742	0.9568	0.3217	0.042
Mof_H 	H 	0.1601	0.3946	0.214	0.016
Mof_H 	H 	0.2546	0.4179	0.2233	0.072
Mof_H 	H 	0.2634	0.4612	0.2662	0.034
Mof_H 	H 	0.102	0.4323	0.2984	0.046
Mof_H 	H 	0.1601	0.8173	0.3533	0.02
Mof_H 	H 	0.1607	0.7708	0.4019	0.067
Mof_H 	H 	0.0809	0.7792	0.4339	0.038
Mof_H 	H 	0.9885	0.8382	0.3687	0.04
Mof_H 	H 	0.3085	0.9992	0.9046	0.067
Mof_H 	H 	0.3179	0.0609	0.878	0.024
Mof_H 	H 	0.3864	0.1112	0.8928	0.096
Mof_H 	H 	0.4334	0.0948	0.9354	0.008
Mof_H 	H 	0.4048	0.0463	0.9684	0.075
Mof_H 	H 	0.8514	0.6238	0.1369	0.03
Mof_H 	H 	0.868	0.6292	0.1903	0.069
Mof_H 	H 	0.9257	0.6911	0.1995	0.03
Mof_H 	H 	0.0001	0.7166	0.1637	0.07
Mof_H 	H 	0.9855	0.6903	0.1074	0.031
Mof_H 	H 	0.5358	0.9921	0.0053	0.043
Mof_H 	H 	0.6256	0.0321	0.9956	0.056
Mof_H 	H 	0.7116	0.9919	0.9761	0.048
Mof_H 	H 	0.6894	0.9278	0.9576	0.05
Mof_H 	H 	0.6091	0.8842	0.971	0.049
Mof_H 	H 	0.4543	0.7938	0.0764	0.046
Mof_H 	H 	0.4061	0.9014	0.1163	0.043
Mof_H 	H 	0.4156	0.8691	0.1677	0.061
Mof_H 	H 	0.4567	0.8022	0.1713	0.033
Mof_H 	H 	0.4691	0.7627	0.1262	0.062
Mof_H 	H 	0.7368	0.7193	0.0314	0.075
Mof_H 	H 	0.6632	0.7771	0.0378	0.052
Mof_H 	H 	0.7188	0.8395	0.0306	0.043
Mof_H 	H 	0.8151	0.8547	0.0297	0.051
Mof_H 	H 	0.8856	0.7933	0.0222	0.047
Mof_H 	H 	0.2247	0.9349	0.0812	0.01
Mof_H 	H 	0.16	0.9075	0.1211	0.113
Mof_H 	H 	0.074	0.891	0.098	-0.004
Mof_H 	H 	0.0656	0.8556	0.0495	0.108
Mof_H 	H 	0.1443	0.8667	0.0172	-0.003
Mof_H 	H 	0.5741	0.7356	0.4924	0.037
Mof_H 	H 	0.5936	0.6647	0.4995	0.07
Mof_H 	H 	0.6837	0.6483	0.4795	0.026
Mof_H 	H 	0.7598	0.6891	0.4582	0.072
Mof_H 	H 	0.7319	0.761	0.46	0.039
Mof_H 	H 	0.4559	0.8479	0.4041	0.044
Mof_H 	H 	0.4063	0.8537	0.3524	0.055
Mof_H 	H 	0.4596	0.8666	0.3077	0.033
Mof_H 	H 	0.5491	0.902	0.3099	0.061
Mof_H 	H 	0.5937	0.9065	0.3646	0.039
Mof_H 	H 	0.2055	0.5019	0.5972	-0.009
Mof_H 	H 	0.2165	0.4439	0.6307	0.144
Mof_H 	H 	0.2107	0.3862	0.6096	-0.042
Mof_H 	H 	0.1654	0.3734	0.5593	0.104
Mof_H 	H 	0.1389	0.4346	0.5266	0.017
Mof_H 	H 	0.5125	0.8093	0.5829	0.031
Mof_H 	H 	0.5174	0.7769	0.6313	0.085
Mof_H 	H 	0.5565	0.8206	0.6691	0.023
Mof_H 	H 	0.5827	0.8895	0.6664	0.079
Mof_H 	H 	0.6052	0.9039	0.6114	0.036
Mof_H 	H 	0.3802	0.9305	0.459	-0.052
Mof_H 	H 	0.3134	0.9674	0.4326	0.18
Mof_H 	H 	0.3014	0.0342	0.4505	-0.075
Mof_H 	H 	0.3643	0.0629	0.4869	0.187
Mof_H 	H 	0.4319	0.0217	0.5087	-0.054
Mof_H 	H 	0.2094	0.5845	0.6072	0.01
Mof_H 	H 	0.2803	0.5967	0.6443	0.089
Mof_H 	H 	0.3573	0.6306	0.6249	0.026
Mof_H 	H 	0.2764	0.6586	0.5451	0.032
Mof_H 	H 	0.4866	0.7858	0.5253	0.045
Mof_H 	H 	0.3287	0.7504	0.502	0.031
Mof_H 	H 	0.3284	0.804	0.4663	0.071
Mof_H 	H 	0.4092	0.8477	0.4585	0.019
Mof_H 	H 	0.5606	0.0402	0.5245	0.023
Mof_H 	H 	0.5669	0.0942	0.56	0.067
Mof_H 	H 	0.6164	0.0826	0.6115	0.042
Mof_H 	H 	0.6495	0.9706	0.5811	0.039
Mof_H 	H 	0.7493	0.9051	0.6147	0.031
Mof_H 	H 	0.8094	0.8537	0.6163	0.077
Mof_H 	H 	0.8705	0.843	0.6602	0.02
Mof_H 	H 	0.8061	0.9443	0.6973	0.04
Mof_H 	H 	0.9742	0.8645	0.6332	0.029
Mof_H 	H 	0.0239	0.8475	0.5835	0.083
Mof_H 	H 	0.1181	0.8386	0.5843	0.003
Mof_H 	H 	0.1688	0.8373	0.6308	0.082
Mof_H 	H 	0.1304	0.8713	0.6745	0.03
Mof_H 	H 	0.8671	0.033	0.7166	0.048
Mof_H 	H 	0.8608	0.1074	0.7177	0.058
Mof_H 	H 	0.9543	0.1371	0.7278	0.037
Mof_H 	H 	0.0387	0.1044	0.7399	0.05
Mof_H 	H 	0.0447	0.0304	0.7344	0.051
Mof_H 	H 	0.9204	0.9669	0.8679	0.054
Mof_H 	H 	0.9323	0.0145	0.9075	0.053
Mof_H 	H 	0.0182	0.0552	0.9147	0.051
Mof_H 	H 	0.0932	0.0208	0.8888	0.042
Mof_H 	H 	0.0899	0.986	0.8385	0.051
Mof_H 	H 	0.0601	0.7864	0.8567	0.051
Mof_H 	H 	0.1395	0.7619	0.8935	0.053
Mof_H 	H 	0.2349	0.784	0.8779	0.048
Mof_H 	H 	0.2544	0.81	0.8283	0.049
Mof_H 	H 	0.176	0.8433	0.7964	0.054
Mof_H 	H 	0.7248	0.9474	0.7449	0.016
Mof_H 	H 	0.64	0.9773	0.7556	0.093
Mof_H 	H 	0.6036	0.9626	0.8068	0.01
Mof_H 	H 	0.6463	0.9079	0.8374	0.085
Mof_H 	H 	0.7438	0.897	0.8306	0.006
Mof_H 	H 	0.8423	0.7705	0.699	0.031
Mof_H 	H 	0.8138	0.7007	0.6869	0.07
Mof_H 	H 	0.8006	0.6564	0.7295	0.028
Mof_H 	H 	0.8528	0.6691	0.7771	0.069
Mof_H 	H 	0.8652	0.7417	0.7882	0.031
Mof_H 	H 	0.8337	0.8078	0.8326	-0.001
Mof_H 	H 	0.8075	0.7761	0.8808	0.077
Mof_H 	H 	0.8908	0.7726	0.9185	0.039
Mof_H 	H 	0.9737	0.8565	0.8645	0.037
Mof_H 	H 	0.1153	0.7836	0.0074	0.045
Mof_H 	H 	0.1124	0.7427	0.0545	0.059
Mof_H 	H 	0.0335	0.6979	0.0596	0.033
Mof_H 	H 	0.9663	0.7386	0.9808	0.039
Mof_H 	H 	0.1768	0.8502	0.9564	0.045
Mof_H 	H 	0.0899	0.8954	0.8802	0.05
Mof_H 	H 	0.1693	0.9357	0.8678	0.059
Mof_H 	H 	0.2668	0.9125	0.8932	0.028
Mof_H 	H 	0.8456	0.4092	0.7098	0.006
Mof_H 	H 	0.761	0.4542	0.7116	0.079
Mof_H 	H 	0.7404	0.4815	0.7612	0.024
Mof_H 	H 	0.8984	0.4491	0.7906	0.032
Mof_H 	H 	0.8348	0.5547	0.9144	0.042
Mof_H 	H 	0.9063	0.451	0.8795	0.031
Mof_H 	H 	0.935	0.4345	0.9313	0.085
Mof_H 	H 	0.9401	0.4865	0.9669	-0
Mof_H 	H 	0.6713	0.6959	0.8102	0.012
Mof_H 	H 	0.7417	0.6954	0.8504	0.079
Mof_H 	H 	0.787	0.6314	0.8598	0.029
Mof_H 	H 	0.6863	0.579	0.7945	0.034
Mof_H 	H 	0.7556	0.5599	0.7444	0.057
Mof_H 	H 	0.8519	0.5478	0.7243	0.047
Mof_H 	H 	0.8995	0.5607	0.675	0.051
Mof_H 	H 	0.8296	0.5922	0.6368	0.042
Mof_H 	H 	0.7352	0.6121	0.6535	0.046
Mof_H 	H 	0.3742	0.0034	0.7187	0.051
Mof_H 	H 	0.3543	0.9352	0.7314	0.049
Mof_H 	H 	0.4284	0.8876	0.7518	0.042
Mof_H 	H 	0.5162	0.9214	0.7693	0.051
Mof_H 	H 	0.538	0.9906	0.7584	0.045
Mof_H 	H 	0.7096	0.7515	0.7704	0.006
Mof_H 	H 	0.7511	0.8139	0.7726	0.102
Mof_H 	H 	0.7439	0.8557	0.7304	0.012
Mof_H 	H 	0.6999	0.8399	0.6824	0.089
Mof_H 	H 	0.6642	0.7688	0.6804	0.018
Mof_H 	H 	0.4408	0.2	0.6502	0.028
Mof_H 	H 	0.4596	0.2186	0.5969	0.062
Mof_H 	H 	0.5545	0.2042	0.5774	0.035
Mof_H 	H 	0.6276	0.1685	0.6112	0.058
Mof_H 	H 	0.5967	0.1491	0.6643	0.047
Mof_H 	H 	0.4382	0.7259	0.6479	0.049
Mof_H 	H 	0.3691	0.7736	0.6238	0.058
Mof_H 	H 	0.2702	0.7682	0.6399	0.036
Mof_H 	H 	0.2444	0.7252	0.6822	0.059
Mof_H 	H 	0.3128	0.6858	0.7082	0.04
Mof_H 	H 	0.4994	0.5758	0.6171	0.042
Mof_H 	H 	0.4654	0.5304	0.58	0.059
Mof_H 	H 	0.3655	0.5006	0.5881	0.041
Mof_H 	H 	0.3256	0.5095	0.6376	0.052
Mof_H 	H 	0.3742	0.5432	0.6783	0.041
Mof_H 	H 	0.6601	0.1054	0.786	0.016
Mof_H 	H 	0.7546	0.0821	0.7767	0.072
Mof_H 	H 	0.7634	0.0388	0.7338	0.034
Mof_H 	H 	0.602	0.0677	0.7016	0.046
Mof_H 	H 	0.6601	0.6827	0.6467	0.02
Mof_H 	H 	0.6607	0.7292	0.5981	0.068
Mof_H 	H 	0.5809	0.7208	0.5661	0.037
Mof_H 	H 	0.4885	0.6618	0.6313	0.043
Mof_H 	H 	0.8085	0.5008	0.0954	0.066
Mof_H 	H 	0.8179	0.4391	0.122	0.025
Mof_H 	H 	0.8864	0.3888	0.1072	0.094
Mof_H 	H 	0.9334	0.4052	0.0646	0.008
Mof_H 	H 	0.9048	0.4537	0.0316	0.074
Mof_H 	H 	0.3514	0.8762	0.8631	0.031
Mof_H 	H 	0.368	0.8708	0.8097	0.068
Mof_H 	H 	0.4257	0.8089	0.8005	0.032
Mof_H 	H 	0.5001	0.7834	0.8363	0.066
Mof_H 	H 	0.4855	0.8097	0.8926	0.034
Mof_H 	H 	0.0358	0.5079	0.9947	0.043
Mof_H 	H 	0.1256	0.4679	0.0044	0.057
Mof_H 	H 	0.2116	0.5081	0.0239	0.048
Mof_H 	H 	0.1894	0.5722	0.0424	0.05
Mof_H 	H 	0.1091	0.6158	0.029	0.049
Mof_H 	H 	0.9543	0.7062	0.9236	0.046
Mof_H 	H 	0.9061	0.5986	0.8837	0.043
Mof_H 	H 	0.9156	0.6309	0.8323	0.061
Mof_H 	H 	0.9567	0.6978	0.8287	0.033
Mof_H 	H 	0.9691	0.7373	0.8738	0.062
Mof_H 	H 	0.2368	0.7807	0.9686	0.075
Mof_H 	H 	0.1632	0.7229	0.9622	0.052
Mof_H 	H 	0.2188	0.6605	0.9694	0.044
Mof_H 	H 	0.3151	0.6453	0.9703	0.051
Mof_H 	H 	0.3856	0.7067	0.9778	0.047
Mof_H 	H 	0.7247	0.5651	0.9188	0.009
Mof_H 	H 	0.66	0.5925	0.8789	0.113
Mof_H 	H 	0.574	0.609	0.902	-0.005
Mof_H 	H 	0.5656	0.6444	0.9505	0.108
Mof_H 	H 	0.6443	0.6333	0.9828	-0.003
Mof_H 	H 	0.9259	0.2644	0.9924	0.037
Mof_H 	H 	0.9064	0.3353	0.9995	0.07
Mof_H 	H 	0.8163	0.3517	0.9795	0.026
Mof_H 	H 	0.7402	0.3109	0.9582	0.072
Mof_H 	H 	0.7681	0.239	0.96	0.039
Mof_H 	H 	0.0441	0.1521	0.9041	0.041
Mof_H 	H 	0.0937	0.1463	0.8524	0.058
Mof_H 	H 	0.0404	0.1334	0.8077	0.029
Mof_H 	H 	0.9509	0.098	0.8099	0.064
Mof_H 	H 	0.9063	0.0935	0.8646	0.036
Mof_H 	H 	0.2945	0.4981	0.0972	-0.009
Mof_H 	H 	0.2835	0.5561	0.1307	0.144
Mof_H 	H 	0.2893	0.6138	0.1096	-0.042
Mof_H 	H 	0.3346	0.6266	0.0593	0.104
Mof_H 	H 	0.3611	0.5654	0.0266	0.017
Mof_H 	H 	0.9875	0.1907	0.0829	0.03
Mof_H 	H 	0.9826	0.2231	0.1313	0.085
Mof_H 	H 	0.9435	0.1794	0.1691	0.023
Mof_H 	H 	0.9173	0.1105	0.1664	0.078
Mof_H 	H 	0.8948	0.0961	0.1114	0.036
Mof_H 	H 	0.1198	0.0695	0.959	-0.052
Mof_H 	H 	0.1866	0.0326	0.9326	0.18
Mof_H 	H 	0.1986	0.9658	0.9505	-0.075
Mof_H 	H 	0.1357	0.9371	0.9869	0.187
Mof_H 	H 	0.0681	0.9783	0.0087	-0.053
Mof_H 	H 	0.2906	0.4155	0.1072	0.01
Mof_H 	H 	0.2197	0.4033	0.1443	0.088
Mof_H 	H 	0.1427	0.3694	0.1249	0.026
Mof_H 	H 	0.2236	0.3414	0.0451	0.032
Mof_H 	H 	0.0134	0.2142	0.0253	0.046
Mof_H 	H 	0.1713	0.2496	0.002	0.031
Mof_H 	H 	0.1716	0.196	0.9663	0.071
Mof_H 	H 	0.0908	0.1523	0.9585	0.02
Mof_H 	H 	0.9394	0.9598	0.0245	0.023
Mof_H 	H 	0.9331	0.9058	0.06	0.067
Mof_H 	H 	0.8836	0.9174	0.1115	0.041
Mof_H 	H 	0.8505	0.0294	0.0811	0.039
Mof_H 	H 	0.7507	0.0949	0.1147	0.031
Mof_H 	H 	0.6906	0.1463	0.1163	0.077
Mof_H 	H 	0.6295	0.157	0.1602	0.02
Mof_H 	H 	0.6939	0.0557	0.1973	0.04
Mof_H 	H 	0.5258	0.1355	0.1332	0.038
Mof_H 	H 	0.4761	0.1525	0.0835	0.075
Mof_H 	H 	0.3819	0.1614	0.0843	0.011
Mof_H 	H 	0.3312	0.1627	0.1308	0.076
Mof_H 	H 	0.3696	0.1287	0.1745	0.035
Mof_H 	H 	0.6329	0.967	0.2166	0.047
Mof_H 	H 	0.6392	0.8926	0.2177	0.059
Mof_H 	H 	0.5457	0.8629	0.2278	0.036
Mof_H 	H 	0.4613	0.8956	0.2399	0.051
Mof_H 	H 	0.4553	0.9696	0.2344	0.051
Mof_H 	H 	0.5796	0.0331	0.3679	0.052
Mof_H 	H 	0.5677	0.9855	0.4075	0.052
Mof_H 	H 	0.4818	0.9448	0.4147	0.051
Mof_H 	H 	0.4068	0.9792	0.3888	0.043
Mof_H 	H 	0.4101	0.014	0.3385	0.049
Mof_H 	H 	0.4399	0.2136	0.3567	0.05
Mof_H 	H 	0.3605	0.2381	0.3935	0.053
Mof_H 	H 	0.2651	0.216	0.3779	0.048
Mof_H 	H 	0.2456	0.19	0.3283	0.049
Mof_H 	H 	0.324	0.1567	0.2964	0.054
Mof_H 	H 	0.7752	0.0526	0.2449	0.016
Mof_H 	H 	0.86	0.0227	0.2556	0.093
Mof_H 	H 	0.8964	0.0374	0.3068	0.01
Mof_H 	H 	0.8537	0.0921	0.3374	0.084
Mof_H 	H 	0.7562	0.103	0.3306	0.006
Mof_H 	H 	0.6577	0.2295	0.199	0.031
Mof_H 	H 	0.6862	0.2993	0.1869	0.07
Mof_H 	H 	0.6994	0.3436	0.2295	0.028
Mof_H 	H 	0.6472	0.3309	0.2771	0.069
Mof_H 	H 	0.6348	0.2583	0.2882	0.032
Mof_H 	H 	0.6663	0.1922	0.3326	-0.001
Mof_H 	H 	0.6925	0.2239	0.3808	0.077
Mof_H 	H 	0.6092	0.2274	0.4185	0.039
Mof_H 	H 	0.5263	0.1435	0.3645	0.037
Mof_H 	H 	0.3847	0.2164	0.5074	0.044
Mof_H 	H 	0.3876	0.2573	0.5545	0.059
Mof_H 	H 	0.4665	0.3021	0.5596	0.032
Mof_H 	H 	0.5337	0.2614	0.4808	0.037
Mof_H 	H 	0.3232	0.1498	0.4564	0.045
Mof_H 	H 	0.4101	0.1046	0.3802	0.05
Mof_H 	H 	0.3307	0.0643	0.3678	0.059
Mof_H 	H 	0.2332	0.0875	0.3932	0.028
Mof_H 	H 	0.6544	0.5908	0.2098	0.006
Mof_H 	H 	0.739	0.5458	0.2116	0.079
Mof_H 	H 	0.7596	0.5185	0.2612	0.024
Mof_H 	H 	0.6016	0.5509	0.2906	0.032
Mof_H 	H 	0.6652	0.4453	0.4144	0.042
Mof_H 	H 	0.5937	0.549	0.3795	0.031
Mof_H 	H 	0.565	0.5655	0.4313	0.085
Mof_H 	H 	0.5599	0.5135	0.4669	0
Mof_H 	H 	0.8287	0.3041	0.3102	0.012
Mof_H 	H 	0.7583	0.3046	0.3504	0.078
Mof_H 	H 	0.713	0.3686	0.3598	0.029
Mof_H 	H 	0.8137	0.421	0.2945	0.034
Mof_H 	H 	0.7444	0.4401	0.2444	0.057
Mof_H 	H 	0.6481	0.4522	0.2243	0.047
Mof_H 	H 	0.6005	0.4393	0.175	0.051
Mof_H 	H 	0.6704	0.4078	0.1368	0.042
Mof_H 	H 	0.7648	0.3879	0.1535	0.046
Mof_H 	H 	0.1258	0.9966	0.2187	0.053
Mof_H 	H 	0.1457	0.0648	0.2314	0.047
Mof_H 	H 	0.0716	0.1124	0.2518	0.046
Mof_H 	H 	0.9838	0.0786	0.2693	0.044
Mof_H 	H 	0.962	0.0094	0.2584	0.05
Mof_H 	H 	0.7904	0.2485	0.2704	0.006
Mof_H 	H 	0.7489	0.1861	0.2726	0.102
Mof_H 	H 	0.7561	0.1443	0.2304	0.012
Mof_H 	H 	0.8001	0.1601	0.1824	0.089
Mof_H 	H 	0.8358	0.2312	0.1804	0.018
Mof_H 	H 	0.0592	0.8	0.1502	0.027
Mof_H 	H 	0.0404	0.7814	0.0969	0.062
Mof_H 	H 	0.9455	0.7958	0.0774	0.035
Mof_H 	H 	0.8724	0.8315	0.1112	0.058
Mof_H 	H 	0.9033	0.8509	0.1643	0.046
Mof_H 	H 	0.0618	0.2741	0.1479	0.05
Mof_H 	H 	0.1309	0.2264	0.1238	0.058
Mof_H 	H 	0.2298	0.2318	0.1399	0.036
Mof_H 	H 	0.2556	0.2748	0.1822	0.058
Mof_H 	H 	0.1872	0.3142	0.2082	0.04
Mof_H 	H 	0.0006	0.4242	0.1171	0.043
Mof_H 	H 	0.0346	0.4696	0.08	0.06
Mof_H 	H 	0.1345	0.4994	0.0881	0.041
Mof_H 	H 	0.1744	0.4905	0.1376	0.052
Mof_H 	H 	0.1258	0.4568	0.1783	0.041
Mof_H 	H 	0.8399	0.8946	0.286	0.016
Mof_H 	H 	0.7454	0.9179	0.2767	0.072
Mof_H 	H 	0.7366	0.9612	0.2338	0.034
Mof_H 	H 	0.898	0.9323	0.2016	0.046
Mof_H 	H 	0.8399	0.3173	0.1467	0.02
Mof_H 	H 	0.8393	0.2708	0.0981	0.068
Mof_H 	H 	0.9191	0.2792	0.0661	0.036
Mof_H 	H 	0.0115	0.3382	0.1313	0.046
Mof_H 	H 	0.6915	0.4992	0.5954	0.067
Mof_H 	H 	0.6821	0.5609	0.622	0.024
Mof_H 	H 	0.6136	0.6112	0.6072	0.095
Mof_H 	H 	0.5666	0.5948	0.5646	0.008
Mof_H 	H 	0.5952	0.5463	0.5316	0.075
Mof_H 	H 	0.1486	0.1238	0.3631	0.032
Mof_H 	H 	0.132	0.1292	0.3097	0.067
Mof_H 	H 	0.0743	0.1911	0.3005	0.033
Mof_H 	H 	0.9999	0.2166	0.3363	0.061
Mof_H 	H 	0.0145	0.1903	0.3926	0.036
Mof_H 	H 	0.4642	0.4921	0.4947	0.043
Mof_H 	H 	0.3744	0.5321	0.5044	0.056
Mof_H 	H 	0.2884	0.4919	0.5239	0.048
Mof_H 	H 	0.3106	0.4278	0.5424	0.05
Mof_H 	H 	0.3909	0.3842	0.529	0.049
Mof_H 	H 	0.5457	0.2938	0.4236	0.046
Mof_H 	H 	0.5939	0.4014	0.3837	0.043
Mof_H 	H 	0.5844	0.3691	0.3323	0.061
Mof_H 	H 	0.5433	0.3022	0.3287	0.033
Mof_H 	H 	0.5309	0.2627	0.3738	0.062
Mof_H 	H 	0.2632	0.2193	0.4686	0.075
Mof_H 	H 	0.3368	0.2771	0.4622	0.052
Mof_H 	H 	0.2812	0.3395	0.4694	0.043
Mof_H 	H 	0.1849	0.3547	0.4703	0.051
Mof_H 	H 	0.1144	0.2933	0.4778	0.048
Mof_H 	H 	0.7753	0.4349	0.4188	0.009
Mof_H 	H 	0.84	0.4075	0.3789	0.113
Mof_H 	H 	0.926	0.391	0.402	-0.005
Mof_H 	H 	0.9344	0.3556	0.4505	0.107
Mof_H 	H 	0.8557	0.3667	0.4828	-0.003
Mof_C 	C 	0.3789	0.3009	0.0192	0.4
Mof_C 	C 	0.3508	0.2587	0.0202	-0.118
Mof_C 	C 	0.3876	0.2269	0.012	0.036
Mof_C 	C 	0.38	0.184	0.0089	-0.111
Mof_C 	C 	0.3247	0.1767	0.0209	0.024
Mof_C 	C 	0.2758	0.1995	0.034	-0.106
Mof_C 	C 	0.2949	0.2414	0.0323	0.032
Mof_C 	C 	0.4446	0.3692	0.0814	0.387
Mof_C 	C 	0.4693	0.3702	0.1149	-0.101
Mof_C 	C 	0.5252	0.3574	0.1142	0.007
Mof_C 	C 	0.5538	0.3601	0.1458	-0.071
Mof_C 	C 	0.5233	0.3718	0.1726	-0.001
Mof_C 	C 	0.4689	0.3909	0.172	-0.076
Mof_C 	C 	0.4411	0.3919	0.1391	0.014
Mof_C 	C 	0.776	0.0817	0.013	0.362
Mof_C 	C 	0.8443	0.0138	0.9603	0.374
Mof_C 	C 	0.8217	0.9751	0.9417	-0.169
Mof_C 	C 	0.8029	0.9758	0.9113	0.146
Mof_C 	C 	0.7941	0.9409	0.8906	-0.314
Mof_C 	C 	0.8012	0.9093	0.9022	0.226
Mof_C 	C 	0.8273	0.9005	0.9339	-0.196
Mof_C 	C 	0.8412	0.9369	0.9541	0.084
Mof_C 	C 	0.4457	0.3814	0.9431	0.415
Mof_C 	C 	0.4522	0.3638	0.9075	-0.112
Mof_C 	C 	0.4713	0.3241	0.9002	0.056
Mof_C 	C 	0.4702	0.3041	0.8727	-0.131
Mof_C 	C 	0.4464	0.3324	0.8511	0.046
Mof_C 	C 	0.4259	0.3728	0.8511	-0.123
Mof_C 	C 	0.421	0.3828	0.883	0.044
Mof_C 	C 	0.5282	0.4418	0.0084	0.49
Mof_C 	C 	0.5736	0.4711	0.0176	-0.334
Mof_C 	C 	0.6192	0.4591	0.0372	0.29
Mof_C 	C 	0.6627	0.4792	0.0517	-0.419
Mof_C 	C 	0.6681	0.518	0.0414	0.346
Mof_C 	C 	0.6316	0.5353	0.0196	-0.415
Mof_C 	C 	0.5897	0.5107	0.0081	0.304
Mof_C 	C 	0.7602	0.1026	0.8984	0.1
Mof_C 	C 	0.7184	0.1075	0.8762	-0.161
Mof_C 	C 	0.6763	0.1294	0.8877	0.057
Mof_C 	C 	0.6727	0.1513	0.9157	-0.068
Mof_C 	C 	0.7222	0.1445	0.9354	0.071
Mof_C 	C 	0.6207	0.1808	0.9295	0.136
Mof_C 	C 	0.5225	0.1957	0.9232	0.119
Mof_C 	C 	0.5442	0.2893	0.9891	0.049
Mof_C 	C 	0.5904	0.262	0.9851	-0.067
Mof_C 	C 	0.6384	0.2673	0.0009	0.029
Mof_C 	C 	0.6377	0.299	0.0217	-0.115
Mof_C 	C 	0.5871	0.3262	0.0268	0.081
Mof_C 	C 	0.4201	0.5356	0.9562	0.073
Mof_C 	C 	0.4174	0.5683	0.9348	-0.101
Mof_C 	C 	0.3894	0.5615	0.9035	-0.001
Mof_C 	C 	0.3722	0.5192	0.8984	-0.051
Mof_C 	C 	0.3719	0.495	0.9222	0.066
Mof_C 	C 	0.3362	0.5143	0.8671	0.131
Mof_C 	C 	0.2749	0.47	0.8431	0.16
Mof_C 	C 	0.3048	0.5303	0.8208	0.132
Mof_C 	C 	0.2343	0.4395	0.8447	-0.076
Mof_C 	C 	0.2263	0.4041	0.8675	0.035
Mof_C 	C 	0.1913	0.3725	0.8668	-0.13
Mof_C 	C 	0.1541	0.3662	0.8405	0.081
Mof_C 	C 	0.1935	0.4264	0.8202	0.051
Mof_C 	C 	0.9868	0.3776	0.8091	0.352
Mof_C 	C 	0.9536	0.3617	0.839	-0.078
Mof_C 	C 	0.9853	0.3596	0.867	0.008
Mof_C 	C 	0.9551	0.3496	0.8975	-0.103
Mof_C 	C 	0.9016	0.3443	0.8967	0.041
Mof_C 	C 	0.8702	0.3465	0.8692	-0.103
Mof_C 	C 	0.8936	0.3615	0.8419	0.029
Mof_C 	C 	0.0413	0.4752	0.7709	0.327
Mof_C 	C 	0.0463	0.5234	0.7755	-0.06
Mof_C 	C 	0.0984	0.5479	0.7797	-0.003
Mof_C 	C 	0.1048	0.5922	0.779	-0.073
Mof_C 	C 	0.0476	0.6081	0.7723	-0.004
Mof_C 	C 	0.9942	0.5888	0.7659	-0.068
Mof_C 	C 	0.9906	0.5448	0.7684	-0.015
Mof_C 	C 	0.0035	0.4366	0.6754	0.335
Mof_C 	C 	0.9964	0.4695	0.6491	-0.07
Mof_C 	C 	0.0432	0.4798	0.6295	-0.014
Mof_C 	C 	0.0354	0.5097	0.6056	-0.035
Mof_C 	C 	0.9861	0.5328	0.5992	-0.045
Mof_C 	C 	0.9446	0.5148	0.6186	-0.03
Mof_C 	C 	0.9416	0.4888	0.6475	-0.029
Mof_C 	C 	0.8887	0.3149	0.6772	-0.041
Mof_C 	C 	0.9007	0.2922	0.6482	-0.024
Mof_C 	C 	0.8532	0.277	0.625	-0.048
Mof_C 	C 	0.7968	0.2891	0.6356	-0.026
Mof_C 	C 	0.7847	0.3083	0.665	-0.044
Mof_C 	C 	0.832	0.3262	0.6862	-0.032
Mof_C 	C 	0.1964	0.4043	0.72	0.302
Mof_C 	C 	0.2524	0.4173	0.7139	-0.164
Mof_C 	C 	0.2904	0.4429	0.7348	0.089
Mof_C 	C 	0.3406	0.4601	0.7299	-0.164
Mof_C 	C 	0.362	0.4498	0.7003	0.064
Mof_C 	C 	0.3334	0.4198	0.6796	-0.154
Mof_C 	C 	0.2782	0.4097	0.6854	0.089
Mof_C 	C 	0.1252	0.3054	0.7507	0.387
Mof_C 	C 	0.1395	0.2618	0.7565	-0.134
Mof_C 	C 	0.1573	0.2506	0.7849	0.053
Mof_C 	C 	0.1765	0.2086	0.7925	-0.109
Mof_C 	C 	0.1797	0.1816	0.7676	0.031
Mof_C 	C 	0.1548	0.1898	0.7379	-0.107
Mof_C 	C 	0.1419	0.2329	0.7325	0.048
Mof_C 	C 	0.1405	0.3118	0.6505	0.125
Mof_C 	C 	0.1564	0.2893	0.6223	-0.133
Mof_C 	C 	0.1087	0.29	0.5992	0.008
Mof_C 	C 	0.0641	0.3163	0.6043	-0.052
Mof_C 	C 	0.0584	0.3388	0.6326	0.04
Mof_C 	C 	0.0147	0.3185	0.5797	0.136
Mof_C 	C 	0.9665	0.297	0.5409	0.133
Mof_C 	C 	0.9223	0.3407	0.5682	0.11
Mof_C 	C 	0.9664	0.2703	0.5108	-0.058
Mof_C 	C 	0.9179	0.2673	0.4887	-0.011
Mof_C 	C 	0.9169	0.2409	0.461	-0.086
Mof_C 	C 	0.9624	0.2131	0.4592	0.027
Mof_C 	C 	0.0022	0.2377	0.5051	0.067
Mof_C 	C 	0.9937	0.0822	0.4971	0.372
Mof_C 	C 	0.8206	0.3645	0.5628	0.017
Mof_C 	C 	0.8697	0.3647	0.5823	-0.026
Mof_C 	C 	0.8749	0.3929	0.6087	-0.01
Mof_C 	C 	0.829	0.415	0.6166	-0.079
Mof_C 	C 	0.7686	0.4042	0.5975	0.055
Mof_C 	C 	0.1589	0.928	0.7735	0.102
Mof_C 	C 	0.2129	0.9516	0.7714	-0.137
Mof_C 	C 	0.2225	0.9699	0.7422	0.038
Mof_C 	C 	0.1842	0.9729	0.7184	-0.076
Mof_C 	C 	0.1298	0.9505	0.7254	0.06
Mof_C 	C 	0.1874	0.0026	0.6926	0.155
Mof_C 	C 	0.2232	0.0586	0.6714	0.141
Mof_C 	C 	0.1735	0.0146	0.638	0.155
Mof_C 	C 	0.1422	0.0307	0.5845	0.047
Mof_C 	C 	0.1416	0.0039	0.6136	-0.078
Mof_C 	C 	0.104	0.9696	0.6044	0.038
Mof_C 	C 	0.0806	0.9607	0.5733	-0.152
Mof_C 	C 	0.0816	0.9901	0.5517	0.129
Mof_C 	C 	0.313	0.1702	0.6838	0.098
Mof_C 	C 	0.2689	0.1713	0.6606	-0.137
Mof_C 	C 	0.2426	0.133	0.6555	0.035
Mof_C 	C 	0.256	0.1002	0.6702	-0.071
Mof_C 	C 	0.3043	0.1026	0.6936	0.054
Mof_C 	C 	0.3252	0.108	0.7892	0.335
Mof_C 	C 	0.2666	0.0902	0.8008	-0.065
Mof_C 	C 	0.2319	0.0678	0.7758	-0.034
Mof_C 	C 	0.1727	0.0608	0.7905	-0.034
Mof_C 	C 	0.1396	0.0675	0.8208	-0.051
Mof_C 	C 	0.1816	0.0869	0.8422	-0.046
Mof_C 	C 	0.2411	0.0983	0.8318	-0.023
Mof_C 	C 	0.5402	0.5517	0.7698	0.328
Mof_C 	C 	0.5411	0.5055	0.7634	-0.065
Mof_C 	C 	0.597	0.4873	0.7714	-0.02
Mof_C 	C 	0.6081	0.4453	0.7643	-0.046
Mof_C 	C 	0.5651	0.4161	0.7506	-0.032
Mof_C 	C 	0.5119	0.437	0.7415	-0.052
Mof_C 	C 	0.4983	0.4796	0.7477	-0.007
Mof_C 	C 	0.3684	0.2132	0.7712	0.526
Mof_C 	C 	0.3339	0.252	0.7726	-0.188
Mof_C 	C 	0.2961	0.269	0.747	0.109
Mof_C 	C 	0.2694	0.3054	0.7455	-0.184
Mof_C 	C 	0.2734	0.3295	0.7715	0.097
Mof_C 	C 	0.299	0.3215	0.8004	-0.154
Mof_C 	C 	0.3243	0.2794	0.8	0.075
Mof_C 	C 	0.4962	0.6603	0.808	0.387
Mof_C 	C 	0.4872	0.6734	0.8437	-0.108
Mof_C 	C 	0.5233	0.693	0.8592	0.043
Mof_C 	C 	0.5121	0.7053	0.8907	-0.092
Mof_C 	C 	0.4556	0.6964	0.902	-0.004
Mof_C 	C 	0.4102	0.6742	0.8813	-0.07
Mof_C 	C 	0.4279	0.6625	0.8502	0.005
Mof_C 	C 	0.5628	0.1897	0.7973	0.378
Mof_C 	C 	0.6141	0.2146	0.8117	-0.081
Mof_C 	C 	0.5985	0.2313	0.8431	-0.005
Mof_C 	C 	0.6417	0.2561	0.8595	-0.062
Mof_C 	C 	0.7007	0.2531	0.8495	-0.008
Mof_C 	C 	0.716	0.2275	0.8235	-0.07
Mof_C 	C 	0.6755	0.2059	0.8065	0.01
Mof_C 	C 	0.5266	0.0851	0.8234	0.335
Mof_C 	C 	0.5593	0.0602	0.8503	-0.079
Mof_C 	C 	0.5336	0.0594	0.8789	0.01
Mof_C 	C 	0.5555	0.0352	0.9013	-0.067
Mof_C 	C 	0.6148	0.0155	0.896	-0.015
Mof_C 	C 	0.6374	0.0209	0.8665	-0.061
Mof_C 	C 	0.6103	0.0418	0.8421	-0.002
Mof_C 	C 	0.3303	0.5954	0.7341	0.081
Mof_C 	C 	0.2759	0.5781	0.7378	-0.122
Mof_C 	C 	0.2703	0.5551	0.7639	0.013
Mof_C 	C 	0.3147	0.5541	0.789	-0.042
Mof_C 	C 	0.3664	0.5721	0.7846	0.026
Mof_C 	C 	0.3737	0.1864	0.8655	0.057
Mof_C 	C 	0.371	0.2123	0.8963	-0.102
Mof_C 	C 	0.42	0.2077	0.9141	0.013
Mof_C 	C 	0.4668	0.1882	0.9078	-0.055
Mof_C 	C 	0.4749	0.1711	0.8758	0.032
Mof_C 	C 	0.157	0.0282	0.4647	0.341
Mof_C 	C 	0.1519	0.9862	0.4435	-0.004
Mof_C 	C 	0.1701	0.9795	0.4144	-0.077
Mof_C 	C 	0.1602	0.9428	0.3965	0.035
Mof_C 	C 	0.1212	0.9127	0.4046	-0.15
Mof_C 	C 	0.0982	0.9217	0.429	0.073
Mof_C 	C 	0.1135	0.9537	0.4486	-0.096
Mof_C 	C 	0.6014	0.3497	0.5846	0.352
Mof_C 	C 	0.5898	0.3391	0.6166	-0.129
Mof_C 	C 	0.619	0.3577	0.643	0.047
Mof_C 	C 	0.6136	0.3546	0.6748	-0.109
Mof_C 	C 	0.573	0.3209	0.6793	0.011
Mof_C 	C 	0.5297	0.3017	0.6576	-0.088
Mof_C 	C 	0.5411	0.3164	0.6235	0.032
Mof_C 	C 	0.9353	0.0598	0.492	-0.086
Mof_C 	C 	0.9313	0.0216	0.4972	0.008
Mof_C 	C 	0.8763	0.9963	0.4914	-0.062
Mof_C 	C 	0.8259	0.0195	0.4784	-0.027
Mof_C 	C 	0.8398	0.0599	0.47	-0.046
Mof_C 	C 	0.8883	0.0875	0.4758	-0.015
Mof_C 	C 	0.0764	0.1429	0.5564	0.418
Mof_C 	C 	0.053	0.1905	0.5946	0.005
Mof_C 	C 	0.0727	0.1501	0.5909	-0.104
Mof_C 	C 	0.0825	0.1263	0.618	0.029
Mof_C 	C 	0.0746	0.1456	0.6493	-0.08
Mof_C 	C 	0.0521	0.1866	0.6514	0.002
Mof_C 	C 	0.0431	0.2097	0.6248	-0.074
Mof_C 	C 	0.6754	0.2894	0.5264	0.334
Mof_C 	C 	0.6932	0.2426	0.5285	-0.049
Mof_C 	C 	0.752	0.2528	0.5315	-0.048
Mof_C 	C 	0.7963	0.2209	0.5347	-0.046
Mof_C 	C 	0.7581	0.1844	0.5314	-0.022
Mof_C 	C 	0.6971	0.173	0.529	-0.054
Mof_C 	C 	0.655	0.2075	0.5255	-0.022
Mof_C 	C 	0.2536	0.0933	0.5249	0.371
Mof_C 	C 	0.304	0.1026	0.5464	-0.183
Mof_C 	C 	0.3039	0.0849	0.5763	0.113
Mof_C 	C 	0.3451	0.0957	0.5992	-0.203
Mof_C 	C 	0.392	0.1109	0.5856	0.13
Mof_C 	C 	0.4009	0.1297	0.5557	-0.212
Mof_C 	C 	0.3543	0.123	0.5379	0.132
Mof_C 	C 	0.9342	0.3269	0.7021	0.236
Mof_C 	C 	0.5821	0.2313	0.9625	0.125
Mof_C 	C 	0.1211	0.6991	0.5192	0.399
Mof_C 	C 	0.1492	0.7413	0.5202	-0.118
Mof_C 	C 	0.1124	0.7731	0.512	0.036
Mof_C 	C 	0.12	0.816	0.5089	-0.111
Mof_C 	C 	0.1753	0.8233	0.5209	0.024
Mof_C 	C 	0.2242	0.8005	0.534	-0.106
Mof_C 	C 	0.2051	0.7586	0.5323	0.032
Mof_C 	C 	0.0554	0.6308	0.5814	0.384
Mof_C 	C 	0.0307	0.6298	0.6149	-0.092
Mof_C 	C 	0.9748	0.6426	0.6142	-0.004
Mof_C 	C 	0.9462	0.6399	0.6458	-0.062
Mof_C 	C 	0.9767	0.6282	0.6726	-0.013
Mof_C 	C 	0.0311	0.6091	0.672	-0.065
Mof_C 	C 	0.0589	0.6081	0.6391	0.007
Mof_C 	C 	0.724	0.9183	0.513	0.362
Mof_C 	C 	0.6557	0.9862	0.4603	0.374
Mof_C 	C 	0.6783	0.0249	0.4417	-0.169
Mof_C 	C 	0.6971	0.0242	0.4113	0.146
Mof_C 	C 	0.7059	0.0591	0.3906	-0.314
Mof_C 	C 	0.6988	0.0907	0.4022	0.226
Mof_C 	C 	0.6727	0.0995	0.4339	-0.196
Mof_C 	C 	0.6588	0.0631	0.4541	0.084
Mof_C 	C 	0.0543	0.6186	0.4431	0.415
Mof_C 	C 	0.0478	0.6362	0.4075	-0.112
Mof_C 	C 	0.0287	0.6759	0.4002	0.056
Mof_C 	C 	0.0298	0.6959	0.3727	-0.13
Mof_C 	C 	0.0536	0.6676	0.3511	0.046
Mof_C 	C 	0.0741	0.6272	0.3511	-0.122
Mof_C 	C 	0.079	0.6172	0.383	0.043
Mof_C 	C 	0.9718	0.5582	0.5084	0.486
Mof_C 	C 	0.9264	0.5289	0.5176	-0.333
Mof_C 	C 	0.8808	0.5409	0.5372	0.288
Mof_C 	C 	0.8373	0.5208	0.5517	-0.418
Mof_C 	C 	0.8319	0.482	0.5414	0.344
Mof_C 	C 	0.8684	0.4647	0.5196	-0.413
Mof_C 	C 	0.9103	0.4893	0.5081	0.302
Mof_C 	C 	0.7398	0.8974	0.3984	0.1
Mof_C 	C 	0.7816	0.8925	0.3762	-0.161
Mof_C 	C 	0.8237	0.8706	0.3877	0.057
Mof_C 	C 	0.8273	0.8487	0.4157	-0.068
Mof_C 	C 	0.7778	0.8555	0.4354	0.071
Mof_C 	C 	0.8793	0.8192	0.4295	0.135
Mof_C 	C 	0.9775	0.8043	0.4232	0.116
Mof_C 	C 	0.9558	0.7107	0.4891	0.049
Mof_C 	C 	0.9096	0.738	0.4851	-0.068
Mof_C 	C 	0.8616	0.7327	0.5009	0.029
Mof_C 	C 	0.8623	0.701	0.5217	-0.115
Mof_C 	C 	0.9129	0.6738	0.5268	0.081
Mof_C 	C 	0.0799	0.4644	0.4562	0.073
Mof_C 	C 	0.0826	0.4317	0.4348	-0.101
Mof_C 	C 	0.1106	0.4385	0.4035	-0.001
Mof_C 	C 	0.1278	0.4808	0.3984	-0.051
Mof_C 	C 	0.1281	0.505	0.4222	0.066
Mof_C 	C 	0.1638	0.4857	0.3671	0.131
Mof_C 	C 	0.2251	0.53	0.3431	0.161
Mof_C 	C 	0.1952	0.4697	0.3208	0.132
Mof_C 	C 	0.2657	0.5605	0.3447	-0.076
Mof_C 	C 	0.2737	0.5959	0.3675	0.035
Mof_C 	C 	0.3087	0.6275	0.3668	-0.13
Mof_C 	C 	0.3459	0.6338	0.3405	0.081
Mof_C 	C 	0.3065	0.5736	0.3202	0.051
Mof_C 	C 	0.5132	0.6224	0.3091	0.36
Mof_C 	C 	0.5464	0.6383	0.339	-0.091
Mof_C 	C 	0.5147	0.6404	0.367	0.027
Mof_C 	C 	0.5449	0.6504	0.3975	-0.125
Mof_C 	C 	0.5984	0.6557	0.3967	0.065
Mof_C 	C 	0.6298	0.6535	0.3692	-0.123
Mof_C 	C 	0.6064	0.6385	0.3419	0.045
Mof_C 	C 	0.4587	0.5248	0.2709	0.324
Mof_C 	C 	0.4537	0.4766	0.2755	-0.061
Mof_C 	C 	0.4016	0.4521	0.2797	-0.004
Mof_C 	C 	0.3952	0.4078	0.279	-0.071
Mof_C 	C 	0.4524	0.3919	0.2723	-0.01
Mof_C 	C 	0.5058	0.4112	0.2659	-0.063
Mof_C 	C 	0.5094	0.4552	0.2684	-0.014
Mof_C 	C 	0.4965	0.5634	0.1754	0.328
Mof_C 	C 	0.5036	0.5305	0.1491	-0.063
Mof_C 	C 	0.4568	0.5202	0.1295	-0.019
Mof_C 	C 	0.4646	0.4903	0.1056	-0.037
Mof_C 	C 	0.5139	0.4672	0.0992	-0.042
Mof_C 	C 	0.5554	0.4852	0.1186	-0.029
Mof_C 	C 	0.5584	0.5112	0.1475	-0.032
Mof_C 	C 	0.6113	0.6851	0.1772	-0.041
Mof_C 	C 	0.5993	0.7078	0.1482	-0.025
Mof_C 	C 	0.6468	0.723	0.125	-0.048
Mof_C 	C 	0.7032	0.7109	0.1356	-0.026
Mof_C 	C 	0.7153	0.6917	0.165	-0.043
Mof_C 	C 	0.668	0.6738	0.1862	-0.032
Mof_C 	C 	0.3036	0.5957	0.22	0.302
Mof_C 	C 	0.2476	0.5827	0.2139	-0.164
Mof_C 	C 	0.2096	0.5571	0.2348	0.089
Mof_C 	C 	0.1594	0.5399	0.2299	-0.165
Mof_C 	C 	0.138	0.5502	0.2003	0.064
Mof_C 	C 	0.1666	0.5802	0.1796	-0.154
Mof_C 	C 	0.2218	0.5903	0.1854	0.09
Mof_C 	C 	0.3748	0.6946	0.2507	0.387
Mof_C 	C 	0.3605	0.7382	0.2565	-0.135
Mof_C 	C 	0.3427	0.7494	0.2849	0.053
Mof_C 	C 	0.3235	0.7914	0.2925	-0.109
Mof_C 	C 	0.3203	0.8184	0.2676	0.031
Mof_C 	C 	0.3452	0.8102	0.2379	-0.107
Mof_C 	C 	0.3581	0.7671	0.2325	0.048
Mof_C 	C 	0.3595	0.6882	0.1505	0.125
Mof_C 	C 	0.3436	0.7107	0.1223	-0.133
Mof_C 	C 	0.3913	0.71	0.0992	0.008
Mof_C 	C 	0.4359	0.6837	0.1043	-0.052
Mof_C 	C 	0.4416	0.6612	0.1326	0.039
Mof_C 	C 	0.4853	0.6815	0.0797	0.134
Mof_C 	C 	0.5335	0.703	0.0409	0.134
Mof_C 	C 	0.5777	0.6593	0.0682	0.111
Mof_C 	C 	0.5336	0.7297	0.0108	-0.054
Mof_C 	C 	0.5821	0.7327	0.9887	-0.012
Mof_C 	C 	0.5831	0.7591	0.961	-0.086
Mof_C 	C 	0.5376	0.7869	0.9592	0.029
Mof_C 	C 	0.4978	0.7623	0.0051	0.063
Mof_C 	C 	0.5063	0.9178	0.9971	0.379
Mof_C 	C 	0.6794	0.6355	0.0628	0.017
Mof_C 	C 	0.6303	0.6353	0.0823	-0.025
Mof_C 	C 	0.6251	0.6071	0.1087	-0.01
Mof_C 	C 	0.671	0.585	0.1166	-0.079
Mof_C 	C 	0.7314	0.5958	0.0975	0.055
Mof_C 	C 	0.3411	0.072	0.2735	0.102
Mof_C 	C 	0.2871	0.0484	0.2714	-0.137
Mof_C 	C 	0.2775	0.0301	0.2422	0.038
Mof_C 	C 	0.3158	0.0271	0.2184	-0.076
Mof_C 	C 	0.3702	0.0495	0.2254	0.06
Mof_C 	C 	0.3126	0.9974	0.1926	0.155
Mof_C 	C 	0.2768	0.9414	0.1714	0.141
Mof_C 	C 	0.3265	0.9854	0.138	0.155
Mof_C 	C 	0.3578	0.9693	0.0845	0.047
Mof_C 	C 	0.3584	0.9961	0.1136	-0.078
Mof_C 	C 	0.396	0.0304	0.1044	0.038
Mof_C 	C 	0.4194	0.0393	0.0733	-0.153
Mof_C 	C 	0.4184	0.0099	0.0517	0.129
Mof_C 	C 	0.187	0.8298	0.1838	0.098
Mof_C 	C 	0.2311	0.8287	0.1606	-0.137
Mof_C 	C 	0.2574	0.867	0.1555	0.035
Mof_C 	C 	0.244	0.8998	0.1702	-0.071
Mof_C 	C 	0.1957	0.8974	0.1936	0.054
Mof_C 	C 	0.1748	0.892	0.2892	0.335
Mof_C 	C 	0.2334	0.9098	0.3008	-0.065
Mof_C 	C 	0.2681	0.9322	0.2758	-0.034
Mof_C 	C 	0.3273	0.9392	0.2905	-0.034
Mof_C 	C 	0.3604	0.9325	0.3208	-0.051
Mof_C 	C 	0.3184	0.9131	0.3422	-0.046
Mof_C 	C 	0.2589	0.9017	0.3318	-0.023
Mof_C 	C 	0.9598	0.4483	0.2698	0.328
Mof_C 	C 	0.9589	0.4945	0.2634	-0.073
Mof_C 	C 	0.903	0.5127	0.2714	-0.014
Mof_C 	C 	0.8919	0.5547	0.2643	-0.053
Mof_C 	C 	0.9349	0.5839	0.2506	-0.023
Mof_C 	C 	0.9881	0.563	0.2415	-0.069
Mof_C 	C 	0.0017	0.5204	0.2477	0.008
Mof_C 	C 	0.1316	0.7868	0.2712	0.526
Mof_C 	C 	0.1661	0.748	0.2726	-0.187
Mof_C 	C 	0.2039	0.731	0.247	0.109
Mof_C 	C 	0.2306	0.6946	0.2455	-0.184
Mof_C 	C 	0.2266	0.6705	0.2715	0.097
Mof_C 	C 	0.201	0.6785	0.3004	-0.154
Mof_C 	C 	0.1757	0.7206	0.3	0.075
Mof_C 	C 	0.0038	0.3397	0.308	0.389
Mof_C 	C 	0.0128	0.3266	0.3437	-0.103
Mof_C 	C 	0.9767	0.307	0.3592	0.038
Mof_C 	C 	0.9879	0.2947	0.3907	-0.094
Mof_C 	C 	0.0444	0.3036	0.402	-0.002
Mof_C 	C 	0.0898	0.3258	0.3813	-0.069
Mof_C 	C 	0.0721	0.3375	0.3502	0.003
Mof_C 	C 	0.9372	0.8103	0.2973	0.378
Mof_C 	C 	0.8859	0.7854	0.3117	-0.082
Mof_C 	C 	0.9015	0.7687	0.3431	-0.005
Mof_C 	C 	0.8583	0.7439	0.3595	-0.062
Mof_C 	C 	0.7993	0.7469	0.3495	-0.008
Mof_C 	C 	0.784	0.7725	0.3235	-0.07
Mof_C 	C 	0.8245	0.7941	0.3065	0.011
Mof_C 	C 	0.9734	0.9149	0.3234	0.332
Mof_C 	C 	0.9407	0.9398	0.3503	-0.078
Mof_C 	C 	0.9664	0.9406	0.3789	0.009
Mof_C 	C 	0.9445	0.9648	0.4013	-0.066
Mof_C 	C 	0.8852	0.9845	0.396	-0.016
Mof_C 	C 	0.8626	0.9791	0.3665	-0.061
Mof_C 	C 	0.8897	0.9582	0.3421	-0.003
Mof_C 	C 	0.1697	0.4046	0.2341	0.081
Mof_C 	C 	0.2241	0.4219	0.2378	-0.122
Mof_C 	C 	0.2297	0.4449	0.2639	0.013
Mof_C 	C 	0.1853	0.4459	0.289	-0.042
Mof_C 	C 	0.1336	0.4279	0.2846	0.026
Mof_C 	C 	0.1263	0.8136	0.3655	0.057
Mof_C 	C 	0.129	0.7877	0.3963	-0.101
Mof_C 	C 	0.08	0.7923	0.4141	0.011
Mof_C 	C 	0.0332	0.8118	0.4078	-0.053
Mof_C 	C 	0.0251	0.8289	0.3758	0.036
Mof_C 	C 	0.343	0.9718	0.9647	0.341
Mof_C 	C 	0.3481	0.0138	0.9435	-0.005
Mof_C 	C 	0.3299	0.0205	0.9144	-0.075
Mof_C 	C 	0.3398	0.0572	0.8965	0.033
Mof_C 	C 	0.3788	0.0873	0.9046	-0.147
Mof_C 	C 	0.4018	0.0783	0.929	0.07
Mof_C 	C 	0.3865	0.0463	0.9486	-0.095
Mof_C 	C 	0.8986	0.6503	0.0846	0.353
Mof_C 	C 	0.9102	0.6609	0.1166	-0.131
Mof_C 	C 	0.881	0.6423	0.143	0.049
Mof_C 	C 	0.8864	0.6454	0.1748	-0.112
Mof_C 	C 	0.927	0.6791	0.1793	0.014
Mof_C 	C 	0.9703	0.6983	0.1576	-0.096
Mof_C 	C 	0.9589	0.6836	0.1235	0.035
Mof_C 	C 	0.5647	0.9402	0.992	-0.087
Mof_C 	C 	0.5687	0.9784	0.9972	0.01
Mof_C 	C 	0.6237	0.0037	0.9914	-0.062
Mof_C 	C 	0.6741	0.9805	0.9784	-0.027
Mof_C 	C 	0.6602	0.9401	0.97	-0.046
Mof_C 	C 	0.6117	0.9125	0.9758	-0.014
Mof_C 	C 	0.4236	0.8571	0.0564	0.418
Mof_C 	C 	0.447	0.8095	0.0946	0.005
Mof_C 	C 	0.4273	0.8499	0.0909	-0.104
Mof_C 	C 	0.4175	0.8737	0.118	0.029
Mof_C 	C 	0.4254	0.8544	0.1493	-0.081
Mof_C 	C 	0.4479	0.8134	0.1514	0.002
Mof_C 	C 	0.4569	0.7903	0.1248	-0.074
Mof_C 	C 	0.8246	0.7106	0.0264	0.334
Mof_C 	C 	0.8068	0.7574	0.0285	-0.049
Mof_C 	C 	0.748	0.7472	0.0315	-0.048
Mof_C 	C 	0.7037	0.7791	0.0347	-0.046
Mof_C 	C 	0.7419	0.8156	0.0314	-0.022
Mof_C 	C 	0.8029	0.827	0.029	-0.054
Mof_C 	C 	0.845	0.7925	0.0255	-0.021
Mof_C 	C 	0.2464	0.9067	0.0249	0.371
Mof_C 	C 	0.196	0.8974	0.0464	-0.183
Mof_C 	C 	0.1961	0.9151	0.0763	0.113
Mof_C 	C 	0.1549	0.9043	0.0992	-0.202
Mof_C 	C 	0.108	0.8891	0.0856	0.13
Mof_C 	C 	0.0991	0.8703	0.0557	-0.212
Mof_C 	C 	0.1457	0.877	0.0379	0.132
Mof_C 	C 	0.5658	0.6731	0.2021	0.236
Mof_C 	C 	0.9179	0.7687	0.4625	0.124
Mof_C 	C 	0.6211	0.8009	0.4808	0.399
Mof_C 	C 	0.6492	0.7587	0.4798	-0.118
Mof_C 	C 	0.6124	0.7269	0.488	0.036
Mof_C 	C 	0.62	0.684	0.4911	-0.111
Mof_C 	C 	0.6753	0.6767	0.4791	0.024
Mof_C 	C 	0.7242	0.6995	0.466	-0.106
Mof_C 	C 	0.7051	0.7414	0.4677	0.032
Mof_C 	C 	0.5554	0.8692	0.4186	0.387
Mof_C 	C 	0.5307	0.8702	0.3851	-0.101
Mof_C 	C 	0.4748	0.8574	0.3858	0.007
Mof_C 	C 	0.4462	0.8601	0.3542	-0.071
Mof_C 	C 	0.4767	0.8718	0.3274	-0.001
Mof_C 	C 	0.5311	0.8909	0.328	-0.076
Mof_C 	C 	0.5589	0.8919	0.3609	0.014
Mof_C 	C 	0.224	0.5817	0.487	0.362
Mof_C 	C 	0.1557	0.5138	0.5397	0.374
Mof_C 	C 	0.1783	0.4751	0.5583	-0.169
Mof_C 	C 	0.1971	0.4758	0.5887	0.146
Mof_C 	C 	0.2059	0.4409	0.6094	-0.314
Mof_C 	C 	0.1988	0.4093	0.5978	0.226
Mof_C 	C 	0.1727	0.4005	0.5661	-0.195
Mof_C 	C 	0.1588	0.4369	0.5459	0.084
Mof_C 	C 	0.5543	0.8814	0.5569	0.415
Mof_C 	C 	0.5478	0.8638	0.5925	-0.112
Mof_C 	C 	0.5287	0.8241	0.5998	0.056
Mof_C 	C 	0.5298	0.8041	0.6273	-0.131
Mof_C 	C 	0.5536	0.8324	0.6489	0.046
Mof_C 	C 	0.5741	0.8728	0.6489	-0.123
Mof_C 	C 	0.579	0.8828	0.617	0.044
Mof_C 	C 	0.4718	0.9418	0.4916	0.49
Mof_C 	C 	0.4264	0.9711	0.4824	-0.334
Mof_C 	C 	0.3808	0.9591	0.4628	0.29
Mof_C 	C 	0.3373	0.9792	0.4483	-0.42
Mof_C 	C 	0.3319	0.018	0.4586	0.346
Mof_C 	C 	0.3684	0.0353	0.4804	-0.415
Mof_C 	C 	0.4103	0.0107	0.4919	0.304
Mof_C 	C 	0.2398	0.6026	0.6016	0.1
Mof_C 	C 	0.2816	0.6075	0.6238	-0.161
Mof_C 	C 	0.3237	0.6294	0.6123	0.057
Mof_C 	C 	0.3273	0.6513	0.5843	-0.068
Mof_C 	C 	0.2778	0.6445	0.5646	0.071
Mof_C 	C 	0.3793	0.6808	0.5705	0.136
Mof_C 	C 	0.4775	0.6957	0.5768	0.119
Mof_C 	C 	0.4558	0.7893	0.5109	0.049
Mof_C 	C 	0.4096	0.762	0.5149	-0.067
Mof_C 	C 	0.3616	0.7673	0.4991	0.028
Mof_C 	C 	0.3623	0.799	0.4783	-0.115
Mof_C 	C 	0.4129	0.8262	0.4732	0.081
Mof_C 	C 	0.5799	0.0356	0.5438	0.073
Mof_C 	C 	0.5826	0.0683	0.5652	-0.101
Mof_C 	C 	0.6106	0.0615	0.5965	-0.001
Mof_C 	C 	0.6278	0.0192	0.6016	-0.051
Mof_C 	C 	0.6281	0.995	0.5778	0.065
Mof_C 	C 	0.6638	0.0143	0.6329	0.131
Mof_C 	C 	0.7251	0.97	0.6569	0.16
Mof_C 	C 	0.6952	0.0303	0.6792	0.132
Mof_C 	C 	0.7657	0.9395	0.6553	-0.076
Mof_C 	C 	0.7737	0.9041	0.6325	0.034
Mof_C 	C 	0.8087	0.8725	0.6332	-0.131
Mof_C 	C 	0.8459	0.8662	0.6595	0.081
Mof_C 	C 	0.8065	0.9264	0.6798	0.05
Mof_C 	C 	0.0132	0.8776	0.6909	0.367
Mof_C 	C 	0.0464	0.8617	0.661	-0.103
Mof_C 	C 	0.0147	0.8596	0.633	0.045
Mof_C 	C 	0.0449	0.8496	0.6025	-0.146
Mof_C 	C 	0.0984	0.8443	0.6033	0.088
Mof_C 	C 	0.1298	0.8465	0.6308	-0.142
Mof_C 	C 	0.1064	0.8615	0.6581	0.061
Mof_C 	C 	0.9587	0.9752	0.7291	0.321
Mof_C 	C 	0.9537	0.0234	0.7245	-0.063
Mof_C 	C 	0.9016	0.0479	0.7203	-0.005
Mof_C 	C 	0.8952	0.0922	0.721	-0.069
Mof_C 	C 	0.9524	0.1081	0.7277	-0.015
Mof_C 	C 	0.0058	0.0888	0.7341	-0.059
Mof_C 	C 	0.0094	0.0448	0.7316	-0.013
Mof_C 	C 	0.9965	0.9366	0.8246	0.321
Mof_C 	C 	0.0036	0.9695	0.8509	-0.055
Mof_C 	C 	0.9568	0.9798	0.8705	-0.024
Mof_C 	C 	0.9646	0.0097	0.8944	-0.038
Mof_C 	C 	0.0139	0.0328	0.9008	-0.039
Mof_C 	C 	0.0554	0.0148	0.8814	-0.028
Mof_C 	C 	0.0584	0.9888	0.8525	-0.035
Mof_C 	C 	0.1113	0.8149	0.8228	-0.04
Mof_C 	C 	0.0993	0.7922	0.8518	-0.025
Mof_C 	C 	0.1468	0.777	0.875	-0.047
Mof_C 	C 	0.2032	0.7891	0.8644	-0.026
Mof_C 	C 	0.2153	0.8083	0.835	-0.043
Mof_C 	C 	0.168	0.8262	0.8138	-0.033
Mof_C 	C 	0.8036	0.9043	0.78	0.302
Mof_C 	C 	0.7476	0.9173	0.7861	-0.164
Mof_C 	C 	0.7096	0.9429	0.7652	0.089
Mof_C 	C 	0.6594	0.9601	0.7701	-0.164
Mof_C 	C 	0.638	0.9498	0.7997	0.064
Mof_C 	C 	0.6666	0.9198	0.8204	-0.154
Mof_C 	C 	0.7218	0.9097	0.8146	0.089
Mof_C 	C 	0.8748	0.8054	0.7493	0.387
Mof_C 	C 	0.8605	0.7618	0.7435	-0.135
Mof_C 	C 	0.8427	0.7506	0.7151	0.053
Mof_C 	C 	0.8235	0.7086	0.7075	-0.109
Mof_C 	C 	0.8203	0.6816	0.7324	0.031
Mof_C 	C 	0.8452	0.6898	0.7621	-0.107
Mof_C 	C 	0.8581	0.7329	0.7675	0.048
Mof_C 	C 	0.8595	0.8118	0.8495	0.124
Mof_C 	C 	0.8436	0.7893	0.8777	-0.133
Mof_C 	C 	0.8913	0.79	0.9008	0.007
Mof_C 	C 	0.9359	0.8163	0.8957	-0.051
Mof_C 	C 	0.9416	0.8388	0.8674	0.039
Mof_C 	C 	0.9853	0.8185	0.9203	0.131
Mof_C 	C 	0.0335	0.797	0.9591	0.136
Mof_C 	C 	0.0777	0.8407	0.9318	0.111
Mof_C 	C 	0.0336	0.7703	0.9892	-0.051
Mof_C 	C 	0.0821	0.7673	0.0113	-0.012
Mof_C 	C 	0.0831	0.7409	0.039	-0.086
Mof_C 	C 	0.0376	0.7131	0.0408	0.031
Mof_C 	C 	0.9978	0.7377	0.9949	0.058
Mof_C 	C 	0.0063	0.5822	0.0029	0.382
Mof_C 	C 	0.1794	0.8645	0.9372	0.017
Mof_C 	C 	0.1303	0.8647	0.9177	-0.025
Mof_C 	C 	0.1251	0.8929	0.8913	-0.01
Mof_C 	C 	0.171	0.915	0.8834	-0.079
Mof_C 	C 	0.2314	0.9042	0.9025	0.055
Mof_C 	C 	0.8411	0.428	0.7265	0.102
Mof_C 	C 	0.7871	0.4516	0.7286	-0.137
Mof_C 	C 	0.7775	0.4699	0.7578	0.038
Mof_C 	C 	0.8158	0.4729	0.7816	-0.076
Mof_C 	C 	0.8702	0.4505	0.7746	0.06
Mof_C 	C 	0.8126	0.5026	0.8074	0.155
Mof_C 	C 	0.7768	0.5586	0.8286	0.141
Mof_C 	C 	0.8265	0.5146	0.862	0.155
Mof_C 	C 	0.8578	0.5307	0.9155	0.047
Mof_C 	C 	0.8584	0.5039	0.8864	-0.078
Mof_C 	C 	0.896	0.4696	0.8956	0.038
Mof_C 	C 	0.9194	0.4607	0.9267	-0.153
Mof_C 	C 	0.9184	0.4901	0.9483	0.129
Mof_C 	C 	0.687	0.6702	0.8162	0.098
Mof_C 	C 	0.7311	0.6713	0.8394	-0.137
Mof_C 	C 	0.7574	0.633	0.8445	0.035
Mof_C 	C 	0.744	0.6002	0.8298	-0.071
Mof_C 	C 	0.6957	0.6026	0.8064	0.054
Mof_C 	C 	0.6748	0.608	0.7108	0.335
Mof_C 	C 	0.7334	0.5902	0.6992	-0.065
Mof_C 	C 	0.7681	0.5678	0.7242	-0.034
Mof_C 	C 	0.8273	0.5608	0.7095	-0.034
Mof_C 	C 	0.8604	0.5675	0.6792	-0.051
Mof_C 	C 	0.8184	0.5869	0.6578	-0.046
Mof_C 	C 	0.7589	0.5983	0.6682	-0.023
Mof_C 	C 	0.4598	0.0517	0.7302	0.328
Mof_C 	C 	0.4589	0.0055	0.7366	-0.065
Mof_C 	C 	0.403	0.9873	0.7286	-0.021
Mof_C 	C 	0.3919	0.9453	0.7357	-0.046
Mof_C 	C 	0.4349	0.9161	0.7494	-0.032
Mof_C 	C 	0.4881	0.937	0.7585	-0.052
Mof_C 	C 	0.5017	0.9796	0.7523	-0.007
Mof_C 	C 	0.6316	0.7132	0.7288	0.526
Mof_C 	C 	0.6661	0.752	0.7274	-0.188
Mof_C 	C 	0.7039	0.769	0.753	0.109
Mof_C 	C 	0.7306	0.8054	0.7545	-0.184
Mof_C 	C 	0.7266	0.8295	0.7285	0.097
Mof_C 	C 	0.701	0.8215	0.6996	-0.154
Mof_C 	C 	0.6757	0.7794	0.7	0.075
Mof_C 	C 	0.5038	0.1603	0.692	0.387
Mof_C 	C 	0.5128	0.1734	0.6563	-0.108
Mof_C 	C 	0.4767	0.193	0.6408	0.043
Mof_C 	C 	0.4879	0.2053	0.6093	-0.092
Mof_C 	C 	0.5444	0.1964	0.598	-0.005
Mof_C 	C 	0.5898	0.1742	0.6187	-0.07
Mof_C 	C 	0.5721	0.1625	0.6498	0.005
Mof_C 	C 	0.4372	0.6897	0.7027	0.378
Mof_C 	C 	0.3859	0.7146	0.6883	-0.081
Mof_C 	C 	0.4015	0.7313	0.6569	-0.005
Mof_C 	C 	0.3583	0.7561	0.6405	-0.062
Mof_C 	C 	0.2993	0.7531	0.6505	-0.008
Mof_C 	C 	0.284	0.7275	0.6765	-0.07
Mof_C 	C 	0.3245	0.7059	0.6935	0.01
Mof_C 	C 	0.4734	0.5851	0.6766	0.335
Mof_C 	C 	0.4407	0.5602	0.6497	-0.079
Mof_C 	C 	0.4664	0.5594	0.6211	0.01
Mof_C 	C 	0.4445	0.5352	0.5987	-0.067
Mof_C 	C 	0.3852	0.5155	0.604	-0.015
Mof_C 	C 	0.3626	0.5209	0.6335	-0.061
Mof_C 	C 	0.3897	0.5418	0.6579	-0.002
Mof_C 	C 	0.6697	0.0954	0.7659	0.081
Mof_C 	C 	0.7241	0.0781	0.7622	-0.122
Mof_C 	C 	0.7297	0.0551	0.7361	0.013
Mof_C 	C 	0.6853	0.0541	0.711	-0.042
Mof_C 	C 	0.6336	0.0721	0.7154	0.026
Mof_C 	C 	0.6263	0.6864	0.6345	0.057
Mof_C 	C 	0.629	0.7123	0.6037	-0.102
Mof_C 	C 	0.58	0.7077	0.5859	0.013
Mof_C 	C 	0.5332	0.6882	0.5922	-0.055
Mof_C 	C 	0.5251	0.6711	0.6242	0.032
Mof_C 	C 	0.843	0.5282	0.0353	0.342
Mof_C 	C 	0.8481	0.4862	0.0565	-0.007
Mof_C 	C 	0.8299	0.4795	0.0856	-0.073
Mof_C 	C 	0.8398	0.4428	0.1035	0.03
Mof_C 	C 	0.8788	0.4127	0.0954	-0.143
Mof_C 	C 	0.9018	0.4217	0.071	0.066
Mof_C 	C 	0.8865	0.4537	0.0514	-0.092
Mof_C 	C 	0.3986	0.8497	0.9154	0.352
Mof_C 	C 	0.4102	0.8391	0.8834	-0.129
Mof_C 	C 	0.381	0.8577	0.857	0.047
Mof_C 	C 	0.3864	0.8546	0.8252	-0.109
Mof_C 	C 	0.427	0.8209	0.8207	0.011
Mof_C 	C 	0.4703	0.8017	0.8424	-0.088
Mof_C 	C 	0.4589	0.8164	0.8765	0.032
Mof_C 	C 	0.0647	0.5598	0.008	-0.088
Mof_C 	C 	0.0687	0.5216	0.0028	0.01
Mof_C 	C 	0.1237	0.4963	0.0086	-0.062
Mof_C 	C 	0.1741	0.5195	0.0216	-0.026
Mof_C 	C 	0.1602	0.5599	0.03	-0.046
Mof_C 	C 	0.1117	0.5875	0.0242	-0.014
Mof_C 	C 	0.9236	0.6429	0.9436	0.418
Mof_C 	C 	0.947	0.6905	0.9054	0.005
Mof_C 	C 	0.9273	0.6501	0.9091	-0.105
Mof_C 	C 	0.9175	0.6263	0.882	0.029
Mof_C 	C 	0.9254	0.6456	0.8507	-0.081
Mof_C 	C 	0.9479	0.6866	0.8486	0.001
Mof_C 	C 	0.9569	0.7097	0.8752	-0.075
Mof_C 	C 	0.3246	0.7894	0.9736	0.334
Mof_C 	C 	0.3068	0.7426	0.9715	-0.049
Mof_C 	C 	0.248	0.7528	0.9685	-0.048
Mof_C 	C 	0.2037	0.7209	0.9653	-0.046
Mof_C 	C 	0.2419	0.6844	0.9686	-0.022
Mof_C 	C 	0.3029	0.673	0.971	-0.054
Mof_C 	C 	0.345	0.7075	0.9745	-0.022
Mof_C 	C 	0.7464	0.5933	0.9751	0.371
Mof_C 	C 	0.696	0.6026	0.9536	-0.183
Mof_C 	C 	0.6961	0.5849	0.9237	0.113
Mof_C 	C 	0.6549	0.5957	0.9008	-0.203
Mof_C 	C 	0.608	0.6109	0.9144	0.13
Mof_C 	C 	0.5991	0.6297	0.9443	-0.212
Mof_C 	C 	0.6457	0.623	0.9621	0.132
Mof_C 	C 	0.0658	0.8269	0.7979	0.236
Mof_C 	C 	0.4179	0.7313	0.5375	0.125
Mof_C 	C 	0.8789	0.1991	0.9808	0.4
Mof_C 	C 	0.8508	0.2413	0.9798	-0.118
Mof_C 	C 	0.8876	0.2731	0.988	0.036
Mof_C 	C 	0.88	0.316	0.9911	-0.112
Mof_C 	C 	0.8247	0.3233	0.9791	0.024
Mof_C 	C 	0.7758	0.3005	0.966	-0.106
Mof_C 	C 	0.7949	0.2586	0.9677	0.032
Mof_C 	C 	0.9446	0.1308	0.9186	0.389
Mof_C 	C 	0.9693	0.1298	0.8851	-0.11
Mof_C 	C 	0.0252	0.1426	0.8858	0.017
Mof_C 	C 	0.0538	0.1399	0.8542	-0.08
Mof_C 	C 	0.0233	0.1282	0.8274	0.011
Mof_C 	C 	0.9689	0.1091	0.828	-0.086
Mof_C 	C 	0.9411	0.1081	0.8609	0.021
Mof_C 	C 	0.276	0.4183	0.987	0.362
Mof_C 	C 	0.3443	0.4862	0.0397	0.374
Mof_C 	C 	0.3217	0.5249	0.0583	-0.168
Mof_C 	C 	0.3029	0.5242	0.0887	0.146
Mof_C 	C 	0.2941	0.5591	0.1094	-0.314
Mof_C 	C 	0.3012	0.5907	0.0978	0.226
Mof_C 	C 	0.3273	0.5995	0.0661	-0.195
Mof_C 	C 	0.3412	0.5631	0.0459	0.084
Mof_C 	C 	0.9457	0.1186	0.0569	0.415
Mof_C 	C 	0.9522	0.1362	0.0925	-0.113
Mof_C 	C 	0.9713	0.1759	0.0998	0.057
Mof_C 	C 	0.9702	0.1959	0.1273	-0.132
Mof_C 	C 	0.9464	0.1676	0.1489	0.046
Mof_C 	C 	0.9259	0.1272	0.1489	-0.123
Mof_C 	C 	0.921	0.1172	0.117	0.044
Mof_C 	C 	0.0282	0.0582	0.9916	0.492
Mof_C 	C 	0.0736	0.0289	0.9824	-0.334
Mof_C 	C 	0.1192	0.0409	0.9628	0.29
Mof_C 	C 	0.1627	0.0208	0.9483	-0.42
Mof_C 	C 	0.1681	0.982	0.9586	0.346
Mof_C 	C 	0.1316	0.9647	0.9804	-0.415
Mof_C 	C 	0.0897	0.9893	0.9919	0.305
Mof_C 	C 	0.2602	0.3974	0.1016	0.1
Mof_C 	C 	0.2184	0.3925	0.1238	-0.161
Mof_C 	C 	0.1763	0.3706	0.1123	0.057
Mof_C 	C 	0.1727	0.3487	0.0843	-0.068
Mof_C 	C 	0.2222	0.3555	0.0646	0.071
Mof_C 	C 	0.1207	0.3192	0.0705	0.136
Mof_C 	C 	0.0225	0.3043	0.0768	0.121
Mof_C 	C 	0.0442	0.2107	0.0109	0.05
Mof_C 	C 	0.0904	0.238	0.0149	-0.067
Mof_C 	C 	0.1384	0.2327	0.9991	0.029
Mof_C 	C 	0.1377	0.201	0.9783	-0.115
Mof_C 	C 	0.0871	0.1738	0.9732	0.081
Mof_C 	C 	0.9201	0.9644	0.0438	0.073
Mof_C 	C 	0.9174	0.9317	0.0652	-0.101
Mof_C 	C 	0.8894	0.9385	0.0965	-0.001
Mof_C 	C 	0.8722	0.9808	0.1016	-0.051
Mof_C 	C 	0.8719	0.005	0.0778	0.065
Mof_C 	C 	0.8362	0.9857	0.1329	0.131
Mof_C 	C 	0.7749	0.03	0.1569	0.16
Mof_C 	C 	0.8048	0.9697	0.1792	0.132
Mof_C 	C 	0.7343	0.0605	0.1553	-0.076
Mof_C 	C 	0.7263	0.0959	0.1325	0.035
Mof_C 	C 	0.6913	0.1275	0.1332	-0.13
Mof_C 	C 	0.6541	0.1338	0.1595	0.081
Mof_C 	C 	0.6935	0.0736	0.1798	0.051
Mof_C 	C 	0.4868	0.1224	0.1909	0.36
Mof_C 	C 	0.4536	0.1383	0.161	-0.091
Mof_C 	C 	0.4853	0.1404	0.133	0.027
Mof_C 	C 	0.4551	0.1504	0.1025	-0.125
Mof_C 	C 	0.4016	0.1557	0.1033	0.065
Mof_C 	C 	0.3702	0.1535	0.1308	-0.123
Mof_C 	C 	0.3936	0.1385	0.1581	0.045
Mof_C 	C 	0.5413	0.0248	0.2291	0.324
Mof_C 	C 	0.5463	0.9766	0.2245	-0.061
Mof_C 	C 	0.5984	0.9521	0.2203	-0.004
Mof_C 	C 	0.6048	0.9078	0.221	-0.071
Mof_C 	C 	0.5476	0.8919	0.2277	-0.01
Mof_C 	C 	0.4942	0.9112	0.2341	-0.063
Mof_C 	C 	0.4906	0.9552	0.2316	-0.014
Mof_C 	C 	0.5035	0.0634	0.3246	0.328
Mof_C 	C 	0.4964	0.0305	0.3509	-0.063
Mof_C 	C 	0.5432	0.0202	0.3705	-0.019
Mof_C 	C 	0.5354	0.9903	0.3944	-0.037
Mof_C 	C 	0.4861	0.9672	0.4008	-0.042
Mof_C 	C 	0.4446	0.9852	0.3814	-0.029
Mof_C 	C 	0.4416	0.0112	0.3525	-0.032
Mof_C 	C 	0.3887	0.1851	0.3228	-0.04
Mof_C 	C 	0.4007	0.2078	0.3518	-0.025
Mof_C 	C 	0.3532	0.223	0.375	-0.048
Mof_C 	C 	0.2968	0.2109	0.3644	-0.026
Mof_C 	C 	0.2847	0.1917	0.335	-0.043
Mof_C 	C 	0.332	0.1738	0.3138	-0.032
Mof_C 	C 	0.6964	0.0957	0.28	0.302
Mof_C 	C 	0.7524	0.0827	0.2861	-0.164
Mof_C 	C 	0.7904	0.0571	0.2652	0.089
Mof_C 	C 	0.8406	0.0399	0.2701	-0.164
Mof_C 	C 	0.862	0.0502	0.2997	0.064
Mof_C 	C 	0.8334	0.0802	0.3204	-0.154
Mof_C 	C 	0.7782	0.0903	0.3146	0.089
Mof_C 	C 	0.6252	0.1946	0.2493	0.387
Mof_C 	C 	0.6395	0.2382	0.2435	-0.135
Mof_C 	C 	0.6573	0.2494	0.2151	0.053
Mof_C 	C 	0.6765	0.2914	0.2075	-0.109
Mof_C 	C 	0.6797	0.3184	0.2324	0.031
Mof_C 	C 	0.6548	0.3102	0.2621	-0.107
Mof_C 	C 	0.6419	0.2671	0.2675	0.048
Mof_C 	C 	0.6405	0.1882	0.3495	0.125
Mof_C 	C 	0.6564	0.2107	0.3777	-0.133
Mof_C 	C 	0.6087	0.21	0.4008	0.008
Mof_C 	C 	0.5641	0.1837	0.3957	-0.052
Mof_C 	C 	0.5584	0.1612	0.3674	0.039
Mof_C 	C 	0.5147	0.1815	0.4203	0.134
Mof_C 	C 	0.4665	0.203	0.4591	0.134
Mof_C 	C 	0.4223	0.1593	0.4318	0.111
Mof_C 	C 	0.4664	0.2297	0.4892	-0.054
Mof_C 	C 	0.4179	0.2327	0.5113	-0.012
Mof_C 	C 	0.4169	0.2591	0.539	-0.086
Mof_C 	C 	0.4624	0.2869	0.5408	0.029
Mof_C 	C 	0.5022	0.2623	0.4949	0.063
Mof_C 	C 	0.4937	0.4178	0.5029	0.379
Mof_C 	C 	0.3206	0.1355	0.4372	0.017
Mof_C 	C 	0.3697	0.1353	0.4177	-0.025
Mof_C 	C 	0.3749	0.1071	0.3913	-0.01
Mof_C 	C 	0.329	0.085	0.3834	-0.079
Mof_C 	C 	0.2686	0.0958	0.4025	0.055
Mof_C 	C 	0.6589	0.572	0.2265	0.102
Mof_C 	C 	0.7129	0.5484	0.2286	-0.137
Mof_C 	C 	0.7225	0.5301	0.2578	0.038
Mof_C 	C 	0.6842	0.5271	0.2816	-0.076
Mof_C 	C 	0.6298	0.5495	0.2746	0.06
Mof_C 	C 	0.6874	0.4974	0.3074	0.155
Mof_C 	C 	0.7232	0.4414	0.3286	0.141
Mof_C 	C 	0.6735	0.4854	0.362	0.155
Mof_C 	C 	0.6422	0.4693	0.4155	0.047
Mof_C 	C 	0.6416	0.4961	0.3864	-0.078
Mof_C 	C 	0.604	0.5304	0.3956	0.038
Mof_C 	C 	0.5806	0.5393	0.4267	-0.152
Mof_C 	C 	0.5816	0.5099	0.4483	0.129
Mof_C 	C 	0.813	0.3298	0.3162	0.098
Mof_C 	C 	0.7689	0.3287	0.3394	-0.137
Mof_C 	C 	0.7426	0.367	0.3445	0.035
Mof_C 	C 	0.756	0.3998	0.3298	-0.071
Mof_C 	C 	0.8043	0.3974	0.3064	0.054
Mof_C 	C 	0.8252	0.392	0.2108	0.335
Mof_C 	C 	0.7666	0.4098	0.1992	-0.065
Mof_C 	C 	0.7319	0.4322	0.2242	-0.034
Mof_C 	C 	0.6727	0.4392	0.2095	-0.034
Mof_C 	C 	0.6396	0.4325	0.1792	-0.051
Mof_C 	C 	0.6816	0.4131	0.1578	-0.046
Mof_C 	C 	0.7411	0.4017	0.1682	-0.023
Mof_C 	C 	0.0402	0.9483	0.2302	0.328
Mof_C 	C 	0.0411	0.9945	0.2366	-0.057
Mof_C 	C 	0.097	0.0127	0.2286	-0.026
Mof_C 	C 	0.1081	0.0547	0.2357	-0.039
Mof_C 	C 	0.0651	0.0839	0.2494	-0.041
Mof_C 	C 	0.0119	0.063	0.2585	-0.035
Mof_C 	C 	0.9983	0.0204	0.2523	-0.022
Mof_C 	C 	0.8684	0.2868	0.2288	0.526
Mof_C 	C 	0.8339	0.248	0.2274	-0.188
Mof_C 	C 	0.7961	0.231	0.253	0.109
Mof_C 	C 	0.7694	0.1946	0.2545	-0.184
Mof_C 	C 	0.7734	0.1705	0.2285	0.097
Mof_C 	C 	0.799	0.1785	0.1996	-0.154
Mof_C 	C 	0.8243	0.2206	0.2	0.075
Mof_C 	C 	0.9962	0.8397	0.192	0.386
Mof_C 	C 	0.9872	0.8266	0.1563	-0.113
Mof_C 	C 	0.0233	0.807	0.1408	0.049
Mof_C 	C 	0.0121	0.7947	0.1093	-0.09
Mof_C 	C 	0.9556	0.8036	0.098	-0.007
Mof_C 	C 	0.9102	0.8258	0.1187	-0.07
Mof_C 	C 	0.9279	0.8375	0.1498	0.006
Mof_C 	C 	0.0628	0.3103	0.2027	0.378
Mof_C 	C 	0.1141	0.2854	0.1883	-0.081
Mof_C 	C 	0.0985	0.2687	0.1569	-0.005
Mof_C 	C 	0.1417	0.2439	0.1405	-0.061
Mof_C 	C 	0.2007	0.2469	0.1505	-0.008
Mof_C 	C 	0.216	0.2725	0.1765	-0.07
Mof_C 	C 	0.1755	0.2941	0.1935	0.01
Mof_C 	C 	0.0266	0.4149	0.1766	0.338
Mof_C 	C 	0.0593	0.4398	0.1497	-0.08
Mof_C 	C 	0.0336	0.4406	0.1211	0.011
Mof_C 	C 	0.0555	0.4648	0.0987	-0.068
Mof_C 	C 	0.1148	0.4845	0.104	-0.014
Mof_C 	C 	0.1374	0.4791	0.1335	-0.062
Mof_C 	C 	0.1103	0.4582	0.1579	-0.001
Mof_C 	C 	0.8303	0.9046	0.2659	0.081
Mof_C 	C 	0.7759	0.9219	0.2622	-0.122
Mof_C 	C 	0.7703	0.9449	0.2361	0.013
Mof_C 	C 	0.8147	0.9459	0.211	-0.042
Mof_C 	C 	0.8664	0.9279	0.2154	0.026
Mof_C 	C 	0.8737	0.3136	0.1345	0.057
Mof_C 	C 	0.871	0.2877	0.1037	-0.102
Mof_C 	C 	0.92	0.2923	0.0859	0.015
Mof_C 	C 	0.9668	0.3118	0.0922	-0.057
Mof_C 	C 	0.9749	0.3289	0.1242	0.028
Mof_C 	C 	0.657	0.4718	0.5353	0.342
Mof_C 	C 	0.6519	0.5138	0.5565	-0.006
Mof_C 	C 	0.6701	0.5205	0.5856	-0.075
Mof_C 	C 	0.6602	0.5572	0.6035	0.033
Mof_C 	C 	0.6212	0.5873	0.5954	-0.147
Mof_C 	C 	0.5982	0.5783	0.571	0.069
Mof_C 	C 	0.6135	0.5463	0.5514	-0.094
Mof_C 	C 	0.1014	0.1503	0.4154	0.351
Mof_C 	C 	0.0898	0.1609	0.3834	-0.126
Mof_C 	C 	0.119	0.1423	0.357	0.045
Mof_C 	C 	0.1136	0.1454	0.3252	-0.106
Mof_C 	C 	0.073	0.1791	0.3207	0.007
Mof_C 	C 	0.0297	0.1983	0.3424	-0.081
Mof_C 	C 	0.0411	0.1836	0.3765	0.028
Mof_C 	C 	0.4353	0.4402	0.508	-0.088
Mof_C 	C 	0.4313	0.4784	0.5028	0.01
Mof_C 	C 	0.3763	0.5037	0.5086	-0.062
Mof_C 	C 	0.3259	0.4805	0.5216	-0.027
Mof_C 	C 	0.3398	0.4401	0.53	-0.046
Mof_C 	C 	0.3883	0.4125	0.5242	-0.014
Mof_C 	C 	0.5764	0.3571	0.4436	0.418
Mof_C 	C 	0.553	0.3095	0.4054	0.005
Mof_C 	C 	0.5727	0.3499	0.4091	-0.104
Mof_C 	C 	0.5825	0.3737	0.382	0.029
Mof_C 	C 	0.5746	0.3544	0.3507	-0.081
Mof_C 	C 	0.5521	0.3134	0.3486	0.002
Mof_C 	C 	0.5431	0.2903	0.3752	-0.074
Mof_C 	C 	0.1754	0.2106	0.4736	0.334
Mof_C 	C 	0.1932	0.2574	0.4715	-0.048
Mof_C 	C 	0.252	0.2472	0.4685	-0.048
Mof_C 	C 	0.2963	0.2791	0.4653	-0.046
Mof_C 	C 	0.2581	0.3156	0.4686	-0.022
Mof_C 	C 	0.1971	0.327	0.471	-0.054
Mof_C 	C 	0.155	0.2925	0.4745	-0.022
Mof_C 	C 	0.7536	0.4067	0.4751	0.371
Mof_C 	C 	0.804	0.3974	0.4536	-0.183
Mof_C 	C 	0.8039	0.4151	0.4237	0.113
Mof_C 	C 	0.8451	0.4043	0.4008	-0.203
Mof_C 	C 	0.892	0.3891	0.4144	0.13
Mof_C 	C 	0.9009	0.3703	0.4443	-0.213
Mof_C 	C 	0.8543	0.377	0.4621	0.132
Mof_C 	C 	0.4342	0.1731	0.2979	0.236
Mof_C 	C 	0.0821	0.2687	0.0375	0.125
Mof_N 	N 	0.5356	0.3221	0.0116	-0.173
Mof_N 	N 	0.7656	0.1203	0.9285	-0.181
Mof_N 	N 	0.3964	0.4976	0.9511	-0.171
Mof_N 	N 	0.6308	0.2102	0.9514	-0.147
Mof_N 	N 	0.5714	0.1749	0.9131	-0.148
Mof_N 	N 	0.5277	0.2268	0.9464	-0.141
Mof_N 	N 	0.3	0.4762	0.8691	-0.153
Mof_N 	N 	0.3429	0.5383	0.8443	-0.157
Mof_N 	N 	0.2698	0.4979	0.8188	-0.156
Mof_N 	N 	0.1539	0.394	0.8161	-0.17
Mof_N 	N 	0.1005	0.3348	0.6565	-0.189
Mof_N 	N 	0.1172	0.9317	0.7533	-0.182
Mof_N 	N 	0.0169	0.2942	0.5564	-0.161
Mof_N 	N 	0.973	0.3462	0.5894	-0.143
Mof_N 	N 	0.9168	0.3176	0.5437	-0.156
Mof_N 	N 	0.1622	0.9881	0.6664	-0.147
Mof_N 	N 	0.1926	0.0499	0.6432	-0.161
Mof_N 	N 	0.225	0.0322	0.6938	-0.168
Mof_N 	N 	0.1118	0.0238	0.5553	-0.177
Mof_N 	N 	0.3348	0.1374	0.698	-0.183
Mof_N 	N 	0.7656	0.3848	0.5702	-0.163
Mof_N 	N 	0.4244	0.1694	0.8564	-0.167
Mof_N 	N 	0.371	0.5993	0.7569	-0.154
Mof_N 	N 	0.0078	0.2051	0.4863	-0.167
Mof_N 	N 	0.9644	0.6779	0.5116	-0.174
Mof_N 	N 	0.7344	0.8797	0.4285	-0.181
Mof_N 	N 	0.1036	0.5024	0.4511	-0.171
Mof_N 	N 	0.8692	0.7898	0.4514	-0.147
Mof_N 	N 	0.9286	0.8251	0.4131	-0.148
Mof_N 	N 	0.9723	0.7732	0.4464	-0.141
Mof_N 	N 	0.2	0.5238	0.3691	-0.153
Mof_N 	N 	0.1571	0.4617	0.3443	-0.157
Mof_N 	N 	0.2302	0.5021	0.3188	-0.156
Mof_N 	N 	0.3461	0.606	0.3161	-0.17
Mof_N 	N 	0.3995	0.6652	0.1565	-0.189
Mof_N 	N 	0.3828	0.0683	0.2533	-0.182
Mof_N 	N 	0.4831	0.7058	0.0564	-0.162
Mof_N 	N 	0.527	0.6538	0.0894	-0.142
Mof_N 	N 	0.5832	0.6824	0.0437	-0.156
Mof_N 	N 	0.3378	0.0119	0.1664	-0.147
Mof_N 	N 	0.3074	0.9501	0.1432	-0.161
Mof_N 	N 	0.275	0.9678	0.1938	-0.168
Mof_N 	N 	0.3882	0.9762	0.0553	-0.178
Mof_N 	N 	0.1652	0.8626	0.198	-0.183
Mof_N 	N 	0.7344	0.6152	0.0702	-0.163
Mof_N 	N 	0.0756	0.8306	0.3564	-0.167
Mof_N 	N 	0.129	0.4007	0.2569	-0.154
Mof_N 	N 	0.4922	0.7949	0.9863	-0.168
Mof_N 	N 	0.4644	0.8221	0.4884	-0.173
Mof_N 	N 	0.2344	0.6203	0.5715	-0.181
Mof_N 	N 	0.6036	0.9976	0.5489	-0.171
Mof_N 	N 	0.3692	0.7102	0.5486	-0.147
Mof_N 	N 	0.4286	0.6749	0.5869	-0.148
Mof_N 	N 	0.4723	0.7268	0.5536	-0.141
Mof_N 	N 	0.7	0.9762	0.6309	-0.153
Mof_N 	N 	0.6571	0.0383	0.6557	-0.157
Mof_N 	N 	0.7302	0.9979	0.6812	-0.156
Mof_N 	N 	0.8461	0.894	0.6839	-0.17
Mof_N 	N 	0.8995	0.8348	0.8435	-0.189
Mof_N 	N 	0.8828	0.4317	0.7467	-0.182
Mof_N 	N 	0.9831	0.7942	0.9436	-0.163
Mof_N 	N 	0.027	0.8462	0.9106	-0.14
Mof_N 	N 	0.0832	0.8176	0.9563	-0.157
Mof_N 	N 	0.8378	0.4881	0.8336	-0.147
Mof_N 	N 	0.8074	0.5499	0.8568	-0.161
Mof_N 	N 	0.775	0.5322	0.8062	-0.168
Mof_N 	N 	0.8882	0.5238	0.9447	-0.178
Mof_N 	N 	0.6652	0.6374	0.802	-0.183
Mof_N 	N 	0.2344	0.8848	0.9298	-0.163
Mof_N 	N 	0.5756	0.6694	0.6436	-0.167
Mof_N 	N 	0.629	0.0993	0.7431	-0.154
Mof_N 	N 	0.9922	0.7051	0.0137	-0.168
Mof_N 	N 	0.0356	0.1779	0.9884	-0.172
Mof_N 	N 	0.2656	0.3797	0.0715	-0.181
Mof_N 	N 	0.8964	0.0024	0.0489	-0.171
Mof_N 	N 	0.1308	0.2898	0.0486	-0.147
Mof_N 	N 	0.0714	0.3251	0.0869	-0.148
Mof_N 	N 	0.0277	0.2732	0.0536	-0.14
Mof_N 	N 	0.8	0.0238	0.1309	-0.153
Mof_N 	N 	0.8429	0.9617	0.1557	-0.157
Mof_N 	N 	0.7698	0.0021	0.1812	-0.156
Mof_N 	N 	0.6539	0.106	0.1839	-0.17
Mof_N 	N 	0.6005	0.1652	0.3435	-0.189
Mof_N 	N 	0.6172	0.5683	0.2467	-0.182
Mof_N 	N 	0.5169	0.2058	0.4436	-0.162
Mof_N 	N 	0.473	0.1538	0.4106	-0.142
Mof_N 	N 	0.4168	0.1824	0.4563	-0.156
Mof_N 	N 	0.6622	0.5119	0.3336	-0.147
Mof_N 	N 	0.6926	0.4501	0.3568	-0.161
Mof_N 	N 	0.725	0.4678	0.3062	-0.168
Mof_N 	N 	0.6118	0.4762	0.4447	-0.178
Mof_N 	N 	0.8348	0.3626	0.302	-0.183
Mof_N 	N 	0.2656	0.1152	0.4298	-0.163
Mof_N 	N 	0.9244	0.3306	0.1436	-0.166
Mof_N 	N 	0.871	0.9007	0.2431	-0.154
Mof_N 	N 	0.5078	0.2949	0.5137	-0.168
Mof_O 	O 	0.4226	0.3095	0.0092	-0.446
Mof_O 	O 	0.4006	0.4004	0.0121	-0.573
Mof_O 	O 	0.3329	0.3261	0.0349	-0.333
Mof_O 	O 	0.048	0.386	0.73858	-0.556
Mof_O 	O 	0.4737	0.3571	0.0591	-0.405
Mof_O 	O 	0.1259	0.1162	0.4901	-0.569
Mof_O 	O 	0.3896	0.3821	0.0783	-0.377
Mof_O 	O 	0.4579	0.1376	0.7677	-0.57
Mof_O 	O 	0.7743	0.1076	0.9928	-0.407
Mof_O 	O 	0.8138	0.0574	0.0263	-0.377
Mof_O 	O 	0.8265	0.0505	0.9483	-0.381
Mof_O 	O 	0.8764	0.0087	0.9839	-0.391
Mof_O 	O 	0.4176	0.4137	0.9445	-0.403
Mof_O 	O 	0.47	0.3591	0.9636	-0.401
Mof_O 	O 	0.4872	0.4643	0.9926	-0.374
Mof_O 	O 	0.5293	0.4054	0.013	-0.451
Mof_O 	O 	0.1715	0.4076	0.7512	-0.328
Mof_O 	O 	0.1598	0.3832	0.6996	-0.34
Mof_O 	O 	0.1236	0.3292	0.7729	-0.398
Mof_O 	O 	0.1071	0.3088	0.7203	-0.368
Mof_O 	O 	0.0496	0.4115	0.6759	-0.363
Mof_O 	O 	0.9656	0.4327	0.698	-0.357
Mof_O 	O 	0.9942	0.3333	0.6943	-0.304
Mof_O 	O 	0.924	0.3573	0.7261	-0.31
Mof_O 	O 	0.9927	0.4602	0.7616	-0.386
Mof_O 	O 	0.0886	0.4549	0.7815	-0.334
Mof_O 	O 	0.9483	0.382	0.7877	-0.359
Mof_O 	O 	0.0422	0.3735	0.8102	-0.377
Mof_O 	O 	0.1877	0.057	0.4507	-0.381
Mof_O 	O 	0.1365	0.0228	0.4915	-0.385
Mof_O 	O 	0.2558	0.1129	0.4975	-0.363
Mof_O 	O 	0.2073	0.0741	0.5345	-0.37
Mof_O 	O 	0.0352	0.0602	0.5124	-0.367
Mof_O 	O 	-3.25532e-33	0.1164	0.4863	-0.385
Mof_O 	O 	0.1008	0.1078	0.5573	-0.397
Mof_O 	O 	0.0598	0.1638	0.5334	-0.414
Mof_O 	O 	0.6233	0.294	0.5136	-0.372
Mof_O 	O 	0.7063	0.3204	0.5354	-0.369
Mof_O 	O 	0.5643	0.3408	0.5642	-0.363
Mof_O 	O 	0.6488	0.3756	0.5797	-0.346
Mof_O 	O 	0.3402	0.1092	0.7595	-0.399
Mof_O 	O 	0.3598	0.1215	0.8124	-0.354
Mof_O 	O 	0.3664	0.1927	0.747	-0.446
Mof_O 	O 	0.3934	0.2041	0.795	-0.455
Mof_O 	O 	0.5526	0.6631	0.799	-0.374
Mof_O 	O 	0.4612	0.645	0.7905	-0.393
Mof_O 	O 	0.5813	0.5774	0.7812	-0.348
Mof_O 	O 	0.4886	0.5635	0.7631	-0.363
Mof_O 	O 	0.5557	0.0924	0.7968	-0.361
Mof_O 	O 	0.4791	0.1059	0.8293	-0.375
Mof_O 	O 	0.5786	0.1694	0.7736	-0.383
Mof_O 	O 	0.5159	0.1857	0.8139	-0.376
Mof_O 	O 	0.0774	0.6905	0.5092	-0.446
Mof_O 	O 	0.0994	0.5996	0.5121	-0.573
Mof_O 	O 	0.1671	0.6739	0.5349	-0.333
Mof_O 	O 	0.452	0.614	0.23858	-0.558
Mof_O 	O 	0.0263	0.6429	0.5591	-0.403
Mof_O 	O 	0.3741	0.8838	0.9901	-0.57
Mof_O 	O 	0.1104	0.6179	0.5783	-0.376
Mof_O 	O 	0.0421	0.8624	0.2677	-0.568
Mof_O 	O 	0.7257	0.8924	0.4928	-0.407
Mof_O 	O 	0.6862	0.9426	0.5263	-0.377
Mof_O 	O 	0.6735	0.9495	0.4483	-0.381
Mof_O 	O 	0.6236	0.9913	0.4839	-0.391
Mof_O 	O 	0.0824	0.5863	0.4445	-0.403
Mof_O 	O 	0.03	0.6409	0.4636	-0.4
Mof_O 	O 	0.0128	0.5357	0.4926	-0.372
Mof_O 	O 	0.9707	0.5946	0.513	-0.452
Mof_O 	O 	0.3285	0.5924	0.2512	-0.328
Mof_O 	O 	0.3402	0.6168	0.1996	-0.34
Mof_O 	O 	0.3764	0.6708	0.2729	-0.398
Mof_O 	O 	0.3929	0.6912	0.2203	-0.368
Mof_O 	O 	0.4504	0.5885	0.1759	-0.362
Mof_O 	O 	0.5344	0.5673	0.198	-0.354
Mof_O 	O 	0.5058	0.6667	0.1943	-0.303
Mof_O 	O 	0.576	0.6427	0.2261	-0.31
Mof_O 	O 	0.5073	0.5398	0.2616	-0.383
Mof_O 	O 	0.4114	0.5451	0.2815	-0.334
Mof_O 	O 	0.5517	0.618	0.2877	-0.361
Mof_O 	O 	0.4578	0.6265	0.3102	-0.38
Mof_O 	O 	0.3123	0.943	0.9507	-0.381
Mof_O 	O 	0.3635	0.9772	0.9915	-0.385
Mof_O 	O 	0.2442	0.8871	0.9975	-0.363
Mof_O 	O 	0.2927	0.9259	0.0345	-0.37
Mof_O 	O 	0.4648	0.9398	0.0124	-0.37
Mof_O 	O 	0.5	0.8836	0.9863	-0.39
Mof_O 	O 	0.3992	0.8922	0.0573	-0.397
Mof_O 	O 	0.4402	0.8362	0.0334	-0.415
Mof_O 	O 	0.8767	0.706	0.0136	-0.372
Mof_O 	O 	0.7937	0.6796	0.0354	-0.369
Mof_O 	O 	0.9357	0.6592	0.0642	-0.364
Mof_O 	O 	0.8512	0.6244	0.0797	-0.346
Mof_O 	O 	0.1598	0.8908	0.2595	-0.399
Mof_O 	O 	0.1402	0.8785	0.3124	-0.354
Mof_O 	O 	0.1336	0.8073	0.247	-0.446
Mof_O 	O 	0.1066	0.7959	0.295	-0.454
Mof_O 	O 	0.9474	0.3369	0.299	-0.376
Mof_O 	O 	0.0388	0.355	0.2905	-0.393
Mof_O 	O 	0.9187	0.4226	0.2812	-0.348
Mof_O 	O 	0.0114	0.4365	0.2631	-0.361
Mof_O 	O 	0.9443	0.9076	0.2968	-0.36
Mof_O 	O 	0.0209	0.8941	0.3293	-0.373
Mof_O 	O 	0.9214	0.8306	0.2736	-0.383
Mof_O 	O 	0.9841	0.8143	0.3139	-0.378
Mof_O 	O 	0.5774	0.8095	0.4908	-0.446
Mof_O 	O 	0.5994	0.9004	0.4879	-0.573
Mof_O 	O 	0.6671	0.8261	0.4651	-0.333
Mof_O 	O 	0.952	0.886	0.76142	-0.559
Mof_O 	O 	0.5263	0.8571	0.4409	-0.405
Mof_O 	O 	0.8741	0.6162	0.0099	-0.57
Mof_O 	O 	0.6104	0.8821	0.4217	-0.377
Mof_O 	O 	0.5421	0.6376	0.7323	-0.57
Mof_O 	O 	0.2257	0.6076	0.5072	-0.407
Mof_O 	O 	0.1862	0.5574	0.4737	-0.377
Mof_O 	O 	0.1735	0.5505	0.5517	-0.381
Mof_O 	O 	0.1236	0.5087	0.5161	-0.391
Mof_O 	O 	0.5824	0.9137	0.5555	-0.403
Mof_O 	O 	0.53	0.8591	0.5364	-0.401
Mof_O 	O 	0.5128	0.9643	0.5074	-0.374
Mof_O 	O 	0.4707	0.9054	0.487	-0.452
Mof_O 	O 	0.8285	0.9076	0.7488	-0.328
Mof_O 	O 	0.8402	0.8832	0.8004	-0.34
Mof_O 	O 	0.8764	0.8292	0.7271	-0.398
Mof_O 	O 	0.8929	0.8088	0.7797	-0.368
Mof_O 	O 	0.9504	0.9115	0.8241	-0.361
Mof_O 	O 	0.0344	0.9327	0.802	-0.351
Mof_O 	O 	0.0058	0.8333	0.8057	-0.301
Mof_O 	O 	0.076	0.8573	0.7739	-0.309
Mof_O 	O 	0.0073	0.9602	0.7384	-0.381
Mof_O 	O 	0.9114	0.9549	0.7185	-0.334
Mof_O 	O 	0.0517	0.882	0.7123	-0.362
Mof_O 	O 	0.9578	0.8735	0.6898	-0.384
Mof_O 	O 	0.8123	0.557	0.0493	-0.381
Mof_O 	O 	0.8635	0.5228	0.0085	-0.386
Mof_O 	O 	0.7442	0.6129	0.0025	-0.363
Mof_O 	O 	0.7927	0.5741	0.9655	-0.37
Mof_O 	O 	0.9648	0.5602	0.9876	-0.373
Mof_O 	O 	1.37692e-32	0.6164	0.0137	-0.389
Mof_O 	O 	0.8992	0.6078	0.9427	-0.397
Mof_O 	O 	0.9402	0.6638	0.9666	-0.415
Mof_O 	O 	0.3767	0.794	0.9864	-0.372
Mof_O 	O 	0.2937	0.8204	0.9646	-0.369
Mof_O 	O 	0.4357	0.8408	0.9358	-0.363
Mof_O 	O 	0.3512	0.8756	0.9203	-0.346
Mof_O 	O 	0.6598	0.6092	0.7405	-0.399
Mof_O 	O 	0.6402	0.6215	0.6876	-0.354
Mof_O 	O 	0.6336	0.6927	0.753	-0.446
Mof_O 	O 	0.6066	0.7041	0.705	-0.455
Mof_O 	O 	0.4474	0.1631	0.701	-0.374
Mof_O 	O 	0.5388	0.145	0.7095	-0.393
Mof_O 	O 	0.4187	0.0774	0.7188	-0.348
Mof_O 	O 	0.5114	0.0635	0.7369	-0.363
Mof_O 	O 	0.4443	0.5924	0.7032	-0.361
Mof_O 	O 	0.5209	0.6059	0.6707	-0.375
Mof_O 	O 	0.4214	0.6694	0.7264	-0.383
Mof_O 	O 	0.4841	0.6857	0.6861	-0.376
Mof_O 	O 	0.9226	0.1905	0.9908	-0.446
Mof_O 	O 	0.9006	0.0996	0.9879	-0.573
Mof_O 	O 	0.8329	0.1739	0.9651	-0.333
Mof_O 	O 	0.548	0.114	0.26142	-0.558
Mof_O 	O 	0.9737	0.1429	0.9409	-0.407
Mof_O 	O 	0.6259	0.3838	0.5099	-0.57
Mof_O 	O 	0.8896	0.1179	0.9217	-0.378
Mof_O 	O 	0.9579	0.3624	0.2323	-0.571
Mof_O 	O 	0.2743	0.3924	0.0072	-0.407
Mof_O 	O 	0.3138	0.4426	0.9737	-0.377
Mof_O 	O 	0.3265	0.4495	0.0517	-0.381
Mof_O 	O 	0.3764	0.4913	0.0161	-0.391
Mof_O 	O 	0.9176	0.0863	0.0555	-0.403
Mof_O 	O 	0.97	0.1409	0.0364	-0.401
Mof_O 	O 	0.9872	0.0357	0.0074	-0.377
Mof_O 	O 	0.0293	0.0946	0.987	-0.451
Mof_O 	O 	0.6715	0.0924	0.2488	-0.328
Mof_O 	O 	0.6598	0.1168	0.3004	-0.34
Mof_O 	O 	0.6236	0.1708	0.2271	-0.398
Mof_O 	O 	0.6071	0.1912	0.2797	-0.368
Mof_O 	O 	0.5496	0.0885	0.3241	-0.362
Mof_O 	O 	0.4656	0.0673	0.302	-0.354
Mof_O 	O 	0.4942	0.1667	0.3057	-0.303
Mof_O 	O 	0.424	0.1427	0.2739	-0.31
Mof_O 	O 	0.4927	0.0398	0.2384	-0.383
Mof_O 	O 	0.5886	0.0451	0.2185	-0.334
Mof_O 	O 	0.4483	0.118	0.2123	-0.361
Mof_O 	O 	0.5422	0.1265	0.1898	-0.38
Mof_O 	O 	0.6877	0.443	0.5493	-0.381
Mof_O 	O 	0.6365	0.4772	0.5085	-0.385
Mof_O 	O 	0.7558	0.3871	0.5025	-0.363
Mof_O 	O 	0.7073	0.4259	0.4655	-0.371
Mof_O 	O 	0.5352	0.4398	0.4876	-0.37
Mof_O 	O 	0.5	0.3836	0.5137	-0.39
Mof_O 	O 	0.6008	0.3922	0.4427	-0.397
Mof_O 	O 	0.5598	0.3362	0.4666	-0.415
Mof_O 	O 	0.1233	0.206	0.4864	-0.372
Mof_O 	O 	0.2063	0.1796	0.4646	-0.369
Mof_O 	O 	0.0643	0.1592	0.4358	-0.362
Mof_O 	O 	0.1488	0.1244	0.4203	-0.346
Mof_O 	O 	0.8402	0.3908	0.2405	-0.399
Mof_O 	O 	0.8598	0.3785	0.1876	-0.354
Mof_O 	O 	0.8664	0.3073	0.253	-0.446
Mof_O 	O 	0.8934	0.2959	0.205	-0.455
Mof_O 	O 	0.0526	0.8369	0.201	-0.372
Mof_O 	O 	0.9612	0.855	0.2095	-0.393
Mof_O 	O 	0.0813	0.9226	0.2188	-0.347
Mof_O 	O 	0.9886	0.9365	0.2369	-0.365
Mof_O 	O 	0.0557	0.4076	0.2032	-0.361
Mof_O 	O 	0.9791	0.3941	0.1707	-0.378
Mof_O 	O 	0.0786	0.3306	0.2264	-0.383
Mof_O 	O 	0.0159	0.3143	0.1861	-0.375
_end
