data_functionalizedCrystal
_audit_creation_method	'EQeq! by Chris Wilmer'
_symmetry_space_group_name_H-M	'P1'
_symmetry_Int_Tables_number	1
_symmetry_cell_setting	triclinic
loop_
_symmetry_equiv_pos_as_xyz
  x,y,z
_cell_length_a	22.5627
_cell_length_b	22.5627
_cell_length_c	22.5627
_cell_angle_alpha	107.968
_cell_angle_beta	107.968
_cell_angle_gamma	107.968
loop_
_atom_site_label
_atom_site_type_symbol
_atom_site_fract_x
_atom_site_fract_y
_atom_site_fract_z
_atom_site_charge
Mof_Mn	Mn	0.95024	0.46413	0.53261	0.87
Mof_Mn	Mn	0.53261	0.95024	0.46413	0.87
Mof_Mn	Mn	0.46413	0.53261	0.95024	0.87
Mof_Mn	Mn	0.04976	0.53587	0.46739	0.87
Mof_Mn	Mn	0.46739	0.04976	0.53587	0.87
Mof_Mn	Mn	0.53587	0.46739	0.04976	0.87
Mof_In	In	0.86977	0.45762	0.36089	2.635
Mof_In	In	0.36089	0.86977	0.45762	2.635
Mof_In	In	0.45762	0.36089	0.86977	2.635
Mof_In	In	0.13023	0.54238	0.63911	2.635
Mof_In	In	0.63911	0.13023	0.54238	2.635
Mof_In	In	0.54238	0.63911	0.13023	2.635
Mof_H 	H 	0.73	0.54	0.6234	0.093
Mof_H 	H 	0.7138	0.1084	0.1343	0.064
Mof_H 	H 	0.5825	0.097	0.9416	0.066
Mof_H 	H 	0.5141	0.7151	0.9071	0.014
Mof_H 	H 	0.6132	0.011	0.0719	0.067
Mof_H 	H 	0.4107	0.899	0.7849	0.086
Mof_H 	H 	0.6213	0.5122	0.4308	0.096
Mof_H 	H 	0.554	0.9176	0.0823	0.082
Mof_H 	H 	0.4938	0.8895	0.8682	0.064
Mof_H 	H 	0.5273	0.813	0.8887	0.079
Mof_H 	H 	0.5417	0.8202	0.1005	0.013
Mof_H 	H 	0.8094	0.5136	0.5908	0.008
Mof_H 	H 	0.6988	0.4818	0.3963	0.007
Mof_H 	H 	0.6713	0.2964	0.1355	0.04
Mof_H 	H 	0.3698	0.8748	0.6685	0.01
Mof_H 	H 	0.5784	0.0647	0.8301	0.084
Mof_H 	H 	0.5994	0.1871	0.0413	0.068
Mof_H 	H 	0.7793	0.2147	0.2319	0.041
Mof_H 	H 	0.5352	0.0395	0.7128	-0.001
Mof_H 	H 	0.6234	0.73	0.54	0.092
Mof_H 	H 	0.1343	0.7138	0.1084	0.063
Mof_H 	H 	0.9416	0.5825	0.097	0.065
Mof_H 	H 	0.9071	0.5141	0.7151	0.013
Mof_H 	H 	0.0719	0.6132	0.011	0.066
Mof_H 	H 	0.7849	0.4107	0.899	0.085
Mof_H 	H 	0.4308	0.6213	0.5122	0.096
Mof_H 	H 	0.0823	0.554	0.9176	0.082
Mof_H 	H 	0.8682	0.4938	0.8895	0.064
Mof_H 	H 	0.8887	0.5273	0.813	0.079
Mof_H 	H 	0.1005	0.5417	0.8202	0.013
Mof_H 	H 	0.5908	0.8094	0.5136	0.008
Mof_H 	H 	0.3963	0.6988	0.4818	0.007
Mof_H 	H 	0.1355	0.6713	0.2964	0.04
Mof_H 	H 	0.6685	0.3698	0.8748	0.01
Mof_H 	H 	0.8301	0.5784	0.0647	0.084
Mof_H 	H 	0.0413	0.5994	0.1871	0.068
Mof_H 	H 	0.2319	0.7793	0.2147	0.041
Mof_H 	H 	0.7128	0.5352	0.0395	-0.001
Mof_H 	H 	0.54	0.6234	0.73	0.092
Mof_H 	H 	0.1084	0.1343	0.7138	0.063
Mof_H 	H 	0.097	0.9416	0.5825	0.065
Mof_H 	H 	0.7151	0.9071	0.5141	0.013
Mof_H 	H 	0.011	0.0719	0.6132	0.066
Mof_H 	H 	0.899	0.7849	0.4107	0.085
Mof_H 	H 	0.5122	0.4308	0.6213	0.096
Mof_H 	H 	0.9176	0.0823	0.554	0.082
Mof_H 	H 	0.8895	0.8682	0.4938	0.064
Mof_H 	H 	0.813	0.8887	0.5273	0.079
Mof_H 	H 	0.8202	0.1005	0.5417	0.013
Mof_H 	H 	0.5136	0.5908	0.8094	0.008
Mof_H 	H 	0.4818	0.3963	0.6988	0.007
Mof_H 	H 	0.2964	0.1355	0.6713	0.04
Mof_H 	H 	0.8748	0.6685	0.3698	0.01
Mof_H 	H 	0.0647	0.8301	0.5784	0.084
Mof_H 	H 	0.1871	0.0413	0.5994	0.068
Mof_H 	H 	0.2147	0.2319	0.7793	0.041
Mof_H 	H 	0.0395	0.7128	0.5352	-0.001
Mof_H 	H 	0.27	0.46	0.3766	0.092
Mof_H 	H 	0.2862	0.8916	0.8657	0.063
Mof_H 	H 	0.4175	0.903	0.0584	0.065
Mof_H 	H 	0.4859	0.2849	0.0929	0.013
Mof_H 	H 	0.3868	0.989	0.9281	0.066
Mof_H 	H 	0.5893	0.101	0.2151	0.085
Mof_H 	H 	0.3787	0.4878	0.5692	0.096
Mof_H 	H 	0.446	0.0824	0.9177	0.082
Mof_H 	H 	0.5062	0.1105	0.1318	0.064
Mof_H 	H 	0.4727	0.187	0.1113	0.079
Mof_H 	H 	0.4583	0.1798	0.8995	0.013
Mof_H 	H 	0.1906	0.4864	0.4092	0.008
Mof_H 	H 	0.3012	0.5182	0.6037	0.007
Mof_H 	H 	0.3287	0.7036	0.8645	0.04
Mof_H 	H 	0.6302	0.1252	0.3315	0.01
Mof_H 	H 	0.4216	0.9353	0.1699	0.084
Mof_H 	H 	0.4006	0.8129	0.9587	0.068
Mof_H 	H 	0.2207	0.7853	0.7681	0.041
Mof_H 	H 	0.4648	0.9605	0.2872	-0.001
Mof_H 	H 	0.3766	0.27	0.46	0.092
Mof_H 	H 	0.8657	0.2862	0.8916	0.063
Mof_H 	H 	0.0584	0.4175	0.903	0.065
Mof_H 	H 	0.0929	0.4859	0.2849	0.013
Mof_H 	H 	0.9281	0.3868	0.989	0.066
Mof_H 	H 	0.2151	0.5893	0.101	0.085
Mof_H 	H 	0.5692	0.3787	0.4878	0.096
Mof_H 	H 	0.9177	0.446	0.0824	0.082
Mof_H 	H 	0.1318	0.5062	0.1105	0.064
Mof_H 	H 	0.1113	0.4727	0.187	0.079
Mof_H 	H 	0.8995	0.4583	0.1798	0.013
Mof_H 	H 	0.4092	0.1906	0.4864	0.008
Mof_H 	H 	0.6037	0.3012	0.5182	0.007
Mof_H 	H 	0.8645	0.3287	0.7036	0.04
Mof_H 	H 	0.3315	0.6302	0.1252	0.01
Mof_H 	H 	0.1699	0.4216	0.9353	0.084
Mof_H 	H 	0.9587	0.4006	0.8129	0.068
Mof_H 	H 	0.7681	0.2207	0.7853	0.041
Mof_H 	H 	0.2872	0.4648	0.9605	-0.001
Mof_H 	H 	0.46	0.3766	0.27	0.092
Mof_H 	H 	0.8916	0.8657	0.2862	0.063
Mof_H 	H 	0.903	0.0584	0.4175	0.065
Mof_H 	H 	0.2849	0.0929	0.4859	0.013
Mof_H 	H 	0.989	0.9281	0.3868	0.066
Mof_H 	H 	0.101	0.2151	0.5893	0.085
Mof_H 	H 	0.4878	0.5692	0.3787	0.096
Mof_H 	H 	0.0824	0.9177	0.446	0.082
Mof_H 	H 	0.1105	0.1318	0.5062	0.064
Mof_H 	H 	0.187	0.1113	0.4727	0.079
Mof_H 	H 	0.1798	0.8995	0.4583	0.013
Mof_H 	H 	0.4864	0.4092	0.1906	0.008
Mof_H 	H 	0.5182	0.6037	0.3012	0.007
Mof_H 	H 	0.7036	0.8645	0.3287	0.04
Mof_H 	H 	0.1252	0.3315	0.6302	0.01
Mof_H 	H 	0.9353	0.1699	0.4216	0.084
Mof_H 	H 	0.8129	0.9587	0.4006	0.068
Mof_H 	H 	0.7853	0.7681	0.2207	0.041
Mof_H 	H 	0.9605	0.2872	0.4648	-0.001
Mof_C 	C 	0.72434	0.52966	0.5782	-0.168
Mof_C 	C 	0.7037	0.1455	0.1349	-0.095
Mof_C 	C 	0.64884	0.13545	0.07831	0.033
Mof_C 	C 	0.57396	0.05752	0.94912	-0.104
Mof_C 	C 	0.52188	0.75561	0.94215	0.08
Mof_C 	C 	0.59288	0.00607	0.02695	-0.104
Mof_C 	C 	0.60351	0.06492	0.01687	0.044
Mof_C 	C 	0.43729	0.92696	0.77085	-0.157
Mof_C 	C 	0.50094	0.98191	0.81965	0.077
Mof_C 	C 	0.53235	0.99242	0.89353	0.026
Mof_C 	C 	0.65913	0.51262	0.46305	-0.173
Mof_C 	C 	0.54646	0.8772	0.04714	-0.148
Mof_C 	C 	0.78045	0.33762	0.25483	0.324
Mof_C 	C 	0.5219	0.93356	0.90554	-0.096
Mof_C 	C 	0.54367	0.87643	0.98404	0.066
Mof_C 	C 	0.55286	0.93981	0.97243	0.033
Mof_C 	C 	0.53046	0.81483	0.93141	-0.14
Mof_C 	C 	0.81761	0.48328	0.47005	0.477
Mof_C 	C 	0.53818	0.81848	0.05774	0.087
Mof_C 	C 	0.52476	0.75694	0.00472	-0.178
Mof_C 	C 	0.51638	0.69383	0.01729	0.495
Mof_C 	C 	0.77174	0.51329	0.55857	0.093
Mof_C 	C 	0.61996	0.5533	0.55382	-0.057
Mof_C 	C 	0.70588	0.49471	0.44213	0.101
Mof_C 	C 	0.5978	0.59733	0.53162	0.018
Mof_C 	C 	0.66798	0.53092	0.53076	0.111
Mof_C 	C 	0.76338	0.49625	0.49058	-0.178
Mof_C 	C 	0.45065	0.95469	0.68026	-0.185
Mof_C 	C 	0.73265	0.26721	0.19244	-0.074
Mof_C 	C 	0.67922	0.25851	0.13607	0.014
Mof_C 	C 	0.41234	0.91274	0.70112	0.096
Mof_C 	C 	0.53682	0.02541	0.79787	-0.156
Mof_C 	C 	0.63641	0.19276	0.07903	-0.096
Mof_C 	C 	0.7444	0.2097	0.1929	0.011
Mof_C 	C 	0.51049	0.01026	0.72715	0.101
Mof_C 	C 	0.42391	0.93309	0.6017	0.492
Mof_C 	C 	0.5782	0.72434	0.52966	-0.168
Mof_C 	C 	0.1349	0.7037	0.1455	-0.095
Mof_C 	C 	0.07831	0.64884	0.13545	0.033
Mof_C 	C 	0.94912	0.57396	0.05752	-0.104
Mof_C 	C 	0.94215	0.52188	0.75561	0.08
Mof_C 	C 	0.02695	0.59288	0.00607	-0.104
Mof_C 	C 	0.01687	0.60351	0.06492	0.044
Mof_C 	C 	0.77085	0.43729	0.92696	-0.157
Mof_C 	C 	0.81965	0.50094	0.98191	0.077
Mof_C 	C 	0.89353	0.53235	0.99242	0.026
Mof_C 	C 	0.46305	0.65913	0.51262	-0.173
Mof_C 	C 	0.04714	0.54646	0.8772	-0.148
Mof_C 	C 	0.25483	0.78045	0.33762	0.324
Mof_C 	C 	0.90554	0.5219	0.93356	-0.096
Mof_C 	C 	0.98404	0.54367	0.87643	0.066
Mof_C 	C 	0.97243	0.55286	0.93981	0.033
Mof_C 	C 	0.93141	0.53046	0.81483	-0.14
Mof_C 	C 	0.47005	0.81761	0.48328	0.477
Mof_C 	C 	0.05774	0.53818	0.81848	0.087
Mof_C 	C 	0.00472	0.52476	0.75694	-0.178
Mof_C 	C 	0.01729	0.51638	0.69383	0.495
Mof_C 	C 	0.55857	0.77174	0.51329	0.093
Mof_C 	C 	0.55382	0.61996	0.5533	-0.057
Mof_C 	C 	0.44213	0.70588	0.49471	0.101
Mof_C 	C 	0.53162	0.5978	0.59733	0.018
Mof_C 	C 	0.53076	0.66798	0.53092	0.111
Mof_C 	C 	0.49058	0.76338	0.49625	-0.178
Mof_C 	C 	0.68026	0.45065	0.95469	-0.185
Mof_C 	C 	0.19244	0.73265	0.26721	-0.074
Mof_C 	C 	0.13607	0.67922	0.25851	0.014
Mof_C 	C 	0.70112	0.41234	0.91274	0.096
Mof_C 	C 	0.79787	0.53682	0.02541	-0.156
Mof_C 	C 	0.07903	0.63641	0.19276	-0.096
Mof_C 	C 	0.1929	0.7444	0.2097	0.011
Mof_C 	C 	0.72715	0.51049	0.01026	0.101
Mof_C 	C 	0.6017	0.42391	0.93309	0.492
Mof_C 	C 	0.52966	0.5782	0.72434	-0.168
Mof_C 	C 	0.1455	0.1349	0.7037	-0.095
Mof_C 	C 	0.13545	0.07831	0.64884	0.033
Mof_C 	C 	0.05752	0.94912	0.57396	-0.104
Mof_C 	C 	0.75561	0.94215	0.52188	0.08
Mof_C 	C 	0.00607	0.02695	0.59288	-0.104
Mof_C 	C 	0.06492	0.01687	0.60351	0.044
Mof_C 	C 	0.92696	0.77085	0.43729	-0.157
Mof_C 	C 	0.98191	0.81965	0.50094	0.077
Mof_C 	C 	0.99242	0.89353	0.53235	0.026
Mof_C 	C 	0.51262	0.46305	0.65913	-0.173
Mof_C 	C 	0.8772	0.04714	0.54646	-0.148
Mof_C 	C 	0.33762	0.25483	0.78045	0.324
Mof_C 	C 	0.93356	0.90554	0.5219	-0.096
Mof_C 	C 	0.87643	0.98404	0.54367	0.066
Mof_C 	C 	0.93981	0.97243	0.55286	0.033
Mof_C 	C 	0.81483	0.93141	0.53046	-0.14
Mof_C 	C 	0.48328	0.47005	0.81761	0.477
Mof_C 	C 	0.81848	0.05774	0.53818	0.087
Mof_C 	C 	0.75694	0.00472	0.52476	-0.178
Mof_C 	C 	0.69383	0.01729	0.51638	0.495
Mof_C 	C 	0.51329	0.55857	0.77174	0.093
Mof_C 	C 	0.5533	0.55382	0.61996	-0.057
Mof_C 	C 	0.49471	0.44213	0.70588	0.101
Mof_C 	C 	0.59733	0.53162	0.5978	0.018
Mof_C 	C 	0.53092	0.53076	0.66798	0.111
Mof_C 	C 	0.49625	0.49058	0.76338	-0.178
Mof_C 	C 	0.95469	0.68026	0.45065	-0.185
Mof_C 	C 	0.26721	0.19244	0.73265	-0.074
Mof_C 	C 	0.25851	0.13607	0.67922	0.014
Mof_C 	C 	0.91274	0.70112	0.41234	0.096
Mof_C 	C 	0.02541	0.79787	0.53682	-0.156
Mof_C 	C 	0.19276	0.07903	0.63641	-0.096
Mof_C 	C 	0.2097	0.1929	0.7444	0.011
Mof_C 	C 	0.01026	0.72715	0.51049	0.101
Mof_C 	C 	0.93309	0.6017	0.42391	0.492
Mof_C 	C 	0.27566	0.47034	0.4218	-0.168
Mof_C 	C 	0.2963	0.8545	0.8651	-0.095
Mof_C 	C 	0.35116	0.86455	0.92169	0.033
Mof_C 	C 	0.42604	0.94248	0.05088	-0.104
Mof_C 	C 	0.47812	0.24439	0.05785	0.08
Mof_C 	C 	0.40712	0.99393	0.97305	-0.104
Mof_C 	C 	0.39649	0.93508	0.98313	0.044
Mof_C 	C 	0.56271	0.07304	0.22915	-0.157
Mof_C 	C 	0.49906	0.01809	0.18035	0.077
Mof_C 	C 	0.46765	0.00758	0.10647	0.026
Mof_C 	C 	0.34087	0.48738	0.53695	-0.173
Mof_C 	C 	0.45354	0.1228	0.95286	-0.148
Mof_C 	C 	0.21955	0.66238	0.74517	0.324
Mof_C 	C 	0.4781	0.06644	0.09446	-0.096
Mof_C 	C 	0.45633	0.12357	0.01596	0.066
Mof_C 	C 	0.44714	0.06019	0.02757	0.033
Mof_C 	C 	0.46954	0.18517	0.06859	-0.14
Mof_C 	C 	0.18239	0.51672	0.52995	0.477
Mof_C 	C 	0.46182	0.18152	0.94226	0.087
Mof_C 	C 	0.47524	0.24306	0.99528	-0.178
Mof_C 	C 	0.48362	0.30617	0.98271	0.495
Mof_C 	C 	0.22826	0.48671	0.44143	0.093
Mof_C 	C 	0.38004	0.4467	0.44618	-0.057
Mof_C 	C 	0.29412	0.50529	0.55787	0.101
Mof_C 	C 	0.4022	0.40267	0.46838	0.018
Mof_C 	C 	0.33202	0.46908	0.46924	0.111
Mof_C 	C 	0.23662	0.50375	0.50942	-0.178
Mof_C 	C 	0.54935	0.04531	0.31974	-0.185
Mof_C 	C 	0.26735	0.73279	0.80756	-0.074
Mof_C 	C 	0.32078	0.74149	0.86393	0.014
Mof_C 	C 	0.58766	0.08726	0.29888	0.096
Mof_C 	C 	0.46318	0.97459	0.20213	-0.156
Mof_C 	C 	0.36359	0.80724	0.92097	-0.096
Mof_C 	C 	0.2556	0.7903	0.8071	0.011
Mof_C 	C 	0.48951	0.98974	0.27285	0.101
Mof_C 	C 	0.57609	0.06691	0.3983	0.492
Mof_C 	C 	0.4218	0.27566	0.47034	-0.168
Mof_C 	C 	0.8651	0.2963	0.8545	-0.095
Mof_C 	C 	0.92169	0.35116	0.86455	0.033
Mof_C 	C 	0.05088	0.42604	0.94248	-0.104
Mof_C 	C 	0.05785	0.47812	0.24439	0.08
Mof_C 	C 	0.97305	0.40712	0.99393	-0.104
Mof_C 	C 	0.98313	0.39649	0.93508	0.044
Mof_C 	C 	0.22915	0.56271	0.07304	-0.157
Mof_C 	C 	0.18035	0.49906	0.01809	0.077
Mof_C 	C 	0.10647	0.46765	0.00758	0.026
Mof_C 	C 	0.53695	0.34087	0.48738	-0.173
Mof_C 	C 	0.95286	0.45354	0.1228	-0.148
Mof_C 	C 	0.74517	0.21955	0.66238	0.324
Mof_C 	C 	0.09446	0.4781	0.06644	-0.096
Mof_C 	C 	0.01596	0.45633	0.12357	0.066
Mof_C 	C 	0.02757	0.44714	0.06019	0.033
Mof_C 	C 	0.06859	0.46954	0.18517	-0.14
Mof_C 	C 	0.52995	0.18239	0.51672	0.477
Mof_C 	C 	0.94226	0.46182	0.18152	0.087
Mof_C 	C 	0.99528	0.47524	0.24306	-0.178
Mof_C 	C 	0.98271	0.48362	0.30617	0.495
Mof_C 	C 	0.44143	0.22826	0.48671	0.093
Mof_C 	C 	0.44618	0.38004	0.4467	-0.057
Mof_C 	C 	0.55787	0.29412	0.50529	0.101
Mof_C 	C 	0.46838	0.4022	0.40267	0.018
Mof_C 	C 	0.46924	0.33202	0.46908	0.111
Mof_C 	C 	0.50942	0.23662	0.50375	-0.178
Mof_C 	C 	0.31974	0.54935	0.04531	-0.185
Mof_C 	C 	0.80756	0.26735	0.73279	-0.074
Mof_C 	C 	0.86393	0.32078	0.74149	0.014
Mof_C 	C 	0.29888	0.58766	0.08726	0.096
Mof_C 	C 	0.20213	0.46318	0.97459	-0.156
Mof_C 	C 	0.92097	0.36359	0.80724	-0.096
Mof_C 	C 	0.8071	0.2556	0.7903	0.011
Mof_C 	C 	0.27285	0.48951	0.98974	0.101
Mof_C 	C 	0.3983	0.57609	0.06691	0.492
Mof_C 	C 	0.47034	0.4218	0.27566	-0.168
Mof_C 	C 	0.8545	0.8651	0.2963	-0.095
Mof_C 	C 	0.86455	0.92169	0.35116	0.033
Mof_C 	C 	0.94248	0.05088	0.42604	-0.104
Mof_C 	C 	0.24439	0.05785	0.47812	0.08
Mof_C 	C 	0.99393	0.97305	0.40712	-0.104
Mof_C 	C 	0.93508	0.98313	0.39649	0.044
Mof_C 	C 	0.07304	0.22915	0.56271	-0.157
Mof_C 	C 	0.01809	0.18035	0.49906	0.077
Mof_C 	C 	0.00758	0.10647	0.46765	0.026
Mof_C 	C 	0.48738	0.53695	0.34087	-0.173
Mof_C 	C 	0.1228	0.95286	0.45354	-0.148
Mof_C 	C 	0.66238	0.74517	0.21955	0.324
Mof_C 	C 	0.06644	0.09446	0.4781	-0.096
Mof_C 	C 	0.12357	0.01596	0.45633	0.066
Mof_C 	C 	0.06019	0.02757	0.44714	0.033
Mof_C 	C 	0.18517	0.06859	0.46954	-0.14
Mof_C 	C 	0.51672	0.52995	0.18239	0.477
Mof_C 	C 	0.18152	0.94226	0.46182	0.087
Mof_C 	C 	0.24306	0.99528	0.47524	-0.178
Mof_C 	C 	0.30617	0.98271	0.48362	0.495
Mof_C 	C 	0.48671	0.44143	0.22826	0.093
Mof_C 	C 	0.4467	0.44618	0.38004	-0.057
Mof_C 	C 	0.50529	0.55787	0.29412	0.101
Mof_C 	C 	0.40267	0.46838	0.4022	0.018
Mof_C 	C 	0.46908	0.46924	0.33202	0.111
Mof_C 	C 	0.50375	0.50942	0.23662	-0.178
Mof_C 	C 	0.04531	0.31974	0.54935	-0.185
Mof_C 	C 	0.73279	0.80756	0.26735	-0.074
Mof_C 	C 	0.74149	0.86393	0.32078	0.014
Mof_C 	C 	0.08726	0.29888	0.58766	0.096
Mof_C 	C 	0.97459	0.20213	0.46318	-0.156
Mof_C 	C 	0.80724	0.92097	0.36359	-0.096
Mof_C 	C 	0.7903	0.8071	0.2556	0.011
Mof_C 	C 	0.98974	0.27285	0.48951	0.101
Mof_C 	C 	0.06691	0.3983	0.57609	0.492
Mof_O 	O 	0.87656	0.50528	0.51792	-0.456
Mof_O 	O 	0.49457	0.63743	0.96587	-0.441
Mof_O 	O 	0.82891	0.34096	0.30437	-0.534
Mof_O 	O 	0.77173	0.38943	0.25539	-0.505
Mof_O 	O 	0.53135	0.70363	0.07916	-0.662
Mof_O 	O 	0.7994	0.453	0.40634	-0.676
Mof_O 	O 	0.9498	0.44834	0.43259	-0.686
Mof_O 	O 	0.45397	0.97853	0.5865	-0.518
Mof_O 	O 	0.37727	0.87782	0.55901	-0.673
Mof_O 	O 	0.51792	0.87656	0.50528	-0.456
Mof_O 	O 	0.96587	0.49457	0.63743	-0.441
Mof_O 	O 	0.30437	0.82891	0.34096	-0.534
Mof_O 	O 	0.25539	0.77173	0.38943	-0.505
Mof_O 	O 	0.07916	0.53135	0.70363	-0.662
Mof_O 	O 	0.40634	0.7994	0.453	-0.676
Mof_O 	O 	0.43259	0.9498	0.44834	-0.686
Mof_O 	O 	0.5865	0.45397	0.97853	-0.518
Mof_O 	O 	0.55901	0.37727	0.87782	-0.673
Mof_O 	O 	0.50528	0.51792	0.87656	-0.456
Mof_O 	O 	0.63743	0.96587	0.49457	-0.441
Mof_O 	O 	0.34096	0.30437	0.82891	-0.534
Mof_O 	O 	0.38943	0.25539	0.77173	-0.505
Mof_O 	O 	0.70363	0.07916	0.53135	-0.662
Mof_O 	O 	0.453	0.40634	0.7994	-0.676
Mof_O 	O 	0.44834	0.43259	0.9498	-0.686
Mof_O 	O 	0.97853	0.5865	0.45397	-0.518
Mof_O 	O 	0.87782	0.55901	0.37727	-0.673
Mof_O 	O 	0.12344	0.49472	0.48208	-0.456
Mof_O 	O 	0.50543	0.36257	0.03413	-0.441
Mof_O 	O 	0.17109	0.65904	0.69563	-0.534
Mof_O 	O 	0.22827	0.61057	0.74461	-0.505
Mof_O 	O 	0.46865	0.29637	0.92084	-0.662
Mof_O 	O 	0.2006	0.547	0.59366	-0.676
Mof_O 	O 	0.0502	0.55166	0.56741	-0.686
Mof_O 	O 	0.54603	0.02147	0.4135	-0.518
Mof_O 	O 	0.62273	0.12218	0.44099	-0.673
Mof_O 	O 	0.48208	0.12344	0.49472	-0.456
Mof_O 	O 	0.03413	0.50543	0.36257	-0.441
Mof_O 	O 	0.69563	0.17109	0.65904	-0.534
Mof_O 	O 	0.74461	0.22827	0.61057	-0.505
Mof_O 	O 	0.92084	0.46865	0.29637	-0.662
Mof_O 	O 	0.59366	0.2006	0.547	-0.676
Mof_O 	O 	0.56741	0.0502	0.55166	-0.686
Mof_O 	O 	0.4135	0.54603	0.02147	-0.518
Mof_O 	O 	0.44099	0.62273	0.12218	-0.673
Mof_O 	O 	0.49472	0.48208	0.12344	-0.456
Mof_O 	O 	0.36257	0.03413	0.50543	-0.441
Mof_O 	O 	0.65904	0.69563	0.17109	-0.534
Mof_O 	O 	0.61057	0.74461	0.22827	-0.505
Mof_O 	O 	0.29637	0.92084	0.46865	-0.662
Mof_O 	O 	0.547	0.59366	0.2006	-0.676
Mof_O 	O 	0.55166	0.56741	0.0502	-0.686
Mof_O 	O 	0.02147	0.4135	0.54603	-0.518
Mof_O 	O 	0.12218	0.44099	0.62273	-0.673
_end
