# CIF file generated by openbabel 3.1.0, see https://openbabel.org
data_I
_chemical_name_common 'image0'
_cell_length_a 13.7195
_cell_length_b 13.6998
_cell_length_c 18.1247
_cell_angle_alpha 77.634
_cell_angle_beta 77.225
_cell_angle_gamma 63.562
_space_group_name_H-M_alt 'P 1'
_space_group_name_Hall 'P 1'
loop_
    _symmetry_equiv_pos_as_xyz
    x,y,z
loop_
    _atom_site_label
    _atom_site_type_symbol
    _atom_site_fract_x
    _atom_site_fract_y
    _atom_site_fract_z
    _atom_site_occupancy
    Co1      Co       0.96921    0.21290    0.12336    1.000
    S1       S        0.15360    0.82179    0.13762    1.000
    S2       S        0.73376    0.58891    0.08803    1.000
    N1       N        0.99970    0.25790    0.99910    1.000
    N2       N        0.94990    0.16380    0.24820    1.000
    N3       N        0.81600    0.20180    0.11940    1.000
    N4       N        0.12400    0.22350    0.13090    1.000
    N5       N        0.05730    0.04800    0.10910    1.000
    N6       N        0.88010    0.37750    0.13750    1.000
    C1       C        0.09590    0.20180    0.95980    1.000
    H1       H        0.14490    0.13630    0.98330    1.000
    C2       C        0.12510    0.23850    0.88460    1.000
    H2       H        0.19470    0.19860    0.85980    1.000
    C3       C        0.05810    0.32760    0.84720    1.000
    C4       C        0.95680    0.38740    0.88690    1.000
    H3       H        0.90560    0.45170    0.86390    1.000
    C5       C        0.93650    0.34850    0.95900    1.000
    H4       H        0.86870    0.39030    0.98510    1.000
    C6       C        0.04060    0.18420    0.95010    1.000
    H5       H        0.04610    0.11350    0.96890    1.000
    C7       C        0.07580    0.20630    0.87230    1.000
    H6       H        0.10650    0.15350    0.83920    1.000
    C8       C        0.02310    0.38420    0.89360    1.000
    H7       H        0.01210    0.45720    0.87810    1.000
    C9       C        0.99600    0.35530    0.96910    1.000
    H8       H        0.97350    0.40790    0.00160    1.000
    C10      C        0.09360    0.36420    0.76780    1.000
    H9       H        0.06510    0.34040    0.73670    1.000
    C11      C        0.95290    0.06520    0.27950    1.000
    H10      H        0.94870    0.02160    0.24850    1.000
    C12      C        0.96180    0.02470    0.35550    1.000
    H11      H        0.96310    0.95570    0.37530    1.000
    C13      C        0.96900    0.08950    0.40200    1.000
    C14      C        0.96070    0.19130    0.37130    1.000
    H12      H        0.96180    0.23810    0.40110    1.000
    C15      C        0.95070    0.22390    0.29660    1.000
    H13      H        0.94360    0.29490    0.27710    1.000
    C16      C        0.98800    0.04960    0.48260    1.000
    H14      H        0.98190    0.10130    0.51130    1.000
    C17      C        0.81080    0.13860    0.07630    1.000
    H15      H        0.87430    0.09960    0.04490    1.000
    C18      C        0.71620    0.12720    0.07520    1.000
    H16      H        0.71660    0.08020    0.04480    1.000
    C19      C        0.62140    0.18660    0.12000    1.000
    C20      C        0.62610    0.25050    0.16410    1.000
    H17      H        0.56330    0.29110    0.19540    1.000
    C21      C        0.72230    0.25590    0.16320    1.000
    H18      H        0.72340    0.30020    0.19510    1.000
    C22      C        0.51780    0.17750    0.11930    1.000
    H19      H        0.52470    0.11650    0.10030    1.000
    C23      C        0.21710    0.14030    0.13440    1.000
    H20      H        0.21820    0.07200    0.13440    1.000
    C24      C        0.31550    0.14160    0.13810    1.000
    H21      H        0.37900    0.07660    0.14100    1.000
    C25      C        0.31830    0.23620    0.13760    1.000
    C26      C        0.22340    0.32220    0.13950    1.000
    H22      H        0.21940    0.38980    0.14550    1.000
    C27      C        0.13040    0.31360    0.13280    1.000
    H23      H        0.06660    0.37830    0.12930    1.000
    C28      C        0.42160    0.24340    0.14170    1.000
    H24      H        0.41450    0.30270    0.16300    1.000
    C29      C        0.09720    0.95490    0.12090    1.000
    C30      C        0.81900    0.46540    0.11900    1.000
    Co2      Co       0.28713    0.53075    0.37657    1.000
    S3       S        0.67838    0.34610    0.36235    1.000
    S4       S        0.91119    0.76622    0.41188    1.000
    N7       N        0.24210    0.50010    0.50080    1.000
    N8       N        0.33550    0.55020    0.25180    1.000
    N9       N        0.29880    0.68390    0.38050    1.000
    N10      N        0.27690    0.37600    0.36930    1.000
    N11      N        0.45200    0.44240    0.39130    1.000
    N12      N        0.12250    0.61980    0.36270    1.000
    C31      C        0.29700    0.40420    0.53890    1.000
    H25      H        0.36220    0.35480    0.51470    1.000
    C32      C        0.25960    0.37490    0.61480    1.000
    H26      H        0.29840    0.30480    0.63890    1.000
    C33      C        0.17230    0.44250    0.65270    1.000
    C34      C        0.11220    0.54420    0.61210    1.000
    H27      H        0.04710    0.59510    0.63520    1.000
    C35      C        0.15130    0.56510    0.53990    1.000
    H28      H        0.11040    0.63290    0.51400    1.000
    C36      C        0.31370    0.45950    0.55010    1.000
    H29      H        0.38270    0.45920    0.53170    1.000
    C37      C        0.29640    0.41800    0.62590    1.000
    H30      H        0.35130    0.37960    0.65680    1.000
    C38      C        0.11600    0.47650    0.60710    1.000
    H31      H        0.04350    0.48570    0.62280    1.000
    C39      C        0.14520    0.50520    0.53100    1.000
    H32      H        0.09210    0.52990    0.49900    1.000
    C40      C        0.13620    0.40450    0.73310    1.000
    H33      H        0.16510    0.42770    0.76430    1.000
    C41      C        0.43470    0.54720    0.22050    1.000
    H34      H        0.47810    0.55130    0.25150    1.000
    C42      C        0.47540    0.53810    0.14390    1.000
    H35      H        0.54430    0.53700    0.12380    1.000
    C43      C        0.41090    0.53050    0.09810    1.000
    C44      C        0.30930    0.53960    0.12870    1.000
    H36      H        0.26270    0.53920    0.09870    1.000
    C45      C        0.27590    0.54910    0.20330    1.000
    H37      H        0.20500    0.55550    0.22280    1.000
    C46      C        0.45030    0.51210    0.01720    1.000
    H38      H        0.39880    0.51840    0.98860    1.000
    C47      C        0.36130    0.68950    0.42400    1.000
    H39      H        0.39920    0.62670    0.45580    1.000
    C48      C        0.37270    0.78400    0.42440    1.000
    H40      H        0.41990    0.78420    0.45410    1.000
    C49      C        0.31330    0.87840    0.38000    1.000
    C50      C        0.24990    0.87390    0.33560    1.000
    H41      H        0.21010    0.93610    0.30420    1.000
    C51      C        0.24460    0.77720    0.33710    1.000
    H42      H        0.20010    0.77550    0.30580    1.000
    C52      C        0.32230    0.98270    0.38020    1.000
    H43      H        0.38340    0.97580    0.39870    1.000
    C53      C        0.18670    0.36990    0.36620    1.000
    H44      H        0.12260    0.43450    0.36740    1.000
    C54      C        0.17760    0.27570    0.36130    1.000
    H45      H        0.10980    0.27890    0.35730    1.000
    C55      C        0.26410    0.18170    0.36210    1.000
    C56      C        0.35840    0.18490    0.36090    1.000
    H46      H        0.42360    0.12160    0.35690    1.000
    C57      C        0.35980    0.28300    0.36570    1.000
    H47      H        0.42800    0.28160    0.36630    1.000
    C58      C        0.25690    0.07870    0.35850    1.000
    H48      H        0.19750    0.08560    0.33790    1.000
    C59      C        0.54520    0.40260    0.37900    1.000
    C60      C        0.03470    0.68150    0.38130    1.000
    Co3      Co       0.03079    0.78710    0.87664    1.000
    S5       S        0.84640    0.17821    0.86238    1.000
    S6       S        0.26624    0.41109    0.91197    1.000
    N13      N        0.00030    0.74210    0.00090    1.000
    N14      N        0.05010    0.83620    0.75180    1.000
    N15      N        0.18400    0.79820    0.88060    1.000
    N16      N        0.87600    0.77650    0.86910    1.000
    N17      N        0.94270    0.95200    0.89090    1.000
    N18      N        0.11990    0.62250    0.86250    1.000
    C61      C        0.90410    0.79820    0.04020    1.000
    H49      H        0.85510    0.86370    0.01670    1.000
    C62      C        0.87490    0.76150    0.11540    1.000
    H50      H        0.80530    0.80140    0.14020    1.000
    C63      C        0.94190    0.67240    0.15280    1.000
    C64      C        0.04320    0.61260    0.11310    1.000
    H51      H        0.09440    0.54830    0.13610    1.000
    C65      C        0.06350    0.65150    0.04100    1.000
    H52      H        0.13130    0.60970    0.01490    1.000
    C66      C        0.95940    0.81580    0.04990    1.000
    H53      H        0.95390    0.88650    0.03110    1.000
    C67      C        0.92420    0.79370    0.12770    1.000
    H54      H        0.89350    0.84650    0.16080    1.000
    C68      C        0.97690    0.61580    0.10640    1.000
    H55      H        0.98790    0.54280    0.12190    1.000
    C69      C        0.00400    0.64470    0.03090    1.000
    H56      H        0.02650    0.59210    0.99840    1.000
    C70      C        0.90640    0.63580    0.23220    1.000
    H57      H        0.93490    0.65960    0.26330    1.000
    C71      C        0.04710    0.93480    0.72050    1.000
    H58      H        0.05130    0.97840    0.75150    1.000
    C72      C        0.03820    0.97530    0.64450    1.000
    H59      H        0.03690    0.04430    0.62470    1.000
    C73      C        0.03100    0.91050    0.59800    1.000
    C74      C        0.03930    0.80870    0.62870    1.000
    H60      H        0.03820    0.76190    0.59890    1.000
    C75      C        0.04930    0.77610    0.70340    1.000
    H61      H        0.05640    0.70510    0.72290    1.000
    C76      C        0.01200    0.95040    0.51740    1.000
    H62      H        0.01810    0.89870    0.48870    1.000
    C77      C        0.18920    0.86140    0.92370    1.000
    H63      H        0.12570    0.90040    0.95510    1.000
    C78      C        0.28380    0.87280    0.92480    1.000
    H64      H        0.28340    0.91980    0.95520    1.000
    C79      C        0.37860    0.81340    0.88000    1.000
    C80      C        0.37390    0.74950    0.83590    1.000
    H65      H        0.43670    0.70890    0.80460    1.000
    C81      C        0.27770    0.74410    0.83680    1.000
    H66      H        0.27660    0.69980    0.80490    1.000
    C82      C        0.48220    0.82250    0.88070    1.000
    H67      H        0.47530    0.88350    0.89970    1.000
    C83      C        0.78290    0.85970    0.86560    1.000
    H68      H        0.78180    0.92800    0.86560    1.000
    C84      C        0.68450    0.85840    0.86190    1.000
    H69      H        0.62100    0.92340    0.85900    1.000
    C85      C        0.68170    0.76380    0.86240    1.000
    C86      C        0.77660    0.67780    0.86050    1.000
    H70      H        0.78060    0.61020    0.85450    1.000
    C87      C        0.86960    0.68640    0.86720    1.000
    H71      H        0.93340    0.62170    0.87070    1.000
    C88      C        0.57840    0.75660    0.85830    1.000
    H72      H        0.58550    0.69730    0.83700    1.000
    C89      C        0.90280    0.04510    0.87910    1.000
    C90      C        0.18100    0.53460    0.88100    1.000
    Co4      Co       0.71287    0.46925    0.62343    1.000
    S7       S        0.32162    0.65390    0.63765    1.000
    S8       S        0.08881    0.23378    0.58812    1.000
    N19      N        0.75790    0.49990    0.49920    1.000
    N20      N        0.66450    0.44980    0.74820    1.000
    N21      N        0.70120    0.31610    0.61950    1.000
    N22      N        0.72310    0.62400    0.63070    1.000
    N23      N        0.54800    0.55760    0.60870    1.000
    N24      N        0.87750    0.38020    0.63730    1.000
    C91      C        0.70300    0.59580    0.46110    1.000
    H73      H        0.63780    0.64520    0.48530    1.000
    C92      C        0.74040    0.62510    0.38520    1.000
    H74      H        0.70160    0.69520    0.36110    1.000
    C93      C        0.82770    0.55750    0.34730    1.000
    C94      C        0.88780    0.45580    0.38790    1.000
    H75      H        0.95290    0.40490    0.36480    1.000
    C95      C        0.84870    0.43490    0.46010    1.000
    H76      H        0.88960    0.36710    0.48600    1.000
    C96      C        0.68630    0.54050    0.44990    1.000
    H77      H        0.61730    0.54080    0.46830    1.000
    C97      C        0.70360    0.58200    0.37410    1.000
    H78      H        0.64870    0.62040    0.34320    1.000
    C98      C        0.88400    0.52350    0.39290    1.000
    H79      H        0.95650    0.51430    0.37720    1.000
    C99      C        0.85480    0.49480    0.46900    1.000
    H80      H        0.90790    0.47010    0.50100    1.000
    C100     C        0.86380    0.59550    0.26690    1.000
    H81      H        0.83490    0.57230    0.23570    1.000
    C101     C        0.56530    0.45280    0.77950    1.000
    H82      H        0.52190    0.44870    0.74850    1.000
    C102     C        0.52460    0.46190    0.85610    1.000
    H83      H        0.45570    0.46300    0.87620    1.000
    C103     C        0.58910    0.46950    0.90190    1.000
    C104     C        0.69070    0.46040    0.87130    1.000
    H84      H        0.73730    0.46080    0.90130    1.000
    C105     C        0.72410    0.45090    0.79670    1.000
    H85      H        0.79500    0.44450    0.77720    1.000
    C106     C        0.54970    0.48790    0.98280    1.000
    H86      H        0.60120    0.48160    0.01140    1.000
    C107     C        0.63870    0.31050    0.57600    1.000
    H87      H        0.60080    0.37330    0.54420    1.000
    C108     C        0.62730    0.21600    0.57560    1.000
    H88      H        0.58010    0.21580    0.54590    1.000
    C109     C        0.68670    0.12160    0.62000    1.000
    C110     C        0.75010    0.12610    0.66440    1.000
    H89      H        0.78990    0.06390    0.69580    1.000
    C111     C        0.75540    0.22280    0.66290    1.000
    H90      H        0.79990    0.22450    0.69420    1.000
    C112     C        0.67770    0.01730    0.61980    1.000
    H91      H        0.61660    0.02420    0.60130    1.000
    C113     C        0.81330    0.63010    0.63380    1.000
    H92      H        0.87740    0.56550    0.63260    1.000
    C114     C        0.82240    0.72430    0.63870    1.000
    H93      H        0.89020    0.72110    0.64270    1.000
    C115     C        0.73590    0.81830    0.63790    1.000
    C116     C        0.64160    0.81510    0.63910    1.000
    H94      H        0.57640    0.87840    0.64310    1.000
    C117     C        0.64020    0.71700    0.63430    1.000
    H95      H        0.57200    0.71840    0.63370    1.000
    C118     C        0.74310    0.92130    0.64150    1.000
    H96      H        0.80250    0.91440    0.66210    1.000
    C119     C        0.45480    0.59740    0.62100    1.000
    C120     C        0.96530    0.31850    0.61870    1.000
