# CIF file generated by openbabel 3.1.0, see https://openbabel.org
data_I
_chemical_name_common 'image0'
_cell_length_a 19.9853
_cell_length_b 19.9853
_cell_length_c 19.9853
_cell_angle_alpha 90
_cell_angle_beta 90
_cell_angle_gamma 90
_space_group_name_H-M_alt 'P 1'
_space_group_name_Hall 'P 1'
loop_
    _symmetry_equiv_pos_as_xyz
    x,y,z
loop_
    _atom_site_label
    _atom_site_type_symbol
    _atom_site_fract_x
    _atom_site_fract_y
    _atom_site_fract_z
    _atom_site_occupancy
    Pr1      Pr       0.51204    0.74408    0.34638    1.000
    O1       O        0.55063    0.64175    0.29195    1.000
    O2       O        0.58086    0.57990    0.20462    1.000
    O3       O        0.40902    0.88459    0.19987    1.000
    O4       O        0.46156    0.83834    0.28616    1.000
    N1       N        0.50060    0.73581    0.21688    1.000
    C1       C        0.44563    0.84130    0.22543    1.000
    C2       C        0.55497    0.63062    0.22963    1.000
    C3       C        0.47291    0.78560    0.18191    1.000
    C4       C        0.52595    0.68365    0.18435    1.000
    C5       C        0.47010    0.78560    0.11316    1.000
    H1       H        0.45040    0.82070    0.08980    1.000
    C6       C        0.52530    0.67930    0.11572    1.000
    H2       H        0.54290    0.64210    0.09400    1.000
    C7       C        0.49780    0.73140    0.07989    1.000
    H3       H        0.49790    0.73020    0.03340    1.000
    Pr2      Pr       0.98796    0.25592    0.84638    1.000
    O5       O        0.94937    0.35825    0.79195    1.000
    O6       O        0.91914    0.42010    0.70462    1.000
    O7       O        0.09098    0.11541    0.69987    1.000
    O8       O        0.03844    0.16166    0.78616    1.000
    N2       N        0.99940    0.26419    0.71688    1.000
    C8       C        0.05437    0.15870    0.72543    1.000
    C9       C        0.94503    0.36938    0.72963    1.000
    C10      C        0.02709    0.21440    0.68191    1.000
    C11      C        0.97405    0.31635    0.68435    1.000
    C12      C        0.02990    0.21440    0.61316    1.000
    H4       H        0.04960    0.17930    0.58980    1.000
    C13      C        0.97470    0.32070    0.61572    1.000
    H5       H        0.95710    0.35790    0.59400    1.000
    C14      C        0.00220    0.26860    0.57989    1.000
    H6       H        0.00210    0.26980    0.53340    1.000
    Pr3      Pr       0.48796    0.24408    0.15362    1.000
    O9       O        0.44937    0.14175    0.20805    1.000
    O10      O        0.41914    0.07990    0.29538    1.000
    O11      O        0.59098    0.38459    0.30013    1.000
    O12      O        0.53844    0.33834    0.21384    1.000
    N3       N        0.49940    0.23581    0.28312    1.000
    C15      C        0.55437    0.34130    0.27457    1.000
    C16      C        0.44503    0.13062    0.27037    1.000
    C17      C        0.52709    0.28560    0.31809    1.000
    C18      C        0.47405    0.18365    0.31565    1.000
    C19      C        0.52990    0.28560    0.38684    1.000
    H7       H        0.54960    0.32070    0.41020    1.000
    C20      C        0.47470    0.17930    0.38428    1.000
    H8       H        0.45710    0.14210    0.40600    1.000
    C21      C        0.50220    0.23140    0.42011    1.000
    H9       H        0.50210    0.23020    0.46660    1.000
    Pr4      Pr       0.01204    0.75592    0.65362    1.000
    O13      O        0.05063    0.85825    0.70805    1.000
    O14      O        0.08086    0.92010    0.79538    1.000
    O15      O        0.90902    0.61541    0.80013    1.000
    O16      O        0.96156    0.66166    0.71384    1.000
    N4       N        0.00060    0.76419    0.78312    1.000
    C22      C        0.94563    0.65870    0.77457    1.000
    C23      C        0.05497    0.86938    0.77037    1.000
    C24      C        0.97291    0.71440    0.81809    1.000
    C25      C        0.02595    0.81635    0.81565    1.000
    C26      C        0.97010    0.71440    0.88684    1.000
    H10      H        0.95040    0.67930    0.91020    1.000
    C27      C        0.02530    0.82070    0.88428    1.000
    H11      H        0.04290    0.85790    0.90600    1.000
    C28      C        0.99780    0.76860    0.92011    1.000
    H12      H        0.99790    0.76980    0.96660    1.000
    Pr5      Pr       0.34638    0.51204    0.74408    1.000
    O17      O        0.29195    0.55063    0.64175    1.000
    O18      O        0.20462    0.58086    0.57990    1.000
    O19      O        0.19987    0.40902    0.88459    1.000
    O20      O        0.28616    0.46156    0.83834    1.000
    N5       N        0.21688    0.50060    0.73581    1.000
    C29      C        0.22543    0.44563    0.84130    1.000
    C30      C        0.22963    0.55497    0.63062    1.000
    C31      C        0.18191    0.47291    0.78560    1.000
    C32      C        0.18435    0.52595    0.68365    1.000
    C33      C        0.11316    0.47010    0.78560    1.000
    H13      H        0.08980    0.45040    0.82070    1.000
    C34      C        0.11572    0.52530    0.67930    1.000
    H14      H        0.09400    0.54290    0.64210    1.000
    C35      C        0.07989    0.49780    0.73140    1.000
    H15      H        0.03340    0.49790    0.73020    1.000
    Pr6      Pr       0.84638    0.98796    0.25592    1.000
    O21      O        0.79195    0.94937    0.35825    1.000
    O22      O        0.70462    0.91914    0.42010    1.000
    O23      O        0.69987    0.09098    0.11541    1.000
    O24      O        0.78616    0.03844    0.16166    1.000
    N6       N        0.71688    0.99940    0.26419    1.000
    C36      C        0.72543    0.05437    0.15870    1.000
    C37      C        0.72963    0.94503    0.36938    1.000
    C38      C        0.68191    0.02709    0.21440    1.000
    C39      C        0.68435    0.97405    0.31635    1.000
    C40      C        0.61316    0.02990    0.21440    1.000
    H16      H        0.58980    0.04960    0.17930    1.000
    C41      C        0.61572    0.97470    0.32070    1.000
    H17      H        0.59400    0.95710    0.35790    1.000
    C42      C        0.57989    0.00220    0.26860    1.000
    H18      H        0.53340    0.00210    0.26980    1.000
    Pr7      Pr       0.15362    0.48796    0.24408    1.000
    O25      O        0.20805    0.44937    0.14175    1.000
    O26      O        0.29538    0.41914    0.07990    1.000
    O27      O        0.30013    0.59098    0.38459    1.000
    O28      O        0.21384    0.53844    0.33834    1.000
    N7       N        0.28312    0.49940    0.23581    1.000
    C43      C        0.27457    0.55437    0.34130    1.000
    C44      C        0.27037    0.44503    0.13062    1.000
    C45      C        0.31809    0.52709    0.28560    1.000
    C46      C        0.31565    0.47405    0.18365    1.000
    C47      C        0.38684    0.52990    0.28560    1.000
    H19      H        0.41020    0.54960    0.32070    1.000
    C48      C        0.38428    0.47470    0.17930    1.000
    H20      H        0.40600    0.45710    0.14210    1.000
    C49      C        0.42011    0.50220    0.23140    1.000
    H21      H        0.46660    0.50210    0.23020    1.000
    Pr8      Pr       0.65362    0.01204    0.75592    1.000
    O29      O        0.70805    0.05063    0.85825    1.000
    O30      O        0.79538    0.08086    0.92010    1.000
    O31      O        0.80013    0.90902    0.61541    1.000
    O32      O        0.71384    0.96156    0.66166    1.000
    N8       N        0.78312    0.00060    0.76419    1.000
    C50      C        0.77457    0.94563    0.65870    1.000
    C51      C        0.77037    0.05497    0.86938    1.000
    C52      C        0.81809    0.97291    0.71440    1.000
    C53      C        0.81565    0.02595    0.81635    1.000
    C54      C        0.88684    0.97010    0.71440    1.000
    H22      H        0.91020    0.95040    0.67930    1.000
    C55      C        0.88428    0.02530    0.82070    1.000
    H23      H        0.90600    0.04290    0.85790    1.000
    C56      C        0.92011    0.99780    0.76860    1.000
    H24      H        0.96660    0.99790    0.76980    1.000
    Pr9      Pr       0.74408    0.34638    0.51204    1.000
    O33      O        0.64175    0.29195    0.55063    1.000
    O34      O        0.57990    0.20462    0.58086    1.000
    O35      O        0.88459    0.19987    0.40902    1.000
    O36      O        0.83834    0.28616    0.46156    1.000
    N9       N        0.73581    0.21688    0.50060    1.000
    C57      C        0.84130    0.22543    0.44563    1.000
    C58      C        0.63062    0.22963    0.55497    1.000
    C59      C        0.78560    0.18191    0.47291    1.000
    C60      C        0.68365    0.18435    0.52595    1.000
    C61      C        0.78560    0.11316    0.47010    1.000
    H25      H        0.82070    0.08980    0.45040    1.000
    C62      C        0.67930    0.11572    0.52530    1.000
    H26      H        0.64210    0.09400    0.54290    1.000
    C63      C        0.73140    0.07989    0.49780    1.000
    H27      H        0.73020    0.03340    0.49790    1.000
    Pr10     Pr       0.25592    0.84638    0.98796    1.000
    O37      O        0.35825    0.79195    0.94937    1.000
    O38      O        0.42010    0.70462    0.91914    1.000
    O39      O        0.11541    0.69987    0.09098    1.000
    O40      O        0.16166    0.78616    0.03844    1.000
    N10      N        0.26419    0.71688    0.99940    1.000
    C64      C        0.15870    0.72543    0.05437    1.000
    C65      C        0.36938    0.72963    0.94503    1.000
    C66      C        0.21440    0.68191    0.02709    1.000
    C67      C        0.31635    0.68435    0.97405    1.000
    C68      C        0.21440    0.61316    0.02990    1.000
    H28      H        0.17930    0.58980    0.04960    1.000
    C69      C        0.32070    0.61572    0.97470    1.000
    H29      H        0.35790    0.59400    0.95710    1.000
    C70      C        0.26860    0.57989    0.00220    1.000
    H30      H        0.26980    0.53340    0.00210    1.000
    Pr11     Pr       0.24408    0.15362    0.48796    1.000
    O41      O        0.14175    0.20805    0.44937    1.000
    O42      O        0.07990    0.29538    0.41914    1.000
    O43      O        0.38459    0.30013    0.59098    1.000
    O44      O        0.33834    0.21384    0.53844    1.000
    N11      N        0.23581    0.28312    0.49940    1.000
    C71      C        0.34130    0.27457    0.55437    1.000
    C72      C        0.13062    0.27037    0.44503    1.000
    C73      C        0.28560    0.31809    0.52709    1.000
    C74      C        0.18365    0.31565    0.47405    1.000
    C75      C        0.28560    0.38684    0.52990    1.000
    H31      H        0.32070    0.41020    0.54960    1.000
    C76      C        0.17930    0.38428    0.47470    1.000
    H32      H        0.14210    0.40600    0.45710    1.000
    C77      C        0.23140    0.42011    0.50220    1.000
    H33      H        0.23020    0.46660    0.50210    1.000
    Pr12     Pr       0.75592    0.65362    0.01204    1.000
    O45      O        0.85825    0.70805    0.05063    1.000
    O46      O        0.92010    0.79538    0.08086    1.000
    O47      O        0.61541    0.80013    0.90902    1.000
    O48      O        0.66166    0.71384    0.96156    1.000
    N12      N        0.76419    0.78312    0.00060    1.000
    C78      C        0.65870    0.77457    0.94563    1.000
    C79      C        0.86938    0.77037    0.05497    1.000
    C80      C        0.71440    0.81809    0.97291    1.000
    C81      C        0.81635    0.81565    0.02595    1.000
    C82      C        0.71440    0.88684    0.97010    1.000
    H34      H        0.67930    0.91020    0.95040    1.000
    C83      C        0.82070    0.88428    0.02530    1.000
    H35      H        0.85790    0.90600    0.04290    1.000
    C84      C        0.76860    0.92011    0.99780    1.000
    H36      H        0.76980    0.96660    0.99790    1.000
    Pr13     Pr       0.48796    0.25592    0.65362    1.000
    O49      O        0.44937    0.35825    0.70805    1.000
    O50      O        0.41914    0.42010    0.79538    1.000
    O51      O        0.59098    0.11541    0.80013    1.000
    O52      O        0.53844    0.16166    0.71384    1.000
    N13      N        0.49940    0.26419    0.78312    1.000
    C85      C        0.55437    0.15870    0.77457    1.000
    C86      C        0.44503    0.36938    0.77037    1.000
    C87      C        0.52709    0.21440    0.81809    1.000
    C88      C        0.47405    0.31635    0.81565    1.000
    C89      C        0.52990    0.21440    0.88684    1.000
    H37      H        0.54960    0.17930    0.91020    1.000
    C90      C        0.47470    0.32070    0.88428    1.000
    H38      H        0.45710    0.35790    0.90600    1.000
    C91      C        0.50220    0.26860    0.92011    1.000
    H39      H        0.50210    0.26980    0.96660    1.000
    Pr14     Pr       0.01204    0.74408    0.15362    1.000
    O53      O        0.05063    0.64175    0.20805    1.000
    O54      O        0.08086    0.57990    0.29538    1.000
    O55      O        0.90902    0.88459    0.30013    1.000
    O56      O        0.96156    0.83834    0.21384    1.000
    N14      N        0.00060    0.73581    0.28312    1.000
    C92      C        0.94563    0.84130    0.27457    1.000
    C93      C        0.05497    0.63062    0.27037    1.000
    C94      C        0.97291    0.78560    0.31809    1.000
    C95      C        0.02595    0.68365    0.31565    1.000
    C96      C        0.97010    0.78560    0.38684    1.000
    H40      H        0.95040    0.82070    0.41020    1.000
    C97      C        0.02530    0.67930    0.38428    1.000
    H41      H        0.04290    0.64210    0.40600    1.000
    C98      C        0.99780    0.73140    0.42011    1.000
    H42      H        0.99790    0.73020    0.46660    1.000
    Pr15     Pr       0.51204    0.75592    0.84638    1.000
    O57      O        0.55063    0.85825    0.79195    1.000
    O58      O        0.58086    0.92010    0.70462    1.000
    O59      O        0.40902    0.61541    0.69987    1.000
    O60      O        0.46156    0.66166    0.78616    1.000
    N15      N        0.50060    0.76419    0.71688    1.000
    C99      C        0.44563    0.65870    0.72543    1.000
    C100     C        0.55497    0.86938    0.72963    1.000
    C101     C        0.47291    0.71440    0.68191    1.000
    C102     C        0.52595    0.81635    0.68435    1.000
    C103     C        0.47010    0.71440    0.61316    1.000
    H43      H        0.45040    0.67930    0.58980    1.000
    C104     C        0.52530    0.82070    0.61572    1.000
    H44      H        0.54290    0.85790    0.59400    1.000
    C105     C        0.49780    0.76860    0.57989    1.000
    H45      H        0.49790    0.76980    0.53340    1.000
    Pr16     Pr       0.98796    0.24408    0.34638    1.000
    O61      O        0.94937    0.14175    0.29195    1.000
    O62      O        0.91914    0.07990    0.20462    1.000
    O63      O        0.09098    0.38459    0.19987    1.000
    O64      O        0.03844    0.33834    0.28616    1.000
    N16      N        0.99940    0.23581    0.21688    1.000
    C106     C        0.05437    0.34130    0.22543    1.000
    C107     C        0.94503    0.13062    0.22963    1.000
    C108     C        0.02709    0.28560    0.18191    1.000
    C109     C        0.97405    0.18365    0.18435    1.000
    C110     C        0.02990    0.28560    0.11316    1.000
    H46      H        0.04960    0.32070    0.08980    1.000
    C111     C        0.97470    0.17930    0.11572    1.000
    H47      H        0.95710    0.14210    0.09400    1.000
    C112     C        0.00220    0.23140    0.07989    1.000
    H48      H        0.00210    0.23020    0.03340    1.000
    Pr17     Pr       0.65362    0.48796    0.25592    1.000
    O65      O        0.70805    0.44937    0.35825    1.000
    O66      O        0.79538    0.41914    0.42010    1.000
    O67      O        0.80013    0.59098    0.11541    1.000
    O68      O        0.71384    0.53844    0.16166    1.000
    N17      N        0.78312    0.49940    0.26419    1.000
    C113     C        0.77457    0.55437    0.15870    1.000
    C114     C        0.77037    0.44503    0.36938    1.000
    C115     C        0.81809    0.52709    0.21440    1.000
    C116     C        0.81565    0.47405    0.31635    1.000
    C117     C        0.88684    0.52990    0.21440    1.000
    H49      H        0.91020    0.54960    0.17930    1.000
    C118     C        0.88428    0.47470    0.32070    1.000
    H50      H        0.90600    0.45710    0.35790    1.000
    C119     C        0.92011    0.50220    0.26860    1.000
    H51      H        0.96660    0.50210    0.26980    1.000
    Pr18     Pr       0.15362    0.01204    0.74408    1.000
    O69      O        0.20805    0.05063    0.64175    1.000
    O70      O        0.29538    0.08086    0.57990    1.000
    O71      O        0.30013    0.90902    0.88459    1.000
    O72      O        0.21384    0.96156    0.83834    1.000
    N18      N        0.28312    0.00060    0.73581    1.000
    C120     C        0.27457    0.94563    0.84130    1.000
    C121     C        0.27037    0.05497    0.63062    1.000
    C122     C        0.31809    0.97291    0.78560    1.000
    C123     C        0.31565    0.02595    0.68365    1.000
    C124     C        0.38684    0.97010    0.78560    1.000
    H52      H        0.41020    0.95040    0.82070    1.000
    C125     C        0.38428    0.02530    0.67930    1.000
    H53      H        0.40600    0.04290    0.64210    1.000
    C126     C        0.42011    0.99780    0.73140    1.000
    H54      H        0.46660    0.99790    0.73020    1.000
    Pr19     Pr       0.84638    0.51204    0.75592    1.000
    O73      O        0.79195    0.55063    0.85825    1.000
    O74      O        0.70462    0.58086    0.92010    1.000
    O75      O        0.69987    0.40902    0.61541    1.000
    O76      O        0.78616    0.46156    0.66166    1.000
    N19      N        0.71688    0.50060    0.76419    1.000
    C127     C        0.72543    0.44563    0.65870    1.000
    C128     C        0.72963    0.55497    0.86938    1.000
    C129     C        0.68191    0.47291    0.71440    1.000
    C130     C        0.68435    0.52595    0.81635    1.000
    C131     C        0.61316    0.47010    0.71440    1.000
    H55      H        0.58980    0.45040    0.67930    1.000
    C132     C        0.61572    0.52530    0.82070    1.000
    H56      H        0.59400    0.54290    0.85790    1.000
    C133     C        0.57989    0.49780    0.76860    1.000
    H57      H        0.53340    0.49790    0.76980    1.000
    Pr20     Pr       0.34638    0.98796    0.24408    1.000
    O77      O        0.29195    0.94937    0.14175    1.000
    O78      O        0.20462    0.91914    0.07990    1.000
    O79      O        0.19987    0.09098    0.38459    1.000
    O80      O        0.28616    0.03844    0.33834    1.000
    N20      N        0.21688    0.99940    0.23581    1.000
    C134     C        0.22543    0.05437    0.34130    1.000
    C135     C        0.22963    0.94503    0.13062    1.000
    C136     C        0.18191    0.02709    0.28560    1.000
    C137     C        0.18435    0.97405    0.18365    1.000
    C138     C        0.11316    0.02990    0.28560    1.000
    H58      H        0.08980    0.04960    0.32070    1.000
    C139     C        0.11572    0.97470    0.17930    1.000
    H59      H        0.09400    0.95710    0.14210    1.000
    C140     C        0.07989    0.00220    0.23140    1.000
    H60      H        0.03340    0.00210    0.23020    1.000
    Pr21     Pr       0.25592    0.65362    0.48796    1.000
    O81      O        0.35825    0.70805    0.44937    1.000
    O82      O        0.42010    0.79538    0.41914    1.000
    O83      O        0.11541    0.80013    0.59098    1.000
    O84      O        0.16166    0.71384    0.53844    1.000
    N21      N        0.26419    0.78312    0.49940    1.000
    C141     C        0.15870    0.77457    0.55437    1.000
    C142     C        0.36938    0.77037    0.44503    1.000
    C143     C        0.21440    0.81809    0.52709    1.000
    C144     C        0.31635    0.81565    0.47405    1.000
    C145     C        0.21440    0.88684    0.52990    1.000
    H61      H        0.17930    0.91020    0.54960    1.000
    C146     C        0.32070    0.88428    0.47470    1.000
    H62      H        0.35790    0.90600    0.45710    1.000
    C147     C        0.26860    0.92011    0.50220    1.000
    H63      H        0.26980    0.96660    0.50210    1.000
    Pr22     Pr       0.74408    0.15362    0.01204    1.000
    O85      O        0.64175    0.20805    0.05063    1.000
    O86      O        0.57990    0.29538    0.08086    1.000
    O87      O        0.88459    0.30013    0.90902    1.000
    O88      O        0.83834    0.21384    0.96156    1.000
    N22      N        0.73581    0.28312    0.00060    1.000
    C148     C        0.84130    0.27457    0.94563    1.000
    C149     C        0.63062    0.27037    0.05497    1.000
    C150     C        0.78560    0.31809    0.97291    1.000
    C151     C        0.68365    0.31565    0.02595    1.000
    C152     C        0.78560    0.38684    0.97010    1.000
    H64      H        0.82070    0.41020    0.95040    1.000
    C153     C        0.67930    0.38428    0.02530    1.000
    H65      H        0.64210    0.40600    0.04290    1.000
    C154     C        0.73140    0.42011    0.99780    1.000
    H66      H        0.73020    0.46660    0.99790    1.000
    Pr23     Pr       0.75592    0.84638    0.51204    1.000
    O89      O        0.85825    0.79195    0.55063    1.000
    O90      O        0.92010    0.70462    0.58086    1.000
    O91      O        0.61541    0.69987    0.40902    1.000
    O92      O        0.66166    0.78616    0.46156    1.000
    N23      N        0.76419    0.71688    0.50060    1.000
    C155     C        0.65870    0.72543    0.44563    1.000
    C156     C        0.86938    0.72963    0.55497    1.000
    C157     C        0.71440    0.68191    0.47291    1.000
    C158     C        0.81635    0.68435    0.52595    1.000
    C159     C        0.71440    0.61316    0.47010    1.000
    H67      H        0.67930    0.58980    0.45040    1.000
    C160     C        0.82070    0.61572    0.52530    1.000
    H68      H        0.85790    0.59400    0.54290    1.000
    C161     C        0.76860    0.57989    0.49780    1.000
    H69      H        0.76980    0.53340    0.49790    1.000
    Pr24     Pr       0.24408    0.34638    0.98796    1.000
    O93      O        0.14175    0.29195    0.94937    1.000
    O94      O        0.07990    0.20462    0.91914    1.000
    O95      O        0.38459    0.19987    0.09098    1.000
    O96      O        0.33834    0.28616    0.03844    1.000
    N24      N        0.23581    0.21688    0.99940    1.000
    C162     C        0.34130    0.22543    0.05437    1.000
    C163     C        0.13062    0.22963    0.94503    1.000
    C164     C        0.28560    0.18191    0.02709    1.000
    C165     C        0.18365    0.18435    0.97405    1.000
    C166     C        0.28560    0.11316    0.02990    1.000
    H70      H        0.32070    0.08980    0.04960    1.000
    C167     C        0.17930    0.11572    0.97470    1.000
    H71      H        0.14210    0.09400    0.95710    1.000
    C168     C        0.23140    0.07989    0.00220    1.000
    H72      H        0.23020    0.03340    0.00210    1.000
