data_functionalizedCrystal
_audit_creation_method	'EQeq! by Chris Wilmer'
_symmetry_space_group_name_H-M	'P1'
_symmetry_Int_Tables_number	1
_symmetry_cell_setting	triclinic
loop_
_symmetry_equiv_pos_as_xyz
  x,y,z
_cell_length_a	16.046
_cell_length_b	18.334
_cell_length_c	23.706
_cell_angle_alpha	90
_cell_angle_beta	90
_cell_angle_gamma	90
loop_
_atom_site_label
_atom_site_type_symbol
_atom_site_fract_x
_atom_site_fract_y
_atom_site_fract_z
_atom_site_charge
Mof_Mn	Mn	0.1854	0.823	0.5981	0.881
Mof_Mn	Mn	0.9987	0.7051	0.581	0.834
Mof_Mn	Mn	0.8146	0.677	0.0981	0.881
Mof_Mn	Mn	0.0013	0.7949	0.081	0.832
Mof_Mn	Mn	0.6854	0.177	0.9019	0.882
Mof_Mn	Mn	0.4987	0.2949	0.919	0.836
Mof_Mn	Mn	0.3146	0.323	0.4019	0.882
Mof_Mn	Mn	0.5013	0.2051	0.419	0.836
Mof_Mn	Mn	0.8146	0.177	0.4019	0.882
Mof_Mn	Mn	0.0013	0.2949	0.419	0.836
Mof_Mn	Mn	0.1854	0.323	0.9019	0.883
Mof_Mn	Mn	0.9987	0.2051	0.919	0.832
Mof_Mn	Mn	0.3146	0.823	0.0981	0.882
Mof_Mn	Mn	0.5013	0.7051	0.081	0.836
Mof_Mn	Mn	0.6854	0.677	0.5981	0.882
Mof_Mn	Mn	0.4987	0.7949	0.581	0.836
Mof_C 	C 	0.9603	0.747	0.7623	-0.003
Mof_C 	C 	0.0351	0.7785	0.7497	-0.102
Mof_C 	C 	0.0895	0.7996	0.7932	0.017
Mof_C 	C 	0.0678	0.7889	0.8483	-0.053
Mof_C 	C 	0.9676	0.7434	0.9192	-0.003
Mof_C 	C 	0.8928	0.7132	0.9327	-0.103
Mof_C 	C 	0.8377	0.6925	0.8891	0.018
Mof_C 	C 	0.8594	0.7022	0.8339	-0.056
Mof_C 	C 	0.9361	0.7349	0.819	0.011
Mof_C 	C 	0.9914	0.7559	0.8628	0.002
Mof_C 	C 	0.061	0.7887	0.689	0.373
Mof_C 	C 	0.8695	0.7012	0.9932	0.334
Mof_C 	C 	0.1442	0.5662	0.6901	0.014
Mof_C 	C 	0.2083	0.6089	0.6663	-0.097
Mof_C 	C 	0.2885	0.6002	0.684	-0.004
Mof_C 	C 	0.3915	0.5355	0.7446	-0.06
Mof_C 	C 	0.4086	0.4845	0.7846	0.024
Mof_C 	C 	0.3443	0.4417	0.8084	-0.115
Mof_C 	C 	0.2647	0.4509	0.7897	0.003
Mof_C 	C 	0.1623	0.5145	0.7297	-0.053
Mof_C 	C 	0.3094	0.5467	0.7249	0.012
Mof_C 	C 	0.2449	0.5028	0.7478	0.002
Mof_C 	C 	0.1843	0.6624	0.6211	0.366
Mof_C 	C 	0.3634	0.3888	0.8556	0.385
Mof_C 	C 	0.0397	0.753	0.2623	-0.004
Mof_C 	C 	0.9649	0.7215	0.2497	-0.101
Mof_C 	C 	0.9105	0.7004	0.2932	0.017
Mof_C 	C 	0.9322	0.7111	0.3483	-0.054
Mof_C 	C 	0.0324	0.7566	0.4192	0.001
Mof_C 	C 	0.1072	0.7868	0.4327	-0.106
Mof_C 	C 	0.1623	0.8075	0.3891	0.019
Mof_C 	C 	0.1406	0.7978	0.3339	-0.057
Mof_C 	C 	0.0639	0.7651	0.319	0.011
Mof_C 	C 	0.0086	0.7441	0.3628	0.002
Mof_C 	C 	0.939	0.7113	0.189	0.372
Mof_C 	C 	0.1305	0.7988	0.4932	0.341
Mof_C 	C 	0.8558	0.9338	0.1901	0.014
Mof_C 	C 	0.7917	0.8911	0.1663	-0.096
Mof_C 	C 	0.7115	0.8998	0.184	-0.004
Mof_C 	C 	0.6085	0.9645	0.2446	-0.059
Mof_C 	C 	0.5914	0.0155	0.2846	0.023
Mof_C 	C 	0.6557	0.0583	0.3084	-0.115
Mof_C 	C 	0.7353	0.0491	0.2897	0.001
Mof_C 	C 	0.8377	0.9855	0.2297	-0.052
Mof_C 	C 	0.6906	0.9533	0.2249	0.012
Mof_C 	C 	0.7551	0.9972	0.2478	0.003
Mof_C 	C 	0.8157	0.8376	0.1211	0.365
Mof_C 	C 	0.6366	0.1112	0.3556	0.384
Mof_C 	C 	0.4603	0.253	0.7377	-0.001
Mof_C 	C 	0.5351	0.2215	0.7503	-0.104
Mof_C 	C 	0.5895	0.2004	0.7068	0.018
Mof_C 	C 	0.5678	0.2111	0.6517	-0.056
Mof_C 	C 	0.4676	0.2566	0.5808	0.001
Mof_C 	C 	0.3928	0.2868	0.5673	-0.105
Mof_C 	C 	0.3377	0.3075	0.6109	0.019
Mof_C 	C 	0.3594	0.2978	0.6661	-0.056
Mof_C 	C 	0.4361	0.2651	0.681	0.01
Mof_C 	C 	0.4914	0.2441	0.6372	0.003
Mof_C 	C 	0.561	0.2113	0.811	0.373
Mof_C 	C 	0.3695	0.2988	0.5068	0.341
Mof_C 	C 	0.6442	0.4338	0.8099	0.014
Mof_C 	C 	0.7083	0.3911	0.8337	-0.096
Mof_C 	C 	0.7885	0.3998	0.816	-0.004
Mof_C 	C 	0.8915	0.4645	0.7554	-0.06
Mof_C 	C 	0.9086	0.5155	0.7154	0.024
Mof_C 	C 	0.8443	0.5583	0.6916	-0.115
Mof_C 	C 	0.7647	0.5491	0.7103	0.003
Mof_C 	C 	0.6623	0.4855	0.7703	-0.053
Mof_C 	C 	0.8094	0.4533	0.7751	0.012
Mof_C 	C 	0.7449	0.4972	0.7522	0.002
Mof_C 	C 	0.6843	0.3376	0.8789	0.365
Mof_C 	C 	0.8634	0.6112	0.6444	0.385
Mof_C 	C 	0.5397	0.247	0.2377	-0.001
Mof_C 	C 	0.4649	0.2785	0.2503	-0.104
Mof_C 	C 	0.4105	0.2996	0.2068	0.018
Mof_C 	C 	0.4322	0.2889	0.1517	-0.056
Mof_C 	C 	0.5324	0.2434	0.0808	0.001
Mof_C 	C 	0.6072	0.2132	0.0673	-0.105
Mof_C 	C 	0.6623	0.1925	0.1109	0.019
Mof_C 	C 	0.6406	0.2022	0.1661	-0.056
Mof_C 	C 	0.5639	0.2349	0.181	0.01
Mof_C 	C 	0.5086	0.2559	0.1372	0.003
Mof_C 	C 	0.439	0.2887	0.311	0.373
Mof_C 	C 	0.6305	0.2012	0.0068	0.341
Mof_C 	C 	0.3558	0.0662	0.3099	0.014
Mof_C 	C 	0.2917	0.1089	0.3337	-0.097
Mof_C 	C 	0.2115	0.1002	0.316	-0.004
Mof_C 	C 	0.1085	0.0355	0.2554	-0.06
Mof_C 	C 	0.0914	0.9845	0.2154	0.025
Mof_C 	C 	0.1557	0.9417	0.1916	-0.116
Mof_C 	C 	0.2353	0.9509	0.2103	0.003
Mof_C 	C 	0.3377	0.0145	0.2703	-0.053
Mof_C 	C 	0.1906	0.0467	0.2751	0.012
Mof_C 	C 	0.2551	0.0028	0.2522	0.002
Mof_C 	C 	0.3157	0.1624	0.3789	0.366
Mof_C 	C 	0.1366	0.8888	0.1444	0.385
Mof_C 	C 	0.0397	0.253	0.2377	-0.003
Mof_C 	C 	0.9649	0.2215	0.2503	-0.102
Mof_C 	C 	0.9105	0.2004	0.2068	0.017
Mof_C 	C 	0.9322	0.2111	0.1517	-0.054
Mof_C 	C 	0.0324	0.2566	0.0808	-0.003
Mof_C 	C 	0.1072	0.2868	0.0673	-0.103
Mof_C 	C 	0.1623	0.3075	0.1109	0.018
Mof_C 	C 	0.1406	0.2978	0.1661	-0.056
Mof_C 	C 	0.0639	0.2651	0.181	0.01
Mof_C 	C 	0.0086	0.2441	0.1372	0.003
Mof_C 	C 	0.939	0.2113	0.311	0.373
Mof_C 	C 	0.1305	0.2988	0.0068	0.334
Mof_C 	C 	0.8558	0.4338	0.3099	0.014
Mof_C 	C 	0.7917	0.3911	0.3337	-0.097
Mof_C 	C 	0.7115	0.3998	0.316	-0.004
Mof_C 	C 	0.6085	0.4645	0.2554	-0.06
Mof_C 	C 	0.5914	0.5155	0.2154	0.024
Mof_C 	C 	0.6557	0.5583	0.1916	-0.115
Mof_C 	C 	0.7353	0.5491	0.2103	0.003
Mof_C 	C 	0.8377	0.4855	0.2703	-0.053
Mof_C 	C 	0.6906	0.4533	0.2751	0.012
Mof_C 	C 	0.7551	0.4972	0.2522	0.002
Mof_C 	C 	0.8157	0.3376	0.3789	0.366
Mof_C 	C 	0.6366	0.6112	0.1444	0.385
Mof_C 	C 	0.9603	0.247	0.7377	0.038
Mof_C 	C 	0.0351	0.2785	0.7503	-0.118
Mof_C 	C 	0.0895	0.2996	0.7068	0.025
Mof_C 	C 	0.0678	0.2889	0.6517	-0.06
Mof_C 	C 	0.9676	0.2434	0.5808	-0.004
Mof_C 	C 	0.8928	0.2132	0.5673	-0.102
Mof_C 	C 	0.8377	0.1925	0.6109	0.015
Mof_C 	C 	0.8594	0.2022	0.6661	-0.048
Mof_C 	C 	0.9361	0.2349	0.681	-0.005
Mof_C 	C 	0.9914	0.2559	0.6372	0.01
Mof_C 	C 	0.061	0.2887	0.811	0.379
Mof_C 	C 	0.8695	0.2012	0.5068	0.34
Mof_C 	C 	0.1442	0.0662	0.8099	0.014
Mof_C 	C 	0.2083	0.1089	0.8337	-0.096
Mof_C 	C 	0.2885	0.1002	0.816	-0.004
Mof_C 	C 	0.3915	0.0355	0.7554	-0.059
Mof_C 	C 	0.4086	0.9845	0.7154	0.023
Mof_C 	C 	0.3443	0.9417	0.6916	-0.115
Mof_C 	C 	0.2647	0.9509	0.7103	0.001
Mof_C 	C 	0.1623	0.0145	0.7703	-0.052
Mof_C 	C 	0.3094	0.0467	0.7751	0.012
Mof_C 	C 	0.2449	0.0028	0.7522	0.003
Mof_C 	C 	0.1843	0.1624	0.8789	0.365
Mof_C 	C 	0.3634	0.8888	0.6444	0.384
Mof_C 	C 	0.5397	0.747	0.2623	-0.001
Mof_C 	C 	0.4649	0.7785	0.2497	-0.104
Mof_C 	C 	0.4105	0.7996	0.2932	0.018
Mof_C 	C 	0.4322	0.7889	0.3483	-0.056
Mof_C 	C 	0.5324	0.7434	0.4192	0.001
Mof_C 	C 	0.6072	0.7132	0.4327	-0.105
Mof_C 	C 	0.6623	0.6925	0.3891	0.019
Mof_C 	C 	0.6406	0.7022	0.3339	-0.056
Mof_C 	C 	0.5639	0.7349	0.319	0.01
Mof_C 	C 	0.5086	0.7559	0.3628	0.003
Mof_C 	C 	0.439	0.7887	0.189	0.373
Mof_C 	C 	0.6305	0.7012	0.4932	0.341
Mof_C 	C 	0.3558	0.5662	0.1901	0.014
Mof_C 	C 	0.2917	0.6089	0.1663	-0.097
Mof_C 	C 	0.2115	0.6002	0.184	-0.004
Mof_C 	C 	0.1085	0.5355	0.2446	-0.06
Mof_C 	C 	0.0914	0.4845	0.2846	0.024
Mof_C 	C 	0.1557	0.4417	0.3084	-0.115
Mof_C 	C 	0.2353	0.4509	0.2897	0.003
Mof_C 	C 	0.3377	0.5145	0.2297	-0.053
Mof_C 	C 	0.1906	0.5467	0.2249	0.012
Mof_C 	C 	0.2551	0.5028	0.2478	0.002
Mof_C 	C 	0.3157	0.6624	0.1211	0.366
Mof_C 	C 	0.1366	0.3888	0.3556	0.385
Mof_C 	C 	0.4603	0.753	0.7623	-0.001
Mof_C 	C 	0.5351	0.7215	0.7497	-0.104
Mof_C 	C 	0.5895	0.7004	0.7932	0.018
Mof_C 	C 	0.5678	0.7111	0.8483	-0.056
Mof_C 	C 	0.4676	0.7566	0.9192	0.001
Mof_C 	C 	0.3928	0.7868	0.9327	-0.105
Mof_C 	C 	0.3377	0.8075	0.8891	0.019
Mof_C 	C 	0.3594	0.7978	0.8339	-0.056
Mof_C 	C 	0.4361	0.7651	0.819	0.01
Mof_C 	C 	0.4914	0.7441	0.8628	0.003
Mof_C 	C 	0.561	0.7113	0.689	0.373
Mof_C 	C 	0.3695	0.7988	0.9932	0.341
Mof_C 	C 	0.6442	0.9338	0.6901	0.014
Mof_C 	C 	0.7083	0.8911	0.6663	-0.097
Mof_C 	C 	0.7885	0.8998	0.684	-0.004
Mof_C 	C 	0.8915	0.9645	0.7446	-0.06
Mof_C 	C 	0.9086	0.0155	0.7846	0.025
Mof_C 	C 	0.8443	0.0583	0.8084	-0.115
Mof_C 	C 	0.7647	0.0491	0.7897	0.003
Mof_C 	C 	0.6623	0.9855	0.7297	-0.053
Mof_C 	C 	0.8094	0.9533	0.7249	0.012
Mof_C 	C 	0.7449	0.9972	0.7478	0.002
Mof_C 	C 	0.6843	0.8376	0.6211	0.366
Mof_C 	C 	0.8634	0.1112	0.8556	0.386
Mof_O 	O 	0.0073	0.7764	0.6516	-0.389
Mof_O 	O 	0.1339	0.8093	0.6798	-0.392
Mof_O 	O 	0.234	0.7126	0.6076	-0.356
Mof_O 	O 	0.1144	0.6526	0.5989	-0.375
Mof_O 	O 	0.7999	0.6742	0.0051	-0.352
Mof_O 	O 	0.9209	0.7181	0.0315	-0.411
Mof_O 	O 	0.4385	0.3753	0.8653	-0.372
Mof_O 	O 	0.3039	0.363	0.8834	-0.401
Mof_O 	O 	0.9927	0.7236	0.1516	-0.388
Mof_O 	O 	0.8661	0.6907	0.1798	-0.392
Mof_O 	O 	0.766	0.7874	0.1076	-0.356
Mof_O 	O 	0.8856	0.8474	0.0989	-0.374
Mof_O 	O 	0.2001	0.8258	0.5051	-0.355
Mof_O 	O 	0.0791	0.7819	0.5315	-0.415
Mof_O 	O 	0.5615	0.1247	0.3653	-0.372
Mof_O 	O 	0.6961	0.137	0.3834	-0.401
Mof_O 	O 	0.5073	0.2236	0.8484	-0.39
Mof_O 	O 	0.6339	0.1907	0.8202	-0.392
Mof_O 	O 	0.734	0.2874	0.8924	-0.356
Mof_O 	O 	0.6144	0.3474	0.9011	-0.375
Mof_O 	O 	0.2999	0.3258	0.4949	-0.355
Mof_O 	O 	0.4209	0.2819	0.4685	-0.415
Mof_O 	O 	0.9385	0.6247	0.6347	-0.372
Mof_O 	O 	0.8039	0.637	0.6166	-0.401
Mof_O 	O 	0.4927	0.2764	0.3484	-0.39
Mof_O 	O 	0.3661	0.3093	0.3202	-0.392
Mof_O 	O 	0.266	0.2126	0.3924	-0.356
Mof_O 	O 	0.3856	0.1526	0.4011	-0.375
Mof_O 	O 	0.7001	0.1742	0.9949	-0.356
Mof_O 	O 	0.5791	0.2181	0.9685	-0.415
Mof_O 	O 	0.0615	0.8753	0.1347	-0.373
Mof_O 	O 	0.1961	0.863	0.1166	-0.401
Mof_O 	O 	0.9927	0.2236	0.3484	-0.389
Mof_O 	O 	0.8661	0.1907	0.3202	-0.392
Mof_O 	O 	0.766	0.2874	0.3924	-0.356
Mof_O 	O 	0.8856	0.3474	0.4011	-0.375
Mof_O 	O 	0.2001	0.3258	0.9949	-0.352
Mof_O 	O 	0.0791	0.2819	0.9685	-0.411
Mof_O 	O 	0.5615	0.6247	0.1347	-0.372
Mof_O 	O 	0.6961	0.637	0.1166	-0.401
Mof_O 	O 	0.0073	0.2764	0.8484	-0.386
Mof_O 	O 	0.1339	0.3093	0.8202	-0.393
Mof_O 	O 	0.234	0.2126	0.8924	-0.356
Mof_O 	O 	0.1144	0.1526	0.9011	-0.373
Mof_O 	O 	0.7999	0.1742	0.4949	-0.355
Mof_O 	O 	0.9209	0.2181	0.4685	-0.415
Mof_O 	O 	0.4385	0.8753	0.6347	-0.372
Mof_O 	O 	0.3039	0.863	0.6166	-0.401
Mof_O 	O 	0.4927	0.7764	0.1516	-0.39
Mof_O 	O 	0.3661	0.8093	0.1798	-0.392
Mof_O 	O 	0.266	0.7126	0.1076	-0.357
Mof_O 	O 	0.3856	0.6526	0.0989	-0.375
Mof_O 	O 	0.7001	0.6742	0.5051	-0.355
Mof_O 	O 	0.5791	0.7181	0.5315	-0.415
Mof_O 	O 	0.0615	0.3753	0.3653	-0.372
Mof_O 	O 	0.1961	0.363	0.3834	-0.401
Mof_O 	O 	0.5073	0.7236	0.6516	-0.39
Mof_O 	O 	0.6339	0.6907	0.6798	-0.392
Mof_O 	O 	0.734	0.7874	0.6076	-0.356
Mof_O 	O 	0.6144	0.8474	0.5989	-0.375
Mof_O 	O 	0.2999	0.8258	0.0051	-0.356
Mof_O 	O 	0.4209	0.7819	0.0315	-0.415
Mof_O 	O 	0.9385	0.1247	0.8653	-0.371
Mof_O 	O 	0.8039	0.137	0.8834	-0.4
Mof_H 	H 	0.91625	0.73	0.72694	0.042
Mof_H 	H 	0.15201	0.82576	0.78256	0.034
Mof_H 	H 	0.11177	0.80676	0.88345	0.038
Mof_H 	H 	0.01312	0.75939	0.95399	0.013
Mof_H 	H 	0.77462	0.66751	0.89987	0.033
Mof_H 	H 	0.81537	0.68381	0.79894	0.044
Mof_H 	H 	0.07685	0.57476	0.67629	0.041
Mof_H 	H 	0.33993	0.63617	0.66592	0.042
Mof_H 	H 	0.44391	0.57019	0.72631	0.043
Mof_H 	H 	0.47549	0.47582	0.79936	0.03
Mof_H 	H 	0.21222	0.41625	0.80794	0.024
Mof_H 	H 	0.11023	0.48002	0.74865	0.038
Mof_H 	H 	0.08375	0.77	0.22694	0.042
Mof_H 	H 	0.84799	0.67424	0.28256	0.034
Mof_H 	H 	0.88823	0.69324	0.38345	0.038
Mof_H 	H 	0.98688	0.74061	0.45399	0.011
Mof_H 	H 	0.22538	0.83249	0.39987	0.033
Mof_H 	H 	0.18463	0.81619	0.29894	0.045
Mof_H 	H 	0.92315	0.92524	0.17629	0.042
Mof_H 	H 	0.66007	0.86383	0.16592	0.042
Mof_H 	H 	0.55609	0.92981	0.22631	0.042
Mof_H 	H 	0.52451	0.02418	0.29936	0.03
Mof_H 	H 	0.78778	0.08375	0.30794	0.024
Mof_H 	H 	0.88977	0.01998	0.24865	0.037
Mof_H 	H 	0.41625	0.27	0.77306	0.042
Mof_H 	H 	0.65201	0.17424	0.71744	0.034
Mof_H 	H 	0.61177	0.19324	0.61655	0.038
Mof_H 	H 	0.51312	0.24061	0.54601	0.011
Mof_H 	H 	0.27462	0.33249	0.60013	0.034
Mof_H 	H 	0.31537	0.31619	0.70106	0.044
Mof_H 	H 	0.57685	0.42524	0.82371	0.041
Mof_H 	H 	0.83993	0.36383	0.83408	0.043
Mof_H 	H 	0.94391	0.42981	0.77369	0.042
Mof_H 	H 	0.97549	0.52418	0.70064	0.03
Mof_H 	H 	0.71222	0.58375	0.69206	0.024
Mof_H 	H 	0.61023	0.51998	0.75135	0.038
Mof_H 	H 	0.58375	0.23	0.27306	0.042
Mof_H 	H 	0.34799	0.32576	0.21744	0.034
Mof_H 	H 	0.38823	0.30676	0.11655	0.038
Mof_H 	H 	0.48688	0.25939	0.04601	0.011
Mof_H 	H 	0.72538	0.16751	0.10013	0.034
Mof_H 	H 	0.68463	0.18381	0.20106	0.044
Mof_H 	H 	0.42315	0.07476	0.32371	0.041
Mof_H 	H 	0.16007	0.13617	0.33408	0.042
Mof_H 	H 	0.05609	0.07019	0.27369	0.043
Mof_H 	H 	0.02451	0.97582	0.20064	0.03
Mof_H 	H 	0.28778	0.91625	0.19206	0.024
Mof_H 	H 	0.38977	0.98002	0.25135	0.038
Mof_H 	H 	0.08375	0.27	0.27306	0.042
Mof_H 	H 	0.84799	0.17424	0.21744	0.034
Mof_H 	H 	0.88823	0.19324	0.11655	0.038
Mof_H 	H 	0.98688	0.24061	0.04601	0.013
Mof_H 	H 	0.22538	0.33249	0.10013	0.034
Mof_H 	H 	0.18463	0.31619	0.20106	0.044
Mof_H 	H 	0.92315	0.42524	0.32371	0.041
Mof_H 	H 	0.66007	0.36383	0.33408	0.042
Mof_H 	H 	0.55609	0.42981	0.27369	0.043
Mof_H 	H 	0.52451	0.52418	0.20064	0.03
Mof_H 	H 	0.78778	0.58375	0.19206	0.024
Mof_H 	H 	0.88977	0.51998	0.25135	0.038
Mof_H 	H 	0.15201	0.32576	0.71744	0.032
Mof_H 	H 	0.11177	0.30676	0.61655	0.039
Mof_H 	H 	0.01312	0.25939	0.54601	0.012
Mof_H 	H 	0.77462	0.16751	0.60013	0.035
Mof_H 	H 	0.81537	0.18381	0.70106	0.044
Mof_H 	H 	0.07685	0.07476	0.82371	0.042
Mof_H 	H 	0.33993	0.13617	0.83408	0.042
Mof_H 	H 	0.44391	0.07019	0.77369	0.042
Mof_H 	H 	0.47549	0.97582	0.70064	0.03
Mof_H 	H 	0.21222	0.91625	0.69206	0.024
Mof_H 	H 	0.11023	0.98002	0.75135	0.037
Mof_H 	H 	0.58375	0.73	0.22694	0.042
Mof_H 	H 	0.34799	0.82576	0.28256	0.034
Mof_H 	H 	0.38823	0.80676	0.38345	0.038
Mof_H 	H 	0.48688	0.75939	0.45399	0.011
Mof_H 	H 	0.72538	0.66751	0.39987	0.034
Mof_H 	H 	0.68463	0.68381	0.29894	0.044
Mof_H 	H 	0.42315	0.57476	0.17629	0.041
Mof_H 	H 	0.16007	0.63617	0.16592	0.042
Mof_H 	H 	0.05609	0.57019	0.22631	0.042
Mof_H 	H 	0.02451	0.47582	0.29936	0.03
Mof_H 	H 	0.28778	0.41625	0.30794	0.024
Mof_H 	H 	0.38977	0.48002	0.24865	0.038
Mof_H 	H 	0.41625	0.77	0.72694	0.042
Mof_H 	H 	0.65201	0.67424	0.78256	0.033
Mof_H 	H 	0.61177	0.69324	0.88345	0.038
Mof_H 	H 	0.51312	0.74061	0.95399	0.011
Mof_H 	H 	0.27462	0.83249	0.89987	0.034
Mof_H 	H 	0.31537	0.81619	0.79894	0.044
Mof_H 	H 	0.57685	0.92524	0.67629	0.041
Mof_H 	H 	0.83993	0.86383	0.66592	0.042
Mof_H 	H 	0.94391	0.92981	0.72631	0.042
Mof_H 	H 	0.97549	0.02418	0.79936	0.03
Mof_H 	H 	0.71222	0.08375	0.80794	0.024
Mof_H 	H 	0.61023	0.01998	0.74865	0.038
_end
