# CIF file generated by openbabel 3.1.0, see https://openbabel.org
data_I
_chemical_name_common 'image0'
_cell_length_a 22.53
_cell_length_b 25.597
_cell_length_c 34.009
_cell_angle_alpha 90
_cell_angle_beta 107.439
_cell_angle_gamma 90
_space_group_name_H-M_alt 'P 1'
_space_group_name_Hall 'P 1'
loop_
    _symmetry_equiv_pos_as_xyz
    x,y,z
loop_
    _atom_site_label
    _atom_site_type_symbol
    _atom_site_fract_x
    _atom_site_fract_y
    _atom_site_fract_z
    _atom_site_occupancy
    Zn1      Zn       0.40536    0.02871    0.19975    1.000
    Zn2      Zn       0.31870    0.96324    0.12655    1.000
    Zn3      Zn       0.25955    0.02623    0.18220    1.000
    Zn4      Zn       0.30672    0.08636    0.11722    1.000
    F1       F        0.65950    0.89760    0.26994    1.000
    F2       F        0.70280    0.86570    0.22760    1.000
    F3       F        0.67290    0.81490    0.26660    1.000
    F4       F        0.57340    0.66300    0.24730    1.000
    F5       F        0.50380    0.70570    0.19270    1.000
    F6       F        0.56910    0.74700    0.25490    1.000
    F7       F        0.09840    0.74040    0.07890    1.000
    F8       F        0.16360    0.69460    0.13930    1.000
    F9       F        0.20030    0.74360    0.09780    1.000
    F10      F        0.16100    0.65900    0.25170    1.000
    F11      F        0.14940    0.73750    0.25910    1.000
    F12      F        0.19690    0.69290    0.20610    1.000
    F13      F        0.52630    0.00510    0.39710    1.000
    F14      F        0.49340    0.96930    0.43810    1.000
    F15      F        0.49590    0.06220    0.42200    1.000
    F16      F        0.37210    0.85730    0.46170    1.000
    F17      F        0.30640    0.88960    0.40490    1.000
    F18      F        0.41320    0.89570    0.42030    1.000
    O1       O        0.45770    0.96792    0.19759    1.000
    O2       O        0.39110    0.91885    0.15002    1.000
    O3       O        0.70940    0.58730    0.18250    1.000
    O4       O        0.76640    0.63449    0.15236    1.000
    O5       O        0.25230    0.91700    0.13172    1.000
    O6       O        0.20660    0.96370    0.17004    1.000
    O7       O        0.95660    0.58827    0.19690    1.000
    O8       O        0.89130    0.62350    0.14020    1.000
    O9       O        0.29550    0.01610    0.24179    1.000
    O10      O        0.39780    0.02657    0.25557    1.000
    O11      O        0.31710    0.03670    0.56988    1.000
    O12      O        0.33840    0.95230    0.57287    1.000
    O13      O        0.32586    0.02584    0.15778    1.000
    N1       N        0.28220    0.14680    0.07290    1.000
    C1       C        0.44300    0.92910    0.17520    1.000
    C2       C        0.49310    0.88890    0.17900    1.000
    C3       C        0.54910    0.89130    0.20880    1.000
    H1       H        0.55760    0.91930    0.22710    1.000
    C4       C        0.59380    0.85250    0.21230    1.000
    C5       C        0.58280    0.81030    0.18600    1.000
    C6       C        0.52490    0.80940    0.15440    1.000
    H2       H        0.51650    0.78200    0.13560    1.000
    C7       C        0.48090    0.84790    0.15060    1.000
    H3       H        0.44350    0.84660    0.12940    1.000
    C8       C        0.65480    0.85690    0.24350    1.000
    C9       C        0.62470    0.76610    0.18650    1.000
    C10      C        0.61760    0.71980    0.20570    1.000
    C11      C        0.65350    0.67670    0.19940    1.000
    H4       H        0.64930    0.64520    0.21190    1.000
    C12      C        0.69270    0.67850    0.17700    1.000
    C13      C        0.70190    0.72500    0.15990    1.000
    H5       H        0.73060    0.72790    0.14530    1.000
    C14      C        0.66650    0.76800    0.16500    1.000
    H6       H        0.67200    0.79950    0.15300    1.000
    C15      C        0.72830    0.63100    0.16970    1.000
    C16      C        0.56250    0.70970    0.22120    1.000
    C17      C        0.21700    0.92250    0.15390    1.000
    C18      C        0.17970    0.87650    0.15920    1.000
    C19      C        0.18440    0.83020    0.14030    1.000
    H7       H        0.20980    0.82840    0.12330    1.000
    C20      C        0.15320    0.78670    0.14560    1.000
    C21      C        0.11300    0.78830    0.16840    1.000
    C22      C        0.10930    0.83430    0.18960    1.000
    C23      C        0.14310    0.87710    0.18330    1.000
    H8       H        0.14000    0.90810    0.19690    1.000
    C24      C        0.15150    0.74120    0.11400    1.000
    C25      C        0.07250    0.74270    0.17050    1.000
    C26      C        0.08490    0.70400    0.19930    1.000
    C27      C        0.04440    0.66500    0.19910    1.000
    H9       H        0.05560    0.63860    0.21870    1.000
    C28      C        0.98660    0.66390    0.16990    1.000
    C29      C        0.97240    0.70130    0.14010    1.000
    H10      H        0.93460    0.69980    0.11930    1.000
    C30      C        0.01430    0.74210    0.14030    1.000
    H11      H        0.00350    0.76850    0.12060    1.000
    C31      C        0.94020    0.62200    0.16890    1.000
    C32      C        0.14680    0.70130    0.22680    1.000
    C33      C        0.34930    0.01900    0.26550    1.000
    C34      C        0.35640    0.01390    0.31050    1.000
    C35      C        0.41440    0.01710    0.34010    1.000
    H12      H        0.45020    0.02210    0.33230    1.000
    C36      C        0.41800    0.01280    0.38080    1.000
    C37      C        0.36610    0.00650    0.39410    1.000
    C38      C        0.30870    0.99850    0.36420    1.000
    H13      H        0.27400    0.98980    0.37220    1.000
    C39      C        0.30330    0.00340    0.32180    1.000
    H14      H        0.26490    0.99970    0.30190    1.000
    C40      C        0.47820    0.01130    0.41110    1.000
    C41      C        0.36330    0.00410    0.43760    1.000
    C42      C        0.36470    0.95580    0.45670    1.000
    C43      C        0.35790    0.95440    0.49600    1.000
    H15      H        0.36210    0.92270    0.50980    1.000
    C44      C        0.34510    0.99850    0.51500    1.000
    C45      C        0.34410    0.04540    0.49540    1.000
    H16      H        0.33600    0.07600    0.50760    1.000
    C46      C        0.35540    0.04720    0.45640    1.000
    C47      C        0.33320    0.99490    0.55530    1.000
    C48      C        0.36350    0.90370    0.43740    1.000
    C49      C        0.32540    0.17060    0.06080    1.000
    H17      H        0.36660    0.16050    0.07250    1.000
    C50      C        0.31230    0.21030    0.03110    1.000
    H18      H        0.34450    0.22400    0.02240    1.000
    C51      C        0.25660    0.22860    0.01550    1.000
    C52      C        0.21480    0.20420    0.02870    1.000
    H19      H        0.17330    0.21160    0.01510    1.000
    C53      C        0.22670    0.16880    0.06070    1.000
    H20      H        0.19650    0.16060    0.07330    1.000
    F19      F        0.18880    0.72740    0.23640    1.000
    F20      F        0.48720    0.02150    0.44540    1.000
    F21      F        0.35000    0.14200    0.46460    1.000
    F22      F        0.27480    0.09120    0.40460    1.000
    F23      F        0.38140    0.11420    0.42190    1.000
    C54      C        0.33440    0.09300    0.44000    1.000
    F24      F        0.06790    0.88180    0.23200    1.000
    F25      F        0.07400    0.80560    0.24490    1.000
    F26      F        0.00250    0.85170    0.18840    1.000
    C55      C        0.06360    0.83190    0.21240    1.000
    Zn5      Zn       0.90536    0.52871    0.19975    1.000
    Zn6      Zn       0.81870    0.46324    0.12655    1.000
    Zn7      Zn       0.75955    0.52623    0.18220    1.000
    Zn8      Zn       0.80672    0.58636    0.11722    1.000
    F27      F        0.15950    0.39760    0.26994    1.000
    F28      F        0.20280    0.36570    0.22760    1.000
    F29      F        0.17290    0.31490    0.26660    1.000
    F30      F        0.07340    0.16300    0.24730    1.000
    F31      F        0.00380    0.20570    0.19270    1.000
    F32      F        0.06910    0.24700    0.25490    1.000
    F33      F        0.59840    0.24040    0.07890    1.000
    F34      F        0.66360    0.19460    0.13930    1.000
    F35      F        0.70030    0.24360    0.09780    1.000
    F36      F        0.66100    0.15900    0.25170    1.000
    F37      F        0.64940    0.23750    0.25910    1.000
    F38      F        0.69690    0.19290    0.20610    1.000
    F39      F        0.02630    0.50510    0.39710    1.000
    F40      F        0.99340    0.46930    0.43810    1.000
    F41      F        0.99590    0.56220    0.42200    1.000
    F42      F        0.87210    0.35730    0.46170    1.000
    F43      F        0.80640    0.38960    0.40490    1.000
    F44      F        0.91320    0.39570    0.42030    1.000
    O14      O        0.95770    0.46792    0.19759    1.000
    O15      O        0.89110    0.41885    0.15002    1.000
    O16      O        0.20940    0.08730    0.18250    1.000
    O17      O        0.26640    0.13449    0.15236    1.000
    O18      O        0.75230    0.41700    0.13172    1.000
    O19      O        0.70660    0.46370    0.17004    1.000
    O20      O        0.45660    0.08827    0.19690    1.000
    O21      O        0.39130    0.12350    0.14020    1.000
    O22      O        0.79550    0.51610    0.24179    1.000
    O23      O        0.89780    0.52657    0.25557    1.000
    O24      O        0.81710    0.53670    0.56988    1.000
    O25      O        0.83840    0.45230    0.57287    1.000
    O26      O        0.82586    0.52584    0.15778    1.000
    N2       N        0.78220    0.64680    0.07290    1.000
    C56      C        0.94300    0.42910    0.17520    1.000
    C57      C        0.99310    0.38890    0.17900    1.000
    C58      C        0.04910    0.39130    0.20880    1.000
    H21      H        0.05760    0.41930    0.22710    1.000
    C59      C        0.09380    0.35250    0.21230    1.000
    C60      C        0.08280    0.31030    0.18600    1.000
    C61      C        0.02490    0.30940    0.15440    1.000
    H22      H        0.01650    0.28200    0.13560    1.000
    C62      C        0.98090    0.34790    0.15060    1.000
    H23      H        0.94350    0.34660    0.12940    1.000
    C63      C        0.15480    0.35690    0.24350    1.000
    C64      C        0.12470    0.26610    0.18650    1.000
    C65      C        0.11760    0.21980    0.20570    1.000
    C66      C        0.15350    0.17670    0.19940    1.000
    H24      H        0.14930    0.14520    0.21190    1.000
    C67      C        0.19270    0.17850    0.17700    1.000
    C68      C        0.20190    0.22500    0.15990    1.000
    H25      H        0.23060    0.22790    0.14530    1.000
    C69      C        0.16650    0.26800    0.16500    1.000
    H26      H        0.17200    0.29950    0.15300    1.000
    C70      C        0.22830    0.13100    0.16970    1.000
    C71      C        0.06250    0.20970    0.22120    1.000
    C72      C        0.71700    0.42250    0.15390    1.000
    C73      C        0.67970    0.37650    0.15920    1.000
    C74      C        0.68440    0.33020    0.14030    1.000
    H27      H        0.70980    0.32840    0.12330    1.000
    C75      C        0.65320    0.28670    0.14560    1.000
    C76      C        0.61300    0.28830    0.16840    1.000
    C77      C        0.60930    0.33430    0.18960    1.000
    C78      C        0.64310    0.37710    0.18330    1.000
    H28      H        0.64000    0.40810    0.19690    1.000
    C79      C        0.65150    0.24120    0.11400    1.000
    C80      C        0.57250    0.24270    0.17050    1.000
    C81      C        0.58490    0.20400    0.19930    1.000
    C82      C        0.54440    0.16500    0.19910    1.000
    H29      H        0.55560    0.13860    0.21870    1.000
    C83      C        0.48660    0.16390    0.16990    1.000
    C84      C        0.47240    0.20130    0.14010    1.000
    H30      H        0.43460    0.19980    0.11930    1.000
    C85      C        0.51430    0.24210    0.14030    1.000
    H31      H        0.50350    0.26850    0.12060    1.000
    C86      C        0.44020    0.12200    0.16890    1.000
    C87      C        0.64680    0.20130    0.22680    1.000
    C88      C        0.84930    0.51900    0.26550    1.000
    C89      C        0.85640    0.51390    0.31050    1.000
    C90      C        0.91440    0.51710    0.34010    1.000
    H32      H        0.95020    0.52210    0.33230    1.000
    C91      C        0.91800    0.51280    0.38080    1.000
    C92      C        0.86610    0.50650    0.39410    1.000
    C93      C        0.80870    0.49850    0.36420    1.000
    H33      H        0.77400    0.48980    0.37220    1.000
    C94      C        0.80330    0.50340    0.32180    1.000
    H34      H        0.76490    0.49970    0.30190    1.000
    C95      C        0.97820    0.51130    0.41110    1.000
    C96      C        0.86330    0.50410    0.43760    1.000
    C97      C        0.86470    0.45580    0.45670    1.000
    C98      C        0.85790    0.45440    0.49600    1.000
    H35      H        0.86210    0.42270    0.50980    1.000
    C99      C        0.84510    0.49850    0.51500    1.000
    C100     C        0.84410    0.54540    0.49540    1.000
    H36      H        0.83600    0.57600    0.50760    1.000
    C101     C        0.85540    0.54720    0.45640    1.000
    C102     C        0.83320    0.49490    0.55530    1.000
    C103     C        0.86350    0.40370    0.43740    1.000
    C104     C        0.82540    0.67060    0.06080    1.000
    H37      H        0.86660    0.66050    0.07250    1.000
    C105     C        0.81230    0.71030    0.03110    1.000
    H38      H        0.84450    0.72400    0.02240    1.000
    C106     C        0.75660    0.72860    0.01550    1.000
    C107     C        0.71480    0.70420    0.02870    1.000
    H39      H        0.67330    0.71160    0.01510    1.000
    C108     C        0.72670    0.66880    0.06070    1.000
    H40      H        0.69650    0.66060    0.07330    1.000
    F45      F        0.68880    0.22740    0.23640    1.000
    F46      F        0.98720    0.52150    0.44540    1.000
    F47      F        0.85000    0.64200    0.46460    1.000
    F48      F        0.77480    0.59120    0.40460    1.000
    F49      F        0.88140    0.61420    0.42190    1.000
    C109     C        0.83440    0.59300    0.44000    1.000
    F50      F        0.56790    0.38180    0.23200    1.000
    F51      F        0.57400    0.30560    0.24490    1.000
    F52      F        0.50250    0.35170    0.18840    1.000
    C110     C        0.56360    0.33190    0.21240    1.000
    Zn9      Zn       0.59464    0.02871    0.30025    1.000
    Zn10     Zn       0.68130    0.96324    0.37345    1.000
    Zn11     Zn       0.74045    0.02623    0.31780    1.000
    Zn12     Zn       0.69328    0.08636    0.38278    1.000
    F53      F        0.34050    0.89760    0.23006    1.000
    F54      F        0.29720    0.86570    0.27240    1.000
    F55      F        0.32710    0.81490    0.23340    1.000
    F56      F        0.42660    0.66300    0.25270    1.000
    F57      F        0.49620    0.70570    0.30730    1.000
    F58      F        0.43090    0.74700    0.24510    1.000
    F59      F        0.90160    0.74040    0.42110    1.000
    F60      F        0.83640    0.69460    0.36070    1.000
    F61      F        0.79970    0.74360    0.40220    1.000
    F62      F        0.83900    0.65900    0.24830    1.000
    F63      F        0.85060    0.73750    0.24090    1.000
    F64      F        0.80310    0.69290    0.29390    1.000
    F65      F        0.47370    0.00510    0.10290    1.000
    F66      F        0.50660    0.96930    0.06190    1.000
    F67      F        0.50410    0.06220    0.07800    1.000
    F68      F        0.62790    0.85730    0.03830    1.000
    F69      F        0.69360    0.88960    0.09510    1.000
    F70      F        0.58680    0.89570    0.07970    1.000
    O27      O        0.54230    0.96792    0.30241    1.000
    O28      O        0.60890    0.91885    0.34998    1.000
    O29      O        0.29060    0.58730    0.31750    1.000
    O30      O        0.23360    0.63449    0.34764    1.000
    O31      O        0.74770    0.91700    0.36828    1.000
    O32      O        0.79340    0.96370    0.32996    1.000
    O33      O        0.04340    0.58827    0.30310    1.000
    O34      O        0.10870    0.62350    0.35980    1.000
    O35      O        0.70450    0.01610    0.25821    1.000
    O36      O        0.60220    0.02657    0.24443    1.000
    O37      O        0.68290    0.03670    0.93012    1.000
    O38      O        0.66160    0.95230    0.92713    1.000
    O39      O        0.67414    0.02584    0.34222    1.000
    N3       N        0.71780    0.14680    0.42710    1.000
    C111     C        0.55700    0.92910    0.32480    1.000
    C112     C        0.50690    0.88890    0.32100    1.000
    C113     C        0.45090    0.89130    0.29120    1.000
    H41      H        0.44240    0.91930    0.27290    1.000
    C114     C        0.40620    0.85250    0.28770    1.000
    C115     C        0.41720    0.81030    0.31400    1.000
    C116     C        0.47510    0.80940    0.34560    1.000
    H42      H        0.48350    0.78200    0.36440    1.000
    C117     C        0.51910    0.84790    0.34940    1.000
    H43      H        0.55650    0.84660    0.37060    1.000
    C118     C        0.34520    0.85690    0.25650    1.000
    C119     C        0.37530    0.76610    0.31350    1.000
    C120     C        0.38240    0.71980    0.29430    1.000
    C121     C        0.34650    0.67670    0.30060    1.000
    H44      H        0.35070    0.64520    0.28810    1.000
    C122     C        0.30730    0.67850    0.32300    1.000
    C123     C        0.29810    0.72500    0.34010    1.000
    H45      H        0.26940    0.72790    0.35470    1.000
    C124     C        0.33350    0.76800    0.33500    1.000
    H46      H        0.32800    0.79950    0.34700    1.000
    C125     C        0.27170    0.63100    0.33030    1.000
    C126     C        0.43750    0.70970    0.27880    1.000
    C127     C        0.78300    0.92250    0.34610    1.000
    C128     C        0.82030    0.87650    0.34080    1.000
    C129     C        0.81560    0.83020    0.35970    1.000
    H47      H        0.79020    0.82840    0.37670    1.000
    C130     C        0.84680    0.78670    0.35440    1.000
    C131     C        0.88700    0.78830    0.33160    1.000
    C132     C        0.89070    0.83430    0.31040    1.000
    C133     C        0.85690    0.87710    0.31670    1.000
    H48      H        0.86000    0.90810    0.30310    1.000
    C134     C        0.84850    0.74120    0.38600    1.000
    C135     C        0.92750    0.74270    0.32950    1.000
    C136     C        0.91510    0.70400    0.30070    1.000
    C137     C        0.95560    0.66500    0.30090    1.000
    H49      H        0.94440    0.63860    0.28130    1.000
    C138     C        0.01340    0.66390    0.33010    1.000
    C139     C        0.02760    0.70130    0.35990    1.000
    H50      H        0.06540    0.69980    0.38070    1.000
    C140     C        0.98570    0.74210    0.35970    1.000
    H51      H        0.99650    0.76850    0.37940    1.000
    C141     C        0.05980    0.62200    0.33110    1.000
    C142     C        0.85320    0.70130    0.27320    1.000
    C143     C        0.65070    0.01900    0.23450    1.000
    C144     C        0.64360    0.01390    0.18950    1.000
    C145     C        0.58560    0.01710    0.15990    1.000
    H52      H        0.54980    0.02210    0.16770    1.000
    C146     C        0.58200    0.01280    0.11920    1.000
    C147     C        0.63390    0.00650    0.10590    1.000
    C148     C        0.69130    0.99850    0.13580    1.000
    H53      H        0.72600    0.98980    0.12780    1.000
    C149     C        0.69670    0.00340    0.17820    1.000
    H54      H        0.73510    0.99970    0.19810    1.000
    C150     C        0.52180    0.01130    0.08890    1.000
    C151     C        0.63670    0.00410    0.06240    1.000
    C152     C        0.63530    0.95580    0.04330    1.000
    C153     C        0.64210    0.95440    0.00400    1.000
    H55      H        0.63790    0.92270    0.99020    1.000
    C154     C        0.65490    0.99850    0.98500    1.000
    C155     C        0.65590    0.04540    0.00460    1.000
    H56      H        0.66400    0.07600    0.99240    1.000
    C156     C        0.64460    0.04720    0.04360    1.000
    C157     C        0.66680    0.99490    0.94470    1.000
    C158     C        0.63650    0.90370    0.06260    1.000
    C159     C        0.67460    0.17060    0.43920    1.000
    H57      H        0.63340    0.16050    0.42750    1.000
    C160     C        0.68770    0.21030    0.46890    1.000
    H58      H        0.65550    0.22400    0.47760    1.000
    C161     C        0.74340    0.22860    0.48450    1.000
    C162     C        0.78520    0.20420    0.47130    1.000
    H59      H        0.82670    0.21160    0.48490    1.000
    C163     C        0.77330    0.16880    0.43930    1.000
    H60      H        0.80350    0.16060    0.42670    1.000
    F71      F        0.81120    0.72740    0.26360    1.000
    F72      F        0.51280    0.02150    0.05460    1.000
    F73      F        0.65000    0.14200    0.03540    1.000
    F74      F        0.72520    0.09120    0.09540    1.000
    F75      F        0.61860    0.11420    0.07810    1.000
    C164     C        0.66560    0.09300    0.06000    1.000
    F76      F        0.93210    0.88180    0.26800    1.000
    F77      F        0.92600    0.80560    0.25510    1.000
    F78      F        0.99750    0.85170    0.31160    1.000
    C165     C        0.93640    0.83190    0.28760    1.000
    Zn13     Zn       0.09464    0.52871    0.30025    1.000
    Zn14     Zn       0.18130    0.46324    0.37345    1.000
    Zn15     Zn       0.24045    0.52623    0.31780    1.000
    Zn16     Zn       0.19328    0.58636    0.38278    1.000
    F79      F        0.84050    0.39760    0.23006    1.000
    F80      F        0.79720    0.36570    0.27240    1.000
    F81      F        0.82710    0.31490    0.23340    1.000
    F82      F        0.92660    0.16300    0.25270    1.000
    F83      F        0.99620    0.20570    0.30730    1.000
    F84      F        0.93090    0.24700    0.24510    1.000
    F85      F        0.40160    0.24040    0.42110    1.000
    F86      F        0.33640    0.19460    0.36070    1.000
    F87      F        0.29970    0.24360    0.40220    1.000
    F88      F        0.33900    0.15900    0.24830    1.000
    F89      F        0.35060    0.23750    0.24090    1.000
    F90      F        0.30310    0.19290    0.29390    1.000
    F91      F        0.97370    0.50510    0.10290    1.000
    F92      F        0.00660    0.46930    0.06190    1.000
    F93      F        0.00410    0.56220    0.07800    1.000
    F94      F        0.12790    0.35730    0.03830    1.000
    F95      F        0.19360    0.38960    0.09510    1.000
    F96      F        0.08680    0.39570    0.07970    1.000
    O40      O        0.04230    0.46792    0.30241    1.000
    O41      O        0.10890    0.41885    0.34998    1.000
    O42      O        0.79060    0.08730    0.31750    1.000
    O43      O        0.73360    0.13449    0.34764    1.000
    O44      O        0.24770    0.41700    0.36828    1.000
    O45      O        0.29340    0.46370    0.32996    1.000
    O46      O        0.54340    0.08827    0.30310    1.000
    O47      O        0.60870    0.12350    0.35980    1.000
    O48      O        0.20450    0.51610    0.25821    1.000
    O49      O        0.10220    0.52657    0.24443    1.000
    O50      O        0.18290    0.53670    0.93012    1.000
    O51      O        0.16160    0.45230    0.92713    1.000
    O52      O        0.17414    0.52584    0.34222    1.000
    N4       N        0.21780    0.64680    0.42710    1.000
    C166     C        0.05700    0.42910    0.32480    1.000
    C167     C        0.00690    0.38890    0.32100    1.000
    C168     C        0.95090    0.39130    0.29120    1.000
    H61      H        0.94240    0.41930    0.27290    1.000
    C169     C        0.90620    0.35250    0.28770    1.000
    C170     C        0.91720    0.31030    0.31400    1.000
    C171     C        0.97510    0.30940    0.34560    1.000
    H62      H        0.98350    0.28200    0.36440    1.000
    C172     C        0.01910    0.34790    0.34940    1.000
    H63      H        0.05650    0.34660    0.37060    1.000
    C173     C        0.84520    0.35690    0.25650    1.000
    C174     C        0.87530    0.26610    0.31350    1.000
    C175     C        0.88240    0.21980    0.29430    1.000
    C176     C        0.84650    0.17670    0.30060    1.000
    H64      H        0.85070    0.14520    0.28810    1.000
    C177     C        0.80730    0.17850    0.32300    1.000
    C178     C        0.79810    0.22500    0.34010    1.000
    H65      H        0.76940    0.22790    0.35470    1.000
    C179     C        0.83350    0.26800    0.33500    1.000
    H66      H        0.82800    0.29950    0.34700    1.000
    C180     C        0.77170    0.13100    0.33030    1.000
    C181     C        0.93750    0.20970    0.27880    1.000
    C182     C        0.28300    0.42250    0.34610    1.000
    C183     C        0.32030    0.37650    0.34080    1.000
    C184     C        0.31560    0.33020    0.35970    1.000
    H67      H        0.29020    0.32840    0.37670    1.000
    C185     C        0.34680    0.28670    0.35440    1.000
    C186     C        0.38700    0.28830    0.33160    1.000
    C187     C        0.39070    0.33430    0.31040    1.000
    C188     C        0.35690    0.37710    0.31670    1.000
    H68      H        0.36000    0.40810    0.30310    1.000
    C189     C        0.34850    0.24120    0.38600    1.000
    C190     C        0.42750    0.24270    0.32950    1.000
    C191     C        0.41510    0.20400    0.30070    1.000
    C192     C        0.45560    0.16500    0.30090    1.000
    H69      H        0.44440    0.13860    0.28130    1.000
    C193     C        0.51340    0.16390    0.33010    1.000
    C194     C        0.52760    0.20130    0.35990    1.000
    H70      H        0.56540    0.19980    0.38070    1.000
    C195     C        0.48570    0.24210    0.35970    1.000
    H71      H        0.49650    0.26850    0.37940    1.000
    C196     C        0.55980    0.12200    0.33110    1.000
    C197     C        0.35320    0.20130    0.27320    1.000
    C198     C        0.15070    0.51900    0.23450    1.000
    C199     C        0.14360    0.51390    0.18950    1.000
    C200     C        0.08560    0.51710    0.15990    1.000
    H72      H        0.04980    0.52210    0.16770    1.000
    C201     C        0.08200    0.51280    0.11920    1.000
    C202     C        0.13390    0.50650    0.10590    1.000
    C203     C        0.19130    0.49850    0.13580    1.000
    H73      H        0.22600    0.48980    0.12780    1.000
    C204     C        0.19670    0.50340    0.17820    1.000
    H74      H        0.23510    0.49970    0.19810    1.000
    C205     C        0.02180    0.51130    0.08890    1.000
    C206     C        0.13670    0.50410    0.06240    1.000
    C207     C        0.13530    0.45580    0.04330    1.000
    C208     C        0.14210    0.45440    0.00400    1.000
    H75      H        0.13790    0.42270    0.99020    1.000
    C209     C        0.15490    0.49850    0.98500    1.000
    C210     C        0.15590    0.54540    0.00460    1.000
    H76      H        0.16400    0.57600    0.99240    1.000
    C211     C        0.14460    0.54720    0.04360    1.000
    C212     C        0.16680    0.49490    0.94470    1.000
    C213     C        0.13650    0.40370    0.06260    1.000
    C214     C        0.17460    0.67060    0.43920    1.000
    H77      H        0.13340    0.66050    0.42750    1.000
    C215     C        0.18770    0.71030    0.46890    1.000
    H78      H        0.15550    0.72400    0.47760    1.000
    C216     C        0.24340    0.72860    0.48450    1.000
    C217     C        0.28520    0.70420    0.47130    1.000
    H79      H        0.32670    0.71160    0.48490    1.000
    C218     C        0.27330    0.66880    0.43930    1.000
    H80      H        0.30350    0.66060    0.42670    1.000
    F97      F        0.31120    0.22740    0.26360    1.000
    F98      F        0.01280    0.52150    0.05460    1.000
    F99      F        0.15000    0.64200    0.03540    1.000
    F100     F        0.22520    0.59120    0.09540    1.000
    F101     F        0.11860    0.61420    0.07810    1.000
    C219     C        0.16560    0.59300    0.06000    1.000
    F102     F        0.43210    0.38180    0.26800    1.000
    F103     F        0.42600    0.30560    0.25510    1.000
    F104     F        0.49750    0.35170    0.31160    1.000
    C220     C        0.43640    0.33190    0.28760    1.000
    Zn17     Zn       0.59464    0.97129    0.80025    1.000
    Zn18     Zn       0.68130    0.03676    0.87345    1.000
    Zn19     Zn       0.74045    0.97377    0.81780    1.000
    Zn20     Zn       0.69328    0.91364    0.88278    1.000
    F105     F        0.34050    0.10240    0.73006    1.000
    F106     F        0.29720    0.13430    0.77240    1.000
    F107     F        0.32710    0.18510    0.73340    1.000
    F108     F        0.42660    0.33700    0.75270    1.000
    F109     F        0.49620    0.29430    0.80730    1.000
    F110     F        0.43090    0.25300    0.74510    1.000
    F111     F        0.90160    0.25960    0.92110    1.000
    F112     F        0.83640    0.30540    0.86070    1.000
    F113     F        0.79970    0.25640    0.90220    1.000
    F114     F        0.83900    0.34100    0.74830    1.000
    F115     F        0.85060    0.26250    0.74090    1.000
    F116     F        0.80310    0.30710    0.79390    1.000
    F117     F        0.47370    0.99490    0.60290    1.000
    F118     F        0.50660    0.03070    0.56190    1.000
    F119     F        0.50410    0.93780    0.57800    1.000
    F120     F        0.62790    0.14270    0.53830    1.000
    F121     F        0.69360    0.11040    0.59510    1.000
    F122     F        0.58680    0.10430    0.57970    1.000
    O53      O        0.54230    0.03208    0.80241    1.000
    O54      O        0.60890    0.08115    0.84998    1.000
    O55      O        0.29060    0.41270    0.81750    1.000
    O56      O        0.23360    0.36551    0.84764    1.000
    O57      O        0.74770    0.08300    0.86828    1.000
    O58      O        0.79340    0.03630    0.82996    1.000
    O59      O        0.04340    0.41173    0.80310    1.000
    O60      O        0.10870    0.37650    0.85980    1.000
    O61      O        0.70450    0.98390    0.75821    1.000
    O62      O        0.60220    0.97343    0.74443    1.000
    O63      O        0.68290    0.96330    0.43012    1.000
    O64      O        0.66160    0.04770    0.42713    1.000
    O65      O        0.67414    0.97416    0.84222    1.000
    N5       N        0.71780    0.85320    0.92710    1.000
    C221     C        0.55700    0.07090    0.82480    1.000
    C222     C        0.50690    0.11110    0.82100    1.000
    C223     C        0.45090    0.10870    0.79120    1.000
    H81      H        0.44240    0.08070    0.77290    1.000
    C224     C        0.40620    0.14750    0.78770    1.000
    C225     C        0.41720    0.18970    0.81400    1.000
    C226     C        0.47510    0.19060    0.84560    1.000
    H82      H        0.48350    0.21800    0.86440    1.000
    C227     C        0.51910    0.15210    0.84940    1.000
    H83      H        0.55650    0.15340    0.87060    1.000
    C228     C        0.34520    0.14310    0.75650    1.000
    C229     C        0.37530    0.23390    0.81350    1.000
    C230     C        0.38240    0.28020    0.79430    1.000
    C231     C        0.34650    0.32330    0.80060    1.000
    H84      H        0.35070    0.35480    0.78810    1.000
    C232     C        0.30730    0.32150    0.82300    1.000
    C233     C        0.29810    0.27500    0.84010    1.000
    H85      H        0.26940    0.27210    0.85470    1.000
    C234     C        0.33350    0.23200    0.83500    1.000
    H86      H        0.32800    0.20050    0.84700    1.000
    C235     C        0.27170    0.36900    0.83030    1.000
    C236     C        0.43750    0.29030    0.77880    1.000
    C237     C        0.78300    0.07750    0.84610    1.000
    C238     C        0.82030    0.12350    0.84080    1.000
    C239     C        0.81560    0.16980    0.85970    1.000
    H87      H        0.79020    0.17160    0.87670    1.000
    C240     C        0.84680    0.21330    0.85440    1.000
    C241     C        0.88700    0.21170    0.83160    1.000
    C242     C        0.89070    0.16570    0.81040    1.000
    C243     C        0.85690    0.12290    0.81670    1.000
    H88      H        0.86000    0.09190    0.80310    1.000
    C244     C        0.84850    0.25880    0.88600    1.000
    C245     C        0.92750    0.25730    0.82950    1.000
    C246     C        0.91510    0.29600    0.80070    1.000
    C247     C        0.95560    0.33500    0.80090    1.000
    H89      H        0.94440    0.36140    0.78130    1.000
    C248     C        0.01340    0.33610    0.83010    1.000
    C249     C        0.02760    0.29870    0.85990    1.000
    H90      H        0.06540    0.30020    0.88070    1.000
    C250     C        0.98570    0.25790    0.85970    1.000
    H91      H        0.99650    0.23150    0.87940    1.000
    C251     C        0.05980    0.37800    0.83110    1.000
    C252     C        0.85320    0.29870    0.77320    1.000
    C253     C        0.65070    0.98100    0.73450    1.000
    C254     C        0.64360    0.98610    0.68950    1.000
    C255     C        0.58560    0.98290    0.65990    1.000
    H92      H        0.54980    0.97790    0.66770    1.000
    C256     C        0.58200    0.98720    0.61920    1.000
    C257     C        0.63390    0.99350    0.60590    1.000
    C258     C        0.69130    0.00150    0.63580    1.000
    H93      H        0.72600    0.01020    0.62780    1.000
    C259     C        0.69670    0.99660    0.67820    1.000
    H94      H        0.73510    0.00030    0.69810    1.000
    C260     C        0.52180    0.98870    0.58890    1.000
    C261     C        0.63670    0.99590    0.56240    1.000
    C262     C        0.63530    0.04420    0.54330    1.000
    C263     C        0.64210    0.04560    0.50400    1.000
    H95      H        0.63790    0.07730    0.49020    1.000
    C264     C        0.65490    0.00150    0.48500    1.000
    C265     C        0.65590    0.95460    0.50460    1.000
    H96      H        0.66400    0.92400    0.49240    1.000
    C266     C        0.64460    0.95280    0.54360    1.000
    C267     C        0.66680    0.00510    0.44470    1.000
    C268     C        0.63650    0.09630    0.56260    1.000
    C269     C        0.67460    0.82940    0.93920    1.000
    H97      H        0.63340    0.83950    0.92750    1.000
    C270     C        0.68770    0.78970    0.96890    1.000
    H98      H        0.65550    0.77600    0.97760    1.000
    C271     C        0.74340    0.77140    0.98450    1.000
    C272     C        0.78520    0.79580    0.97130    1.000
    H99      H        0.82670    0.78840    0.98490    1.000
    C273     C        0.77330    0.83120    0.93930    1.000
    H100     H        0.80350    0.83940    0.92670    1.000
    F123     F        0.81120    0.27260    0.76360    1.000
    F124     F        0.51280    0.97850    0.55460    1.000
    F125     F        0.65000    0.85800    0.53540    1.000
    F126     F        0.72520    0.90880    0.59540    1.000
    F127     F        0.61860    0.88580    0.57810    1.000
    C274     C        0.66560    0.90700    0.56000    1.000
    F128     F        0.93210    0.11820    0.76800    1.000
    F129     F        0.92600    0.19440    0.75510    1.000
    F130     F        0.99750    0.14830    0.81160    1.000
    C275     C        0.93640    0.16810    0.78760    1.000
    Zn21     Zn       0.09464    0.47129    0.80025    1.000
    Zn22     Zn       0.18130    0.53676    0.87345    1.000
    Zn23     Zn       0.24045    0.47377    0.81780    1.000
    Zn24     Zn       0.19328    0.41364    0.88278    1.000
    F131     F        0.84050    0.60240    0.73006    1.000
    F132     F        0.79720    0.63430    0.77240    1.000
    F133     F        0.82710    0.68510    0.73340    1.000
    F134     F        0.92660    0.83700    0.75270    1.000
    F135     F        0.99620    0.79430    0.80730    1.000
    F136     F        0.93090    0.75300    0.74510    1.000
    F137     F        0.40160    0.75960    0.92110    1.000
    F138     F        0.33640    0.80540    0.86070    1.000
    F139     F        0.29970    0.75640    0.90220    1.000
    F140     F        0.33900    0.84100    0.74830    1.000
    F141     F        0.35060    0.76250    0.74090    1.000
    F142     F        0.30310    0.80710    0.79390    1.000
    F143     F        0.97370    0.49490    0.60290    1.000
    F144     F        0.00660    0.53070    0.56190    1.000
    F145     F        0.00410    0.43780    0.57800    1.000
    F146     F        0.12790    0.64270    0.53830    1.000
    F147     F        0.19360    0.61040    0.59510    1.000
    F148     F        0.08680    0.60430    0.57970    1.000
    O66      O        0.04230    0.53208    0.80241    1.000
    O67      O        0.10890    0.58115    0.84998    1.000
    O68      O        0.79060    0.91270    0.81750    1.000
    O69      O        0.73360    0.86551    0.84764    1.000
    O70      O        0.24770    0.58300    0.86828    1.000
    O71      O        0.29340    0.53630    0.82996    1.000
    O72      O        0.54340    0.91173    0.80310    1.000
    O73      O        0.60870    0.87650    0.85980    1.000
    O74      O        0.20450    0.48390    0.75821    1.000
    O75      O        0.10220    0.47343    0.74443    1.000
    O76      O        0.18290    0.46330    0.43012    1.000
    O77      O        0.16160    0.54770    0.42713    1.000
    O78      O        0.17414    0.47416    0.84222    1.000
    N6       N        0.21780    0.35320    0.92710    1.000
    C276     C        0.05700    0.57090    0.82480    1.000
    C277     C        0.00690    0.61110    0.82100    1.000
    C278     C        0.95090    0.60870    0.79120    1.000
    H101     H        0.94240    0.58070    0.77290    1.000
    C279     C        0.90620    0.64750    0.78770    1.000
    C280     C        0.91720    0.68970    0.81400    1.000
    C281     C        0.97510    0.69060    0.84560    1.000
    H102     H        0.98350    0.71800    0.86440    1.000
    C282     C        0.01910    0.65210    0.84940    1.000
    H103     H        0.05650    0.65340    0.87060    1.000
    C283     C        0.84520    0.64310    0.75650    1.000
    C284     C        0.87530    0.73390    0.81350    1.000
    C285     C        0.88240    0.78020    0.79430    1.000
    C286     C        0.84650    0.82330    0.80060    1.000
    H104     H        0.85070    0.85480    0.78810    1.000
    C287     C        0.80730    0.82150    0.82300    1.000
    C288     C        0.79810    0.77500    0.84010    1.000
    H105     H        0.76940    0.77210    0.85470    1.000
    C289     C        0.83350    0.73200    0.83500    1.000
    H106     H        0.82800    0.70050    0.84700    1.000
    C290     C        0.77170    0.86900    0.83030    1.000
    C291     C        0.93750    0.79030    0.77880    1.000
    C292     C        0.28300    0.57750    0.84610    1.000
    C293     C        0.32030    0.62350    0.84080    1.000
    C294     C        0.31560    0.66980    0.85970    1.000
    H107     H        0.29020    0.67160    0.87670    1.000
    C295     C        0.34680    0.71330    0.85440    1.000
    C296     C        0.38700    0.71170    0.83160    1.000
    C297     C        0.39070    0.66570    0.81040    1.000
    C298     C        0.35690    0.62290    0.81670    1.000
    H108     H        0.36000    0.59190    0.80310    1.000
    C299     C        0.34850    0.75880    0.88600    1.000
    C300     C        0.42750    0.75730    0.82950    1.000
    C301     C        0.41510    0.79600    0.80070    1.000
    C302     C        0.45560    0.83500    0.80090    1.000
    H109     H        0.44440    0.86140    0.78130    1.000
    C303     C        0.51340    0.83610    0.83010    1.000
    C304     C        0.52760    0.79870    0.85990    1.000
    H110     H        0.56540    0.80020    0.88070    1.000
    C305     C        0.48570    0.75790    0.85970    1.000
    H111     H        0.49650    0.73150    0.87940    1.000
    C306     C        0.55980    0.87800    0.83110    1.000
    C307     C        0.35320    0.79870    0.77320    1.000
    C308     C        0.15070    0.48100    0.73450    1.000
    C309     C        0.14360    0.48610    0.68950    1.000
    C310     C        0.08560    0.48290    0.65990    1.000
    H112     H        0.04980    0.47790    0.66770    1.000
    C311     C        0.08200    0.48720    0.61920    1.000
    C312     C        0.13390    0.49350    0.60590    1.000
    C313     C        0.19130    0.50150    0.63580    1.000
    H113     H        0.22600    0.51020    0.62780    1.000
    C314     C        0.19670    0.49660    0.67820    1.000
    H114     H        0.23510    0.50030    0.69810    1.000
    C315     C        0.02180    0.48870    0.58890    1.000
    C316     C        0.13670    0.49590    0.56240    1.000
    C317     C        0.13530    0.54420    0.54330    1.000
    C318     C        0.14210    0.54560    0.50400    1.000
    H115     H        0.13790    0.57730    0.49020    1.000
    C319     C        0.15490    0.50150    0.48500    1.000
    C320     C        0.15590    0.45460    0.50460    1.000
    H116     H        0.16400    0.42400    0.49240    1.000
    C321     C        0.14460    0.45280    0.54360    1.000
    C322     C        0.16680    0.50510    0.44470    1.000
    C323     C        0.13650    0.59630    0.56260    1.000
    C324     C        0.17460    0.32940    0.93920    1.000
    H117     H        0.13340    0.33950    0.92750    1.000
    C325     C        0.18770    0.28970    0.96890    1.000
    H118     H        0.15550    0.27600    0.97760    1.000
    C326     C        0.24340    0.27140    0.98450    1.000
    C327     C        0.28520    0.29580    0.97130    1.000
    H119     H        0.32670    0.28840    0.98490    1.000
    C328     C        0.27330    0.33120    0.93930    1.000
    H120     H        0.30350    0.33940    0.92670    1.000
    F149     F        0.31120    0.77260    0.76360    1.000
    F150     F        0.01280    0.47850    0.55460    1.000
    F151     F        0.15000    0.35800    0.53540    1.000
    F152     F        0.22520    0.40880    0.59540    1.000
    F153     F        0.11860    0.38580    0.57810    1.000
    C329     C        0.16560    0.40700    0.56000    1.000
    F154     F        0.43210    0.61820    0.76800    1.000
    F155     F        0.42600    0.69440    0.75510    1.000
    F156     F        0.49750    0.64830    0.81160    1.000
    C330     C        0.43640    0.66810    0.78760    1.000
    Zn25     Zn       0.40536    0.97129    0.69975    1.000
    Zn26     Zn       0.31870    0.03676    0.62655    1.000
    Zn27     Zn       0.25955    0.97377    0.68220    1.000
    Zn28     Zn       0.30672    0.91364    0.61722    1.000
    F157     F        0.65950    0.10240    0.76994    1.000
    F158     F        0.70280    0.13430    0.72760    1.000
    F159     F        0.67290    0.18510    0.76660    1.000
    F160     F        0.57340    0.33700    0.74730    1.000
    F161     F        0.50380    0.29430    0.69270    1.000
    F162     F        0.56910    0.25300    0.75490    1.000
    F163     F        0.09840    0.25960    0.57890    1.000
    F164     F        0.16360    0.30540    0.63930    1.000
    F165     F        0.20030    0.25640    0.59780    1.000
    F166     F        0.16100    0.34100    0.75170    1.000
    F167     F        0.14940    0.26250    0.75910    1.000
    F168     F        0.19690    0.30710    0.70610    1.000
    F169     F        0.52630    0.99490    0.89710    1.000
    F170     F        0.49340    0.03070    0.93810    1.000
    F171     F        0.49590    0.93780    0.92200    1.000
    F172     F        0.37210    0.14270    0.96170    1.000
    F173     F        0.30640    0.11040    0.90490    1.000
    F174     F        0.41320    0.10430    0.92030    1.000
    O79      O        0.45770    0.03208    0.69759    1.000
    O80      O        0.39110    0.08115    0.65002    1.000
    O81      O        0.70940    0.41270    0.68250    1.000
    O82      O        0.76640    0.36551    0.65236    1.000
    O83      O        0.25230    0.08300    0.63172    1.000
    O84      O        0.20660    0.03630    0.67004    1.000
    O85      O        0.95660    0.41173    0.69690    1.000
    O86      O        0.89130    0.37650    0.64020    1.000
    O87      O        0.29550    0.98390    0.74179    1.000
    O88      O        0.39780    0.97343    0.75557    1.000
    O89      O        0.31710    0.96330    0.06988    1.000
    O90      O        0.33840    0.04770    0.07287    1.000
    O91      O        0.32586    0.97416    0.65778    1.000
    N7       N        0.28220    0.85320    0.57290    1.000
    C331     C        0.44300    0.07090    0.67520    1.000
    C332     C        0.49310    0.11110    0.67900    1.000
    C333     C        0.54910    0.10870    0.70880    1.000
    H121     H        0.55760    0.08070    0.72710    1.000
    C334     C        0.59380    0.14750    0.71230    1.000
    C335     C        0.58280    0.18970    0.68600    1.000
    C336     C        0.52490    0.19060    0.65440    1.000
    H122     H        0.51650    0.21800    0.63560    1.000
    C337     C        0.48090    0.15210    0.65060    1.000
    H123     H        0.44350    0.15340    0.62940    1.000
    C338     C        0.65480    0.14310    0.74350    1.000
    C339     C        0.62470    0.23390    0.68650    1.000
    C340     C        0.61760    0.28020    0.70570    1.000
    C341     C        0.65350    0.32330    0.69940    1.000
    H124     H        0.64930    0.35480    0.71190    1.000
    C342     C        0.69270    0.32150    0.67700    1.000
    C343     C        0.70190    0.27500    0.65990    1.000
    H125     H        0.73060    0.27210    0.64530    1.000
    C344     C        0.66650    0.23200    0.66500    1.000
    H126     H        0.67200    0.20050    0.65300    1.000
    C345     C        0.72830    0.36900    0.66970    1.000
    C346     C        0.56250    0.29030    0.72120    1.000
    C347     C        0.21700    0.07750    0.65390    1.000
    C348     C        0.17970    0.12350    0.65920    1.000
    C349     C        0.18440    0.16980    0.64030    1.000
    H127     H        0.20980    0.17160    0.62330    1.000
    C350     C        0.15320    0.21330    0.64560    1.000
    C351     C        0.11300    0.21170    0.66840    1.000
    C352     C        0.10930    0.16570    0.68960    1.000
    C353     C        0.14310    0.12290    0.68330    1.000
    H128     H        0.14000    0.09190    0.69690    1.000
    C354     C        0.15150    0.25880    0.61400    1.000
    C355     C        0.07250    0.25730    0.67050    1.000
    C356     C        0.08490    0.29600    0.69930    1.000
    C357     C        0.04440    0.33500    0.69910    1.000
    H129     H        0.05560    0.36140    0.71870    1.000
    C358     C        0.98660    0.33610    0.66990    1.000
    C359     C        0.97240    0.29870    0.64010    1.000
    H130     H        0.93460    0.30020    0.61930    1.000
    C360     C        0.01430    0.25790    0.64030    1.000
    H131     H        0.00350    0.23150    0.62060    1.000
    C361     C        0.94020    0.37800    0.66890    1.000
    C362     C        0.14680    0.29870    0.72680    1.000
    C363     C        0.34930    0.98100    0.76550    1.000
    C364     C        0.35640    0.98610    0.81050    1.000
    C365     C        0.41440    0.98290    0.84010    1.000
    H132     H        0.45020    0.97790    0.83230    1.000
    C366     C        0.41800    0.98720    0.88080    1.000
    C367     C        0.36610    0.99350    0.89410    1.000
    C368     C        0.30870    0.00150    0.86420    1.000
    H133     H        0.27400    0.01020    0.87220    1.000
    C369     C        0.30330    0.99660    0.82180    1.000
    H134     H        0.26490    0.00030    0.80190    1.000
    C370     C        0.47820    0.98870    0.91110    1.000
    C371     C        0.36330    0.99590    0.93760    1.000
    C372     C        0.36470    0.04420    0.95670    1.000
    C373     C        0.35790    0.04560    0.99600    1.000
    H135     H        0.36210    0.07730    0.00980    1.000
    C374     C        0.34510    0.00150    0.01500    1.000
    C375     C        0.34410    0.95460    0.99540    1.000
    H136     H        0.33600    0.92400    0.00760    1.000
    C376     C        0.35540    0.95280    0.95640    1.000
    C377     C        0.33320    0.00510    0.05530    1.000
    C378     C        0.36350    0.09630    0.93740    1.000
    C379     C        0.32540    0.82940    0.56080    1.000
    H137     H        0.36660    0.83950    0.57250    1.000
    C380     C        0.31230    0.78970    0.53110    1.000
    H138     H        0.34450    0.77600    0.52240    1.000
    C381     C        0.25660    0.77140    0.51550    1.000
    C382     C        0.21480    0.79580    0.52870    1.000
    H139     H        0.17330    0.78840    0.51510    1.000
    C383     C        0.22670    0.83120    0.56070    1.000
    H140     H        0.19650    0.83940    0.57330    1.000
    F175     F        0.18880    0.27260    0.73640    1.000
    F176     F        0.48720    0.97850    0.94540    1.000
    F177     F        0.35000    0.85800    0.96460    1.000
    F178     F        0.27480    0.90880    0.90460    1.000
    F179     F        0.38140    0.88580    0.92190    1.000
    C384     C        0.33440    0.90700    0.94000    1.000
    F180     F        0.06790    0.11820    0.73200    1.000
    F181     F        0.07400    0.19440    0.74490    1.000
    F182     F        0.00250    0.14830    0.68840    1.000
    C385     C        0.06360    0.16810    0.71240    1.000
    Zn29     Zn       0.90536    0.47129    0.69975    1.000
    Zn30     Zn       0.81870    0.53676    0.62655    1.000
    Zn31     Zn       0.75955    0.47377    0.68220    1.000
    Zn32     Zn       0.80672    0.41364    0.61722    1.000
    F183     F        0.15950    0.60240    0.76994    1.000
    F184     F        0.20280    0.63430    0.72760    1.000
    F185     F        0.17290    0.68510    0.76660    1.000
    F186     F        0.07340    0.83700    0.74730    1.000
    F187     F        0.00380    0.79430    0.69270    1.000
    F188     F        0.06910    0.75300    0.75490    1.000
    F189     F        0.59840    0.75960    0.57890    1.000
    F190     F        0.66360    0.80540    0.63930    1.000
    F191     F        0.70030    0.75640    0.59780    1.000
    F192     F        0.66100    0.84100    0.75170    1.000
    F193     F        0.64940    0.76250    0.75910    1.000
    F194     F        0.69690    0.80710    0.70610    1.000
    F195     F        0.02630    0.49490    0.89710    1.000
    F196     F        0.99340    0.53070    0.93810    1.000
    F197     F        0.99590    0.43780    0.92200    1.000
    F198     F        0.87210    0.64270    0.96170    1.000
    F199     F        0.80640    0.61040    0.90490    1.000
    F200     F        0.91320    0.60430    0.92030    1.000
    O92      O        0.95770    0.53208    0.69759    1.000
    O93      O        0.89110    0.58115    0.65002    1.000
    O94      O        0.20940    0.91270    0.68250    1.000
    O95      O        0.26640    0.86551    0.65236    1.000
    O96      O        0.75230    0.58300    0.63172    1.000
    O97      O        0.70660    0.53630    0.67004    1.000
    O98      O        0.45660    0.91173    0.69690    1.000
    O99      O        0.39130    0.87650    0.64020    1.000
    O100     O        0.79550    0.48390    0.74179    1.000
    O101     O        0.89780    0.47343    0.75557    1.000
    O102     O        0.81710    0.46330    0.06988    1.000
    O103     O        0.83840    0.54770    0.07287    1.000
    O104     O        0.82586    0.47416    0.65778    1.000
    N8       N        0.78220    0.35320    0.57290    1.000
    C386     C        0.94300    0.57090    0.67520    1.000
    C387     C        0.99310    0.61110    0.67900    1.000
    C388     C        0.04910    0.60870    0.70880    1.000
    H141     H        0.05760    0.58070    0.72710    1.000
    C389     C        0.09380    0.64750    0.71230    1.000
    C390     C        0.08280    0.68970    0.68600    1.000
    C391     C        0.02490    0.69060    0.65440    1.000
    H142     H        0.01650    0.71800    0.63560    1.000
    C392     C        0.98090    0.65210    0.65060    1.000
    H143     H        0.94350    0.65340    0.62940    1.000
    C393     C        0.15480    0.64310    0.74350    1.000
    C394     C        0.12470    0.73390    0.68650    1.000
    C395     C        0.11760    0.78020    0.70570    1.000
    C396     C        0.15350    0.82330    0.69940    1.000
    H144     H        0.14930    0.85480    0.71190    1.000
    C397     C        0.19270    0.82150    0.67700    1.000
    C398     C        0.20190    0.77500    0.65990    1.000
    H145     H        0.23060    0.77210    0.64530    1.000
    C399     C        0.16650    0.73200    0.66500    1.000
    H146     H        0.17200    0.70050    0.65300    1.000
    C400     C        0.22830    0.86900    0.66970    1.000
    C401     C        0.06250    0.79030    0.72120    1.000
    C402     C        0.71700    0.57750    0.65390    1.000
    C403     C        0.67970    0.62350    0.65920    1.000
    C404     C        0.68440    0.66980    0.64030    1.000
    H147     H        0.70980    0.67160    0.62330    1.000
    C405     C        0.65320    0.71330    0.64560    1.000
    C406     C        0.61300    0.71170    0.66840    1.000
    C407     C        0.60930    0.66570    0.68960    1.000
    C408     C        0.64310    0.62290    0.68330    1.000
    H148     H        0.64000    0.59190    0.69690    1.000
    C409     C        0.65150    0.75880    0.61400    1.000
    C410     C        0.57250    0.75730    0.67050    1.000
    C411     C        0.58490    0.79600    0.69930    1.000
    C412     C        0.54440    0.83500    0.69910    1.000
    H149     H        0.55560    0.86140    0.71870    1.000
    C413     C        0.48660    0.83610    0.66990    1.000
    C414     C        0.47240    0.79870    0.64010    1.000
    H150     H        0.43460    0.80020    0.61930    1.000
    C415     C        0.51430    0.75790    0.64030    1.000
    H151     H        0.50350    0.73150    0.62060    1.000
    C416     C        0.44020    0.87800    0.66890    1.000
    C417     C        0.64680    0.79870    0.72680    1.000
    C418     C        0.84930    0.48100    0.76550    1.000
    C419     C        0.85640    0.48610    0.81050    1.000
    C420     C        0.91440    0.48290    0.84010    1.000
    H152     H        0.95020    0.47790    0.83230    1.000
    C421     C        0.91800    0.48720    0.88080    1.000
    C422     C        0.86610    0.49350    0.89410    1.000
    C423     C        0.80870    0.50150    0.86420    1.000
    H153     H        0.77400    0.51020    0.87220    1.000
    C424     C        0.80330    0.49660    0.82180    1.000
    H154     H        0.76490    0.50030    0.80190    1.000
    C425     C        0.97820    0.48870    0.91110    1.000
    C426     C        0.86330    0.49590    0.93760    1.000
    C427     C        0.86470    0.54420    0.95670    1.000
    C428     C        0.85790    0.54560    0.99600    1.000
    H155     H        0.86210    0.57730    0.00980    1.000
    C429     C        0.84510    0.50150    0.01500    1.000
    C430     C        0.84410    0.45460    0.99540    1.000
    H156     H        0.83600    0.42400    0.00760    1.000
    C431     C        0.85540    0.45280    0.95640    1.000
    C432     C        0.83320    0.50510    0.05530    1.000
    C433     C        0.86350    0.59630    0.93740    1.000
    C434     C        0.82540    0.32940    0.56080    1.000
    H157     H        0.86660    0.33950    0.57250    1.000
    C435     C        0.81230    0.28970    0.53110    1.000
    H158     H        0.84450    0.27600    0.52240    1.000
    C436     C        0.75660    0.27140    0.51550    1.000
    C437     C        0.71480    0.29580    0.52870    1.000
    H159     H        0.67330    0.28840    0.51510    1.000
    C438     C        0.72670    0.33120    0.56070    1.000
    H160     H        0.69650    0.33940    0.57330    1.000
    F201     F        0.68880    0.77260    0.73640    1.000
    F202     F        0.98720    0.47850    0.94540    1.000
    F203     F        0.85000    0.35800    0.96460    1.000
    F204     F        0.77480    0.40880    0.90460    1.000
    F205     F        0.88140    0.38580    0.92190    1.000
    C439     C        0.83440    0.40700    0.94000    1.000
    F206     F        0.56790    0.61820    0.73200    1.000
    F207     F        0.57400    0.69440    0.74490    1.000
    F208     F        0.50250    0.64830    0.68840    1.000
    C440     C        0.56360    0.66810    0.71240    1.000
