data_functionalizedCrystal
_audit_creation_method	'EQeq! by Chris Wilmer'
_symmetry_space_group_name_H-M	'P1'
_symmetry_Int_Tables_number	1
_symmetry_cell_setting	triclinic
loop_
_symmetry_equiv_pos_as_xyz
  x,y,z
_cell_length_a	9.2522
_cell_length_b	9.2556
_cell_length_c	9.4781
_cell_angle_alpha	90
_cell_angle_beta	118.419
_cell_angle_gamma	90
loop_
_atom_site_label
_atom_site_type_symbol
_atom_site_fract_x
_atom_site_fract_y
_atom_site_fract_z
_atom_site_charge
Mof_Zn	Zn	0.27889	0.62679	0.86336	1.189
Mof_N 	N 	0.1053	0.6268	0.9362	-0.377
Mof_H 	H 	0.0975	0.7182	0.9701	0.116
Mof_H 	H 	0.0053	0.604	0.8504	0.102
Mof_O 	O 	0.1674	0.6777	0.6369	-0.471
Mof_N 	N 	0.6351	0.9286	0.1319	-0.274
Mof_C 	C 	0.1172	0.8053	0.5871	0.315
Mof_O 	O 	0.1628	0.9142	0.6701	-0.312
Mof_C 	C 	0.9825	0.8144	0.4122	0.004
Mof_H 	H 	0.0023	0.9015	0.3613	0.039
Mof_C 	C 	0.5061	0.8781	0.9986	0.066
Mof_H 	H 	0.4573	0.9267	0.8982	-0.015
Mof_C 	C 	0.6736	0.8262	0.2484	0.129
Mof_N 	N 	0.9769	0.6881	0.3204	-0.238
Mof_H 	H 	0.922	0.6125	0.3255	0.155
Mof_N 	N 	0.4545	0.7491	0.0253	-0.261
Mof_C 	C 	0.5647	0.7153	0.1851	-0.068
Mof_H 	H 	0.5637	0.6296	0.2399	0.042
Mof_C 	C 	0.1417	0.5237	0.0671	0.082
Mof_H 	H 	0.2564	0.5383	0.1522	-0.018
Mof_H 	H 	0.1329	0.4242	0.0254	-0.015
Mof_C 	C 	0.8171	0.8323	0.4128	-0.235
Mof_H 	H 	0.8061	0.7549	0.4792	0.094
Mof_H 	H 	0.8165	0.9261	0.4626	0.107
Mof_C 	C 	0.0479	0.6788	0.2302	0.289
Mof_C 	C 	0.0267	0.5389	0.1406	-0.311
Mof_H 	H 	0.9116	0.532	0.054	0.114
Mof_H 	H 	0.0465	0.4573	0.2152	0.11
Mof_O 	O 	0.126	0.7801	0.2112	-0.261
Mof_Zn	Zn	0.72111	0.12679	0.13664	1.18
Mof_N 	N 	0.8947	0.1268	0.0638	-0.375
Mof_H 	H 	0.9025	0.2182	0.0299	0.113
Mof_H 	H 	0.9947	0.104	0.1496	0.089
Mof_O 	O 	0.8326	0.1777	0.3631	-0.491
Mof_N 	N 	0.3649	0.4286	0.8681	-0.287
Mof_C 	C 	0.8828	0.3053	0.4129	0.326
Mof_O 	O 	0.8372	0.4142	0.3299	-0.334
Mof_C 	C 	0.0175	0.3144	0.5878	-0.014
Mof_H 	H 	0.9977	0.4015	0.6387	0.034
Mof_C 	C 	0.4939	0.3781	0.0014	0.061
Mof_H 	H 	0.5427	0.4267	0.1018	-0.028
Mof_C 	C 	0.3264	0.3262	0.7516	0.115
Mof_N 	N 	0.0231	0.1881	0.6796	-0.24
Mof_H 	H 	0.078	0.1125	0.6745	0.139
Mof_N 	N 	0.5455	0.2491	0.9747	-0.267
Mof_C 	C 	0.4353	0.2153	0.8149	-0.067
Mof_H 	H 	0.4363	0.1296	0.7601	0.028
Mof_C 	C 	0.8583	0.0237	0.9329	0.036
Mof_H 	H 	0.7436	0.0383	0.8478	-0.018
Mof_H 	H 	0.8671	0.9242	0.9746	0.025
Mof_C 	C 	0.1829	0.3323	0.5872	-0.221
Mof_H 	H 	0.1939	0.2549	0.5208	0.083
Mof_H 	H 	0.1835	0.4261	0.5374	0.089
Mof_C 	C 	0.9521	0.1788	0.7698	0.298
Mof_C 	C 	0.9733	0.0389	0.8594	-0.367
Mof_H 	H 	0.0884	0.032	0.946	0.115
Mof_H 	H 	0.9535	0.9573	0.7848	0.155
Mof_O 	O 	0.874	0.2801	0.7888	-0.274
_end
