data_functionalizedCrystal
_audit_creation_method	'EQeq! by Chris Wilmer'
_symmetry_space_group_name_H-M	'P1'
_symmetry_Int_Tables_number	1
_symmetry_cell_setting	triclinic
loop_
_symmetry_equiv_pos_as_xyz
  x,y,z
_cell_length_a	13.9971
_cell_length_b	14.5785
_cell_length_c	14.7621
_cell_angle_alpha	97.325
_cell_angle_beta	98.477
_cell_angle_gamma	100.96
loop_
_atom_site_label
_atom_site_type_symbol
_atom_site_fract_x
_atom_site_fract_y
_atom_site_fract_z
_atom_site_charge
Mof_W 	W 	0.32531	0.48413	0.69041	0.776
Mof_W 	W 	0.24966	0.49383	0.89671	1.27
Mof_W 	W 	0.10764	0.54461	0.71119	0.931
Mof_W 	W 	0.24895	0.71866	0.03445	1.215
Mof_W 	W 	0.10296	0.7763	0.85517	0.907
Mof_W 	W 	0.32131	0.92079	0.95451	1.318
Mof_W 	W 	0.25529	0.88662	0.70047	0.882
Mof_W 	W 	0.26376	0.68075	0.57466	0.876
Mof_W 	W 	0.48034	0.83265	0.68548	1.252
Mof_Co	Co	0.4813	0.65719	0.00064	1.183
Mof_Co	Co	0.55532	0.65505	0.80748	1.137
Mof_Co	Co	0.55445	0.84427	0.9239	1.183
Mof_Co	Co	0.26917	0.30875	0.03876	1.1
Mof_Co	Co	0.6544	0.8731	0.53032	1.041
Mof_Si	Si	0.33383	0.70845	0.82207	1.945
Mof_O 	O 	0.4489	0.5386	0.7445	-0.734
Mof_O 	O 	0.2892	0.4222	0.7915	-0.495
Mof_O 	O 	0.32	0.5795	0.607	-0.575
Mof_O 	O 	0.178	0.4626	0.65	-0.517
Mof_O 	O 	0.2748	0.5968	0.7895	-0.723
Mof_O 	O 	0.2106	0.3999	0.9545	-0.797
Mof_O 	O 	0.375	0.5371	0.9496	-0.54
Mof_O 	O 	0.2076	0.5935	0.9648	-0.612
Mof_O 	O 	0.1185	0.4773	0.811	-0.742
Mof_O 	O 	0.0818	0.6485	0.7901	-0.538
Mof_O 	O 	0.1547	0.6314	0.6332	-0.625
Mof_O 	O 	0.2087	0.702	0.1375	-0.802
Mof_O 	O 	0.374	0.7079	0.0561	-0.592
Mof_O 	O 	0.2828	0.8556	0.0536	-0.532
Mof_O 	O 	0.1133	0.7328	0.9681	-0.694
Mof_O 	O 	0.2721	0.7622	0.8914	-0.757
Mof_O 	O 	0.1715	0.8976	0.9158	-0.506
Mof_O 	O 	0.1503	0.8162	0.747	-0.666
Mof_O 	O 	0.3376	0.0365	0.011	-0.558
Mof_O 	O 	0.4427	0.9011	0.9685	-0.544
Mof_O 	O 	0.3161	0.9386	0.8274	-0.491
Mof_O 	O 	0.3821	0.918	0.6677	-0.457
Mof_O 	O 	0.213	0.7969	0.5888	-0.685
Mof_O 	O 	0.3361	0.7595	0.7283	-0.726
Mof_O 	O 	0.3849	0.7537	0.5664	-0.547
Mof_O 	O 	0.5625	0.8904	0.6207	-0.645
Mof_O 	O 	0.526	0.8933	0.8003	-0.551
Mof_O 	O 	0.5243	0.7256	0.6981	-0.675
Mof_O 	O 	0.5192	0.6086	0.1213	-0.543
Mof_O 	O 	0.4139	0.3894	0.065	-0.598
Mof_O 	O 	0.4289	0.211	0.9504	-0.588
Mof_O 	O 	0.4469	0.7145	0.8738	-0.952
Mof_O 	O 	0.3447	0.2286	0.1191	-0.644
Mof_O 	O 	0.3455	0.3959	0.2684	-0.708
Mof_O 	O 	0.2746	0.2325	0.9108	-0.573
Mof_O 	O 	0.2218	0.3804	0.149	-0.573
Mof_O 	O 	0.231	0.119	0.551	-0.438
Mof_O 	O 	0.284	0.1939	0.573	-0.345
Mof_O 	O 	0.556	0.7508	0.4568	-0.69
Mof_C 	C 	0.2584	0.3943	0.2349	0.37
Mof_C 	C 	0.1855	0.4114	0.3001	-0.313
Mof_H 	H 	0.1592	0.4673	0.2859	-0.016
Mof_H 	H 	0.1292	0.3561	0.2865	-0.057
Mof_C 	C 	0.2267	0.4268	0.4002	0.098
Mof_H 	H 	0.2774	0.4864	0.4168	-0.206
Mof_H 	H 	0.2586	0.3741	0.415	-0.184
Mof_N 	N 	0.1453	0.432	0.4553	-0.098
Mof_H 	H 	0.1073	0.4708	0.4324	-0.095
Mof_H 	H 	0.172	0.4552	0.5158	-0.008
Mof_H 	H 	0.1073	0.373	0.4511	-0.471
Mof_C 	C 	0.35	0.2067	0.8912	0.484
Mof_C 	C 	0.3513	0.1691	0.7924	-0.462
Mof_H 	H 	0.3258	0.2123	0.753	0.09
Mof_H 	H 	0.3045	0.107	0.7755	0.106
Mof_C 	C 	0.451	0.1562	0.7678	0.261
Mof_H 	H 	0.4976	0.2184	0.78	-0.229
Mof_H 	H 	0.4421	0.1311	0.7009	-0.132
Mof_N 	N 	0.495	0.0876	0.825	-0.367
Mof_H 	H 	0.5083	0.1131	0.8863	0.153
Mof_H 	H 	0.5518	0.0779	0.8061	0.11
Mof_H 	H 	0.4508	0.0314	0.8164	0.154
Mof_K 	K 	0.0003	0.6362	0.089	2.834
Mof_K 	K 	0.517	0.5927	0.5543	0.998
Mof_K 	K 	0.9901	0.7417	0.5775	2.467
Mof_K 	K 	0.4515	0.6165	0.2847	2.221
Mof_O 	O 	0.947	0.5405	0.9083	-0.745
Mof_W 	W 	0.67469	0.51587	0.30959	0.775
Mof_W 	W 	0.75034	0.50617	0.10329	1.269
Mof_W 	W 	0.89236	0.45539	0.28881	0.931
Mof_W 	W 	0.75105	0.28134	0.96555	1.215
Mof_W 	W 	0.89704	0.2237	0.14483	0.907
Mof_W 	W 	0.67869	0.07921	0.04549	1.318
Mof_W 	W 	0.74471	0.11338	0.29953	0.882
Mof_W 	W 	0.73624	0.31925	0.42534	0.876
Mof_W 	W 	0.51966	0.16735	0.31452	1.252
Mof_Co	Co	0.5187	0.34281	0.99936	1.183
Mof_Co	Co	0.44468	0.34495	0.19252	1.137
Mof_Co	Co	0.44555	0.15573	0.0761	1.183
Mof_Co	Co	0.73083	0.69125	0.96124	1.1
Mof_Co	Co	0.3456	0.1269	0.46968	1.041
Mof_Si	Si	0.66617	0.29155	0.17793	1.945
Mof_O 	O 	0.5511	0.4614	0.2555	-0.734
Mof_O 	O 	0.7108	0.5778	0.2085	-0.495
Mof_O 	O 	0.68	0.4205	0.393	-0.575
Mof_O 	O 	0.822	0.5374	0.35	-0.517
Mof_O 	O 	0.7252	0.4032	0.2105	-0.723
Mof_O 	O 	0.7894	0.6001	0.0455	-0.797
Mof_O 	O 	0.625	0.4629	0.0504	-0.54
Mof_O 	O 	0.7924	0.4065	0.0352	-0.612
Mof_O 	O 	0.8815	0.5227	0.189	-0.742
Mof_O 	O 	0.9182	0.3515	0.2099	-0.538
Mof_O 	O 	0.8453	0.3686	0.3668	-0.625
Mof_O 	O 	0.7913	0.298	0.8625	-0.802
Mof_O 	O 	0.626	0.2921	0.9439	-0.592
Mof_O 	O 	0.7172	0.1444	0.9464	-0.532
Mof_O 	O 	0.8867	0.2672	0.0319	-0.694
Mof_O 	O 	0.7279	0.2378	0.1086	-0.757
Mof_O 	O 	0.8285	0.1024	0.0842	-0.506
Mof_O 	O 	0.8497	0.1838	0.253	-0.666
Mof_O 	O 	0.6624	0.9635	0.989	-0.558
Mof_O 	O 	0.5573	0.0989	0.0315	-0.544
Mof_O 	O 	0.6839	0.0614	0.1726	-0.491
Mof_O 	O 	0.6179	0.082	0.3323	-0.457
Mof_O 	O 	0.787	0.2031	0.4112	-0.685
Mof_O 	O 	0.6639	0.2405	0.2717	-0.726
Mof_O 	O 	0.6151	0.2463	0.4336	-0.547
Mof_O 	O 	0.4375	0.1096	0.3793	-0.645
Mof_O 	O 	0.474	0.1067	0.1997	-0.551
Mof_O 	O 	0.4757	0.2744	0.3019	-0.675
Mof_O 	O 	0.4808	0.3914	0.8787	-0.543
Mof_O 	O 	0.5861	0.6106	0.935	-0.598
Mof_O 	O 	0.5711	0.789	0.0496	-0.588
Mof_O 	O 	0.5531	0.2855	0.1262	-0.952
Mof_O 	O 	0.6553	0.7714	0.8809	-0.644
Mof_O 	O 	0.6545	0.6041	0.7316	-0.708
Mof_O 	O 	0.7254	0.7675	0.0892	-0.573
Mof_O 	O 	0.7782	0.6196	0.851	-0.573
Mof_O 	O 	0.769	0.881	0.449	-0.438
Mof_O 	O 	0.716	0.8061	0.427	-0.345
Mof_O 	O 	0.444	0.2492	0.5432	-0.69
Mof_C 	C 	0.7416	0.6057	0.7651	0.37
Mof_C 	C 	0.8145	0.5886	0.6999	-0.313
Mof_H 	H 	0.8408	0.5327	0.7141	-0.016
Mof_H 	H 	0.8708	0.6439	0.7135	-0.057
Mof_C 	C 	0.7733	0.5732	0.5998	0.098
Mof_H 	H 	0.7226	0.5136	0.5832	-0.206
Mof_H 	H 	0.7414	0.6259	0.585	-0.184
Mof_N 	N 	0.8547	0.568	0.5447	-0.098
Mof_H 	H 	0.8927	0.5292	0.5676	-0.095
Mof_H 	H 	0.828	0.5448	0.4842	-0.008
Mof_H 	H 	0.8927	0.627	0.5489	-0.471
Mof_C 	C 	0.65	0.7933	0.1088	0.484
Mof_C 	C 	0.6487	0.8309	0.2076	-0.462
Mof_H 	H 	0.6742	0.7877	0.247	0.09
Mof_H 	H 	0.6955	0.893	0.2245	0.106
Mof_C 	C 	0.549	0.8438	0.2322	0.261
Mof_H 	H 	0.5024	0.7816	0.22	-0.229
Mof_H 	H 	0.5579	0.8689	0.2991	-0.132
Mof_N 	N 	0.505	0.9124	0.175	-0.367
Mof_H 	H 	0.4917	0.8869	0.1137	0.153
Mof_H 	H 	0.4482	0.9221	0.1939	0.11
Mof_H 	H 	0.5492	0.9686	0.1836	0.154
Mof_K 	K 	0.9997	0.3638	0.911	2.834
Mof_K 	K 	0.483	0.4073	0.4457	0.998
Mof_K 	K 	0.0099	0.2583	0.4225	2.467
Mof_K 	K 	0.5485	0.3835	0.7153	2.221
Mof_O 	O 	0.053	0.4595	0.0917	-0.745
_end
