data_functionalizedCrystal
_audit_creation_method	'EQeq! by Chris Wilmer'
_symmetry_space_group_name_H-M	'P1'
_symmetry_Int_Tables_number	1
_symmetry_cell_setting	triclinic
loop_
_symmetry_equiv_pos_as_xyz
  x,y,z
_cell_length_a	10.0627
_cell_length_b	23.0608
_cell_length_c	26.8432
_cell_angle_alpha	90
_cell_angle_beta	95.116
_cell_angle_gamma	90
loop_
_atom_site_label
_atom_site_type_symbol
_atom_site_fract_x
_atom_site_fract_y
_atom_site_fract_z
_atom_site_charge
Mof_Zn	Zn	0.34896	0.19271	0.27196	1.222
Mof_Zn	Zn	0.03815	0.24475	0.18301	1.224
Mof_Zn	Zn	0.35673	0.50827	0.0081	1.199
Mof_N 	N 	0.5236	0.93	0.8307	-0.138
Mof_N 	N 	0.6194	0.8805	0.7728	-0.23
Mof_N 	N 	0.1484	0.9642	0.0994	-0.125
Mof_N 	N 	0.0608	0.1696	0.1424	-0.264
Mof_N 	N 	0.1727	0.7677	0.1809	-0.236
Mof_O 	O 	0.3045	0.2387	0.2073	-0.509
Mof_O 	O 	0.1791	0.2969	0.1588	-0.454
Mof_O 	O 	0.3944	0.44	0.0549	-0.471
Mof_O 	O 	0.6121	0.4281	0.0435	-0.478
Mof_O 	O 	0.8889	0.2943	0.1577	-0.43
Mof_O 	O 	0.7834	0.2156	0.1779	-0.322
Mof_O 	O 	0.1733	0.1622	0.2914	-0.46
Mof_O 	O 	0.0322	0.2279	0.253	-0.492
Mof_O 	O 	0.5572	0.206	0.2784	-0.387
Mof_O 	O 	0.4885	0.1488	0.3376	-0.35
Mof_O 	O 	0.0449	0.0593	0.4392	-0.514
Mof_O 	O 	0.8329	0.049	0.4507	-0.503
Mof_C 	C 	0.2921	0.2797	0.1757	0.404
Mof_C 	C 	0.5083	0.4168	0.063	0.403
Mof_C 	C 	0.7813	0.2667	0.1618	0.323
Mof_C 	C 	0.4113	0.3035	0.1551	-0.163
Mof_C 	C 	0.4036	0.3468	0.1211	0.088
Mof_H 	H 	0.3215	0.3638	0.1114	0.029
Mof_C 	C 	0.5182	0.3662	0.1003	-0.132
Mof_C 	C 	0.6436	0.3434	0.1126	0.061
Mof_H 	H 	0.7187	0.3573	0.0987	0.037
Mof_C 	C 	0.6511	0.2976	0.1477	-0.112
Mof_C 	C 	0.5367	0.2786	0.1685	0.067
Mof_H 	H 	0.5437	0.2488	0.1919	0.029
Mof_C 	C 	0.0593	0.1857	0.2829	0.381
Mof_C 	C 	0.579	0.1719	0.3159	0.297
Mof_C 	C 	0.9258	0.0662	0.4287	0.463
Mof_C 	C 	0.9542	0.1639	0.3155	-0.116
Mof_C 	C 	0.8218	0.1787	0.3013	0.039
Mof_H 	H 	0.7992	0.2023	0.2737	0.052
Mof_C 	C 	0.7239	0.1565	0.3304	-0.093
Mof_C 	C 	0.7575	0.1239	0.3718	0.062
Mof_H 	H 	0.6915	0.1133	0.3922	0.037
Mof_C 	C 	0.8865	0.1063	0.3842	-0.137
Mof_C 	C 	0.9913	0.126	0.3567	0.063
Mof_H 	H 	0.0794	0.1149	0.3649	0.034
Mof_C 	C 	0.5342	0.8786	0.8079	0.1
Mof_H 	H 	0.4874	0.8456	0.8157	0.002
Mof_C 	C 	0.6647	0.9354	0.7728	0.019
Mof_H 	H 	0.7254	0.9497	0.7517	0.026
Mof_C 	C 	0.6062	0.9676	0.8095	0.005
Mof_H 	H 	0.6208	0.0065	0.8176	0.035
Mof_C 	C 	0.4432	0.938	0.8725	0.125
Mof_C 	C 	0.3559	0.8945	0.8836	-0.14
Mof_H 	H 	0.34	0.8617	0.8639	0.102
Mof_C 	C 	0.2921	0.9052	0.9284	0.009
Mof_H 	H 	0.2341	0.8771	0.9387	0.032
Mof_C 	C 	0.3113	0.9542	0.957	-0.039
Mof_C 	C 	0.395	0.997	0.9426	0.003
Mof_H 	H 	0.4059	0.0306	0.9618	0.033
Mof_C 	C 	0.4649	0.9913	0.8994	-0.123
Mof_H 	H 	0.521	0.0201	0.8891	0.083
Mof_C 	C 	0.1602	0.0125	0.0725	0.058
Mof_C 	C 	0.2026	0.0124	0.0231	-0.126
Mof_H 	H 	0.2032	0.0458	0.0038	0.076
Mof_C 	C 	0.2435	0.9579	0.0055	0.074
Mof_C 	C 	0.2332	0.9058	0.0332	-0.12
Mof_H 	H 	0.255	0.8701	0.0201	0.071
Mof_C 	C 	0.187	0.9108	0.083	0.049
Mof_C 	C 	0.134	0.1696	0.1042	0.087
Mof_H 	H 	0.1674	0.2045	0.0933	-0.011
Mof_C 	C 	0.1639	0.1168	0.079	-0.154
Mof_H 	H 	0.2134	0.118	0.0514	0.085
Mof_C 	C 	0.1213	0.0668	0.0948	0.091
Mof_C 	C 	0.0514	0.0656	0.1344	-0.152
Mof_H 	H 	0.0195	0.0306	0.1459	0.093
Mof_C 	C 	0.0258	0.1184	0.1591	0.084
Mof_H 	H 	0.9825	0.1169	0.1882	-0.008
Mof_C 	C 	0.1517	0.8235	0.1949	0.081
Mof_H 	H 	0.1316	0.8304	0.2275	-0.001
Mof_C 	C 	0.1588	0.8713	0.1627	-0.147
Mof_H 	H 	0.1491	0.9089	0.1744	0.091
Mof_C 	C 	0.1798	0.8614	0.1146	0.087
Mof_C 	C 	0.2016	0.8072	0.0986	-0.157
Mof_H 	H 	0.2201	0.8	0.0659	0.086
Mof_C 	C 	0.1953	0.7624	0.1332	0.097
Mof_H 	H 	0.2082	0.7249	0.1216	-0.004
Mof_Zn	Zn	0.15104	0.69271	0.22804	1.222
Mof_Zn	Zn	0.46185	0.74475	0.31699	1.224
Mof_Zn	Zn	0.14327	0.00827	0.4919	1.199
Mof_N 	N 	0.9764	0.43	0.6693	-0.138
Mof_N 	N 	0.8806	0.3805	0.7272	-0.229
Mof_N 	N 	0.3516	0.4642	0.4006	-0.125
Mof_N 	N 	0.4392	0.6696	0.3576	-0.265
Mof_N 	N 	0.3273	0.2677	0.3191	-0.236
Mof_O 	O 	0.1955	0.7387	0.2927	-0.509
Mof_O 	O 	0.3209	0.7969	0.3412	-0.454
Mof_O 	O 	0.1056	0.94	0.4451	-0.47
Mof_O 	O 	0.8879	0.9281	0.4565	-0.479
Mof_O 	O 	0.6111	0.7943	0.3423	-0.431
Mof_O 	O 	0.7166	0.7156	0.3221	-0.322
Mof_O 	O 	0.3267	0.6622	0.2086	-0.46
Mof_O 	O 	0.4678	0.7279	0.247	-0.491
Mof_O 	O 	0.9428	0.706	0.2216	-0.387
Mof_O 	O 	0.0115	0.6488	0.1624	-0.35
Mof_O 	O 	0.4551	0.5593	0.0608	-0.511
Mof_O 	O 	0.6671	0.549	0.0493	-0.502
Mof_C 	C 	0.2079	0.7797	0.3243	0.404
Mof_C 	C 	0.9917	0.9168	0.437	0.402
Mof_C 	C 	0.7187	0.7667	0.3382	0.323
Mof_C 	C 	0.0887	0.8035	0.3449	-0.163
Mof_C 	C 	0.0964	0.8468	0.3789	0.089
Mof_H 	H 	0.1785	0.8638	0.3886	0.029
Mof_C 	C 	0.9818	0.8662	0.3997	-0.132
Mof_C 	C 	0.8564	0.8434	0.3874	0.061
Mof_H 	H 	0.7813	0.8573	0.4013	0.036
Mof_C 	C 	0.8489	0.7976	0.3523	-0.112
Mof_C 	C 	0.9633	0.7786	0.3315	0.067
Mof_H 	H 	0.9563	0.7488	0.3081	0.029
Mof_C 	C 	0.4407	0.6857	0.2171	0.382
Mof_C 	C 	0.921	0.6719	0.1841	0.297
Mof_C 	C 	0.5742	0.5662	0.0713	0.46
Mof_C 	C 	0.5458	0.6639	0.1845	-0.116
Mof_C 	C 	0.6782	0.6787	0.1987	0.039
Mof_H 	H 	0.7008	0.7023	0.2263	0.052
Mof_C 	C 	0.7761	0.6565	0.1696	-0.093
Mof_C 	C 	0.7425	0.6239	0.1282	0.06
Mof_H 	H 	0.8085	0.6133	0.1078	0.037
Mof_C 	C 	0.6135	0.6063	0.1158	-0.134
Mof_C 	C 	0.5087	0.626	0.1433	0.059
Mof_H 	H 	0.4206	0.6149	0.1351	0.036
Mof_C 	C 	0.9658	0.3786	0.6921	0.099
Mof_H 	H 	0.0126	0.3456	0.6843	0.002
Mof_C 	C 	0.8353	0.4354	0.7272	0.019
Mof_H 	H 	0.7746	0.4497	0.7483	0.026
Mof_C 	C 	0.8938	0.4676	0.6905	0.005
Mof_H 	H 	0.8792	0.5065	0.6824	0.034
Mof_C 	C 	0.0568	0.438	0.6275	0.124
Mof_C 	C 	0.1441	0.3945	0.6164	-0.14
Mof_H 	H 	0.16	0.3617	0.6361	0.102
Mof_C 	C 	0.2079	0.4052	0.5716	0.009
Mof_H 	H 	0.2659	0.3771	0.5613	0.031
Mof_C 	C 	0.1887	0.4542	0.543	-0.039
Mof_C 	C 	0.105	0.497	0.5574	0.001
Mof_H 	H 	0.0941	0.5306	0.5382	0.034
Mof_C 	C 	0.0351	0.4913	0.6006	-0.122
Mof_H 	H 	0.979	0.5201	0.6109	0.082
Mof_C 	C 	0.3398	0.5125	0.4275	0.058
Mof_C 	C 	0.2974	0.5124	0.4769	-0.125
Mof_H 	H 	0.2968	0.5458	0.4962	0.076
Mof_C 	C 	0.2565	0.4579	0.4945	0.074
Mof_C 	C 	0.2668	0.4058	0.4668	-0.12
Mof_H 	H 	0.245	0.3701	0.4799	0.071
Mof_C 	C 	0.313	0.4108	0.417	0.049
Mof_C 	C 	0.366	0.6696	0.3958	0.088
Mof_H 	H 	0.3326	0.7045	0.4067	-0.011
Mof_C 	C 	0.3361	0.6168	0.421	-0.155
Mof_H 	H 	0.2866	0.618	0.4486	0.086
Mof_C 	C 	0.3787	0.5668	0.4052	0.093
Mof_C 	C 	0.4486	0.5656	0.3656	-0.155
Mof_H 	H 	0.4805	0.5306	0.3541	0.095
Mof_C 	C 	0.4742	0.6184	0.3409	0.091
Mof_H 	H 	0.5175	0.6169	0.3118	-0.012
Mof_C 	C 	0.3483	0.3235	0.3051	0.081
Mof_H 	H 	0.3684	0.3304	0.2725	-0.001
Mof_C 	C 	0.3412	0.3713	0.3373	-0.147
Mof_H 	H 	0.3509	0.4089	0.3256	0.091
Mof_C 	C 	0.3202	0.3614	0.3854	0.086
Mof_C 	C 	0.2984	0.3072	0.4014	-0.157
Mof_H 	H 	0.2799	0.3	0.4341	0.086
Mof_C 	C 	0.3047	0.2624	0.3668	0.097
Mof_H 	H 	0.2918	0.2249	0.3784	-0.004
Mof_Zn	Zn	0.65104	0.80729	0.72804	1.222
Mof_Zn	Zn	0.96185	0.75525	0.81699	1.224
Mof_Zn	Zn	0.64327	0.49173	0.9919	1.199
Mof_N 	N 	0.4764	0.07	0.1693	-0.138
Mof_N 	N 	0.3806	0.1195	0.2272	-0.23
Mof_N 	N 	0.8516	0.0358	0.9006	-0.125
Mof_N 	N 	0.9392	0.8304	0.8576	-0.264
Mof_N 	N 	0.8273	0.2323	0.8191	-0.236
Mof_O 	O 	0.6955	0.7613	0.7927	-0.509
Mof_O 	O 	0.8209	0.7031	0.8412	-0.454
Mof_O 	O 	0.6056	0.56	0.9451	-0.471
Mof_O 	O 	0.3879	0.5719	0.9565	-0.478
Mof_O 	O 	0.1111	0.7057	0.8423	-0.43
Mof_O 	O 	0.2166	0.7844	0.8221	-0.322
Mof_O 	O 	0.8267	0.8378	0.7086	-0.46
Mof_O 	O 	0.9678	0.7721	0.747	-0.492
Mof_O 	O 	0.4428	0.794	0.7216	-0.387
Mof_O 	O 	0.5115	0.8512	0.6624	-0.35
Mof_O 	O 	0.9551	0.9407	0.5608	-0.514
Mof_O 	O 	0.1671	0.951	0.5493	-0.503
Mof_C 	C 	0.7079	0.7203	0.8243	0.404
Mof_C 	C 	0.4917	0.5832	0.937	0.403
Mof_C 	C 	0.2187	0.7333	0.8382	0.323
Mof_C 	C 	0.5887	0.6965	0.8449	-0.163
Mof_C 	C 	0.5964	0.6532	0.8789	0.088
Mof_H 	H 	0.6785	0.6362	0.8886	0.029
Mof_C 	C 	0.4818	0.6338	0.8997	-0.132
Mof_C 	C 	0.3564	0.6566	0.8874	0.061
Mof_H 	H 	0.2813	0.6427	0.9013	0.037
Mof_C 	C 	0.3489	0.7024	0.8523	-0.112
Mof_C 	C 	0.4633	0.7214	0.8315	0.067
Mof_H 	H 	0.4563	0.7512	0.8081	0.029
Mof_C 	C 	0.9407	0.8143	0.7171	0.381
Mof_C 	C 	0.421	0.8281	0.6841	0.297
Mof_C 	C 	0.0742	0.9338	0.5713	0.463
Mof_C 	C 	0.0458	0.8361	0.6845	-0.116
Mof_C 	C 	0.1782	0.8213	0.6987	0.039
Mof_H 	H 	0.2008	0.7977	0.7263	0.052
Mof_C 	C 	0.2761	0.8435	0.6696	-0.093
Mof_C 	C 	0.2425	0.8761	0.6282	0.062
Mof_H 	H 	0.3085	0.8867	0.6078	0.037
Mof_C 	C 	0.1135	0.8937	0.6158	-0.137
Mof_C 	C 	0.0087	0.874	0.6433	0.063
Mof_H 	H 	0.9206	0.8851	0.6351	0.034
Mof_C 	C 	0.4658	0.1214	0.1921	0.1
Mof_H 	H 	0.5126	0.1544	0.1843	0.002
Mof_C 	C 	0.3353	0.0646	0.2272	0.019
Mof_H 	H 	0.2746	0.0503	0.2483	0.026
Mof_C 	C 	0.3938	0.0324	0.1905	0.005
Mof_H 	H 	0.3792	0.9935	0.1824	0.035
Mof_C 	C 	0.5568	0.062	0.1275	0.125
Mof_C 	C 	0.6441	0.1055	0.1164	-0.14
Mof_H 	H 	0.66	0.1383	0.1361	0.102
Mof_C 	C 	0.7079	0.0948	0.0716	0.009
Mof_H 	H 	0.7659	0.1229	0.0613	0.032
Mof_C 	C 	0.6887	0.0458	0.043	-0.039
Mof_C 	C 	0.605	0.003	0.0574	0.003
Mof_H 	H 	0.5941	0.9694	0.0382	0.033
Mof_C 	C 	0.5351	0.0087	0.1006	-0.123
Mof_H 	H 	0.479	0.9799	0.1109	0.083
Mof_C 	C 	0.8398	0.9875	0.9275	0.058
Mof_C 	C 	0.7974	0.9876	0.9769	-0.126
Mof_H 	H 	0.7968	0.9542	0.9962	0.076
Mof_C 	C 	0.7565	0.0421	0.9945	0.074
Mof_C 	C 	0.7668	0.0942	0.9668	-0.12
Mof_H 	H 	0.745	0.1299	0.9799	0.071
Mof_C 	C 	0.813	0.0892	0.917	0.049
Mof_C 	C 	0.866	0.8304	0.8958	0.087
Mof_H 	H 	0.8326	0.7955	0.9067	-0.011
Mof_C 	C 	0.8361	0.8832	0.921	-0.154
Mof_H 	H 	0.7866	0.882	0.9486	0.085
Mof_C 	C 	0.8787	0.9332	0.9052	0.091
Mof_C 	C 	0.9486	0.9344	0.8656	-0.152
Mof_H 	H 	0.9805	0.9694	0.8541	0.093
Mof_C 	C 	0.9742	0.8816	0.8409	0.084
Mof_H 	H 	0.0175	0.8831	0.8118	-0.008
Mof_C 	C 	0.8483	0.1765	0.8051	0.081
Mof_H 	H 	0.8684	0.1696	0.7725	-0.001
Mof_C 	C 	0.8412	0.1287	0.8373	-0.147
Mof_H 	H 	0.8509	0.0911	0.8256	0.091
Mof_C 	C 	0.8202	0.1386	0.8854	0.087
Mof_C 	C 	0.7984	0.1928	0.9014	-0.157
Mof_H 	H 	0.7799	0.2	0.9341	0.086
Mof_C 	C 	0.8047	0.2376	0.8668	0.097
Mof_H 	H 	0.7918	0.2751	0.8784	-0.004
Mof_Zn	Zn	0.84896	0.30729	0.77196	1.222
Mof_Zn	Zn	0.53815	0.25525	0.68301	1.224
Mof_Zn	Zn	0.85673	0.99173	0.5081	1.199
Mof_N 	N 	0.0236	0.57	0.3307	-0.138
Mof_N 	N 	0.1194	0.6195	0.2728	-0.229
Mof_N 	N 	0.6484	0.5358	0.5994	-0.125
Mof_N 	N 	0.5608	0.3304	0.6424	-0.265
Mof_N 	N 	0.6727	0.7323	0.6809	-0.236
Mof_O 	O 	0.8045	0.2613	0.7073	-0.509
Mof_O 	O 	0.6791	0.2031	0.6588	-0.454
Mof_O 	O 	0.8944	0.06	0.5549	-0.47
Mof_O 	O 	0.1121	0.0719	0.5435	-0.479
Mof_O 	O 	0.3889	0.2057	0.6577	-0.431
Mof_O 	O 	0.2834	0.2844	0.6779	-0.322
Mof_O 	O 	0.6733	0.3378	0.7914	-0.46
Mof_O 	O 	0.5322	0.2721	0.753	-0.491
Mof_O 	O 	0.0572	0.294	0.7784	-0.387
Mof_O 	O 	0.9885	0.3512	0.8376	-0.35
Mof_O 	O 	0.5449	0.4407	0.9392	-0.511
Mof_O 	O 	0.3329	0.451	0.9507	-0.502
Mof_C 	C 	0.7921	0.2203	0.6757	0.404
Mof_C 	C 	0.0083	0.0832	0.563	0.402
Mof_C 	C 	0.2813	0.2333	0.6618	0.323
Mof_C 	C 	0.9113	0.1965	0.6551	-0.163
Mof_C 	C 	0.9036	0.1532	0.6211	0.089
Mof_H 	H 	0.8215	0.1362	0.6114	0.029
Mof_C 	C 	0.0182	0.1338	0.6003	-0.132
Mof_C 	C 	0.1436	0.1566	0.6126	0.061
Mof_H 	H 	0.2187	0.1427	0.5987	0.036
Mof_C 	C 	0.1511	0.2024	0.6477	-0.112
Mof_C 	C 	0.0367	0.2214	0.6685	0.067
Mof_H 	H 	0.0437	0.2512	0.6919	0.029
Mof_C 	C 	0.5593	0.3143	0.7829	0.382
Mof_C 	C 	0.079	0.3281	0.8159	0.297
Mof_C 	C 	0.4258	0.4338	0.9287	0.46
Mof_C 	C 	0.4542	0.3361	0.8155	-0.116
Mof_C 	C 	0.3218	0.3213	0.8013	0.039
Mof_H 	H 	0.2992	0.2977	0.7737	0.052
Mof_C 	C 	0.2239	0.3435	0.8304	-0.093
Mof_C 	C 	0.2575	0.3761	0.8718	0.06
Mof_H 	H 	0.1915	0.3867	0.8922	0.037
Mof_C 	C 	0.3865	0.3937	0.8842	-0.134
Mof_C 	C 	0.4913	0.374	0.8567	0.059
Mof_H 	H 	0.5794	0.3851	0.8649	0.036
Mof_C 	C 	0.0342	0.6214	0.3079	0.099
Mof_H 	H 	0.9874	0.6544	0.3157	0.002
Mof_C 	C 	0.1647	0.5646	0.2728	0.019
Mof_H 	H 	0.2254	0.5503	0.2517	0.026
Mof_C 	C 	0.1062	0.5324	0.3095	0.005
Mof_H 	H 	0.1208	0.4935	0.3176	0.034
Mof_C 	C 	0.9432	0.562	0.3725	0.124
Mof_C 	C 	0.8559	0.6055	0.3836	-0.14
Mof_H 	H 	0.84	0.6383	0.3639	0.102
Mof_C 	C 	0.7921	0.5948	0.4284	0.009
Mof_H 	H 	0.7341	0.6229	0.4387	0.031
Mof_C 	C 	0.8113	0.5458	0.457	-0.039
Mof_C 	C 	0.895	0.503	0.4426	0.001
Mof_H 	H 	0.9059	0.4694	0.4618	0.034
Mof_C 	C 	0.9649	0.5087	0.3994	-0.122
Mof_H 	H 	0.021	0.4799	0.3891	0.082
Mof_C 	C 	0.6602	0.4875	0.5725	0.058
Mof_C 	C 	0.7026	0.4876	0.5231	-0.125
Mof_H 	H 	0.7032	0.4542	0.5038	0.076
Mof_C 	C 	0.7435	0.5421	0.5055	0.074
Mof_C 	C 	0.7332	0.5942	0.5332	-0.12
Mof_H 	H 	0.755	0.6299	0.5201	0.071
Mof_C 	C 	0.687	0.5892	0.583	0.049
Mof_C 	C 	0.634	0.3304	0.6042	0.088
Mof_H 	H 	0.6674	0.2955	0.5933	-0.011
Mof_C 	C 	0.6639	0.3832	0.579	-0.155
Mof_H 	H 	0.7134	0.382	0.5514	0.086
Mof_C 	C 	0.6213	0.4332	0.5948	0.093
Mof_C 	C 	0.5514	0.4344	0.6344	-0.155
Mof_H 	H 	0.5195	0.4694	0.6459	0.095
Mof_C 	C 	0.5258	0.3816	0.6591	0.091
Mof_H 	H 	0.4825	0.3831	0.6882	-0.012
Mof_C 	C 	0.6517	0.6765	0.6949	0.081
Mof_H 	H 	0.6316	0.6696	0.7275	-0.001
Mof_C 	C 	0.6588	0.6287	0.6627	-0.147
Mof_H 	H 	0.6491	0.5911	0.6744	0.091
Mof_C 	C 	0.6798	0.6386	0.6146	0.086
Mof_C 	C 	0.7016	0.6928	0.5986	-0.157
Mof_H 	H 	0.7201	0.7	0.5659	0.086
Mof_C 	C 	0.6953	0.7376	0.6332	0.097
Mof_H 	H 	0.7082	0.7751	0.6216	-0.004
_end
