data_functionalizedCrystal
_audit_creation_method	'EQeq! by Chris Wilmer'
_symmetry_space_group_name_H-M	'P1'
_symmetry_Int_Tables_number	1
_symmetry_cell_setting	triclinic
loop_
_symmetry_equiv_pos_as_xyz
  x,y,z
_cell_length_a	11.7
_cell_length_b	11.831
_cell_length_c	13.49
_cell_angle_alpha	90
_cell_angle_beta	90
_cell_angle_gamma	90
loop_
_atom_site_label
_atom_site_type_symbol
_atom_site_fract_x
_atom_site_fract_y
_atom_site_fract_z
_atom_site_charge
Mof_Cd	Cd	0.28255	0	-0	0.396
Mof_Fe	Fe	0.21276	0	0.5	0.667
Mof_H 	H 	0.3985	0.1049	0.5803	0.054
Mof_H 	H 	0.2759	0.2208	0.4595	0.061
Mof_H 	H 	0.0647	0.1772	0.4923	0.071
Mof_H 	H 	0.0564	0.0437	0.6449	0.041
Mof_H 	H 	0.1445	0.7742	0.921	0.044
Mof_H 	H 	0.1417	0.5843	0.9256	0.051
Mof_H 	H 	0.4364	0.5874	0.0728	0.063
Mof_H 	H 	0.4272	0.7837	0.0721	0.041
Mof_H 	H 	0.4992	0.9096	0.8774	0.032
Mof_H 	H 	0.6984	0.9121	0.8745	0.077
Mof_H 	H 	0.8692	0.9208	0.1317	0.08
Mof_H 	H 	0.0675	0.9277	0.1297	0.021
Mof_H 	H 	0.3985	0.8951	0.4197	0.075
Mof_H 	H 	0.2759	0.7792	0.5405	0.06
Mof_H 	H 	0.0647	0.8228	0.5077	0.073
Mof_H 	H 	0.0564	0.9563	0.3551	0.064
Mof_H 	H 	0.1445	0.2258	0.079	0.002
Mof_H 	H 	0.1417	0.4157	0.0744	0.106
Mof_H 	H 	0.4364	0.4126	0.9272	0.118
Mof_H 	H 	0.4272	0.2163	0.9279	0.004
Mof_H 	H 	0.4992	0.0904	0.1226	0.034
Mof_H 	H 	0.6984	0.0879	0.1255	0.077
Mof_H 	H 	0.8692	0.0792	0.8683	0.074
Mof_H 	H 	0.0675	0.0723	0.8703	0.022
Mof_C 	C 	0.2393	0.0493	0.6407	-0.179
Mof_C 	C 	0.3149	0.1065	0.5775	-0.087
Mof_C 	C 	0.2466	0.1725	0.5128	-0.085
Mof_C 	C 	0.1301	0.1465	0.5288	-0.147
Mof_C 	C 	0.1256	0.0731	0.6131	-0.063
Mof_C 	C 	0.2033	0.7367	0.9537	0.043
Mof_C 	C 	0.2016	0.6231	0.9555	-0.049
Mof_C 	C 	0.2882	0.5638	0.0014	-0.038
Mof_C 	C 	0.3748	0.6241	0.0433	-0.07
Mof_C 	C 	0.3694	0.7429	0.0411	0.029
Mof_C 	C 	0.5391	0.947	0.9272	0.098
Mof_C 	C 	0.6591	0.0525	0.0742	-0.111
Mof_C 	C 	0.9072	0.9536	0.0784	-0.099
Mof_C 	C 	0.0267	0.9567	0.0762	0.098
Mof_C 	C 	0.2393	0.9507	0.3593	-0.099
Mof_C 	C 	0.3149	0.8935	0.4225	-0.112
Mof_C 	C 	0.2466	0.8275	0.4872	-0.073
Mof_C 	C 	0.1301	0.8535	0.4712	-0.131
Mof_C 	C 	0.1256	0.9269	0.3869	-0.088
Mof_C 	C 	0.2033	0.2633	0.0463	0.128
Mof_C 	C 	0.2016	0.3769	0.0445	-0.228
Mof_C 	C 	0.2882	0.4362	0.9986	0.165
Mof_C 	C 	0.3748	0.3759	0.9567	-0.204
Mof_C 	C 	0.3694	0.2571	0.9589	0.144
Mof_C 	C 	0.5391	0.053	0.0728	0.05
Mof_C 	C 	0.6591	0.9475	0.9258	-0.066
Mof_C 	C 	0.9072	0.0464	0.9216	-0.1
Mof_C 	C 	0.0267	0.0433	0.9238	0.079
Mof_C 	C 	0.7178	0	-0	0.008
Mof_C 	C 	0.8456	0	-0	0.014
Mof_S 	S 	0.2784	0.963	0.73989	0.562
Mof_S 	S 	0.2784	0.037	0.26011	0.427
Mof_N 	N 	0.2861	0.7993	0.997	-0.11
Mof_N 	N 	0.2861	0.2007	0.003	-0.173
Mof_N 	N 	0.481	0	-0	-0.166
Mof_N 	N 	0.0837	0	-0	-0.173
Mof_O 	O 	0.2837	0.0335	0.8273	-0.306
Mof_O 	O 	0.3895	0.9156	0.7155	-0.27
Mof_O 	O 	0.1881	0.8781	0.7496	-0.268
Mof_O 	O 	0.2837	0.9665	0.1727	-0.245
Mof_O 	O 	0.3895	0.0844	0.2845	-0.261
Mof_O 	O 	0.1881	0.1219	0.2504	-0.26
Mof_Cd	Cd	0.71745	0.5	0.5	0.432
Mof_Fe	Fe	0.78724	0.5	-0	0.681
Mof_H 	H 	0.6015	0.3951	0.0803	0.057
Mof_H 	H 	0.7241	0.2792	0.9595	0.08
Mof_H 	H 	0.9353	0.3228	0.9923	0.094
Mof_H 	H 	0.9436	0.4563	0.1449	0.045
Mof_H 	H 	0.8555	0.7258	0.421	0.014
Mof_H 	H 	0.8583	0.9157	0.4256	0.097
Mof_H 	H 	0.5636	0.9126	0.5728	0.11
Mof_H 	H 	0.5728	0.7163	0.5721	0.015
Mof_H 	H 	0.5008	0.5904	0.3774	0.032
Mof_H 	H 	0.3016	0.5879	0.3745	0.088
Mof_H 	H 	0.1308	0.5792	0.6317	0.084
Mof_H 	H 	0.9325	0.5723	0.6297	0.024
Mof_H 	H 	0.6015	0.6049	0.9197	0.073
Mof_H 	H 	0.7241	0.7208	0.0405	0.044
Mof_H 	H 	0.9353	0.6772	0.0077	0.05
Mof_H 	H 	0.9436	0.5437	0.8551	0.059
Mof_H 	H 	0.8555	0.2742	0.579	0.028
Mof_H 	H 	0.8583	0.0843	0.5744	0.061
Mof_H 	H 	0.5636	0.0874	0.4272	0.072
Mof_H 	H 	0.5728	0.2837	0.4279	0.025
Mof_H 	H 	0.5008	0.4096	0.6226	0.032
Mof_H 	H 	0.3016	0.4121	0.6255	0.088
Mof_H 	H 	0.1308	0.4208	0.3683	0.083
Mof_H 	H 	0.9325	0.4277	0.3703	0.022
Mof_C 	C 	0.7607	0.4507	0.1407	-0.15
Mof_C 	C 	0.6851	0.3935	0.0775	-0.092
Mof_C 	C 	0.7534	0.3275	0.0128	-0.105
Mof_C 	C 	0.8699	0.3535	0.0288	-0.17
Mof_C 	C 	0.8744	0.4269	0.1131	-0.066
Mof_C 	C 	0.7967	0.7633	0.4537	0.107
Mof_C 	C 	0.7984	0.8769	0.4555	-0.172
Mof_C 	C 	0.7118	0.9362	0.5014	0.122
Mof_C 	C 	0.6252	0.8759	0.5433	-0.17
Mof_C 	C 	0.6306	0.7571	0.5411	0.105
Mof_C 	C 	0.4609	0.553	0.4272	0.071
Mof_C 	C 	0.3409	0.4475	0.5742	-0.129
Mof_C 	C 	0.0928	0.5464	0.5784	-0.127
Mof_C 	C 	0.9733	0.5433	0.5762	0.077
Mof_C 	C 	0.7607	0.5493	0.8593	-0.132
Mof_C 	C 	0.6851	0.6065	0.9225	-0.11
Mof_C 	C 	0.7534	0.6725	0.9872	-0.054
Mof_C 	C 	0.8699	0.6465	0.9712	-0.112
Mof_C 	C 	0.8744	0.5731	0.8869	-0.087
Mof_C 	C 	0.7967	0.2367	0.5463	0.066
Mof_C 	C 	0.7984	0.1231	0.5445	-0.107
Mof_C 	C 	0.7118	0.0638	0.4986	0.006
Mof_C 	C 	0.6252	0.1241	0.4567	-0.106
Mof_C 	C 	0.6306	0.2429	0.4589	0.068
Mof_C 	C 	0.4609	0.447	0.5728	0.071
Mof_C 	C 	0.3409	0.5525	0.4258	-0.129
Mof_C 	C 	0.0928	0.4536	0.4216	-0.127
Mof_C 	C 	0.9733	0.4567	0.4238	0.076
Mof_C 	C 	0.2822	0.5	0.5	0.062
Mof_C 	C 	0.1544	0.5	0.5	0.056
Mof_S 	S 	0.7216	0.537	0.23989	0.499
Mof_S 	S 	0.7216	0.463	0.76011	0.495
Mof_N 	N 	0.7139	0.7007	0.497	-0.153
Mof_N 	N 	0.7139	0.2993	0.503	-0.14
Mof_N 	N 	0.519	0.5	0.5	-0.145
Mof_N 	N 	0.9163	0.5	0.5	-0.148
Mof_O 	O 	0.7163	0.4665	0.3273	-0.284
Mof_O 	O 	0.6105	0.5844	0.2155	-0.268
Mof_O 	O 	0.8119	0.6219	0.2496	-0.267
Mof_O 	O 	0.7163	0.5335	0.6727	-0.282
Mof_O 	O 	0.6105	0.4156	0.7845	-0.266
Mof_O 	O 	0.8119	0.3781	0.7504	-0.265
_end
