# CIF file generated by openbabel 3.1.0, see https://openbabel.org
data_I
_chemical_name_common 'image0'
_cell_length_a 10.031
_cell_length_b 14.541
_cell_length_c 23.562
_cell_angle_alpha 90
_cell_angle_beta 96.381
_cell_angle_gamma 90
_space_group_name_H-M_alt 'P 1'
_space_group_name_Hall 'P 1'
loop_
    _symmetry_equiv_pos_as_xyz
    x,y,z
loop_
    _atom_site_label
    _atom_site_type_symbol
    _atom_site_fract_x
    _atom_site_fract_y
    _atom_site_fract_z
    _atom_site_occupancy
    C1       C        0.19530    0.46950    0.34510    1.000
    C2       C        0.07010    0.42540    0.35970    1.000
    C3       C        0.94590    0.46570    0.34340    1.000
    H1       H        0.94070    0.52110    0.32360    1.000
    C4       C        0.83080    0.42300    0.35660    1.000
    C5       C        0.83880    0.33970    0.38460    1.000
    H2       H        0.76070    0.30870    0.39100    1.000
    C6       C        0.96080    0.30270    0.40300    1.000
    C7       C        0.07770    0.34340    0.39020    1.000
    H3       H        0.16030    0.31640    0.40170    1.000
    C8       C        0.69440    0.46760    0.34040    1.000
    C9       C        0.07300    0.17120    0.44590    1.000
    H4       H        0.13150    0.20680    0.47310    1.000
    H5       H        0.11970    0.16060    0.41260    1.000
    C10      C        0.04160    0.07830    0.47270    1.000
    C11      C        0.91390    0.07100    0.49090    1.000
    H6       H        0.85570    0.12070    0.48500    1.000
    C12      C        0.12890    0.00470    0.48330    1.000
    C13      C        0.27050    0.00830    0.46550    1.000
    H7       H        0.32010    0.95510    0.48120    1.000
    H8       H        0.26490    0.00420    0.42420    1.000
    C14      C        0.38230    0.09620    0.54010    1.000
    C15      C        0.43310    0.18410    0.55570    1.000
    H9       H        0.44150    0.22840    0.52790    1.000
    C16      C        0.47060    0.20420    0.61330    1.000
    C17      C        0.46050    0.13630    0.65380    1.000
    H10      H        0.49010    0.14840    0.69190    1.000
    C18      C        0.40720    0.05060    0.63860    1.000
    C19      C        0.36920    0.03250    0.58200    1.000
    H11      H        0.33340    0.97520    0.57170    1.000
    C20      C        0.51680    0.29820    0.63280    1.000
    C21      C        0.39500    0.98400    0.68450    1.000
    Cd1      Cd       0.43808    0.53609    0.31945    1.000
    O1       O        0.19010    0.54270    0.31810    1.000
    O2       O        0.30480    0.43390    0.36310    1.000
    O3       O        0.69080    0.54050    0.31590    1.000
    O4       O        0.59460    0.42810    0.35250    1.000
    O5       O        0.96110    0.21860    0.43070    1.000
    O6       O        0.34350    0.08970    0.48370    1.000
    O7       O        0.52190    0.35970    0.59850    1.000
    O8       O        0.54800    0.31190    0.68380    1.000
    O9       O        0.42420    0.00340    0.73120    1.000
    O10      O        0.35180    0.90590    0.67070    1.000
    C22      C        0.80470    0.96950    0.15490    1.000
    C23      C        0.92990    0.92540    0.14030    1.000
    C24      C        0.05410    0.96570    0.15660    1.000
    H12      H        0.05930    0.02110    0.17640    1.000
    C25      C        0.16920    0.92300    0.14340    1.000
    C26      C        0.16120    0.83970    0.11540    1.000
    H13      H        0.23930    0.80870    0.10900    1.000
    C27      C        0.03920    0.80270    0.09700    1.000
    C28      C        0.92230    0.84340    0.10980    1.000
    H14      H        0.83970    0.81640    0.09830    1.000
    C29      C        0.30560    0.96760    0.15960    1.000
    C30      C        0.92700    0.67120    0.05410    1.000
    H15      H        0.86850    0.70680    0.02690    1.000
    H16      H        0.88030    0.66060    0.08740    1.000
    C31      C        0.95840    0.57830    0.02730    1.000
    C32      C        0.08610    0.57100    0.00910    1.000
    H17      H        0.14430    0.62070    0.01500    1.000
    C33      C        0.87110    0.50470    0.01670    1.000
    C34      C        0.72950    0.50830    0.03450    1.000
    H18      H        0.67990    0.45510    0.01880    1.000
    H19      H        0.73510    0.50420    0.07580    1.000
    C35      C        0.61770    0.59620    0.95990    1.000
    C36      C        0.56690    0.68410    0.94430    1.000
    H20      H        0.55850    0.72840    0.97210    1.000
    C37      C        0.52940    0.70420    0.88670    1.000
    C38      C        0.53950    0.63630    0.84620    1.000
    H21      H        0.50990    0.64840    0.80810    1.000
    C39      C        0.59280    0.55060    0.86140    1.000
    C40      C        0.63080    0.53250    0.91800    1.000
    H22      H        0.66660    0.47520    0.92830    1.000
    C41      C        0.48320    0.79820    0.86720    1.000
    C42      C        0.60500    0.48400    0.81550    1.000
    Cd2      Cd       0.56192    0.03609    0.18055    1.000
    O11      O        0.80990    0.04270    0.18190    1.000
    O12      O        0.69520    0.93390    0.13690    1.000
    O13      O        0.30920    0.04050    0.18410    1.000
    O14      O        0.40540    0.92810    0.14750    1.000
    O15      O        0.03890    0.71860    0.06930    1.000
    O16      O        0.65650    0.58970    0.01630    1.000
    O17      O        0.47810    0.85970    0.90150    1.000
    O18      O        0.45200    0.81190    0.81620    1.000
    O19      O        0.57580    0.50340    0.76880    1.000
    O20      O        0.64820    0.40590    0.82930    1.000
    C43      C        0.80470    0.53050    0.65490    1.000
    C44      C        0.92990    0.57460    0.64030    1.000
    C45      C        0.05410    0.53430    0.65660    1.000
    H23      H        0.05930    0.47890    0.67640    1.000
    C46      C        0.16920    0.57700    0.64340    1.000
    C47      C        0.16120    0.66030    0.61540    1.000
    H24      H        0.23930    0.69130    0.60900    1.000
    C48      C        0.03920    0.69730    0.59700    1.000
    C49      C        0.92230    0.65660    0.60980    1.000
    H25      H        0.83970    0.68360    0.59830    1.000
    C50      C        0.30560    0.53240    0.65960    1.000
    C51      C        0.92700    0.82880    0.55410    1.000
    H26      H        0.86850    0.79320    0.52690    1.000
    H27      H        0.88030    0.83940    0.58740    1.000
    C52      C        0.95840    0.92170    0.52730    1.000
    C53      C        0.08610    0.92900    0.50910    1.000
    H28      H        0.14430    0.87930    0.51500    1.000
    C54      C        0.87110    0.99530    0.51670    1.000
    C55      C        0.72950    0.99170    0.53450    1.000
    H29      H        0.67990    0.04490    0.51880    1.000
    H30      H        0.73510    0.99580    0.57580    1.000
    C56      C        0.61770    0.90380    0.45990    1.000
    C57      C        0.56690    0.81590    0.44430    1.000
    H31      H        0.55850    0.77160    0.47210    1.000
    C58      C        0.52940    0.79580    0.38670    1.000
    C59      C        0.53950    0.86370    0.34620    1.000
    H32      H        0.50990    0.85160    0.30810    1.000
    C60      C        0.59280    0.94940    0.36140    1.000
    C61      C        0.63080    0.96750    0.41800    1.000
    H33      H        0.66660    0.02480    0.42830    1.000
    C62      C        0.48320    0.70180    0.36720    1.000
    C63      C        0.60500    0.01600    0.31550    1.000
    Cd3      Cd       0.56192    0.46391    0.68055    1.000
    O21      O        0.80990    0.45730    0.68190    1.000
    O22      O        0.69520    0.56610    0.63690    1.000
    O23      O        0.30920    0.45950    0.68410    1.000
    O24      O        0.40540    0.57190    0.64750    1.000
    O25      O        0.03890    0.78140    0.56930    1.000
    O26      O        0.65650    0.91030    0.51630    1.000
    O27      O        0.47810    0.64030    0.40150    1.000
    O28      O        0.45200    0.68810    0.31620    1.000
    O29      O        0.57580    0.99660    0.26880    1.000
    O30      O        0.64820    0.09410    0.32930    1.000
    C64      C        0.19530    0.03050    0.84510    1.000
    C65      C        0.07010    0.07460    0.85970    1.000
    C66      C        0.94590    0.03430    0.84340    1.000
    H34      H        0.94070    0.97890    0.82360    1.000
    C67      C        0.83080    0.07700    0.85660    1.000
    C68      C        0.83880    0.16030    0.88460    1.000
    H35      H        0.76070    0.19130    0.89100    1.000
    C69      C        0.96080    0.19730    0.90300    1.000
    C70      C        0.07770    0.15660    0.89020    1.000
    H36      H        0.16030    0.18360    0.90170    1.000
    C71      C        0.69440    0.03240    0.84040    1.000
    C72      C        0.07300    0.32880    0.94590    1.000
    H37      H        0.13150    0.29320    0.97310    1.000
    H38      H        0.11970    0.33940    0.91260    1.000
    C73      C        0.04160    0.42170    0.97270    1.000
    C74      C        0.91390    0.42900    0.99090    1.000
    H39      H        0.85570    0.37930    0.98500    1.000
    C75      C        0.12890    0.49530    0.98330    1.000
    C76      C        0.27050    0.49170    0.96550    1.000
    H40      H        0.32010    0.54490    0.98120    1.000
    H41      H        0.26490    0.49580    0.92420    1.000
    C77      C        0.38230    0.40380    0.04010    1.000
    C78      C        0.43310    0.31590    0.05570    1.000
    H42      H        0.44150    0.27160    0.02790    1.000
    C79      C        0.47060    0.29580    0.11330    1.000
    C80      C        0.46050    0.36370    0.15380    1.000
    H43      H        0.49010    0.35160    0.19190    1.000
    C81      C        0.40720    0.44940    0.13860    1.000
    C82      C        0.36920    0.46750    0.08200    1.000
    H44      H        0.33340    0.52480    0.07170    1.000
    C83      C        0.51680    0.20180    0.13280    1.000
    C84      C        0.39500    0.51600    0.18450    1.000
    Cd4      Cd       0.43808    0.96391    0.81945    1.000
    O31      O        0.19010    0.95730    0.81810    1.000
    O32      O        0.30480    0.06610    0.86310    1.000
    O33      O        0.69080    0.95950    0.81590    1.000
    O34      O        0.59460    0.07190    0.85250    1.000
    O35      O        0.96110    0.28140    0.93070    1.000
    O36      O        0.34350    0.41030    0.98370    1.000
    O37      O        0.52190    0.14030    0.09850    1.000
    O38      O        0.54800    0.18810    0.18380    1.000
    O39      O        0.42420    0.49660    0.23120    1.000
    O40      O        0.35180    0.59410    0.17070    1.000
