data_functionalizedCrystal
_audit_creation_method	'EQeq! by Chris Wilmer'
_symmetry_space_group_name_H-M	'P1'
_symmetry_Int_Tables_number	1
_symmetry_cell_setting	triclinic
loop_
_symmetry_equiv_pos_as_xyz
  x,y,z
_cell_length_a	14.2089
_cell_length_b	14.2089
_cell_length_c	14.2089
_cell_angle_alpha	60
_cell_angle_beta	60
_cell_angle_gamma	60
loop_
_atom_site_label
_atom_site_type_symbol
_atom_site_fract_x
_atom_site_fract_y
_atom_site_fract_z
_atom_site_charge
Mof_Zn	Zn	0.19397	0.19397	0.41809	1.141
Mof_Zn	Zn	0.19397	0.41809	0.19397	1.141
Mof_Zn	Zn	0.41809	0.19397	0.19397	1.141
Mof_Zn	Zn	0.80633	0.80633	0.80633	1.236
Mof_Zn	Zn	0.80633	0.58101	0.80633	1.236
Mof_Zn	Zn	0.80633	0.80633	0.58101	1.236
Mof_Zn	Zn	0.19397	0.19397	0.19397	1.138
Mof_Zn	Zn	0.58101	0.80633	0.80633	1.236
Mof_H 	H 	0.0259	0.3371	0.6103	-0.064
Mof_H 	H 	0.0267	0.0259	0.6103	-0.036
Mof_H 	H 	0.0267	0.6103	0.3371	-0.064
Mof_H 	H 	0.6103	0.3371	0.0267	-0.064
Mof_H 	H 	0.0267	0.3371	0.0259	-0.042
Mof_H 	H 	0.6103	0.0259	0.3371	-0.064
Mof_H 	H 	0.0259	0.6103	0.0267	-0.036
Mof_H 	H 	0.3371	0.0259	0.0267	-0.042
Mof_H 	H 	0.3371	0.0267	0.6103	-0.064
Mof_H 	H 	0.3371	0.6103	0.0259	-0.064
Mof_H 	H 	0.6103	0.0267	0.0259	-0.036
Mof_H 	H 	0.0259	0.0267	0.3371	-0.042
Mof_C 	C 	0.5703	0.9297	0.9297	0.539
Mof_C 	C 	0.041	0.0406	0.5322	0.027
Mof_C 	C 	0.5322	0.0406	0.3862	0.142
Mof_C 	C 	0.5703	0.9297	0.5703	0.602
Mof_C 	C 	0.9999	0.9999	0.5001	-0.106
Mof_C 	C 	0.5703	0.5703	0.9297	0.602
Mof_C 	C 	0.5001	0.9999	0.9999	-0.106
Mof_C 	C 	0.0406	0.3862	0.5322	0.142
Mof_C 	C 	0.0406	0.041	0.3862	0.027
Mof_C 	C 	0.3862	0.0406	0.041	0.027
Mof_C 	C 	0.9297	0.9297	0.5703	0.539
Mof_C 	C 	0.5322	0.041	0.0406	0.027
Mof_C 	C 	0.041	0.5322	0.3862	0.142
Mof_C 	C 	0.9999	0.5001	0.5001	-0.264
Mof_C 	C 	0.5001	0.9999	0.5001	-0.264
Mof_C 	C 	0.3862	0.5322	0.0406	0.142
Mof_C 	C 	0.9297	0.5703	0.9297	0.539
Mof_C 	C 	0.9999	0.5001	0.9999	-0.106
Mof_C 	C 	0.5322	0.3862	0.041	0.142
Mof_C 	C 	0.041	0.3862	0.0406	0.027
Mof_C 	C 	0.0406	0.5322	0.041	0.027
Mof_C 	C 	0.9297	0.5703	0.5703	0.602
Mof_C 	C 	0.5001	0.5001	0.9999	-0.264
Mof_C 	C 	0.3862	0.041	0.5322	0.142
Mof_N 	N 	0.1012	0.1014	0.4472	-0.282
Mof_N 	N 	0.1012	0.3502	0.1014	-0.283
Mof_N 	N 	0.3502	0.4472	0.1014	-0.3
Mof_N 	N 	0.1014	0.4472	0.1012	-0.282
Mof_N 	N 	0.1014	0.1012	0.3502	-0.283
Mof_N 	N 	0.4472	0.3502	0.1012	-0.3
Mof_N 	N 	0.3502	0.1014	0.1012	-0.283
Mof_N 	N 	0.4472	0.1012	0.1014	-0.282
Mof_N 	N 	0.1012	0.4472	0.3502	-0.3
Mof_N 	N 	0.3502	0.1012	0.4472	-0.3
Mof_N 	N 	0.4472	0.1014	0.3502	-0.3
Mof_N 	N 	0.1014	0.3502	0.4472	-0.3
Mof_O 	O 	0.5341	0.8955	0.6743	-0.581
Mof_O 	O 	0.8961	0.5341	0.6743	-0.581
Mof_O 	O 	0.8961	0.6743	0.8955	-0.553
Mof_O 	O 	0.5341	0.6743	0.8961	-0.581
Mof_O 	O 	0.8955	0.6743	0.5341	-0.581
Mof_O 	O 	0.6743	0.8955	0.8961	-0.553
Mof_O 	O 	0.6743	0.8961	0.5341	-0.581
Mof_O 	O 	0.5341	0.8961	0.8955	-0.556
Mof_O 	O 	0.25	0.25	0.25	-1.011
Mof_O 	O 	0.8955	0.8961	0.6743	-0.553
Mof_O 	O 	0.8955	0.5341	0.8961	-0.556
Mof_O 	O 	0.8961	0.8955	0.5341	-0.556
Mof_O 	O 	0.6743	0.5341	0.8955	-0.581
Mof_O 	O 	0.75	0.75	0.75	-0.895
_end
