# CIF file generated by openbabel 3.1.0, see https://openbabel.org
data_I
_chemical_name_common 'image0'
_cell_length_a 10.4021
_cell_length_b 10.541
_cell_length_c 6.2832
_cell_angle_alpha 90
_cell_angle_beta 115.06
_cell_angle_gamma 90
_space_group_name_H-M_alt 'P 1'
_space_group_name_Hall 'P 1'
loop_
    _symmetry_equiv_pos_as_xyz
    x,y,z
loop_
    _atom_site_label
    _atom_site_type_symbol
    _atom_site_fract_x
    _atom_site_fract_y
    _atom_site_fract_z
    _atom_site_occupancy
    C1       C        0.31670    0.21050    0.54590    1.000
    H1       H        0.39750    0.26520    0.57550    1.000
    H2       H        0.32950    0.17220    0.69390    1.000
    N1       N        0.31230    0.11020    0.38080    1.000
    H3       H        0.29780    0.14600    0.24240    1.000
    H4       H        0.23830    0.05880    0.35610    1.000
    C2       C        0.81670    0.71050    0.54590    1.000
    H5       H        0.89750    0.76520    0.57550    1.000
    H6       H        0.82950    0.67220    0.69390    1.000
    N2       N        0.81230    0.61020    0.38080    1.000
    H7       H        0.79780    0.64600    0.24240    1.000
    H8       H        0.73830    0.55880    0.35610    1.000
    C3       C        0.68330    0.21050    0.95410    1.000
    H9       H        0.60250    0.26520    0.92450    1.000
    H10      H        0.67050    0.17220    0.80610    1.000
    N3       N        0.68770    0.11020    0.11920    1.000
    H11      H        0.70220    0.14600    0.25760    1.000
    H12      H        0.76170    0.05880    0.14390    1.000
    C4       C        0.18330    0.71050    0.95410    1.000
    H13      H        0.10250    0.76520    0.92450    1.000
    H14      H        0.17050    0.67220    0.80610    1.000
    N4       N        0.18770    0.61020    0.11920    1.000
    H15      H        0.20220    0.64600    0.25760    1.000
    H16      H        0.26170    0.55880    0.14390    1.000
    C5       C        0.68330    0.78950    0.45410    1.000
    H17      H        0.60250    0.73480    0.42450    1.000
    H18      H        0.67050    0.82780    0.30610    1.000
    N5       N        0.68770    0.88980    0.61920    1.000
    H19      H        0.70220    0.85400    0.75760    1.000
    H20      H        0.76170    0.94120    0.64390    1.000
    C6       C        0.18330    0.28950    0.45410    1.000
    H21      H        0.10250    0.23480    0.42450    1.000
    H22      H        0.17050    0.32780    0.30610    1.000
    N6       N        0.18770    0.38980    0.61920    1.000
    H23      H        0.20220    0.35400    0.75760    1.000
    H24      H        0.26170    0.44120    0.64390    1.000
    C7       C        0.31670    0.78950    0.04590    1.000
    H25      H        0.39750    0.73480    0.07550    1.000
    H26      H        0.32950    0.82780    0.19390    1.000
    N7       N        0.31230    0.88980    0.88080    1.000
    H27      H        0.29780    0.85400    0.74240    1.000
    H28      H        0.23830    0.94120    0.85610    1.000
    C8       C        0.81670    0.28950    0.04590    1.000
    H29      H        0.89750    0.23480    0.07550    1.000
    H30      H        0.82950    0.32780    0.19390    1.000
    N8       N        0.81230    0.38980    0.88080    1.000
    H31      H        0.79780    0.35400    0.74240    1.000
    H32      H        0.73830    0.44120    0.85610    1.000
    Ag1      Ag       0.50000    0.00000    0.50000    1.000
    Ag2      Ag       0.00000    0.50000    0.50000    1.000
    Ag3      Ag       0.50000    0.00000    0.00000    1.000
    Ag4      Ag       0.00000    0.50000    0.00000    1.000
