data_functionalizedCrystal
_audit_creation_method	'EQeq! by Chris Wilmer'
_symmetry_space_group_name_H-M	'P1'
_symmetry_Int_Tables_number	1
_symmetry_cell_setting	triclinic
loop_
_symmetry_equiv_pos_as_xyz
  x,y,z
_cell_length_a	27.96
_cell_length_b	26.62
_cell_length_c	6.101
_cell_angle_alpha	90
_cell_angle_beta	94.96
_cell_angle_gamma	90
loop_
_atom_site_label
_atom_site_type_symbol
_atom_site_fract_x
_atom_site_fract_y
_atom_site_fract_z
_atom_site_charge
Mof_Cu	Cu	0.753	0.7319	0.3612	0.91
Mof_O 	O 	0.7901	0.7766	0.481	-0.65
Mof_O 	O 	0.9487	0.9438	0.422	-0.472
Mof_O 	O 	0.9535	0.0984	0.116	-0.491
Mof_N 	N 	0.718	0.674	0.206	-0.213
Mof_N 	N 	0.795	0.734	0.136	-0.36
Mof_C 	C 	0.7492	0.6623	0.028	-0.153
Mof_C 	C 	0.7372	0.6234	0.8804	0.089
Mof_C 	C 	0.7635	0.6162	0.6989	-0.148
Mof_C 	C 	0.8019	0.648	0.6648	0.064
Mof_C 	C 	0.8139	0.687	0.8124	-0.235
Mof_C 	C 	0.7875	0.6941	0.994	0.187
Mof_C 	C 	0.827	0.766	0.105	0.453
Mof_C 	C 	0.685	0.646	0.256	0.168
Mof_C 	C 	0.663	0.654	0.418	-0.318
Mof_C 	C 	0.825	0.807	0.44	0.372
Mof_C 	C 	0.849	0.8011	0.258	-0.186
Mof_C 	C 	0.8841	0.8364	0.209	0.127
Mof_C 	C 	0.8968	0.8755	0.345	-0.23
Mof_C 	C 	0.8748	0.879	0.537	0.158
Mof_C 	C 	0.9348	0.9097	0.297	0.453
Mof_H 	H 	0.7111	0.6018	0.9036	0.021
Mof_H 	H 	0.7553	0.5897	0.5984	0.08
Mof_H 	H 	0.8198	0.6431	0.5412	-0.005
Mof_H 	H 	0.84	0.7087	0.7893	0.112
Mof_H 	H 	0.8379	0.7644	0.9622	-0.092
Mof_H 	H 	0.8409	0.7722	0.1736	-0.194
Mof_H 	H 	0.8205	0.8521	0.7111	0.029
Mof_H 	H 	0.6777	0.6178	0.1616	-0.035
Mof_H 	H 	0.8985	0.8317	0.0771	-0.002
Mof_H 	H 	0.8863	0.9053	0.6391	-0.001
Mof_Cu	Cu	0.253	0.2319	0.3612	0.909
Mof_O 	O 	0.2901	0.2766	0.481	-0.651
Mof_O 	O 	0.4487	0.4438	0.422	-0.492
Mof_O 	O 	0.4535	0.5984	0.116	-0.517
Mof_N 	N 	0.218	0.174	0.206	-0.213
Mof_N 	N 	0.295	0.234	0.136	-0.361
Mof_C 	C 	0.2492	0.1623	0.028	-0.154
Mof_C 	C 	0.2372	0.1234	0.8804	0.089
Mof_C 	C 	0.2635	0.1162	0.6989	-0.15
Mof_C 	C 	0.3019	0.148	0.6648	0.063
Mof_C 	C 	0.3139	0.187	0.8124	-0.237
Mof_C 	C 	0.2875	0.1941	0.994	0.187
Mof_C 	C 	0.327	0.266	0.105	0.454
Mof_C 	C 	0.185	0.146	0.256	0.169
Mof_C 	C 	0.163	0.154	0.418	-0.321
Mof_C 	C 	0.325	0.307	0.44	0.374
Mof_C 	C 	0.349	0.3011	0.258	-0.192
Mof_C 	C 	0.3841	0.3364	0.209	0.13
Mof_C 	C 	0.3968	0.3755	0.345	-0.239
Mof_C 	C 	0.3748	0.379	0.537	0.161
Mof_C 	C 	0.4348	0.4097	0.297	0.458
Mof_H 	H 	0.2111	0.1018	0.9036	0.02
Mof_H 	H 	0.2553	0.0897	0.5984	0.079
Mof_H 	H 	0.3198	0.1431	0.5412	-0.008
Mof_H 	H 	0.34	0.2087	0.7893	0.109
Mof_H 	H 	0.3379	0.2644	0.9622	-0.094
Mof_H 	H 	0.3409	0.2722	0.1736	-0.195
Mof_H 	H 	0.3205	0.3521	0.7111	0.03
Mof_H 	H 	0.1777	0.1178	0.1616	-0.036
Mof_H 	H 	0.3985	0.3317	0.0771	-0.009
Mof_H 	H 	0.3863	0.4053	0.6391	-0.004
Mof_Cu	Cu	0.247	0.7319	0.6388	0.909
Mof_O 	O 	0.2099	0.7766	0.519	-0.667
Mof_O 	O 	0.0513	0.9438	0.578	-0.504
Mof_O 	O 	0.0465	0.0984	0.884	-0.491
Mof_N 	N 	0.282	0.674	0.794	-0.237
Mof_N 	N 	0.205	0.734	0.864	-0.25
Mof_C 	C 	0.2508	0.6623	0.972	0.137
Mof_C 	C 	0.2628	0.6234	0.1196	-0.193
Mof_C 	C 	0.2365	0.6162	0.3011	0.042
Mof_C 	C 	0.1981	0.648	0.3352	-0.125
Mof_C 	C 	0.1861	0.687	0.1876	-0.049
Mof_C 	C 	0.2125	0.6941	0.006	-0.096
Mof_C 	C 	0.173	0.766	0.895	0.302
Mof_C 	C 	0.315	0.646	0.744	0.154
Mof_C 	C 	0.337	0.654	0.582	-0.279
Mof_C 	C 	0.175	0.807	0.56	0.427
Mof_C 	C 	0.151	0.8011	0.742	-0.29
Mof_C 	C 	0.1159	0.8364	0.791	0.199
Mof_C 	C 	0.1032	0.8755	0.655	-0.271
Mof_C 	C 	0.1252	0.879	0.463	0.19
Mof_C 	C 	0.0652	0.9097	0.703	0.468
Mof_H 	H 	0.2889	0.6018	0.0964	0.083
Mof_H 	H 	0.2447	0.5897	0.4016	0.013
Mof_H 	H 	0.1802	0.6431	0.4588	0.055
Mof_H 	H 	0.16	0.7087	0.2107	0.031
Mof_H 	H 	0.1621	0.7644	0.0378	-0.097
Mof_H 	H 	0.1591	0.7722	0.8264	-0.033
Mof_H 	H 	0.1795	0.8521	0.2889	0.026
Mof_H 	H 	0.3223	0.6178	0.8384	-0.007
Mof_H 	H 	0.1015	0.8317	0.9229	-0.007
Mof_H 	H 	0.1137	0.9053	0.3609	-0.028
Mof_Cu	Cu	0.747	0.2319	0.6388	0.909
Mof_O 	O 	0.7099	0.2766	0.519	-0.666
Mof_O 	O 	0.5513	0.4438	0.578	-0.491
Mof_O 	O 	0.5465	0.5984	0.884	-0.475
Mof_N 	N 	0.782	0.174	0.794	-0.236
Mof_N 	N 	0.705	0.234	0.864	-0.25
Mof_C 	C 	0.7508	0.1623	0.972	0.136
Mof_C 	C 	0.7628	0.1234	0.1196	-0.191
Mof_C 	C 	0.7365	0.1162	0.3011	0.042
Mof_C 	C 	0.6981	0.148	0.3352	-0.122
Mof_C 	C 	0.6861	0.187	0.1876	-0.048
Mof_C 	C 	0.7125	0.1941	0.006	-0.093
Mof_C 	C 	0.673	0.266	0.895	0.302
Mof_C 	C 	0.815	0.146	0.744	0.153
Mof_C 	C 	0.837	0.154	0.582	-0.274
Mof_C 	C 	0.675	0.307	0.56	0.426
Mof_C 	C 	0.651	0.3011	0.742	-0.284
Mof_C 	C 	0.6159	0.3364	0.791	0.197
Mof_C 	C 	0.6032	0.3755	0.655	-0.264
Mof_C 	C 	0.6252	0.379	0.463	0.188
Mof_C 	C 	0.5652	0.4097	0.703	0.467
Mof_H 	H 	0.7889	0.1018	0.0964	0.083
Mof_H 	H 	0.7447	0.0897	0.4016	0.015
Mof_H 	H 	0.6802	0.1431	0.4588	0.058
Mof_H 	H 	0.66	0.2087	0.2107	0.035
Mof_H 	H 	0.6621	0.2644	0.0378	-0.095
Mof_H 	H 	0.6591	0.2722	0.8264	-0.033
Mof_H 	H 	0.6795	0.3521	0.2889	0.026
Mof_H 	H 	0.8223	0.1178	0.8384	-0.006
Mof_H 	H 	0.6015	0.3317	0.9229	-0.001
Mof_H 	H 	0.6137	0.4053	0.3609	-0.026
Mof_Cu	Cu	0.247	0.2681	0.6388	0.909
Mof_O 	O 	0.2099	0.2234	0.519	-0.667
Mof_O 	O 	0.0513	0.0562	0.578	-0.504
Mof_O 	O 	0.0465	0.9016	0.884	-0.491
Mof_N 	N 	0.282	0.326	0.794	-0.237
Mof_N 	N 	0.205	0.266	0.864	-0.25
Mof_C 	C 	0.2508	0.3377	0.972	0.137
Mof_C 	C 	0.2628	0.3766	0.1196	-0.193
Mof_C 	C 	0.2365	0.3838	0.3011	0.042
Mof_C 	C 	0.1981	0.352	0.3352	-0.125
Mof_C 	C 	0.1861	0.313	0.1876	-0.049
Mof_C 	C 	0.2125	0.3059	0.006	-0.096
Mof_C 	C 	0.173	0.234	0.895	0.302
Mof_C 	C 	0.315	0.354	0.744	0.154
Mof_C 	C 	0.337	0.346	0.582	-0.279
Mof_C 	C 	0.175	0.193	0.56	0.427
Mof_C 	C 	0.151	0.1989	0.742	-0.29
Mof_C 	C 	0.1159	0.1636	0.791	0.199
Mof_C 	C 	0.1032	0.1245	0.655	-0.271
Mof_C 	C 	0.1252	0.121	0.463	0.19
Mof_C 	C 	0.0652	0.0903	0.703	0.468
Mof_H 	H 	0.2889	0.3982	0.0964	0.083
Mof_H 	H 	0.2447	0.4103	0.4016	0.013
Mof_H 	H 	0.1802	0.3569	0.4588	0.055
Mof_H 	H 	0.16	0.2913	0.2107	0.031
Mof_H 	H 	0.1621	0.2356	0.0378	-0.097
Mof_H 	H 	0.1591	0.2278	0.8264	-0.033
Mof_H 	H 	0.1795	0.1479	0.2889	0.026
Mof_H 	H 	0.3223	0.3822	0.8384	-0.007
Mof_H 	H 	0.1015	0.1683	0.9229	-0.007
Mof_H 	H 	0.1137	0.0947	0.3609	-0.028
Mof_Cu	Cu	0.747	0.7681	0.6388	0.909
Mof_O 	O 	0.7099	0.7234	0.519	-0.667
Mof_O 	O 	0.5513	0.5562	0.578	-0.491
Mof_O 	O 	0.5465	0.4016	0.884	-0.475
Mof_N 	N 	0.782	0.826	0.794	-0.236
Mof_N 	N 	0.705	0.766	0.864	-0.25
Mof_C 	C 	0.7508	0.8377	0.972	0.136
Mof_C 	C 	0.7628	0.8766	0.1196	-0.192
Mof_C 	C 	0.7365	0.8838	0.3011	0.042
Mof_C 	C 	0.6981	0.852	0.3352	-0.122
Mof_C 	C 	0.6861	0.813	0.1876	-0.048
Mof_C 	C 	0.7125	0.8059	0.006	-0.093
Mof_C 	C 	0.673	0.734	0.895	0.302
Mof_C 	C 	0.815	0.854	0.744	0.153
Mof_C 	C 	0.837	0.846	0.582	-0.275
Mof_C 	C 	0.675	0.693	0.56	0.426
Mof_C 	C 	0.651	0.6989	0.742	-0.284
Mof_C 	C 	0.6159	0.6636	0.791	0.197
Mof_C 	C 	0.6032	0.6245	0.655	-0.264
Mof_C 	C 	0.6252	0.621	0.463	0.188
Mof_C 	C 	0.5652	0.5903	0.703	0.467
Mof_H 	H 	0.7889	0.8982	0.0964	0.083
Mof_H 	H 	0.7447	0.9103	0.4016	0.014
Mof_H 	H 	0.6802	0.8569	0.4588	0.058
Mof_H 	H 	0.66	0.7913	0.2107	0.035
Mof_H 	H 	0.6621	0.7356	0.0378	-0.095
Mof_H 	H 	0.6591	0.7278	0.8264	-0.033
Mof_H 	H 	0.6795	0.6479	0.2889	0.026
Mof_H 	H 	0.8223	0.8822	0.8384	-0.007
Mof_H 	H 	0.6015	0.6683	0.9229	-0.001
Mof_H 	H 	0.6137	0.5947	0.3609	-0.026
Mof_Cu	Cu	0.753	0.2681	0.3612	0.909
Mof_O 	O 	0.7901	0.2234	0.481	-0.65
Mof_O 	O 	0.9487	0.0562	0.422	-0.47
Mof_O 	O 	0.9535	0.9016	0.116	-0.492
Mof_N 	N 	0.718	0.326	0.206	-0.213
Mof_N 	N 	0.795	0.266	0.136	-0.36
Mof_C 	C 	0.7492	0.3377	0.028	-0.153
Mof_C 	C 	0.7372	0.3766	0.8804	0.089
Mof_C 	C 	0.7635	0.3838	0.6989	-0.148
Mof_C 	C 	0.8019	0.352	0.6648	0.064
Mof_C 	C 	0.8139	0.313	0.8124	-0.235
Mof_C 	C 	0.7875	0.3059	0.994	0.187
Mof_C 	C 	0.827	0.234	0.105	0.453
Mof_C 	C 	0.685	0.354	0.256	0.168
Mof_C 	C 	0.663	0.346	0.418	-0.318
Mof_C 	C 	0.825	0.193	0.44	0.372
Mof_C 	C 	0.849	0.1989	0.258	-0.186
Mof_C 	C 	0.8841	0.1636	0.209	0.127
Mof_C 	C 	0.8968	0.1245	0.345	-0.23
Mof_C 	C 	0.8748	0.121	0.537	0.158
Mof_C 	C 	0.9348	0.0903	0.297	0.452
Mof_H 	H 	0.7111	0.3982	0.9036	0.021
Mof_H 	H 	0.7553	0.4103	0.5984	0.08
Mof_H 	H 	0.8198	0.3569	0.5412	-0.005
Mof_H 	H 	0.84	0.2913	0.7893	0.112
Mof_H 	H 	0.8379	0.2356	0.9622	-0.092
Mof_H 	H 	0.8409	0.2278	0.1736	-0.194
Mof_H 	H 	0.8205	0.1479	0.7111	0.029
Mof_H 	H 	0.6777	0.3822	0.1616	-0.035
Mof_H 	H 	0.8985	0.1683	0.0771	-0.002
Mof_H 	H 	0.8863	0.0947	0.6391	-0.001
Mof_Cu	Cu	0.253	0.7681	0.3612	0.909
Mof_O 	O 	0.2901	0.7234	0.481	-0.651
Mof_O 	O 	0.4487	0.5562	0.422	-0.492
Mof_O 	O 	0.4535	0.4016	0.116	-0.517
Mof_N 	N 	0.218	0.826	0.206	-0.213
Mof_N 	N 	0.295	0.766	0.136	-0.361
Mof_C 	C 	0.2492	0.8377	0.028	-0.154
Mof_C 	C 	0.2372	0.8766	0.8804	0.089
Mof_C 	C 	0.2635	0.8838	0.6989	-0.15
Mof_C 	C 	0.3019	0.852	0.6648	0.063
Mof_C 	C 	0.3139	0.813	0.8124	-0.237
Mof_C 	C 	0.2875	0.8059	0.994	0.187
Mof_C 	C 	0.327	0.734	0.105	0.454
Mof_C 	C 	0.185	0.854	0.256	0.169
Mof_C 	C 	0.163	0.846	0.418	-0.322
Mof_C 	C 	0.325	0.693	0.44	0.374
Mof_C 	C 	0.349	0.6989	0.258	-0.192
Mof_C 	C 	0.3841	0.6636	0.209	0.13
Mof_C 	C 	0.3968	0.6245	0.345	-0.24
Mof_C 	C 	0.3748	0.621	0.537	0.161
Mof_C 	C 	0.4348	0.5903	0.297	0.458
Mof_H 	H 	0.2111	0.8982	0.9036	0.02
Mof_H 	H 	0.2553	0.9103	0.5984	0.079
Mof_H 	H 	0.3198	0.8569	0.5412	-0.009
Mof_H 	H 	0.34	0.7913	0.7893	0.109
Mof_H 	H 	0.3379	0.7356	0.9622	-0.094
Mof_H 	H 	0.3409	0.7278	0.1736	-0.195
Mof_H 	H 	0.3205	0.6479	0.7111	0.03
Mof_H 	H 	0.1777	0.8822	0.1616	-0.036
Mof_H 	H 	0.3985	0.6683	0.0771	-0.009
Mof_H 	H 	0.3863	0.5947	0.6391	-0.004
Mof_Zn	Zn	4.44436e-34	1.395e-33	0.5	1.222
Mof_Zn	Zn	0.5	0.5	0.5	1.239
Mof_Zn	Zn	-6.97499e-34	0.0546	-0	1.182
Mof_Zn	Zn	0.5	0.5546	-0	1.199
Mof_Zn	Zn	-1.116e-32	0.9454	-0	1.182
Mof_Zn	Zn	0.5	0.4454	-0	1.199
Mof_O 	O 	0.0271	0	0.198	-0.692
Mof_O 	O 	0.5271	0.5	0.198	-0.675
Mof_O 	O 	0.9729	-1.395e-33	0.802	-0.596
Mof_O 	O 	0.4729	0.5	0.802	-0.633
_end
