# CIF file generated by openbabel 3.1.0, see https://openbabel.org
data_I
_chemical_name_common 'image0'
_cell_length_a 24.9239
_cell_length_b 24.9239
_cell_length_c 24.9239
_cell_angle_alpha 90
_cell_angle_beta 90
_cell_angle_gamma 90
_space_group_name_H-M_alt 'P 1'
_space_group_name_Hall 'P 1'
loop_
    _symmetry_equiv_pos_as_xyz
    x,y,z
loop_
    _atom_site_label
    _atom_site_type_symbol
    _atom_site_fract_x
    _atom_site_fract_y
    _atom_site_fract_z
    _atom_site_occupancy
    Ni1      Ni       0.08048    0.08987    0.17319    1.000
    Ni2      Ni       0.16717    0.00013    0.18467    1.000
    Ni3      Ni       0.12929    0.07022    0.43545    1.000
    Ni4      Ni       0.02773    0.00438    0.40357    1.000
    W1       W        0.14632    0.94559    0.05344    1.000
    W2       W        0.05262    0.94290    0.95188    1.000
    W3       W        0.15408    0.03758    0.95338    1.000
    W4       W        0.97485    0.10682    0.64431    1.000
    W5       W        0.08992    0.09962    0.56866    1.000
    W6       W        0.05022    0.99048    0.63998    1.000
    W7       W        0.10507    0.04908    0.29943    1.000
    O1       O        0.16800    0.99820    0.09850    1.000
    O2       O        0.10465    0.99192    0.42658    1.000
    O3       O        0.08060    0.09760    0.25380    1.000
    O4       O        0.16100    0.08002    0.16962    1.000
    O5       O        0.08250    0.00600    0.17530    1.000
    O6       O        0.08580    0.01070    0.01630    1.000
    O7       O        0.08650    0.93000    0.10010    1.000
    O8       O        0.04590    0.08238    0.42430    1.000
    O9       O        0.11090    0.05290    0.51690    1.000
    O10      O        0.10030    0.04920    0.62390    1.000
    O11      O        0.94030    0.14340    0.58750    1.000
    O12      O        0.99900    0.92970    0.00540    1.000
    O13      O        0.98470    0.95260    0.63890    1.000
    O14      O        0.18220    0.97750    0.99350    1.000
    O15      O        0.13780    0.08340    0.35290    1.000
    O16      O        0.04020    0.13430    0.62200    1.000
    O17      O        0.01100    0.04880    0.67760    1.000
    O18      O        0.10300    0.90810    0.99650    1.000
    O19      O        0.05160    0.01100    0.32470    1.000
    O20      O        0.10920    0.98060    0.91790    1.000
    O21      O        0.15390    0.00810    0.26750    1.000
    O22      O        0.00770    0.04600    0.57310    1.000
    N1       N        0.17540    0.91740    0.19400    1.000
    H1       H        0.15360    0.90580    0.22030    1.000
    H2       H        0.16620    0.90060    0.16340    1.000
    N2       N        0.25000    0.99860    0.18570    1.000
    H3       H        0.26320    0.02060    0.16030    1.000
    H4       H        0.26230    0.00950    0.21790    1.000
    N3       N        0.20930    0.05420    0.44450    1.000
    H5       H        0.21440    0.02910    0.46990    1.000
    H6       H        0.22340    0.04230    0.41350    1.000
    N4       N        0.15330    0.14950    0.44900    1.000
    H7       H        0.14380    0.17030    0.42110    1.000
    H8       H        0.13730    0.16230    0.47870    1.000
    C1       C        0.23200    0.90530    0.20760    1.000
    H9       H        0.23770    0.91230    0.24580    1.000
    C2       C        0.26680    0.94300    0.17540    1.000
    H10      H        0.30410    0.93850    0.18550    1.000
    H11      H        0.26340    0.93510    0.13740    1.000
    C3       C        0.24550    0.84680    0.19620    1.000
    H12      H        0.22420    0.82410    0.21880    1.000
    H13      H        0.28290    0.84070    0.20330    1.000
    H14      H        0.23800    0.83890    0.15920    1.000
    C4       C        0.21100    0.15010    0.45560    1.000
    H15      H        0.21840    0.15330    0.41710    1.000
    C5       C        0.23460    0.10470    0.46030    1.000
    H16      H        0.24430    0.10110    0.49780    1.000
    H17      H        0.26790    0.10730    0.44040    1.000
    C6       C        0.23670    0.20260    0.46970    1.000
    H18      H        0.27480    0.19800    0.47230    1.000
    H19      H        0.22280    0.21500    0.50340    1.000
    H20      H        0.22880    0.22850    0.44220    1.000
    Ni5      Ni       0.41952    0.91013    0.67319    1.000
    Ni6      Ni       0.33283    0.99987    0.68467    1.000
    Ni7      Ni       0.37071    0.92978    0.93545    1.000
    Ni8      Ni       0.47227    0.99562    0.90357    1.000
    W8       W        0.35368    0.05441    0.55344    1.000
    W9       W        0.44738    0.05710    0.45188    1.000
    W10      W        0.34592    0.96242    0.45338    1.000
    W11      W        0.52515    0.89318    0.14431    1.000
    W12      W        0.41008    0.90038    0.06866    1.000
    W13      W        0.44978    0.00952    0.13998    1.000
    W14      W        0.39493    0.95092    0.79943    1.000
    O23      O        0.33200    0.00180    0.59850    1.000
    O24      O        0.39535    0.00808    0.92658    1.000
    O25      O        0.41940    0.90240    0.75380    1.000
    O26      O        0.33900    0.91998    0.66962    1.000
    O27      O        0.41750    0.99400    0.67530    1.000
    O28      O        0.41420    0.98930    0.51630    1.000
    O29      O        0.41350    0.07000    0.60010    1.000
    O30      O        0.45410    0.91762    0.92430    1.000
    O31      O        0.38910    0.94710    0.01690    1.000
    O32      O        0.39970    0.95080    0.12390    1.000
    O33      O        0.55970    0.85660    0.08750    1.000
    O34      O        0.50100    0.07030    0.50540    1.000
    O35      O        0.51530    0.04740    0.13890    1.000
    O36      O        0.31780    0.02250    0.49350    1.000
    O37      O        0.36220    0.91660    0.85290    1.000
    O38      O        0.45980    0.86570    0.12200    1.000
    O39      O        0.48900    0.95120    0.17760    1.000
    O40      O        0.39700    0.09190    0.49650    1.000
    O41      O        0.44840    0.98900    0.82470    1.000
    O42      O        0.39080    0.01940    0.41790    1.000
    O43      O        0.34610    0.99190    0.76750    1.000
    O44      O        0.49230    0.95400    0.07310    1.000
    N5       N        0.32460    0.08260    0.69400    1.000
    H21      H        0.34640    0.09420    0.72030    1.000
    H22      H        0.33380    0.09940    0.66340    1.000
    N6       N        0.25000    0.00140    0.68570    1.000
    H23      H        0.23680    0.97940    0.66030    1.000
    H24      H        0.23770    0.99050    0.71790    1.000
    N7       N        0.29070    0.94580    0.94450    1.000
    H25      H        0.28560    0.97090    0.96990    1.000
    H26      H        0.27660    0.95770    0.91350    1.000
    N8       N        0.34670    0.85050    0.94900    1.000
    H27      H        0.35620    0.82970    0.92110    1.000
    H28      H        0.36270    0.83770    0.97870    1.000
    C7       C        0.26800    0.09470    0.70760    1.000
    H29      H        0.26230    0.08770    0.74580    1.000
    C8       C        0.23320    0.05700    0.67540    1.000
    H30      H        0.19590    0.06150    0.68550    1.000
    H31      H        0.23660    0.06490    0.63740    1.000
    C9       C        0.25450    0.15320    0.69620    1.000
    H32      H        0.27580    0.17590    0.71880    1.000
    H33      H        0.21710    0.15930    0.70330    1.000
    H34      H        0.26200    0.16110    0.65920    1.000
    C10      C        0.28900    0.84990    0.95560    1.000
    H35      H        0.28160    0.84670    0.91710    1.000
    C11      C        0.26540    0.89530    0.96030    1.000
    H36      H        0.25570    0.89890    0.99780    1.000
    H37      H        0.23210    0.89270    0.94040    1.000
    C12      C        0.26330    0.79740    0.96970    1.000
    H38      H        0.22520    0.80200    0.97230    1.000
    H39      H        0.27720    0.78500    0.00340    1.000
    H40      H        0.27120    0.77150    0.94220    1.000
    Ni9      Ni       0.91952    0.58987    0.32681    1.000
    Ni10     Ni       0.83283    0.50013    0.31533    1.000
    Ni11     Ni       0.87071    0.57022    0.06455    1.000
    Ni12     Ni       0.97227    0.50438    0.09643    1.000
    W15      W        0.85368    0.44559    0.44656    1.000
    W16      W        0.94738    0.44290    0.54811    1.000
    W17      W        0.84592    0.53758    0.54662    1.000
    W18      W        0.02515    0.60682    0.85569    1.000
    W19      W        0.91008    0.59962    0.93134    1.000
    W20      W        0.94978    0.49048    0.86002    1.000
    W21      W        0.89493    0.54908    0.20057    1.000
    O45      O        0.83200    0.49820    0.40150    1.000
    O46      O        0.89535    0.49192    0.07342    1.000
    O47      O        0.91940    0.59760    0.24620    1.000
    O48      O        0.83900    0.58002    0.33038    1.000
    O49      O        0.91750    0.50600    0.32470    1.000
    O50      O        0.91420    0.51070    0.48370    1.000
    O51      O        0.91350    0.43000    0.39990    1.000
    O52      O        0.95410    0.58238    0.07570    1.000
    O53      O        0.88910    0.55290    0.98310    1.000
    O54      O        0.89970    0.54920    0.87610    1.000
    O55      O        0.05970    0.64340    0.91250    1.000
    O56      O        0.00100    0.42970    0.49460    1.000
    O57      O        0.01530    0.45260    0.86110    1.000
    O58      O        0.81780    0.47750    0.50650    1.000
    O59      O        0.86220    0.58340    0.14710    1.000
    O60      O        0.95980    0.63430    0.87800    1.000
    O61      O        0.98900    0.54880    0.82240    1.000
    O62      O        0.89700    0.40810    0.50350    1.000
    O63      O        0.94840    0.51100    0.17530    1.000
    O64      O        0.89080    0.48060    0.58210    1.000
    O65      O        0.84610    0.50810    0.23250    1.000
    O66      O        0.99230    0.54600    0.92690    1.000
    N9       N        0.82460    0.41740    0.30600    1.000
    H41      H        0.84640    0.40580    0.27970    1.000
    H42      H        0.83380    0.40060    0.33660    1.000
    N10      N        0.75000    0.49860    0.31430    1.000
    H43      H        0.73680    0.52060    0.33970    1.000
    H44      H        0.73770    0.50950    0.28210    1.000
    N11      N        0.79070    0.55420    0.05550    1.000
    H45      H        0.78560    0.52910    0.03010    1.000
    H46      H        0.77660    0.54230    0.08650    1.000
    N12      N        0.84670    0.64950    0.05100    1.000
    H47      H        0.85620    0.67030    0.07890    1.000
    H48      H        0.86270    0.66230    0.02130    1.000
    C13      C        0.76800    0.40530    0.29240    1.000
    H49      H        0.76230    0.41230    0.25420    1.000
    C14      C        0.73320    0.44300    0.32460    1.000
    H50      H        0.69590    0.43850    0.31450    1.000
    H51      H        0.73660    0.43510    0.36260    1.000
    C15      C        0.75450    0.34680    0.30380    1.000
    H52      H        0.77580    0.32410    0.28120    1.000
    H53      H        0.71710    0.34070    0.29670    1.000
    H54      H        0.76200    0.33890    0.34080    1.000
    C16      C        0.78900    0.65010    0.04440    1.000
    H55      H        0.78160    0.65330    0.08290    1.000
    C17      C        0.76540    0.60470    0.03970    1.000
    H56      H        0.75570    0.60110    0.00220    1.000
    H57      H        0.73210    0.60730    0.05960    1.000
    C18      C        0.76330    0.70260    0.03030    1.000
    H58      H        0.72520    0.69800    0.02770    1.000
    H59      H        0.77720    0.71500    0.99660    1.000
    H60      H        0.77120    0.72850    0.05780    1.000
    Ni13     Ni       0.58048    0.41013    0.82681    1.000
    Ni14     Ni       0.66717    0.49987    0.81533    1.000
    Ni15     Ni       0.62929    0.42978    0.56455    1.000
    Ni16     Ni       0.52773    0.49562    0.59643    1.000
    W22      W        0.64632    0.55441    0.94656    1.000
    W23      W        0.55262    0.55710    0.04811    1.000
    W24      W        0.65408    0.46242    0.04662    1.000
    W25      W        0.47485    0.39318    0.35569    1.000
    W26      W        0.58992    0.40038    0.43134    1.000
    W27      W        0.55022    0.50952    0.36002    1.000
    W28      W        0.60507    0.45092    0.70057    1.000
    O67      O        0.66800    0.50180    0.90150    1.000
    O68      O        0.60465    0.50808    0.57342    1.000
    O69      O        0.58060    0.40240    0.74620    1.000
    O70      O        0.66100    0.41998    0.83038    1.000
    O71      O        0.58250    0.49400    0.82470    1.000
    O72      O        0.58580    0.48930    0.98370    1.000
    O73      O        0.58650    0.57000    0.89990    1.000
    O74      O        0.54590    0.41762    0.57570    1.000
    O75      O        0.61090    0.44710    0.48310    1.000
    O76      O        0.60030    0.45080    0.37610    1.000
    O77      O        0.44030    0.35660    0.41250    1.000
    O78      O        0.49900    0.57030    0.99460    1.000
    O79      O        0.48470    0.54740    0.36110    1.000
    O80      O        0.68220    0.52250    0.00650    1.000
    O81      O        0.63780    0.41660    0.64710    1.000
    O82      O        0.54020    0.36570    0.37800    1.000
    O83      O        0.51100    0.45120    0.32240    1.000
    O84      O        0.60300    0.59190    0.00350    1.000
    O85      O        0.55160    0.48900    0.67530    1.000
    O86      O        0.60920    0.51940    0.08210    1.000
    O87      O        0.65390    0.49190    0.73250    1.000
    O88      O        0.50770    0.45400    0.42690    1.000
    N13      N        0.67540    0.58260    0.80600    1.000
    H61      H        0.65360    0.59420    0.77970    1.000
    H62      H        0.66620    0.59940    0.83660    1.000
    N14      N        0.75000    0.50140    0.81430    1.000
    H63      H        0.76320    0.47940    0.83970    1.000
    H64      H        0.76230    0.49050    0.78210    1.000
    N15      N        0.70930    0.44580    0.55550    1.000
    H65      H        0.71440    0.47090    0.53010    1.000
    H66      H        0.72340    0.45770    0.58650    1.000
    N16      N        0.65330    0.35050    0.55100    1.000
    H67      H        0.64380    0.32970    0.57890    1.000
    H68      H        0.63730    0.33770    0.52130    1.000
    C19      C        0.73200    0.59470    0.79240    1.000
    H69      H        0.73770    0.58770    0.75420    1.000
    C20      C        0.76680    0.55700    0.82460    1.000
    H70      H        0.80410    0.56150    0.81450    1.000
    H71      H        0.76340    0.56490    0.86260    1.000
    C21      C        0.74550    0.65320    0.80380    1.000
    H72      H        0.72420    0.67590    0.78120    1.000
    H73      H        0.78290    0.65930    0.79670    1.000
    H74      H        0.73800    0.66110    0.84080    1.000
    C22      C        0.71100    0.34990    0.54440    1.000
    H75      H        0.71840    0.34670    0.58290    1.000
    C23      C        0.73460    0.39530    0.53970    1.000
    H76      H        0.74430    0.39890    0.50220    1.000
    H77      H        0.76790    0.39270    0.55960    1.000
    C24      C        0.73670    0.29740    0.53030    1.000
    H78      H        0.77480    0.30200    0.52770    1.000
    H79      H        0.72280    0.28500    0.49660    1.000
    H80      H        0.72880    0.27150    0.55780    1.000
    Ni17     Ni       0.17319    0.08048    0.08987    1.000
    Ni18     Ni       0.18467    0.16717    0.00013    1.000
    Ni19     Ni       0.43545    0.12929    0.07022    1.000
    Ni20     Ni       0.40357    0.02773    0.00438    1.000
    W29      W        0.05344    0.14632    0.94559    1.000
    W30      W        0.95188    0.05262    0.94290    1.000
    W31      W        0.95338    0.15408    0.03758    1.000
    W32      W        0.64431    0.97485    0.10682    1.000
    W33      W        0.56866    0.08992    0.09962    1.000
    W34      W        0.63998    0.05022    0.99048    1.000
    W35      W        0.29943    0.10507    0.04908    1.000
    O89      O        0.09850    0.16800    0.99820    1.000
    O90      O        0.42658    0.10465    0.99192    1.000
    O91      O        0.25380    0.08060    0.09760    1.000
    O92      O        0.16962    0.16100    0.08002    1.000
    O93      O        0.17530    0.08250    0.00600    1.000
    O94      O        0.01630    0.08580    0.01070    1.000
    O95      O        0.10010    0.08650    0.93000    1.000
    O96      O        0.42430    0.04590    0.08238    1.000
    O97      O        0.51690    0.11090    0.05290    1.000
    O98      O        0.62390    0.10030    0.04920    1.000
    O99      O        0.58750    0.94030    0.14340    1.000
    O100     O        0.00540    0.99900    0.92970    1.000
    O101     O        0.63890    0.98470    0.95260    1.000
    O102     O        0.99350    0.18220    0.97750    1.000
    O103     O        0.35290    0.13780    0.08340    1.000
    O104     O        0.62200    0.04020    0.13430    1.000
    O105     O        0.67760    0.01100    0.04880    1.000
    O106     O        0.99650    0.10300    0.90810    1.000
    O107     O        0.32470    0.05160    0.01100    1.000
    O108     O        0.91790    0.10920    0.98060    1.000
    O109     O        0.26750    0.15390    0.00810    1.000
    O110     O        0.57310    0.00770    0.04600    1.000
    N17      N        0.19400    0.17540    0.91740    1.000
    H81      H        0.22030    0.15360    0.90580    1.000
    H82      H        0.16340    0.16620    0.90060    1.000
    N18      N        0.18570    0.25000    0.99860    1.000
    H83      H        0.16030    0.26320    0.02060    1.000
    H84      H        0.21790    0.26230    0.00950    1.000
    N19      N        0.44450    0.20930    0.05420    1.000
    H85      H        0.46990    0.21440    0.02910    1.000
    H86      H        0.41350    0.22340    0.04230    1.000
    N20      N        0.44900    0.15330    0.14950    1.000
    H87      H        0.42110    0.14380    0.17030    1.000
    H88      H        0.47870    0.13730    0.16230    1.000
    C25      C        0.20760    0.23200    0.90530    1.000
    H89      H        0.24580    0.23770    0.91230    1.000
    C26      C        0.17540    0.26680    0.94300    1.000
    H90      H        0.18550    0.30410    0.93850    1.000
    H91      H        0.13740    0.26340    0.93510    1.000
    C27      C        0.19620    0.24550    0.84680    1.000
    H92      H        0.21880    0.22420    0.82410    1.000
    H93      H        0.20330    0.28290    0.84070    1.000
    H94      H        0.15920    0.23800    0.83890    1.000
    C28      C        0.45560    0.21100    0.15010    1.000
    H95      H        0.41710    0.21840    0.15330    1.000
    C29      C        0.46030    0.23460    0.10470    1.000
    H96      H        0.49780    0.24430    0.10110    1.000
    H97      H        0.44040    0.26790    0.10730    1.000
    C30      C        0.46970    0.23670    0.20260    1.000
    H98      H        0.47230    0.27480    0.19800    1.000
    H99      H        0.50340    0.22280    0.21500    1.000
    H100     H        0.44220    0.22880    0.22850    1.000
    Ni21     Ni       0.67319    0.41952    0.91013    1.000
    Ni22     Ni       0.68467    0.33283    0.99987    1.000
    Ni23     Ni       0.93545    0.37071    0.92978    1.000
    Ni24     Ni       0.90357    0.47227    0.99562    1.000
    W36      W        0.55344    0.35368    0.05441    1.000
    W37      W        0.45189    0.44738    0.05710    1.000
    W38      W        0.45338    0.34592    0.96242    1.000
    W39      W        0.14431    0.52515    0.89318    1.000
    W40      W        0.06866    0.41008    0.90038    1.000
    W41      W        0.13998    0.44978    0.00952    1.000
    W42      W        0.79943    0.39493    0.95092    1.000
    O111     O        0.59850    0.33200    0.00180    1.000
    O112     O        0.92658    0.39535    0.00808    1.000
    O113     O        0.75380    0.41940    0.90240    1.000
    O114     O        0.66962    0.33900    0.91998    1.000
    O115     O        0.67530    0.41750    0.99400    1.000
    O116     O        0.51630    0.41420    0.98930    1.000
    O117     O        0.60010    0.41350    0.07000    1.000
    O118     O        0.92430    0.45410    0.91762    1.000
    O119     O        0.01690    0.38910    0.94710    1.000
    O120     O        0.12390    0.39970    0.95080    1.000
    O121     O        0.08750    0.55970    0.85660    1.000
    O122     O        0.50540    0.50100    0.07030    1.000
    O123     O        0.13890    0.51530    0.04740    1.000
    O124     O        0.49350    0.31780    0.02250    1.000
    O125     O        0.85290    0.36220    0.91660    1.000
    O126     O        0.12200    0.45980    0.86570    1.000
    O127     O        0.17760    0.48900    0.95120    1.000
    O128     O        0.49650    0.39700    0.09190    1.000
    O129     O        0.82470    0.44840    0.98900    1.000
    O130     O        0.41790    0.39080    0.01940    1.000
    O131     O        0.76750    0.34610    0.99190    1.000
    O132     O        0.07310    0.49230    0.95400    1.000
    N21      N        0.69400    0.32460    0.08260    1.000
    H101     H        0.72030    0.34640    0.09420    1.000
    H102     H        0.66340    0.33380    0.09940    1.000
    N22      N        0.68570    0.25000    0.00140    1.000
    H103     H        0.66030    0.23680    0.97940    1.000
    H104     H        0.71790    0.23770    0.99050    1.000
    N23      N        0.94450    0.29070    0.94580    1.000
    H105     H        0.96990    0.28560    0.97090    1.000
    H106     H        0.91350    0.27660    0.95770    1.000
    N24      N        0.94900    0.34670    0.85050    1.000
    H107     H        0.92110    0.35620    0.82970    1.000
    H108     H        0.97870    0.36270    0.83770    1.000
    C31      C        0.70760    0.26800    0.09470    1.000
    H109     H        0.74580    0.26230    0.08770    1.000
    C32      C        0.67540    0.23320    0.05700    1.000
    H110     H        0.68550    0.19590    0.06150    1.000
    H111     H        0.63740    0.23660    0.06490    1.000
    C33      C        0.69620    0.25450    0.15320    1.000
    H112     H        0.71880    0.27580    0.17590    1.000
    H113     H        0.70330    0.21710    0.15930    1.000
    H114     H        0.65920    0.26200    0.16110    1.000
    C34      C        0.95560    0.28900    0.84990    1.000
    H115     H        0.91710    0.28160    0.84670    1.000
    C35      C        0.96030    0.26540    0.89530    1.000
    H116     H        0.99780    0.25570    0.89890    1.000
    H117     H        0.94040    0.23210    0.89270    1.000
    C36      C        0.96970    0.26330    0.79740    1.000
    H118     H        0.97230    0.22520    0.80200    1.000
    H119     H        0.00340    0.27720    0.78500    1.000
    H120     H        0.94220    0.27120    0.77150    1.000
    Ni25     Ni       0.32681    0.91952    0.58987    1.000
    Ni26     Ni       0.31533    0.83283    0.50013    1.000
    Ni27     Ni       0.06455    0.87071    0.57022    1.000
    Ni28     Ni       0.09643    0.97227    0.50438    1.000
    W43      W        0.44656    0.85368    0.44559    1.000
    W44      W        0.54811    0.94738    0.44290    1.000
    W45      W        0.54662    0.84592    0.53758    1.000
    W46      W        0.85569    0.02515    0.60682    1.000
    W47      W        0.93134    0.91008    0.59962    1.000
    W48      W        0.86002    0.94978    0.49048    1.000
    W49      W        0.20057    0.89493    0.54908    1.000
    O133     O        0.40150    0.83200    0.49820    1.000
    O134     O        0.07342    0.89535    0.49192    1.000
    O135     O        0.24620    0.91940    0.59760    1.000
    O136     O        0.33038    0.83900    0.58002    1.000
    O137     O        0.32470    0.91750    0.50600    1.000
    O138     O        0.48370    0.91420    0.51070    1.000
    O139     O        0.39990    0.91350    0.43000    1.000
    O140     O        0.07570    0.95410    0.58238    1.000
    O141     O        0.98310    0.88910    0.55290    1.000
    O142     O        0.87610    0.89970    0.54920    1.000
    O143     O        0.91250    0.05970    0.64340    1.000
    O144     O        0.49460    0.00100    0.42970    1.000
    O145     O        0.86110    0.01530    0.45260    1.000
    O146     O        0.50650    0.81780    0.47750    1.000
    O147     O        0.14710    0.86220    0.58340    1.000
    O148     O        0.87800    0.95980    0.63430    1.000
    O149     O        0.82240    0.98900    0.54880    1.000
    O150     O        0.50350    0.89700    0.40810    1.000
    O151     O        0.17530    0.94840    0.51100    1.000
    O152     O        0.58210    0.89080    0.48060    1.000
    O153     O        0.23250    0.84610    0.50810    1.000
    O154     O        0.92690    0.99230    0.54600    1.000
    N25      N        0.30600    0.82460    0.41740    1.000
    H121     H        0.27970    0.84640    0.40580    1.000
    H122     H        0.33660    0.83380    0.40060    1.000
    N26      N        0.31430    0.75000    0.49860    1.000
    H123     H        0.33970    0.73680    0.52060    1.000
    H124     H        0.28210    0.73770    0.50950    1.000
    N27      N        0.05550    0.79070    0.55420    1.000
    H125     H        0.03010    0.78560    0.52910    1.000
    H126     H        0.08650    0.77660    0.54230    1.000
    N28      N        0.05100    0.84670    0.64950    1.000
    H127     H        0.07890    0.85620    0.67030    1.000
    H128     H        0.02130    0.86270    0.66230    1.000
    C37      C        0.29240    0.76800    0.40530    1.000
    H129     H        0.25420    0.76230    0.41230    1.000
    C38      C        0.32460    0.73320    0.44300    1.000
    H130     H        0.31450    0.69590    0.43850    1.000
    H131     H        0.36260    0.73660    0.43510    1.000
    C39      C        0.30380    0.75450    0.34680    1.000
    H132     H        0.28120    0.77580    0.32410    1.000
    H133     H        0.29670    0.71710    0.34070    1.000
    H134     H        0.34080    0.76200    0.33890    1.000
    C40      C        0.04440    0.78900    0.65010    1.000
    H135     H        0.08290    0.78160    0.65330    1.000
    C41      C        0.03970    0.76540    0.60470    1.000
    H136     H        0.00220    0.75570    0.60110    1.000
    H137     H        0.05960    0.73210    0.60730    1.000
    C42      C        0.03030    0.76330    0.70260    1.000
    H138     H        0.02770    0.72520    0.69800    1.000
    H139     H        0.99660    0.77720    0.71500    1.000
    H140     H        0.05780    0.77120    0.72850    1.000
    Ni29     Ni       0.82681    0.58048    0.41013    1.000
    Ni30     Ni       0.81533    0.66717    0.49987    1.000
    Ni31     Ni       0.56455    0.62929    0.42978    1.000
    Ni32     Ni       0.59643    0.52773    0.49562    1.000
    W50      W        0.94656    0.64632    0.55441    1.000
    W51      W        0.04811    0.55262    0.55710    1.000
    W52      W        0.04662    0.65408    0.46242    1.000
    W53      W        0.35569    0.47485    0.39318    1.000
    W54      W        0.43134    0.58992    0.40038    1.000
    W55      W        0.36002    0.55022    0.50952    1.000
    W56      W        0.70057    0.60507    0.45092    1.000
    O155     O        0.90150    0.66800    0.50180    1.000
    O156     O        0.57342    0.60465    0.50808    1.000
    O157     O        0.74620    0.58060    0.40240    1.000
    O158     O        0.83038    0.66100    0.41998    1.000
    O159     O        0.82470    0.58250    0.49400    1.000
    O160     O        0.98370    0.58580    0.48930    1.000
    O161     O        0.89990    0.58650    0.57000    1.000
    O162     O        0.57570    0.54590    0.41762    1.000
    O163     O        0.48310    0.61090    0.44710    1.000
    O164     O        0.37610    0.60030    0.45080    1.000
    O165     O        0.41250    0.44030    0.35660    1.000
    O166     O        0.99460    0.49900    0.57030    1.000
    O167     O        0.36110    0.48470    0.54740    1.000
    O168     O        0.00650    0.68220    0.52250    1.000
    O169     O        0.64710    0.63780    0.41660    1.000
    O170     O        0.37800    0.54020    0.36570    1.000
    O171     O        0.32240    0.51100    0.45120    1.000
    O172     O        0.00350    0.60300    0.59190    1.000
    O173     O        0.67530    0.55160    0.48900    1.000
    O174     O        0.08210    0.60920    0.51940    1.000
    O175     O        0.73250    0.65390    0.49190    1.000
    O176     O        0.42690    0.50770    0.45400    1.000
    N29      N        0.80600    0.67540    0.58260    1.000
    H141     H        0.77970    0.65360    0.59420    1.000
    H142     H        0.83660    0.66620    0.59940    1.000
    N30      N        0.81430    0.75000    0.50140    1.000
    H143     H        0.83970    0.76320    0.47940    1.000
    H144     H        0.78210    0.76230    0.49050    1.000
    N31      N        0.55550    0.70930    0.44580    1.000
    H145     H        0.53010    0.71440    0.47090    1.000
    H146     H        0.58650    0.72340    0.45770    1.000
    N32      N        0.55100    0.65330    0.35050    1.000
    H147     H        0.57890    0.64380    0.32970    1.000
    H148     H        0.52130    0.63730    0.33770    1.000
    C43      C        0.79240    0.73200    0.59470    1.000
    H149     H        0.75420    0.73770    0.58770    1.000
    C44      C        0.82460    0.76680    0.55700    1.000
    H150     H        0.81450    0.80410    0.56150    1.000
    H151     H        0.86260    0.76340    0.56490    1.000
    C45      C        0.80380    0.74550    0.65320    1.000
    H152     H        0.78120    0.72420    0.67590    1.000
    H153     H        0.79670    0.78290    0.65930    1.000
    H154     H        0.84080    0.73800    0.66110    1.000
    C46      C        0.54440    0.71100    0.34990    1.000
    H155     H        0.58290    0.71840    0.34670    1.000
    C47      C        0.53970    0.73460    0.39530    1.000
    H156     H        0.50220    0.74430    0.39890    1.000
    H157     H        0.55960    0.76790    0.39270    1.000
    C48      C        0.53030    0.73670    0.29740    1.000
    H158     H        0.52770    0.77480    0.30200    1.000
    H159     H        0.49660    0.72280    0.28500    1.000
    H160     H        0.55780    0.72880    0.27150    1.000
    Ni33     Ni       0.08987    0.17319    0.08048    1.000
    Ni34     Ni       0.00013    0.18467    0.16717    1.000
    Ni35     Ni       0.07022    0.43545    0.12929    1.000
    Ni36     Ni       0.00438    0.40357    0.02773    1.000
    W57      W        0.94559    0.05344    0.14632    1.000
    W58      W        0.94290    0.95188    0.05262    1.000
    W59      W        0.03758    0.95338    0.15408    1.000
    W60      W        0.10682    0.64431    0.97485    1.000
    W61      W        0.09962    0.56866    0.08992    1.000
    W62      W        0.99048    0.63998    0.05022    1.000
    W63      W        0.04908    0.29943    0.10507    1.000
    O177     O        0.99820    0.09850    0.16800    1.000
    O178     O        0.99192    0.42658    0.10465    1.000
    O179     O        0.09760    0.25380    0.08060    1.000
    O180     O        0.08002    0.16962    0.16100    1.000
    O181     O        0.00600    0.17530    0.08250    1.000
    O182     O        0.01070    0.01630    0.08580    1.000
    O183     O        0.93000    0.10010    0.08650    1.000
    O184     O        0.08238    0.42430    0.04590    1.000
    O185     O        0.05290    0.51690    0.11090    1.000
    O186     O        0.04920    0.62390    0.10030    1.000
    O187     O        0.14340    0.58750    0.94030    1.000
    O188     O        0.92970    0.00540    0.99900    1.000
    O189     O        0.95260    0.63890    0.98470    1.000
    O190     O        0.97750    0.99350    0.18220    1.000
    O191     O        0.08340    0.35290    0.13780    1.000
    O192     O        0.13430    0.62200    0.04020    1.000
    O193     O        0.04880    0.67760    0.01100    1.000
    O194     O        0.90810    0.99650    0.10300    1.000
    O195     O        0.01100    0.32470    0.05160    1.000
    O196     O        0.98060    0.91790    0.10920    1.000
    O197     O        0.00810    0.26750    0.15390    1.000
    O198     O        0.04600    0.57310    0.00770    1.000
    N33      N        0.91740    0.19400    0.17540    1.000
    H161     H        0.90580    0.22030    0.15360    1.000
    H162     H        0.90060    0.16340    0.16620    1.000
    N34      N        0.99860    0.18570    0.25000    1.000
    H163     H        0.02060    0.16030    0.26320    1.000
    H164     H        0.00950    0.21790    0.26230    1.000
    N35      N        0.05420    0.44450    0.20930    1.000
    H165     H        0.02910    0.46990    0.21440    1.000
    H166     H        0.04230    0.41350    0.22340    1.000
    N36      N        0.14950    0.44900    0.15330    1.000
    H167     H        0.17030    0.42110    0.14380    1.000
    H168     H        0.16230    0.47870    0.13730    1.000
    C49      C        0.90530    0.20760    0.23200    1.000
    H169     H        0.91230    0.24580    0.23770    1.000
    C50      C        0.94300    0.17540    0.26680    1.000
    H170     H        0.93850    0.18550    0.30410    1.000
    H171     H        0.93510    0.13740    0.26340    1.000
    C51      C        0.84680    0.19620    0.24550    1.000
    H172     H        0.82410    0.21880    0.22420    1.000
    H173     H        0.84070    0.20330    0.28290    1.000
    H174     H        0.83890    0.15920    0.23800    1.000
    C52      C        0.15010    0.45560    0.21100    1.000
    H175     H        0.15330    0.41710    0.21840    1.000
    C53      C        0.10470    0.46030    0.23460    1.000
    H176     H        0.10110    0.49780    0.24430    1.000
    H177     H        0.10730    0.44040    0.26790    1.000
    C54      C        0.20260    0.46970    0.23670    1.000
    H178     H        0.19800    0.47230    0.27480    1.000
    H179     H        0.21500    0.50340    0.22280    1.000
    H180     H        0.22850    0.44220    0.22880    1.000
    Ni37     Ni       0.91013    0.67319    0.41952    1.000
    Ni38     Ni       0.99987    0.68467    0.33283    1.000
    Ni39     Ni       0.92978    0.93545    0.37071    1.000
    Ni40     Ni       0.99562    0.90357    0.47227    1.000
    W64      W        0.05441    0.55344    0.35368    1.000
    W65      W        0.05710    0.45188    0.44738    1.000
    W66      W        0.96242    0.45338    0.34592    1.000
    W67      W        0.89318    0.14431    0.52515    1.000
    W68      W        0.90038    0.06866    0.41008    1.000
    W69      W        0.00952    0.13998    0.44978    1.000
    W70      W        0.95092    0.79943    0.39493    1.000
    O199     O        0.00180    0.59850    0.33200    1.000
    O200     O        0.00808    0.92658    0.39535    1.000
    O201     O        0.90240    0.75380    0.41940    1.000
    O202     O        0.91998    0.66962    0.33900    1.000
    O203     O        0.99400    0.67530    0.41750    1.000
    O204     O        0.98930    0.51630    0.41420    1.000
    O205     O        0.07000    0.60010    0.41350    1.000
    O206     O        0.91762    0.92430    0.45410    1.000
    O207     O        0.94710    0.01690    0.38910    1.000
    O208     O        0.95080    0.12390    0.39970    1.000
    O209     O        0.85660    0.08750    0.55970    1.000
    O210     O        0.07030    0.50540    0.50100    1.000
    O211     O        0.04740    0.13890    0.51530    1.000
    O212     O        0.02250    0.49350    0.31780    1.000
    O213     O        0.91660    0.85290    0.36220    1.000
    O214     O        0.86570    0.12200    0.45980    1.000
    O215     O        0.95120    0.17760    0.48900    1.000
    O216     O        0.09190    0.49650    0.39700    1.000
    O217     O        0.98900    0.82470    0.44840    1.000
    O218     O        0.01940    0.41790    0.39080    1.000
    O219     O        0.99190    0.76750    0.34610    1.000
    O220     O        0.95400    0.07310    0.49230    1.000
    N37      N        0.08260    0.69400    0.32460    1.000
    H181     H        0.09420    0.72030    0.34640    1.000
    H182     H        0.09940    0.66340    0.33380    1.000
    N38      N        0.00140    0.68570    0.25000    1.000
    H183     H        0.97940    0.66030    0.23680    1.000
    H184     H        0.99050    0.71790    0.23770    1.000
    N39      N        0.94580    0.94450    0.29070    1.000
    H185     H        0.97090    0.96990    0.28560    1.000
    H186     H        0.95770    0.91350    0.27660    1.000
    N40      N        0.85050    0.94900    0.34670    1.000
    H187     H        0.82970    0.92110    0.35620    1.000
    H188     H        0.83770    0.97870    0.36270    1.000
    C55      C        0.09470    0.70760    0.26800    1.000
    H189     H        0.08770    0.74580    0.26230    1.000
    C56      C        0.05700    0.67540    0.23320    1.000
    H190     H        0.06150    0.68550    0.19590    1.000
    H191     H        0.06490    0.63740    0.23660    1.000
    C57      C        0.15320    0.69620    0.25450    1.000
    H192     H        0.17590    0.71880    0.27580    1.000
    H193     H        0.15930    0.70330    0.21710    1.000
    H194     H        0.16110    0.65920    0.26200    1.000
    C58      C        0.84990    0.95560    0.28900    1.000
    H195     H        0.84670    0.91710    0.28160    1.000
    C59      C        0.89530    0.96030    0.26540    1.000
    H196     H        0.89890    0.99780    0.25570    1.000
    H197     H        0.89270    0.94040    0.23210    1.000
    C60      C        0.79740    0.96970    0.26330    1.000
    H198     H        0.80200    0.97230    0.22520    1.000
    H199     H        0.78500    0.00340    0.27720    1.000
    H200     H        0.77150    0.94220    0.27120    1.000
    Ni41     Ni       0.58987    0.32681    0.91952    1.000
    Ni42     Ni       0.50013    0.31533    0.83283    1.000
    Ni43     Ni       0.57022    0.06455    0.87071    1.000
    Ni44     Ni       0.50438    0.09643    0.97227    1.000
    W71      W        0.44559    0.44656    0.85368    1.000
    W72      W        0.44290    0.54811    0.94738    1.000
    W73      W        0.53758    0.54662    0.84592    1.000
    W74      W        0.60682    0.85569    0.02515    1.000
    W75      W        0.59962    0.93134    0.91008    1.000
    W76      W        0.49048    0.86002    0.94978    1.000
    W77      W        0.54908    0.20057    0.89493    1.000
    O221     O        0.49820    0.40150    0.83200    1.000
    O222     O        0.49192    0.07342    0.89535    1.000
    O223     O        0.59760    0.24620    0.91940    1.000
    O224     O        0.58002    0.33038    0.83900    1.000
    O225     O        0.50600    0.32470    0.91750    1.000
    O226     O        0.51070    0.48370    0.91420    1.000
    O227     O        0.43000    0.39990    0.91350    1.000
    O228     O        0.58238    0.07570    0.95410    1.000
    O229     O        0.55290    0.98310    0.88910    1.000
    O230     O        0.54920    0.87610    0.89970    1.000
    O231     O        0.64340    0.91250    0.05970    1.000
    O232     O        0.42970    0.49460    0.00100    1.000
    O233     O        0.45260    0.86110    0.01530    1.000
    O234     O        0.47750    0.50650    0.81780    1.000
    O235     O        0.58340    0.14710    0.86220    1.000
    O236     O        0.63430    0.87800    0.95980    1.000
    O237     O        0.54880    0.82240    0.98900    1.000
    O238     O        0.40810    0.50350    0.89700    1.000
    O239     O        0.51100    0.17530    0.94840    1.000
    O240     O        0.48060    0.58210    0.89080    1.000
    O241     O        0.50810    0.23250    0.84610    1.000
    O242     O        0.54600    0.92690    0.99230    1.000
    N41      N        0.41740    0.30600    0.82460    1.000
    H201     H        0.40580    0.27970    0.84640    1.000
    H202     H        0.40060    0.33660    0.83380    1.000
    N42      N        0.49860    0.31430    0.75000    1.000
    H203     H        0.52060    0.33970    0.73680    1.000
    H204     H        0.50950    0.28210    0.73770    1.000
    N43      N        0.55420    0.05550    0.79070    1.000
    H205     H        0.52910    0.03010    0.78560    1.000
    H206     H        0.54230    0.08650    0.77660    1.000
    N44      N        0.64950    0.05100    0.84670    1.000
    H207     H        0.67030    0.07890    0.85620    1.000
    H208     H        0.66230    0.02130    0.86270    1.000
    C61      C        0.40530    0.29240    0.76800    1.000
    H209     H        0.41230    0.25420    0.76230    1.000
    C62      C        0.44300    0.32460    0.73320    1.000
    H210     H        0.43850    0.31450    0.69590    1.000
    H211     H        0.43510    0.36260    0.73660    1.000
    C63      C        0.34680    0.30380    0.75450    1.000
    H212     H        0.32410    0.28120    0.77580    1.000
    H213     H        0.34070    0.29670    0.71710    1.000
    H214     H        0.33890    0.34080    0.76200    1.000
    C64      C        0.65010    0.04440    0.78900    1.000
    H215     H        0.65330    0.08290    0.78160    1.000
    C65      C        0.60470    0.03970    0.76540    1.000
    H216     H        0.60110    0.00220    0.75570    1.000
    H217     H        0.60730    0.05960    0.73210    1.000
    C66      C        0.70260    0.03030    0.76330    1.000
    H218     H        0.69800    0.02770    0.72520    1.000
    H219     H        0.71500    0.99660    0.77720    1.000
    H220     H        0.72850    0.05780    0.77120    1.000
    Ni45     Ni       0.41013    0.82681    0.58048    1.000
    Ni46     Ni       0.49987    0.81533    0.66717    1.000
    Ni47     Ni       0.42978    0.56455    0.62929    1.000
    Ni48     Ni       0.49562    0.59643    0.52773    1.000
    W78      W        0.55441    0.94656    0.64632    1.000
    W79      W        0.55710    0.04811    0.55262    1.000
    W80      W        0.46242    0.04662    0.65408    1.000
    W81      W        0.39318    0.35569    0.47485    1.000
    W82      W        0.40038    0.43134    0.58992    1.000
    W83      W        0.50952    0.36002    0.55022    1.000
    W84      W        0.45092    0.70057    0.60507    1.000
    O243     O        0.50180    0.90150    0.66800    1.000
    O244     O        0.50808    0.57342    0.60465    1.000
    O245     O        0.40240    0.74620    0.58060    1.000
    O246     O        0.41998    0.83038    0.66100    1.000
    O247     O        0.49400    0.82470    0.58250    1.000
    O248     O        0.48930    0.98370    0.58580    1.000
    O249     O        0.57000    0.89990    0.58650    1.000
    O250     O        0.41762    0.57570    0.54590    1.000
    O251     O        0.44710    0.48310    0.61090    1.000
    O252     O        0.45080    0.37610    0.60030    1.000
    O253     O        0.35660    0.41250    0.44030    1.000
    O254     O        0.57030    0.99460    0.49900    1.000
    O255     O        0.54740    0.36110    0.48470    1.000
    O256     O        0.52250    0.00650    0.68220    1.000
    O257     O        0.41660    0.64710    0.63780    1.000
    O258     O        0.36570    0.37800    0.54020    1.000
    O259     O        0.45120    0.32240    0.51100    1.000
    O260     O        0.59190    0.00350    0.60300    1.000
    O261     O        0.48900    0.67530    0.55160    1.000
    O262     O        0.51940    0.08210    0.60920    1.000
    O263     O        0.49190    0.73250    0.65390    1.000
    O264     O        0.45400    0.42690    0.50770    1.000
    N45      N        0.58260    0.80600    0.67540    1.000
    H221     H        0.59420    0.77970    0.65360    1.000
    H222     H        0.59940    0.83660    0.66620    1.000
    N46      N        0.50140    0.81430    0.75000    1.000
    H223     H        0.47940    0.83970    0.76320    1.000
    H224     H        0.49050    0.78210    0.76230    1.000
    N47      N        0.44580    0.55550    0.70930    1.000
    H225     H        0.47090    0.53010    0.71440    1.000
    H226     H        0.45770    0.58650    0.72340    1.000
    N48      N        0.35050    0.55100    0.65330    1.000
    H227     H        0.32970    0.57890    0.64380    1.000
    H228     H        0.33770    0.52130    0.63730    1.000
    C67      C        0.59470    0.79240    0.73200    1.000
    H229     H        0.58770    0.75420    0.73770    1.000
    C68      C        0.55700    0.82460    0.76680    1.000
    H230     H        0.56150    0.81450    0.80410    1.000
    H231     H        0.56490    0.86260    0.76340    1.000
    C69      C        0.65320    0.80380    0.74550    1.000
    H232     H        0.67590    0.78120    0.72420    1.000
    H233     H        0.65930    0.79670    0.78290    1.000
    H234     H        0.66110    0.84080    0.73800    1.000
    C70      C        0.34990    0.54440    0.71100    1.000
    H235     H        0.34670    0.58290    0.71840    1.000
    C71      C        0.39530    0.53970    0.73460    1.000
    H236     H        0.39890    0.50220    0.74430    1.000
    H237     H        0.39270    0.55960    0.76790    1.000
    C72      C        0.29740    0.53030    0.73670    1.000
    H238     H        0.30200    0.52770    0.77480    1.000
    H239     H        0.28500    0.49660    0.72280    1.000
    H240     H        0.27150    0.55780    0.72880    1.000
    P1       P        0.05054    0.05054    0.05054    1.000
    O265     O        0.08700    0.08700    0.08700    1.000
    P2       P        0.44946    0.94946    0.55054    1.000
    O266     O        0.41300    0.91300    0.58700    1.000
    P3       P        0.94946    0.55054    0.44946    1.000
    O267     O        0.91300    0.58700    0.41300    1.000
    P4       P        0.55054    0.44946    0.94946    1.000
    O268     O        0.58700    0.41300    0.91300    1.000
    P5       P        0.97601    0.02399    0.52399    1.000
    O269     O        0.01163    0.98837    0.48837    1.000
    P6       P        0.52399    0.97601    0.02399    1.000
    O270     O        0.48837    0.01163    0.98837    1.000
    P7       P        0.02399    0.52399    0.97601    1.000
    O271     O        0.98837    0.48837    0.01163    1.000
    P8       P        0.47601    0.47601    0.47601    1.000
    O272     O        0.51163    0.51163    0.51163    1.000
