data_functionalizedCrystal
_audit_creation_method	'EQeq! by Chris Wilmer'
_symmetry_space_group_name_H-M	'P1'
_symmetry_Int_Tables_number	1
_symmetry_cell_setting	triclinic
loop_
_symmetry_equiv_pos_as_xyz
  x,y,z
_cell_length_a	33.226
_cell_length_b	10.372
_cell_length_c	27.776
_cell_angle_alpha	90
_cell_angle_beta	107.061
_cell_angle_gamma	90
loop_
_atom_site_label
_atom_site_type_symbol
_atom_site_fract_x
_atom_site_fract_y
_atom_site_fract_z
_atom_site_charge
Mof_Gd	Gd	0.55563	0.10506	0.00931	1.769
Mof_O 	O 	0.12027	0.6462	0.07913	-0.418
Mof_O 	O 	0.12574	0.4974	0.02601	-0.429
Mof_O 	O 	0.44253	0.9455	0.42982	-0.474
Mof_O 	O 	0.49621	0.8049	0.4491	-0.477
Mof_O 	O 	0.47569	0.075	0.03662	-0.539
Mof_O 	O 	0.52577	0.2182	0.06531	-0.46
Mof_C 	C 	0.14146	0.5641	0.06465	0.339
Mof_C 	C 	0.18707	0.5426	0.09458	-0.127
Mof_C 	C 	0.20816	0.6413	0.12569	0.041
Mof_H 	H 	0.1937	0.7153	0.1298	0.007
Mof_C 	C 	0.25086	0.6295	0.15067	-0.126
Mof_H 	H 	0.265	0.6956	0.1715	0.064
Mof_C 	C 	0.27248	0.519	0.14453	0.05
Mof_C 	C 	0.25139	0.4202	0.11341	-0.13
Mof_H 	H 	0.2659	0.3462	0.1093	0.06
Mof_C 	C 	0.20869	0.432	0.08844	0.045
Mof_H 	H 	0.1946	0.3659	0.0676	-0.003
Mof_C 	C 	0.31926	0.5118	0.16897	0.018
Mof_C 	C 	0.33799	0.5741	0.21456	-0.091
Mof_H 	H 	0.3212	0.6204	0.2299	0.053
Mof_C 	C 	0.38106	0.5687	0.23753	0.011
Mof_C 	C 	0.40587	0.5005	0.21355	-0.084
Mof_H 	H 	0.4348	0.4967	0.2284	0.055
Mof_C 	C 	0.38812	0.4377	0.1677	0.007
Mof_C 	C 	0.34466	0.4436	0.14642	-0.088
Mof_H 	H 	0.3324	0.4006	0.1163	0.045
Mof_C 	C 	0.4009	0.6358	0.28623	0.073
Mof_C 	C 	0.38245	0.7428	0.3003	-0.157
Mof_H 	H 	0.3567	0.7715	0.2795	0.077
Mof_C 	C 	0.40113	0.8088	0.34448	0.08
Mof_H 	H 	0.3876	0.8796	0.3532	0.008
Mof_C 	C 	0.43971	0.77	0.37563	-0.192
Mof_C 	C 	0.45831	0.6634	0.36242	0.078
Mof_H 	H 	0.4841	0.6351	0.3833	0.003
Mof_C 	C 	0.43912	0.5971	0.31826	-0.161
Mof_H 	H 	0.4523	0.5248	0.3101	0.079
Mof_C 	C 	0.46104	0.8463	0.4222	0.446
Mof_C 	C 	0.415	0.3669	0.1423	0.083
Mof_C 	C 	0.45499	0.4113	0.14443	-0.168
Mof_H 	H 	0.4656	0.4849	0.163	0.085
Mof_C 	C 	0.47918	0.3469	0.1192	0.101
Mof_H 	H 	0.5058	0.3778	0.1209	-0.005
Mof_C 	C 	0.46428	0.2373	0.09152	-0.224
Mof_C 	C 	0.42473	0.1928	0.08937	0.086
Mof_H 	H 	0.4143	0.1192	0.0707	-0.03
Mof_C 	C 	0.40032	0.2562	0.11467	-0.186
Mof_H 	H 	0.3738	0.2243	0.1131	0.079
Mof_C 	C 	0.49038	0.1725	0.06282	0.451
Mof_O 	O 	0.57566	0.3282	0.0041	-0.559
Mof_S 	S 	0.57133	0.4453	0.03507	0.527
Mof_C 	C 	0.6025	0.5708	0.0208	-1.849
Mof_H 	H 	0.6317	0.5492	0.034	0.458
Mof_H 	H 	0.597	0.6499	0.0357	0.399
Mof_H 	H 	0.5955	0.5811	0.9849	1.011
Mof_S 	S 	0.6124	0.4073	0.0306	0.593
Mof_C 	C 	0.6101	0.4411	0.0926	-1.112
Mof_H 	H 	0.6147	0.3631	0.1121	0.367
Mof_H 	H 	0.583	0.4758	0.091	0.312
Mof_H 	H 	0.6316	0.5027	0.1083	0.347
Mof_C 	C 	0.5917	0.5511	0.9975	-0.911
Mof_H 	H 	0.5884	0.5397	0.9623	-0.213
Mof_H 	H 	0.6106	0.6214	0.0102	0.578
Mof_H 	H 	0.5648	0.5697	0.0022	0.443
Mof_C 	C 	0.5188	0.5034	0.006	-0.178
Mof_H 	H 	0.5306	0.4392	0.031	-0.016
Mof_H 	H 	0.5275	0.5875	0.0195	0.023
Mof_H 	H 	0.5283	0.4891	0.977	0.052
Mof_Gd	Gd	0.05563	0.60506	0.00931	1.772
Mof_O 	O 	0.62027	0.1462	0.07913	-0.417
Mof_O 	O 	0.62574	0.9974	0.02601	-0.426
Mof_O 	O 	0.94253	0.4455	0.42982	-0.473
Mof_O 	O 	0.99621	0.3049	0.4491	-0.478
Mof_O 	O 	0.97569	0.575	0.03662	-0.539
Mof_O 	O 	0.02577	0.7182	0.06531	-0.46
Mof_C 	C 	0.64146	0.0641	0.06465	0.337
Mof_C 	C 	0.68707	0.0426	0.09458	-0.128
Mof_C 	C 	0.70816	0.1413	0.12569	0.04
Mof_H 	H 	0.6937	0.2153	0.1298	0.007
Mof_C 	C 	0.75086	0.1295	0.15067	-0.126
Mof_H 	H 	0.765	0.1956	0.1715	0.064
Mof_C 	C 	0.77248	0.019	0.14453	0.048
Mof_C 	C 	0.75139	0.9202	0.11341	-0.128
Mof_H 	H 	0.7659	0.8462	0.1093	0.06
Mof_C 	C 	0.70869	0.932	0.08844	0.046
Mof_H 	H 	0.6946	0.8659	0.0676	-0.003
Mof_C 	C 	0.81926	0.0118	0.16897	0.018
Mof_C 	C 	0.83799	0.0741	0.21456	-0.092
Mof_H 	H 	0.8212	0.1204	0.2299	0.053
Mof_C 	C 	0.88106	0.0687	0.23753	0.013
Mof_C 	C 	0.90587	0.0005	0.21355	-0.09
Mof_H 	H 	0.9348	0.9967	0.2284	0.058
Mof_C 	C 	0.88812	0.9377	0.1677	0.01
Mof_C 	C 	0.84466	0.9436	0.14642	-0.088
Mof_H 	H 	0.8324	0.9006	0.1163	0.046
Mof_C 	C 	0.9009	0.1358	0.28623	0.072
Mof_C 	C 	0.88245	0.2428	0.3003	-0.156
Mof_H 	H 	0.8567	0.2715	0.2795	0.077
Mof_C 	C 	0.90113	0.3088	0.34448	0.079
Mof_H 	H 	0.8876	0.3796	0.3532	0.009
Mof_C 	C 	0.93971	0.27	0.37563	-0.191
Mof_C 	C 	0.95831	0.1634	0.36242	0.077
Mof_H 	H 	0.9841	0.1351	0.3833	0.003
Mof_C 	C 	0.93912	0.0971	0.31826	-0.16
Mof_H 	H 	0.9523	0.0248	0.3101	0.078
Mof_C 	C 	0.96104	0.3463	0.4222	0.446
Mof_C 	C 	0.915	0.8669	0.1423	0.082
Mof_C 	C 	0.95499	0.9113	0.14443	-0.168
Mof_H 	H 	0.9656	0.9849	0.163	0.085
Mof_C 	C 	0.97918	0.8469	0.1192	0.101
Mof_H 	H 	0.0058	0.8778	0.1209	-0.006
Mof_C 	C 	0.96428	0.7373	0.09152	-0.224
Mof_C 	C 	0.92473	0.6928	0.08937	0.086
Mof_H 	H 	0.9143	0.6192	0.0707	-0.029
Mof_C 	C 	0.90032	0.7562	0.11467	-0.186
Mof_H 	H 	0.8738	0.7243	0.1131	0.079
Mof_C 	C 	0.99038	0.6725	0.06282	0.452
Mof_O 	O 	0.07566	0.8282	0.0041	-0.559
Mof_S 	S 	0.07133	0.9453	0.03507	0.527
Mof_C 	C 	0.1025	0.0708	0.0208	-1.845
Mof_H 	H 	0.1317	0.0492	0.034	0.457
Mof_H 	H 	0.097	0.1499	0.0357	0.398
Mof_H 	H 	0.0955	0.0811	0.9849	1.013
Mof_S 	S 	0.1124	0.9073	0.0306	0.592
Mof_C 	C 	0.1101	0.9411	0.0926	-1.109
Mof_H 	H 	0.1147	0.8631	0.1121	0.367
Mof_H 	H 	0.083	0.9758	0.091	0.312
Mof_H 	H 	0.1316	0.0027	0.1083	0.346
Mof_C 	C 	0.0917	0.0511	0.9975	-0.912
Mof_H 	H 	0.0884	0.0397	0.9623	-0.213
Mof_H 	H 	0.1106	0.1214	0.0102	0.575
Mof_H 	H 	0.0648	0.0697	0.0022	0.442
Mof_C 	C 	0.0188	0.0034	0.006	-0.18
Mof_H 	H 	0.0306	0.9392	0.031	-0.015
Mof_H 	H 	0.0275	0.0875	0.0195	0.023
Mof_H 	H 	0.0283	0.9891	0.977	0.052
Mof_Gd	Gd	0.44437	0.10506	0.49069	1.771
Mof_O 	O 	0.87973	0.6462	0.42087	-0.417
Mof_O 	O 	0.87426	0.4974	0.47399	-0.428
Mof_O 	O 	0.55747	0.9455	0.07018	-0.472
Mof_O 	O 	0.50379	0.8049	0.0509	-0.477
Mof_O 	O 	0.52431	0.075	0.46338	-0.539
Mof_O 	O 	0.47423	0.2182	0.43469	-0.46
Mof_C 	C 	0.85854	0.5641	0.43535	0.338
Mof_C 	C 	0.81293	0.5426	0.40542	-0.127
Mof_C 	C 	0.79184	0.6413	0.37431	0.041
Mof_H 	H 	0.8063	0.7153	0.3702	0.007
Mof_C 	C 	0.74914	0.6295	0.34933	-0.126
Mof_H 	H 	0.735	0.6956	0.3285	0.064
Mof_C 	C 	0.72752	0.519	0.35547	0.05
Mof_C 	C 	0.74861	0.4202	0.38659	-0.13
Mof_H 	H 	0.7341	0.3462	0.3907	0.06
Mof_C 	C 	0.79131	0.432	0.41156	0.045
Mof_H 	H 	0.8054	0.3659	0.4324	-0.003
Mof_C 	C 	0.68074	0.5118	0.33103	0.018
Mof_C 	C 	0.66201	0.5741	0.28544	-0.091
Mof_H 	H 	0.6788	0.6204	0.2701	0.053
Mof_C 	C 	0.61894	0.5687	0.26247	0.011
Mof_C 	C 	0.59413	0.5005	0.28645	-0.084
Mof_H 	H 	0.5652	0.4967	0.2716	0.055
Mof_C 	C 	0.61188	0.4377	0.3323	0.007
Mof_C 	C 	0.65534	0.4436	0.35358	-0.088
Mof_H 	H 	0.6676	0.4006	0.3837	0.045
Mof_C 	C 	0.5991	0.6358	0.21377	0.073
Mof_C 	C 	0.61755	0.7428	0.1997	-0.157
Mof_H 	H 	0.6433	0.7715	0.2205	0.077
Mof_C 	C 	0.59887	0.8088	0.15552	0.08
Mof_H 	H 	0.6124	0.8796	0.1468	0.008
Mof_C 	C 	0.56029	0.77	0.12437	-0.191
Mof_C 	C 	0.54169	0.6634	0.13758	0.078
Mof_H 	H 	0.5159	0.6351	0.1167	0.003
Mof_C 	C 	0.56088	0.5971	0.18174	-0.161
Mof_H 	H 	0.5477	0.5248	0.1899	0.079
Mof_C 	C 	0.53896	0.8463	0.0778	0.446
Mof_C 	C 	0.585	0.3669	0.3577	0.083
Mof_C 	C 	0.54501	0.4113	0.35557	-0.168
Mof_H 	H 	0.5344	0.4849	0.337	0.084
Mof_C 	C 	0.52082	0.3469	0.3808	0.101
Mof_H 	H 	0.4942	0.3778	0.3791	-0.005
Mof_C 	C 	0.53572	0.2373	0.40848	-0.224
Mof_C 	C 	0.57527	0.1928	0.41063	0.086
Mof_H 	H 	0.5857	0.1192	0.4293	-0.029
Mof_C 	C 	0.59968	0.2562	0.38533	-0.186
Mof_H 	H 	0.6262	0.2243	0.3869	0.079
Mof_C 	C 	0.50962	0.1725	0.43718	0.451
Mof_O 	O 	0.42434	0.3282	0.4959	-0.559
Mof_S 	S 	0.42867	0.4453	0.46493	0.527
Mof_C 	C 	0.3975	0.5708	0.4792	-1.848
Mof_H 	H 	0.3683	0.5492	0.466	0.458
Mof_H 	H 	0.403	0.6499	0.4643	0.399
Mof_H 	H 	0.4045	0.5811	0.5151	1.011
Mof_S 	S 	0.3876	0.4073	0.4694	0.592
Mof_C 	C 	0.3899	0.4411	0.4074	-1.112
Mof_H 	H 	0.3853	0.3631	0.3879	0.367
Mof_H 	H 	0.417	0.4758	0.409	0.312
Mof_H 	H 	0.3684	0.5027	0.3917	0.347
Mof_C 	C 	0.4083	0.5511	0.5025	-0.91
Mof_H 	H 	0.4116	0.5397	0.5377	-0.213
Mof_H 	H 	0.3894	0.6214	0.4898	0.577
Mof_H 	H 	0.4352	0.5697	0.4978	0.443
Mof_C 	C 	0.4812	0.5034	0.494	-0.178
Mof_H 	H 	0.4694	0.4392	0.469	-0.016
Mof_H 	H 	0.4725	0.5875	0.4805	0.023
Mof_H 	H 	0.4717	0.4891	0.523	0.052
Mof_Gd	Gd	0.94437	0.60506	0.49069	1.771
Mof_O 	O 	0.37973	0.1462	0.42087	-0.417
Mof_O 	O 	0.37426	0.9974	0.47399	-0.428
Mof_O 	O 	0.05747	0.4455	0.07018	-0.473
Mof_O 	O 	0.00379	0.3049	0.0509	-0.478
Mof_O 	O 	0.02431	0.575	0.46338	-0.539
Mof_O 	O 	0.97423	0.7182	0.43469	-0.46
Mof_C 	C 	0.35854	0.0641	0.43535	0.338
Mof_C 	C 	0.31293	0.0426	0.40542	-0.128
Mof_C 	C 	0.29184	0.1413	0.37431	0.04
Mof_H 	H 	0.3063	0.2153	0.3702	0.007
Mof_C 	C 	0.24914	0.1295	0.34933	-0.126
Mof_H 	H 	0.235	0.1956	0.3285	0.064
Mof_C 	C 	0.22752	0.019	0.35547	0.049
Mof_C 	C 	0.24861	0.9202	0.38659	-0.128
Mof_H 	H 	0.2341	0.8462	0.3907	0.06
Mof_C 	C 	0.29131	0.932	0.41156	0.045
Mof_H 	H 	0.3054	0.8659	0.4324	-0.003
Mof_C 	C 	0.18074	0.0118	0.33103	0.018
Mof_C 	C 	0.16201	0.0741	0.28544	-0.092
Mof_H 	H 	0.1788	0.1204	0.2701	0.053
Mof_C 	C 	0.11894	0.0687	0.26247	0.013
Mof_C 	C 	0.09413	0.0005	0.28645	-0.089
Mof_H 	H 	0.0652	0.9967	0.2716	0.058
Mof_C 	C 	0.11188	0.9377	0.3323	0.01
Mof_C 	C 	0.15534	0.9436	0.35358	-0.089
Mof_H 	H 	0.1676	0.9006	0.3837	0.046
Mof_C 	C 	0.0991	0.1358	0.21377	0.072
Mof_C 	C 	0.11755	0.2428	0.1997	-0.157
Mof_H 	H 	0.1433	0.2715	0.2205	0.077
Mof_C 	C 	0.09887	0.3088	0.15552	0.08
Mof_H 	H 	0.1124	0.3796	0.1468	0.008
Mof_C 	C 	0.06029	0.27	0.12437	-0.191
Mof_C 	C 	0.04169	0.1634	0.13758	0.078
Mof_H 	H 	0.0159	0.1351	0.1167	0.003
Mof_C 	C 	0.06088	0.0971	0.18174	-0.16
Mof_H 	H 	0.0477	0.0248	0.1899	0.078
Mof_C 	C 	0.03896	0.3463	0.0778	0.446
Mof_C 	C 	0.085	0.8669	0.3577	0.081
Mof_C 	C 	0.04501	0.9113	0.35557	-0.167
Mof_H 	H 	0.0344	0.9849	0.337	0.084
Mof_C 	C 	0.02082	0.8469	0.3808	0.099
Mof_H 	H 	0.9942	0.8778	0.3791	-0.005
Mof_C 	C 	0.03572	0.7373	0.40848	-0.223
Mof_C 	C 	0.07527	0.6928	0.41063	0.085
Mof_H 	H 	0.0857	0.6192	0.4293	-0.029
Mof_C 	C 	0.09968	0.7562	0.38533	-0.185
Mof_H 	H 	0.1262	0.7243	0.3869	0.079
Mof_C 	C 	0.00962	0.6725	0.43718	0.45
Mof_O 	O 	0.92434	0.8282	0.4959	-0.559
Mof_S 	S 	0.92867	0.9453	0.46493	0.527
Mof_C 	C 	0.8975	0.0708	0.4792	-1.847
Mof_H 	H 	0.8683	0.0492	0.466	0.458
Mof_H 	H 	0.903	0.1499	0.4643	0.399
Mof_H 	H 	0.9045	0.0811	0.5151	1.011
Mof_S 	S 	0.8876	0.9073	0.4694	0.592
Mof_C 	C 	0.8899	0.9411	0.4074	-1.11
Mof_H 	H 	0.8853	0.8631	0.3879	0.367
Mof_H 	H 	0.917	0.9758	0.409	0.312
Mof_H 	H 	0.8684	0.0027	0.3917	0.347
Mof_C 	C 	0.9083	0.0511	0.5025	-0.91
Mof_H 	H 	0.9116	0.0397	0.5377	-0.213
Mof_H 	H 	0.8894	0.1214	0.4898	0.577
Mof_H 	H 	0.9352	0.0697	0.4978	0.442
Mof_C 	C 	0.9812	0.0034	0.494	-0.178
Mof_H 	H 	0.9694	0.9392	0.469	-0.016
Mof_H 	H 	0.9725	0.0875	0.4805	0.023
Mof_H 	H 	0.9717	0.9891	0.523	0.052
Mof_Gd	Gd	0.44437	0.89493	0.99069	1.77
Mof_O 	O 	0.87973	0.3538	0.92087	-0.417
Mof_O 	O 	0.87426	0.5026	0.97399	-0.428
Mof_O 	O 	0.55747	0.0545	0.57018	-0.473
Mof_O 	O 	0.50379	0.1951	0.5509	-0.477
Mof_O 	O 	0.52431	0.925	0.96338	-0.539
Mof_O 	O 	0.47423	0.7818	0.93469	-0.46
Mof_C 	C 	0.85854	0.4359	0.93535	0.339
Mof_C 	C 	0.81293	0.4574	0.90542	-0.127
Mof_C 	C 	0.79184	0.3587	0.87431	0.041
Mof_H 	H 	0.8063	0.2847	0.8702	0.007
Mof_C 	C 	0.74914	0.3705	0.84933	-0.126
Mof_H 	H 	0.735	0.3044	0.8285	0.064
Mof_C 	C 	0.72752	0.481	0.85547	0.05
Mof_C 	C 	0.74861	0.5798	0.88659	-0.13
Mof_H 	H 	0.7341	0.6538	0.8907	0.06
Mof_C 	C 	0.79131	0.568	0.91156	0.045
Mof_H 	H 	0.8054	0.6341	0.9324	-0.003
Mof_C 	C 	0.68074	0.4882	0.83103	0.018
Mof_C 	C 	0.66201	0.4259	0.78544	-0.091
Mof_H 	H 	0.6788	0.3796	0.7701	0.053
Mof_C 	C 	0.61894	0.4313	0.76247	0.011
Mof_C 	C 	0.59413	0.4995	0.78645	-0.084
Mof_H 	H 	0.5652	0.5033	0.7716	0.055
Mof_C 	C 	0.61188	0.5623	0.8323	0.007
Mof_C 	C 	0.65534	0.5564	0.85358	-0.088
Mof_H 	H 	0.6676	0.5994	0.8837	0.045
Mof_C 	C 	0.5991	0.3642	0.71377	0.073
Mof_C 	C 	0.61755	0.2572	0.6997	-0.157
Mof_H 	H 	0.6433	0.2285	0.7205	0.077
Mof_C 	C 	0.59887	0.1912	0.65552	0.08
Mof_H 	H 	0.6124	0.1204	0.6468	0.008
Mof_C 	C 	0.56029	0.23	0.62437	-0.192
Mof_C 	C 	0.54169	0.3366	0.63758	0.078
Mof_H 	H 	0.5159	0.3649	0.6167	0.003
Mof_C 	C 	0.56088	0.4029	0.68174	-0.161
Mof_H 	H 	0.5477	0.4752	0.6899	0.079
Mof_C 	C 	0.53896	0.1537	0.5778	0.446
Mof_C 	C 	0.585	0.6331	0.8577	0.083
Mof_C 	C 	0.54501	0.5887	0.85557	-0.168
Mof_H 	H 	0.5344	0.5151	0.837	0.085
Mof_C 	C 	0.52082	0.6531	0.8808	0.101
Mof_H 	H 	0.4942	0.6222	0.8791	-0.005
Mof_C 	C 	0.53572	0.7627	0.90848	-0.224
Mof_C 	C 	0.57527	0.8072	0.91063	0.086
Mof_H 	H 	0.5857	0.8808	0.9293	-0.03
Mof_C 	C 	0.59968	0.7438	0.88533	-0.186
Mof_H 	H 	0.6262	0.7757	0.8869	0.079
Mof_C 	C 	0.50962	0.8275	0.93718	0.451
Mof_O 	O 	0.42434	0.6718	0.9959	-0.559
Mof_S 	S 	0.42867	0.5547	0.96493	0.527
Mof_C 	C 	0.3975	0.4292	0.9792	-1.849
Mof_H 	H 	0.3683	0.4508	0.966	0.458
Mof_H 	H 	0.403	0.3501	0.9643	0.399
Mof_H 	H 	0.4045	0.4189	0.0151	1.011
Mof_S 	S 	0.3876	0.5927	0.9694	0.593
Mof_C 	C 	0.3899	0.5589	0.9074	-1.112
Mof_H 	H 	0.3853	0.6369	0.8879	0.367
Mof_H 	H 	0.417	0.5242	0.909	0.312
Mof_H 	H 	0.3684	0.4973	0.8917	0.347
Mof_C 	C 	0.4083	0.4489	0.0025	-0.911
Mof_H 	H 	0.4116	0.4603	0.0377	-0.213
Mof_H 	H 	0.3894	0.3786	0.9898	0.578
Mof_H 	H 	0.4352	0.4303	0.9978	0.443
Mof_C 	C 	0.4812	0.4966	0.994	-0.178
Mof_H 	H 	0.4694	0.5608	0.969	-0.016
Mof_H 	H 	0.4725	0.4125	0.9805	0.023
Mof_H 	H 	0.4717	0.5109	0.023	0.052
Mof_Gd	Gd	0.94437	0.39494	0.99069	1.772
Mof_O 	O 	0.37973	0.8538	0.92087	-0.417
Mof_O 	O 	0.37426	0.0026	0.97399	-0.426
Mof_O 	O 	0.05747	0.5545	0.57018	-0.473
Mof_O 	O 	0.00379	0.6951	0.5509	-0.478
Mof_O 	O 	0.02431	0.425	0.96338	-0.539
Mof_O 	O 	0.97423	0.2818	0.93469	-0.46
Mof_C 	C 	0.35854	0.9359	0.93535	0.337
Mof_C 	C 	0.31293	0.9574	0.90542	-0.128
Mof_C 	C 	0.29184	0.8587	0.87431	0.04
Mof_H 	H 	0.3063	0.7847	0.8702	0.007
Mof_C 	C 	0.24914	0.8705	0.84933	-0.126
Mof_H 	H 	0.235	0.8044	0.8285	0.064
Mof_C 	C 	0.22752	0.981	0.85547	0.048
Mof_C 	C 	0.24861	0.0798	0.88659	-0.128
Mof_H 	H 	0.2341	0.1538	0.8907	0.06
Mof_C 	C 	0.29131	0.068	0.91156	0.046
Mof_H 	H 	0.3054	0.1341	0.9324	-0.003
Mof_C 	C 	0.18074	0.9882	0.83103	0.018
Mof_C 	C 	0.16201	0.9259	0.78544	-0.092
Mof_H 	H 	0.1788	0.8796	0.7701	0.053
Mof_C 	C 	0.11894	0.9313	0.76247	0.013
Mof_C 	C 	0.09413	0.9995	0.78645	-0.09
Mof_H 	H 	0.0652	0.0033	0.7716	0.058
Mof_C 	C 	0.11188	0.0623	0.8323	0.01
Mof_C 	C 	0.15534	0.0564	0.85358	-0.088
Mof_H 	H 	0.1676	0.0994	0.8837	0.046
Mof_C 	C 	0.0991	0.8642	0.71377	0.072
Mof_C 	C 	0.11755	0.7572	0.6997	-0.156
Mof_H 	H 	0.1433	0.7285	0.7205	0.077
Mof_C 	C 	0.09887	0.6912	0.65552	0.079
Mof_H 	H 	0.1124	0.6204	0.6468	0.009
Mof_C 	C 	0.06029	0.73	0.62437	-0.191
Mof_C 	C 	0.04169	0.8366	0.63758	0.077
Mof_H 	H 	0.0159	0.8649	0.6167	0.003
Mof_C 	C 	0.06088	0.9029	0.68174	-0.16
Mof_H 	H 	0.0477	0.9752	0.6899	0.078
Mof_C 	C 	0.03896	0.6537	0.5778	0.446
Mof_C 	C 	0.085	0.1331	0.8577	0.082
Mof_C 	C 	0.04501	0.0887	0.85557	-0.168
Mof_H 	H 	0.0344	0.0151	0.837	0.085
Mof_C 	C 	0.02082	0.1531	0.8808	0.101
Mof_H 	H 	0.9942	0.1222	0.8791	-0.006
Mof_C 	C 	0.03572	0.2627	0.90848	-0.224
Mof_C 	C 	0.07527	0.3072	0.91063	0.086
Mof_H 	H 	0.0857	0.3808	0.9293	-0.029
Mof_C 	C 	0.09968	0.2438	0.88533	-0.186
Mof_H 	H 	0.1262	0.2757	0.8869	0.079
Mof_C 	C 	0.00962	0.3275	0.93718	0.452
Mof_O 	O 	0.92434	0.1718	0.9959	-0.559
Mof_S 	S 	0.92867	0.0547	0.96493	0.527
Mof_C 	C 	0.8975	0.9292	0.9792	-1.845
Mof_H 	H 	0.8683	0.9508	0.966	0.457
Mof_H 	H 	0.903	0.8501	0.9643	0.398
Mof_H 	H 	0.9045	0.9189	0.0151	1.013
Mof_S 	S 	0.8876	0.0927	0.9694	0.592
Mof_C 	C 	0.8899	0.0589	0.9074	-1.109
Mof_H 	H 	0.8853	0.1369	0.8879	0.367
Mof_H 	H 	0.917	0.0242	0.909	0.312
Mof_H 	H 	0.8684	0.9973	0.8917	0.346
Mof_C 	C 	0.9083	0.9489	0.0025	-0.912
Mof_H 	H 	0.9116	0.9603	0.0377	-0.213
Mof_H 	H 	0.8894	0.8786	0.9898	0.575
Mof_H 	H 	0.9352	0.9303	0.9978	0.442
Mof_C 	C 	0.9812	0.9966	0.994	-0.18
Mof_H 	H 	0.9694	0.0608	0.969	-0.015
Mof_H 	H 	0.9725	0.9125	0.9805	0.023
Mof_H 	H 	0.9717	0.0109	0.023	0.052
Mof_Gd	Gd	0.55563	0.89493	0.50931	1.771
Mof_O 	O 	0.12027	0.3538	0.57913	-0.417
Mof_O 	O 	0.12574	0.5026	0.52601	-0.428
Mof_O 	O 	0.44253	0.0545	0.92982	-0.472
Mof_O 	O 	0.49621	0.1951	0.9491	-0.477
Mof_O 	O 	0.47569	0.925	0.53662	-0.539
Mof_O 	O 	0.52577	0.7818	0.56531	-0.46
Mof_C 	C 	0.14146	0.4359	0.56465	0.338
Mof_C 	C 	0.18707	0.4574	0.59458	-0.127
Mof_C 	C 	0.20816	0.3587	0.62569	0.041
Mof_H 	H 	0.1937	0.2847	0.6298	0.007
Mof_C 	C 	0.25086	0.3705	0.65067	-0.126
Mof_H 	H 	0.265	0.3044	0.6715	0.064
Mof_C 	C 	0.27248	0.481	0.64453	0.05
Mof_C 	C 	0.25139	0.5798	0.61341	-0.13
Mof_H 	H 	0.2659	0.6538	0.6093	0.06
Mof_C 	C 	0.20869	0.568	0.58844	0.045
Mof_H 	H 	0.1946	0.6341	0.5676	-0.003
Mof_C 	C 	0.31926	0.4882	0.66897	0.018
Mof_C 	C 	0.33799	0.4259	0.71456	-0.091
Mof_H 	H 	0.3212	0.3796	0.7299	0.053
Mof_C 	C 	0.38106	0.4313	0.73753	0.011
Mof_C 	C 	0.40587	0.4995	0.71355	-0.084
Mof_H 	H 	0.4348	0.5033	0.7284	0.055
Mof_C 	C 	0.38812	0.5623	0.6677	0.007
Mof_C 	C 	0.34466	0.5564	0.64642	-0.088
Mof_H 	H 	0.3324	0.5994	0.6163	0.045
Mof_C 	C 	0.4009	0.3642	0.78623	0.073
Mof_C 	C 	0.38245	0.2572	0.8003	-0.157
Mof_H 	H 	0.3567	0.2285	0.7795	0.077
Mof_C 	C 	0.40113	0.1912	0.84448	0.08
Mof_H 	H 	0.3876	0.1204	0.8532	0.008
Mof_C 	C 	0.43971	0.23	0.87563	-0.191
Mof_C 	C 	0.45831	0.3366	0.86242	0.078
Mof_H 	H 	0.4841	0.3649	0.8833	0.003
Mof_C 	C 	0.43912	0.4029	0.81826	-0.161
Mof_H 	H 	0.4523	0.4752	0.8101	0.079
Mof_C 	C 	0.46104	0.1537	0.9222	0.446
Mof_C 	C 	0.415	0.6331	0.6423	0.083
Mof_C 	C 	0.45499	0.5887	0.64443	-0.168
Mof_H 	H 	0.4656	0.5151	0.663	0.084
Mof_C 	C 	0.47918	0.6531	0.6192	0.101
Mof_H 	H 	0.5058	0.6222	0.6209	-0.005
Mof_C 	C 	0.46428	0.7627	0.59152	-0.224
Mof_C 	C 	0.42473	0.8072	0.58937	0.086
Mof_H 	H 	0.4143	0.8808	0.5707	-0.029
Mof_C 	C 	0.40032	0.7438	0.61467	-0.186
Mof_H 	H 	0.3738	0.7757	0.6131	0.079
Mof_C 	C 	0.49038	0.8275	0.56282	0.451
Mof_O 	O 	0.57566	0.6718	0.5041	-0.559
Mof_S 	S 	0.57133	0.5547	0.53507	0.527
Mof_C 	C 	0.6025	0.4292	0.5208	-1.848
Mof_H 	H 	0.6317	0.4508	0.534	0.458
Mof_H 	H 	0.597	0.3501	0.5357	0.399
Mof_H 	H 	0.5955	0.4189	0.4849	1.011
Mof_S 	S 	0.6124	0.5927	0.5306	0.592
Mof_C 	C 	0.6101	0.5589	0.5926	-1.112
Mof_H 	H 	0.6147	0.6369	0.6121	0.367
Mof_H 	H 	0.583	0.5242	0.591	0.312
Mof_H 	H 	0.6316	0.4973	0.6083	0.347
Mof_C 	C 	0.5917	0.4489	0.4975	-0.91
Mof_H 	H 	0.5884	0.4603	0.4623	-0.213
Mof_H 	H 	0.6106	0.3786	0.5102	0.577
Mof_H 	H 	0.5648	0.4303	0.5022	0.443
Mof_C 	C 	0.5188	0.4966	0.506	-0.178
Mof_H 	H 	0.5306	0.5608	0.531	-0.016
Mof_H 	H 	0.5275	0.4125	0.5195	0.023
Mof_H 	H 	0.5283	0.5109	0.477	0.052
Mof_Gd	Gd	0.05563	0.39494	0.50931	1.771
Mof_O 	O 	0.62027	0.8538	0.57913	-0.417
Mof_O 	O 	0.62574	0.0026	0.52601	-0.428
Mof_O 	O 	0.94253	0.5545	0.92982	-0.473
Mof_O 	O 	0.99621	0.6951	0.9491	-0.478
Mof_O 	O 	0.97569	0.425	0.53662	-0.539
Mof_O 	O 	0.02577	0.2818	0.56531	-0.46
Mof_C 	C 	0.64146	0.9359	0.56465	0.338
Mof_C 	C 	0.68707	0.9574	0.59458	-0.128
Mof_C 	C 	0.70816	0.8587	0.62569	0.04
Mof_H 	H 	0.6937	0.7847	0.6298	0.007
Mof_C 	C 	0.75086	0.8705	0.65067	-0.126
Mof_H 	H 	0.765	0.8044	0.6715	0.064
Mof_C 	C 	0.77248	0.981	0.64453	0.049
Mof_C 	C 	0.75139	0.0798	0.61341	-0.128
Mof_H 	H 	0.7659	0.1538	0.6093	0.06
Mof_C 	C 	0.70869	0.068	0.58844	0.045
Mof_H 	H 	0.6946	0.1341	0.5676	-0.003
Mof_C 	C 	0.81926	0.9882	0.66897	0.018
Mof_C 	C 	0.83799	0.9259	0.71456	-0.092
Mof_H 	H 	0.8212	0.8796	0.7299	0.053
Mof_C 	C 	0.88106	0.9313	0.73753	0.013
Mof_C 	C 	0.90587	0.9995	0.71355	-0.089
Mof_H 	H 	0.9348	0.0033	0.7284	0.058
Mof_C 	C 	0.88812	0.0623	0.6677	0.01
Mof_C 	C 	0.84466	0.0564	0.64642	-0.089
Mof_H 	H 	0.8324	0.0994	0.6163	0.046
Mof_C 	C 	0.9009	0.8642	0.78623	0.072
Mof_C 	C 	0.88245	0.7572	0.8003	-0.157
Mof_H 	H 	0.8567	0.7285	0.7795	0.077
Mof_C 	C 	0.90113	0.6912	0.84448	0.08
Mof_H 	H 	0.8876	0.6204	0.8532	0.008
Mof_C 	C 	0.93971	0.73	0.87563	-0.191
Mof_C 	C 	0.95831	0.8366	0.86242	0.078
Mof_H 	H 	0.9841	0.8649	0.8833	0.003
Mof_C 	C 	0.93912	0.9029	0.81826	-0.16
Mof_H 	H 	0.9523	0.9752	0.8101	0.078
Mof_C 	C 	0.96104	0.6537	0.9222	0.446
Mof_C 	C 	0.915	0.1331	0.6423	0.081
Mof_C 	C 	0.95499	0.0887	0.64443	-0.167
Mof_H 	H 	0.9656	0.0151	0.663	0.084
Mof_C 	C 	0.97918	0.1531	0.6192	0.099
Mof_H 	H 	0.0058	0.1222	0.6209	-0.005
Mof_C 	C 	0.96428	0.2627	0.59152	-0.223
Mof_C 	C 	0.92473	0.3072	0.58937	0.085
Mof_H 	H 	0.9143	0.3808	0.5707	-0.029
Mof_C 	C 	0.90032	0.2438	0.61467	-0.185
Mof_H 	H 	0.8738	0.2757	0.6131	0.079
Mof_C 	C 	0.99038	0.3275	0.56282	0.45
Mof_O 	O 	0.07566	0.1718	0.5041	-0.559
Mof_S 	S 	0.07133	0.0547	0.53507	0.527
Mof_C 	C 	0.1025	0.9292	0.5208	-1.847
Mof_H 	H 	0.1317	0.9508	0.534	0.458
Mof_H 	H 	0.097	0.8501	0.5357	0.399
Mof_H 	H 	0.0955	0.9189	0.4849	1.011
Mof_S 	S 	0.1124	0.0927	0.5306	0.592
Mof_C 	C 	0.1101	0.0589	0.5926	-1.11
Mof_H 	H 	0.1147	0.1369	0.6121	0.367
Mof_H 	H 	0.083	0.0242	0.591	0.312
Mof_H 	H 	0.1316	0.9973	0.6083	0.347
Mof_C 	C 	0.0917	0.9489	0.4975	-0.91
Mof_H 	H 	0.0884	0.9603	0.4623	-0.213
Mof_H 	H 	0.1106	0.8786	0.5102	0.577
Mof_H 	H 	0.0648	0.9303	0.5022	0.442
Mof_C 	C 	0.0188	0.9966	0.506	-0.178
Mof_H 	H 	0.0306	0.0608	0.531	-0.016
Mof_H 	H 	0.0275	0.9125	0.5195	0.023
Mof_H 	H 	0.0283	0.0109	0.477	0.052
_end
