data_functionalizedCrystal
_audit_creation_method	'EQeq! by Chris Wilmer'
_symmetry_space_group_name_H-M	'P1'
_symmetry_Int_Tables_number	1
_symmetry_cell_setting	triclinic
loop_
_symmetry_equiv_pos_as_xyz
  x,y,z
_cell_length_a	19.2108
_cell_length_b	19.2108
_cell_length_c	19.2108
_cell_angle_alpha	90
_cell_angle_beta	90
_cell_angle_gamma	90
loop_
_atom_site_label
_atom_site_type_symbol
_atom_site_fract_x
_atom_site_fract_y
_atom_site_fract_z
_atom_site_charge
Mof_Fe	Fe	0.85955	0.25738	0.1074	0.97
Mof_C 	C 	0.7681	0.4431	0.8269	-0.138
Mof_H 	H 	0.7424	0.4809	0.8109	0.095
Mof_C 	C 	0.7706	0.4296	0.8972	0.08
Mof_H 	H 	0.7466	0.4577	0.9285	0.023
Mof_C 	C 	0.8097	0.3734	0.921	-0.151
Mof_C 	C 	0.8441	0.3308	0.8744	0.091
Mof_H 	H 	0.87	0.2932	0.8905	0.029
Mof_C 	C 	0.8399	0.3441	0.8033	-0.154
Mof_C 	C 	0.8031	0.4015	0.7798	0.083
Mof_H 	H 	0.8019	0.4119	0.7325	0.023
Mof_C 	C 	0.8117	0.357	0.9971	0.409
Mof_C 	C 	0.871	0.2938	0.7533	0.406
Mof_O 	O 	0.84928	0.30658	0.01617	-0.392
Mof_O 	O 	0.77604	0.39451	0.03761	-0.394
Mof_O 	O 	0.867	0.30826	0.68933	-0.393
Mof_O 	O 	0.89845	0.23927	0.77714	-0.396
Mof_Fe	Fe	0.64045	0.74262	0.6074	0.97
Mof_C 	C 	0.7319	0.5569	0.3269	-0.14
Mof_H 	H 	0.7576	0.5191	0.3109	0.094
Mof_C 	C 	0.7294	0.5704	0.3972	0.08
Mof_H 	H 	0.7534	0.5423	0.4285	0.022
Mof_C 	C 	0.6903	0.6266	0.421	-0.153
Mof_C 	C 	0.6559	0.6692	0.3744	0.091
Mof_H 	H 	0.63	0.7068	0.3905	0.028
Mof_C 	C 	0.6601	0.6559	0.3033	-0.155
Mof_C 	C 	0.6969	0.5985	0.2798	0.082
Mof_H 	H 	0.6981	0.5881	0.2325	0.022
Mof_C 	C 	0.6883	0.643	0.4971	0.411
Mof_C 	C 	0.629	0.7062	0.2533	0.405
Mof_O 	O 	0.65072	0.69342	0.51617	-0.395
Mof_O 	O 	0.72396	0.60549	0.53761	-0.395
Mof_O 	O 	0.633	0.69174	0.18933	-0.393
Mof_O 	O 	0.60155	0.76073	0.27714	-0.396
Mof_Fe	Fe	0.14045	0.75738	0.3926	0.97
Mof_C 	C 	0.2319	0.9431	0.6731	-0.139
Mof_H 	H 	0.2576	0.9809	0.6891	0.094
Mof_C 	C 	0.2294	0.9296	0.6028	0.08
Mof_H 	H 	0.2534	0.9577	0.5715	0.022
Mof_C 	C 	0.1903	0.8734	0.579	-0.153
Mof_C 	C 	0.1559	0.8308	0.6256	0.091
Mof_H 	H 	0.13	0.7932	0.6095	0.028
Mof_C 	C 	0.1601	0.8441	0.6967	-0.155
Mof_C 	C 	0.1969	0.9015	0.7202	0.082
Mof_H 	H 	0.1981	0.9119	0.7675	0.022
Mof_C 	C 	0.1883	0.857	0.5029	0.411
Mof_C 	C 	0.129	0.7938	0.7467	0.405
Mof_O 	O 	0.15072	0.80658	0.48383	-0.395
Mof_O 	O 	0.22396	0.89451	0.46239	-0.395
Mof_O 	O 	0.133	0.80826	0.81067	-0.392
Mof_O 	O 	0.10155	0.73927	0.72286	-0.395
Mof_Fe	Fe	0.35955	0.24262	0.8926	0.969
Mof_C 	C 	0.2681	0.0569	0.1731	-0.138
Mof_H 	H 	0.2424	0.0191	0.1891	0.092
Mof_C 	C 	0.2706	0.0704	0.1028	0.078
Mof_H 	H 	0.2466	0.0423	0.0715	0.021
Mof_C 	C 	0.3097	0.1266	0.079	-0.15
Mof_C 	C 	0.3441	0.1692	0.1256	0.089
Mof_H 	H 	0.37	0.2068	0.1095	0.028
Mof_C 	C 	0.3399	0.1559	0.1967	-0.154
Mof_C 	C 	0.3031	0.0985	0.2202	0.08
Mof_H 	H 	0.3019	0.0881	0.2675	0.022
Mof_C 	C 	0.3117	0.143	0.0029	0.402
Mof_C 	C 	0.371	0.2062	0.2467	0.405
Mof_O 	O 	0.34928	0.19342	0.98383	-0.39
Mof_O 	O 	0.27604	0.10549	0.96239	-0.39
Mof_O 	O 	0.367	0.19174	0.31067	-0.393
Mof_O 	O 	0.39845	0.26073	0.22286	-0.396
Mof_Fe	Fe	0.1074	0.85955	0.25738	0.969
Mof_C 	C 	0.8269	0.7681	0.4431	-0.139
Mof_H 	H 	0.8109	0.7424	0.4809	0.094
Mof_C 	C 	0.8972	0.7706	0.4296	0.079
Mof_H 	H 	0.9285	0.7466	0.4577	0.022
Mof_C 	C 	0.921	0.8097	0.3734	-0.152
Mof_C 	C 	0.8744	0.8441	0.3308	0.09
Mof_H 	H 	0.8905	0.87	0.2932	0.028
Mof_C 	C 	0.8033	0.8399	0.3441	-0.155
Mof_C 	C 	0.7798	0.8031	0.4015	0.082
Mof_H 	H 	0.7325	0.8019	0.4119	0.022
Mof_C 	C 	0.9971	0.8117	0.357	0.408
Mof_C 	C 	0.7533	0.871	0.2938	0.405
Mof_O 	O 	0.01617	0.84928	0.30658	-0.393
Mof_O 	O 	0.03761	0.77604	0.39451	-0.394
Mof_O 	O 	0.68933	0.867	0.30826	-0.393
Mof_O 	O 	0.77714	0.89845	0.23927	-0.396
Mof_Fe	Fe	0.6074	0.64045	0.74262	0.97
Mof_C 	C 	0.3269	0.7319	0.5569	-0.14
Mof_H 	H 	0.3109	0.7576	0.5191	0.094
Mof_C 	C 	0.3972	0.7294	0.5704	0.08
Mof_H 	H 	0.4285	0.7534	0.5423	0.022
Mof_C 	C 	0.421	0.6903	0.6266	-0.153
Mof_C 	C 	0.3744	0.6559	0.6692	0.091
Mof_H 	H 	0.3905	0.63	0.7068	0.028
Mof_C 	C 	0.3033	0.6601	0.6559	-0.155
Mof_C 	C 	0.2798	0.6969	0.5985	0.082
Mof_H 	H 	0.2325	0.6981	0.5881	0.022
Mof_C 	C 	0.4971	0.6883	0.643	0.411
Mof_C 	C 	0.2533	0.629	0.7062	0.405
Mof_O 	O 	0.51617	0.65072	0.69342	-0.395
Mof_O 	O 	0.53761	0.72396	0.60549	-0.395
Mof_O 	O 	0.18933	0.633	0.69174	-0.393
Mof_O 	O 	0.27714	0.60155	0.76073	-0.396
Mof_Fe	Fe	0.3926	0.14045	0.75738	0.97
Mof_C 	C 	0.6731	0.2319	0.9431	-0.139
Mof_H 	H 	0.6891	0.2576	0.9809	0.094
Mof_C 	C 	0.6028	0.2294	0.9296	0.08
Mof_H 	H 	0.5715	0.2534	0.9577	0.022
Mof_C 	C 	0.579	0.1903	0.8734	-0.153
Mof_C 	C 	0.6256	0.1559	0.8308	0.091
Mof_H 	H 	0.6095	0.13	0.7932	0.028
Mof_C 	C 	0.6967	0.1601	0.8441	-0.155
Mof_C 	C 	0.7202	0.1969	0.9015	0.082
Mof_H 	H 	0.7675	0.1981	0.9119	0.022
Mof_C 	C 	0.5029	0.1883	0.857	0.411
Mof_C 	C 	0.7467	0.129	0.7938	0.405
Mof_O 	O 	0.48383	0.15072	0.80658	-0.395
Mof_O 	O 	0.46239	0.22396	0.89451	-0.395
Mof_O 	O 	0.81067	0.133	0.80826	-0.392
Mof_O 	O 	0.72286	0.10155	0.73927	-0.395
Mof_Fe	Fe	0.8926	0.35955	0.24262	0.969
Mof_C 	C 	0.1731	0.2681	0.0569	-0.138
Mof_H 	H 	0.1891	0.2424	0.0191	0.092
Mof_C 	C 	0.1028	0.2706	0.0704	0.078
Mof_H 	H 	0.0715	0.2466	0.0423	0.021
Mof_C 	C 	0.079	0.3097	0.1266	-0.15
Mof_C 	C 	0.1256	0.3441	0.1692	0.089
Mof_H 	H 	0.1095	0.37	0.2068	0.028
Mof_C 	C 	0.1967	0.3399	0.1559	-0.154
Mof_C 	C 	0.2202	0.3031	0.0985	0.08
Mof_H 	H 	0.2675	0.3019	0.0881	0.022
Mof_C 	C 	0.0029	0.3117	0.143	0.402
Mof_C 	C 	0.2467	0.371	0.2062	0.405
Mof_O 	O 	0.98383	0.34928	0.19342	-0.39
Mof_O 	O 	0.96239	0.27604	0.10549	-0.39
Mof_O 	O 	0.31067	0.367	0.19174	-0.393
Mof_O 	O 	0.22286	0.39845	0.26073	-0.396
Mof_Fe	Fe	0.25738	0.1074	0.85955	0.969
Mof_C 	C 	0.4431	0.8269	0.7681	-0.139
Mof_H 	H 	0.4809	0.8109	0.7424	0.094
Mof_C 	C 	0.4296	0.8972	0.7706	0.079
Mof_H 	H 	0.4577	0.9285	0.7466	0.022
Mof_C 	C 	0.3734	0.921	0.8097	-0.152
Mof_C 	C 	0.3308	0.8744	0.8441	0.09
Mof_H 	H 	0.2932	0.8905	0.87	0.028
Mof_C 	C 	0.3441	0.8033	0.8399	-0.155
Mof_C 	C 	0.4015	0.7798	0.8031	0.082
Mof_H 	H 	0.4119	0.7325	0.8019	0.022
Mof_C 	C 	0.357	0.9971	0.8117	0.408
Mof_C 	C 	0.2938	0.7533	0.871	0.405
Mof_O 	O 	0.30658	0.01617	0.84928	-0.393
Mof_O 	O 	0.39451	0.03761	0.77604	-0.394
Mof_O 	O 	0.30826	0.68933	0.867	-0.393
Mof_O 	O 	0.23927	0.77714	0.89845	-0.396
Mof_Fe	Fe	0.74262	0.6074	0.64045	0.97
Mof_C 	C 	0.5569	0.3269	0.7319	-0.14
Mof_H 	H 	0.5191	0.3109	0.7576	0.094
Mof_C 	C 	0.5704	0.3972	0.7294	0.08
Mof_H 	H 	0.5423	0.4285	0.7534	0.022
Mof_C 	C 	0.6266	0.421	0.6903	-0.153
Mof_C 	C 	0.6692	0.3744	0.6559	0.091
Mof_H 	H 	0.7068	0.3905	0.63	0.028
Mof_C 	C 	0.6559	0.3033	0.6601	-0.155
Mof_C 	C 	0.5985	0.2798	0.6969	0.082
Mof_H 	H 	0.5881	0.2325	0.6981	0.022
Mof_C 	C 	0.643	0.4971	0.6883	0.411
Mof_C 	C 	0.7062	0.2533	0.629	0.405
Mof_O 	O 	0.69342	0.51617	0.65072	-0.395
Mof_O 	O 	0.60549	0.53761	0.72396	-0.395
Mof_O 	O 	0.69174	0.18933	0.633	-0.393
Mof_O 	O 	0.76073	0.27714	0.60155	-0.396
Mof_Fe	Fe	0.75738	0.3926	0.14045	0.97
Mof_C 	C 	0.9431	0.6731	0.2319	-0.139
Mof_H 	H 	0.9809	0.6891	0.2576	0.094
Mof_C 	C 	0.9296	0.6028	0.2294	0.08
Mof_H 	H 	0.9577	0.5715	0.2534	0.022
Mof_C 	C 	0.8734	0.579	0.1903	-0.153
Mof_C 	C 	0.8308	0.6256	0.1559	0.091
Mof_H 	H 	0.7932	0.6095	0.13	0.028
Mof_C 	C 	0.8441	0.6967	0.1601	-0.155
Mof_C 	C 	0.9015	0.7202	0.1969	0.082
Mof_H 	H 	0.9119	0.7675	0.1981	0.022
Mof_C 	C 	0.857	0.5029	0.1883	0.411
Mof_C 	C 	0.7938	0.7467	0.129	0.405
Mof_O 	O 	0.80658	0.48383	0.15072	-0.395
Mof_O 	O 	0.89451	0.46239	0.22396	-0.395
Mof_O 	O 	0.80826	0.81067	0.133	-0.392
Mof_O 	O 	0.73927	0.72286	0.10155	-0.395
Mof_Fe	Fe	0.24262	0.8926	0.35955	0.969
Mof_C 	C 	0.0569	0.1731	0.2681	-0.138
Mof_H 	H 	0.0191	0.1891	0.2424	0.092
Mof_C 	C 	0.0704	0.1028	0.2706	0.078
Mof_H 	H 	0.0423	0.0715	0.2466	0.021
Mof_C 	C 	0.1266	0.079	0.3097	-0.15
Mof_C 	C 	0.1692	0.1256	0.3441	0.089
Mof_H 	H 	0.2068	0.1095	0.37	0.028
Mof_C 	C 	0.1559	0.1967	0.3399	-0.154
Mof_C 	C 	0.0985	0.2202	0.3031	0.08
Mof_H 	H 	0.0881	0.2675	0.3019	0.022
Mof_C 	C 	0.143	0.0029	0.3117	0.402
Mof_C 	C 	0.2062	0.2467	0.371	0.405
Mof_O 	O 	0.19342	0.98383	0.34928	-0.39
Mof_O 	O 	0.10549	0.96239	0.27604	-0.39
Mof_O 	O 	0.19174	0.31067	0.367	-0.393
Mof_O 	O 	0.26073	0.22286	0.39845	-0.396
Mof_Fe	Fe	0.14045	0.74262	0.8926	0.969
Mof_C 	C 	0.2319	0.5569	0.1731	-0.139
Mof_H 	H 	0.2576	0.5191	0.1891	0.094
Mof_C 	C 	0.2294	0.5704	0.1028	0.079
Mof_H 	H 	0.2534	0.5423	0.0715	0.022
Mof_C 	C 	0.1903	0.6266	0.079	-0.152
Mof_C 	C 	0.1559	0.6692	0.1256	0.09
Mof_H 	H 	0.13	0.7068	0.1095	0.028
Mof_C 	C 	0.1601	0.6559	0.1967	-0.155
Mof_C 	C 	0.1969	0.5985	0.2202	0.082
Mof_H 	H 	0.1981	0.5881	0.2675	0.022
Mof_C 	C 	0.1883	0.643	0.0029	0.408
Mof_C 	C 	0.129	0.7062	0.2467	0.405
Mof_O 	O 	0.15072	0.69342	0.98383	-0.393
Mof_O 	O 	0.22396	0.60549	0.96239	-0.394
Mof_O 	O 	0.133	0.69174	0.31067	-0.393
Mof_O 	O 	0.10155	0.76073	0.22286	-0.396
Mof_Fe	Fe	0.35955	0.25738	0.3926	0.97
Mof_C 	C 	0.2681	0.4431	0.6731	-0.14
Mof_H 	H 	0.2424	0.4809	0.6891	0.094
Mof_C 	C 	0.2706	0.4296	0.6028	0.08
Mof_H 	H 	0.2466	0.4577	0.5715	0.022
Mof_C 	C 	0.3097	0.3734	0.579	-0.153
Mof_C 	C 	0.3441	0.3308	0.6256	0.091
Mof_H 	H 	0.37	0.2932	0.6095	0.028
Mof_C 	C 	0.3399	0.3441	0.6967	-0.155
Mof_C 	C 	0.3031	0.4015	0.7202	0.082
Mof_H 	H 	0.3019	0.4119	0.7675	0.022
Mof_C 	C 	0.3117	0.357	0.5029	0.411
Mof_C 	C 	0.371	0.2938	0.7467	0.405
Mof_O 	O 	0.34928	0.30658	0.48383	-0.395
Mof_O 	O 	0.27604	0.39451	0.46239	-0.395
Mof_O 	O 	0.367	0.30826	0.81067	-0.393
Mof_O 	O 	0.39845	0.23927	0.72286	-0.396
Mof_Fe	Fe	0.85955	0.24262	0.6074	0.97
Mof_C 	C 	0.7681	0.0569	0.3269	-0.139
Mof_H 	H 	0.7424	0.0191	0.3109	0.094
Mof_C 	C 	0.7706	0.0704	0.3972	0.08
Mof_H 	H 	0.7466	0.0423	0.4285	0.022
Mof_C 	C 	0.8097	0.1266	0.421	-0.153
Mof_C 	C 	0.8441	0.1692	0.3744	0.091
Mof_H 	H 	0.87	0.2068	0.3905	0.028
Mof_C 	C 	0.8399	0.1559	0.3033	-0.155
Mof_C 	C 	0.8031	0.0985	0.2798	0.082
Mof_H 	H 	0.8019	0.0881	0.2325	0.022
Mof_C 	C 	0.8117	0.143	0.4971	0.411
Mof_C 	C 	0.871	0.2062	0.2533	0.405
Mof_O 	O 	0.84928	0.19342	0.51617	-0.395
Mof_O 	O 	0.77604	0.10549	0.53761	-0.395
Mof_O 	O 	0.867	0.19174	0.18933	-0.392
Mof_O 	O 	0.89845	0.26073	0.27714	-0.395
Mof_Fe	Fe	0.64045	0.75738	0.1074	0.969
Mof_C 	C 	0.7319	0.9431	0.8269	-0.138
Mof_H 	H 	0.7576	0.9809	0.8109	0.092
Mof_C 	C 	0.7294	0.9296	0.8972	0.078
Mof_H 	H 	0.7534	0.9577	0.9285	0.021
Mof_C 	C 	0.6903	0.8734	0.921	-0.15
Mof_C 	C 	0.6559	0.8308	0.8744	0.089
Mof_H 	H 	0.63	0.7932	0.8905	0.028
Mof_C 	C 	0.6601	0.8441	0.8033	-0.154
Mof_C 	C 	0.6969	0.9015	0.7798	0.08
Mof_H 	H 	0.6981	0.9119	0.7325	0.022
Mof_C 	C 	0.6883	0.857	0.9971	0.402
Mof_C 	C 	0.629	0.7938	0.7533	0.405
Mof_O 	O 	0.65072	0.80658	0.01617	-0.39
Mof_O 	O 	0.72396	0.89451	0.03761	-0.39
Mof_O 	O 	0.633	0.80826	0.68933	-0.393
Mof_O 	O 	0.60155	0.73927	0.77714	-0.396
Mof_Fe	Fe	0.8926	0.14045	0.74262	0.969
Mof_C 	C 	0.1731	0.2319	0.5569	-0.139
Mof_H 	H 	0.1891	0.2576	0.5191	0.094
Mof_C 	C 	0.1028	0.2294	0.5704	0.079
Mof_H 	H 	0.0715	0.2534	0.5423	0.022
Mof_C 	C 	0.079	0.1903	0.6266	-0.152
Mof_C 	C 	0.1256	0.1559	0.6692	0.09
Mof_H 	H 	0.1095	0.13	0.7068	0.028
Mof_C 	C 	0.1967	0.1601	0.6559	-0.155
Mof_C 	C 	0.2202	0.1969	0.5985	0.082
Mof_H 	H 	0.2675	0.1981	0.5881	0.022
Mof_C 	C 	0.0029	0.1883	0.643	0.408
Mof_C 	C 	0.2467	0.129	0.7062	0.405
Mof_O 	O 	0.98383	0.15072	0.69342	-0.393
Mof_O 	O 	0.96239	0.22396	0.60549	-0.394
Mof_O 	O 	0.31067	0.133	0.69174	-0.393
Mof_O 	O 	0.22286	0.10155	0.76073	-0.396
Mof_Fe	Fe	0.3926	0.35955	0.25738	0.97
Mof_C 	C 	0.6731	0.2681	0.4431	-0.14
Mof_H 	H 	0.6891	0.2424	0.4809	0.094
Mof_C 	C 	0.6028	0.2706	0.4296	0.08
Mof_H 	H 	0.5715	0.2466	0.4577	0.022
Mof_C 	C 	0.579	0.3097	0.3734	-0.153
Mof_C 	C 	0.6256	0.3441	0.3308	0.091
Mof_H 	H 	0.6095	0.37	0.2932	0.028
Mof_C 	C 	0.6967	0.3399	0.3441	-0.155
Mof_C 	C 	0.7202	0.3031	0.4015	0.082
Mof_H 	H 	0.7675	0.3019	0.4119	0.022
Mof_C 	C 	0.5029	0.3117	0.357	0.411
Mof_C 	C 	0.7467	0.371	0.2938	0.405
Mof_O 	O 	0.48383	0.34928	0.30658	-0.395
Mof_O 	O 	0.46239	0.27604	0.39451	-0.395
Mof_O 	O 	0.81067	0.367	0.30826	-0.393
Mof_O 	O 	0.72286	0.39845	0.23927	-0.396
Mof_Fe	Fe	0.6074	0.85955	0.24262	0.97
Mof_C 	C 	0.3269	0.7681	0.0569	-0.139
Mof_H 	H 	0.3109	0.7424	0.0191	0.094
Mof_C 	C 	0.3972	0.7706	0.0704	0.08
Mof_H 	H 	0.4285	0.7466	0.0423	0.022
Mof_C 	C 	0.421	0.8097	0.1266	-0.153
Mof_C 	C 	0.3744	0.8441	0.1692	0.091
Mof_H 	H 	0.3905	0.87	0.2068	0.028
Mof_C 	C 	0.3033	0.8399	0.1559	-0.155
Mof_C 	C 	0.2798	0.8031	0.0985	0.082
Mof_H 	H 	0.2325	0.8019	0.0881	0.022
Mof_C 	C 	0.4971	0.8117	0.143	0.411
Mof_C 	C 	0.2533	0.871	0.2062	0.405
Mof_O 	O 	0.51617	0.84928	0.19342	-0.395
Mof_O 	O 	0.53761	0.77604	0.10549	-0.395
Mof_O 	O 	0.18933	0.867	0.19174	-0.392
Mof_O 	O 	0.27714	0.89845	0.26073	-0.395
Mof_Fe	Fe	0.1074	0.64045	0.75738	0.969
Mof_C 	C 	0.8269	0.7319	0.9431	-0.138
Mof_H 	H 	0.8109	0.7576	0.9809	0.092
Mof_C 	C 	0.8972	0.7294	0.9296	0.078
Mof_H 	H 	0.9285	0.7534	0.9577	0.021
Mof_C 	C 	0.921	0.6903	0.8734	-0.15
Mof_C 	C 	0.8744	0.6559	0.8308	0.089
Mof_H 	H 	0.8905	0.63	0.7932	0.028
Mof_C 	C 	0.8033	0.6601	0.8441	-0.154
Mof_C 	C 	0.7798	0.6969	0.9015	0.08
Mof_H 	H 	0.7325	0.6981	0.9119	0.022
Mof_C 	C 	0.9971	0.6883	0.857	0.402
Mof_C 	C 	0.7533	0.629	0.7938	0.405
Mof_O 	O 	0.01617	0.65072	0.80658	-0.39
Mof_O 	O 	0.03761	0.72396	0.89451	-0.39
Mof_O 	O 	0.68933	0.633	0.80826	-0.393
Mof_O 	O 	0.77714	0.60155	0.73927	-0.396
Mof_Fe	Fe	0.74262	0.8926	0.14045	0.969
Mof_C 	C 	0.5569	0.1731	0.2319	-0.139
Mof_H 	H 	0.5191	0.1891	0.2576	0.094
Mof_C 	C 	0.5704	0.1028	0.2294	0.079
Mof_H 	H 	0.5423	0.0715	0.2534	0.022
Mof_C 	C 	0.6266	0.079	0.1903	-0.152
Mof_C 	C 	0.6692	0.1256	0.1559	0.09
Mof_H 	H 	0.7068	0.1095	0.13	0.028
Mof_C 	C 	0.6559	0.1967	0.1601	-0.155
Mof_C 	C 	0.5985	0.2202	0.1969	0.082
Mof_H 	H 	0.5881	0.2675	0.1981	0.022
Mof_C 	C 	0.643	0.0029	0.1883	0.408
Mof_C 	C 	0.7062	0.2467	0.129	0.405
Mof_O 	O 	0.69342	0.98383	0.15072	-0.393
Mof_O 	O 	0.60549	0.96239	0.22396	-0.394
Mof_O 	O 	0.69174	0.31067	0.133	-0.393
Mof_O 	O 	0.76073	0.22286	0.10155	-0.396
Mof_Fe	Fe	0.25738	0.3926	0.35955	0.97
Mof_C 	C 	0.4431	0.6731	0.2681	-0.14
Mof_H 	H 	0.4809	0.6891	0.2424	0.094
Mof_C 	C 	0.4296	0.6028	0.2706	0.08
Mof_H 	H 	0.4577	0.5715	0.2466	0.022
Mof_C 	C 	0.3734	0.579	0.3097	-0.153
Mof_C 	C 	0.3308	0.6256	0.3441	0.091
Mof_H 	H 	0.2932	0.6095	0.37	0.028
Mof_C 	C 	0.3441	0.6967	0.3399	-0.155
Mof_C 	C 	0.4015	0.7202	0.3031	0.082
Mof_H 	H 	0.4119	0.7675	0.3019	0.022
Mof_C 	C 	0.357	0.5029	0.3117	0.411
Mof_C 	C 	0.2938	0.7467	0.371	0.405
Mof_O 	O 	0.30658	0.48383	0.34928	-0.395
Mof_O 	O 	0.39451	0.46239	0.27604	-0.395
Mof_O 	O 	0.30826	0.81067	0.367	-0.393
Mof_O 	O 	0.23927	0.72286	0.39845	-0.396
Mof_Fe	Fe	0.24262	0.6074	0.85955	0.97
Mof_C 	C 	0.0569	0.3269	0.7681	-0.139
Mof_H 	H 	0.0191	0.3109	0.7424	0.094
Mof_C 	C 	0.0704	0.3972	0.7706	0.08
Mof_H 	H 	0.0423	0.4285	0.7466	0.022
Mof_C 	C 	0.1266	0.421	0.8097	-0.153
Mof_C 	C 	0.1692	0.3744	0.8441	0.091
Mof_H 	H 	0.2068	0.3905	0.87	0.028
Mof_C 	C 	0.1559	0.3033	0.8399	-0.155
Mof_C 	C 	0.0985	0.2798	0.8031	0.082
Mof_H 	H 	0.0881	0.2325	0.8019	0.022
Mof_C 	C 	0.143	0.4971	0.8117	0.411
Mof_C 	C 	0.2062	0.2533	0.871	0.405
Mof_O 	O 	0.19342	0.51617	0.84928	-0.395
Mof_O 	O 	0.10549	0.53761	0.77604	-0.395
Mof_O 	O 	0.19174	0.18933	0.867	-0.392
Mof_O 	O 	0.26073	0.27714	0.89845	-0.395
Mof_Fe	Fe	0.75738	0.1074	0.64045	0.969
Mof_C 	C 	0.9431	0.8269	0.7319	-0.138
Mof_H 	H 	0.9809	0.8109	0.7576	0.092
Mof_C 	C 	0.9296	0.8972	0.7294	0.078
Mof_H 	H 	0.9577	0.9285	0.7534	0.021
Mof_C 	C 	0.8734	0.921	0.6903	-0.15
Mof_C 	C 	0.8308	0.8744	0.6559	0.089
Mof_H 	H 	0.7932	0.8905	0.63	0.028
Mof_C 	C 	0.8441	0.8033	0.6601	-0.154
Mof_C 	C 	0.9015	0.7798	0.6969	0.08
Mof_H 	H 	0.9119	0.7325	0.6981	0.022
Mof_C 	C 	0.857	0.9971	0.6883	0.402
Mof_C 	C 	0.7938	0.7533	0.629	0.405
Mof_O 	O 	0.80658	0.01617	0.65072	-0.39
Mof_O 	O 	0.89451	0.03761	0.72396	-0.39
Mof_O 	O 	0.80826	0.68933	0.633	-0.393
Mof_O 	O 	0.73927	0.77714	0.60155	-0.396
Mof_O 	O 	0.83642	0.33642	0.16358	-0.535
Mof_O 	O 	0.66358	0.66358	0.66358	-0.535
Mof_O 	O 	0.16358	0.83642	0.33642	-0.535
Mof_O 	O 	0.33642	0.16358	0.83642	-0.535
Mof_O 	O 	0.16358	0.66358	0.83642	-0.535
Mof_O 	O 	0.33642	0.33642	0.33642	-0.535
Mof_O 	O 	0.83642	0.16358	0.66358	-0.535
Mof_O 	O 	0.66358	0.83642	0.16358	-0.535
_end
