data_functionalizedCrystal
_audit_creation_method	'EQeq! by Chris Wilmer'
_symmetry_space_group_name_H-M	'P1'
_symmetry_Int_Tables_number	1
_symmetry_cell_setting	triclinic
loop_
_symmetry_equiv_pos_as_xyz
  x,y,z
_cell_length_a	8.655
_cell_length_b	9.9366
_cell_length_c	11.717
_cell_angle_alpha	74.71
_cell_angle_beta	69.795
_cell_angle_gamma	85.959
loop_
_atom_site_label
_atom_site_type_symbol
_atom_site_fract_x
_atom_site_fract_y
_atom_site_fract_z
_atom_site_charge
Mof_Pr	Pr	0.74555	0.97761	0.01192	2.273
Mof_Pr	Pr	0.25445	0.02239	0.98808	2.273
Mof_H 	H 	0.2656	0.9754	0.6721	0.14
Mof_H 	H 	0.2458	0.8135	0.7254	0.119
Mof_H 	H 	0.0951	0.7984	0.6028	0.018
Mof_H 	H 	0.0857	0.9614	0.5604	0.016
Mof_H 	H 	0.3742	0.9729	0.4571	0.021
Mof_H 	H 	0.3762	0.8096	0.4934	0.025
Mof_H 	H 	0.2045	0.9595	0.3365	0.133
Mof_H 	H 	0.2338	0.7987	0.3624	0.119
Mof_H 	H 	0.7549	0.4833	0.2183	0.121
Mof_H 	H 	0.7209	0.4696	0.0988	0.115
Mof_H 	H 	0.0349	0.5225	0.1027	0.022
Mof_H 	H 	0.9767	0.3782	0.0994	0.019
Mof_H 	H 	0.7344	0.0246	0.3279	0.14
Mof_H 	H 	0.7542	0.1865	0.2746	0.119
Mof_H 	H 	0.9049	0.2016	0.3972	0.018
Mof_H 	H 	0.9143	0.0386	0.4396	0.016
Mof_H 	H 	0.6258	0.0271	0.5429	0.021
Mof_H 	H 	0.6238	0.1904	0.5066	0.025
Mof_H 	H 	0.7955	0.0405	0.6635	0.133
Mof_H 	H 	0.7662	0.2013	0.6376	0.119
Mof_H 	H 	0.2451	0.5167	0.7817	0.121
Mof_H 	H 	0.2791	0.5304	0.9012	0.115
Mof_H 	H 	0.9651	0.4775	0.8973	0.022
Mof_H 	H 	0.0233	0.6218	0.9006	0.019
Mof_C 	C 	0.0446	0.9156	0.8068	0.484
Mof_C 	C 	0.1899	0.897	0.6972	-0.405
Mof_C 	C 	0.155	0.8853	0.5829	0.016
Mof_C 	C 	0.3109	0.8894	0.472	-0.002
Mof_C 	C 	0.2829	0.8882	0.3512	-0.395
Mof_C 	C 	0.5644	0.0873	0.7633	0.485
Mof_C 	C 	0.7622	0.6715	0.0928	0.42
Mof_C 	C 	0.7894	0.5166	0.1274	-0.354
Mof_C 	C 	0.9672	0.4784	0.0713	-0.007
Mof_C 	C 	0.9554	0.0844	0.1932	0.484
Mof_C 	C 	0.8101	0.103	0.3028	-0.405
Mof_C 	C 	0.845	0.1147	0.4171	0.016
Mof_C 	C 	0.6891	0.1106	0.528	-0.002
Mof_C 	C 	0.7171	0.1118	0.6488	-0.395
Mof_C 	C 	0.4356	0.9127	0.2367	0.485
Mof_C 	C 	0.2378	0.3285	0.9072	0.42
Mof_C 	C 	0.2106	0.4834	0.8726	-0.354
Mof_C 	C 	0.0328	0.5216	0.9287	-0.007
Mof_O 	O 	0.5777	0.0448	0.87212	-0.712
Mof_O 	O 	0.5751	0.8927	0.2468	-0.507
Mof_O 	O 	0.8625	0.753	0.0983	-0.509
Mof_O 	O 	0.6416	0.7186	0.0591	-0.471
Mof_O 	O 	0.9006	0.8836	0.8188	-0.498
Mof_O 	O 	0.0681	0.9647	0.88908	-0.686
Mof_O 	O 	0.4223	0.9552	0.12788	-0.712
Mof_O 	O 	0.4249	0.1073	0.7532	-0.507
Mof_O 	O 	0.1375	0.247	0.9017	-0.509
Mof_O 	O 	0.3584	0.2814	0.9409	-0.471
Mof_O 	O 	0.0994	0.1164	0.1812	-0.498
Mof_O 	O 	0.9319	0.0353	0.11092	-0.686
_end
