# CIF file generated by openbabel 3.1.0, see https://openbabel.org
data_I
_chemical_name_common 'OKIVIO02_charged'
_cell_length_a 15.8271
_cell_length_b 15.8271
_cell_length_c 21.856
_cell_angle_alpha 90
_cell_angle_beta 90
_cell_angle_gamma 90
_space_group_name_H-M_alt 'P 1'
_space_group_name_Hall 'P 1'
loop_
    _symmetry_equiv_pos_as_xyz
    x,y,z
loop_
    _atom_site_label
    _atom_site_type_symbol
    _atom_site_fract_x
    _atom_site_fract_y
    _atom_site_fract_z
    _atom_site_occupancy
    Cd1      Cd       0.94230    0.05770    0.75000    1.000
    Cd2      Cd       0.05770    0.94230    0.25000    1.000
    Cd3      Cd       0.44230    0.44230    0.50000    1.000
    Cd4      Cd       0.55770    0.55770    0.00000    1.000
    H1       H        0.46470    0.38800    0.64990    1.000
    H2       H        0.41660    0.28590    0.71360    1.000
    H3       H        0.21590    0.25980    0.60500    1.000
    H4       H        0.27290    0.36010    0.54150    1.000
    H5       H        0.34760    0.20420    0.77960    1.000
    H6       H        0.29700    0.09160    0.83400    1.000
    H7       H        0.19880    0.00060    0.79250    1.000
    H8       H        0.20420    0.13580    0.63710    1.000
    H9       H        0.95750    0.88170    0.54050    1.000
    H10      H        0.93860    0.77200    0.47110    1.000
    H11      H        0.03940    0.66830    0.46150    1.000
    H12      H        0.17370    0.77620    0.59520    1.000
    H13      H        0.15490    0.60400    0.43720    1.000
    H14      H        0.26520    0.51120    0.42750    1.000
    H15      H        0.33880    0.55730    0.59330    1.000
    H16      H        0.23300    0.65090    0.60780    1.000
    H17      H        0.25740    0.97560    0.60910    1.000
    H18      H        0.26050    0.89930    0.64580    1.000
    H19      H        0.53530    0.61200    0.14990    1.000
    H20      H        0.58340    0.71410    0.21360    1.000
    H21      H        0.78410    0.74020    0.10500    1.000
    H22      H        0.72710    0.63990    0.04150    1.000
    H23      H        0.65240    0.79580    0.27960    1.000
    H24      H        0.70300    0.90840    0.33400    1.000
    H25      H        0.80120    0.99940    0.29250    1.000
    H26      H        0.79580    0.86420    0.13710    1.000
    H27      H        0.04250    0.11830    0.04050    1.000
    H28      H        0.06140    0.22800    0.97110    1.000
    H29      H        0.96060    0.33170    0.96150    1.000
    H30      H        0.82630    0.22380    0.09520    1.000
    H31      H        0.84510    0.39600    0.93720    1.000
    H32      H        0.73480    0.48880    0.92750    1.000
    H33      H        0.66120    0.44270    0.09330    1.000
    H34      H        0.76700    0.34910    0.10780    1.000
    H35      H        0.74260    0.02440    0.10910    1.000
    H36      H        0.73950    0.10070    0.14580    1.000
    H37      H        0.11200    0.96470    0.39990    1.000
    H38      H        0.21410    0.91660    0.46360    1.000
    H39      H        0.24020    0.71590    0.35500    1.000
    H40      H        0.13990    0.77290    0.29150    1.000
    H41      H        0.29580    0.84760    0.52960    1.000
    H42      H        0.40840    0.79700    0.58400    1.000
    H43      H        0.49940    0.69880    0.54250    1.000
    H44      H        0.36420    0.70420    0.38710    1.000
    H45      H        0.61830    0.45750    0.29050    1.000
    H46      H        0.72800    0.43860    0.22110    1.000
    H47      H        0.83170    0.53940    0.21150    1.000
    H48      H        0.72380    0.67370    0.34520    1.000
    H49      H        0.89600    0.65490    0.18720    1.000
    H50      H        0.98880    0.76520    0.17750    1.000
    H51      H        0.94270    0.83880    0.34330    1.000
    H52      H        0.84910    0.73300    0.35780    1.000
    H53      H        0.52440    0.75740    0.35910    1.000
    H54      H        0.60070    0.76050    0.39580    1.000
    H55      H        0.88800    0.03530    0.89990    1.000
    H56      H        0.78590    0.08340    0.96360    1.000
    H57      H        0.75980    0.28410    0.85500    1.000
    H58      H        0.86010    0.22710    0.79150    1.000
    H59      H        0.70420    0.15240    0.02960    1.000
    H60      H        0.59160    0.20300    0.08400    1.000
    H61      H        0.50060    0.30120    0.04250    1.000
    H62      H        0.63580    0.29580    0.88710    1.000
    H63      H        0.38170    0.54250    0.79050    1.000
    H64      H        0.27200    0.56140    0.72110    1.000
    H65      H        0.16830    0.46060    0.71150    1.000
    H66      H        0.27620    0.32630    0.84520    1.000
    H67      H        0.10400    0.34510    0.68720    1.000
    H68      H        0.01120    0.23480    0.67750    1.000
    H69      H        0.05730    0.16120    0.84330    1.000
    H70      H        0.15090    0.26700    0.85780    1.000
    H71      H        0.47560    0.24260    0.85910    1.000
    H72      H        0.39930    0.23950    0.89580    1.000
    H73      H        0.03530    0.88800    0.10010    1.000
    H74      H        0.08340    0.78590    0.03640    1.000
    H75      H        0.28410    0.75980    0.14500    1.000
    H76      H        0.22710    0.86010    0.20850    1.000
    H77      H        0.15240    0.70420    0.97040    1.000
    H78      H        0.20300    0.59160    0.91600    1.000
    H79      H        0.30120    0.50060    0.95750    1.000
    H80      H        0.29580    0.63580    0.11290    1.000
    H81      H        0.54250    0.38170    0.20950    1.000
    H82      H        0.56140    0.27200    0.27890    1.000
    H83      H        0.46060    0.16830    0.28850    1.000
    H84      H        0.32630    0.27620    0.15480    1.000
    H85      H        0.34510    0.10400    0.31280    1.000
    H86      H        0.23480    0.01120    0.32250    1.000
    H87      H        0.16120    0.05730    0.15670    1.000
    H88      H        0.26700    0.15090    0.14220    1.000
    H89      H        0.24260    0.47560    0.14090    1.000
    H90      H        0.23950    0.39930    0.10420    1.000
    H91      H        0.96470    0.11200    0.60010    1.000
    H92      H        0.91660    0.21410    0.53640    1.000
    H93      H        0.71590    0.24020    0.64500    1.000
    H94      H        0.77290    0.13990    0.70850    1.000
    H95      H        0.84760    0.29580    0.47040    1.000
    H96      H        0.79700    0.40840    0.41600    1.000
    H97      H        0.69880    0.49940    0.45750    1.000
    H98      H        0.70420    0.36420    0.61290    1.000
    H99      H        0.45750    0.61830    0.70950    1.000
    H100     H        0.43860    0.72800    0.77890    1.000
    H101     H        0.53940    0.83170    0.78850    1.000
    H102     H        0.67370    0.72380    0.65480    1.000
    H103     H        0.65490    0.89600    0.81280    1.000
    H104     H        0.76520    0.98880    0.82250    1.000
    H105     H        0.83880    0.94270    0.65670    1.000
    H106     H        0.73300    0.84910    0.64220    1.000
    H107     H        0.75740    0.52440    0.64090    1.000
    H108     H        0.76050    0.60070    0.60420    1.000
    H109     H        0.38800    0.46470    0.35010    1.000
    H110     H        0.28590    0.41660    0.28640    1.000
    H111     H        0.25980    0.21590    0.39500    1.000
    H112     H        0.36010    0.27290    0.45850    1.000
    H113     H        0.20420    0.34760    0.22040    1.000
    H114     H        0.09160    0.29700    0.16600    1.000
    H115     H        0.00060    0.19880    0.20750    1.000
    H116     H        0.13580    0.20420    0.36290    1.000
    H117     H        0.88170    0.95750    0.45950    1.000
    H118     H        0.77200    0.93860    0.52890    1.000
    H119     H        0.66830    0.03940    0.53850    1.000
    H120     H        0.77620    0.17370    0.40480    1.000
    H121     H        0.60400    0.15490    0.56280    1.000
    H122     H        0.51120    0.26520    0.57250    1.000
    H123     H        0.55730    0.33880    0.40670    1.000
    H124     H        0.65090    0.23300    0.39220    1.000
    H125     H        0.97560    0.25740    0.39090    1.000
    H126     H        0.89930    0.26050    0.35420    1.000
    H127     H        0.61200    0.53530    0.85010    1.000
    H128     H        0.71410    0.58340    0.78640    1.000
    H129     H        0.74020    0.78410    0.89500    1.000
    H130     H        0.63990    0.72710    0.95850    1.000
    H131     H        0.79580    0.65240    0.72040    1.000
    H132     H        0.90840    0.70300    0.66600    1.000
    H133     H        0.99940    0.80120    0.70750    1.000
    H134     H        0.86420    0.79580    0.86290    1.000
    H135     H        0.11830    0.04250    0.95950    1.000
    H136     H        0.22800    0.06140    0.02890    1.000
    H137     H        0.33170    0.96060    0.03850    1.000
    H138     H        0.22380    0.82630    0.90480    1.000
    H139     H        0.39600    0.84510    0.06280    1.000
    H140     H        0.48880    0.73480    0.07250    1.000
    H141     H        0.44270    0.66120    0.90670    1.000
    H142     H        0.34910    0.76700    0.89220    1.000
    H143     H        0.02440    0.74260    0.89090    1.000
    H144     H        0.10070    0.73950    0.85420    1.000
    C1       C        0.41550    0.35930    0.63940    1.000
    C2       C        0.38660    0.29830    0.67820    1.000
    C3       C        0.31250    0.25430    0.66500    1.000
    C4       C        0.26880    0.28240    0.61390    1.000
    C5       C        0.30280    0.34370    0.57610    1.000
    C6       C        0.28130    0.18220    0.70230    1.000
    C7       C        0.30840    0.16790    0.76180    1.000
    C8       C        0.27770    0.10070    0.79430    1.000
    C9       C        0.21890    0.04600    0.76980    1.000
    C10      C        0.19000    0.06010    0.71010    1.000
    C11      C        0.22230    0.12720    0.67710    1.000
    C12      C        0.12750    0.00410    0.68050    1.000
    C13      C        0.07680    0.90900    0.61830    1.000
    C14      C        0.06890    0.83940    0.57440    1.000
    C15      C        0.99740    0.83890    0.53740    1.000
    C16      C        0.98650    0.77330    0.49570    1.000
    C17      C        0.04600    0.71070    0.49060    1.000
    C18      C        0.11570    0.71050    0.52860    1.000
    C19      C        0.12640    0.77580    0.57000    1.000
    C20      C        0.18230    0.64250    0.52260    1.000
    C21      C        0.19250    0.59680    0.46950    1.000
    C22      C        0.25890    0.54000    0.46430    1.000
    C23      C        0.30170    0.56720    0.56110    1.000
    C24      C        0.23860    0.62420    0.57010    1.000
    C25      C        0.58450    0.64070    0.13940    1.000
    C26      C        0.61340    0.70170    0.17820    1.000
    C27      C        0.68750    0.74570    0.16500    1.000
    C28      C        0.73120    0.71760    0.11390    1.000
    C29      C        0.69720    0.65630    0.07610    1.000
    C30      C        0.71870    0.81780    0.20230    1.000
    C31      C        0.69160    0.83210    0.26180    1.000
    C32      C        0.72230    0.89930    0.29430    1.000
    C33      C        0.78110    0.95400    0.26980    1.000
    C34      C        0.81000    0.93990    0.21010    1.000
    C35      C        0.77770    0.87280    0.17710    1.000
    C36      C        0.87250    0.99590    0.18050    1.000
    C37      C        0.92320    0.09100    0.11830    1.000
    C38      C        0.93110    0.16060    0.07440    1.000
    C39      C        0.00260    0.16110    0.03740    1.000
    C40      C        0.01350    0.22670    0.99570    1.000
    C41      C        0.95400    0.28930    0.99060    1.000
    C42      C        0.88430    0.28950    0.02860    1.000
    C43      C        0.87360    0.22420    0.07000    1.000
    C44      C        0.81770    0.35750    0.02260    1.000
    C45      C        0.80750    0.40320    0.96950    1.000
    C46      C        0.74110    0.46000    0.96430    1.000
    C47      C        0.69830    0.43280    0.06110    1.000
    C48      C        0.76140    0.37580    0.07010    1.000
    C49      C        0.14070    0.91550    0.38940    1.000
    C50      C        0.20170    0.88660    0.42820    1.000
    C51      C        0.24570    0.81250    0.41500    1.000
    C52      C        0.21760    0.76880    0.36390    1.000
    C53      C        0.15630    0.80280    0.32610    1.000
    C54      C        0.31780    0.78130    0.45230    1.000
    C55      C        0.33210    0.80840    0.51180    1.000
    C56      C        0.39930    0.77770    0.54430    1.000
    C57      C        0.45400    0.71890    0.51980    1.000
    C58      C        0.43990    0.69000    0.46010    1.000
    C59      C        0.37280    0.72230    0.42710    1.000
    C60      C        0.49590    0.62750    0.43050    1.000
    C61      C        0.59100    0.57680    0.36830    1.000
    C62      C        0.66060    0.56890    0.32440    1.000
    C63      C        0.66110    0.49740    0.28740    1.000
    C64      C        0.72670    0.48650    0.24570    1.000
    C65      C        0.78930    0.54600    0.24060    1.000
    C66      C        0.78950    0.61570    0.27860    1.000
    C67      C        0.72420    0.62640    0.32000    1.000
    C68      C        0.85750    0.68230    0.27260    1.000
    C69      C        0.90320    0.69250    0.21950    1.000
    C70      C        0.96000    0.75890    0.21430    1.000
    C71      C        0.93280    0.80170    0.31110    1.000
    C72      C        0.87580    0.73860    0.32010    1.000
    C73      C        0.85930    0.08450    0.88940    1.000
    C74      C        0.79830    0.11340    0.92820    1.000
    C75      C        0.75430    0.18750    0.91500    1.000
    C76      C        0.78240    0.23120    0.86390    1.000
    C77      C        0.84370    0.19720    0.82610    1.000
    C78      C        0.68220    0.21870    0.95230    1.000
    C79      C        0.66790    0.19160    0.01180    1.000
    C80      C        0.60070    0.22230    0.04430    1.000
    C81      C        0.54600    0.28110    0.01980    1.000
    C82      C        0.56010    0.31000    0.96010    1.000
    C83      C        0.62720    0.27770    0.92710    1.000
    C84      C        0.50410    0.37250    0.93050    1.000
    C85      C        0.40900    0.42320    0.86830    1.000
    C86      C        0.33940    0.43110    0.82440    1.000
    C87      C        0.33890    0.50260    0.78740    1.000
    C88      C        0.27330    0.51350    0.74570    1.000
    C89      C        0.21070    0.45400    0.74060    1.000
    C90      C        0.21050    0.38430    0.77860    1.000
    C91      C        0.27580    0.37360    0.82000    1.000
    C92      C        0.14250    0.31770    0.77260    1.000
    C93      C        0.09680    0.30750    0.71950    1.000
    C94      C        0.04000    0.24110    0.71430    1.000
    C95      C        0.06720    0.19830    0.81110    1.000
    C96      C        0.12420    0.26140    0.82010    1.000
    C97      C        0.08450    0.85930    0.11060    1.000
    C98      C        0.11340    0.79830    0.07180    1.000
    C99      C        0.18750    0.75430    0.08500    1.000
    C100     C        0.23120    0.78240    0.13610    1.000
    C101     C        0.19720    0.84370    0.17390    1.000
    C102     C        0.21870    0.68220    0.04770    1.000
    C103     C        0.19160    0.66790    0.98820    1.000
    C104     C        0.22230    0.60070    0.95570    1.000
    C105     C        0.28110    0.54600    0.98020    1.000
    C106     C        0.31000    0.56010    0.03990    1.000
    C107     C        0.27770    0.62720    0.07290    1.000
    C108     C        0.37250    0.50410    0.06950    1.000
    C109     C        0.42320    0.40900    0.13170    1.000
    C110     C        0.43110    0.33940    0.17560    1.000
    C111     C        0.50260    0.33890    0.21260    1.000
    C112     C        0.51350    0.27330    0.25430    1.000
    C113     C        0.45400    0.21070    0.25940    1.000
    C114     C        0.38430    0.21050    0.22140    1.000
    C115     C        0.37360    0.27580    0.18000    1.000
    C116     C        0.31770    0.14250    0.22740    1.000
    C117     C        0.30750    0.09680    0.28050    1.000
    C118     C        0.24110    0.04000    0.28570    1.000
    C119     C        0.19830    0.06720    0.18890    1.000
    C120     C        0.26140    0.12420    0.17990    1.000
    C121     C        0.91550    0.14070    0.61060    1.000
    C122     C        0.88660    0.20170    0.57180    1.000
    C123     C        0.81250    0.24570    0.58500    1.000
    C124     C        0.76880    0.21760    0.63610    1.000
    C125     C        0.80280    0.15630    0.67390    1.000
    C126     C        0.78130    0.31780    0.54770    1.000
    C127     C        0.80840    0.33210    0.48820    1.000
    C128     C        0.77770    0.39930    0.45570    1.000
    C129     C        0.71890    0.45400    0.48020    1.000
    C130     C        0.69000    0.43990    0.53990    1.000
    C131     C        0.72230    0.37280    0.57290    1.000
    C132     C        0.62750    0.49590    0.56950    1.000
    C133     C        0.57680    0.59100    0.63170    1.000
    C134     C        0.56890    0.66060    0.67560    1.000
    C135     C        0.49740    0.66110    0.71260    1.000
    C136     C        0.48650    0.72670    0.75430    1.000
    C137     C        0.54600    0.78930    0.75940    1.000
    C138     C        0.61570    0.78950    0.72140    1.000
    C139     C        0.62640    0.72420    0.68000    1.000
    C140     C        0.68230    0.85750    0.72740    1.000
    C141     C        0.69250    0.90320    0.78050    1.000
    C142     C        0.75890    0.96000    0.78570    1.000
    C143     C        0.80170    0.93280    0.68890    1.000
    C144     C        0.73860    0.87580    0.67990    1.000
    C145     C        0.35930    0.41550    0.36060    1.000
    C146     C        0.29830    0.38660    0.32180    1.000
    C147     C        0.25430    0.31250    0.33500    1.000
    C148     C        0.28240    0.26880    0.38610    1.000
    C149     C        0.34370    0.30280    0.42390    1.000
    C150     C        0.18220    0.28130    0.29770    1.000
    C151     C        0.16790    0.30840    0.23820    1.000
    C152     C        0.10070    0.27770    0.20570    1.000
    C153     C        0.04600    0.21890    0.23020    1.000
    C154     C        0.06010    0.19000    0.28990    1.000
    C155     C        0.12720    0.22230    0.32290    1.000
    C156     C        0.00410    0.12750    0.31950    1.000
    C157     C        0.90900    0.07680    0.38170    1.000
    C158     C        0.83940    0.06890    0.42560    1.000
    C159     C        0.83890    0.99740    0.46260    1.000
    C160     C        0.77330    0.98650    0.50430    1.000
    C161     C        0.71070    0.04600    0.50940    1.000
    C162     C        0.71050    0.11570    0.47140    1.000
    C163     C        0.77580    0.12640    0.43000    1.000
    C164     C        0.64250    0.18230    0.47740    1.000
    C165     C        0.59680    0.19250    0.53050    1.000
    C166     C        0.54000    0.25890    0.53570    1.000
    C167     C        0.56720    0.30170    0.43890    1.000
    C168     C        0.62420    0.23860    0.42990    1.000
    C169     C        0.64070    0.58450    0.86060    1.000
    C170     C        0.70170    0.61340    0.82180    1.000
    C171     C        0.74570    0.68750    0.83500    1.000
    C172     C        0.71760    0.73120    0.88610    1.000
    C173     C        0.65630    0.69720    0.92390    1.000
    C174     C        0.81780    0.71870    0.79770    1.000
    C175     C        0.83210    0.69160    0.73820    1.000
    C176     C        0.89930    0.72230    0.70570    1.000
    C177     C        0.95400    0.78110    0.73020    1.000
    C178     C        0.93990    0.81000    0.78990    1.000
    C179     C        0.87280    0.77770    0.82290    1.000
    C180     C        0.99590    0.87250    0.81950    1.000
    C181     C        0.09100    0.92320    0.88170    1.000
    C182     C        0.16060    0.93110    0.92560    1.000
    C183     C        0.16110    0.00260    0.96260    1.000
    C184     C        0.22670    0.01350    0.00430    1.000
    C185     C        0.28930    0.95400    0.00940    1.000
    C186     C        0.28950    0.88430    0.97140    1.000
    C187     C        0.22420    0.87360    0.93000    1.000
    C188     C        0.35750    0.81770    0.97740    1.000
    C189     C        0.40320    0.80750    0.03050    1.000
    C190     C        0.46000    0.74110    0.03570    1.000
    C191     C        0.43280    0.69830    0.93890    1.000
    C192     C        0.37580    0.76140    0.92990    1.000
    N1       N        0.37740    0.38010    0.58750    1.000
    N2       N        0.04600    0.00610    0.68500    1.000
    N3       N        0.01330    0.94510    0.64560    1.000
    N4       N        0.15010    0.94420    0.63919    1.000
    N5       N        0.23160    0.92700    0.61740    1.000
    N6       N        0.31390    0.52420    0.50870    1.000
    N7       N        0.62260    0.61990    0.08750    1.000
    N8       N        0.95400    0.99390    0.18500    1.000
    N9       N        0.98670    0.05490    0.14560    1.000
    N10      N        0.84990    0.05580    0.13919    1.000
    N11      N        0.76840    0.07300    0.11740    1.000
    N12      N        0.68610    0.47580    0.00870    1.000
    N13      N        0.11990    0.87740    0.33750    1.000
    N14      N        0.49390    0.54600    0.43500    1.000
    N15      N        0.55490    0.51330    0.39560    1.000
    N16      N        0.55580    0.65010    0.38919    1.000
    N17      N        0.57300    0.73160    0.36740    1.000
    N18      N        0.97580    0.81390    0.25870    1.000
    N19      N        0.88010    0.12260    0.83750    1.000
    N20      N        0.50610    0.45400    0.93500    1.000
    N21      N        0.44510    0.48670    0.89560    1.000
    N22      N        0.44420    0.34990    0.88919    1.000
    N23      N        0.42700    0.26840    0.86740    1.000
    N24      N        0.02420    0.18610    0.75870    1.000
    N25      N        0.12260    0.88010    0.16250    1.000
    N26      N        0.45400    0.50610    0.06500    1.000
    N27      N        0.48670    0.44510    0.10440    1.000
    N28      N        0.34990    0.44420    0.11081    1.000
    N29      N        0.26840    0.42700    0.13260    1.000
    N30      N        0.18610    0.02420    0.24130    1.000
    N31      N        0.87740    0.11990    0.66250    1.000
    N32      N        0.54600    0.49390    0.56500    1.000
    N33      N        0.51330    0.55490    0.60440    1.000
    N34      N        0.65010    0.55580    0.61081    1.000
    N35      N        0.73160    0.57300    0.63260    1.000
    N36      N        0.81390    0.97580    0.74130    1.000
    N37      N        0.38010    0.37740    0.41250    1.000
    N38      N        0.00610    0.04600    0.31500    1.000
    N39      N        0.94510    0.01330    0.35440    1.000
    N40      N        0.94420    0.15010    0.36081    1.000
    N41      N        0.92700    0.23160    0.38260    1.000
    N42      N        0.52420    0.31390    0.49130    1.000
    N43      N        0.61990    0.62260    0.91250    1.000
    N44      N        0.99390    0.95400    0.81500    1.000
    N45      N        0.05490    0.98670    0.85440    1.000
    N46      N        0.05580    0.84990    0.86081    1.000
    N47      N        0.07300    0.76840    0.88260    1.000
    N48      N        0.47580    0.68610    0.99130    1.000
    Cl1      Cl       0.87906    0.87906    0.00000    1.000
    O1       O        0.82270    0.88600    0.95630    1.000
    O2       O        0.94470    0.86440    0.96780    1.000
    O3       O        0.88600    0.82270    0.04370    1.000
    O4       O        0.86440    0.94470    0.03220    1.000
    Cl2      Cl       0.26881    0.26881    0.00000    1.000
    O5       O        0.23310    0.23720    0.95010    1.000
    O6       O        0.21180    0.33250    0.00200    1.000
    O7       O        0.23720    0.23310    0.04990    1.000
    O8       O        0.33250    0.21180    0.99800    1.000
    Cl3      Cl       0.12094    0.12094    0.50000    1.000
    O9       O        0.17730    0.11400    0.45630    1.000
    O10      O        0.05530    0.13560    0.46780    1.000
    O11      O        0.11400    0.17730    0.54370    1.000
    O12      O        0.13560    0.05530    0.53220    1.000
    Cl4      Cl       0.73119    0.73119    0.50000    1.000
    O13      O        0.76690    0.76280    0.45010    1.000
    O14      O        0.78820    0.66750    0.50200    1.000
    O15      O        0.76280    0.76690    0.54990    1.000
    O16      O        0.66750    0.78820    0.49800    1.000
    Cl5      Cl       0.62094    0.37906    0.75000    1.000
    O17      O        0.61400    0.32270    0.70630    1.000
    O18      O        0.63560    0.44470    0.71780    1.000
    O19      O        0.67730    0.38600    0.79370    1.000
    O20      O        0.55530    0.36440    0.78220    1.000
    Cl6      Cl       0.23119    0.76881    0.75000    1.000
    O21      O        0.26280    0.73310    0.70010    1.000
    O22      O        0.16750    0.71180    0.75200    1.000
    O23      O        0.26690    0.73720    0.79990    1.000
    O24      O        0.28820    0.83250    0.74800    1.000
    Cl7      Cl       0.37906    0.62094    0.25000    1.000
    O25      O        0.38600    0.67730    0.20630    1.000
    O26      O        0.36440    0.55530    0.21780    1.000
    O27      O        0.32270    0.61400    0.29370    1.000
    O28      O        0.44470    0.63560    0.28220    1.000
    Cl8      Cl       0.76881    0.23119    0.25000    1.000
    O29      O        0.73720    0.26690    0.20010    1.000
    O30      O        0.83250    0.28820    0.25200    1.000
    O31      O        0.73310    0.26280    0.29990    1.000
    O32      O        0.71180    0.16750    0.24800    1.000
