data_functionalizedCrystal
_audit_creation_method	'EQeq! by Chris Wilmer'
_symmetry_space_group_name_H-M	'P1'
_symmetry_Int_Tables_number	1
_symmetry_cell_setting	triclinic
loop_
_symmetry_equiv_pos_as_xyz
  x,y,z
_cell_length_a	22.029
_cell_length_b	16.4861
_cell_length_c	25.5887
_cell_angle_alpha	90
_cell_angle_beta	115.233
_cell_angle_gamma	90
loop_
_atom_site_label
_atom_site_type_symbol
_atom_site_fract_x
_atom_site_fract_y
_atom_site_fract_z
_atom_site_charge
Mof_Ag	Ag	0.34427	0.04257	0.36763	0.523
Mof_Ag	Ag	0.82266	0.24623	0.86705	0.534
Mof_C 	C 	0.0977	0.0293	0.0003	0.098
Mof_C 	C 	0.2775	0.8619	0.0087	-0.137
Mof_H 	H 	0.2983	0.8654	0.0488	0.075
Mof_C 	C 	0.6237	0.2432	0.5015	0.097
Mof_C 	C 	0.5598	0.1983	0.4691	0.065
Mof_C 	C 	0.7355	0.4356	0.3882	0.086
Mof_H 	H 	0.7137	0.4427	0.3484	-0.011
Mof_C 	C 	0.7978	0.4161	0.5047	-0.134
Mof_H 	H 	0.82	0.4121	0.5447	0.085
Mof_C 	C 	0.9439	0.1563	0.9642	0.082
Mof_H 	H 	0.9239	0.1843	0.9842	-0.012
Mof_C 	C 	0.2199	0.8473	0.8917	0.069
Mof_H 	H 	0.1999	0.8425	0.8517	-0.027
Mof_C 	C 	0.5329	0.1881	0.4103	-0.15
Mof_H 	H 	0.5544	0.2091	0.3889	0.084
Mof_C 	C 	0.7098	0.2733	0.5868	0.101
Mof_C 	C 	0.0036	0.1158	0.9958	-0.129
Mof_H 	H 	0.0232	0.1171	0.036	0.083
Mof_C 	C 	0.7435	0.2633	0.6509	0.063
Mof_C 	C 	0.1802	0.9977	0.0874	0.094
Mof_C 	C 	0.1823	0.9482	0.0063	0.092
Mof_C 	C 	0.1793	0.0439	0.1807	-0.142
Mof_H 	H 	0.1354	0.062	0.1607	0.083
Mof_C 	C 	0.0334	0.0736	0.9661	0.067
Mof_C 	C 	0.5261	0.1645	0.4991	-0.149
Mof_H 	H 	0.5435	0.1688	0.5391	0.076
Mof_C 	C 	0.7357	0.3789	0.4741	0.069
Mof_C 	C 	0.2151	0.8985	0.977	0.057
Mof_C 	C 	0.7038	0.3902	0.4146	-0.135
Mof_H 	H 	0.6618	0.3675	0.393	0.085
Mof_C 	C 	0.7054	0.3278	0.5046	0.103
Mof_C 	C 	0.2123	0.0075	0.1514	0.058
Mof_C 	C 	0.1861	0.8897	0.918	-0.138
Mof_H 	H 	0.1442	0.9121	0.8958	0.079
Mof_C 	C 	0.8255	0.4592	0.4737	0.088
Mof_H 	H 	0.8676	0.4821	0.4939	-0.014
Mof_C 	C 	0.4734	0.1463	0.3836	0.079
Mof_H 	H 	0.4561	0.1385	0.3439	-0.023
Mof_C 	C 	0.3079	0.8198	0.9786	0.076
Mof_H 	H 	0.3494	0.7955	0.9995	-0.012
Mof_C 	C 	0.467	0.1247	0.4685	0.077
Mof_H 	H 	0.4448	0.1022	0.4889	-0.022
Mof_C 	C 	0.002	0.0725	0.9063	-0.14
Mof_H 	H 	0.0195	0.0424	0.8853	0.081
Mof_C 	C 	0.307	0.9947	0.2417	0.075
Mof_H 	H 	0.3512	0.9778	0.2626	-0.025
Mof_C 	C 	0.8021	0.3015	0.6844	-0.146
Mof_H 	H 	0.824	0.3334	0.6678	0.085
Mof_C 	C 	0.9442	0.1169	0.8789	0.086
Mof_H 	H 	0.9253	0.1193	0.8388	-0.008
Mof_C 	C 	0.7455	0.2049	0.7367	0.071
Mof_H 	H 	0.7265	0.1701	0.7543	-0.017
Mof_C 	C 	0.2119	0.0533	0.2396	0.082
Mof_H 	H 	0.189	0.0776	0.2587	-0.016
Mof_C 	C 	0.2782	0.9832	0.1828	-0.146
Mof_H 	H 	0.3024	0.9596	0.1646	0.074
Mof_C 	C 	0.715	0.2114	0.6772	-0.137
Mof_H 	H 	0.6765	0.182	0.6553	0.07
Mof_C 	C 	0.8285	0.2919	0.744	0.089
Mof_H 	H 	0.8679	0.3193	0.7666	-0.022
Mof_N 	N 	0.4394	0.1164	0.4113	-0.217
Mof_N 	N 	0.7954	0.4698	0.4166	-0.194
Mof_N 	N 	0.8008	0.246	0.7704	-0.2
Mof_N 	N 	0.6529	0.2327	0.5585	-0.143
Mof_N 	N 	0.7378	0.3224	0.5621	-0.138
Mof_N 	N 	0.6479	0.2897	0.4719	-0.138
Mof_N 	N 	0.9135	0.1571	0.9064	-0.188
Mof_N 	N 	0.2797	0.813	0.9212	-0.209
Mof_N 	N 	0.2756	0.0288	0.271	-0.199
Mof_N 	N 	0.1227	0.0373	0.058	-0.137
Mof_N 	N 	0.1261	0.9877	0.9726	-0.14
Mof_N 	N 	0.2114	0.9501	0.0641	-0.149
Mof_Ag	Ag	0.84427	0.54257	0.36763	0.524
Mof_Ag	Ag	0.32266	0.74623	0.86705	0.535
Mof_C 	C 	0.5977	0.5293	0.0003	0.1
Mof_C 	C 	0.7775	0.3619	0.0087	-0.131
Mof_H 	H 	0.7983	0.3654	0.0488	0.073
Mof_C 	C 	0.1237	0.7432	0.5015	0.097
Mof_C 	C 	0.0598	0.6983	0.4691	0.065
Mof_C 	C 	0.2355	0.9356	0.3882	0.086
Mof_H 	H 	0.2137	0.9427	0.3484	-0.011
Mof_C 	C 	0.2978	0.9161	0.5047	-0.134
Mof_H 	H 	0.32	0.9121	0.5447	0.085
Mof_C 	C 	0.4439	0.6563	0.9642	0.086
Mof_H 	H 	0.4239	0.6843	0.9842	-0.013
Mof_C 	C 	0.7199	0.3473	0.8917	0.067
Mof_H 	H 	0.6999	0.3425	0.8517	-0.026
Mof_C 	C 	0.0329	0.6881	0.4103	-0.15
Mof_H 	H 	0.0544	0.7091	0.3889	0.084
Mof_C 	C 	0.2098	0.7733	0.5868	0.101
Mof_C 	C 	0.5036	0.6158	0.9958	-0.136
Mof_H 	H 	0.5232	0.6171	0.036	0.086
Mof_C 	C 	0.2435	0.7633	0.6509	0.063
Mof_C 	C 	0.6802	0.4977	0.0874	0.094
Mof_C 	C 	0.6823	0.4482	0.0063	0.095
Mof_C 	C 	0.6793	0.5439	0.1807	-0.142
Mof_H 	H 	0.6354	0.562	0.1607	0.083
Mof_C 	C 	0.5334	0.5736	0.9661	0.068
Mof_C 	C 	0.0261	0.6645	0.4991	-0.149
Mof_H 	H 	0.0435	0.6688	0.5391	0.076
Mof_C 	C 	0.2357	0.8789	0.4741	0.069
Mof_C 	C 	0.7151	0.3985	0.977	0.052
Mof_C 	C 	0.2038	0.8902	0.4146	-0.135
Mof_H 	H 	0.1618	0.8675	0.393	0.085
Mof_C 	C 	0.2054	0.8278	0.5046	0.103
Mof_C 	C 	0.7123	0.5075	0.1514	0.058
Mof_C 	C 	0.6861	0.3897	0.918	-0.134
Mof_H 	H 	0.6442	0.4121	0.8958	0.078
Mof_C 	C 	0.3255	0.9592	0.4737	0.088
Mof_H 	H 	0.3676	0.9821	0.4939	-0.014
Mof_C 	C 	0.9734	0.6463	0.3836	0.08
Mof_H 	H 	0.9561	0.6385	0.3439	-0.023
Mof_C 	C 	0.8079	0.3198	0.9786	0.072
Mof_H 	H 	0.8494	0.2955	0.9995	-0.012
Mof_C 	C 	0.967	0.6247	0.4685	0.077
Mof_H 	H 	0.9448	0.6022	0.4889	-0.022
Mof_C 	C 	0.502	0.5725	0.9063	-0.143
Mof_H 	H 	0.5195	0.5424	0.8853	0.082
Mof_C 	C 	0.807	0.4947	0.2417	0.075
Mof_H 	H 	0.8512	0.4778	0.2626	-0.025
Mof_C 	C 	0.3021	0.8015	0.6844	-0.146
Mof_H 	H 	0.324	0.8334	0.6678	0.085
Mof_C 	C 	0.4442	0.6169	0.8789	0.088
Mof_H 	H 	0.4253	0.6193	0.8388	-0.009
Mof_C 	C 	0.2455	0.7049	0.7367	0.071
Mof_H 	H 	0.2265	0.6701	0.7543	-0.017
Mof_C 	C 	0.7119	0.5533	0.2396	0.083
Mof_H 	H 	0.689	0.5776	0.2587	-0.017
Mof_C 	C 	0.7782	0.4832	0.1828	-0.146
Mof_H 	H 	0.8024	0.4596	0.1646	0.074
Mof_C 	C 	0.215	0.7114	0.6772	-0.137
Mof_H 	H 	0.1765	0.682	0.6553	0.07
Mof_C 	C 	0.3285	0.7919	0.744	0.089
Mof_H 	H 	0.3679	0.8193	0.7666	-0.022
Mof_N 	N 	0.9394	0.6164	0.4113	-0.217
Mof_N 	N 	0.2954	0.9698	0.4166	-0.194
Mof_N 	N 	0.3008	0.746	0.7704	-0.2
Mof_N 	N 	0.1529	0.7327	0.5585	-0.143
Mof_N 	N 	0.2378	0.8224	0.5621	-0.138
Mof_N 	N 	0.1479	0.7897	0.4719	-0.138
Mof_N 	N 	0.4135	0.6571	0.9064	-0.189
Mof_N 	N 	0.7797	0.313	0.9212	-0.208
Mof_N 	N 	0.7756	0.5288	0.271	-0.199
Mof_N 	N 	0.6227	0.5373	0.058	-0.137
Mof_N 	N 	0.6261	0.4877	0.9726	-0.142
Mof_N 	N 	0.7114	0.4501	0.0641	-0.149
Mof_Ag	Ag	0.65573	0.04257	0.13237	0.523
Mof_Ag	Ag	0.17734	0.24623	0.63295	0.535
Mof_C 	C 	0.9023	0.0293	0.4997	0.1
Mof_C 	C 	0.7225	0.8619	0.4913	-0.134
Mof_H 	H 	0.7017	0.8654	0.4512	0.074
Mof_C 	C 	0.3763	0.2432	0.9985	0.098
Mof_C 	C 	0.4402	0.1983	0.0309	0.064
Mof_C 	C 	0.2645	0.4356	0.1118	0.085
Mof_H 	H 	0.2863	0.4427	0.1516	-0.01
Mof_C 	C 	0.2022	0.4161	0.9953	-0.131
Mof_H 	H 	0.18	0.4121	0.9553	0.084
Mof_C 	C 	0.0561	0.1563	0.5358	0.086
Mof_H 	H 	0.0761	0.1843	0.5158	-0.013
Mof_C 	C 	0.7801	0.8473	0.6083	0.068
Mof_H 	H 	0.8001	0.8425	0.6483	-0.026
Mof_C 	C 	0.4671	0.1881	0.0897	-0.15
Mof_H 	H 	0.4456	0.2091	0.1111	0.084
Mof_C 	C 	0.2902	0.2733	0.9132	0.101
Mof_C 	C 	0.9964	0.1158	0.5042	-0.136
Mof_H 	H 	0.9768	0.1171	0.464	0.086
Mof_C 	C 	0.2565	0.2633	0.8491	0.063
Mof_C 	C 	0.8198	0.9977	0.4126	0.094
Mof_C 	C 	0.8177	0.9482	0.4937	0.094
Mof_C 	C 	0.8207	0.0439	0.3193	-0.142
Mof_H 	H 	0.8646	0.062	0.3393	0.083
Mof_C 	C 	0.9666	0.0736	0.5339	0.069
Mof_C 	C 	0.4739	0.1645	0.0009	-0.15
Mof_H 	H 	0.4565	0.1688	0.9609	0.076
Mof_C 	C 	0.2643	0.3789	0.0259	0.066
Mof_C 	C 	0.7849	0.8985	0.523	0.054
Mof_C 	C 	0.2962	0.3902	0.0854	-0.133
Mof_H 	H 	0.3382	0.3675	0.107	0.084
Mof_C 	C 	0.2946	0.3278	0.9954	0.105
Mof_C 	C 	0.7877	0.0075	0.3486	0.058
Mof_C 	C 	0.8139	0.8897	0.582	-0.136
Mof_H 	H 	0.8558	0.9121	0.6042	0.078
Mof_C 	C 	0.1745	0.4592	0.0263	0.086
Mof_H 	H 	0.1324	0.4821	0.0061	-0.013
Mof_C 	C 	0.5266	0.1463	0.1164	0.079
Mof_H 	H 	0.5439	0.1385	0.1561	-0.023
Mof_C 	C 	0.6921	0.8198	0.5214	0.074
Mof_H 	H 	0.6506	0.7955	0.5005	-0.012
Mof_C 	C 	0.533	0.1247	0.0315	0.077
Mof_H 	H 	0.5552	0.1022	0.0111	-0.022
Mof_C 	C 	0.998	0.0725	0.5937	-0.144
Mof_H 	H 	0.9805	0.0424	0.6147	0.082
Mof_C 	C 	0.693	0.9947	0.2583	0.076
Mof_H 	H 	0.6488	0.9778	0.2374	-0.025
Mof_C 	C 	0.1979	0.3015	0.8156	-0.146
Mof_H 	H 	0.176	0.3334	0.8322	0.085
Mof_C 	C 	0.0558	0.1169	0.6211	0.089
Mof_H 	H 	0.0747	0.1193	0.6612	-0.009
Mof_C 	C 	0.2545	0.2049	0.7633	0.072
Mof_H 	H 	0.2735	0.1701	0.7457	-0.017
Mof_C 	C 	0.7881	0.0533	0.2604	0.083
Mof_H 	H 	0.811	0.0776	0.2413	-0.016
Mof_C 	C 	0.7218	0.9832	0.3172	-0.146
Mof_H 	H 	0.6976	0.9596	0.3354	0.074
Mof_C 	C 	0.285	0.2114	0.8228	-0.137
Mof_H 	H 	0.3235	0.182	0.8447	0.07
Mof_C 	C 	0.1715	0.2919	0.756	0.089
Mof_H 	H 	0.1321	0.3193	0.7334	-0.022
Mof_N 	N 	0.5606	0.1164	0.0887	-0.217
Mof_N 	N 	0.2046	0.4698	0.0834	-0.193
Mof_N 	N 	0.1992	0.246	0.7296	-0.2
Mof_N 	N 	0.3471	0.2327	0.9415	-0.143
Mof_N 	N 	0.2622	0.3224	0.9379	-0.138
Mof_N 	N 	0.3521	0.2897	0.0281	-0.138
Mof_N 	N 	0.0865	0.1571	0.5936	-0.189
Mof_N 	N 	0.7203	0.813	0.5788	-0.209
Mof_N 	N 	0.7244	0.0288	0.229	-0.199
Mof_N 	N 	0.8773	0.0373	0.442	-0.137
Mof_N 	N 	0.8739	0.9877	0.5274	-0.141
Mof_N 	N 	0.7886	0.9501	0.4359	-0.149
Mof_Ag	Ag	0.15573	0.54257	0.13237	0.523
Mof_Ag	Ag	0.67734	0.74623	0.63295	0.535
Mof_C 	C 	0.4023	0.5293	0.4997	0.1
Mof_C 	C 	0.2225	0.3619	0.4913	-0.134
Mof_H 	H 	0.2017	0.3654	0.4512	0.074
Mof_C 	C 	0.8763	0.7432	0.9985	0.096
Mof_C 	C 	0.9402	0.6983	0.0309	0.063
Mof_C 	C 	0.7645	0.9356	0.1118	0.088
Mof_H 	H 	0.7863	0.9427	0.1516	-0.011
Mof_C 	C 	0.7022	0.9161	0.9953	-0.139
Mof_H 	H 	0.68	0.9121	0.9553	0.086
Mof_C 	C 	0.5561	0.6563	0.5358	0.086
Mof_H 	H 	0.5761	0.6843	0.5158	-0.013
Mof_C 	C 	0.2801	0.3473	0.6083	0.068
Mof_H 	H 	0.3001	0.3425	0.6483	-0.026
Mof_C 	C 	0.9671	0.6881	0.0897	-0.146
Mof_H 	H 	0.9456	0.7091	0.1111	0.083
Mof_C 	C 	0.7902	0.7733	0.9132	0.101
Mof_C 	C 	0.4964	0.6158	0.5042	-0.136
Mof_H 	H 	0.4768	0.6171	0.464	0.086
Mof_C 	C 	0.7565	0.7633	0.8491	0.063
Mof_C 	C 	0.3198	0.4977	0.4126	0.094
Mof_C 	C 	0.3177	0.4482	0.4937	0.094
Mof_C 	C 	0.3207	0.5439	0.3193	-0.142
Mof_H 	H 	0.3646	0.562	0.3393	0.083
Mof_C 	C 	0.4666	0.5736	0.5339	0.069
Mof_C 	C 	0.9739	0.6645	0.0009	-0.143
Mof_H 	H 	0.9565	0.6688	0.9609	0.073
Mof_C 	C 	0.7643	0.8789	0.0259	0.073
Mof_C 	C 	0.2849	0.3985	0.523	0.054
Mof_C 	C 	0.7962	0.8902	0.0854	-0.137
Mof_H 	H 	0.8382	0.8675	0.107	0.086
Mof_C 	C 	0.7946	0.8278	0.9954	0.101
Mof_C 	C 	0.2877	0.5075	0.3486	0.058
Mof_C 	C 	0.3139	0.3897	0.582	-0.136
Mof_H 	H 	0.3558	0.4121	0.6042	0.078
Mof_C 	C 	0.6745	0.9592	0.0263	0.091
Mof_H 	H 	0.6324	0.9821	0.0061	-0.015
Mof_C 	C 	0.0266	0.6463	0.1164	0.076
Mof_H 	H 	0.0439	0.6385	0.1561	-0.022
Mof_C 	C 	0.1921	0.3198	0.5214	0.074
Mof_H 	H 	0.1506	0.2955	0.5005	-0.012
Mof_C 	C 	0.033	0.6247	0.0315	0.072
Mof_H 	H 	0.0552	0.6022	0.0111	-0.021
Mof_C 	C 	0.498	0.5725	0.5937	-0.143
Mof_H 	H 	0.4805	0.5424	0.6147	0.082
Mof_C 	C 	0.193	0.4947	0.2583	0.075
Mof_H 	H 	0.1488	0.4778	0.2374	-0.025
Mof_C 	C 	0.6979	0.8015	0.8156	-0.146
Mof_H 	H 	0.676	0.8334	0.8322	0.085
Mof_C 	C 	0.5558	0.6169	0.6211	0.088
Mof_H 	H 	0.5747	0.6193	0.6612	-0.009
Mof_C 	C 	0.7545	0.7049	0.7633	0.071
Mof_H 	H 	0.7735	0.6701	0.7457	-0.017
Mof_C 	C 	0.2881	0.5533	0.2604	0.083
Mof_H 	H 	0.311	0.5776	0.2413	-0.016
Mof_C 	C 	0.2218	0.4832	0.3172	-0.146
Mof_H 	H 	0.1976	0.4596	0.3354	0.074
Mof_C 	C 	0.785	0.7114	0.8228	-0.137
Mof_H 	H 	0.8235	0.682	0.8447	0.07
Mof_C 	C 	0.6715	0.7919	0.756	0.089
Mof_H 	H 	0.6321	0.8193	0.7334	-0.022
Mof_N 	N 	0.0606	0.6164	0.0887	-0.215
Mof_N 	N 	0.7046	0.9698	0.0834	-0.195
Mof_N 	N 	0.6992	0.746	0.7296	-0.2
Mof_N 	N 	0.8471	0.7327	0.9415	-0.142
Mof_N 	N 	0.7622	0.8224	0.9379	-0.138
Mof_N 	N 	0.8521	0.7897	0.0281	-0.136
Mof_N 	N 	0.5865	0.6571	0.5936	-0.189
Mof_N 	N 	0.2203	0.313	0.5788	-0.209
Mof_N 	N 	0.2244	0.5288	0.229	-0.199
Mof_N 	N 	0.3773	0.5373	0.442	-0.137
Mof_N 	N 	0.3739	0.4877	0.5274	-0.141
Mof_N 	N 	0.2886	0.4501	0.4359	-0.149
Mof_Ag	Ag	0.65573	0.95743	0.63237	0.524
Mof_Ag	Ag	0.17734	0.75377	0.13295	0.535
Mof_C 	C 	0.9023	0.9707	0.9997	0.098
Mof_C 	C 	0.7225	0.1381	0.9913	-0.137
Mof_H 	H 	0.7017	0.1346	0.9512	0.075
Mof_C 	C 	0.3763	0.7568	0.4985	0.097
Mof_C 	C 	0.4402	0.8017	0.5309	0.065
Mof_C 	C 	0.2645	0.5644	0.6118	0.086
Mof_H 	H 	0.2863	0.5573	0.6516	-0.011
Mof_C 	C 	0.2022	0.5839	0.4953	-0.134
Mof_H 	H 	0.18	0.5879	0.4553	0.085
Mof_C 	C 	0.0561	0.8437	0.0358	0.082
Mof_H 	H 	0.0761	0.8157	0.0158	-0.012
Mof_C 	C 	0.7801	0.1527	0.1083	0.069
Mof_H 	H 	0.8001	0.1575	0.1483	-0.027
Mof_C 	C 	0.4671	0.8119	0.5897	-0.15
Mof_H 	H 	0.4456	0.7909	0.6111	0.084
Mof_C 	C 	0.2902	0.7267	0.4132	0.101
Mof_C 	C 	0.9964	0.8842	0.0042	-0.129
Mof_H 	H 	0.9768	0.8829	0.964	0.083
Mof_C 	C 	0.2565	0.7367	0.3491	0.063
Mof_C 	C 	0.8198	0.0023	0.9126	0.094
Mof_C 	C 	0.8177	0.0518	0.9937	0.092
Mof_C 	C 	0.8207	0.9561	0.8193	-0.142
Mof_H 	H 	0.8646	0.938	0.8393	0.083
Mof_C 	C 	0.9666	0.9264	0.0339	0.067
Mof_C 	C 	0.4739	0.8355	0.5009	-0.149
Mof_H 	H 	0.4565	0.8312	0.4609	0.076
Mof_C 	C 	0.2643	0.6211	0.5259	0.069
Mof_C 	C 	0.7849	0.1015	0.023	0.057
Mof_C 	C 	0.2962	0.6098	0.5854	-0.135
Mof_H 	H 	0.3382	0.6325	0.607	0.085
Mof_C 	C 	0.2946	0.6722	0.4954	0.103
Mof_C 	C 	0.7877	0.9925	0.8486	0.058
Mof_C 	C 	0.8139	0.1103	0.082	-0.138
Mof_H 	H 	0.8558	0.0879	0.1042	0.079
Mof_C 	C 	0.1745	0.5408	0.5263	0.088
Mof_H 	H 	0.1324	0.5179	0.5061	-0.014
Mof_C 	C 	0.5266	0.8537	0.6164	0.079
Mof_H 	H 	0.5439	0.8615	0.6561	-0.023
Mof_C 	C 	0.6921	0.1802	0.0214	0.076
Mof_H 	H 	0.6506	0.2045	0.0005	-0.012
Mof_C 	C 	0.533	0.8753	0.5315	0.077
Mof_H 	H 	0.5552	0.8978	0.5111	-0.022
Mof_C 	C 	0.998	0.9275	0.0937	-0.14
Mof_H 	H 	0.9805	0.9576	0.1147	0.081
Mof_C 	C 	0.693	0.0053	0.7583	0.075
Mof_H 	H 	0.6488	0.0222	0.7374	-0.025
Mof_C 	C 	0.1979	0.6985	0.3156	-0.146
Mof_H 	H 	0.176	0.6666	0.3322	0.085
Mof_C 	C 	0.0558	0.8831	0.1211	0.086
Mof_H 	H 	0.0747	0.8807	0.1612	-0.008
Mof_C 	C 	0.2545	0.7951	0.2633	0.071
Mof_H 	H 	0.2735	0.8299	0.2457	-0.017
Mof_C 	C 	0.7881	0.9467	0.7604	0.082
Mof_H 	H 	0.811	0.9224	0.7413	-0.016
Mof_C 	C 	0.7218	0.0168	0.8172	-0.146
Mof_H 	H 	0.6976	0.0404	0.8354	0.074
Mof_C 	C 	0.285	0.7886	0.3228	-0.137
Mof_H 	H 	0.3235	0.818	0.3447	0.07
Mof_C 	C 	0.1715	0.7081	0.256	0.089
Mof_H 	H 	0.1321	0.6807	0.2334	-0.022
Mof_N 	N 	0.5606	0.8836	0.5887	-0.217
Mof_N 	N 	0.2046	0.5302	0.5834	-0.194
Mof_N 	N 	0.1992	0.754	0.2296	-0.2
Mof_N 	N 	0.3471	0.7673	0.4415	-0.143
Mof_N 	N 	0.2622	0.6776	0.4379	-0.138
Mof_N 	N 	0.3521	0.7103	0.5281	-0.138
Mof_N 	N 	0.0865	0.8429	0.0936	-0.188
Mof_N 	N 	0.7203	0.187	0.0788	-0.209
Mof_N 	N 	0.7244	0.9712	0.729	-0.199
Mof_N 	N 	0.8773	0.9627	0.942	-0.137
Mof_N 	N 	0.8739	0.0123	0.0274	-0.14
Mof_N 	N 	0.7886	0.0499	0.9359	-0.149
Mof_Ag	Ag	0.15573	0.45743	0.63237	0.524
Mof_Ag	Ag	0.67734	0.25377	0.13295	0.535
Mof_C 	C 	0.4023	0.4707	0.9997	0.1
Mof_C 	C 	0.2225	0.6381	0.9913	-0.131
Mof_H 	H 	0.2017	0.6346	0.9512	0.073
Mof_C 	C 	0.8763	0.2568	0.4985	0.097
Mof_C 	C 	0.9402	0.3017	0.5309	0.065
Mof_C 	C 	0.7645	0.0644	0.6118	0.086
Mof_H 	H 	0.7863	0.0573	0.6516	-0.011
Mof_C 	C 	0.7022	0.0839	0.4953	-0.134
Mof_H 	H 	0.68	0.0879	0.4553	0.085
Mof_C 	C 	0.5561	0.3437	0.0358	0.086
Mof_H 	H 	0.5761	0.3157	0.0158	-0.013
Mof_C 	C 	0.2801	0.6527	0.1083	0.067
Mof_H 	H 	0.3001	0.6575	0.1483	-0.026
Mof_C 	C 	0.9671	0.3119	0.5897	-0.15
Mof_H 	H 	0.9456	0.2909	0.6111	0.084
Mof_C 	C 	0.7902	0.2267	0.4132	0.101
Mof_C 	C 	0.4964	0.3842	0.0042	-0.136
Mof_H 	H 	0.4768	0.3829	0.964	0.086
Mof_C 	C 	0.7565	0.2367	0.3491	0.063
Mof_C 	C 	0.3198	0.5023	0.9126	0.094
Mof_C 	C 	0.3177	0.5518	0.9937	0.095
Mof_C 	C 	0.3207	0.4561	0.8193	-0.142
Mof_H 	H 	0.3646	0.438	0.8393	0.083
Mof_C 	C 	0.4666	0.4264	0.0339	0.068
Mof_C 	C 	0.9739	0.3355	0.5009	-0.149
Mof_H 	H 	0.9565	0.3312	0.4609	0.076
Mof_C 	C 	0.7643	0.1211	0.5259	0.069
Mof_C 	C 	0.2849	0.6015	0.023	0.052
Mof_C 	C 	0.7962	0.1098	0.5854	-0.135
Mof_H 	H 	0.8382	0.1325	0.607	0.085
Mof_C 	C 	0.7946	0.1722	0.4954	0.103
Mof_C 	C 	0.2877	0.4925	0.8486	0.058
Mof_C 	C 	0.3139	0.6103	0.082	-0.134
Mof_H 	H 	0.3558	0.5879	0.1042	0.078
Mof_C 	C 	0.6745	0.0408	0.5263	0.088
Mof_H 	H 	0.6324	0.0179	0.5061	-0.014
Mof_C 	C 	0.0266	0.3537	0.6164	0.08
Mof_H 	H 	0.0439	0.3615	0.6561	-0.023
Mof_C 	C 	0.1921	0.6802	0.0214	0.072
Mof_H 	H 	0.1506	0.7045	0.0005	-0.012
Mof_C 	C 	0.033	0.3753	0.5315	0.077
Mof_H 	H 	0.0552	0.3978	0.5111	-0.022
Mof_C 	C 	0.498	0.4275	0.0937	-0.143
Mof_H 	H 	0.4805	0.4576	0.1147	0.082
Mof_C 	C 	0.193	0.5053	0.7583	0.075
Mof_H 	H 	0.1488	0.5222	0.7374	-0.025
Mof_C 	C 	0.6979	0.1985	0.3156	-0.146
Mof_H 	H 	0.676	0.1666	0.3322	0.085
Mof_C 	C 	0.5558	0.3831	0.1211	0.088
Mof_H 	H 	0.5747	0.3807	0.1612	-0.009
Mof_C 	C 	0.7545	0.2951	0.2633	0.071
Mof_H 	H 	0.7735	0.3299	0.2457	-0.017
Mof_C 	C 	0.2881	0.4467	0.7604	0.083
Mof_H 	H 	0.311	0.4224	0.7413	-0.017
Mof_C 	C 	0.2218	0.5168	0.8172	-0.146
Mof_H 	H 	0.1976	0.5404	0.8354	0.074
Mof_C 	C 	0.785	0.2886	0.3228	-0.137
Mof_H 	H 	0.8235	0.318	0.3447	0.07
Mof_C 	C 	0.6715	0.2081	0.256	0.089
Mof_H 	H 	0.6321	0.1807	0.2334	-0.022
Mof_N 	N 	0.0606	0.3836	0.5887	-0.217
Mof_N 	N 	0.7046	0.0302	0.5834	-0.194
Mof_N 	N 	0.6992	0.254	0.2296	-0.2
Mof_N 	N 	0.8471	0.2673	0.4415	-0.143
Mof_N 	N 	0.7622	0.1776	0.4379	-0.138
Mof_N 	N 	0.8521	0.2103	0.5281	-0.138
Mof_N 	N 	0.5865	0.3429	0.0936	-0.189
Mof_N 	N 	0.2203	0.687	0.0788	-0.208
Mof_N 	N 	0.2244	0.4712	0.729	-0.199
Mof_N 	N 	0.3773	0.4627	0.942	-0.137
Mof_N 	N 	0.3739	0.5123	0.0274	-0.142
Mof_N 	N 	0.2886	0.5499	0.9359	-0.149
Mof_Ag	Ag	0.34427	0.95743	0.86763	0.523
Mof_Ag	Ag	0.82266	0.75377	0.36705	0.535
Mof_C 	C 	0.0977	0.9707	0.5003	0.1
Mof_C 	C 	0.2775	0.1381	0.5087	-0.134
Mof_H 	H 	0.2983	0.1346	0.5488	0.074
Mof_C 	C 	0.6237	0.7568	0.0015	0.098
Mof_C 	C 	0.5598	0.8017	0.9691	0.064
Mof_C 	C 	0.7355	0.5644	0.8882	0.085
Mof_H 	H 	0.7137	0.5573	0.8484	-0.01
Mof_C 	C 	0.7978	0.5839	0.0047	-0.131
Mof_H 	H 	0.82	0.5879	0.0447	0.084
Mof_C 	C 	0.9439	0.8437	0.4642	0.086
Mof_H 	H 	0.9239	0.8157	0.4842	-0.013
Mof_C 	C 	0.2199	0.1527	0.3917	0.068
Mof_H 	H 	0.1999	0.1575	0.3517	-0.026
Mof_C 	C 	0.5329	0.8119	0.9103	-0.15
Mof_H 	H 	0.5544	0.7909	0.8889	0.084
Mof_C 	C 	0.7098	0.7267	0.0868	0.101
Mof_C 	C 	0.0036	0.8842	0.4958	-0.136
Mof_H 	H 	0.0232	0.8829	0.536	0.086
Mof_C 	C 	0.7435	0.7367	0.1509	0.063
Mof_C 	C 	0.1802	0.0023	0.5874	0.094
Mof_C 	C 	0.1823	0.0518	0.5063	0.094
Mof_C 	C 	0.1793	0.9561	0.6807	-0.142
Mof_H 	H 	0.1354	0.938	0.6607	0.083
Mof_C 	C 	0.0334	0.9264	0.4661	0.069
Mof_C 	C 	0.5261	0.8355	0.9991	-0.15
Mof_H 	H 	0.5435	0.8312	0.0391	0.076
Mof_C 	C 	0.7357	0.6211	0.9741	0.066
Mof_C 	C 	0.2151	0.1015	0.477	0.054
Mof_C 	C 	0.7038	0.6098	0.9146	-0.133
Mof_H 	H 	0.6618	0.6325	0.893	0.084
Mof_C 	C 	0.7054	0.6722	0.0046	0.105
Mof_C 	C 	0.2123	0.9925	0.6514	0.058
Mof_C 	C 	0.1861	0.1103	0.418	-0.136
Mof_H 	H 	0.1442	0.0879	0.3958	0.078
Mof_C 	C 	0.8255	0.5408	0.9737	0.086
Mof_H 	H 	0.8676	0.5179	0.9939	-0.013
Mof_C 	C 	0.4734	0.8537	0.8836	0.079
Mof_H 	H 	0.4561	0.8615	0.8439	-0.023
Mof_C 	C 	0.3079	0.1802	0.4786	0.074
Mof_H 	H 	0.3494	0.2045	0.4995	-0.012
Mof_C 	C 	0.467	0.8753	0.9685	0.077
Mof_H 	H 	0.4448	0.8978	0.9889	-0.022
Mof_C 	C 	0.002	0.9275	0.4063	-0.144
Mof_H 	H 	0.0195	0.9576	0.3853	0.082
Mof_C 	C 	0.307	0.0053	0.7417	0.076
Mof_H 	H 	0.3512	0.0222	0.7626	-0.025
Mof_C 	C 	0.8021	0.6985	0.1844	-0.146
Mof_H 	H 	0.824	0.6666	0.1678	0.085
Mof_C 	C 	0.9442	0.8831	0.3789	0.089
Mof_H 	H 	0.9253	0.8807	0.3388	-0.009
Mof_C 	C 	0.7455	0.7951	0.2367	0.072
Mof_H 	H 	0.7265	0.8299	0.2543	-0.017
Mof_C 	C 	0.2119	0.9467	0.7396	0.083
Mof_H 	H 	0.189	0.9224	0.7587	-0.016
Mof_C 	C 	0.2782	0.0168	0.6828	-0.146
Mof_H 	H 	0.3024	0.0404	0.6646	0.074
Mof_C 	C 	0.715	0.7886	0.1772	-0.137
Mof_H 	H 	0.6765	0.818	0.1553	0.07
Mof_C 	C 	0.8285	0.7081	0.244	0.089
Mof_H 	H 	0.8679	0.6807	0.2666	-0.022
Mof_N 	N 	0.4394	0.8836	0.9113	-0.217
Mof_N 	N 	0.7954	0.5302	0.9166	-0.193
Mof_N 	N 	0.8008	0.754	0.2704	-0.2
Mof_N 	N 	0.6529	0.7673	0.0585	-0.143
Mof_N 	N 	0.7378	0.6776	0.0621	-0.138
Mof_N 	N 	0.6479	0.7103	0.9719	-0.138
Mof_N 	N 	0.9135	0.8429	0.4064	-0.189
Mof_N 	N 	0.2797	0.187	0.4212	-0.209
Mof_N 	N 	0.2756	0.9712	0.771	-0.199
Mof_N 	N 	0.1227	0.9627	0.558	-0.137
Mof_N 	N 	0.1261	0.0123	0.4726	-0.141
Mof_N 	N 	0.2114	0.0499	0.5641	-0.149
Mof_Ag	Ag	0.84427	0.45743	0.86763	0.523
Mof_Ag	Ag	0.32266	0.25377	0.36705	0.535
Mof_C 	C 	0.5977	0.4707	0.5003	0.1
Mof_C 	C 	0.7775	0.6381	0.5087	-0.134
Mof_H 	H 	0.7983	0.6346	0.5488	0.074
Mof_C 	C 	0.1237	0.2568	0.0015	0.096
Mof_C 	C 	0.0598	0.3017	0.9691	0.063
Mof_C 	C 	0.2355	0.0644	0.8882	0.088
Mof_H 	H 	0.2137	0.0573	0.8484	-0.011
Mof_C 	C 	0.2978	0.0839	0.0047	-0.139
Mof_H 	H 	0.32	0.0879	0.0447	0.086
Mof_C 	C 	0.4439	0.3437	0.4642	0.086
Mof_H 	H 	0.4239	0.3157	0.4842	-0.013
Mof_C 	C 	0.7199	0.6527	0.3917	0.068
Mof_H 	H 	0.6999	0.6575	0.3517	-0.026
Mof_C 	C 	0.0329	0.3119	0.9103	-0.146
Mof_H 	H 	0.0544	0.2909	0.8889	0.083
Mof_C 	C 	0.2098	0.2267	0.0868	0.101
Mof_C 	C 	0.5036	0.3842	0.4958	-0.136
Mof_H 	H 	0.5232	0.3829	0.536	0.086
Mof_C 	C 	0.2435	0.2367	0.1509	0.063
Mof_C 	C 	0.6802	0.5023	0.5874	0.094
Mof_C 	C 	0.6823	0.5518	0.5063	0.094
Mof_C 	C 	0.6793	0.4561	0.6807	-0.142
Mof_H 	H 	0.6354	0.438	0.6607	0.083
Mof_C 	C 	0.5334	0.4264	0.4661	0.069
Mof_C 	C 	0.0261	0.3355	0.9991	-0.143
Mof_H 	H 	0.0435	0.3312	0.0391	0.073
Mof_C 	C 	0.2357	0.1211	0.9741	0.073
Mof_C 	C 	0.7151	0.6015	0.477	0.054
Mof_C 	C 	0.2038	0.1098	0.9146	-0.137
Mof_H 	H 	0.1618	0.1325	0.893	0.086
Mof_C 	C 	0.2054	0.1722	0.0046	0.101
Mof_C 	C 	0.7123	0.4925	0.6514	0.058
Mof_C 	C 	0.6861	0.6103	0.418	-0.136
Mof_H 	H 	0.6442	0.5879	0.3958	0.078
Mof_C 	C 	0.3255	0.0408	0.9737	0.091
Mof_H 	H 	0.3676	0.0179	0.9939	-0.015
Mof_C 	C 	0.9734	0.3537	0.8836	0.076
Mof_H 	H 	0.9561	0.3615	0.8439	-0.022
Mof_C 	C 	0.8079	0.6802	0.4786	0.074
Mof_H 	H 	0.8494	0.7045	0.4995	-0.012
Mof_C 	C 	0.967	0.3753	0.9685	0.072
Mof_H 	H 	0.9448	0.3978	0.9889	-0.021
Mof_C 	C 	0.502	0.4275	0.4063	-0.143
Mof_H 	H 	0.5195	0.4576	0.3853	0.082
Mof_C 	C 	0.807	0.5053	0.7417	0.075
Mof_H 	H 	0.8512	0.5222	0.7626	-0.025
Mof_C 	C 	0.3021	0.1985	0.1844	-0.146
Mof_H 	H 	0.324	0.1666	0.1678	0.085
Mof_C 	C 	0.4442	0.3831	0.3789	0.088
Mof_H 	H 	0.4253	0.3807	0.3388	-0.009
Mof_C 	C 	0.2455	0.2951	0.2367	0.071
Mof_H 	H 	0.2265	0.3299	0.2543	-0.017
Mof_C 	C 	0.7119	0.4467	0.7396	0.083
Mof_H 	H 	0.689	0.4224	0.7587	-0.016
Mof_C 	C 	0.7782	0.5168	0.6828	-0.146
Mof_H 	H 	0.8024	0.5404	0.6646	0.074
Mof_C 	C 	0.215	0.2886	0.1772	-0.137
Mof_H 	H 	0.1765	0.318	0.1553	0.07
Mof_C 	C 	0.3285	0.2081	0.244	0.089
Mof_H 	H 	0.3679	0.1807	0.2666	-0.022
Mof_N 	N 	0.9394	0.3836	0.9113	-0.215
Mof_N 	N 	0.2954	0.0302	0.9166	-0.195
Mof_N 	N 	0.3008	0.254	0.2704	-0.2
Mof_N 	N 	0.1529	0.2673	0.0585	-0.142
Mof_N 	N 	0.2378	0.1776	0.0621	-0.138
Mof_N 	N 	0.1479	0.2103	0.9719	-0.136
Mof_N 	N 	0.4135	0.3429	0.4064	-0.189
Mof_N 	N 	0.7797	0.687	0.4212	-0.209
Mof_N 	N 	0.7756	0.4712	0.771	-0.199
Mof_N 	N 	0.6227	0.4627	0.558	-0.137
Mof_N 	N 	0.6261	0.5123	0.4726	-0.141
Mof_N 	N 	0.7114	0.5499	0.5641	-0.149
_end
