data_functionalizedCrystal
_audit_creation_method	'EQeq! by Chris Wilmer'
_symmetry_space_group_name_H-M	'P1'
_symmetry_Int_Tables_number	1
_symmetry_cell_setting	triclinic
loop_
_symmetry_equiv_pos_as_xyz
  x,y,z
_cell_length_a	10.464
_cell_length_b	12.0162
_cell_length_c	13.1846
_cell_angle_alpha	83.78
_cell_angle_beta	86.014
_cell_angle_gamma	75.659
loop_
_atom_site_label
_atom_site_type_symbol
_atom_site_fract_x
_atom_site_fract_y
_atom_site_fract_z
_atom_site_charge
Mof_Eu	Eu	0.39268	0.38214	0.95242	2.146
Mof_O 	O 	0.1541	0.3987	0.02246	-0.408
Mof_O 	O 	0.2899	0.2273	0.00797	-0.469
Mof_O 	O 	0.3895	0.3909	0.13165	-0.518
Mof_O 	O 	0.4547	0.5496	0.15731	-0.587
Mof_O 	O 	0.6667	0.4201	0.04289	-0.601
Mof_O 	O 	0.6007	0.2656	0.00839	-0.523
Mof_O 	O 	0.3522	0.1119	0.4302	-0.451
Mof_H 	H 	0.3302	0.0546	0.4621	0.264
Mof_O 	O 	0.3483	0.1669	0.587	-0.296
Mof_C 	C 	0.4796	0.4614	0.4671	-0.026
Mof_C 	C 	0.4709	0.4894	0.3615	0.031
Mof_H 	H 	0.4922	0.5585	0.3315	0.002
Mof_C 	C 	0.1748	0.2918	0.0188	0.299
Mof_C 	C 	0.4251	0.455	0.187	0.498
Mof_C 	C 	0.0606	0.236	0.0207	-0.08
Mof_C 	C 	0.3988	0.3175	0.3409	0.075
Mof_H 	H 	0.3717	0.2693	0.2984	0.04
Mof_C 	C 	0.446	0.3589	0.5076	0.004
Mof_H 	H 	0.4507	0.3372	0.579	0.026
Mof_C 	C 	0.9318	0.3019	0.0251	0.047
Mof_H 	H 	0.9137	0.3827	0.0301	0.019
Mof_C 	C 	0.0871	0.1182	0.0119	-0.012
Mof_H 	H 	0.1761	0.0744	0.0097	0.051
Mof_C 	C 	0.6884	0.3162	0.0253	0.492
Mof_C 	C 	0.8558	0.1299	0.0127	0.012
Mof_H 	H 	0.7844	0.0945	0.0106	0.038
Mof_C 	C 	0.432	0.4188	0.2997	-0.168
Mof_C 	C 	0.9856	0.0626	0.0062	-0.013
Mof_C 	C 	0.8297	0.2476	0.0221	-0.152
Mof_C 	C 	0.4063	0.2885	0.4458	-0.114
Mof_C 	C 	0.3666	0.183	0.4957	0.373
Mof_Eu	Eu	0.60732	0.61786	0.04758	2.147
Mof_O 	O 	0.8459	0.6013	0.97754	-0.407
Mof_O 	O 	0.7101	0.7727	0.99203	-0.469
Mof_O 	O 	0.6105	0.6091	0.86835	-0.518
Mof_O 	O 	0.5453	0.4504	0.84269	-0.587
Mof_O 	O 	0.3333	0.5799	0.95711	-0.601
Mof_O 	O 	0.3993	0.7344	0.99161	-0.523
Mof_O 	O 	0.6478	0.8881	0.5698	-0.451
Mof_H 	H 	0.6698	0.9454	0.5379	0.264
Mof_O 	O 	0.6517	0.8331	0.413	-0.296
Mof_C 	C 	0.5204	0.5386	0.5329	-0.026
Mof_C 	C 	0.5291	0.5106	0.6385	0.031
Mof_H 	H 	0.5078	0.4415	0.6685	0.002
Mof_C 	C 	0.8252	0.7082	0.9812	0.299
Mof_C 	C 	0.5749	0.545	0.813	0.498
Mof_C 	C 	0.9394	0.764	0.9793	-0.08
Mof_C 	C 	0.6012	0.6825	0.6591	0.075
Mof_H 	H 	0.6283	0.7307	0.7016	0.04
Mof_C 	C 	0.554	0.6411	0.4924	0.004
Mof_H 	H 	0.5493	0.6628	0.421	0.026
Mof_C 	C 	0.0682	0.6981	0.9749	0.047
Mof_H 	H 	0.0863	0.6173	0.9699	0.019
Mof_C 	C 	0.9129	0.8818	0.9881	-0.012
Mof_H 	H 	0.8239	0.9256	0.9903	0.051
Mof_C 	C 	0.3116	0.6838	0.9747	0.492
Mof_C 	C 	0.1442	0.8701	0.9873	0.012
Mof_H 	H 	0.2156	0.9055	0.9894	0.038
Mof_C 	C 	0.568	0.5812	0.7003	-0.168
Mof_C 	C 	0.0144	0.9374	0.9938	-0.013
Mof_C 	C 	0.1703	0.7524	0.9779	-0.152
Mof_C 	C 	0.5937	0.7115	0.5542	-0.114
Mof_C 	C 	0.6334	0.817	0.5043	0.373
_end
