# CIF file generated by openbabel 3.1.0, see https://openbabel.org
data_I
_chemical_name_common 'image0'
_cell_length_a 29.1148
_cell_length_b 16.012
_cell_length_c 16.7097
_cell_angle_alpha 90
_cell_angle_beta 90
_cell_angle_gamma 90
_space_group_name_H-M_alt 'P 1'
_space_group_name_Hall 'P 1'
loop_
    _symmetry_equiv_pos_as_xyz
    x,y,z
loop_
    _atom_site_label
    _atom_site_type_symbol
    _atom_site_fract_x
    _atom_site_fract_y
    _atom_site_fract_z
    _atom_site_occupancy
    Cd1      Cd       0.45574    0.79545    0.16173    1.000
    C1       C        0.63430    0.78260    0.14280    1.000
    H1       H        0.62980    0.79300    0.19760    1.000
    N1       N        0.45672    0.64850    0.16690    1.000
    O1       O        0.54076    0.79560    0.19600    1.000
    C2       C        0.54901    0.78960    0.12260    1.000
    N2       N        0.45506    0.94000    0.16700    1.000
    O2       O        0.87564    0.70860    0.83580    1.000
    O3       O        0.51724    0.79250    0.07220    1.000
    C3       C        0.45380    0.47510    0.17000    1.000
    C4       C        0.45260    0.11380    0.17100    1.000
    O4       O        0.90465    0.71210    0.95340    1.000
    C5       C        0.87150    0.71300    0.90910    1.000
    C6       C        0.68690    0.75730    0.03620    1.000
    C7       C        0.43870    0.60780    0.22870    1.000
    H2       H        0.42740    0.63950    0.27170    1.000
    C8       C        0.45200    0.38410    0.17200    1.000
    C9       C        0.45210    0.20770    0.17210    1.000
    C10      C        0.43990    0.98190    0.23110    1.000
    H3       H        0.43000    0.95140    0.27590    1.000
    C11      C        0.41500    0.33840    0.20350    1.000
    C12      C        0.73470    0.74530    0.00390    1.000
    C13      C        0.82360    0.72450    0.94340    1.000
    C14      C        0.41470    0.25130    0.20240    1.000
    C15      C        0.47020    0.98630    0.10630    1.000
    H4       H        0.48300    0.95880    0.06190    1.000
    C16      C        0.59748    0.77810    0.09380    1.000
    C17      C        0.43550    0.52220    0.23360    1.000
    H5       H        0.42170    0.49620    0.27790    1.000
    C18      C        0.47290    0.51780    0.10690    1.000
    H6       H        0.48540    0.48890    0.06300    1.000
    C19      C        0.47320    0.60560    0.10910    1.000
    H7       H        0.48640    0.63440    0.06570    1.000
    C20      C        0.43830    0.06620    0.23400    1.000
    H8       H        0.42710    0.09260    0.28030    1.000
    C21      C        0.46830    0.07120    0.10510    1.000
    H9       H        0.47780    0.10060    0.05930    1.000
    C22      C        0.78670    0.73060    0.89290    1.000
    H10      H        0.79130    0.72800    0.83730    1.000
    C23      C        0.48960    0.25160    0.14090    1.000
    H11      H        0.51490    0.22250    0.11980    1.000
    C24      C        0.67880    0.77220    0.11440    1.000
    H12      H        0.70370    0.77570    0.15020    1.000
    C25      C        0.48940    0.33730    0.14130    1.000
    H13      H        0.51490    0.36600    0.12050    1.000
    C26      C        0.81560    0.72780    0.02240    1.000
    H14      H        0.84040    0.72190    0.05790    1.000
    C27      C        0.64960    0.74990    0.98640    1.000
    H15      H        0.65430    0.73750    0.93210    1.000
    C28      C        0.74280    0.74060    0.92300    1.000
    H16      H        0.71800    0.74430    0.88720    1.000
    C29      C        0.60500    0.76020    0.01460    1.000
    H17      H        0.58010    0.75490    0.97930    1.000
    C30      C        0.77150    0.73960    0.05360    1.000
    H18      H        0.76730    0.74360    0.10930    1.000
    O5       O        0.33660    0.25160    0.25870    1.000
    C31      C        0.36980    0.21260    0.22960    1.000
    H19      H        0.36670    0.15450    0.22410    1.000
    C32      C        0.36910    0.36950    0.23060    1.000
    H20      H        0.36500    0.42720    0.22300    1.000
    O6       O        0.33600    0.33560    0.26000    1.000
    Cd2      Cd       0.04426    0.70455    0.66173    1.000
    C33      C        0.86570    0.71740    0.64280    1.000
    H21      H        0.87020    0.70700    0.69760    1.000
    N3       N        0.04328    0.85150    0.66690    1.000
    O7       O        0.95924    0.70440    0.69600    1.000
    C34      C        0.95099    0.71040    0.62260    1.000
    N4       N        0.04494    0.56000    0.66700    1.000
    O8       O        0.62436    0.79140    0.33580    1.000
    O9       O        0.98276    0.70750    0.57220    1.000
    C35      C        0.04620    0.02490    0.67000    1.000
    C36      C        0.04740    0.38620    0.67100    1.000
    O10      O        0.59535    0.78790    0.45340    1.000
    C37      C        0.62850    0.78700    0.40910    1.000
    C38      C        0.81310    0.74270    0.53620    1.000
    C39      C        0.06130    0.89220    0.72870    1.000
    H22      H        0.07260    0.86050    0.77170    1.000
    C40      C        0.04800    0.11590    0.67200    1.000
    C41      C        0.04790    0.29230    0.67210    1.000
    C42      C        0.06010    0.51810    0.73110    1.000
    H23      H        0.07000    0.54860    0.77590    1.000
    C43      C        0.08500    0.16160    0.70350    1.000
    C44      C        0.76530    0.75470    0.50390    1.000
    C45      C        0.67640    0.77550    0.44340    1.000
    C46      C        0.08530    0.24870    0.70240    1.000
    C47      C        0.02980    0.51370    0.60630    1.000
    H24      H        0.01700    0.54120    0.56190    1.000
    C48      C        0.90252    0.72190    0.59380    1.000
    C49      C        0.06450    0.97780    0.73360    1.000
    H25      H        0.07830    0.00380    0.77790    1.000
    C50      C        0.02710    0.98220    0.60690    1.000
    H26      H        0.01460    0.01110    0.56300    1.000
    C51      C        0.02680    0.89440    0.60910    1.000
    H27      H        0.01360    0.86560    0.56570    1.000
    C52      C        0.06170    0.43380    0.73400    1.000
    H28      H        0.07290    0.40740    0.78030    1.000
    C53      C        0.03170    0.42880    0.60510    1.000
    H29      H        0.02220    0.39940    0.55930    1.000
    C54      C        0.71330    0.76940    0.39290    1.000
    H30      H        0.70870    0.77200    0.33730    1.000
    C55      C        0.01040    0.24840    0.64090    1.000
    H31      H        0.98510    0.27750    0.61980    1.000
    C56      C        0.82120    0.72780    0.61440    1.000
    H32      H        0.79630    0.72430    0.65020    1.000
    C57      C        0.01060    0.16270    0.64130    1.000
    H33      H        0.98510    0.13400    0.62050    1.000
    C58      C        0.68440    0.77220    0.52240    1.000
    H34      H        0.65960    0.77810    0.55790    1.000
    C59      C        0.85040    0.75010    0.48640    1.000
    H35      H        0.84570    0.76250    0.43210    1.000
    C60      C        0.75720    0.75940    0.42300    1.000
    H36      H        0.78200    0.75570    0.38720    1.000
    C61      C        0.89500    0.73980    0.51460    1.000
    H37      H        0.91990    0.74510    0.47930    1.000
    C62      C        0.72850    0.76040    0.55360    1.000
    H38      H        0.73270    0.75640    0.60930    1.000
    O11      O        0.16340    0.24840    0.75870    1.000
    C63      C        0.13020    0.28740    0.72960    1.000
    H39      H        0.13330    0.34550    0.72410    1.000
    C64      C        0.13090    0.13050    0.73060    1.000
    H40      H        0.13500    0.07280    0.72300    1.000
    O12      O        0.16400    0.16440    0.76000    1.000
    Cd3      Cd       0.54426    0.79545    0.33827    1.000
    C65      C        0.36570    0.78260    0.35720    1.000
    H41      H        0.37020    0.79300    0.30240    1.000
    N5       N        0.54328    0.64850    0.33310    1.000
    O13      O        0.45924    0.79560    0.30400    1.000
    C66      C        0.45099    0.78960    0.37740    1.000
    N6       N        0.54494    0.94000    0.33300    1.000
    O14      O        0.12436    0.70860    0.66420    1.000
    O15      O        0.48276    0.79250    0.42780    1.000
    C67      C        0.54620    0.47510    0.33000    1.000
    C68      C        0.54740    0.11380    0.32900    1.000
    O16      O        0.09535    0.71210    0.54660    1.000
    C69      C        0.12850    0.71300    0.59090    1.000
    C70      C        0.31310    0.75730    0.46380    1.000
    C71      C        0.56130    0.60780    0.27130    1.000
    H42      H        0.57260    0.63950    0.22830    1.000
    C72      C        0.54800    0.38410    0.32800    1.000
    C73      C        0.54790    0.20770    0.32790    1.000
    C74      C        0.56010    0.98190    0.26890    1.000
    H43      H        0.57000    0.95140    0.22410    1.000
    C75      C        0.58500    0.33840    0.29650    1.000
    C76      C        0.26530    0.74530    0.49610    1.000
    C77      C        0.17640    0.72450    0.55660    1.000
    C78      C        0.58530    0.25130    0.29760    1.000
    C79      C        0.52980    0.98630    0.39370    1.000
    H44      H        0.51700    0.95880    0.43810    1.000
    C80      C        0.40252    0.77810    0.40620    1.000
    C81      C        0.56450    0.52220    0.26640    1.000
    H45      H        0.57830    0.49620    0.22210    1.000
    C82      C        0.52710    0.51780    0.39310    1.000
    H46      H        0.51460    0.48890    0.43700    1.000
    C83      C        0.52680    0.60560    0.39090    1.000
    H47      H        0.51360    0.63440    0.43430    1.000
    C84      C        0.56170    0.06620    0.26600    1.000
    H48      H        0.57290    0.09260    0.21970    1.000
    C85      C        0.53170    0.07120    0.39490    1.000
    H49      H        0.52220    0.10060    0.44070    1.000
    C86      C        0.21330    0.73060    0.60710    1.000
    H50      H        0.20870    0.72800    0.66270    1.000
    C87      C        0.51040    0.25160    0.35910    1.000
    H51      H        0.48510    0.22250    0.38020    1.000
    C88      C        0.32120    0.77220    0.38560    1.000
    H52      H        0.29630    0.77570    0.34980    1.000
    C89      C        0.51060    0.33730    0.35870    1.000
    H53      H        0.48510    0.36600    0.37950    1.000
    C90      C        0.18440    0.72780    0.47760    1.000
    H54      H        0.15960    0.72190    0.44210    1.000
    C91      C        0.35040    0.74990    0.51360    1.000
    H55      H        0.34570    0.73750    0.56790    1.000
    C92      C        0.25720    0.74060    0.57700    1.000
    H56      H        0.28200    0.74430    0.61280    1.000
    C93      C        0.39500    0.76020    0.48540    1.000
    H57      H        0.41990    0.75490    0.52070    1.000
    C94      C        0.22850    0.73960    0.44640    1.000
    H58      H        0.23270    0.74360    0.39070    1.000
    O17      O        0.66340    0.25160    0.24130    1.000
    C95      C        0.63020    0.21260    0.27040    1.000
    H59      H        0.63330    0.15450    0.27590    1.000
    C96      C        0.63090    0.36950    0.26940    1.000
    H60      H        0.63500    0.42720    0.27700    1.000
    O18      O        0.66400    0.33560    0.24000    1.000
    Cd4      Cd       0.95574    0.70455    0.83827    1.000
    C97      C        0.13430    0.71740    0.85720    1.000
    H61      H        0.12980    0.70700    0.80240    1.000
    N7       N        0.95672    0.85150    0.83310    1.000
    O19      O        0.04076    0.70440    0.80400    1.000
    C98      C        0.04901    0.71040    0.87740    1.000
    N8       N        0.95506    0.56000    0.83300    1.000
    O20      O        0.37564    0.79140    0.16420    1.000
    O21      O        0.01724    0.70750    0.92780    1.000
    C99      C        0.95380    0.02490    0.83000    1.000
    C100     C        0.95260    0.38620    0.82900    1.000
    O22      O        0.40465    0.78790    0.04660    1.000
    C101     C        0.37150    0.78700    0.09090    1.000
    C102     C        0.18690    0.74270    0.96380    1.000
    C103     C        0.93870    0.89220    0.77130    1.000
    H62      H        0.92740    0.86050    0.72830    1.000
    C104     C        0.95200    0.11590    0.82800    1.000
    C105     C        0.95210    0.29230    0.82790    1.000
    C106     C        0.93990    0.51810    0.76890    1.000
    H63      H        0.93000    0.54860    0.72410    1.000
    C107     C        0.91500    0.16160    0.79650    1.000
    C108     C        0.23470    0.75470    0.99610    1.000
    C109     C        0.32360    0.77550    0.05660    1.000
    C110     C        0.91470    0.24870    0.79760    1.000
    C111     C        0.97020    0.51370    0.89370    1.000
    H64      H        0.98300    0.54120    0.93810    1.000
    C112     C        0.09748    0.72190    0.90620    1.000
    C113     C        0.93550    0.97780    0.76640    1.000
    H65      H        0.92170    0.00380    0.72210    1.000
    C114     C        0.97290    0.98220    0.89310    1.000
    H66      H        0.98540    0.01110    0.93700    1.000
    C115     C        0.97320    0.89440    0.89090    1.000
    H67      H        0.98640    0.86560    0.93430    1.000
    C116     C        0.93830    0.43380    0.76600    1.000
    H68      H        0.92710    0.40740    0.71970    1.000
    C117     C        0.96830    0.42880    0.89490    1.000
    H69      H        0.97780    0.39940    0.94070    1.000
    C118     C        0.28670    0.76940    0.10710    1.000
    H70      H        0.29130    0.77200    0.16270    1.000
    C119     C        0.98960    0.24840    0.85910    1.000
    H71      H        0.01490    0.27750    0.88020    1.000
    C120     C        0.17880    0.72780    0.88560    1.000
    H72      H        0.20370    0.72430    0.84980    1.000
    C121     C        0.98940    0.16270    0.85870    1.000
    H73      H        0.01490    0.13400    0.87950    1.000
    C122     C        0.31560    0.77220    0.97760    1.000
    H74      H        0.34040    0.77810    0.94210    1.000
    C123     C        0.14960    0.75010    0.01360    1.000
    H75      H        0.15430    0.76250    0.06790    1.000
    C124     C        0.24280    0.75940    0.07700    1.000
    H76      H        0.21800    0.75570    0.11280    1.000
    C125     C        0.10500    0.73980    0.98540    1.000
    H77      H        0.08010    0.74510    0.02070    1.000
    C126     C        0.27150    0.76040    0.94640    1.000
    H78      H        0.26730    0.75640    0.89070    1.000
    O23      O        0.83660    0.24840    0.74130    1.000
    C127     C        0.86980    0.28740    0.77040    1.000
    H79      H        0.86670    0.34550    0.77590    1.000
    C128     C        0.86910    0.13050    0.76940    1.000
    H80      H        0.86500    0.07280    0.77700    1.000
    O24      O        0.83600    0.16440    0.74000    1.000
    Cd5      Cd       0.54426    0.20455    0.83827    1.000
    C129     C        0.36570    0.21740    0.85720    1.000
    H81      H        0.37020    0.20700    0.80240    1.000
    N9       N        0.54328    0.35150    0.83310    1.000
    O25      O        0.45924    0.20440    0.80400    1.000
    C130     C        0.45099    0.21040    0.87740    1.000
    N10      N        0.54494    0.06000    0.83300    1.000
    O26      O        0.12436    0.29140    0.16420    1.000
    O27      O        0.48276    0.20750    0.92780    1.000
    C131     C        0.54620    0.52490    0.83000    1.000
    C132     C        0.54740    0.88620    0.82900    1.000
    O28      O        0.09535    0.28790    0.04660    1.000
    C133     C        0.12850    0.28700    0.09090    1.000
    C134     C        0.31310    0.24270    0.96380    1.000
    C135     C        0.56130    0.39220    0.77130    1.000
    H82      H        0.57260    0.36050    0.72830    1.000
    C136     C        0.54800    0.61590    0.82800    1.000
    C137     C        0.54790    0.79230    0.82790    1.000
    C138     C        0.56010    0.01810    0.76890    1.000
    H83      H        0.57000    0.04860    0.72410    1.000
    C139     C        0.58500    0.66160    0.79650    1.000
    C140     C        0.26530    0.25470    0.99610    1.000
    C141     C        0.17640    0.27550    0.05660    1.000
    C142     C        0.58530    0.74870    0.79760    1.000
    C143     C        0.52980    0.01370    0.89370    1.000
    H84      H        0.51700    0.04120    0.93810    1.000
    C144     C        0.40252    0.22190    0.90620    1.000
    C145     C        0.56450    0.47780    0.76640    1.000
    H85      H        0.57830    0.50380    0.72210    1.000
    C146     C        0.52710    0.48220    0.89310    1.000
    H86      H        0.51460    0.51110    0.93700    1.000
    C147     C        0.52680    0.39440    0.89090    1.000
    H87      H        0.51360    0.36560    0.93430    1.000
    C148     C        0.56170    0.93380    0.76600    1.000
    H88      H        0.57290    0.90740    0.71970    1.000
    C149     C        0.53170    0.92880    0.89490    1.000
    H89      H        0.52220    0.89940    0.94070    1.000
    C150     C        0.21330    0.26940    0.10710    1.000
    H90      H        0.20870    0.27200    0.16270    1.000
    C151     C        0.51040    0.74840    0.85910    1.000
    H91      H        0.48510    0.77750    0.88020    1.000
    C152     C        0.32120    0.22780    0.88560    1.000
    H92      H        0.29630    0.22430    0.84980    1.000
    C153     C        0.51060    0.66270    0.85870    1.000
    H93      H        0.48510    0.63400    0.87950    1.000
    C154     C        0.18440    0.27220    0.97760    1.000
    H94      H        0.15960    0.27810    0.94210    1.000
    C155     C        0.35040    0.25010    0.01360    1.000
    H95      H        0.34570    0.26250    0.06790    1.000
    C156     C        0.25720    0.25940    0.07700    1.000
    H96      H        0.28200    0.25570    0.11280    1.000
    C157     C        0.39500    0.23980    0.98540    1.000
    H97      H        0.41990    0.24510    0.02070    1.000
    C158     C        0.22850    0.26040    0.94640    1.000
    H98      H        0.23270    0.25640    0.89070    1.000
    O29      O        0.66340    0.74840    0.74130    1.000
    C159     C        0.63020    0.78740    0.77040    1.000
    H99      H        0.63330    0.84550    0.77590    1.000
    C160     C        0.63090    0.63050    0.76940    1.000
    H100     H        0.63500    0.57280    0.77700    1.000
    O30      O        0.66400    0.66440    0.74000    1.000
    Cd6      Cd       0.95574    0.29545    0.33827    1.000
    C161     C        0.13430    0.28260    0.35720    1.000
    H101     H        0.12980    0.29300    0.30240    1.000
    N11      N        0.95672    0.14850    0.33310    1.000
    O31      O        0.04076    0.29560    0.30400    1.000
    C162     C        0.04901    0.28960    0.37740    1.000
    N12      N        0.95506    0.44000    0.33300    1.000
    O32      O        0.37564    0.20860    0.66420    1.000
    O33      O        0.01724    0.29250    0.42780    1.000
    C163     C        0.95380    0.97510    0.33000    1.000
    C164     C        0.95260    0.61380    0.32900    1.000
    O34      O        0.40465    0.21210    0.54660    1.000
    C165     C        0.37150    0.21300    0.59090    1.000
    C166     C        0.18690    0.25730    0.46380    1.000
    C167     C        0.93870    0.10780    0.27130    1.000
    H102     H        0.92740    0.13950    0.22830    1.000
    C168     C        0.95200    0.88410    0.32800    1.000
    C169     C        0.95210    0.70770    0.32790    1.000
    C170     C        0.93990    0.48190    0.26890    1.000
    H103     H        0.93000    0.45140    0.22410    1.000
    C171     C        0.91500    0.83840    0.29650    1.000
    C172     C        0.23470    0.24530    0.49610    1.000
    C173     C        0.32360    0.22450    0.55660    1.000
    C174     C        0.91470    0.75130    0.29760    1.000
    C175     C        0.97020    0.48630    0.39370    1.000
    H104     H        0.98300    0.45880    0.43810    1.000
    C176     C        0.09748    0.27810    0.40620    1.000
    C177     C        0.93550    0.02220    0.26640    1.000
    H105     H        0.92170    0.99620    0.22210    1.000
    C178     C        0.97290    0.01780    0.39310    1.000
    H106     H        0.98540    0.98890    0.43700    1.000
    C179     C        0.97320    0.10560    0.39090    1.000
    H107     H        0.98640    0.13440    0.43430    1.000
    C180     C        0.93830    0.56620    0.26600    1.000
    H108     H        0.92710    0.59260    0.21970    1.000
    C181     C        0.96830    0.57120    0.39490    1.000
    H109     H        0.97780    0.60060    0.44070    1.000
    C182     C        0.28670    0.23060    0.60710    1.000
    H110     H        0.29130    0.22800    0.66270    1.000
    C183     C        0.98960    0.75160    0.35910    1.000
    H111     H        0.01490    0.72250    0.38020    1.000
    C184     C        0.17880    0.27220    0.38560    1.000
    H112     H        0.20370    0.27570    0.34980    1.000
    C185     C        0.98940    0.83730    0.35870    1.000
    H113     H        0.01490    0.86600    0.37950    1.000
    C186     C        0.31560    0.22780    0.47760    1.000
    H114     H        0.34040    0.22190    0.44210    1.000
    C187     C        0.14960    0.24990    0.51360    1.000
    H115     H        0.15430    0.23750    0.56790    1.000
    C188     C        0.24280    0.24060    0.57700    1.000
    H116     H        0.21800    0.24430    0.61280    1.000
    C189     C        0.10500    0.26020    0.48540    1.000
    H117     H        0.08010    0.25490    0.52070    1.000
    C190     C        0.27150    0.23960    0.44640    1.000
    H118     H        0.26730    0.24360    0.39070    1.000
    O35      O        0.83660    0.75160    0.24130    1.000
    C191     C        0.86980    0.71260    0.27040    1.000
    H119     H        0.86670    0.65450    0.27590    1.000
    C192     C        0.86910    0.86950    0.26940    1.000
    H120     H        0.86500    0.92720    0.27700    1.000
    O36      O        0.83600    0.83560    0.24000    1.000
    Cd7      Cd       0.45574    0.20455    0.66173    1.000
    C193     C        0.63430    0.21740    0.64280    1.000
    H121     H        0.62980    0.20700    0.69760    1.000
    N13      N        0.45672    0.35150    0.66690    1.000
    O37      O        0.54076    0.20440    0.69600    1.000
    C194     C        0.54901    0.21040    0.62260    1.000
    N14      N        0.45506    0.06000    0.66700    1.000
    O38      O        0.87564    0.29140    0.33580    1.000
    O39      O        0.51724    0.20750    0.57220    1.000
    C195     C        0.45380    0.52490    0.67000    1.000
    C196     C        0.45260    0.88620    0.67100    1.000
    O40      O        0.90465    0.28790    0.45340    1.000
    C197     C        0.87150    0.28700    0.40910    1.000
    C198     C        0.68690    0.24270    0.53620    1.000
    C199     C        0.43870    0.39220    0.72870    1.000
    H122     H        0.42740    0.36050    0.77170    1.000
    C200     C        0.45200    0.61590    0.67200    1.000
    C201     C        0.45210    0.79230    0.67210    1.000
    C202     C        0.43990    0.01810    0.73110    1.000
    H123     H        0.43000    0.04860    0.77590    1.000
    C203     C        0.41500    0.66160    0.70350    1.000
    C204     C        0.73470    0.25470    0.50390    1.000
    C205     C        0.82360    0.27550    0.44340    1.000
    C206     C        0.41470    0.74870    0.70240    1.000
    C207     C        0.47020    0.01370    0.60630    1.000
    H124     H        0.48300    0.04120    0.56190    1.000
    C208     C        0.59748    0.22190    0.59380    1.000
    C209     C        0.43550    0.47780    0.73360    1.000
    H125     H        0.42170    0.50380    0.77790    1.000
    C210     C        0.47290    0.48220    0.60690    1.000
    H126     H        0.48540    0.51110    0.56300    1.000
    C211     C        0.47320    0.39440    0.60910    1.000
    H127     H        0.48640    0.36560    0.56570    1.000
    C212     C        0.43830    0.93380    0.73400    1.000
    H128     H        0.42710    0.90740    0.78030    1.000
    C213     C        0.46830    0.92880    0.60510    1.000
    H129     H        0.47780    0.89940    0.55930    1.000
    C214     C        0.78670    0.26940    0.39290    1.000
    H130     H        0.79130    0.27200    0.33730    1.000
    C215     C        0.48960    0.74840    0.64090    1.000
    H131     H        0.51490    0.77750    0.61980    1.000
    C216     C        0.67880    0.22780    0.61440    1.000
    H132     H        0.70370    0.22430    0.65020    1.000
    C217     C        0.48940    0.66270    0.64130    1.000
    H133     H        0.51490    0.63400    0.62050    1.000
    C218     C        0.81560    0.27220    0.52240    1.000
    H134     H        0.84040    0.27810    0.55790    1.000
    C219     C        0.64960    0.25010    0.48640    1.000
    H135     H        0.65430    0.26250    0.43210    1.000
    C220     C        0.74280    0.25940    0.42300    1.000
    H136     H        0.71800    0.25570    0.38720    1.000
    C221     C        0.60500    0.23980    0.51460    1.000
    H137     H        0.58010    0.24510    0.47930    1.000
    C222     C        0.77150    0.26040    0.55360    1.000
    H138     H        0.76730    0.25640    0.60930    1.000
    O41      O        0.33660    0.74840    0.75870    1.000
    C223     C        0.36980    0.78740    0.72960    1.000
    H139     H        0.36670    0.84550    0.72410    1.000
    C224     C        0.36910    0.63050    0.73060    1.000
    H140     H        0.36500    0.57280    0.72300    1.000
    O42      O        0.33600    0.66440    0.76000    1.000
    Cd8      Cd       0.04426    0.29545    0.16173    1.000
    C225     C        0.86570    0.28260    0.14280    1.000
    H141     H        0.87020    0.29300    0.19760    1.000
    N15      N        0.04328    0.14850    0.16690    1.000
    O43      O        0.95924    0.29560    0.19600    1.000
    C226     C        0.95099    0.28960    0.12260    1.000
    N16      N        0.04494    0.44000    0.16700    1.000
    O44      O        0.62436    0.20860    0.83580    1.000
    O45      O        0.98276    0.29250    0.07220    1.000
    C227     C        0.04620    0.97510    0.17000    1.000
    C228     C        0.04740    0.61380    0.17100    1.000
    O46      O        0.59535    0.21210    0.95340    1.000
    C229     C        0.62850    0.21300    0.90910    1.000
    C230     C        0.81310    0.25730    0.03620    1.000
    C231     C        0.06130    0.10780    0.22870    1.000
    H142     H        0.07260    0.13950    0.27170    1.000
    C232     C        0.04800    0.88410    0.17200    1.000
    C233     C        0.04790    0.70770    0.17210    1.000
    C234     C        0.06010    0.48190    0.23110    1.000
    H143     H        0.07000    0.45140    0.27590    1.000
    C235     C        0.08500    0.83840    0.20350    1.000
    C236     C        0.76530    0.24530    0.00390    1.000
    C237     C        0.67640    0.22450    0.94340    1.000
    C238     C        0.08530    0.75130    0.20240    1.000
    C239     C        0.02980    0.48630    0.10630    1.000
    H144     H        0.01700    0.45880    0.06190    1.000
    C240     C        0.90252    0.27810    0.09380    1.000
    C241     C        0.06450    0.02220    0.23360    1.000
    H145     H        0.07830    0.99620    0.27790    1.000
    C242     C        0.02710    0.01780    0.10690    1.000
    H146     H        0.01460    0.98890    0.06300    1.000
    C243     C        0.02680    0.10560    0.10910    1.000
    H147     H        0.01360    0.13440    0.06570    1.000
    C244     C        0.06170    0.56620    0.23400    1.000
    H148     H        0.07290    0.59260    0.28030    1.000
    C245     C        0.03170    0.57120    0.10510    1.000
    H149     H        0.02220    0.60060    0.05930    1.000
    C246     C        0.71330    0.23060    0.89290    1.000
    H150     H        0.70870    0.22800    0.83730    1.000
    C247     C        0.01040    0.75160    0.14090    1.000
    H151     H        0.98510    0.72250    0.11980    1.000
    C248     C        0.82120    0.27220    0.11440    1.000
    H152     H        0.79630    0.27570    0.15020    1.000
    C249     C        0.01060    0.83730    0.14130    1.000
    H153     H        0.98510    0.86600    0.12050    1.000
    C250     C        0.68440    0.22780    0.02240    1.000
    H154     H        0.65960    0.22190    0.05790    1.000
    C251     C        0.85040    0.24990    0.98640    1.000
    H155     H        0.84570    0.23750    0.93210    1.000
    C252     C        0.75720    0.24060    0.92300    1.000
    H156     H        0.78200    0.24430    0.88720    1.000
    C253     C        0.89500    0.26020    0.01460    1.000
    H157     H        0.91990    0.25490    0.97930    1.000
    C254     C        0.72850    0.23960    0.05360    1.000
    H158     H        0.73270    0.24360    0.10930    1.000
    O47      O        0.16340    0.75160    0.25870    1.000
    C255     C        0.13020    0.71260    0.22960    1.000
    H159     H        0.13330    0.65450    0.22410    1.000
    C256     C        0.13090    0.86950    0.23060    1.000
    H160     H        0.13500    0.92720    0.22300    1.000
    O48      O        0.16400    0.83560    0.26000    1.000
