data_functionalizedCrystal
_audit_creation_method	'EQeq! by Chris Wilmer'
_symmetry_space_group_name_H-M	'P1'
_symmetry_Int_Tables_number	1
_symmetry_cell_setting	triclinic
loop_
_symmetry_equiv_pos_as_xyz
  x,y,z
_cell_length_a	10.143
_cell_length_b	12.709
_cell_length_c	16.795
_cell_angle_alpha	90
_cell_angle_beta	107.036
_cell_angle_gamma	90
loop_
_atom_site_label
_atom_site_type_symbol
_atom_site_fract_x
_atom_site_fract_y
_atom_site_fract_z
_atom_site_charge
Mof_Ca	Ca	0.93138	0.23201	0.71281	1.493
Mof_Ca	Ca	0.06862	0.73201	0.78719	1.492
Mof_Ca	Ca	0.06862	0.76799	0.28719	1.495
Mof_Ca	Ca	0.93138	0.26799	0.21281	1.489
Mof_H 	H 	0.2691	0.3252	0.7811	0.011
Mof_H 	H 	0.4578	0.4155	0.7666	0.097
Mof_H 	H 	0.6664	0.3273	0.7856	-0.019
Mof_H 	H 	0.4983	0.064	0.8436	0.022
Mof_H 	H 	0.8038	0.6415	0.8583	-0.016
Mof_H 	H 	0.7457	0.4782	0.899	0.097
Mof_H 	H 	0.8056	0.4345	0.038	-0.04
Mof_H 	H 	0.9802	0.7167	0.0979	0.003
Mof_H 	H 	0.7309	0.8252	0.7189	0.011
Mof_H 	H 	0.5422	0.9155	0.7334	0.099
Mof_H 	H 	0.3336	0.8273	0.7144	-0.018
Mof_H 	H 	0.5017	0.564	0.6564	0.023
Mof_H 	H 	0.1962	0.1415	0.6417	-0.02
Mof_H 	H 	0.2543	0.9782	0.601	0.105
Mof_H 	H 	0.1944	0.9345	0.462	-0.037
Mof_H 	H 	0.0198	0.2167	0.4021	0.002
Mof_H 	H 	0.7309	0.6748	0.2189	0.011
Mof_H 	H 	0.5422	0.5845	0.2334	0.097
Mof_H 	H 	0.3336	0.6727	0.2144	-0.018
Mof_H 	H 	0.5017	0.936	0.1564	0.025
Mof_H 	H 	0.1962	0.3585	0.1417	-0.016
Mof_H 	H 	0.2543	0.5218	0.101	0.097
Mof_H 	H 	0.1944	0.5655	0.962	-0.04
Mof_H 	H 	0.0198	0.2833	0.9021	0.003
Mof_H 	H 	0.2691	0.1748	0.2811	0.011
Mof_H 	H 	0.4578	0.0845	0.2666	0.094
Mof_H 	H 	0.6664	0.1727	0.2856	-0.018
Mof_H 	H 	0.4983	0.436	0.3436	0.024
Mof_H 	H 	0.8038	0.8585	0.3583	-0.001
Mof_H 	H 	0.7457	0.0218	0.399	0.068
Mof_H 	H 	0.8056	0.0655	0.538	-0.02
Mof_H 	H 	0.9802	0.7833	0.5979	0.012
Mof_C 	C 	0.2468	0.1291	0.8341	0.394
Mof_C 	C 	0.7349	0.1289	0.8276	0.367
Mof_C 	C 	0.3665	0.1867	0.8176	-0.164
Mof_C 	C 	0.3537	0.2913	0.7916	0.093
Mof_C 	C 	0.4654	0.3448	0.7813	-0.163
Mof_C 	C 	0.5909	0.2917	0.7931	0.09
Mof_C 	C 	0.6032	0.1877	0.8156	-0.17
Mof_C 	C 	0.4903	0.1345	0.8282	0.088
Mof_C 	C 	0.9432	0.8008	0.9474	0.38
Mof_C 	C 	0.9451	0.5393	0.173	0.469
Mof_C 	C 	0.8997	0.6948	0.9732	-0.179
Mof_C 	C 	0.8286	0.6239	0.9145	0.112
Mof_C 	C 	0.7937	0.5261	0.9388	-0.199
Mof_C 	C 	0.83	0.5	0.0219	0.14
Mof_C 	C 	0.9024	0.5701	0.0818	-0.226
Mof_C 	C 	0.9349	0.6681	0.0578	0.128
Mof_C 	C 	0.7532	0.6291	0.6659	0.393
Mof_C 	C 	0.2651	0.6289	0.6724	0.367
Mof_C 	C 	0.6335	0.6867	0.6824	-0.162
Mof_C 	C 	0.6463	0.7913	0.7084	0.093
Mof_C 	C 	0.5346	0.8448	0.7187	-0.162
Mof_C 	C 	0.4091	0.7917	0.7069	0.089
Mof_C 	C 	0.3968	0.6877	0.6844	-0.169
Mof_C 	C 	0.5097	0.6345	0.6718	0.087
Mof_C 	C 	0.0568	0.3008	0.5526	0.383
Mof_C 	C 	0.0549	0.0393	0.327	0.47
Mof_C 	C 	0.1003	0.1948	0.5268	-0.187
Mof_C 	C 	0.1714	0.1239	0.5855	0.121
Mof_C 	C 	0.2063	0.0261	0.5612	-0.214
Mof_C 	C 	0.17	0	0.4781	0.141
Mof_C 	C 	0.0976	0.0701	0.4182	-0.229
Mof_C 	C 	0.0651	0.1681	0.4422	0.135
Mof_C 	C 	0.7532	0.8709	0.1659	0.393
Mof_C 	C 	0.2651	0.8711	0.1724	0.366
Mof_C 	C 	0.6335	0.8133	0.1824	-0.161
Mof_C 	C 	0.6463	0.7087	0.2084	0.091
Mof_C 	C 	0.5346	0.6552	0.2187	-0.16
Mof_C 	C 	0.4091	0.7083	0.2069	0.088
Mof_C 	C 	0.3968	0.8123	0.1844	-0.167
Mof_C 	C 	0.5097	0.8655	0.1718	0.086
Mof_C 	C 	0.0568	0.1992	0.0526	0.38
Mof_C 	C 	0.0549	0.4607	0.827	0.47
Mof_C 	C 	0.1003	0.3052	0.0268	-0.18
Mof_C 	C 	0.1714	0.3761	0.0855	0.113
Mof_C 	C 	0.2063	0.4739	0.0612	-0.199
Mof_C 	C 	0.17	0.5	0.9781	0.141
Mof_C 	C 	0.0976	0.4299	0.9182	-0.226
Mof_C 	C 	0.0651	0.3319	0.9422	0.129
Mof_C 	C 	0.2468	0.3709	0.3341	0.393
Mof_C 	C 	0.7349	0.3711	0.3276	0.366
Mof_C 	C 	0.3665	0.3133	0.3176	-0.162
Mof_C 	C 	0.3537	0.2087	0.2916	0.091
Mof_C 	C 	0.4654	0.1552	0.2813	-0.16
Mof_C 	C 	0.5909	0.2083	0.2931	0.087
Mof_C 	C 	0.6032	0.3123	0.3156	-0.168
Mof_C 	C 	0.4903	0.3655	0.3282	0.086
Mof_C 	C 	0.9432	0.6992	0.4474	0.373
Mof_C 	C 	0.9451	0.9607	0.673	0.474
Mof_C 	C 	0.8997	0.8052	0.4732	-0.158
Mof_C 	C 	0.8286	0.8761	0.4145	0.072
Mof_C 	C 	0.7937	0.9739	0.4388	-0.132
Mof_C 	C 	0.83	0	0.5219	0.08
Mof_C 	C 	0.9024	0.9299	0.5818	-0.193
Mof_C 	C 	0.9349	0.8319	0.5578	0.106
Mof_O 	O 	0.2693	0.0455	0.8735	-0.264
Mof_O 	O 	0.1293	0.1699	0.8092	-0.399
Mof_O 	O 	0.7449	0.0351	0.8494	-0.237
Mof_O 	O 	0.8364	0.1792	0.8152	-0.401
Mof_O 	O 	0.9565	0.8043	0.8749	-0.414
Mof_O 	O 	0.9651	0.8759	0.9963	-0.211
Mof_O 	O 	0.9123	0.4493	0.1908	-0.448
Mof_O 	O 	0.0118	0.6035	0.2269	-0.439
Mof_O 	O 	0.7307	0.5455	0.6265	-0.262
Mof_O 	O 	0.8707	0.6699	0.6908	-0.399
Mof_O 	O 	0.2551	0.5351	0.6506	-0.234
Mof_O 	O 	0.1636	0.6792	0.6848	-0.401
Mof_O 	O 	0.0435	0.3043	0.6251	-0.417
Mof_O 	O 	0.0349	0.3759	0.5037	-0.214
Mof_O 	O 	0.0877	0.9493	0.3092	-0.445
Mof_O 	O 	0.9882	0.1035	0.2731	-0.445
Mof_O 	O 	0.7307	0.9545	0.1265	-0.258
Mof_O 	O 	0.8707	0.8301	0.1908	-0.399
Mof_O 	O 	0.2551	0.9649	0.1506	-0.231
Mof_O 	O 	0.1636	0.8208	0.1848	-0.4
Mof_O 	O 	0.0435	0.1957	0.1251	-0.416
Mof_O 	O 	0.0349	0.1241	0.0037	-0.215
Mof_O 	O 	0.0877	0.5507	0.8092	-0.448
Mof_O 	O 	0.9882	0.3965	0.7731	-0.439
Mof_O 	O 	0.2693	0.4545	0.3735	-0.261
Mof_O 	O 	0.1293	0.3301	0.3092	-0.398
Mof_O 	O 	0.7449	0.4649	0.3494	-0.234
Mof_O 	O 	0.8364	0.3208	0.3152	-0.4
Mof_O 	O 	0.9565	0.6957	0.3749	-0.415
Mof_O 	O 	0.9651	0.6241	0.4963	-0.212
Mof_O 	O 	0.9123	0.0507	0.6908	-0.454
Mof_O 	O 	0.0118	0.8965	0.7269	-0.443
_end
