data_functionalizedCrystal
_audit_creation_method	'EQeq! by Chris Wilmer'
_symmetry_space_group_name_H-M	'P1'
_symmetry_Int_Tables_number	1
_symmetry_cell_setting	triclinic
loop_
_symmetry_equiv_pos_as_xyz
  x,y,z
_cell_length_a	19.0999
_cell_length_b	22.8762
_cell_length_c	13.3876
_cell_angle_alpha	90
_cell_angle_beta	112.928
_cell_angle_gamma	90
loop_
_atom_site_label
_atom_site_type_symbol
_atom_site_fract_x
_atom_site_fract_y
_atom_site_fract_z
_atom_site_charge
Mof_Cu	Cu	0.49754	0.76429	0.55779	0.907
Mof_N 	N 	0.4692	0.67879	0.5462	-0.209
Mof_N 	N 	0.4075	0.7677	0.4167	-0.207
Mof_N 	N 	0.5744	0.93385	0.8026	-0.202
Mof_O 	O 	0.5129	0.8484	0.5659	-0.451
Mof_O 	O 	0.6216	0.84811	0.541	-0.307
Mof_O 	O 	0.581	0.74775	0.6939	-0.454
Mof_O 	O 	0.579	0.81081	0.82	-0.473
Mof_C 	C 	0.5029	0.6355	0.6129	0.048
Mof_H 	H 	0.5421	0.644	0.6791	0.015
Mof_C 	C 	0.4809	0.5771	0.5864	-0.084
Mof_H 	H 	0.5061	0.5473	0.6343	0.055
Mof_C 	C 	0.4241	0.5642	0.4927	-0.034
Mof_H 	H 	0.4087	0.5256	0.4761	0.038
Mof_C 	C 	0.3872	0.6093	0.4189	-0.002
Mof_C 	C 	0.3251	0.6013	0.3147	-0.04
Mof_H 	H 	0.3065	0.5639	0.293	0.042
Mof_C 	C 	0.2942	0.6458	0.2498	-0.078
Mof_H 	H 	0.2552	0.6388	0.1829	0.072
Mof_C 	C 	0.3189	0.7044	0.2793	0.03
Mof_C 	C 	0.2889	0.7543	0.2165	-0.051
Mof_H 	H 	0.2496	0.7507	0.1485	0.057
Mof_C 	C 	0.3165	0.8068	0.254	-0.07
Mof_H 	H 	0.2958	0.8397	0.2122	0.052
Mof_C 	C 	0.3753	0.8134	0.3542	0.04
Mof_H 	H 	0.3929	0.8507	0.3785	0.016
Mof_C 	C 	0.3783	0.7136	0.3805	0.011
Mof_C 	C 	0.4122	0.6659	0.4505	0.028
Mof_C 	C 	0.6487	0.932	0.857	0.046
Mof_H 	H 	0.6729	0.8959	0.8741	0.02
Mof_C 	C 	0.6918	0.9832	0.8895	-0.076
Mof_H 	H 	0.7441	0.9808	0.9275	0.053
Mof_C 	C 	0.6579	0.0359	0.8661	-0.046
Mof_H 	H 	0.6866	0.0697	0.889	0.049
Mof_C 	C 	0.5802	0.0396	0.8078	0.017
Mof_C 	C 	0.5379	0.093	0.7779	-0.056
Mof_H 	H 	0.5634	0.1285	0.7975	0.055
Mof_C 	C 	0.5399	0.9873	0.7786	0.022
Mof_C 	C 	0.568	0.8733	0.5526	0.382
Mof_C 	C 	0.5658	0.9385	0.546	-0.236
Mof_H 	H 	0.6116	0.9587	0.5693	0.122
Mof_C 	C 	0.5019	0.9688	0.5088	0.03
Mof_H 	H 	0.4565	0.9486	0.493	0.03
Mof_C 	C 	0.6055	0.7684	0.7863	0.45
Mof_C 	C 	0.6744	0.7401	0.8667	-0.273
Mof_H 	H 	0.6891	0.7041	0.8493	0.136
Mof_C 	C 	0.7157	0.7633	0.9612	0.041
Mof_H 	H 	0.7001	0.7988	0.9794	0.026
Mof_Cu	Cu	0.99754	0.26429	0.55779	0.912
Mof_N 	N 	0.9692	0.17879	0.5462	-0.186
Mof_N 	N 	0.9075	0.2677	0.4167	-0.209
Mof_N 	N 	0.0744	0.43385	0.8026	-0.198
Mof_O 	O 	0.0129	0.3484	0.5659	-0.455
Mof_O 	O 	0.1216	0.34811	0.541	-0.303
Mof_O 	O 	0.081	0.24775	0.6939	-0.459
Mof_O 	O 	0.079	0.31081	0.82	-0.476
Mof_C 	C 	0.0029	0.1355	0.6129	-0.027
Mof_H 	H 	0.0421	0.144	0.6791	0.038
Mof_C 	C 	0.9809	0.0771	0.5864	0.019
Mof_H 	H 	0.0061	0.0473	0.6343	0.01
Mof_C 	C 	0.9241	0.0642	0.4927	-0.097
Mof_H 	H 	0.9087	0.0256	0.4761	0.063
Mof_C 	C 	0.8872	0.1093	0.4189	0.033
Mof_C 	C 	0.8251	0.1013	0.3147	-0.064
Mof_H 	H 	0.8065	0.0639	0.293	0.05
Mof_C 	C 	0.7942	0.1458	0.2498	-0.06
Mof_H 	H 	0.7552	0.1388	0.1829	0.066
Mof_C 	C 	0.8189	0.2044	0.2793	0.019
Mof_C 	C 	0.7889	0.2543	0.2165	-0.042
Mof_H 	H 	0.7496	0.2507	0.1485	0.055
Mof_C 	C 	0.8165	0.3068	0.254	-0.076
Mof_H 	H 	0.7958	0.3397	0.2122	0.055
Mof_C 	C 	0.8753	0.3134	0.3542	0.045
Mof_H 	H 	0.8929	0.3507	0.3785	0.016
Mof_C 	C 	0.8783	0.2136	0.3805	0.021
Mof_C 	C 	0.9122	0.1659	0.4505	0.012
Mof_C 	C 	0.1487	0.432	0.857	0.037
Mof_H 	H 	0.1729	0.3959	0.8741	0.022
Mof_C 	C 	0.1918	0.4832	0.8895	-0.06
Mof_H 	H 	0.2441	0.4808	0.9275	0.048
Mof_C 	C 	0.1579	0.5359	0.8661	-0.069
Mof_H 	H 	0.1866	0.5697	0.889	0.056
Mof_C 	C 	0.0802	0.5396	0.8078	0.048
Mof_C 	C 	0.0379	0.593	0.7779	-0.111
Mof_H 	H 	0.0634	0.6285	0.7975	0.07
Mof_C 	C 	0.0399	0.4873	0.7786	-0.009
Mof_C 	C 	0.068	0.3733	0.5526	0.358
Mof_C 	C 	0.0658	0.4385	0.546	-0.173
Mof_H 	H 	0.1116	0.4587	0.5693	0.1
Mof_C 	C 	0.0019	0.4688	0.5088	-0.082
Mof_H 	H 	0.9565	0.4486	0.493	0.075
Mof_C 	C 	0.1055	0.2684	0.7863	0.45
Mof_C 	C 	0.1744	0.2401	0.8667	-0.271
Mof_H 	H 	0.1891	0.2041	0.8493	0.134
Mof_C 	C 	0.2157	0.2633	0.9612	0.036
Mof_H 	H 	0.2001	0.2988	0.9794	0.027
Mof_Cu	Cu	0.50246	0.76429	0.94221	0.905
Mof_N 	N 	0.5308	0.67879	0.9538	-0.212
Mof_N 	N 	0.5925	0.7677	0.0833	-0.207
Mof_N 	N 	0.4256	0.93385	0.6974	-0.203
Mof_O 	O 	0.4871	0.8484	0.9341	-0.452
Mof_O 	O 	0.3784	0.84811	0.959	-0.308
Mof_O 	O 	0.419	0.74775	0.8061	-0.454
Mof_O 	O 	0.421	0.81081	0.68	-0.472
Mof_C 	C 	0.4971	0.6355	0.8871	0.05
Mof_H 	H 	0.4579	0.644	0.8209	0.014
Mof_C 	C 	0.5191	0.5771	0.9136	-0.09
Mof_H 	H 	0.4939	0.5473	0.8657	0.057
Mof_C 	C 	0.5759	0.5642	0.0073	-0.027
Mof_H 	H 	0.5913	0.5256	0.0239	0.036
Mof_C 	C 	0.6128	0.6093	0.0811	-0.006
Mof_C 	C 	0.6749	0.6013	0.1853	-0.037
Mof_H 	H 	0.6935	0.5639	0.207	0.04
Mof_C 	C 	0.7058	0.6458	0.2502	-0.081
Mof_H 	H 	0.7448	0.6388	0.3171	0.074
Mof_C 	C 	0.6811	0.7044	0.2207	0.032
Mof_C 	C 	0.7111	0.7543	0.2835	-0.052
Mof_H 	H 	0.7504	0.7507	0.3515	0.059
Mof_C 	C 	0.6835	0.8068	0.246	-0.068
Mof_H 	H 	0.7042	0.8397	0.2878	0.052
Mof_C 	C 	0.6247	0.8134	0.1458	0.04
Mof_H 	H 	0.6071	0.8507	0.1215	0.017
Mof_C 	C 	0.6217	0.7136	0.1195	0.009
Mof_C 	C 	0.5878	0.6659	0.0495	0.031
Mof_C 	C 	0.3513	0.932	0.643	0.046
Mof_H 	H 	0.3271	0.8959	0.6259	0.02
Mof_C 	C 	0.3082	0.9832	0.6105	-0.076
Mof_H 	H 	0.2559	0.9808	0.5725	0.053
Mof_C 	C 	0.3421	0.0359	0.6339	-0.046
Mof_H 	H 	0.3134	0.0697	0.611	0.048
Mof_C 	C 	0.4198	0.0396	0.6922	0.017
Mof_C 	C 	0.4621	0.093	0.7221	-0.056
Mof_H 	H 	0.4366	0.1285	0.7025	0.055
Mof_C 	C 	0.4601	0.9873	0.7214	0.022
Mof_C 	C 	0.432	0.8733	0.9474	0.378
Mof_C 	C 	0.4342	0.9385	0.954	-0.228
Mof_H 	H 	0.3884	0.9587	0.9307	0.118
Mof_C 	C 	0.4981	0.9688	0.9912	0.014
Mof_H 	H 	0.5435	0.9486	0.007	0.036
Mof_C 	C 	0.3945	0.7684	0.7137	0.451
Mof_C 	C 	0.3256	0.7401	0.6333	-0.274
Mof_H 	H 	0.3109	0.7041	0.6507	0.136
Mof_C 	C 	0.2843	0.7633	0.5388	0.043
Mof_H 	H 	0.2999	0.7988	0.5206	0.026
Mof_Cu	Cu	0.00246	0.26429	0.94221	0.899
Mof_N 	N 	0.0308	0.17879	0.9538	-0.238
Mof_N 	N 	0.0925	0.2677	0.0833	-0.205
Mof_N 	N 	0.9256	0.43385	0.6974	-0.206
Mof_O 	O 	0.9871	0.3484	0.9341	-0.447
Mof_O 	O 	0.8784	0.34811	0.959	-0.311
Mof_O 	O 	0.919	0.24775	0.8061	-0.448
Mof_O 	O 	0.921	0.31081	0.68	-0.466
Mof_C 	C 	0.9971	0.1355	0.8871	0.137
Mof_H 	H 	0.9579	0.144	0.8209	-0.012
Mof_C 	C 	0.0191	0.0771	0.9136	-0.207
Mof_H 	H 	0.9939	0.0473	0.8657	0.108
Mof_C 	C 	0.0759	0.0642	0.0073	0.049
Mof_H 	H 	0.0913	0.0256	0.0239	0.008
Mof_C 	C 	0.1128	0.1093	0.0811	-0.047
Mof_C 	C 	0.1749	0.1013	0.1853	-0.008
Mof_H 	H 	0.1935	0.0639	0.207	0.03
Mof_C 	C 	0.2058	0.1458	0.2502	-0.102
Mof_H 	H 	0.2448	0.1388	0.3171	0.081
Mof_C 	C 	0.1811	0.2044	0.2207	0.045
Mof_C 	C 	0.2111	0.2543	0.2835	-0.063
Mof_H 	H 	0.2504	0.2507	0.3515	0.061
Mof_C 	C 	0.1835	0.3068	0.246	-0.061
Mof_H 	H 	0.2042	0.3397	0.2878	0.049
Mof_C 	C 	0.1247	0.3134	0.1458	0.034
Mof_H 	H 	0.1071	0.3507	0.1215	0.018
Mof_C 	C 	0.1217	0.2136	0.1195	-0.002
Mof_C 	C 	0.0878	0.1659	0.0495	0.052
Mof_C 	C 	0.8513	0.432	0.643	0.054
Mof_H 	H 	0.8271	0.3959	0.6259	0.017
Mof_C 	C 	0.8082	0.4832	0.6105	-0.093
Mof_H 	H 	0.7559	0.4808	0.5725	0.059
Mof_C 	C 	0.8421	0.5359	0.6339	-0.022
Mof_H 	H 	0.8134	0.5697	0.611	0.04
Mof_C 	C 	0.9198	0.5396	0.6922	-0.014
Mof_C 	C 	0.9621	0.593	0.7221	-0
Mof_H 	H 	0.9366	0.6285	0.7025	0.039
Mof_C 	C 	0.9601	0.4873	0.7214	0.054
Mof_C 	C 	0.932	0.3733	0.9474	0.401
Mof_C 	C 	0.9342	0.4385	0.954	-0.287
Mof_H 	H 	0.8884	0.4587	0.9307	0.139
Mof_C 	C 	0.9981	0.4688	0.9912	0.123
Mof_H 	H 	0.0435	0.4486	0.007	-0.007
Mof_C 	C 	0.8945	0.2684	0.7137	0.449
Mof_C 	C 	0.8256	0.2401	0.6333	-0.272
Mof_H 	H 	0.8109	0.2041	0.6507	0.136
Mof_C 	C 	0.7843	0.2633	0.5388	0.042
Mof_H 	H 	0.7999	0.2988	0.5206	0.026
Mof_Cu	Cu	0.50246	0.23571	0.44221	0.906
Mof_N 	N 	0.5308	0.32121	0.4538	-0.21
Mof_N 	N 	0.5925	0.2323	0.5833	-0.208
Mof_N 	N 	0.4256	0.06615	0.1974	-0.203
Mof_O 	O 	0.4871	0.1516	0.4341	-0.452
Mof_O 	O 	0.3784	0.15189	0.459	-0.308
Mof_O 	O 	0.419	0.25225	0.3061	-0.455
Mof_O 	O 	0.421	0.18919	0.18	-0.473
Mof_C 	C 	0.4971	0.3645	0.3871	0.048
Mof_H 	H 	0.4579	0.356	0.3209	0.015
Mof_C 	C 	0.5191	0.4229	0.4136	-0.084
Mof_H 	H 	0.4939	0.4527	0.3657	0.055
Mof_C 	C 	0.5759	0.4358	0.5073	-0.033
Mof_H 	H 	0.5913	0.4744	0.5239	0.038
Mof_C 	C 	0.6128	0.3907	0.5811	-0.003
Mof_C 	C 	0.6749	0.3987	0.6853	-0.039
Mof_H 	H 	0.6935	0.4361	0.707	0.041
Mof_C 	C 	0.7058	0.3542	0.7502	-0.079
Mof_H 	H 	0.7448	0.3612	0.8171	0.073
Mof_C 	C 	0.6811	0.2956	0.7207	0.031
Mof_C 	C 	0.7111	0.2457	0.7835	-0.052
Mof_H 	H 	0.7504	0.2493	0.8515	0.058
Mof_C 	C 	0.6835	0.1932	0.746	-0.069
Mof_H 	H 	0.7042	0.1603	0.7878	0.052
Mof_C 	C 	0.6247	0.1866	0.6458	0.04
Mof_H 	H 	0.6071	0.1493	0.6215	0.017
Mof_C 	C 	0.6217	0.2864	0.6195	0.01
Mof_C 	C 	0.5878	0.3341	0.5495	0.028
Mof_C 	C 	0.3513	0.068	0.143	0.047
Mof_H 	H 	0.3271	0.1041	0.1259	0.02
Mof_C 	C 	0.3082	0.0168	0.1105	-0.077
Mof_H 	H 	0.2559	0.0192	0.0725	0.054
Mof_C 	C 	0.3421	0.9641	0.1339	-0.045
Mof_H 	H 	0.3134	0.9303	0.111	0.048
Mof_C 	C 	0.4198	0.9604	0.1922	0.018
Mof_C 	C 	0.4621	0.907	0.2221	-0.056
Mof_H 	H 	0.4366	0.8715	0.2025	0.055
Mof_C 	C 	0.4601	0.0127	0.2214	0.022
Mof_C 	C 	0.432	0.1267	0.4474	0.382
Mof_C 	C 	0.4342	0.0615	0.454	-0.235
Mof_H 	H 	0.3884	0.0413	0.4307	0.121
Mof_C 	C 	0.4981	0.0312	0.4912	0.028
Mof_H 	H 	0.5435	0.0514	0.507	0.031
Mof_C 	C 	0.3945	0.2316	0.2137	0.452
Mof_C 	C 	0.3256	0.2599	0.1333	-0.278
Mof_H 	H 	0.3109	0.2959	0.1507	0.138
Mof_C 	C 	0.2843	0.2367	0.0388	0.051
Mof_H 	H 	0.2999	0.2012	0.0206	0.024
Mof_Cu	Cu	0.00246	0.73571	0.44221	0.9
Mof_N 	N 	0.0308	0.82121	0.4538	-0.232
Mof_N 	N 	0.0925	0.7323	0.5833	-0.207
Mof_N 	N 	0.9256	0.56615	0.1974	-0.206
Mof_O 	O 	0.9871	0.6516	0.4341	-0.448
Mof_O 	O 	0.8784	0.65189	0.459	-0.312
Mof_O 	O 	0.919	0.75225	0.3061	-0.448
Mof_O 	O 	0.921	0.68919	0.18	-0.467
Mof_C 	C 	0.9971	0.8645	0.3871	0.122
Mof_H 	H 	0.9579	0.856	0.3209	-0.007
Mof_C 	C 	0.0191	0.9229	0.4136	-0.182
Mof_H 	H 	0.9939	0.9527	0.3657	0.099
Mof_C 	C 	0.0759	0.9358	0.5073	0.028
Mof_H 	H 	0.0913	0.9744	0.5239	0.014
Mof_C 	C 	0.1128	0.8907	0.5811	-0.036
Mof_C 	C 	0.1749	0.8987	0.6853	-0.016
Mof_H 	H 	0.1935	0.9361	0.707	0.033
Mof_C 	C 	0.2058	0.8542	0.7502	-0.096
Mof_H 	H 	0.2448	0.8612	0.8171	0.078
Mof_C 	C 	0.1811	0.7956	0.7207	0.041
Mof_C 	C 	0.2111	0.7457	0.7835	-0.06
Mof_H 	H 	0.2504	0.7493	0.8515	0.06
Mof_C 	C 	0.1835	0.6932	0.746	-0.064
Mof_H 	H 	0.2042	0.6603	0.7878	0.049
Mof_C 	C 	0.1247	0.6866	0.6458	0.035
Mof_H 	H 	0.1071	0.6493	0.6215	0.017
Mof_C 	C 	0.1217	0.7864	0.6195	0.001
Mof_C 	C 	0.0878	0.8341	0.5495	0.043
Mof_C 	C 	0.8513	0.568	0.143	0.053
Mof_H 	H 	0.8271	0.6041	0.1259	0.017
Mof_C 	C 	0.8082	0.5168	0.1105	-0.09
Mof_H 	H 	0.7559	0.5192	0.0725	0.058
Mof_C 	C 	0.8421	0.4641	0.1339	-0.026
Mof_H 	H 	0.8134	0.4303	0.111	0.042
Mof_C 	C 	0.9198	0.4604	0.1922	-0.01
Mof_C 	C 	0.9621	0.407	0.2221	-0.008
Mof_H 	H 	0.9366	0.3715	0.2025	0.041
Mof_C 	C 	0.9601	0.5127	0.2214	0.05
Mof_C 	C 	0.932	0.6267	0.4474	0.405
Mof_C 	C 	0.9342	0.5615	0.454	-0.298
Mof_H 	H 	0.8884	0.5413	0.4307	0.143
Mof_C 	C 	0.9981	0.5312	0.4912	0.141
Mof_H 	H 	0.0435	0.5514	0.507	-0.015
Mof_C 	C 	0.8945	0.7316	0.2137	0.45
Mof_C 	C 	0.8256	0.7599	0.1333	-0.274
Mof_H 	H 	0.8109	0.7959	0.1507	0.137
Mof_C 	C 	0.7843	0.7367	0.0388	0.045
Mof_H 	H 	0.7999	0.7012	0.0206	0.025
Mof_Cu	Cu	0.49754	0.23571	0.05779	0.906
Mof_N 	N 	0.4692	0.32121	0.0462	-0.207
Mof_N 	N 	0.4075	0.2323	0.9167	-0.209
Mof_N 	N 	0.5744	0.06615	0.3026	-0.203
Mof_O 	O 	0.5129	0.1516	0.0659	-0.452
Mof_O 	O 	0.6216	0.15189	0.041	-0.308
Mof_O 	O 	0.581	0.25225	0.1939	-0.454
Mof_O 	O 	0.579	0.18919	0.32	-0.472
Mof_C 	C 	0.5029	0.3645	0.1129	0.045
Mof_H 	H 	0.5421	0.356	0.1791	0.017
Mof_C 	C 	0.4809	0.4229	0.0864	-0.076
Mof_H 	H 	0.5061	0.4527	0.1343	0.053
Mof_C 	C 	0.4241	0.4358	0.9927	-0.042
Mof_H 	H 	0.4087	0.4744	0.9761	0.04
Mof_C 	C 	0.3872	0.3907	0.9189	0.002
Mof_C 	C 	0.3251	0.3987	0.8147	-0.043
Mof_H 	H 	0.3065	0.4361	0.793	0.043
Mof_C 	C 	0.2942	0.3542	0.7498	-0.076
Mof_H 	H 	0.2552	0.3612	0.6829	0.071
Mof_C 	C 	0.3189	0.2956	0.7793	0.028
Mof_C 	C 	0.2889	0.2457	0.7165	-0.05
Mof_H 	H 	0.2496	0.2493	0.6485	0.056
Mof_C 	C 	0.3165	0.1932	0.754	-0.071
Mof_H 	H 	0.2958	0.1603	0.7122	0.052
Mof_C 	C 	0.3753	0.1866	0.8542	0.041
Mof_H 	H 	0.3929	0.1493	0.8785	0.016
Mof_C 	C 	0.3783	0.2864	0.8805	0.012
Mof_C 	C 	0.4122	0.3341	0.9505	0.024
Mof_C 	C 	0.6487	0.068	0.357	0.046
Mof_H 	H 	0.6729	0.1041	0.3741	0.02
Mof_C 	C 	0.6918	0.0168	0.3895	-0.077
Mof_H 	H 	0.7441	0.0192	0.4275	0.054
Mof_C 	C 	0.6579	0.9641	0.3661	-0.045
Mof_H 	H 	0.6866	0.9303	0.389	0.049
Mof_C 	C 	0.5802	0.9604	0.3078	0.018
Mof_C 	C 	0.5379	0.907	0.2779	-0.056
Mof_H 	H 	0.5634	0.8715	0.2975	0.055
Mof_C 	C 	0.5399	0.0127	0.2786	0.022
Mof_C 	C 	0.568	0.1267	0.0526	0.385
Mof_C 	C 	0.5658	0.0615	0.046	-0.244
Mof_H 	H 	0.6116	0.0413	0.0693	0.124
Mof_C 	C 	0.5019	0.0312	0.0088	0.044
Mof_H 	H 	0.4565	0.0514	0.993	0.024
Mof_C 	C 	0.6055	0.2316	0.2863	0.451
Mof_C 	C 	0.6744	0.2599	0.3667	-0.274
Mof_H 	H 	0.6891	0.2959	0.3493	0.136
Mof_C 	C 	0.7157	0.2367	0.4612	0.044
Mof_H 	H 	0.7001	0.2012	0.4794	0.026
Mof_Cu	Cu	0.99754	0.73571	0.05779	0.912
Mof_N 	N 	0.9692	0.82121	0.0462	-0.19
Mof_N 	N 	0.9075	0.7323	0.9167	-0.209
Mof_N 	N 	0.0744	0.56615	0.3026	-0.199
Mof_O 	O 	0.0129	0.6516	0.0659	-0.454
Mof_O 	O 	0.1216	0.65189	0.041	-0.303
Mof_O 	O 	0.081	0.75225	0.1939	-0.459
Mof_O 	O 	0.079	0.68919	0.32	-0.475
Mof_C 	C 	0.0029	0.8645	0.1129	-0.016
Mof_H 	H 	0.0421	0.856	0.1791	0.035
Mof_C 	C 	0.9809	0.9229	0.0864	0.005
Mof_H 	H 	0.0061	0.9527	0.1343	0.017
Mof_C 	C 	0.9241	0.9358	0.9927	-0.089
Mof_H 	H 	0.9087	0.9744	0.9761	0.06
Mof_C 	C 	0.8872	0.8907	0.9189	0.028
Mof_C 	C 	0.8251	0.8987	0.8147	-0.06
Mof_H 	H 	0.8065	0.9361	0.793	0.049
Mof_C 	C 	0.7942	0.8542	0.7498	-0.062
Mof_H 	H 	0.7552	0.8612	0.6829	0.067
Mof_C 	C 	0.8189	0.7956	0.7793	0.021
Mof_C 	C 	0.7889	0.7457	0.7165	-0.043
Mof_H 	H 	0.7496	0.7493	0.6485	0.055
Mof_C 	C 	0.8165	0.6932	0.754	-0.075
Mof_H 	H 	0.7958	0.6603	0.7122	0.055
Mof_C 	C 	0.8753	0.6866	0.8542	0.045
Mof_H 	H 	0.8929	0.6493	0.8785	0.016
Mof_C 	C 	0.8783	0.7864	0.8805	0.019
Mof_C 	C 	0.9122	0.8341	0.9505	0.014
Mof_C 	C 	0.1487	0.568	0.357	0.039
Mof_H 	H 	0.1729	0.6041	0.3741	0.022
Mof_C 	C 	0.1918	0.5168	0.3895	-0.062
Mof_H 	H 	0.2441	0.5192	0.4275	0.049
Mof_C 	C 	0.1579	0.4641	0.3661	-0.065
Mof_H 	H 	0.1866	0.4303	0.389	0.055
Mof_C 	C 	0.0802	0.4604	0.3078	0.044
Mof_C 	C 	0.0379	0.407	0.2779	-0.103
Mof_H 	H 	0.0634	0.3715	0.2975	0.069
Mof_C 	C 	0.0399	0.5127	0.2786	-0.004
Mof_C 	C 	0.068	0.6267	0.0526	0.362
Mof_C 	C 	0.0658	0.5615	0.046	-0.183
Mof_H 	H 	0.1116	0.5413	0.0693	0.104
Mof_C 	C 	0.0019	0.5312	0.0088	-0.063
Mof_H 	H 	0.9565	0.5514	0.993	0.068
Mof_C 	C 	0.1055	0.7316	0.2863	0.451
Mof_C 	C 	0.1744	0.7599	0.3667	-0.275
Mof_H 	H 	0.1891	0.7959	0.3493	0.136
Mof_C 	C 	0.2157	0.7367	0.4612	0.044
Mof_H 	H 	0.2001	0.7012	0.4794	0.026
Mof_Cu	Cu	0.5	0.86772	0.75	0.917
Mof_Cu	Cu	-4.22051e-17	0.36772	0.75	0.911
Mof_Cu	Cu	0.5	0.13228	0.25	0.917
Mof_Cu	Cu	9.12967e-34	0.63228	0.25	0.912
_end
