# CIF file generated by openbabel 3.1.0, see https://openbabel.org
data_I
_chemical_name_common 'image0'
_cell_length_a 10.0945
_cell_length_b 14.7356
_cell_length_c 14.4964
_cell_angle_alpha 90
_cell_angle_beta 97.497
_cell_angle_gamma 90
_space_group_name_H-M_alt 'P 1'
_space_group_name_Hall 'P 1'
loop_
    _symmetry_equiv_pos_as_xyz
    x,y,z
loop_
    _atom_site_label
    _atom_site_type_symbol
    _atom_site_fract_x
    _atom_site_fract_y
    _atom_site_fract_z
    _atom_site_occupancy
    Zn1      Zn       0.95889    0.09878    0.89901    1.000
    Zn2      Zn       0.96696    0.26045    0.26471    1.000
    Zn3      Zn       0.51710    0.12896    0.43978    1.000
    P1       P        0.00150    0.10713    0.11762    1.000
    H1       H        0.13090    0.17010    0.10580    1.000
    P2       P        0.68568    0.27605    0.34078    1.000
    H2       H        0.64520    0.28410    0.25410    1.000
    P3       P        0.27081    0.23310    0.34178    1.000
    H3       H        0.27660    0.18820    0.26510    1.000
    P4       P        0.55703    0.07372    0.64370    1.000
    H4       H        0.68800    0.04030    0.69840    1.000
    O1       O        0.63630    0.35380    0.39490    1.000
    O2       O        0.05810    0.01970    0.15940    1.000
    O3       O        0.33150    0.32280    0.32350    1.000
    O4       O        0.91590    0.09350    0.02530    1.000
    O5       O        0.92360    0.15800    0.18440    1.000
    O6       O        0.48090    0.12270    0.71020    1.000
    O7       O        0.83530    0.27810    0.34760    1.000
    O8       O        0.12430    0.23850    0.35280    1.000
    O9       O        0.34270    0.18250    0.42370    1.000
    O10      O        0.47690    0.99280    0.60600    1.000
    O11      O        0.63590    0.18480    0.36410    1.000
    O12      O        0.59840    0.13350    0.56830    1.000
    Zn4      Zn       0.54111    0.59878    0.60099    1.000
    Zn5      Zn       0.53304    0.76045    0.23529    1.000
    Zn6      Zn       0.98290    0.62896    0.06022    1.000
    P5       P        0.49850    0.60713    0.38238    1.000
    H5       H        0.36910    0.67010    0.39420    1.000
    P6       P        0.81432    0.77605    0.15922    1.000
    H6       H        0.85480    0.78410    0.24590    1.000
    P7       P        0.22919    0.73310    0.15822    1.000
    H7       H        0.22340    0.68820    0.23490    1.000
    P8       P        0.94297    0.57372    0.85630    1.000
    H8       H        0.81200    0.54030    0.80160    1.000
    O13      O        0.86370    0.85380    0.10510    1.000
    O14      O        0.44190    0.51970    0.34060    1.000
    O15      O        0.16850    0.82280    0.17650    1.000
    O16      O        0.58410    0.59350    0.47470    1.000
    O17      O        0.57640    0.65800    0.31560    1.000
    O18      O        0.01910    0.62270    0.78980    1.000
    O19      O        0.66470    0.77810    0.15240    1.000
    O20      O        0.37570    0.73850    0.14720    1.000
    O21      O        0.15730    0.68250    0.07630    1.000
    O22      O        0.02310    0.49280    0.89400    1.000
    O23      O        0.86410    0.68480    0.13590    1.000
    O24      O        0.90160    0.63350    0.93170    1.000
    Zn7      Zn       0.04111    0.90122    0.10099    1.000
    Zn8      Zn       0.03304    0.73955    0.73529    1.000
    Zn9      Zn       0.48290    0.87104    0.56022    1.000
    P9       P        0.99850    0.89287    0.88238    1.000
    H9       H        0.86910    0.82990    0.89420    1.000
    P10      P        0.31432    0.72395    0.65922    1.000
    H10      H        0.35480    0.71590    0.74590    1.000
    P11      P        0.72919    0.76690    0.65822    1.000
    H11      H        0.72340    0.81180    0.73490    1.000
    P12      P        0.44297    0.92628    0.35630    1.000
    H12      H        0.31200    0.95970    0.30160    1.000
    O25      O        0.36370    0.64620    0.60510    1.000
    O26      O        0.94190    0.98030    0.84060    1.000
    O27      O        0.66850    0.67720    0.67650    1.000
    O28      O        0.08410    0.90650    0.97470    1.000
    O29      O        0.07640    0.84200    0.81560    1.000
    O30      O        0.51910    0.87730    0.28980    1.000
    O31      O        0.16470    0.72190    0.65240    1.000
    O32      O        0.87570    0.76150    0.64720    1.000
    O33      O        0.65730    0.81750    0.57630    1.000
    O34      O        0.52310    0.00720    0.39400    1.000
    O35      O        0.36410    0.81520    0.63590    1.000
    O36      O        0.40160    0.86650    0.43170    1.000
    Zn10     Zn       0.45889    0.40122    0.39901    1.000
    Zn11     Zn       0.46696    0.23955    0.76471    1.000
    Zn12     Zn       0.01710    0.37104    0.93978    1.000
    P13      P        0.50150    0.39287    0.61762    1.000
    H13      H        0.63090    0.32990    0.60580    1.000
    P14      P        0.18568    0.22395    0.84078    1.000
    H14      H        0.14520    0.21590    0.75410    1.000
    P15      P        0.77081    0.26690    0.84178    1.000
    H15      H        0.77660    0.31180    0.76510    1.000
    P16      P        0.05703    0.42628    0.14370    1.000
    H16      H        0.18800    0.45970    0.19840    1.000
    O37      O        0.13630    0.14620    0.89490    1.000
    O38      O        0.55810    0.48030    0.65940    1.000
    O39      O        0.83150    0.17720    0.82350    1.000
    O40      O        0.41590    0.40650    0.52530    1.000
    O41      O        0.42360    0.34200    0.68440    1.000
    O42      O        0.98090    0.37730    0.21020    1.000
    O43      O        0.33530    0.22190    0.84760    1.000
    O44      O        0.62430    0.26150    0.85280    1.000
    O45      O        0.84270    0.31750    0.92370    1.000
    O46      O        0.97690    0.50720    0.10600    1.000
    O47      O        0.13590    0.31520    0.86410    1.000
    O48      O        0.09840    0.36650    0.06830    1.000
