data_functionalizedCrystal
_audit_creation_method	'EQeq! by Chris Wilmer'
_symmetry_space_group_name_H-M	'P1'
_symmetry_Int_Tables_number	1
_symmetry_cell_setting	triclinic
loop_
_symmetry_equiv_pos_as_xyz
  x,y,z
_cell_length_a	19.2119
_cell_length_b	16.1935
_cell_length_c	14.0617
_cell_angle_alpha	90
_cell_angle_beta	130.113
_cell_angle_gamma	90
loop_
_atom_site_label
_atom_site_type_symbol
_atom_site_fract_x
_atom_site_fract_y
_atom_site_fract_z
_atom_site_charge
Mof_O 	O 	0.07099	0.39078	0.0562	-0.579
Mof_O 	O 	0.03863	0.35074	0.8791	-0.598
Mof_O 	O 	0.37458	0.05536	0.1968	-0.547
Mof_O 	O 	0.38196	0.06386	0.3615	-0.497
Mof_O 	O 	0.96237	0.53026	0.6127	-0.339
Mof_N 	N 	0.9035	0.5909	0.5794	-0.04
Mof_C 	C 	0.1411	0.2703	0.0574	-0.205
Mof_C 	C 	0.2034	0.2676	0.1919	0.056
Mof_C 	C 	0.2666	0.206	0.2521	0.102
Mof_C 	C 	0.272	0.144	0.1828	-0.105
Mof_C 	C 	0.2253	0.1597	0.0581	-0.046
Mof_C 	C 	0.1601	0.2214	0.9961	0.07
Mof_C 	C 	0.0774	0.3426	0.9915	0.497
Mof_C 	C 	0.3483	0.0822	0.2527	0.412
Mof_C 	C 	0.9308	0.6691	0.5986	0.063
Mof_H 	H 	0.99	0.6811	0.632	0.12
Mof_C 	C 	0.872	0.7325	0.5695	-0.08
Mof_H 	H 	0.8925	0.7868	0.5852	0.108
Mof_C 	C 	0.7829	0.7163	0.5172	0.052
Mof_C 	C 	0.7563	0.6337	0.4946	-0.087
Mof_H 	H 	0.6968	0.6199	0.4586	0.068
Mof_C 	C 	0.8174	0.5722	0.5253	0.048
Mof_H 	H 	0.7985	0.5173	0.5083	0.042
Mof_C 	C 	0.1694	0.2392	0.1709	-0.033
Mof_C 	C 	0.2318	0.1761	0.2304	-0.093
Mof_O 	O 	0.57099	0.89078	0.0562	-0.459
Mof_O 	O 	0.53863	0.85074	0.8791	-0.488
Mof_O 	O 	0.87458	0.55536	0.1968	-0.436
Mof_O 	O 	0.88196	0.56386	0.3615	-0.406
Mof_O 	O 	0.46237	0.03026	0.6127	-0.49
Mof_N 	N 	0.4035	0.0909	0.5794	-0.041
Mof_C 	C 	0.6411	0.7703	0.0574	-0.162
Mof_C 	C 	0.7034	0.7676	0.1919	0.079
Mof_C 	C 	0.7666	0.706	0.2521	0.08
Mof_C 	C 	0.772	0.644	0.1828	-0.09
Mof_C 	C 	0.7253	0.6597	0.0581	0.003
Mof_C 	C 	0.6601	0.7214	0.9961	0.092
Mof_C 	C 	0.5774	0.8426	0.9915	0.48
Mof_C 	C 	0.8483	0.5822	0.2527	0.424
Mof_C 	C 	0.4308	0.1691	0.5986	0.022
Mof_H 	H 	0.49	0.1811	0.632	0.047
Mof_C 	C 	0.372	0.2325	0.5695	-0.088
Mof_H 	H 	0.3925	0.2868	0.5852	0.063
Mof_C 	C 	0.2829	0.2163	0.5172	0.031
Mof_C 	C 	0.2563	0.1337	0.4946	-0.086
Mof_H 	H 	0.1968	0.1199	0.4586	0.029
Mof_C 	C 	0.3174	0.0722	0.5253	0.013
Mof_H 	H 	0.2985	0.0173	0.5083	0.004
Mof_C 	C 	0.6694	0.7392	0.1709	-0.016
Mof_C 	C 	0.7318	0.6761	0.2304	-0.038
Mof_O 	O 	0.92901	0.39078	0.4438	-0.389
Mof_O 	O 	0.96137	0.35074	0.6209	-0.398
Mof_O 	O 	0.62542	0.05536	0.3032	-0.545
Mof_O 	O 	0.61804	0.06386	0.1385	-0.504
Mof_O 	O 	0.03763	0.53026	0.8873	-0.515
Mof_N 	N 	0.0965	0.5909	0.9206	-0.068
Mof_C 	C 	0.8589	0.2703	0.4426	-0.102
Mof_C 	C 	0.7966	0.2676	0.3081	0.011
Mof_C 	C 	0.7334	0.206	0.2479	-0.053
Mof_C 	C 	0.728	0.144	0.3172	-0.123
Mof_C 	C 	0.7747	0.1597	0.4419	0.027
Mof_C 	C 	0.8399	0.2214	0.5039	0.065
Mof_C 	C 	0.9226	0.3426	0.5085	0.426
Mof_C 	C 	0.6517	0.0822	0.2473	0.432
Mof_C 	C 	0.0692	0.6691	0.9014	0.052
Mof_H 	H 	0.01	0.6811	0.868	-0.041
Mof_C 	C 	0.128	0.7325	0.9305	-0.177
Mof_H 	H 	0.1075	0.7868	0.9148	0.069
Mof_C 	C 	0.2171	0.7163	0.9828	0.149
Mof_C 	C 	0.2437	0.6337	0.0054	-0.206
Mof_H 	H 	0.3032	0.6199	0.0414	0.102
Mof_C 	C 	0.1826	0.5722	0.9747	0.095
Mof_H 	H 	0.2015	0.5173	0.9917	0.03
Mof_C 	C 	0.8306	0.2392	0.3291	0.047
Mof_C 	C 	0.7682	0.1761	0.2696	0.09
Mof_O 	O 	0.42901	0.89078	0.4438	-0.439
Mof_O 	O 	0.46137	0.85074	0.6209	-0.477
Mof_O 	O 	0.12542	0.55536	0.3032	-0.537
Mof_O 	O 	0.11804	0.56386	0.1385	-0.517
Mof_O 	O 	0.53763	0.03026	0.8873	-0.48
Mof_N 	N 	0.5965	0.0909	0.9206	-0.069
Mof_C 	C 	0.3589	0.7703	0.4426	-0.118
Mof_C 	C 	0.2966	0.7676	0.3081	-0.04
Mof_C 	C 	0.2334	0.706	0.2479	0.013
Mof_C 	C 	0.228	0.644	0.3172	-0.123
Mof_C 	C 	0.2747	0.6597	0.4419	0.032
Mof_C 	C 	0.3399	0.7214	0.5039	0.04
Mof_C 	C 	0.4226	0.8426	0.5085	0.432
Mof_C 	C 	0.1517	0.5822	0.2473	0.417
Mof_C 	C 	0.5692	0.1691	0.9014	0.084
Mof_H 	H 	0.51	0.1811	0.868	0.026
Mof_C 	C 	0.628	0.2325	0.9305	-0.176
Mof_H 	H 	0.6075	0.2868	0.9148	0.101
Mof_C 	C 	0.7171	0.2163	0.9828	0.181
Mof_C 	C 	0.7437	0.1337	0.0054	-0.241
Mof_H 	H 	0.8032	0.1199	0.0414	0.12
Mof_C 	C 	0.6826	0.0722	0.9747	0.125
Mof_H 	H 	0.7015	0.0173	0.9917	-0.009
Mof_C 	C 	0.3306	0.7392	0.3291	0.078
Mof_C 	C 	0.2682	0.6761	0.2696	0.011
Mof_O 	O 	0.92901	0.60922	0.9438	-0.365
Mof_O 	O 	0.96137	0.64926	0.1209	-0.381
Mof_O 	O 	0.62542	0.94464	0.8032	-0.436
Mof_O 	O 	0.61804	0.93614	0.6385	-0.426
Mof_O 	O 	0.03763	0.46974	0.3873	-0.522
Mof_N 	N 	0.0965	0.4091	0.4206	-0.045
Mof_C 	C 	0.8589	0.7297	0.9426	-0.053
Mof_C 	C 	0.7966	0.7324	0.8081	-0.045
Mof_C 	C 	0.7334	0.794	0.7479	-0.064
Mof_C 	C 	0.728	0.856	0.8172	-0.12
Mof_C 	C 	0.7747	0.8403	0.9419	0.098
Mof_C 	C 	0.8399	0.7786	0.0039	0.033
Mof_C 	C 	0.9226	0.6574	0.0085	0.384
Mof_C 	C 	0.6517	0.9178	0.7473	0.434
Mof_C 	C 	0.0692	0.3309	0.4014	-0.001
Mof_H 	H 	0.01	0.3189	0.368	-0.028
Mof_C 	C 	0.128	0.2675	0.4305	-0.102
Mof_H 	H 	0.1075	0.2132	0.4148	0.023
Mof_C 	C 	0.2171	0.2837	0.4828	0.028
Mof_C 	C 	0.2437	0.3663	0.5054	-0.082
Mof_H 	H 	0.3032	0.3801	0.5414	0.063
Mof_C 	C 	0.1826	0.4278	0.4747	0.012
Mof_H 	H 	0.2015	0.4827	0.4917	0.052
Mof_C 	C 	0.8306	0.7608	0.8291	0.099
Mof_C 	C 	0.7682	0.8239	0.7696	0.126
Mof_O 	O 	0.42901	0.10922	0.9438	-0.469
Mof_O 	O 	0.46137	0.14926	0.1209	-0.494
Mof_O 	O 	0.12542	0.44464	0.8032	-0.538
Mof_O 	O 	0.11804	0.43614	0.6385	-0.513
Mof_O 	O 	0.53763	0.96974	0.3873	-0.378
Mof_N 	N 	0.5965	0.9091	0.4206	-0.044
Mof_C 	C 	0.3589	0.2297	0.9426	-0.054
Mof_C 	C 	0.2966	0.2324	0.8081	-0.073
Mof_C 	C 	0.2334	0.294	0.7479	-0.033
Mof_C 	C 	0.228	0.356	0.8172	-0.144
Mof_C 	C 	0.2747	0.3403	0.9419	0.076
Mof_C 	C 	0.3399	0.2786	0.0039	-0.03
Mof_C 	C 	0.4226	0.1574	0.0085	0.364
Mof_C 	C 	0.1517	0.4178	0.7473	0.423
Mof_C 	C 	0.5692	0.8309	0.4014	0.039
Mof_H 	H 	0.51	0.8189	0.368	0.044
Mof_C 	C 	0.628	0.7675	0.4305	-0.093
Mof_H 	H 	0.6075	0.7132	0.4148	0.067
Mof_C 	C 	0.7171	0.7837	0.4828	0.049
Mof_C 	C 	0.7437	0.8663	0.5054	-0.082
Mof_H 	H 	0.8032	0.8801	0.5414	0.103
Mof_C 	C 	0.6826	0.9278	0.4747	0.046
Mof_H 	H 	0.7015	0.9827	0.4917	0.092
Mof_C 	C 	0.3306	0.2608	0.8291	0.077
Mof_C 	C 	0.2682	0.3239	0.7696	0.07
Mof_O 	O 	0.07099	0.60922	0.5562	-0.548
Mof_O 	O 	0.03863	0.64926	0.3791	-0.581
Mof_O 	O 	0.37458	0.94464	0.6968	-0.439
Mof_O 	O 	0.38196	0.93614	0.8615	-0.424
Mof_O 	O 	0.96237	0.46974	0.1127	-0.344
Mof_N 	N 	0.9035	0.4091	0.0794	-0.014
Mof_C 	C 	0.1411	0.7297	0.5574	-0.134
Mof_C 	C 	0.2034	0.7324	0.6919	-0.004
Mof_C 	C 	0.2666	0.794	0.7521	0.093
Mof_C 	C 	0.272	0.856	0.6828	-0.108
Mof_C 	C 	0.2253	0.8403	0.5581	0.04
Mof_C 	C 	0.1601	0.7786	0.4961	0.015
Mof_C 	C 	0.0774	0.6574	0.4915	0.437
Mof_C 	C 	0.3483	0.9178	0.7527	0.416
Mof_C 	C 	0.9308	0.3309	0.0986	0.004
Mof_H 	H 	0.99	0.3189	0.132	0.135
Mof_C 	C 	0.872	0.2675	0.0695	0.007
Mof_H 	H 	0.8925	0.2132	0.0852	0.056
Mof_C 	C 	0.7829	0.2837	0.0172	-0.088
Mof_C 	C 	0.7563	0.3663	0.9946	0.051
Mof_H 	H 	0.6968	0.3801	0.9586	0.024
Mof_C 	C 	0.8174	0.4278	0.0253	-0.043
Mof_H 	H 	0.7985	0.4827	0.0083	0.068
Mof_C 	C 	0.1694	0.7608	0.6709	0.018
Mof_C 	C 	0.2318	0.8239	0.7304	-0.055
Mof_O 	O 	0.57099	0.10922	0.5562	-0.501
Mof_O 	O 	0.53863	0.14926	0.3791	-0.509
Mof_O 	O 	0.87458	0.44464	0.6968	-0.437
Mof_O 	O 	0.88196	0.43614	0.8615	-0.401
Mof_O 	O 	0.46237	0.96974	0.1127	-0.384
Mof_N 	N 	0.4035	0.9091	0.0794	-0.021
Mof_C 	C 	0.6411	0.2297	0.5574	-0.119
Mof_C 	C 	0.7034	0.2324	0.6919	0.049
Mof_C 	C 	0.7666	0.294	0.7521	0.03
Mof_C 	C 	0.772	0.356	0.6828	-0.107
Mof_C 	C 	0.7253	0.3403	0.5581	0.035
Mof_C 	C 	0.6601	0.2786	0.4961	0.039
Mof_C 	C 	0.5774	0.1574	0.4915	0.433
Mof_C 	C 	0.8483	0.4178	0.7527	0.429
Mof_C 	C 	0.4308	0.8309	0.0986	-0.011
Mof_H 	H 	0.49	0.8189	0.132	0.062
Mof_C 	C 	0.372	0.7675	0.0695	-0.021
Mof_H 	H 	0.3925	0.7132	0.0852	0.036
Mof_C 	C 	0.2829	0.7837	0.0172	-0.075
Mof_C 	C 	0.2563	0.8663	0.9946	0.039
Mof_H 	H 	0.1968	0.8801	0.9586	0.021
Mof_C 	C 	0.3174	0.9278	0.0253	-0.043
Mof_H 	H 	0.2985	0.9827	0.0083	0.1
Mof_C 	C 	0.6694	0.2608	0.6709	-0.015
Mof_C 	C 	0.7318	0.3239	0.7304	0.022
Mof_Mg	Mg	6.79606e-17	0.43811	0.75	1.46
Mof_Mg	Mg	0.5	0.93811	0.75	1.485
Mof_Mg	Mg	1.69902e-17	0.56189	0.25	1.459
Mof_Mg	Mg	0.5	0.06189	0.25	1.472
Mof_Mg	Mg	-3.77257e-33	0.5	-0	1.455
Mof_Mg	Mg	0.5	0	-0	1.463
Mof_Mg	Mg	6.79606e-17	0.5	0.5	1.457
Mof_Mg	Mg	0.5	0	0.5	1.465
_end
