# CIF file generated by openbabel 3.1.0, see https://openbabel.org
data_I
_chemical_name_common 'OKIYIR02_charged'
_cell_length_a 15.8029
_cell_length_b 15.8029
_cell_length_c 21.845
_cell_angle_alpha 90
_cell_angle_beta 90
_cell_angle_gamma 90
_space_group_name_H-M_alt 'P 1'
_space_group_name_Hall 'P 1'
loop_
    _symmetry_equiv_pos_as_xyz
    x,y,z
loop_
    _atom_site_label
    _atom_site_type_symbol
    _atom_site_fract_x
    _atom_site_fract_y
    _atom_site_fract_z
    _atom_site_occupancy
    Cd1      Cd       0.05949    0.94051    0.25000    1.000
    Cd2      Cd       0.94051    0.05949    0.75000    1.000
    Cd3      Cd       0.55949    0.55949    0.50000    1.000
    Cd4      Cd       0.44051    0.44051    0.00000    1.000
    H1       H        0.74300    0.49460    0.57040    1.000
    H2       H        0.85320    0.40320    0.55810    1.000
    H3       H        0.76350    0.34590    0.39330    1.000
    H4       H        0.65770    0.44070    0.40890    1.000
    H5       H        0.96710    0.33640    0.53330    1.000
    H6       H        0.06680    0.23380    0.52250    1.000
    H7       H        0.04610    0.12090    0.45830    1.000
    H8       H        0.82510    0.22390    0.40520    1.000
    H9       H        0.80180    0.00150    0.20950    1.000
    H10      H        0.70580    0.90810    0.16500    1.000
    H11      H        0.65600    0.79380    0.21960    1.000
    H12      H        0.80300    0.86040    0.36070    1.000
    H13      H        0.58650    0.71390    0.28520    1.000
    H14      H        0.53580    0.61390    0.35140    1.000
    H15      H        0.73180    0.64020    0.45710    1.000
    H16      H        0.78940    0.73600    0.39370    1.000
    H17      H        0.74140    0.02630    0.38640    1.000
    H18      H        0.74270    0.10560    0.35290    1.000
    H19      H        0.25700    0.50540    0.07040    1.000
    H20      H        0.14680    0.59680    0.05810    1.000
    H21      H        0.23650    0.65410    0.89330    1.000
    H22      H        0.34230    0.55930    0.90890    1.000
    H23      H        0.03290    0.66360    0.03330    1.000
    H24      H        0.93320    0.76620    0.02250    1.000
    H25      H        0.95390    0.87910    0.95830    1.000
    H26      H        0.17490    0.77610    0.90520    1.000
    H27      H        0.19820    0.99850    0.70950    1.000
    H28      H        0.29420    0.09190    0.66500    1.000
    H29      H        0.34400    0.20620    0.71960    1.000
    H30      H        0.19700    0.13960    0.86070    1.000
    H31      H        0.41350    0.28610    0.78520    1.000
    H32      H        0.46420    0.38610    0.85140    1.000
    H33      H        0.26820    0.35980    0.95710    1.000
    H34      H        0.21060    0.26400    0.89370    1.000
    H35      H        0.25860    0.97370    0.88640    1.000
    H36      H        0.25730    0.89440    0.85290    1.000
    H37      H        0.00540    0.24300    0.82040    1.000
    H38      H        0.09680    0.35320    0.80810    1.000
    H39      H        0.15410    0.26350    0.64330    1.000
    H40      H        0.05930    0.15770    0.65890    1.000
    H41      H        0.16360    0.46710    0.78330    1.000
    H42      H        0.26620    0.56680    0.77250    1.000
    H43      H        0.37910    0.54610    0.70830    1.000
    H44      H        0.27610    0.32510    0.65520    1.000
    H45      H        0.49850    0.30180    0.45950    1.000
    H46      H        0.59190    0.20580    0.41500    1.000
    H47      H        0.70620    0.15600    0.46960    1.000
    H48      H        0.63960    0.30300    0.61070    1.000
    H49      H        0.78610    0.08650    0.53520    1.000
    H50      H        0.88610    0.03580    0.60140    1.000
    H51      H        0.85980    0.23180    0.70710    1.000
    H52      H        0.76400    0.28940    0.64370    1.000
    H53      H        0.47370    0.24140    0.63640    1.000
    H54      H        0.39440    0.24270    0.60290    1.000
    H55      H        0.99460    0.75700    0.32040    1.000
    H56      H        0.90320    0.64680    0.30810    1.000
    H57      H        0.84590    0.73650    0.14330    1.000
    H58      H        0.94070    0.84230    0.15890    1.000
    H59      H        0.83640    0.53290    0.28330    1.000
    H60      H        0.73380    0.43320    0.27250    1.000
    H61      H        0.62090    0.45390    0.20830    1.000
    H62      H        0.72390    0.67490    0.15520    1.000
    H63      H        0.50150    0.69820    0.95950    1.000
    H64      H        0.40810    0.79420    0.91500    1.000
    H65      H        0.29380    0.84400    0.96960    1.000
    H66      H        0.36040    0.69700    0.11070    1.000
    H67      H        0.21390    0.91350    0.03520    1.000
    H68      H        0.11390    0.96420    0.10140    1.000
    H69      H        0.14020    0.76820    0.20710    1.000
    H70      H        0.23600    0.71060    0.14370    1.000
    H71      H        0.52630    0.75860    0.13640    1.000
    H72      H        0.60560    0.75730    0.10290    1.000
    H73      H        0.75700    0.99460    0.67960    1.000
    H74      H        0.64680    0.90320    0.69190    1.000
    H75      H        0.73650    0.84590    0.85670    1.000
    H76      H        0.84230    0.94070    0.84110    1.000
    H77      H        0.53290    0.83640    0.71670    1.000
    H78      H        0.43320    0.73380    0.72750    1.000
    H79      H        0.45390    0.62090    0.79170    1.000
    H80      H        0.67490    0.72390    0.84480    1.000
    H81      H        0.69820    0.50150    0.04050    1.000
    H82      H        0.79420    0.40810    0.08500    1.000
    H83      H        0.84400    0.29380    0.03040    1.000
    H84      H        0.69700    0.36040    0.88930    1.000
    H85      H        0.91350    0.21390    0.96480    1.000
    H86      H        0.96420    0.11390    0.89860    1.000
    H87      H        0.76820    0.14020    0.79290    1.000
    H88      H        0.71060    0.23600    0.85630    1.000
    H89      H        0.75860    0.52630    0.86360    1.000
    H90      H        0.75730    0.60560    0.89710    1.000
    H91      H        0.24300    0.00540    0.17960    1.000
    H92      H        0.35320    0.09680    0.19190    1.000
    H93      H        0.26350    0.15410    0.35670    1.000
    H94      H        0.15770    0.05930    0.34110    1.000
    H95      H        0.46710    0.16360    0.21670    1.000
    H96      H        0.56680    0.26620    0.22750    1.000
    H97      H        0.54610    0.37910    0.29170    1.000
    H98      H        0.32510    0.27610    0.34480    1.000
    H99      H        0.30180    0.49850    0.54050    1.000
    H100     H        0.20580    0.59190    0.58500    1.000
    H101     H        0.15600    0.70620    0.53040    1.000
    H102     H        0.30300    0.63960    0.38930    1.000
    H103     H        0.08650    0.78610    0.46480    1.000
    H104     H        0.03580    0.88610    0.39860    1.000
    H105     H        0.23180    0.85980    0.29290    1.000
    H106     H        0.28940    0.76400    0.35630    1.000
    H107     H        0.24140    0.47370    0.36360    1.000
    H108     H        0.24270    0.39440    0.39710    1.000
    H109     H        0.49460    0.74300    0.42960    1.000
    H110     H        0.40320    0.85320    0.44190    1.000
    H111     H        0.34590    0.76350    0.60670    1.000
    H112     H        0.44070    0.65770    0.59110    1.000
    H113     H        0.33640    0.96710    0.46670    1.000
    H114     H        0.23380    0.06680    0.47750    1.000
    H115     H        0.12090    0.04610    0.54170    1.000
    H116     H        0.22390    0.82510    0.59480    1.000
    H117     H        0.00150    0.80180    0.79050    1.000
    H118     H        0.90810    0.70580    0.83500    1.000
    H119     H        0.79380    0.65600    0.78040    1.000
    H120     H        0.86040    0.80300    0.63930    1.000
    H121     H        0.71390    0.58650    0.71480    1.000
    H122     H        0.61390    0.53580    0.64860    1.000
    H123     H        0.64020    0.73180    0.54290    1.000
    H124     H        0.73600    0.78940    0.60630    1.000
    H125     H        0.02630    0.74140    0.61360    1.000
    H126     H        0.10560    0.74270    0.64710    1.000
    H127     H        0.50540    0.25700    0.92960    1.000
    H128     H        0.59680    0.14680    0.94190    1.000
    H129     H        0.65410    0.23650    0.10670    1.000
    H130     H        0.55930    0.34230    0.09110    1.000
    H131     H        0.66360    0.03290    0.96670    1.000
    H132     H        0.76620    0.93320    0.97750    1.000
    H133     H        0.87910    0.95390    0.04170    1.000
    H134     H        0.77610    0.17490    0.09480    1.000
    H135     H        0.99850    0.19820    0.29050    1.000
    H136     H        0.09190    0.29420    0.33500    1.000
    H137     H        0.20620    0.34400    0.28040    1.000
    H138     H        0.13960    0.19700    0.13930    1.000
    H139     H        0.28610    0.41350    0.21480    1.000
    H140     H        0.38610    0.46420    0.14860    1.000
    H141     H        0.35980    0.26820    0.04290    1.000
    H142     H        0.26400    0.21060    0.10630    1.000
    H143     H        0.97370    0.25860    0.11360    1.000
    H144     H        0.89440    0.25730    0.14710    1.000
    C1       C        0.74690    0.46400    0.53420    1.000
    C2       C        0.81300    0.40790    0.52730    1.000
    C3       C        0.82050    0.35900    0.47610    1.000
    C4       C        0.76030    0.37470    0.43040    1.000
    C5       C        0.69690    0.43220    0.44000    1.000
    C6       C        0.88550    0.29280    0.46930    1.000
    C7       C        0.95850    0.29310    0.50510    1.000
    C8       C        0.01750    0.23080    0.49940    1.000
    C9       C        0.00600    0.16390    0.46050    1.000
    C10      C        0.93290    0.16090    0.42390    1.000
    C11      C        0.87370    0.22560    0.42920    1.000
    C12      C        0.92470    0.09130    0.38090    1.000
    C13      C        0.87380    0.99520    0.31960    1.000
    C14      C        0.81240    0.93800    0.28960    1.000
    C15      C        0.78300    0.95430    0.23090    1.000
    C16      C        0.72480    0.89880    0.20470    1.000
    C17      C        0.69530    0.83010    0.23740    1.000
    C18      C        0.72340    0.81460    0.29650    1.000
    C19      C        0.78290    0.87010    0.32130    1.000
    C20      C        0.69280    0.74230    0.33410    1.000
    C21      C        0.61640    0.70100    0.32070    1.000
    C22      C        0.58630    0.64110    0.36090    1.000
    C23      C        0.70140    0.65610    0.42250    1.000
    C24      C        0.73590    0.71440    0.38500    1.000
    C25      C        0.25310    0.53600    0.03420    1.000
    C26      C        0.18700    0.59210    0.02730    1.000
    C27      C        0.17950    0.64100    0.97610    1.000
    C28      C        0.23970    0.62530    0.93040    1.000
    C29      C        0.30310    0.56780    0.94000    1.000
    C30      C        0.11450    0.70720    0.96930    1.000
    C31      C        0.04150    0.70690    0.00510    1.000
    C32      C        0.98250    0.76920    0.99940    1.000
    C33      C        0.99400    0.83610    0.96050    1.000
    C34      C        0.06710    0.83910    0.92390    1.000
    C35      C        0.12630    0.77440    0.92920    1.000
    C36      C        0.07530    0.90870    0.88090    1.000
    C37      C        0.12620    0.00480    0.81960    1.000
    C38      C        0.18760    0.06200    0.78960    1.000
    C39      C        0.21700    0.04570    0.73090    1.000
    C40      C        0.27520    0.10120    0.70470    1.000
    C41      C        0.30470    0.16990    0.73740    1.000
    C42      C        0.27660    0.18540    0.79650    1.000
    C43      C        0.21710    0.12990    0.82130    1.000
    C44      C        0.30720    0.25770    0.83410    1.000
    C45      C        0.38360    0.29900    0.82070    1.000
    C46      C        0.41370    0.35890    0.86090    1.000
    C47      C        0.29860    0.34390    0.92250    1.000
    C48      C        0.26410    0.28560    0.88500    1.000
    C49      C        0.03600    0.24690    0.78420    1.000
    C50      C        0.09210    0.31300    0.77730    1.000
    C51      C        0.14100    0.32050    0.72610    1.000
    C52      C        0.12530    0.26030    0.68040    1.000
    C53      C        0.06780    0.19690    0.69000    1.000
    C54      C        0.20720    0.38550    0.71930    1.000
    C55      C        0.20690    0.45850    0.75510    1.000
    C56      C        0.26920    0.51750    0.74940    1.000
    C57      C        0.33610    0.50600    0.71050    1.000
    C58      C        0.33910    0.43290    0.67390    1.000
    C59      C        0.27440    0.37370    0.67920    1.000
    C60      C        0.40870    0.42470    0.63090    1.000
    C61      C        0.50480    0.37380    0.56960    1.000
    C62      C        0.56200    0.31240    0.53960    1.000
    C63      C        0.54570    0.28300    0.48090    1.000
    C64      C        0.60120    0.22480    0.45470    1.000
    C65      C        0.66990    0.19530    0.48740    1.000
    C66      C        0.68540    0.22340    0.54650    1.000
    C67      C        0.62990    0.28290    0.57130    1.000
    C68      C        0.75770    0.19280    0.58410    1.000
    C69      C        0.79900    0.11640    0.57070    1.000
    C70      C        0.85890    0.08630    0.61090    1.000
    C71      C        0.84390    0.20140    0.67250    1.000
    C72      C        0.78560    0.23590    0.63500    1.000
    C73      C        0.96400    0.75310    0.28420    1.000
    C74      C        0.90790    0.68700    0.27730    1.000
    C75      C        0.85900    0.67950    0.22610    1.000
    C76      C        0.87470    0.73970    0.18040    1.000
    C77      C        0.93220    0.80310    0.19000    1.000
    C78      C        0.79280    0.61450    0.21930    1.000
    C79      C        0.79310    0.54150    0.25510    1.000
    C80      C        0.73080    0.48250    0.24940    1.000
    C81      C        0.66390    0.49400    0.21050    1.000
    C82      C        0.66090    0.56710    0.17390    1.000
    C83      C        0.72560    0.62630    0.17920    1.000
    C84      C        0.59130    0.57530    0.13090    1.000
    C85      C        0.49520    0.62620    0.06960    1.000
    C86      C        0.43800    0.68760    0.03960    1.000
    C87      C        0.45430    0.71700    0.98090    1.000
    C88      C        0.39880    0.77520    0.95470    1.000
    C89      C        0.33010    0.80470    0.98740    1.000
    C90      C        0.31460    0.77660    0.04650    1.000
    C91      C        0.37010    0.71710    0.07130    1.000
    C92      C        0.24230    0.80720    0.08410    1.000
    C93      C        0.20100    0.88360    0.07070    1.000
    C94      C        0.14110    0.91370    0.11090    1.000
    C95      C        0.15610    0.79860    0.17250    1.000
    C96      C        0.21440    0.76410    0.13500    1.000
    C97      C        0.75310    0.96400    0.71580    1.000
    C98      C        0.68700    0.90790    0.72270    1.000
    C99      C        0.67950    0.85900    0.77390    1.000
    C100     C        0.73970    0.87470    0.81960    1.000
    C101     C        0.80310    0.93220    0.81000    1.000
    C102     C        0.61450    0.79280    0.78070    1.000
    C103     C        0.54150    0.79310    0.74490    1.000
    C104     C        0.48250    0.73080    0.75060    1.000
    C105     C        0.49400    0.66390    0.78950    1.000
    C106     C        0.56710    0.66090    0.82610    1.000
    C107     C        0.62630    0.72560    0.82080    1.000
    C108     C        0.57530    0.59130    0.86910    1.000
    C109     C        0.62620    0.49520    0.93040    1.000
    C110     C        0.68760    0.43800    0.96040    1.000
    C111     C        0.71700    0.45430    0.01910    1.000
    C112     C        0.77520    0.39880    0.04530    1.000
    C113     C        0.80470    0.33010    0.01260    1.000
    C114     C        0.77660    0.31460    0.95350    1.000
    C115     C        0.71710    0.37010    0.92870    1.000
    C116     C        0.80720    0.24230    0.91590    1.000
    C117     C        0.88360    0.20100    0.92930    1.000
    C118     C        0.91370    0.14110    0.88910    1.000
    C119     C        0.79860    0.15610    0.82750    1.000
    C120     C        0.76410    0.21440    0.86500    1.000
    C121     C        0.24690    0.03600    0.21580    1.000
    C122     C        0.31300    0.09210    0.22270    1.000
    C123     C        0.32050    0.14100    0.27390    1.000
    C124     C        0.26030    0.12530    0.31960    1.000
    C125     C        0.19690    0.06780    0.31000    1.000
    C126     C        0.38550    0.20720    0.28070    1.000
    C127     C        0.45850    0.20690    0.24490    1.000
    C128     C        0.51750    0.26920    0.25060    1.000
    C129     C        0.50600    0.33610    0.28950    1.000
    C130     C        0.43290    0.33910    0.32610    1.000
    C131     C        0.37370    0.27440    0.32080    1.000
    C132     C        0.42470    0.40870    0.36910    1.000
    C133     C        0.37380    0.50480    0.43040    1.000
    C134     C        0.31240    0.56200    0.46040    1.000
    C135     C        0.28300    0.54570    0.51910    1.000
    C136     C        0.22480    0.60120    0.54530    1.000
    C137     C        0.19530    0.66990    0.51260    1.000
    C138     C        0.22340    0.68540    0.45350    1.000
    C139     C        0.28290    0.62990    0.42870    1.000
    C140     C        0.19280    0.75770    0.41590    1.000
    C141     C        0.11640    0.79900    0.42930    1.000
    C142     C        0.08630    0.85890    0.38910    1.000
    C143     C        0.20140    0.84390    0.32750    1.000
    C144     C        0.23590    0.78560    0.36500    1.000
    C145     C        0.46400    0.74690    0.46580    1.000
    C146     C        0.40790    0.81300    0.47270    1.000
    C147     C        0.35900    0.82050    0.52390    1.000
    C148     C        0.37470    0.76030    0.56960    1.000
    C149     C        0.43220    0.69690    0.56000    1.000
    C150     C        0.29280    0.88550    0.53070    1.000
    C151     C        0.29310    0.95850    0.49490    1.000
    C152     C        0.23080    0.01750    0.50060    1.000
    C153     C        0.16390    0.00600    0.53950    1.000
    C154     C        0.16090    0.93290    0.57610    1.000
    C155     C        0.22560    0.87370    0.57080    1.000
    C156     C        0.09130    0.92470    0.61910    1.000
    C157     C        0.99520    0.87380    0.68040    1.000
    C158     C        0.93800    0.81240    0.71040    1.000
    C159     C        0.95430    0.78300    0.76910    1.000
    C160     C        0.89880    0.72480    0.79530    1.000
    C161     C        0.83010    0.69530    0.76260    1.000
    C162     C        0.81460    0.72340    0.70350    1.000
    C163     C        0.87010    0.78290    0.67870    1.000
    C164     C        0.74230    0.69280    0.66590    1.000
    C165     C        0.70100    0.61640    0.67930    1.000
    C166     C        0.64110    0.58630    0.63910    1.000
    C167     C        0.65610    0.70140    0.57750    1.000
    C168     C        0.71440    0.73590    0.61500    1.000
    C169     C        0.53600    0.25310    0.96580    1.000
    C170     C        0.59210    0.18700    0.97270    1.000
    C171     C        0.64100    0.17950    0.02390    1.000
    C172     C        0.62530    0.23970    0.06960    1.000
    C173     C        0.56780    0.30310    0.06000    1.000
    C174     C        0.70720    0.11450    0.03070    1.000
    C175     C        0.70690    0.04150    0.99490    1.000
    C176     C        0.76920    0.98250    0.00060    1.000
    C177     C        0.83610    0.99400    0.03950    1.000
    C178     C        0.83910    0.06710    0.07610    1.000
    C179     C        0.77440    0.12630    0.07080    1.000
    C180     C        0.90870    0.07530    0.11910    1.000
    C181     C        0.00480    0.12620    0.18040    1.000
    C182     C        0.06200    0.18760    0.21040    1.000
    C183     C        0.04570    0.21700    0.26910    1.000
    C184     C        0.10120    0.27520    0.29530    1.000
    C185     C        0.16990    0.30470    0.26260    1.000
    C186     C        0.18540    0.27660    0.20350    1.000
    C187     C        0.12990    0.21710    0.17870    1.000
    C188     C        0.25770    0.30720    0.16590    1.000
    C189     C        0.29900    0.38360    0.17930    1.000
    C190     C        0.35890    0.41370    0.13910    1.000
    C191     C        0.34390    0.29860    0.07750    1.000
    C192     C        0.28560    0.26410    0.11500    1.000
    N1       N        0.68850    0.47620    0.49110    1.000
    N2       N        0.98830    0.05430    0.35449    1.000
    N3       N        0.95550    0.99330    0.31590    1.000
    N4       N        0.85100    0.05590    0.35990    1.000
    N5       N        0.76930    0.07440    0.38090    1.000
    N6       N        0.62560    0.61960    0.41305    1.000
    N7       N        0.31150    0.52380    0.99110    1.000
    N8       N        0.01170    0.94570    0.85449    1.000
    N9       N        0.04450    0.00670    0.81590    1.000
    N10      N        0.14900    0.94410    0.85990    1.000
    N11      N        0.23070    0.92560    0.88090    1.000
    N12      N        0.37440    0.38040    0.91305    1.000
    N13      N        0.02380    0.18850    0.74110    1.000
    N14      N        0.44570    0.48830    0.60449    1.000
    N15      N        0.50670    0.45550    0.56590    1.000
    N16      N        0.44410    0.35100    0.60990    1.000
    N17      N        0.42560    0.26930    0.63090    1.000
    N18      N        0.88040    0.12560    0.66305    1.000
    N19      N        0.97620    0.81150    0.24110    1.000
    N20      N        0.55430    0.51170    0.10449    1.000
    N21      N        0.49330    0.54450    0.06590    1.000
    N22      N        0.55590    0.64900    0.10990    1.000
    N23      N        0.57440    0.73070    0.13090    1.000
    N24      N        0.11960    0.87440    0.16305    1.000
    N25      N        0.81150    0.97620    0.75890    1.000
    N26      N        0.51170    0.55430    0.89551    1.000
    N27      N        0.54450    0.49330    0.93410    1.000
    N28      N        0.64900    0.55590    0.89010    1.000
    N29      N        0.73070    0.57440    0.86910    1.000
    N30      N        0.87440    0.11960    0.83695    1.000
    N31      N        0.18850    0.02380    0.25890    1.000
    N32      N        0.48830    0.44570    0.39551    1.000
    N33      N        0.45550    0.50670    0.43410    1.000
    N34      N        0.35100    0.44410    0.39010    1.000
    N35      N        0.26930    0.42560    0.36910    1.000
    N36      N        0.12560    0.88040    0.33695    1.000
    N37      N        0.47620    0.68850    0.50890    1.000
    N38      N        0.05430    0.98830    0.64551    1.000
    N39      N        0.99330    0.95550    0.68410    1.000
    N40      N        0.05590    0.85100    0.64010    1.000
    N41      N        0.07440    0.76930    0.61910    1.000
    N42      N        0.61960    0.62560    0.58695    1.000
    N43      N        0.52380    0.31150    0.00890    1.000
    N44      N        0.94570    0.01170    0.14551    1.000
    N45      N        0.00670    0.04450    0.18410    1.000
    N46      N        0.94410    0.14900    0.14010    1.000
    N47      N        0.92560    0.23070    0.11910    1.000
    N48      N        0.38040    0.37440    0.08695    1.000
    Cl1      Cl       0.62644    0.37356    0.75000    1.000
    O1       O        0.62960    0.44090    0.78910    1.000
    O2       O        0.67330    0.40620    0.69890    1.000
    O3       O        0.55910    0.37040    0.71090    1.000
    O4       O        0.59380    0.32670    0.80110    1.000
    Cl2      Cl       0.37356    0.62644    0.25000    1.000
    O5       O        0.37040    0.55910    0.28910    1.000
    O6       O        0.32670    0.59380    0.19890    1.000
    O7       O        0.44090    0.62960    0.21090    1.000
    O8       O        0.40620    0.67330    0.30110    1.000
    Cl3      Cl       0.12644    0.12644    0.00000    1.000
    O9       O        0.05910    0.12960    0.03910    1.000
    O10      O        0.09380    0.17330    0.94890    1.000
    O11      O        0.12960    0.05910    0.96090    1.000
    O12      O        0.17330    0.09380    0.05110    1.000
    Cl4      Cl       0.87356    0.87356    0.50000    1.000
    O13      O        0.94090    0.87040    0.53910    1.000
    O14      O        0.90620    0.82670    0.44890    1.000
    O15      O        0.87040    0.94090    0.46090    1.000
    O16      O        0.82670    0.90620    0.55110    1.000
    Cl5      Cl       0.72995    0.72995    0.00000    1.000
    O17      O        0.76370    0.76530    0.05290    1.000
    O18      O        0.77790    0.64500    0.99400    1.000
    O19      O        0.76530    0.76370    0.94710    1.000
    O20      O        0.64500    0.77790    0.00600    1.000
    Cl6      Cl       0.27005    0.27005    0.50000    1.000
    O21      O        0.23630    0.23470    0.55290    1.000
    O22      O        0.22210    0.35500    0.49400    1.000
    O23      O        0.23470    0.23630    0.44710    1.000
    O24      O        0.35500    0.22210    0.50600    1.000
    Cl7      Cl       0.77005    0.22995    0.25000    1.000
    O25      O        0.73470    0.26370    0.30290    1.000
    O26      O        0.85500    0.27790    0.24400    1.000
    O27      O        0.73630    0.26530    0.19710    1.000
    O28      O        0.72210    0.14500    0.25600    1.000
    Cl8      Cl       0.22995    0.77005    0.75000    1.000
    O29      O        0.26530    0.73630    0.80290    1.000
    O30      O        0.14500    0.72210    0.74400    1.000
    O31      O        0.26370    0.73470    0.69710    1.000
    O32      O        0.27790    0.85500    0.75600    1.000
