# CIF file generated by openbabel 3.1.0, see https://openbabel.org
data_I
_chemical_name_common 'image0'
_cell_length_a 7.8849
_cell_length_b 36.8328
_cell_length_c 26.7656
_cell_angle_alpha 90
_cell_angle_beta 90
_cell_angle_gamma 90
_space_group_name_H-M_alt 'P 1'
_space_group_name_Hall 'P 1'
loop_
    _symmetry_equiv_pos_as_xyz
    x,y,z
loop_
    _atom_site_label
    _atom_site_type_symbol
    _atom_site_fract_x
    _atom_site_fract_y
    _atom_site_fract_z
    _atom_site_occupancy
    Zn1      Zn       0.86761    0.20475    0.13361    1.000
    F1       F        0.86570    0.12807    0.98747    1.000
    F2       F        0.06910    0.14840    0.94362    1.000
    F3       F        0.86100    0.12251    0.90763    1.000
    F4       F        0.37790    0.33225    0.76384    1.000
    F5       F        0.58540    0.32216    0.71340    1.000
    F6       F        0.63360    0.33457    0.79030    1.000
    F7       F        0.89570    0.12190    0.24015    1.000
    F8       F        0.16150    0.11809    0.22430    1.000
    F9       F        0.03500    0.07635    0.26734    1.000
    O1       O        0.78990    0.21544    0.06640    1.000
    O2       O        0.00940    0.18668    0.03393    1.000
    O3       O        0.29520    0.28299    0.68615    1.000
    O4       O        0.44100    0.23839    0.65078    1.000
    O5       O        0.96990    0.15683    0.14667    1.000
    O6       O        0.71230    0.14195    0.12192    1.000
    C1       C        0.87140    0.20118    0.03092    1.000
    C2       C        0.78910    0.20499    0.98005    1.000
    C3       C        0.80880    0.18073    0.94015    1.000
    C4       C        0.74080    0.18875    0.89355    1.000
    H1       H        0.75540    0.17200    0.86690    1.000
    C5       C        0.65140    0.22086    0.88506    1.000
    C6       C        0.62880    0.24442    0.92540    1.000
    H2       H        0.56640    0.26620    0.92070    1.000
    C7       C        0.69470    0.23675    0.97180    1.000
    H3       H        0.67620    0.25320    0.99860    1.000
    C8       C        0.90110    0.14540    0.94540    1.000
    C9       C        0.58770    0.23012    0.83463    1.000
    C10      C        0.58260    0.26609    0.81932    1.000
    H4       H        0.61970    0.28450    0.84170    1.000
    C11      C        0.52490    0.27601    0.77221    1.000
    C12      C        0.47260    0.24934    0.73891    1.000
    C13      C        0.48080    0.21355    0.75350    1.000
    H5       H        0.44970    0.19510    0.73040    1.000
    C14      C        0.53300    0.20369    0.80085    1.000
    H6       H        0.53170    0.17890    0.81050    1.000
    C15      C        0.52910    0.31584    0.75958    1.000
    C16      C        0.40090    0.25726    0.68783    1.000
    C17      C        0.85890    0.13420    0.13620    1.000
    C18      C        0.90590    0.09406    0.13910    1.000
    C19      C        0.98150    0.07772    0.18130    1.000
    C20      C        0.01810    0.04087    0.18010    1.000
    H7       H        0.06930    0.02960    0.20820    1.000
    C21      C        0.98000    0.02014    0.13740    1.000
    C22      C        0.91850    0.03734    0.09650    1.000
    H8       H        0.90210    0.02400    0.06650    1.000
    C23      C        0.87960    0.07362    0.09760    1.000
    H9       H        0.83310    0.08470    0.06860    1.000
    C24      C        0.01600    0.09835    0.22800    1.000
    Zn2      Zn       0.86761    0.70475    0.63361    1.000
    F10      F        0.86570    0.62807    0.48747    1.000
    F11      F        0.06910    0.64840    0.44362    1.000
    F12      F        0.86100    0.62251    0.40763    1.000
    F13      F        0.37790    0.83225    0.26384    1.000
    F14      F        0.58540    0.82216    0.21340    1.000
    F15      F        0.63360    0.83457    0.29030    1.000
    F16      F        0.89570    0.62190    0.74015    1.000
    F17      F        0.16150    0.61809    0.72430    1.000
    F18      F        0.03500    0.57635    0.76734    1.000
    O7       O        0.78990    0.71544    0.56640    1.000
    O8       O        0.00940    0.68668    0.53393    1.000
    O9       O        0.29520    0.78299    0.18615    1.000
    O10      O        0.44100    0.73839    0.15078    1.000
    O11      O        0.96990    0.65683    0.64667    1.000
    O12      O        0.71230    0.64195    0.62192    1.000
    C25      C        0.87140    0.70118    0.53092    1.000
    C26      C        0.78910    0.70499    0.48005    1.000
    C27      C        0.80880    0.68073    0.44015    1.000
    C28      C        0.74080    0.68875    0.39355    1.000
    H10      H        0.75540    0.67200    0.36690    1.000
    C29      C        0.65140    0.72086    0.38506    1.000
    C30      C        0.62880    0.74442    0.42540    1.000
    H11      H        0.56640    0.76620    0.42070    1.000
    C31      C        0.69470    0.73675    0.47180    1.000
    H12      H        0.67620    0.75320    0.49860    1.000
    C32      C        0.90110    0.64540    0.44540    1.000
    C33      C        0.58770    0.73012    0.33463    1.000
    C34      C        0.58260    0.76609    0.31932    1.000
    H13      H        0.61970    0.78450    0.34170    1.000
    C35      C        0.52490    0.77601    0.27221    1.000
    C36      C        0.47260    0.74934    0.23891    1.000
    C37      C        0.48080    0.71355    0.25350    1.000
    H14      H        0.44970    0.69510    0.23040    1.000
    C38      C        0.53300    0.70369    0.30085    1.000
    H15      H        0.53170    0.67890    0.31050    1.000
    C39      C        0.52910    0.81584    0.25958    1.000
    C40      C        0.40090    0.75726    0.18783    1.000
    C41      C        0.85890    0.63420    0.63620    1.000
    C42      C        0.90590    0.59406    0.63910    1.000
    C43      C        0.98150    0.57772    0.68130    1.000
    C44      C        0.01810    0.54087    0.68010    1.000
    H16      H        0.06930    0.52960    0.70820    1.000
    C45      C        0.98000    0.52014    0.63740    1.000
    C46      C        0.91850    0.53734    0.59650    1.000
    H17      H        0.90210    0.52400    0.56650    1.000
    C47      C        0.87960    0.57362    0.59760    1.000
    H18      H        0.83310    0.58470    0.56860    1.000
    C48      C        0.01600    0.59835    0.72800    1.000
    Zn3      Zn       0.13239    0.79525    0.13361    1.000
    F19      F        0.13430    0.87193    0.98747    1.000
    F20      F        0.93090    0.85160    0.94362    1.000
    F21      F        0.13900    0.87749    0.90763    1.000
    F22      F        0.62210    0.66775    0.76384    1.000
    F23      F        0.41460    0.67784    0.71340    1.000
    F24      F        0.36640    0.66543    0.79030    1.000
    F25      F        0.10430    0.87810    0.24015    1.000
    F26      F        0.83850    0.88191    0.22430    1.000
    F27      F        0.96500    0.92365    0.26734    1.000
    O13      O        0.21010    0.78456    0.06640    1.000
    O14      O        0.99060    0.81332    0.03393    1.000
    O15      O        0.70480    0.71701    0.68615    1.000
    O16      O        0.55900    0.76161    0.65078    1.000
    O17      O        0.03010    0.84317    0.14667    1.000
    O18      O        0.28770    0.85805    0.12192    1.000
    C49      C        0.12860    0.79882    0.03092    1.000
    C50      C        0.21090    0.79501    0.98005    1.000
    C51      C        0.19120    0.81927    0.94015    1.000
    C52      C        0.25920    0.81125    0.89355    1.000
    H19      H        0.24460    0.82800    0.86690    1.000
    C53      C        0.34860    0.77914    0.88506    1.000
    C54      C        0.37120    0.75558    0.92540    1.000
    H20      H        0.43360    0.73380    0.92070    1.000
    C55      C        0.30530    0.76325    0.97180    1.000
    H21      H        0.32380    0.74680    0.99860    1.000
    C56      C        0.09890    0.85460    0.94540    1.000
    C57      C        0.41230    0.76988    0.83463    1.000
    C58      C        0.41740    0.73391    0.81932    1.000
    H22      H        0.38030    0.71550    0.84170    1.000
    C59      C        0.47510    0.72399    0.77221    1.000
    C60      C        0.52740    0.75066    0.73891    1.000
    C61      C        0.51920    0.78645    0.75350    1.000
    H23      H        0.55030    0.80490    0.73040    1.000
    C62      C        0.46700    0.79631    0.80085    1.000
    H24      H        0.46830    0.82110    0.81050    1.000
    C63      C        0.47090    0.68416    0.75958    1.000
    C64      C        0.59910    0.74274    0.68783    1.000
    C65      C        0.14110    0.86580    0.13620    1.000
    C66      C        0.09410    0.90594    0.13910    1.000
    C67      C        0.01850    0.92228    0.18130    1.000
    C68      C        0.98190    0.95913    0.18010    1.000
    H25      H        0.93070    0.97040    0.20820    1.000
    C69      C        0.02000    0.97986    0.13740    1.000
    C70      C        0.08150    0.96266    0.09650    1.000
    H26      H        0.09790    0.97600    0.06650    1.000
    C71      C        0.12040    0.92638    0.09760    1.000
    H27      H        0.16690    0.91530    0.06860    1.000
    C72      C        0.98400    0.90165    0.22800    1.000
    Zn4      Zn       0.13239    0.29525    0.63361    1.000
    F28      F        0.13430    0.37193    0.48747    1.000
    F29      F        0.93090    0.35160    0.44362    1.000
    F30      F        0.13900    0.37749    0.40763    1.000
    F31      F        0.62210    0.16775    0.26384    1.000
    F32      F        0.41460    0.17784    0.21340    1.000
    F33      F        0.36640    0.16543    0.29030    1.000
    F34      F        0.10430    0.37810    0.74015    1.000
    F35      F        0.83850    0.38191    0.72430    1.000
    F36      F        0.96500    0.42365    0.76734    1.000
    O19      O        0.21010    0.28456    0.56640    1.000
    O20      O        0.99060    0.31332    0.53393    1.000
    O21      O        0.70480    0.21701    0.18615    1.000
    O22      O        0.55900    0.26161    0.15078    1.000
    O23      O        0.03010    0.34317    0.64667    1.000
    O24      O        0.28770    0.35805    0.62192    1.000
    C73      C        0.12860    0.29882    0.53092    1.000
    C74      C        0.21090    0.29501    0.48005    1.000
    C75      C        0.19120    0.31927    0.44015    1.000
    C76      C        0.25920    0.31125    0.39355    1.000
    H28      H        0.24460    0.32800    0.36690    1.000
    C77      C        0.34860    0.27914    0.38506    1.000
    C78      C        0.37120    0.25558    0.42540    1.000
    H29      H        0.43360    0.23380    0.42070    1.000
    C79      C        0.30530    0.26325    0.47180    1.000
    H30      H        0.32380    0.24680    0.49860    1.000
    C80      C        0.09890    0.35460    0.44540    1.000
    C81      C        0.41230    0.26988    0.33463    1.000
    C82      C        0.41740    0.23391    0.31932    1.000
    H31      H        0.38030    0.21550    0.34170    1.000
    C83      C        0.47510    0.22399    0.27221    1.000
    C84      C        0.52740    0.25066    0.23891    1.000
    C85      C        0.51920    0.28645    0.25350    1.000
    H32      H        0.55030    0.30490    0.23040    1.000
    C86      C        0.46700    0.29631    0.30085    1.000
    H33      H        0.46830    0.32110    0.31050    1.000
    C87      C        0.47090    0.18416    0.25958    1.000
    C88      C        0.59910    0.24274    0.18783    1.000
    C89      C        0.14110    0.36580    0.63620    1.000
    C90      C        0.09410    0.40594    0.63910    1.000
    C91      C        0.01850    0.42228    0.68130    1.000
    C92      C        0.98190    0.45913    0.68010    1.000
    H34      H        0.93070    0.47040    0.70820    1.000
    C93      C        0.02000    0.47986    0.63740    1.000
    C94      C        0.08150    0.46266    0.59650    1.000
    H35      H        0.09790    0.47600    0.56650    1.000
    C95      C        0.12040    0.42638    0.59760    1.000
    H36      H        0.16690    0.41530    0.56860    1.000
    C96      C        0.98400    0.40165    0.72800    1.000
    Zn5      Zn       0.36761    0.29525    0.13361    1.000
    F37      F        0.36570    0.37193    0.98747    1.000
    F38      F        0.56910    0.35160    0.94362    1.000
    F39      F        0.36100    0.37749    0.90763    1.000
    F40      F        0.87790    0.16775    0.76384    1.000
    F41      F        0.08540    0.17784    0.71340    1.000
    F42      F        0.13360    0.16543    0.79030    1.000
    F43      F        0.39570    0.37810    0.24015    1.000
    F44      F        0.66150    0.38191    0.22430    1.000
    F45      F        0.53500    0.42365    0.26734    1.000
    O25      O        0.28990    0.28456    0.06640    1.000
    O26      O        0.50940    0.31332    0.03393    1.000
    O27      O        0.79520    0.21701    0.68615    1.000
    O28      O        0.94100    0.26161    0.65078    1.000
    O29      O        0.46990    0.34317    0.14667    1.000
    O30      O        0.21230    0.35805    0.12192    1.000
    C97      C        0.37140    0.29882    0.03092    1.000
    C98      C        0.28910    0.29501    0.98005    1.000
    C99      C        0.30880    0.31927    0.94015    1.000
    C100     C        0.24080    0.31125    0.89355    1.000
    H37      H        0.25540    0.32800    0.86690    1.000
    C101     C        0.15140    0.27914    0.88506    1.000
    C102     C        0.12880    0.25558    0.92540    1.000
    H38      H        0.06640    0.23380    0.92070    1.000
    C103     C        0.19470    0.26325    0.97180    1.000
    H39      H        0.17620    0.24680    0.99860    1.000
    C104     C        0.40110    0.35460    0.94540    1.000
    C105     C        0.08770    0.26988    0.83463    1.000
    C106     C        0.08260    0.23391    0.81932    1.000
    H40      H        0.11970    0.21550    0.84170    1.000
    C107     C        0.02490    0.22399    0.77221    1.000
    C108     C        0.97260    0.25066    0.73891    1.000
    C109     C        0.98080    0.28645    0.75350    1.000
    H41      H        0.94970    0.30490    0.73040    1.000
    C110     C        0.03300    0.29631    0.80085    1.000
    H42      H        0.03170    0.32110    0.81050    1.000
    C111     C        0.02910    0.18416    0.75958    1.000
    C112     C        0.90090    0.24274    0.68783    1.000
    C113     C        0.35890    0.36580    0.13620    1.000
    C114     C        0.40590    0.40594    0.13910    1.000
    C115     C        0.48150    0.42228    0.18130    1.000
    C116     C        0.51810    0.45913    0.18010    1.000
    H43      H        0.56930    0.47040    0.20820    1.000
    C117     C        0.48000    0.47986    0.13740    1.000
    C118     C        0.41850    0.46266    0.09650    1.000
    H44      H        0.40210    0.47600    0.06650    1.000
    C119     C        0.37960    0.42638    0.09760    1.000
    H45      H        0.33310    0.41530    0.06860    1.000
    C120     C        0.51600    0.40165    0.22800    1.000
    Zn6      Zn       0.36761    0.79525    0.63361    1.000
    F46      F        0.36570    0.87193    0.48747    1.000
    F47      F        0.56910    0.85160    0.44362    1.000
    F48      F        0.36100    0.87749    0.40763    1.000
    F49      F        0.87790    0.66775    0.26384    1.000
    F50      F        0.08540    0.67784    0.21340    1.000
    F51      F        0.13360    0.66543    0.29030    1.000
    F52      F        0.39570    0.87810    0.74015    1.000
    F53      F        0.66150    0.88191    0.72430    1.000
    F54      F        0.53500    0.92365    0.76734    1.000
    O31      O        0.28990    0.78456    0.56640    1.000
    O32      O        0.50940    0.81332    0.53393    1.000
    O33      O        0.79520    0.71701    0.18615    1.000
    O34      O        0.94100    0.76161    0.15078    1.000
    O35      O        0.46990    0.84317    0.64667    1.000
    O36      O        0.21230    0.85805    0.62192    1.000
    C121     C        0.37140    0.79882    0.53092    1.000
    C122     C        0.28910    0.79501    0.48005    1.000
    C123     C        0.30880    0.81927    0.44015    1.000
    C124     C        0.24080    0.81125    0.39355    1.000
    H46      H        0.25540    0.82800    0.36690    1.000
    C125     C        0.15140    0.77914    0.38506    1.000
    C126     C        0.12880    0.75558    0.42540    1.000
    H47      H        0.06640    0.73380    0.42070    1.000
    C127     C        0.19470    0.76325    0.47180    1.000
    H48      H        0.17620    0.74680    0.49860    1.000
    C128     C        0.40110    0.85460    0.44540    1.000
    C129     C        0.08770    0.76988    0.33463    1.000
    C130     C        0.08260    0.73391    0.31932    1.000
    H49      H        0.11970    0.71550    0.34170    1.000
    C131     C        0.02490    0.72399    0.27221    1.000
    C132     C        0.97260    0.75066    0.23891    1.000
    C133     C        0.98080    0.78645    0.25350    1.000
    H50      H        0.94970    0.80490    0.23040    1.000
    C134     C        0.03300    0.79631    0.30085    1.000
    H51      H        0.03170    0.82110    0.31050    1.000
    C135     C        0.02910    0.68416    0.25958    1.000
    C136     C        0.90090    0.74274    0.18783    1.000
    C137     C        0.35890    0.86580    0.63620    1.000
    C138     C        0.40590    0.90594    0.63910    1.000
    C139     C        0.48150    0.92228    0.68130    1.000
    C140     C        0.51810    0.95913    0.68010    1.000
    H52      H        0.56930    0.97040    0.70820    1.000
    C141     C        0.48000    0.97986    0.63740    1.000
    C142     C        0.41850    0.96266    0.59650    1.000
    H53      H        0.40210    0.97600    0.56650    1.000
    C143     C        0.37960    0.92638    0.59760    1.000
    H54      H        0.33310    0.91530    0.56860    1.000
    C144     C        0.51600    0.90165    0.72800    1.000
    Zn7      Zn       0.63239    0.70475    0.13361    1.000
    F55      F        0.63430    0.62807    0.98747    1.000
    F56      F        0.43090    0.64840    0.94362    1.000
    F57      F        0.63900    0.62251    0.90763    1.000
    F58      F        0.12210    0.83225    0.76384    1.000
    F59      F        0.91460    0.82216    0.71340    1.000
    F60      F        0.86640    0.83457    0.79030    1.000
    F61      F        0.60430    0.62190    0.24015    1.000
    F62      F        0.33850    0.61809    0.22430    1.000
    F63      F        0.46500    0.57635    0.26734    1.000
    O37      O        0.71010    0.71544    0.06640    1.000
    O38      O        0.49060    0.68668    0.03393    1.000
    O39      O        0.20480    0.78299    0.68615    1.000
    O40      O        0.05900    0.73839    0.65078    1.000
    O41      O        0.53010    0.65683    0.14667    1.000
    O42      O        0.78770    0.64195    0.12192    1.000
    C145     C        0.62860    0.70118    0.03092    1.000
    C146     C        0.71090    0.70499    0.98005    1.000
    C147     C        0.69120    0.68073    0.94015    1.000
    C148     C        0.75920    0.68875    0.89355    1.000
    H55      H        0.74460    0.67200    0.86690    1.000
    C149     C        0.84860    0.72086    0.88506    1.000
    C150     C        0.87120    0.74442    0.92540    1.000
    H56      H        0.93360    0.76620    0.92070    1.000
    C151     C        0.80530    0.73675    0.97180    1.000
    H57      H        0.82380    0.75320    0.99860    1.000
    C152     C        0.59890    0.64540    0.94540    1.000
    C153     C        0.91230    0.73012    0.83463    1.000
    C154     C        0.91740    0.76609    0.81932    1.000
    H58      H        0.88030    0.78450    0.84170    1.000
    C155     C        0.97510    0.77601    0.77221    1.000
    C156     C        0.02740    0.74934    0.73891    1.000
    C157     C        0.01920    0.71355    0.75350    1.000
    H59      H        0.05030    0.69510    0.73040    1.000
    C158     C        0.96700    0.70369    0.80085    1.000
    H60      H        0.96830    0.67890    0.81050    1.000
    C159     C        0.97090    0.81584    0.75958    1.000
    C160     C        0.09910    0.75726    0.68783    1.000
    C161     C        0.64110    0.63420    0.13620    1.000
    C162     C        0.59410    0.59406    0.13910    1.000
    C163     C        0.51850    0.57772    0.18130    1.000
    C164     C        0.48190    0.54087    0.18010    1.000
    H61      H        0.43070    0.52960    0.20820    1.000
    C165     C        0.52000    0.52014    0.13740    1.000
    C166     C        0.58150    0.53734    0.09650    1.000
    H62      H        0.59790    0.52400    0.06650    1.000
    C167     C        0.62040    0.57362    0.09760    1.000
    H63      H        0.66690    0.58470    0.06860    1.000
    C168     C        0.48400    0.59835    0.22800    1.000
    Zn8      Zn       0.63239    0.20475    0.63361    1.000
    F64      F        0.63430    0.12807    0.48747    1.000
    F65      F        0.43090    0.14840    0.44362    1.000
    F66      F        0.63900    0.12251    0.40763    1.000
    F67      F        0.12210    0.33225    0.26384    1.000
    F68      F        0.91460    0.32216    0.21340    1.000
    F69      F        0.86640    0.33457    0.29030    1.000
    F70      F        0.60430    0.12190    0.74015    1.000
    F71      F        0.33850    0.11809    0.72430    1.000
    F72      F        0.46500    0.07635    0.76734    1.000
    O43      O        0.71010    0.21544    0.56640    1.000
    O44      O        0.49060    0.18668    0.53393    1.000
    O45      O        0.20480    0.28299    0.18615    1.000
    O46      O        0.05900    0.23839    0.15078    1.000
    O47      O        0.53010    0.15683    0.64667    1.000
    O48      O        0.78770    0.14195    0.62192    1.000
    C169     C        0.62860    0.20118    0.53092    1.000
    C170     C        0.71090    0.20499    0.48005    1.000
    C171     C        0.69120    0.18073    0.44015    1.000
    C172     C        0.75920    0.18875    0.39355    1.000
    H64      H        0.74460    0.17200    0.36690    1.000
    C173     C        0.84860    0.22086    0.38506    1.000
    C174     C        0.87120    0.24442    0.42540    1.000
    H65      H        0.93360    0.26620    0.42070    1.000
    C175     C        0.80530    0.23675    0.47180    1.000
    H66      H        0.82380    0.25320    0.49860    1.000
    C176     C        0.59890    0.14540    0.44540    1.000
    C177     C        0.91230    0.23012    0.33463    1.000
    C178     C        0.91740    0.26609    0.31932    1.000
    H67      H        0.88030    0.28450    0.34170    1.000
    C179     C        0.97510    0.27601    0.27221    1.000
    C180     C        0.02740    0.24934    0.23891    1.000
    C181     C        0.01920    0.21355    0.25350    1.000
    H68      H        0.05030    0.19510    0.23040    1.000
    C182     C        0.96700    0.20369    0.30085    1.000
    H69      H        0.96830    0.17890    0.31050    1.000
    C183     C        0.97090    0.31584    0.25958    1.000
    C184     C        0.09910    0.25726    0.18783    1.000
    C185     C        0.64110    0.13420    0.63620    1.000
    C186     C        0.59410    0.09406    0.63910    1.000
    C187     C        0.51850    0.07772    0.68130    1.000
    C188     C        0.48190    0.04087    0.68010    1.000
    H70      H        0.43070    0.02960    0.70820    1.000
    C189     C        0.52000    0.02014    0.63740    1.000
    C190     C        0.58150    0.03734    0.59650    1.000
    H71      H        0.59790    0.02400    0.56650    1.000
    C191     C        0.62040    0.07362    0.59760    1.000
    H72      H        0.66690    0.08470    0.56860    1.000
    C192     C        0.48400    0.09835    0.72800    1.000
