data_functionalizedCrystal
_audit_creation_method	'EQeq! by Chris Wilmer'
_symmetry_space_group_name_H-M	'P1'
_symmetry_Int_Tables_number	1
_symmetry_cell_setting	triclinic
loop_
_symmetry_equiv_pos_as_xyz
  x,y,z
_cell_length_a	22.877
_cell_length_b	23.111
_cell_length_c	18.364
_cell_angle_alpha	90
_cell_angle_beta	105.399
_cell_angle_gamma	90
loop_
_atom_site_label
_atom_site_type_symbol
_atom_site_fract_x
_atom_site_fract_y
_atom_site_fract_z
_atom_site_charge
Mof_Cu	Cu	0.64907	0.22169	0.55791	0.93
Mof_Cu	Cu	0.72061	0.30401	0.46079	0.916
Mof_N 	N 	0.80909	0.37014	0.81423	-0.213
Mof_N 	N 	0.90687	0.37745	0.89286	-0.21
Mof_N 	N 	0.8451	0.45933	0.86592	-0.209
Mof_N 	N 	0.59607	0.22744	0.62796	-0.212
Mof_N 	N 	0.64209	0.31474	0.385	-0.227
Mof_O 	O 	0.75089	0.44995	0.78887	-0.247
Mof_O 	O 	0.94174	0.46511	0.94194	-0.234
Mof_O 	O 	0.87213	0.29255	0.83689	-0.252
Mof_O 	O 	0.71807	0.25569	0.6361	-0.433
Mof_O 	O 	0.68619	0.33369	0.56805	-0.388
Mof_O 	O 	0.07562	0.3011	0.98047	-0.413
Mof_O 	O 	0.11434	0.33985	0.89259	-0.341
Mof_O 	O 	0.81934	0.63457	0.90306	-0.407
Mof_O 	O 	0.74469	0.61597	0.95446	-0.431
Mof_O 	O 	0.80094	0.27594	0.51526	-0.632
Mof_H 	H 	0.8187	0.2987	0.5608	0.204
Mof_C 	C 	0.7989	0.4275	0.8212	0.288
Mof_C 	C 	0.90116	0.43571	0.9031	0.277
Mof_C 	C 	0.86319	0.34348	0.8471	0.289
Mof_C 	C 	0.76147	0.33643	0.761	0.155
Mof_H 	H 	0.7219	0.3489	0.7646	0.007
Mof_H 	H 	0.766	0.2957	0.774	0.015
Mof_C 	C 	0.76614	0.34507	0.6808	-0.456
Mof_H 	H 	0.7602	0.3857	0.6676	0.194
Mof_H 	H 	0.8065	0.3343	0.6782	0.186
Mof_C 	C 	0.72017	0.30976	0.6249	0.413
Mof_C 	C 	0.96574	0.35017	0.931	0.145
Mof_H 	H 	0.9591	0.31	0.9419	0.016
Mof_H 	H 	0.9832	0.3697	0.9785	0.016
Mof_C 	C 	0.00939	0.3533	0.8821	-0.437
Mof_H 	H 	0.0132	0.3933	0.868	0.181
Mof_H 	H 	0.9928	0.3315	0.8361	0.175
Mof_C 	C 	0.07176	0.32993	0.9208	0.447
Mof_C 	C 	0.83681	0.52215	0.8717	0.159
Mof_H 	H 	0.8157	0.5373	0.8225	0.011
Mof_H 	H 	0.8762	0.5407	0.8873	0.013
Mof_C 	C 	0.80093	0.53662	0.928	-0.466
Mof_H 	H 	0.8237	0.5247	0.9781	0.188
Mof_H 	H 	0.763	0.5154	0.915	0.197
Mof_C 	C 	0.78793	0.60102	0.928	0.478
Mof_C 	C 	0.5869	0.2748	0.6633	0.097
Mof_H 	H 	0.6069	0.3085	0.6563	0.002
Mof_C 	C 	0.5489	0.2765	0.7103	-0.144
Mof_H 	H 	0.543	0.3114	0.7326	0.086
Mof_C 	C 	0.5201	0.2289	0.7247	0.068
Mof_C 	C 	0.5278	0.1797	0.687	-0.136
Mof_H 	H 	0.5074	0.146	0.693	0.085
Mof_C 	C 	0.566	0.1798	0.64	0.087
Mof_H 	H 	0.5711	0.1457	0.6156	0.015
Mof_C 	C 	0.59196	0.3295	0.4039	0.088
Mof_H 	H 	0.5949	0.3394	0.4539	0.001
Mof_C 	C 	0.53567	0.3309	0.3526	-0.137
Mof_H 	H 	0.5016	0.3404	0.3686	0.086
Mof_C 	C 	0.52984	0.31834	0.2775	0.065
Mof_C 	C 	0.58189	0.3036	0.2591	-0.143
Mof_H 	H 	0.5804	0.2948	0.2092	0.1
Mof_C 	C 	0.63613	0.3016	0.3128	0.092
Mof_H 	H 	0.6705	0.2905	0.2983	0.005
Mof_Cu	Cu	0.14907	0.72169	0.55791	0.929
Mof_Cu	Cu	0.22061	0.80401	0.46079	0.915
Mof_N 	N 	0.30909	0.87014	0.81423	-0.214
Mof_N 	N 	0.40687	0.87745	0.89286	-0.211
Mof_N 	N 	0.3451	0.95933	0.86592	-0.21
Mof_N 	N 	0.09607	0.72744	0.62796	-0.213
Mof_N 	N 	0.14209	0.81474	0.385	-0.228
Mof_O 	O 	0.25089	0.94995	0.78887	-0.247
Mof_O 	O 	0.44174	0.96511	0.94194	-0.234
Mof_O 	O 	0.37213	0.79255	0.83689	-0.253
Mof_O 	O 	0.21807	0.75569	0.6361	-0.433
Mof_O 	O 	0.18619	0.83369	0.56805	-0.388
Mof_O 	O 	0.57562	0.8011	0.98047	-0.414
Mof_O 	O 	0.61434	0.83985	0.89259	-0.341
Mof_O 	O 	0.31934	0.13457	0.90306	-0.407
Mof_O 	O 	0.24469	0.11597	0.95446	-0.431
Mof_O 	O 	0.30094	0.77594	0.51526	-0.632
Mof_H 	H 	0.3187	0.7987	0.5608	0.204
Mof_C 	C 	0.2989	0.9275	0.8212	0.288
Mof_C 	C 	0.40116	0.93571	0.9031	0.277
Mof_C 	C 	0.36319	0.84348	0.8471	0.289
Mof_C 	C 	0.26147	0.83643	0.761	0.155
Mof_H 	H 	0.2219	0.8489	0.7646	0.007
Mof_H 	H 	0.266	0.7957	0.774	0.015
Mof_C 	C 	0.26614	0.84507	0.6808	-0.456
Mof_H 	H 	0.2602	0.8857	0.6676	0.194
Mof_H 	H 	0.3065	0.8343	0.6782	0.186
Mof_C 	C 	0.22017	0.80976	0.6249	0.413
Mof_C 	C 	0.46574	0.85017	0.931	0.147
Mof_H 	H 	0.4591	0.81	0.9419	0.016
Mof_H 	H 	0.4832	0.8697	0.9785	0.016
Mof_C 	C 	0.50939	0.8533	0.8821	-0.44
Mof_H 	H 	0.5132	0.8933	0.868	0.181
Mof_H 	H 	0.4928	0.8315	0.8361	0.176
Mof_C 	C 	0.57176	0.82993	0.9208	0.447
Mof_C 	C 	0.33681	0.02215	0.8717	0.158
Mof_H 	H 	0.3157	0.0373	0.8225	0.011
Mof_H 	H 	0.3762	0.0407	0.8873	0.013
Mof_C 	C 	0.30093	0.03662	0.928	-0.466
Mof_H 	H 	0.3237	0.0247	0.9781	0.188
Mof_H 	H 	0.263	0.0154	0.915	0.197
Mof_C 	C 	0.28793	0.10102	0.928	0.478
Mof_C 	C 	0.0869	0.7748	0.6633	0.098
Mof_H 	H 	0.1069	0.8085	0.6563	0.002
Mof_C 	C 	0.0489	0.7765	0.7103	-0.145
Mof_H 	H 	0.043	0.8114	0.7326	0.086
Mof_C 	C 	0.0201	0.7289	0.7247	0.07
Mof_C 	C 	0.0278	0.6797	0.687	-0.137
Mof_H 	H 	0.0074	0.646	0.693	0.085
Mof_C 	C 	0.066	0.6798	0.64	0.088
Mof_H 	H 	0.0711	0.6457	0.6156	0.015
Mof_C 	C 	0.09196	0.8295	0.4039	0.088
Mof_H 	H 	0.0949	0.8394	0.4539	0.001
Mof_C 	C 	0.03567	0.8309	0.3526	-0.137
Mof_H 	H 	0.0016	0.8404	0.3686	0.086
Mof_C 	C 	0.02984	0.81834	0.2775	0.064
Mof_C 	C 	0.08189	0.8036	0.2591	-0.142
Mof_H 	H 	0.0804	0.7948	0.2092	0.099
Mof_C 	C 	0.13613	0.8016	0.3128	0.091
Mof_H 	H 	0.1705	0.7905	0.2983	0.006
Mof_Cu	Cu	0.35093	0.22169	0.94209	0.928
Mof_Cu	Cu	0.27939	0.30401	0.03921	0.915
Mof_N 	N 	0.19091	0.37014	0.68577	-0.214
Mof_N 	N 	0.09313	0.37745	0.60714	-0.211
Mof_N 	N 	0.1549	0.45933	0.63408	-0.21
Mof_N 	N 	0.40393	0.22744	0.87204	-0.213
Mof_N 	N 	0.35791	0.31474	0.115	-0.228
Mof_O 	O 	0.24911	0.44995	0.71113	-0.248
Mof_O 	O 	0.05826	0.46511	0.55806	-0.235
Mof_O 	O 	0.12787	0.29255	0.66311	-0.253
Mof_O 	O 	0.28193	0.25569	0.8639	-0.433
Mof_O 	O 	0.31381	0.33369	0.93195	-0.388
Mof_O 	O 	0.92438	0.3011	0.51953	-0.414
Mof_O 	O 	0.88566	0.33985	0.60741	-0.341
Mof_O 	O 	0.18066	0.63457	0.59694	-0.407
Mof_O 	O 	0.25531	0.61597	0.54554	-0.431
Mof_O 	O 	0.19906	0.27594	0.98474	-0.632
Mof_H 	H 	0.1813	0.2987	0.9392	0.204
Mof_C 	C 	0.2011	0.4275	0.6788	0.288
Mof_C 	C 	0.09884	0.43571	0.5969	0.277
Mof_C 	C 	0.13681	0.34348	0.6529	0.289
Mof_C 	C 	0.23853	0.33643	0.739	0.155
Mof_H 	H 	0.2781	0.3489	0.7354	0.007
Mof_H 	H 	0.234	0.2957	0.726	0.015
Mof_C 	C 	0.23386	0.34507	0.8192	-0.456
Mof_H 	H 	0.2398	0.3857	0.8324	0.194
Mof_H 	H 	0.1935	0.3343	0.8218	0.187
Mof_C 	C 	0.27983	0.30976	0.8751	0.413
Mof_C 	C 	0.03426	0.35017	0.569	0.148
Mof_H 	H 	0.0409	0.31	0.5581	0.015
Mof_H 	H 	0.0168	0.3697	0.5215	0.015
Mof_C 	C 	0.99061	0.3533	0.6179	-0.442
Mof_H 	H 	0.9868	0.3933	0.632	0.182
Mof_H 	H 	0.0072	0.3315	0.6639	0.177
Mof_C 	C 	0.92824	0.32993	0.5792	0.448
Mof_C 	C 	0.16319	0.52215	0.6283	0.159
Mof_H 	H 	0.1843	0.5373	0.6775	0.011
Mof_H 	H 	0.1238	0.5407	0.6127	0.013
Mof_C 	C 	0.19907	0.53662	0.572	-0.466
Mof_H 	H 	0.1763	0.5247	0.5219	0.189
Mof_H 	H 	0.237	0.5154	0.585	0.197
Mof_C 	C 	0.21207	0.60102	0.572	0.479
Mof_C 	C 	0.4131	0.2748	0.8367	0.097
Mof_H 	H 	0.3931	0.3085	0.8437	0.002
Mof_C 	C 	0.4511	0.2765	0.7897	-0.144
Mof_H 	H 	0.457	0.3114	0.7674	0.086
Mof_C 	C 	0.4799	0.2289	0.7753	0.068
Mof_C 	C 	0.4722	0.1797	0.813	-0.136
Mof_H 	H 	0.4926	0.146	0.807	0.085
Mof_C 	C 	0.434	0.1798	0.86	0.087
Mof_H 	H 	0.4289	0.1457	0.8844	0.015
Mof_C 	C 	0.40804	0.3295	0.0961	0.088
Mof_H 	H 	0.4051	0.3394	0.0461	0.001
Mof_C 	C 	0.46433	0.3309	0.1474	-0.137
Mof_H 	H 	0.4984	0.3404	0.1314	0.086
Mof_C 	C 	0.47016	0.31834	0.2225	0.065
Mof_C 	C 	0.41811	0.3036	0.2409	-0.143
Mof_H 	H 	0.4196	0.2948	0.2908	0.1
Mof_C 	C 	0.36387	0.3016	0.1872	0.092
Mof_H 	H 	0.3295	0.2905	0.2017	0.005
Mof_Cu	Cu	0.85093	0.72169	0.94209	0.928
Mof_Cu	Cu	0.77939	0.80401	0.03921	0.915
Mof_N 	N 	0.69091	0.87014	0.68577	-0.214
Mof_N 	N 	0.59313	0.87745	0.60714	-0.211
Mof_N 	N 	0.6549	0.95933	0.63408	-0.21
Mof_N 	N 	0.90393	0.72744	0.87204	-0.213
Mof_N 	N 	0.85791	0.81474	0.115	-0.228
Mof_O 	O 	0.74911	0.94995	0.71113	-0.248
Mof_O 	O 	0.55826	0.96511	0.55806	-0.235
Mof_O 	O 	0.62787	0.79255	0.66311	-0.253
Mof_O 	O 	0.78193	0.75569	0.8639	-0.433
Mof_O 	O 	0.81381	0.83369	0.93195	-0.388
Mof_O 	O 	0.42438	0.8011	0.51953	-0.414
Mof_O 	O 	0.38566	0.83985	0.60741	-0.341
Mof_O 	O 	0.68066	0.13457	0.59694	-0.407
Mof_O 	O 	0.75531	0.11597	0.54554	-0.431
Mof_O 	O 	0.69906	0.77594	0.98474	-0.632
Mof_H 	H 	0.6813	0.7987	0.9392	0.204
Mof_C 	C 	0.7011	0.9275	0.6788	0.288
Mof_C 	C 	0.59884	0.93571	0.5969	0.277
Mof_C 	C 	0.63681	0.84348	0.6529	0.289
Mof_C 	C 	0.73853	0.83643	0.739	0.155
Mof_H 	H 	0.7781	0.8489	0.7354	0.007
Mof_H 	H 	0.734	0.7957	0.726	0.015
Mof_C 	C 	0.73386	0.84507	0.8192	-0.456
Mof_H 	H 	0.7398	0.8857	0.8324	0.194
Mof_H 	H 	0.6935	0.8343	0.8218	0.187
Mof_C 	C 	0.77983	0.80976	0.8751	0.413
Mof_C 	C 	0.53426	0.85017	0.569	0.147
Mof_H 	H 	0.5409	0.81	0.5581	0.016
Mof_H 	H 	0.5168	0.8697	0.5215	0.015
Mof_C 	C 	0.49061	0.8533	0.6179	-0.44
Mof_H 	H 	0.4868	0.8933	0.632	0.181
Mof_H 	H 	0.5072	0.8315	0.6639	0.176
Mof_C 	C 	0.42824	0.82993	0.5792	0.448
Mof_C 	C 	0.66319	0.02215	0.6283	0.158
Mof_H 	H 	0.6843	0.0373	0.6775	0.011
Mof_H 	H 	0.6238	0.0407	0.6127	0.013
Mof_C 	C 	0.69907	0.03662	0.572	-0.466
Mof_H 	H 	0.6763	0.0247	0.5219	0.189
Mof_H 	H 	0.737	0.0154	0.585	0.197
Mof_C 	C 	0.71207	0.10102	0.572	0.478
Mof_C 	C 	0.9131	0.7748	0.8367	0.096
Mof_H 	H 	0.8931	0.8085	0.8437	0.002
Mof_C 	C 	0.9511	0.7765	0.7897	-0.143
Mof_H 	H 	0.957	0.8114	0.7674	0.085
Mof_C 	C 	0.9799	0.7289	0.7753	0.067
Mof_C 	C 	0.9722	0.6797	0.813	-0.135
Mof_H 	H 	0.9926	0.646	0.807	0.084
Mof_C 	C 	0.934	0.6798	0.86	0.087
Mof_H 	H 	0.9289	0.6457	0.8844	0.015
Mof_C 	C 	0.90804	0.8295	0.0961	0.088
Mof_H 	H 	0.9051	0.8394	0.0461	0.001
Mof_C 	C 	0.96433	0.8309	0.1474	-0.138
Mof_H 	H 	0.9984	0.8404	0.1314	0.087
Mof_C 	C 	0.97016	0.81834	0.2225	0.066
Mof_C 	C 	0.91811	0.8036	0.2409	-0.144
Mof_H 	H 	0.9196	0.7948	0.2908	0.1
Mof_C 	C 	0.86387	0.8016	0.1872	0.092
Mof_H 	H 	0.8295	0.7905	0.2017	0.005
Mof_Cu	Cu	0.35093	0.77832	0.44209	0.929
Mof_Cu	Cu	0.27939	0.69599	0.53921	0.915
Mof_N 	N 	0.19091	0.62986	0.18577	-0.214
Mof_N 	N 	0.09313	0.62255	0.10714	-0.211
Mof_N 	N 	0.1549	0.54067	0.13408	-0.21
Mof_N 	N 	0.40393	0.77256	0.37204	-0.213
Mof_N 	N 	0.35791	0.68526	0.615	-0.228
Mof_O 	O 	0.24911	0.55005	0.21113	-0.248
Mof_O 	O 	0.05826	0.53489	0.05806	-0.235
Mof_O 	O 	0.12787	0.70745	0.16311	-0.253
Mof_O 	O 	0.28193	0.74431	0.3639	-0.433
Mof_O 	O 	0.31381	0.66631	0.43195	-0.388
Mof_O 	O 	0.92438	0.6989	0.01953	-0.413
Mof_O 	O 	0.88566	0.66015	0.10741	-0.341
Mof_O 	O 	0.18066	0.36543	0.09694	-0.407
Mof_O 	O 	0.25531	0.38403	0.04554	-0.431
Mof_O 	O 	0.19906	0.72406	0.48474	-0.632
Mof_H 	H 	0.1813	0.7013	0.4392	0.204
Mof_C 	C 	0.2011	0.5725	0.1788	0.288
Mof_C 	C 	0.09884	0.56429	0.0969	0.277
Mof_C 	C 	0.13681	0.65652	0.1529	0.289
Mof_C 	C 	0.23853	0.66357	0.239	0.155
Mof_H 	H 	0.2781	0.6511	0.2354	0.007
Mof_H 	H 	0.234	0.7043	0.226	0.015
Mof_C 	C 	0.23386	0.65493	0.3192	-0.456
Mof_H 	H 	0.2398	0.6143	0.3324	0.194
Mof_H 	H 	0.1935	0.6657	0.3218	0.186
Mof_C 	C 	0.27983	0.69024	0.3751	0.413
Mof_C 	C 	0.03426	0.64983	0.069	0.145
Mof_H 	H 	0.0409	0.69	0.0581	0.016
Mof_H 	H 	0.0168	0.6303	0.0215	0.016
Mof_C 	C 	0.99061	0.6467	0.1179	-0.437
Mof_H 	H 	0.9868	0.6067	0.132	0.181
Mof_H 	H 	0.0072	0.6685	0.1639	0.175
Mof_C 	C 	0.92824	0.67007	0.0792	0.447
Mof_C 	C 	0.16319	0.47785	0.1283	0.159
Mof_H 	H 	0.1843	0.4627	0.1775	0.011
Mof_H 	H 	0.1238	0.4593	0.1127	0.013
Mof_C 	C 	0.19907	0.46338	0.072	-0.466
Mof_H 	H 	0.1763	0.4753	0.0219	0.188
Mof_H 	H 	0.237	0.4846	0.085	0.197
Mof_C 	C 	0.21207	0.39898	0.072	0.478
Mof_C 	C 	0.4131	0.7252	0.3367	0.097
Mof_H 	H 	0.3931	0.6915	0.3437	0.002
Mof_C 	C 	0.4511	0.7235	0.2897	-0.144
Mof_H 	H 	0.457	0.6886	0.2674	0.086
Mof_C 	C 	0.4799	0.7711	0.2753	0.068
Mof_C 	C 	0.4722	0.8203	0.313	-0.136
Mof_H 	H 	0.4926	0.854	0.307	0.085
Mof_C 	C 	0.434	0.8202	0.36	0.087
Mof_H 	H 	0.4289	0.8543	0.3844	0.015
Mof_C 	C 	0.40804	0.6705	0.5961	0.088
Mof_H 	H 	0.4051	0.6606	0.5461	0.001
Mof_C 	C 	0.46433	0.6691	0.6474	-0.137
Mof_H 	H 	0.4984	0.6596	0.6314	0.086
Mof_C 	C 	0.47016	0.68166	0.7225	0.065
Mof_C 	C 	0.41811	0.6964	0.7409	-0.143
Mof_H 	H 	0.4196	0.7052	0.7908	0.1
Mof_C 	C 	0.36387	0.6984	0.6872	0.092
Mof_H 	H 	0.3295	0.7095	0.7017	0.005
Mof_Cu	Cu	0.85093	0.27831	0.44209	0.929
Mof_Cu	Cu	0.77939	0.19599	0.53921	0.915
Mof_N 	N 	0.69091	0.12986	0.18577	-0.214
Mof_N 	N 	0.59313	0.12255	0.10714	-0.211
Mof_N 	N 	0.6549	0.04067	0.13408	-0.21
Mof_N 	N 	0.90393	0.27256	0.37204	-0.213
Mof_N 	N 	0.85791	0.18526	0.615	-0.228
Mof_O 	O 	0.74911	0.05005	0.21113	-0.247
Mof_O 	O 	0.55826	0.03489	0.05806	-0.234
Mof_O 	O 	0.62787	0.20745	0.16311	-0.253
Mof_O 	O 	0.78193	0.24431	0.3639	-0.433
Mof_O 	O 	0.81381	0.16631	0.43195	-0.388
Mof_O 	O 	0.42438	0.1989	0.01953	-0.414
Mof_O 	O 	0.38566	0.16015	0.10741	-0.341
Mof_O 	O 	0.68066	0.86543	0.09694	-0.407
Mof_O 	O 	0.75531	0.88403	0.04554	-0.431
Mof_O 	O 	0.69906	0.22406	0.48474	-0.632
Mof_H 	H 	0.6813	0.2013	0.4392	0.204
Mof_C 	C 	0.7011	0.0725	0.1788	0.288
Mof_C 	C 	0.59884	0.06429	0.0969	0.277
Mof_C 	C 	0.63681	0.15652	0.1529	0.289
Mof_C 	C 	0.73853	0.16357	0.239	0.155
Mof_H 	H 	0.7781	0.1511	0.2354	0.007
Mof_H 	H 	0.734	0.2043	0.226	0.015
Mof_C 	C 	0.73386	0.15493	0.3192	-0.456
Mof_H 	H 	0.7398	0.1143	0.3324	0.194
Mof_H 	H 	0.6935	0.1657	0.3218	0.186
Mof_C 	C 	0.77983	0.19024	0.3751	0.413
Mof_C 	C 	0.53426	0.14983	0.069	0.147
Mof_H 	H 	0.5409	0.19	0.0581	0.016
Mof_H 	H 	0.5168	0.1303	0.0215	0.016
Mof_C 	C 	0.49061	0.1467	0.1179	-0.44
Mof_H 	H 	0.4868	0.1067	0.132	0.181
Mof_H 	H 	0.5072	0.1685	0.1639	0.176
Mof_C 	C 	0.42824	0.17007	0.0792	0.447
Mof_C 	C 	0.66319	0.97785	0.1283	0.158
Mof_H 	H 	0.6843	0.9627	0.1775	0.011
Mof_H 	H 	0.6238	0.9593	0.1127	0.013
Mof_C 	C 	0.69907	0.96338	0.072	-0.466
Mof_H 	H 	0.6763	0.9753	0.0219	0.188
Mof_H 	H 	0.737	0.9846	0.085	0.197
Mof_C 	C 	0.71207	0.89898	0.072	0.478
Mof_C 	C 	0.9131	0.2252	0.3367	0.098
Mof_H 	H 	0.8931	0.1915	0.3437	0.002
Mof_C 	C 	0.9511	0.2235	0.2897	-0.145
Mof_H 	H 	0.957	0.1886	0.2674	0.086
Mof_C 	C 	0.9799	0.2711	0.2753	0.07
Mof_C 	C 	0.9722	0.3203	0.313	-0.137
Mof_H 	H 	0.9926	0.354	0.307	0.085
Mof_C 	C 	0.934	0.3202	0.36	0.088
Mof_H 	H 	0.9289	0.3543	0.3844	0.015
Mof_C 	C 	0.90804	0.1705	0.5961	0.088
Mof_H 	H 	0.9051	0.1606	0.5461	0.001
Mof_C 	C 	0.96433	0.1691	0.6474	-0.137
Mof_H 	H 	0.9984	0.1596	0.6314	0.086
Mof_C 	C 	0.97016	0.18166	0.7225	0.064
Mof_C 	C 	0.91811	0.1964	0.7409	-0.142
Mof_H 	H 	0.9196	0.2052	0.7908	0.099
Mof_C 	C 	0.86387	0.1984	0.6872	0.091
Mof_H 	H 	0.8295	0.2095	0.7017	0.006
Mof_Cu	Cu	0.64907	0.77832	0.05791	0.928
Mof_Cu	Cu	0.72061	0.69599	0.96079	0.915
Mof_N 	N 	0.80909	0.62986	0.31423	-0.214
Mof_N 	N 	0.90687	0.62255	0.39286	-0.211
Mof_N 	N 	0.8451	0.54067	0.36592	-0.21
Mof_N 	N 	0.59607	0.77256	0.12796	-0.213
Mof_N 	N 	0.64209	0.68526	0.885	-0.228
Mof_O 	O 	0.75089	0.55005	0.28887	-0.248
Mof_O 	O 	0.94174	0.53489	0.44194	-0.235
Mof_O 	O 	0.87213	0.70745	0.33689	-0.253
Mof_O 	O 	0.71807	0.74431	0.1361	-0.433
Mof_O 	O 	0.68619	0.66631	0.06805	-0.388
Mof_O 	O 	0.07562	0.6989	0.48047	-0.414
Mof_O 	O 	0.11434	0.66015	0.39259	-0.341
Mof_O 	O 	0.81934	0.36543	0.40306	-0.407
Mof_O 	O 	0.74469	0.38403	0.45446	-0.431
Mof_O 	O 	0.80094	0.72406	0.01526	-0.632
Mof_H 	H 	0.8187	0.7013	0.0608	0.204
Mof_C 	C 	0.7989	0.5725	0.3212	0.288
Mof_C 	C 	0.90116	0.56429	0.4031	0.277
Mof_C 	C 	0.86319	0.65652	0.3471	0.289
Mof_C 	C 	0.76147	0.66357	0.261	0.155
Mof_H 	H 	0.7219	0.6511	0.2646	0.007
Mof_H 	H 	0.766	0.7043	0.274	0.015
Mof_C 	C 	0.76614	0.65493	0.1808	-0.456
Mof_H 	H 	0.7602	0.6143	0.1676	0.194
Mof_H 	H 	0.8065	0.6657	0.1782	0.187
Mof_C 	C 	0.72017	0.69024	0.1249	0.413
Mof_C 	C 	0.96574	0.64983	0.431	0.148
Mof_H 	H 	0.9591	0.69	0.4419	0.015
Mof_H 	H 	0.9832	0.6303	0.4785	0.015
Mof_C 	C 	0.00939	0.6467	0.3821	-0.442
Mof_H 	H 	0.0132	0.6067	0.368	0.182
Mof_H 	H 	0.9928	0.6685	0.3361	0.177
Mof_C 	C 	0.07176	0.67007	0.4208	0.448
Mof_C 	C 	0.83681	0.47785	0.3717	0.159
Mof_H 	H 	0.8157	0.4627	0.3225	0.011
Mof_H 	H 	0.8762	0.4593	0.3873	0.013
Mof_C 	C 	0.80093	0.46338	0.428	-0.466
Mof_H 	H 	0.8237	0.4753	0.4781	0.189
Mof_H 	H 	0.763	0.4846	0.415	0.197
Mof_C 	C 	0.78793	0.39898	0.428	0.479
Mof_C 	C 	0.5869	0.7252	0.1633	0.097
Mof_H 	H 	0.6069	0.6915	0.1563	0.002
Mof_C 	C 	0.5489	0.7235	0.2103	-0.144
Mof_H 	H 	0.543	0.6886	0.2326	0.086
Mof_C 	C 	0.5201	0.7711	0.2247	0.068
Mof_C 	C 	0.5278	0.8203	0.187	-0.136
Mof_H 	H 	0.5074	0.854	0.193	0.085
Mof_C 	C 	0.566	0.8202	0.14	0.087
Mof_H 	H 	0.5711	0.8543	0.1156	0.015
Mof_C 	C 	0.59196	0.6705	0.9039	0.088
Mof_H 	H 	0.5949	0.6606	0.9539	0.001
Mof_C 	C 	0.53567	0.6691	0.8526	-0.137
Mof_H 	H 	0.5016	0.6596	0.8686	0.086
Mof_C 	C 	0.52984	0.68166	0.7775	0.065
Mof_C 	C 	0.58189	0.6964	0.7591	-0.143
Mof_H 	H 	0.5804	0.7052	0.7092	0.1
Mof_C 	C 	0.63613	0.6984	0.8128	0.092
Mof_H 	H 	0.6705	0.7095	0.7983	0.005
Mof_Cu	Cu	0.14907	0.27831	0.05791	0.928
Mof_Cu	Cu	0.22061	0.19599	0.96079	0.915
Mof_N 	N 	0.30909	0.12986	0.31423	-0.214
Mof_N 	N 	0.40687	0.12255	0.39286	-0.211
Mof_N 	N 	0.3451	0.04067	0.36592	-0.21
Mof_N 	N 	0.09607	0.27256	0.12796	-0.213
Mof_N 	N 	0.14209	0.18526	0.885	-0.228
Mof_O 	O 	0.25089	0.05005	0.28887	-0.248
Mof_O 	O 	0.44174	0.03489	0.44194	-0.235
Mof_O 	O 	0.37213	0.20745	0.33689	-0.253
Mof_O 	O 	0.21807	0.24431	0.1361	-0.433
Mof_O 	O 	0.18619	0.16631	0.06805	-0.388
Mof_O 	O 	0.57562	0.1989	0.48047	-0.414
Mof_O 	O 	0.61434	0.16015	0.39259	-0.341
Mof_O 	O 	0.31934	0.86543	0.40306	-0.407
Mof_O 	O 	0.24469	0.88403	0.45446	-0.431
Mof_O 	O 	0.30094	0.22406	0.01526	-0.632
Mof_H 	H 	0.3187	0.2013	0.0608	0.204
Mof_C 	C 	0.2989	0.0725	0.3212	0.288
Mof_C 	C 	0.40116	0.06429	0.4031	0.277
Mof_C 	C 	0.36319	0.15652	0.3471	0.289
Mof_C 	C 	0.26147	0.16357	0.261	0.155
Mof_H 	H 	0.2219	0.1511	0.2646	0.007
Mof_H 	H 	0.266	0.2043	0.274	0.015
Mof_C 	C 	0.26614	0.15493	0.1808	-0.456
Mof_H 	H 	0.2602	0.1143	0.1676	0.194
Mof_H 	H 	0.3065	0.1657	0.1782	0.187
Mof_C 	C 	0.22017	0.19024	0.1249	0.413
Mof_C 	C 	0.46574	0.14983	0.431	0.147
Mof_H 	H 	0.4591	0.19	0.4419	0.016
Mof_H 	H 	0.4832	0.1303	0.4785	0.015
Mof_C 	C 	0.50939	0.1467	0.3821	-0.44
Mof_H 	H 	0.5132	0.1067	0.368	0.181
Mof_H 	H 	0.4928	0.1685	0.3361	0.176
Mof_C 	C 	0.57176	0.17007	0.4208	0.448
Mof_C 	C 	0.33681	0.97785	0.3717	0.158
Mof_H 	H 	0.3157	0.9627	0.3225	0.011
Mof_H 	H 	0.3762	0.9593	0.3873	0.013
Mof_C 	C 	0.30093	0.96338	0.428	-0.466
Mof_H 	H 	0.3237	0.9753	0.4781	0.189
Mof_H 	H 	0.263	0.9846	0.415	0.197
Mof_C 	C 	0.28793	0.89898	0.428	0.478
Mof_C 	C 	0.0869	0.2252	0.1633	0.096
Mof_H 	H 	0.1069	0.1915	0.1563	0.002
Mof_C 	C 	0.0489	0.2235	0.2103	-0.143
Mof_H 	H 	0.043	0.1886	0.2326	0.085
Mof_C 	C 	0.0201	0.2711	0.2247	0.067
Mof_C 	C 	0.0278	0.3203	0.187	-0.135
Mof_H 	H 	0.0074	0.354	0.193	0.084
Mof_C 	C 	0.066	0.3202	0.14	0.087
Mof_H 	H 	0.0711	0.3543	0.1156	0.015
Mof_C 	C 	0.09196	0.1705	0.9039	0.088
Mof_H 	H 	0.0949	0.1606	0.9539	0.001
Mof_C 	C 	0.03567	0.1691	0.8526	-0.138
Mof_H 	H 	0.0016	0.1596	0.8686	0.087
Mof_C 	C 	0.02984	0.18166	0.7775	0.066
Mof_C 	C 	0.08189	0.1964	0.7591	-0.144
Mof_H 	H 	0.0804	0.2052	0.7092	0.1
Mof_C 	C 	0.13613	0.1984	0.8128	0.092
Mof_H 	H 	0.1705	0.2095	0.7983	0.005
_end
