# CIF file generated by openbabel 3.1.0, see https://openbabel.org
data_I
_chemical_name_common 'image0'
_cell_length_a 10.2997
_cell_length_b 10.6107
_cell_length_c 6.243
_cell_angle_alpha 90
_cell_angle_beta 114.713
_cell_angle_gamma 90
_space_group_name_H-M_alt 'P 1'
_space_group_name_Hall 'P 1'
loop_
    _symmetry_equiv_pos_as_xyz
    x,y,z
loop_
    _atom_site_label
    _atom_site_type_symbol
    _atom_site_fract_x
    _atom_site_fract_y
    _atom_site_fract_z
    _atom_site_occupancy
    C1       C        0.31740    0.21090    0.54550    1.000
    H1       H        0.39930    0.26550    0.57120    1.000
    H2       H        0.33190    0.17370    0.69750    1.000
    N1       N        0.31120    0.10950    0.38030    1.000
    H3       H        0.29590    0.14420    0.23840    1.000
    H4       H        0.23580    0.05830    0.35830    1.000
    C2       C        0.81740    0.71090    0.54550    1.000
    H5       H        0.89930    0.76550    0.57120    1.000
    H6       H        0.83190    0.67370    0.69750    1.000
    N2       N        0.81120    0.60950    0.38030    1.000
    H7       H        0.79590    0.64420    0.23840    1.000
    H8       H        0.73580    0.55830    0.35830    1.000
    C3       C        0.68260    0.21090    0.95450    1.000
    H9       H        0.60070    0.26550    0.92880    1.000
    H10      H        0.66810    0.17370    0.80250    1.000
    N3       N        0.68880    0.10950    0.11970    1.000
    H11      H        0.70410    0.14420    0.26160    1.000
    H12      H        0.76420    0.05830    0.14170    1.000
    C4       C        0.18260    0.71090    0.95450    1.000
    H13      H        0.10070    0.76550    0.92880    1.000
    H14      H        0.16810    0.67370    0.80250    1.000
    N4       N        0.18880    0.60950    0.11970    1.000
    H15      H        0.20410    0.64420    0.26160    1.000
    H16      H        0.26420    0.55830    0.14170    1.000
    C5       C        0.68260    0.78910    0.45450    1.000
    H17      H        0.60070    0.73450    0.42880    1.000
    H18      H        0.66810    0.82630    0.30250    1.000
    N5       N        0.68880    0.89050    0.61970    1.000
    H19      H        0.70410    0.85580    0.76160    1.000
    H20      H        0.76420    0.94170    0.64170    1.000
    C6       C        0.18260    0.28910    0.45450    1.000
    H21      H        0.10070    0.23450    0.42880    1.000
    H22      H        0.16810    0.32630    0.30250    1.000
    N6       N        0.18880    0.39050    0.61970    1.000
    H23      H        0.20410    0.35580    0.76160    1.000
    H24      H        0.26420    0.44170    0.64170    1.000
    C7       C        0.31740    0.78910    0.04550    1.000
    H25      H        0.39930    0.73450    0.07120    1.000
    H26      H        0.33190    0.82630    0.19750    1.000
    N7       N        0.31120    0.89050    0.88030    1.000
    H27      H        0.29590    0.85580    0.73840    1.000
    H28      H        0.23580    0.94170    0.85830    1.000
    C8       C        0.81740    0.28910    0.04550    1.000
    H29      H        0.89930    0.23450    0.07120    1.000
    H30      H        0.83190    0.32630    0.19750    1.000
    N8       N        0.81120    0.39050    0.88030    1.000
    H31      H        0.79590    0.35580    0.73840    1.000
    H32      H        0.73580    0.44170    0.85830    1.000
    Ag1      Ag       0.50000    0.00000    0.50000    1.000
    Ag2      Ag       0.00000    0.50000    0.50000    1.000
    Ag3      Ag       0.50000    0.00000    0.00000    1.000
    Ag4      Ag       0.00000    0.50000    0.00000    1.000
