data_functionalizedCrystal
_audit_creation_method	'EQeq! by Chris Wilmer'
_symmetry_space_group_name_H-M	'P1'
_symmetry_Int_Tables_number	1
_symmetry_cell_setting	triclinic
loop_
_symmetry_equiv_pos_as_xyz
  x,y,z
_cell_length_a	13.5263
_cell_length_b	13.5263
_cell_length_c	8.0567
_cell_angle_alpha	90
_cell_angle_beta	90
_cell_angle_gamma	120
loop_
_atom_site_label
_atom_site_type_symbol
_atom_site_fract_x
_atom_site_fract_y
_atom_site_fract_z
_atom_site_charge
Mof_C 	C 	0.35426	0.56009	0.7242	-0.14
Mof_C 	C 	0.46465	0.67738	0.4511	-0.146
Mof_N 	N 	0.36859	0.50032	0.8102	-0.154
Mof_Mn	Mn	0.3025	0.33791	0.95413	0.791
Mof_O 	O 	0.22991	0.18078	0.0928	-0.342
Mof_N 	N 	0.36678	0.42724	0.1976	-0.294
Mof_N 	N 	0.45632	0.32084	0.8937	-0.149
Mof_O 	O 	0.18784	0.24517	0.7531	-0.344
Mof_N 	N 	0.13888	0.34651	0.9997	-0.27
Mof_C 	C 	0.26724	0.15694	0.2191	0.347
Mof_H 	H 	0.4433	0.46	0.1994	0.104
Mof_H 	H 	0.3495	0.4833	0.2053	0.101
Mof_C 	C 	0.3196	0.3519	0.3441	-0.019
Mof_C 	C 	0.34566	0.2542	0.336	-0.107
Mof_H 	H 	0.2376	0.3208	0.3484	0.041
Mof_H 	H 	0.3524	0.396	0.4444	0.027
Mof_H 	H 	0.4232	0.2867	0.2915	0.048
Mof_H 	H 	0.2861	0.1975	0.5599	0.142
Mof_H 	H 	0.4107	0.2555	0.555	0.102
Mof_C 	C 	0.43991	0.79417	0.7242	-0.139
Mof_C 	C 	0.32262	0.78727	0.4511	-0.145
Mof_N 	N 	0.49968	0.86827	0.8102	-0.154
Mof_Mn	Mn	0.66209	0.96459	0.95413	0.791
Mof_O 	O 	0.81922	0.04913	0.0928	-0.343
Mof_N 	N 	0.57276	0.93954	0.1976	-0.294
Mof_N 	N 	0.67916	0.13548	0.8937	-0.149
Mof_O 	O 	0.75483	0.94267	0.7531	-0.344
Mof_N 	N 	0.65349	0.79237	0.9997	-0.269
Mof_C 	C 	0.84306	0.1103	0.2191	0.348
Mof_H 	H 	0.54	0.9833	0.1994	0.105
Mof_H 	H 	0.5167	0.8662	0.2053	0.101
Mof_C 	C 	0.6481	0.9677	0.3441	-0.018
Mof_C 	C 	0.7458	0.09146	0.336	-0.108
Mof_H 	H 	0.6792	0.9168	0.3484	0.04
Mof_H 	H 	0.604	0.9564	0.4444	0.026
Mof_H 	H 	0.7133	0.1365	0.2915	0.048
Mof_H 	H 	0.8025	0.0886	0.5599	0.142
Mof_H 	H 	0.7445	0.1552	0.555	0.102
Mof_C 	C 	0.20583	0.64574	0.7242	-0.139
Mof_C 	C 	0.21273	0.53535	0.4511	-0.145
Mof_N 	N 	0.13173	0.63141	0.8102	-0.154
Mof_Mn	Mn	0.03541	0.6975	0.95413	0.79
Mof_O 	O 	0.95087	0.77009	0.0928	-0.342
Mof_N 	N 	0.06046	0.63322	0.1976	-0.293
Mof_N 	N 	0.86452	0.54368	0.8937	-0.149
Mof_O 	O 	0.05733	0.81216	0.7531	-0.344
Mof_N 	N 	0.20763	0.86112	0.9997	-0.27
Mof_C 	C 	0.8897	0.73276	0.2191	0.347
Mof_H 	H 	0.0167	0.5567	0.1994	0.105
Mof_H 	H 	0.1338	0.6505	0.2053	0.101
Mof_C 	C 	0.0323	0.6804	0.3441	-0.018
Mof_C 	C 	0.90854	0.65434	0.336	-0.108
Mof_H 	H 	0.0832	0.7624	0.3484	0.041
Mof_H 	H 	0.0436	0.6476	0.4444	0.026
Mof_H 	H 	0.8635	0.5768	0.2915	0.048
Mof_H 	H 	0.9114	0.7139	0.5599	0.142
Mof_H 	H 	0.8448	0.5893	0.555	0.102
Mof_C 	C 	0.64574	0.43991	0.2242	-0.139
Mof_C 	C 	0.53535	0.32262	0.9511	-0.141
Mof_N 	N 	0.63141	0.49968	0.3102	-0.154
Mof_Mn	Mn	0.6975	0.66209	0.45413	0.787
Mof_O 	O 	0.77009	0.81922	0.5928	-0.339
Mof_N 	N 	0.63322	0.57276	0.6976	-0.293
Mof_N 	N 	0.54368	0.67916	0.3937	-0.148
Mof_O 	O 	0.81216	0.75483	0.2531	-0.344
Mof_N 	N 	0.86112	0.65349	0.4997	-0.274
Mof_C 	C 	0.73276	0.84306	0.7191	0.348
Mof_H 	H 	0.5567	0.54	0.6994	0.105
Mof_H 	H 	0.6505	0.5167	0.7053	0.101
Mof_C 	C 	0.6804	0.6481	0.8441	-0.019
Mof_C 	C 	0.65434	0.7458	0.836	-0.107
Mof_H 	H 	0.7624	0.6792	0.8484	0.041
Mof_H 	H 	0.6476	0.604	0.9444	0.028
Mof_H 	H 	0.5768	0.7133	0.7915	0.049
Mof_H 	H 	0.7139	0.8025	0.0599	0.138
Mof_H 	H 	0.5893	0.7445	0.055	0.098
Mof_C 	C 	0.56009	0.20583	0.2242	-0.14
Mof_C 	C 	0.67738	0.21273	0.9511	-0.14
Mof_N 	N 	0.50032	0.13173	0.3102	-0.154
Mof_Mn	Mn	0.33791	0.03541	0.45413	0.786
Mof_O 	O 	0.18078	0.95087	0.5928	-0.339
Mof_N 	N 	0.42724	0.06046	0.6976	-0.293
Mof_N 	N 	0.32084	0.86452	0.3937	-0.148
Mof_O 	O 	0.24517	0.05733	0.2531	-0.344
Mof_N 	N 	0.34651	0.20763	0.4997	-0.275
Mof_C 	C 	0.15694	0.8897	0.7191	0.347
Mof_H 	H 	0.46	0.0167	0.6994	0.105
Mof_H 	H 	0.4833	0.1338	0.7053	0.101
Mof_C 	C 	0.3519	0.0323	0.8441	-0.019
Mof_C 	C 	0.2542	0.90854	0.836	-0.107
Mof_H 	H 	0.3208	0.0832	0.8484	0.041
Mof_H 	H 	0.396	0.0436	0.9444	0.028
Mof_H 	H 	0.2867	0.8635	0.7915	0.049
Mof_H 	H 	0.1975	0.9114	0.0599	0.139
Mof_H 	H 	0.2555	0.8448	0.055	0.099
Mof_C 	C 	0.79417	0.35426	0.2242	-0.14
Mof_C 	C 	0.78727	0.46465	0.9511	-0.14
Mof_N 	N 	0.86827	0.36859	0.3102	-0.154
Mof_Mn	Mn	0.96459	0.3025	0.45413	0.786
Mof_O 	O 	0.04913	0.22991	0.5928	-0.339
Mof_N 	N 	0.93954	0.36678	0.6976	-0.293
Mof_N 	N 	0.13548	0.45632	0.3937	-0.148
Mof_O 	O 	0.94267	0.18784	0.2531	-0.345
Mof_N 	N 	0.79237	0.13888	0.4997	-0.274
Mof_C 	C 	0.1103	0.26724	0.7191	0.347
Mof_H 	H 	0.9833	0.4433	0.6994	0.105
Mof_H 	H 	0.8662	0.3495	0.7053	0.101
Mof_C 	C 	0.9677	0.3196	0.8441	-0.019
Mof_C 	C 	0.09146	0.34566	0.836	-0.107
Mof_H 	H 	0.9168	0.2376	0.8484	0.042
Mof_H 	H 	0.9564	0.3524	0.9444	0.028
Mof_H 	H 	0.1365	0.4232	0.7915	0.049
Mof_H 	H 	0.0886	0.2861	0.0599	0.139
Mof_H 	H 	0.1552	0.4107	0.055	0.099
Mof_Mn	Mn	0.33333	0.66667	0.57942	0.79
Mof_Mn	Mn	0.66667	0.33333	0.07942	0.782
_end
