# CIF file generated by openbabel 3.1.0, see https://openbabel.org
data_I
_chemical_name_common 'image0'
_cell_length_a 12.6356
_cell_length_b 12.6963
_cell_length_c 22.1755
_cell_angle_alpha 84.864
_cell_angle_beta 88.088
_cell_angle_gamma 72.98
_space_group_name_H-M_alt 'P 1'
_space_group_name_Hall 'P 1'
loop_
    _symmetry_equiv_pos_as_xyz
    x,y,z
loop_
    _atom_site_label
    _atom_site_type_symbol
    _atom_site_fract_x
    _atom_site_fract_y
    _atom_site_fract_z
    _atom_site_occupancy
    Ag1      Ag       0.20449    0.41297    0.34693    1.000
    Ag2      Ag       0.29361    0.60671    0.30066    1.000
    Ag3      Ag       0.38949    0.40719    0.23907    1.000
    Ag4      Ag       0.23522    0.58565    0.15907    1.000
    Ag5      Ag       0.16162    0.38580    0.20204    1.000
    Ag6      Ag       0.03133    0.57511    0.27309    1.000
    Sr1      Sr       0.83904    0.04292    0.45728    1.000
    Sr2      Sr       0.86945    0.89220    0.18048    1.000
    Sr3      Sr       0.64513    0.94627    0.04992    1.000
    S1       S        0.10443    0.68003    0.34266    1.000
    S2       S        0.41134    0.34225    0.34704    1.000
    S3       S        0.35207    0.68636    0.20290    1.000
    S4       S        0.34921    0.29614    0.15920    1.000
    S5       S        0.03066    0.65075    0.16437    1.000
    S6       S        0.10872    0.29924    0.29870    1.000
    O1       O        0.92064    0.84395    0.42449    1.000
    O2       O        0.04679    0.88001    0.47768    1.000
    O3       O        0.51818    0.21396    0.46591    1.000
    O4       O        0.69182    0.22035    0.45828    1.000
    O5       O        0.53250    0.82715    0.11255    1.000
    O6       O        0.55850    0.82779    0.21112    1.000
    O7       O        0.58211    0.16297    0.07648    1.000
    O8       O        0.45396    0.11731    0.02975    1.000
    O9       O        0.81000    0.77303    0.01285    1.000
    O10      O        0.80050    0.78290    0.11180    1.000
    O11      O        0.95732    0.11942    0.38017    1.000
    O12      O        0.97117    0.11196    0.28023    1.000
    O13      O        0.83570    0.99430    0.06716    1.000
    O14      O        0.65765    0.97630    0.16507    1.000
    N1       N        0.14670    0.51327    0.42924    1.000
    N2       N        0.43550    0.53720    0.36941    1.000
    N3       N        0.51410    0.49440    0.19752    1.000
    N4       N        0.32127    0.47780    0.08244    1.000
    N5       N        0.02850    0.45696    0.12901    1.000
    N6       N        0.91920    0.46680    0.29715    1.000
    C1       C        0.10430    0.62310    0.41830    1.000
    C2       C        0.06510    0.69140    0.46544    1.000
    C3       C        0.07490    0.64290    0.52426    1.000
    H1       H        0.05230    0.68660    0.55650    1.000
    C4       C        0.11790    0.53020    0.53507    1.000
    H2       H        0.12380    0.49660    0.57430    1.000
    C5       C        0.15190    0.46860    0.48661    1.000
    H3       H        0.17980    0.39230    0.49380    1.000
    C6       C        0.00830    0.81320    0.45473    1.000
    C7       C        0.46890    0.42780    0.38534    1.000
    C8       C        0.55270    0.38250    0.42864    1.000
    C9       C        0.60440    0.45220    0.45161    1.000
    H4       H        0.66250    0.42360    0.47870    1.000
    C10      C        0.57010    0.56380    0.43436    1.000
    H5       H        0.60420    0.61150    0.44950    1.000
    C11      C        0.48470    0.60280    0.39445    1.000
    H6       H        0.45940    0.67860    0.38410    1.000
    C12      C        0.59000    0.26220    0.45193    1.000
    C13      C        0.48920    0.60560    0.19069    1.000
    C14      C        0.57080    0.65700    0.17322    1.000
    C15      C        0.67800    0.59150    0.16479    1.000
    H7       H        0.73390    0.62420    0.15490    1.000
    C16      C        0.70230    0.47800    0.17100    1.000
    H8       H        0.77360    0.43310    0.16430    1.000
    C17      C        0.61800    0.43350    0.18739    1.000
    H9       H        0.63380    0.35700    0.19170    1.000
    C18      C        0.54920    0.78090    0.16504    1.000
    C19      C        0.36710    0.36770    0.08959    1.000
    C20      C        0.42730    0.30870    0.04289    1.000
    C21      C        0.43550    0.36620    0.98749    1.000
    H10      H        0.47310    0.32890    0.95530    1.000
    C22      C        0.38740    0.47930    0.98052    1.000
    H11      H        0.39180    0.51910    0.94370    1.000
    C23      C        0.33310    0.53140    0.02883    1.000
    H12      H        0.30290    0.60780    0.02430    1.000
    C24      C        0.49060    0.18760    0.05101    1.000
    C25      C        0.98060    0.56690    0.12011    1.000
    C26      C        0.90030    0.61110    0.07505    1.000
    C27      C        0.87450    0.53890    0.03869    1.000
    H13      H        0.82480    0.56660    0.00710    1.000
    C28      C        0.92170    0.42680    0.04895    1.000
    H14      H        0.90270    0.37780    0.02570    1.000
    C29      C        0.99790    0.38900    0.09467    1.000
    H15      H        0.02970    0.31320    0.10210    1.000
    C30      C        0.83460    0.73140    0.06546    1.000
    C31      C        0.96410    0.35650    0.30469    1.000
    C32      C        0.89760    0.28640    0.31837    1.000
    C33      C        0.78460    0.33150    0.32447    1.000
    H16      H        0.73950    0.28610    0.33420    1.000
    C34      C        0.73940    0.44440    0.31606    1.000
    H17      H        0.66340    0.47650    0.31940    1.000
    C35      C        0.80890    0.50850    0.30267    1.000
    H18      H        0.77820    0.58470    0.29710    1.000
    C36      C        0.94720    0.16330    0.32710    1.000
    H19      H        0.83300    0.05400    0.06680    1.000
    H20      H        0.88400    0.96700    0.03700    1.000
    H21      H        0.62300    0.94700    0.18010    1.000
    H22      H        0.62900    0.03900    0.17420    1.000
    Ag7      Ag       0.79551    0.58703    0.65307    1.000
    Ag8      Ag       0.70639    0.39329    0.69934    1.000
    Ag9      Ag       0.61051    0.59281    0.76093    1.000
    Ag10     Ag       0.76478    0.41435    0.84093    1.000
    Ag11     Ag       0.83838    0.61420    0.79796    1.000
    Ag12     Ag       0.96867    0.42489    0.72691    1.000
    Sr4      Sr       0.16096    0.95708    0.54272    1.000
    Sr5      Sr       0.13055    0.10780    0.81952    1.000
    Sr6      Sr       0.35487    0.05373    0.95008    1.000
    S7       S        0.89557    0.31997    0.65734    1.000
    S8       S        0.58866    0.65775    0.65296    1.000
    S9       S        0.64793    0.31364    0.79710    1.000
    S10      S        0.65079    0.70386    0.84080    1.000
    S11      S        0.96934    0.34925    0.83563    1.000
    S12      S        0.89128    0.70076    0.70130    1.000
    O15      O        0.07936    0.15605    0.57551    1.000
    O16      O        0.95321    0.11999    0.52232    1.000
    O17      O        0.48182    0.78604    0.53409    1.000
    O18      O        0.30818    0.77965    0.54172    1.000
    O19      O        0.46750    0.17285    0.88745    1.000
    O20      O        0.44150    0.17221    0.78888    1.000
    O21      O        0.41789    0.83703    0.92352    1.000
    O22      O        0.54604    0.88269    0.97025    1.000
    O23      O        0.19000    0.22697    0.98715    1.000
    O24      O        0.19950    0.21710    0.88820    1.000
    O25      O        0.04268    0.88058    0.61983    1.000
    O26      O        0.02883    0.88804    0.71977    1.000
    O27      O        0.16430    0.00570    0.93284    1.000
    O28      O        0.34235    0.02370    0.83493    1.000
    N7       N        0.85330    0.48673    0.57076    1.000
    N8       N        0.56450    0.46280    0.63059    1.000
    N9       N        0.48590    0.50560    0.80248    1.000
    N10      N        0.67873    0.52220    0.91756    1.000
    N11      N        0.97150    0.54304    0.87099    1.000
    N12      N        0.08080    0.53320    0.70285    1.000
    C37      C        0.89570    0.37690    0.58170    1.000
    C38      C        0.93490    0.30860    0.53456    1.000
    C39      C        0.92510    0.35710    0.47574    1.000
    H23      H        0.94770    0.31340    0.44350    1.000
    C40      C        0.88210    0.46980    0.46493    1.000
    H24      H        0.87620    0.50340    0.42570    1.000
    C41      C        0.84810    0.53140    0.51339    1.000
    H25      H        0.82020    0.60770    0.50620    1.000
    C42      C        0.99170    0.18680    0.54527    1.000
    C43      C        0.53110    0.57220    0.61466    1.000
    C44      C        0.44730    0.61750    0.57136    1.000
    C45      C        0.39560    0.54780    0.54839    1.000
    H26      H        0.33750    0.57640    0.52130    1.000
    C46      C        0.42990    0.43620    0.56564    1.000
    H27      H        0.39580    0.38850    0.55050    1.000
    C47      C        0.51530    0.39720    0.60555    1.000
    H28      H        0.54060    0.32140    0.61590    1.000
    C48      C        0.41000    0.73780    0.54807    1.000
    C49      C        0.51080    0.39440    0.80931    1.000
    C50      C        0.42920    0.34300    0.82678    1.000
    C51      C        0.32200    0.40850    0.83521    1.000
    H29      H        0.26610    0.37580    0.84510    1.000
    C52      C        0.29770    0.52200    0.82900    1.000
    H30      H        0.22640    0.56690    0.83570    1.000
    C53      C        0.38200    0.56650    0.81261    1.000
    H31      H        0.36620    0.64300    0.80830    1.000
    C54      C        0.45080    0.21910    0.83496    1.000
    C55      C        0.63290    0.63230    0.91041    1.000
    C56      C        0.57270    0.69130    0.95711    1.000
    C57      C        0.56450    0.63380    0.01251    1.000
    H32      H        0.52690    0.67110    0.04470    1.000
    C58      C        0.61260    0.52070    0.01948    1.000
    H33      H        0.60820    0.48090    0.05630    1.000
    C59      C        0.66690    0.46860    0.97117    1.000
    H34      H        0.69710    0.39220    0.97570    1.000
    C60      C        0.50940    0.81240    0.94899    1.000
    C61      C        0.01940    0.43310    0.87989    1.000
    C62      C        0.09970    0.38890    0.92495    1.000
    C63      C        0.12550    0.46110    0.96131    1.000
    H35      H        0.17520    0.43340    0.99290    1.000
    C64      C        0.07830    0.57320    0.95105    1.000
    H36      H        0.09730    0.62220    0.97430    1.000
    C65      C        0.00210    0.61100    0.90533    1.000
    H37      H        0.97030    0.68680    0.89790    1.000
    C66      C        0.16540    0.26860    0.93454    1.000
    C67      C        0.03590    0.64350    0.69531    1.000
    C68      C        0.10240    0.71360    0.68163    1.000
    C69      C        0.21540    0.66850    0.67553    1.000
    H38      H        0.26050    0.71390    0.66580    1.000
    C70      C        0.26060    0.55560    0.68394    1.000
    H39      H        0.33660    0.52350    0.68060    1.000
    C71      C        0.19110    0.49150    0.69733    1.000
    H40      H        0.22180    0.41530    0.70290    1.000
    C72      C        0.05280    0.83670    0.67290    1.000
    H41      H        0.16700    0.94600    0.93320    1.000
    H42      H        0.11600    0.03300    0.96300    1.000
    H43      H        0.37700    0.05300    0.81990    1.000
    H44      H        0.37100    0.96100    0.82580    1.000
