data_functionalizedCrystal
_audit_creation_method	'EQeq! by Chris Wilmer'
_symmetry_space_group_name_H-M	'P1'
_symmetry_Int_Tables_number	1
_symmetry_cell_setting	triclinic
loop_
_symmetry_equiv_pos_as_xyz
  x,y,z
_cell_length_a	35.8539
_cell_length_b	35.8539
_cell_length_c	15.115
_cell_angle_alpha	90
_cell_angle_beta	90
_cell_angle_gamma	120
loop_
_atom_site_label
_atom_site_type_symbol
_atom_site_fract_x
_atom_site_fract_y
_atom_site_fract_z
_atom_site_charge
Mof_O 	O 	0.5574	0.0382	0.0805	-0.409
Mof_O 	O 	0.56391	0.05056	0.933	-0.411
Mof_C 	C 	0.57828	0.05688	0.0094	0.369
Mof_C 	C 	0.62506	0.08891	0.0237	-0.152
Mof_C 	C 	0.65197	0.1104	0.956	0.104
Mof_H 	H 	0.6414	0.106	0.8985	0.006
Mof_C 	C 	0.69549	0.13914	0.972	-0.199
Mof_H 	H 	0.713	0.1544	0.9245	0.112
Mof_C 	C 	0.71307	0.14566	0.0519	0.152
Mof_C 	C 	0.6852	0.126	0.1227	-0.184
Mof_H 	H 	0.6961	0.1319	0.18	0.095
Mof_C 	C 	0.64175	0.09796	0.1098	0.091
Mof_H 	H 	0.6237	0.0852	0.1581	0.013
Mof_C 	C 	0.75997	0.17261	0.0699	-0.095
Mof_C 	C 	0.7799	0.15419	0.1183	-0.036
Mof_H 	H 	0.7637	0.1256	0.1357	0.043
Mof_H 	H 	0.7702	0.2733	0.096	-0.068
Mof_H 	H 	0.7437	0.3	0.9852	0.25
Mof_O 	O 	0.22407	0.37153	0.41383	-0.409
Mof_O 	O 	0.23058	0.38389	0.26633	-0.411
Mof_C 	C 	0.24495	0.39021	0.34273	0.369
Mof_C 	C 	0.29173	0.42224	0.35703	-0.152
Mof_C 	C 	0.31864	0.44373	0.28933	0.104
Mof_H 	H 	0.30807	0.43933	0.23183	0.006
Mof_C 	C 	0.36216	0.47247	0.30533	-0.198
Mof_H 	H 	0.37967	0.48773	0.25783	0.112
Mof_C 	C 	0.37974	0.47899	0.38523	0.15
Mof_C 	C 	0.35187	0.45933	0.45603	-0.183
Mof_H 	H 	0.36277	0.46523	0.51333	0.095
Mof_C 	C 	0.30842	0.43129	0.44313	0.091
Mof_H 	H 	0.29037	0.41853	0.49143	0.013
Mof_C 	C 	0.42664	0.50594	0.40323	-0.095
Mof_C 	C 	0.44657	0.48752	0.45163	-0.037
Mof_H 	H 	0.43037	0.45893	0.46903	0.043
Mof_H 	H 	0.43687	0.60663	0.42933	-0.068
Mof_H 	H 	0.41037	0.63333	0.31853	0.252
Mof_O 	O 	0.89073	0.70487	0.74717	-0.409
Mof_O 	O 	0.89724	0.71723	0.59967	-0.411
Mof_C 	C 	0.91161	0.72355	0.67607	0.368
Mof_C 	C 	0.95839	0.75558	0.69037	-0.152
Mof_C 	C 	0.9853	0.77707	0.62267	0.103
Mof_H 	H 	0.97473	0.77267	0.56517	0.006
Mof_C 	C 	0.02882	0.80581	0.63867	-0.197
Mof_H 	H 	0.04633	0.82107	0.59117	0.112
Mof_C 	C 	0.0464	0.81233	0.71857	0.15
Mof_C 	C 	0.01853	0.79267	0.78937	-0.183
Mof_H 	H 	0.02943	0.79857	0.84667	0.094
Mof_C 	C 	0.97508	0.76463	0.77647	0.09
Mof_H 	H 	0.95703	0.75187	0.82477	0.013
Mof_C 	C 	0.0933	0.83928	0.73657	-0.094
Mof_C 	C 	0.11323	0.82086	0.78497	-0.037
Mof_H 	H 	0.09703	0.79227	0.80237	0.043
Mof_H 	H 	0.10353	0.93997	0.76267	-0.068
Mof_H 	H 	0.07703	0.96667	0.65187	0.252
Mof_O 	O 	0.9618	0.5192	0.0805	-0.409
Mof_O 	O 	0.94944	0.51335	0.933	-0.411
Mof_C 	C 	0.94312	0.5214	0.0094	0.369
Mof_C 	C 	0.91109	0.53615	0.0237	-0.152
Mof_C 	C 	0.8896	0.54157	0.956	0.104
Mof_H 	H 	0.894	0.5354	0.8985	0.006
Mof_C 	C 	0.86086	0.55635	0.972	-0.198
Mof_H 	H 	0.8456	0.5586	0.9245	0.112
Mof_C 	C 	0.85434	0.56741	0.0519	0.152
Mof_C 	C 	0.874	0.5592	0.1227	-0.183
Mof_H 	H 	0.8681	0.5642	0.18	0.096
Mof_C 	C 	0.90204	0.54379	0.1098	0.092
Mof_H 	H 	0.9148	0.5385	0.1581	0.014
Mof_C 	C 	0.82739	0.58736	0.0699	-0.094
Mof_C 	C 	0.84581	0.62571	0.1183	-0.035
Mof_H 	H 	0.8744	0.6381	0.1357	0.044
Mof_H 	H 	0.7267	0.4969	0.096	-0.067
Mof_H 	H 	0.7	0.4437	0.9852	0.251
Mof_O 	O 	0.62847	0.85253	0.41383	-0.408
Mof_O 	O 	0.61611	0.84668	0.26633	-0.41
Mof_C 	C 	0.60979	0.85473	0.34273	0.37
Mof_C 	C 	0.57776	0.86948	0.35703	-0.151
Mof_C 	C 	0.55627	0.8749	0.28933	0.105
Mof_H 	H 	0.56067	0.86873	0.23183	0.007
Mof_C 	C 	0.52753	0.88968	0.30533	-0.197
Mof_H 	H 	0.51227	0.89193	0.25783	0.113
Mof_C 	C 	0.52101	0.90074	0.38523	0.151
Mof_C 	C 	0.54067	0.89253	0.45603	-0.182
Mof_H 	H 	0.53477	0.89753	0.51333	0.096
Mof_C 	C 	0.56871	0.87712	0.44313	0.092
Mof_H 	H 	0.58147	0.87183	0.49143	0.014
Mof_C 	C 	0.49406	0.92069	0.40323	-0.094
Mof_C 	C 	0.51248	0.95904	0.45163	-0.036
Mof_H 	H 	0.54107	0.97143	0.46903	0.044
Mof_H 	H 	0.39337	0.83023	0.42933	-0.067
Mof_H 	H 	0.36667	0.77703	0.31853	0.253
Mof_O 	O 	0.29513	0.18587	0.74717	-0.408
Mof_O 	O 	0.28277	0.18002	0.59967	-0.41
Mof_C 	C 	0.27645	0.18807	0.67607	0.37
Mof_C 	C 	0.24442	0.20282	0.69037	-0.151
Mof_C 	C 	0.22293	0.20824	0.62267	0.105
Mof_H 	H 	0.22733	0.20207	0.56517	0.007
Mof_C 	C 	0.19419	0.22302	0.63867	-0.197
Mof_H 	H 	0.17893	0.22527	0.59117	0.113
Mof_C 	C 	0.18767	0.23408	0.71857	0.151
Mof_C 	C 	0.20733	0.22587	0.78937	-0.182
Mof_H 	H 	0.20143	0.23087	0.84667	0.096
Mof_C 	C 	0.23537	0.21046	0.77647	0.092
Mof_H 	H 	0.24813	0.20517	0.82477	0.014
Mof_C 	C 	0.16072	0.25403	0.73657	-0.093
Mof_C 	C 	0.17914	0.29238	0.78497	-0.036
Mof_H 	H 	0.20773	0.30477	0.80237	0.044
Mof_H 	H 	0.06003	0.16357	0.76267	-0.067
Mof_H 	H 	0.03333	0.11037	0.65187	0.253
Mof_O 	O 	0.4808	0.4426	0.0805	-0.408
Mof_O 	O 	0.48665	0.43609	0.933	-0.41
Mof_C 	C 	0.4786	0.42172	0.0094	0.37
Mof_C 	C 	0.46385	0.37494	0.0237	-0.151
Mof_C 	C 	0.45843	0.34803	0.956	0.105
Mof_H 	H 	0.4646	0.3586	0.8985	0.007
Mof_C 	C 	0.44365	0.30451	0.972	-0.197
Mof_H 	H 	0.4414	0.287	0.9245	0.113
Mof_C 	C 	0.43259	0.28693	0.0519	0.152
Mof_C 	C 	0.4408	0.3148	0.1227	-0.183
Mof_H 	H 	0.4358	0.3039	0.18	0.096
Mof_C 	C 	0.45621	0.35825	0.1098	0.092
Mof_H 	H 	0.4615	0.3763	0.1581	0.014
Mof_C 	C 	0.41264	0.24003	0.0699	-0.094
Mof_C 	C 	0.37429	0.2201	0.1183	-0.035
Mof_H 	H 	0.3619	0.2363	0.1357	0.044
Mof_H 	H 	0.5031	0.2298	0.096	-0.067
Mof_H 	H 	0.5563	0.2563	0.9852	0.251
Mof_O 	O 	0.14747	0.77593	0.41383	-0.408
Mof_O 	O 	0.15332	0.76942	0.26633	-0.41
Mof_C 	C 	0.14527	0.75505	0.34273	0.37
Mof_C 	C 	0.13052	0.70827	0.35703	-0.151
Mof_C 	C 	0.1251	0.68136	0.28933	0.105
Mof_H 	H 	0.13127	0.69193	0.23183	0.007
Mof_C 	C 	0.11032	0.63784	0.30533	-0.197
Mof_H 	H 	0.10807	0.62033	0.25783	0.113
Mof_C 	C 	0.09926	0.62026	0.38523	0.151
Mof_C 	C 	0.10747	0.64813	0.45603	-0.182
Mof_H 	H 	0.10247	0.63723	0.51333	0.096
Mof_C 	C 	0.12288	0.69158	0.44313	0.092
Mof_H 	H 	0.12817	0.70963	0.49143	0.014
Mof_C 	C 	0.07931	0.57336	0.40323	-0.094
Mof_C 	C 	0.04096	0.55343	0.45163	-0.036
Mof_H 	H 	0.02857	0.56963	0.46903	0.044
Mof_H 	H 	0.16977	0.56313	0.42933	-0.067
Mof_H 	H 	0.22297	0.58963	0.31853	0.253
Mof_O 	O 	0.81413	0.10927	0.74717	-0.408
Mof_O 	O 	0.81998	0.10276	0.59967	-0.41
Mof_C 	C 	0.81193	0.08839	0.67607	0.369
Mof_C 	C 	0.79718	0.04161	0.69037	-0.151
Mof_C 	C 	0.79176	0.0147	0.62267	0.105
Mof_H 	H 	0.79793	0.02527	0.56517	0.007
Mof_C 	C 	0.77698	0.97118	0.63867	-0.196
Mof_H 	H 	0.77473	0.95367	0.59117	0.113
Mof_C 	C 	0.76592	0.9536	0.71857	0.151
Mof_C 	C 	0.77413	0.98147	0.78937	-0.182
Mof_H 	H 	0.76913	0.97057	0.84667	0.096
Mof_C 	C 	0.78954	0.02492	0.77647	0.091
Mof_H 	H 	0.79483	0.04297	0.82477	0.014
Mof_C 	C 	0.74597	0.9067	0.73657	-0.093
Mof_C 	C 	0.70762	0.88677	0.78497	-0.036
Mof_H 	H 	0.69523	0.90297	0.80237	0.044
Mof_H 	H 	0.83643	0.89647	0.76267	-0.067
Mof_H 	H 	0.88963	0.92297	0.65187	0.253
Mof_O 	O 	0.0382	0.5574	0.9195	-0.408
Mof_O 	O 	0.05056	0.56391	0.067	-0.41
Mof_C 	C 	0.05688	0.57828	0.9906	0.37
Mof_C 	C 	0.08891	0.62506	0.9763	-0.151
Mof_C 	C 	0.1104	0.65197	0.044	0.105
Mof_H 	H 	0.106	0.6414	0.1015	0.007
Mof_C 	C 	0.13914	0.69549	0.028	-0.198
Mof_H 	H 	0.1544	0.713	0.0755	0.113
Mof_C 	C 	0.14566	0.71307	0.9481	0.153
Mof_C 	C 	0.126	0.6852	0.8773	-0.183
Mof_H 	H 	0.1319	0.6961	0.82	0.096
Mof_C 	C 	0.09796	0.64175	0.8902	0.092
Mof_H 	H 	0.0852	0.6237	0.8419	0.014
Mof_C 	C 	0.17261	0.75997	0.9301	-0.094
Mof_C 	C 	0.15419	0.7799	0.8817	-0.035
Mof_H 	H 	0.1256	0.7637	0.8643	0.044
Mof_H 	H 	0.2733	0.7702	0.904	-0.067
Mof_H 	H 	0.3	0.7437	0.0148	0.251
Mof_O 	O 	0.70487	0.89073	0.25283	-0.408
Mof_O 	O 	0.71723	0.89724	0.40033	-0.41
Mof_C 	C 	0.72355	0.91161	0.32393	0.369
Mof_C 	C 	0.75558	0.95839	0.30963	-0.151
Mof_C 	C 	0.77707	0.9853	0.37733	0.104
Mof_H 	H 	0.77267	0.97473	0.43483	0.007
Mof_C 	C 	0.80581	0.02882	0.36133	-0.196
Mof_H 	H 	0.82107	0.04633	0.40883	0.113
Mof_C 	C 	0.81233	0.0464	0.28143	0.151
Mof_C 	C 	0.79267	0.01853	0.21063	-0.182
Mof_H 	H 	0.79857	0.02943	0.15333	0.095
Mof_C 	C 	0.76463	0.97508	0.22353	0.091
Mof_H 	H 	0.75187	0.95703	0.17523	0.014
Mof_C 	C 	0.83928	0.0933	0.26343	-0.093
Mof_C 	C 	0.82086	0.11323	0.21503	-0.036
Mof_H 	H 	0.79227	0.09703	0.19763	0.044
Mof_H 	H 	0.93997	0.10353	0.23733	-0.067
Mof_H 	H 	0.96667	0.07703	0.34813	0.253
Mof_O 	O 	0.37153	0.22407	0.58617	-0.408
Mof_O 	O 	0.38389	0.23058	0.73367	-0.41
Mof_C 	C 	0.39021	0.24495	0.65727	0.37
Mof_C 	C 	0.42224	0.29173	0.64297	-0.151
Mof_C 	C 	0.44373	0.31864	0.71067	0.105
Mof_H 	H 	0.43933	0.30807	0.76817	0.007
Mof_C 	C 	0.47247	0.36216	0.69467	-0.197
Mof_H 	H 	0.48773	0.37967	0.74217	0.113
Mof_C 	C 	0.47899	0.37974	0.61477	0.151
Mof_C 	C 	0.45933	0.35187	0.54397	-0.182
Mof_H 	H 	0.46523	0.36277	0.48667	0.096
Mof_C 	C 	0.43129	0.30842	0.55687	0.092
Mof_H 	H 	0.41853	0.29037	0.50857	0.014
Mof_C 	C 	0.50594	0.42664	0.59677	-0.094
Mof_C 	C 	0.48752	0.44657	0.54837	-0.036
Mof_H 	H 	0.45893	0.43037	0.53097	0.044
Mof_H 	H 	0.60663	0.43687	0.57067	-0.067
Mof_H 	H 	0.63333	0.41037	0.68147	0.253
Mof_O 	O 	0.5192	0.9618	0.9195	-0.408
Mof_O 	O 	0.51335	0.94944	0.067	-0.41
Mof_C 	C 	0.5214	0.94312	0.9906	0.37
Mof_C 	C 	0.53615	0.91109	0.9763	-0.151
Mof_C 	C 	0.54157	0.8896	0.044	0.105
Mof_H 	H 	0.5354	0.894	0.1015	0.007
Mof_C 	C 	0.55635	0.86086	0.028	-0.197
Mof_H 	H 	0.5586	0.8456	0.0755	0.113
Mof_C 	C 	0.56741	0.85434	0.9481	0.152
Mof_C 	C 	0.5592	0.874	0.8773	-0.183
Mof_H 	H 	0.5642	0.8681	0.82	0.096
Mof_C 	C 	0.54379	0.90204	0.8902	0.092
Mof_H 	H 	0.5385	0.9148	0.8419	0.014
Mof_C 	C 	0.58736	0.82739	0.9301	-0.094
Mof_C 	C 	0.62571	0.84581	0.8817	-0.035
Mof_H 	H 	0.6381	0.8744	0.8643	0.044
Mof_H 	H 	0.4969	0.7267	0.904	-0.067
Mof_H 	H 	0.4437	0.7	0.0148	0.251
Mof_O 	O 	0.18587	0.29513	0.25283	-0.408
Mof_O 	O 	0.18002	0.28277	0.40033	-0.41
Mof_C 	C 	0.18807	0.27645	0.32393	0.37
Mof_C 	C 	0.20282	0.24442	0.30963	-0.151
Mof_C 	C 	0.20824	0.22293	0.37733	0.105
Mof_H 	H 	0.20207	0.22733	0.43483	0.007
Mof_C 	C 	0.22302	0.19419	0.36133	-0.197
Mof_H 	H 	0.22527	0.17893	0.40883	0.113
Mof_C 	C 	0.23408	0.18767	0.28143	0.151
Mof_C 	C 	0.22587	0.20733	0.21063	-0.182
Mof_H 	H 	0.23087	0.20143	0.15333	0.096
Mof_C 	C 	0.21046	0.23537	0.22353	0.092
Mof_H 	H 	0.20517	0.24813	0.17523	0.014
Mof_C 	C 	0.25403	0.16072	0.26343	-0.093
Mof_C 	C 	0.29238	0.17914	0.21503	-0.036
Mof_H 	H 	0.30477	0.20773	0.19763	0.044
Mof_H 	H 	0.16357	0.06003	0.23733	-0.067
Mof_H 	H 	0.11037	0.03333	0.34813	0.253
Mof_O 	O 	0.85253	0.62847	0.58617	-0.408
Mof_O 	O 	0.84668	0.61611	0.73367	-0.41
Mof_C 	C 	0.85473	0.60979	0.65727	0.37
Mof_C 	C 	0.86948	0.57776	0.64297	-0.151
Mof_C 	C 	0.8749	0.55627	0.71067	0.105
Mof_H 	H 	0.86873	0.56067	0.76817	0.007
Mof_C 	C 	0.88968	0.52753	0.69467	-0.197
Mof_H 	H 	0.89193	0.51227	0.74217	0.113
Mof_C 	C 	0.90074	0.52101	0.61477	0.151
Mof_C 	C 	0.89253	0.54067	0.54397	-0.182
Mof_H 	H 	0.89753	0.53477	0.48667	0.096
Mof_C 	C 	0.87712	0.56871	0.55687	0.092
Mof_H 	H 	0.87183	0.58147	0.50857	0.014
Mof_C 	C 	0.92069	0.49406	0.59677	-0.094
Mof_C 	C 	0.95904	0.51248	0.54837	-0.036
Mof_H 	H 	0.97143	0.54107	0.53097	0.044
Mof_H 	H 	0.83023	0.39337	0.57067	-0.067
Mof_H 	H 	0.77703	0.36667	0.68147	0.253
Mof_O 	O 	0.4426	0.4808	0.9195	-0.408
Mof_O 	O 	0.43609	0.48665	0.067	-0.41
Mof_C 	C 	0.42172	0.4786	0.9906	0.37
Mof_C 	C 	0.37494	0.46385	0.9763	-0.151
Mof_C 	C 	0.34803	0.45843	0.044	0.105
Mof_H 	H 	0.3586	0.4646	0.1015	0.007
Mof_C 	C 	0.30451	0.44365	0.028	-0.197
Mof_H 	H 	0.287	0.4414	0.0755	0.113
Mof_C 	C 	0.28693	0.43259	0.9481	0.152
Mof_C 	C 	0.3148	0.4408	0.8773	-0.183
Mof_H 	H 	0.3039	0.4358	0.82	0.096
Mof_C 	C 	0.35825	0.45621	0.8902	0.092
Mof_H 	H 	0.3763	0.4615	0.8419	0.014
Mof_C 	C 	0.24003	0.41264	0.9301	-0.094
Mof_C 	C 	0.2201	0.37429	0.8817	-0.035
Mof_H 	H 	0.2363	0.3619	0.8643	0.044
Mof_H 	H 	0.2298	0.5031	0.904	-0.067
Mof_H 	H 	0.2563	0.5563	0.0148	0.251
Mof_O 	O 	0.10927	0.81413	0.25283	-0.408
Mof_O 	O 	0.10276	0.81998	0.40033	-0.41
Mof_C 	C 	0.08839	0.81193	0.32393	0.369
Mof_C 	C 	0.04161	0.79718	0.30963	-0.151
Mof_C 	C 	0.0147	0.79176	0.37733	0.105
Mof_H 	H 	0.02527	0.79793	0.43483	0.007
Mof_C 	C 	0.97118	0.77698	0.36133	-0.196
Mof_H 	H 	0.95367	0.77473	0.40883	0.113
Mof_C 	C 	0.9536	0.76592	0.28143	0.151
Mof_C 	C 	0.98147	0.77413	0.21063	-0.182
Mof_H 	H 	0.97057	0.76913	0.15333	0.096
Mof_C 	C 	0.02492	0.78954	0.22353	0.091
Mof_H 	H 	0.04297	0.79483	0.17523	0.014
Mof_C 	C 	0.9067	0.74597	0.26343	-0.093
Mof_C 	C 	0.88677	0.70762	0.21503	-0.036
Mof_H 	H 	0.90297	0.69523	0.19763	0.044
Mof_H 	H 	0.89647	0.83643	0.23733	-0.067
Mof_H 	H 	0.92297	0.88963	0.34813	0.253
Mof_O 	O 	0.77593	0.14747	0.58617	-0.408
Mof_O 	O 	0.76942	0.15332	0.73367	-0.41
Mof_C 	C 	0.75505	0.14527	0.65727	0.37
Mof_C 	C 	0.70827	0.13052	0.64297	-0.151
Mof_C 	C 	0.68136	0.1251	0.71067	0.105
Mof_H 	H 	0.69193	0.13127	0.76817	0.007
Mof_C 	C 	0.63784	0.11032	0.69467	-0.197
Mof_H 	H 	0.62033	0.10807	0.74217	0.113
Mof_C 	C 	0.62026	0.09926	0.61477	0.151
Mof_C 	C 	0.64813	0.10747	0.54397	-0.182
Mof_H 	H 	0.63723	0.10247	0.48667	0.096
Mof_C 	C 	0.69158	0.12288	0.55687	0.092
Mof_H 	H 	0.70963	0.12817	0.50857	0.014
Mof_C 	C 	0.57336	0.07931	0.59677	-0.094
Mof_C 	C 	0.55343	0.04096	0.54837	-0.036
Mof_H 	H 	0.56963	0.02857	0.53097	0.044
Mof_H 	H 	0.56313	0.16977	0.57067	-0.067
Mof_H 	H 	0.58963	0.22297	0.68147	0.253
Mof_O 	O 	0.4426	0.9618	0.9195	-0.408
Mof_O 	O 	0.43609	0.94944	0.067	-0.41
Mof_C 	C 	0.42172	0.94312	0.9906	0.37
Mof_C 	C 	0.37494	0.91109	0.9763	-0.151
Mof_C 	C 	0.34803	0.8896	0.044	0.105
Mof_H 	H 	0.3586	0.894	0.1015	0.007
Mof_C 	C 	0.30451	0.86086	0.028	-0.198
Mof_H 	H 	0.287	0.8456	0.0755	0.113
Mof_C 	C 	0.28693	0.85434	0.9481	0.153
Mof_C 	C 	0.3148	0.874	0.8773	-0.183
Mof_H 	H 	0.3039	0.8681	0.82	0.096
Mof_C 	C 	0.35825	0.90204	0.8902	0.092
Mof_H 	H 	0.3763	0.9148	0.8419	0.014
Mof_C 	C 	0.24003	0.82739	0.9301	-0.094
Mof_C 	C 	0.2201	0.84581	0.8817	-0.035
Mof_H 	H 	0.2363	0.8744	0.8643	0.044
Mof_H 	H 	0.2298	0.7267	0.904	-0.067
Mof_H 	H 	0.2563	0.7	0.0148	0.251
Mof_O 	O 	0.10927	0.29513	0.25283	-0.408
Mof_O 	O 	0.10276	0.28277	0.40033	-0.41
Mof_C 	C 	0.08839	0.27645	0.32393	0.369
Mof_C 	C 	0.04161	0.24442	0.30963	-0.151
Mof_C 	C 	0.0147	0.22293	0.37733	0.104
Mof_H 	H 	0.02527	0.22733	0.43483	0.007
Mof_C 	C 	0.97118	0.19419	0.36133	-0.196
Mof_H 	H 	0.95367	0.17893	0.40883	0.113
Mof_C 	C 	0.9536	0.18767	0.28143	0.151
Mof_C 	C 	0.98147	0.20733	0.21063	-0.182
Mof_H 	H 	0.97057	0.20143	0.15333	0.095
Mof_C 	C 	0.02492	0.23537	0.22353	0.091
Mof_H 	H 	0.04297	0.24813	0.17523	0.014
Mof_C 	C 	0.9067	0.16072	0.26343	-0.093
Mof_C 	C 	0.88677	0.17914	0.21503	-0.036
Mof_H 	H 	0.90297	0.20773	0.19763	0.044
Mof_H 	H 	0.89647	0.06003	0.23733	-0.067
Mof_H 	H 	0.92297	0.03333	0.34813	0.253
Mof_O 	O 	0.77593	0.62847	0.58617	-0.408
Mof_O 	O 	0.76942	0.61611	0.73367	-0.41
Mof_C 	C 	0.75505	0.60979	0.65727	0.37
Mof_C 	C 	0.70827	0.57776	0.64297	-0.151
Mof_C 	C 	0.68136	0.55627	0.71067	0.105
Mof_H 	H 	0.69193	0.56067	0.76817	0.007
Mof_C 	C 	0.63784	0.52753	0.69467	-0.197
Mof_H 	H 	0.62033	0.51227	0.74217	0.113
Mof_C 	C 	0.62026	0.52101	0.61477	0.151
Mof_C 	C 	0.64813	0.54067	0.54397	-0.182
Mof_H 	H 	0.63723	0.53477	0.48667	0.096
Mof_C 	C 	0.69158	0.56871	0.55687	0.092
Mof_H 	H 	0.70963	0.58147	0.50857	0.014
Mof_C 	C 	0.57336	0.49406	0.59677	-0.094
Mof_C 	C 	0.55343	0.51248	0.54837	-0.036
Mof_H 	H 	0.56963	0.54107	0.53097	0.044
Mof_H 	H 	0.56313	0.39337	0.57067	-0.067
Mof_H 	H 	0.58963	0.36667	0.68147	0.253
Mof_O 	O 	0.0382	0.4808	0.9195	-0.408
Mof_O 	O 	0.05056	0.48665	0.067	-0.41
Mof_C 	C 	0.05688	0.4786	0.9906	0.37
Mof_C 	C 	0.08891	0.46385	0.9763	-0.151
Mof_C 	C 	0.1104	0.45843	0.044	0.105
Mof_H 	H 	0.106	0.4646	0.1015	0.007
Mof_C 	C 	0.13914	0.44365	0.028	-0.197
Mof_H 	H 	0.1544	0.4414	0.0755	0.113
Mof_C 	C 	0.14566	0.43259	0.9481	0.152
Mof_C 	C 	0.126	0.4408	0.8773	-0.183
Mof_H 	H 	0.1319	0.4358	0.82	0.096
Mof_C 	C 	0.09796	0.45621	0.8902	0.092
Mof_H 	H 	0.0852	0.4615	0.8419	0.014
Mof_C 	C 	0.17261	0.41264	0.9301	-0.094
Mof_C 	C 	0.15419	0.37429	0.8817	-0.035
Mof_H 	H 	0.1256	0.3619	0.8643	0.044
Mof_H 	H 	0.2733	0.5031	0.904	-0.067
Mof_H 	H 	0.3	0.5563	0.0148	0.251
Mof_O 	O 	0.70487	0.81413	0.25283	-0.408
Mof_O 	O 	0.71723	0.81998	0.40033	-0.41
Mof_C 	C 	0.72355	0.81193	0.32393	0.37
Mof_C 	C 	0.75558	0.79718	0.30963	-0.151
Mof_C 	C 	0.77707	0.79176	0.37733	0.105
Mof_H 	H 	0.77267	0.79793	0.43483	0.007
Mof_C 	C 	0.80581	0.77698	0.36133	-0.197
Mof_H 	H 	0.82107	0.77473	0.40883	0.113
Mof_C 	C 	0.81233	0.76592	0.28143	0.151
Mof_C 	C 	0.79267	0.77413	0.21063	-0.182
Mof_H 	H 	0.79857	0.76913	0.15333	0.096
Mof_C 	C 	0.76463	0.78954	0.22353	0.092
Mof_H 	H 	0.75187	0.79483	0.17523	0.014
Mof_C 	C 	0.83928	0.74597	0.26343	-0.093
Mof_C 	C 	0.82086	0.70762	0.21503	-0.036
Mof_H 	H 	0.79227	0.69523	0.19763	0.044
Mof_H 	H 	0.93997	0.83643	0.23733	-0.067
Mof_H 	H 	0.96667	0.88963	0.34813	0.253
Mof_O 	O 	0.37153	0.14747	0.58617	-0.408
Mof_O 	O 	0.38389	0.15332	0.73367	-0.41
Mof_C 	C 	0.39021	0.14527	0.65727	0.37
Mof_C 	C 	0.42224	0.13052	0.64297	-0.151
Mof_C 	C 	0.44373	0.1251	0.71067	0.105
Mof_H 	H 	0.43933	0.13127	0.76817	0.007
Mof_C 	C 	0.47247	0.11032	0.69467	-0.197
Mof_H 	H 	0.48773	0.10807	0.74217	0.113
Mof_C 	C 	0.47899	0.09926	0.61477	0.151
Mof_C 	C 	0.45933	0.10747	0.54397	-0.182
Mof_H 	H 	0.46523	0.10247	0.48667	0.096
Mof_C 	C 	0.43129	0.12288	0.55687	0.092
Mof_H 	H 	0.41853	0.12817	0.50857	0.014
Mof_C 	C 	0.50594	0.07931	0.59677	-0.094
Mof_C 	C 	0.48752	0.04096	0.54837	-0.036
Mof_H 	H 	0.45893	0.02857	0.53097	0.044
Mof_H 	H 	0.60663	0.16977	0.57067	-0.067
Mof_H 	H 	0.63333	0.22297	0.68147	0.253
Mof_O 	O 	0.5192	0.5574	0.9195	-0.408
Mof_O 	O 	0.51335	0.56391	0.067	-0.41
Mof_C 	C 	0.5214	0.57828	0.9906	0.37
Mof_C 	C 	0.53615	0.62506	0.9763	-0.151
Mof_C 	C 	0.54157	0.65197	0.044	0.105
Mof_H 	H 	0.5354	0.6414	0.1015	0.007
Mof_C 	C 	0.55635	0.69549	0.028	-0.197
Mof_H 	H 	0.5586	0.713	0.0755	0.113
Mof_C 	C 	0.56741	0.71307	0.9481	0.152
Mof_C 	C 	0.5592	0.6852	0.8773	-0.183
Mof_H 	H 	0.5642	0.6961	0.82	0.096
Mof_C 	C 	0.54379	0.64175	0.8902	0.092
Mof_H 	H 	0.5385	0.6237	0.8419	0.014
Mof_C 	C 	0.58736	0.75997	0.9301	-0.094
Mof_C 	C 	0.62571	0.7799	0.8817	-0.035
Mof_H 	H 	0.6381	0.7637	0.8643	0.044
Mof_H 	H 	0.4969	0.7702	0.904	-0.067
Mof_H 	H 	0.4437	0.7437	0.0148	0.251
Mof_O 	O 	0.18587	0.89073	0.25283	-0.408
Mof_O 	O 	0.18002	0.89724	0.40033	-0.41
Mof_C 	C 	0.18807	0.91161	0.32393	0.369
Mof_C 	C 	0.20282	0.95839	0.30963	-0.151
Mof_C 	C 	0.20824	0.9853	0.37733	0.105
Mof_H 	H 	0.20207	0.97473	0.43483	0.007
Mof_C 	C 	0.22302	0.02882	0.36133	-0.196
Mof_H 	H 	0.22527	0.04633	0.40883	0.113
Mof_C 	C 	0.23408	0.0464	0.28143	0.151
Mof_C 	C 	0.22587	0.01853	0.21063	-0.182
Mof_H 	H 	0.23087	0.02943	0.15333	0.096
Mof_C 	C 	0.21046	0.97508	0.22353	0.091
Mof_H 	H 	0.20517	0.95703	0.17523	0.014
Mof_C 	C 	0.25403	0.0933	0.26343	-0.093
Mof_C 	C 	0.29238	0.11323	0.21503	-0.036
Mof_H 	H 	0.30477	0.09703	0.19763	0.044
Mof_H 	H 	0.16357	0.10353	0.23733	-0.067
Mof_H 	H 	0.11037	0.07703	0.34813	0.253
Mof_O 	O 	0.85253	0.22407	0.58617	-0.408
Mof_O 	O 	0.84668	0.23058	0.73367	-0.41
Mof_C 	C 	0.85473	0.24495	0.65727	0.37
Mof_C 	C 	0.86948	0.29173	0.64297	-0.151
Mof_C 	C 	0.8749	0.31864	0.71067	0.105
Mof_H 	H 	0.86873	0.30807	0.76817	0.007
Mof_C 	C 	0.88968	0.36216	0.69467	-0.197
Mof_H 	H 	0.89193	0.37967	0.74217	0.113
Mof_C 	C 	0.90074	0.37974	0.61477	0.151
Mof_C 	C 	0.89253	0.35187	0.54397	-0.182
Mof_H 	H 	0.89753	0.36277	0.48667	0.096
Mof_C 	C 	0.87712	0.30842	0.55687	0.092
Mof_H 	H 	0.87183	0.29037	0.50857	0.014
Mof_C 	C 	0.92069	0.42664	0.59677	-0.094
Mof_C 	C 	0.95904	0.44657	0.54837	-0.036
Mof_H 	H 	0.97143	0.43037	0.53097	0.044
Mof_H 	H 	0.83023	0.43687	0.57067	-0.067
Mof_H 	H 	0.77703	0.41037	0.68147	0.253
Mof_O 	O 	0.9618	0.4426	0.0805	-0.408
Mof_O 	O 	0.94944	0.43609	0.933	-0.41
Mof_C 	C 	0.94312	0.42172	0.0094	0.37
Mof_C 	C 	0.91109	0.37494	0.0237	-0.151
Mof_C 	C 	0.8896	0.34803	0.956	0.105
Mof_H 	H 	0.894	0.3586	0.8985	0.007
Mof_C 	C 	0.86086	0.30451	0.972	-0.198
Mof_H 	H 	0.8456	0.287	0.9245	0.113
Mof_C 	C 	0.85434	0.28693	0.0519	0.153
Mof_C 	C 	0.874	0.3148	0.1227	-0.183
Mof_H 	H 	0.8681	0.3039	0.18	0.096
Mof_C 	C 	0.90204	0.35825	0.1098	0.092
Mof_H 	H 	0.9148	0.3763	0.1581	0.014
Mof_C 	C 	0.82739	0.24003	0.0699	-0.094
Mof_C 	C 	0.84581	0.2201	0.1183	-0.035
Mof_H 	H 	0.8744	0.2363	0.1357	0.044
Mof_H 	H 	0.7267	0.2298	0.096	-0.067
Mof_H 	H 	0.7	0.2563	0.9852	0.251
Mof_O 	O 	0.62847	0.77593	0.41383	-0.408
Mof_O 	O 	0.61611	0.76942	0.26633	-0.41
Mof_C 	C 	0.60979	0.75505	0.34273	0.37
Mof_C 	C 	0.57776	0.70827	0.35703	-0.151
Mof_C 	C 	0.55627	0.68136	0.28933	0.105
Mof_H 	H 	0.56067	0.69193	0.23183	0.007
Mof_C 	C 	0.52753	0.63784	0.30533	-0.197
Mof_H 	H 	0.51227	0.62033	0.25783	0.113
Mof_C 	C 	0.52101	0.62026	0.38523	0.151
Mof_C 	C 	0.54067	0.64813	0.45603	-0.182
Mof_H 	H 	0.53477	0.63723	0.51333	0.096
Mof_C 	C 	0.56871	0.69158	0.44313	0.092
Mof_H 	H 	0.58147	0.70963	0.49143	0.014
Mof_C 	C 	0.49406	0.57336	0.40323	-0.094
Mof_C 	C 	0.51248	0.55343	0.45163	-0.036
Mof_H 	H 	0.54107	0.56963	0.46903	0.044
Mof_H 	H 	0.39337	0.56313	0.42933	-0.067
Mof_H 	H 	0.36667	0.58963	0.31853	0.253
Mof_O 	O 	0.29513	0.10927	0.74717	-0.408
Mof_O 	O 	0.28277	0.10276	0.59967	-0.41
Mof_C 	C 	0.27645	0.08839	0.67607	0.369
Mof_C 	C 	0.24442	0.04161	0.69037	-0.151
Mof_C 	C 	0.22293	0.0147	0.62267	0.104
Mof_H 	H 	0.22733	0.02527	0.56517	0.007
Mof_C 	C 	0.19419	0.97118	0.63867	-0.196
Mof_H 	H 	0.17893	0.95367	0.59117	0.113
Mof_C 	C 	0.18767	0.9536	0.71857	0.151
Mof_C 	C 	0.20733	0.98147	0.78937	-0.182
Mof_H 	H 	0.20143	0.97057	0.84667	0.095
Mof_C 	C 	0.23537	0.02492	0.77647	0.091
Mof_H 	H 	0.24813	0.04297	0.82477	0.014
Mof_C 	C 	0.16072	0.9067	0.73657	-0.093
Mof_C 	C 	0.17914	0.88677	0.78497	-0.036
Mof_H 	H 	0.20773	0.90297	0.80237	0.044
Mof_H 	H 	0.06003	0.89647	0.76267	-0.067
Mof_H 	H 	0.03333	0.92297	0.65187	0.253
Mof_O 	O 	0.4808	0.0382	0.0805	-0.408
Mof_O 	O 	0.48665	0.05056	0.933	-0.41
Mof_C 	C 	0.4786	0.05688	0.0094	0.37
Mof_C 	C 	0.46385	0.08891	0.0237	-0.151
Mof_C 	C 	0.45843	0.1104	0.956	0.105
Mof_H 	H 	0.4646	0.106	0.8985	0.007
Mof_C 	C 	0.44365	0.13914	0.972	-0.197
Mof_H 	H 	0.4414	0.1544	0.9245	0.113
Mof_C 	C 	0.43259	0.14566	0.0519	0.152
Mof_C 	C 	0.4408	0.126	0.1227	-0.183
Mof_H 	H 	0.4358	0.1319	0.18	0.096
Mof_C 	C 	0.45621	0.09796	0.1098	0.092
Mof_H 	H 	0.4615	0.0852	0.1581	0.014
Mof_C 	C 	0.41264	0.17261	0.0699	-0.094
Mof_C 	C 	0.37429	0.15419	0.1183	-0.035
Mof_H 	H 	0.3619	0.1256	0.1357	0.044
Mof_H 	H 	0.5031	0.2733	0.096	-0.067
Mof_H 	H 	0.5563	0.3	0.9852	0.251
Mof_O 	O 	0.14747	0.37153	0.41383	-0.408
Mof_O 	O 	0.15332	0.38389	0.26633	-0.41
Mof_C 	C 	0.14527	0.39021	0.34273	0.37
Mof_C 	C 	0.13052	0.42224	0.35703	-0.151
Mof_C 	C 	0.1251	0.44373	0.28933	0.105
Mof_H 	H 	0.13127	0.43933	0.23183	0.007
Mof_C 	C 	0.11032	0.47247	0.30533	-0.197
Mof_H 	H 	0.10807	0.48773	0.25783	0.113
Mof_C 	C 	0.09926	0.47899	0.38523	0.151
Mof_C 	C 	0.10747	0.45933	0.45603	-0.182
Mof_H 	H 	0.10247	0.46523	0.51333	0.096
Mof_C 	C 	0.12288	0.43129	0.44313	0.092
Mof_H 	H 	0.12817	0.41853	0.49143	0.014
Mof_C 	C 	0.07931	0.50594	0.40323	-0.094
Mof_C 	C 	0.04096	0.48752	0.45163	-0.036
Mof_H 	H 	0.02857	0.45893	0.46903	0.044
Mof_H 	H 	0.16977	0.60663	0.42933	-0.067
Mof_H 	H 	0.22297	0.63333	0.31853	0.253
Mof_O 	O 	0.81413	0.70487	0.74717	-0.408
Mof_O 	O 	0.81998	0.71723	0.59967	-0.41
Mof_C 	C 	0.81193	0.72355	0.67607	0.37
Mof_C 	C 	0.79718	0.75558	0.69037	-0.151
Mof_C 	C 	0.79176	0.77707	0.62267	0.105
Mof_H 	H 	0.79793	0.77267	0.56517	0.007
Mof_C 	C 	0.77698	0.80581	0.63867	-0.197
Mof_H 	H 	0.77473	0.82107	0.59117	0.113
Mof_C 	C 	0.76592	0.81233	0.71857	0.151
Mof_C 	C 	0.77413	0.79267	0.78937	-0.182
Mof_H 	H 	0.76913	0.79857	0.84667	0.096
Mof_C 	C 	0.78954	0.76463	0.77647	0.092
Mof_H 	H 	0.79483	0.75187	0.82477	0.014
Mof_C 	C 	0.74597	0.83928	0.73657	-0.093
Mof_C 	C 	0.70762	0.82086	0.78497	-0.036
Mof_H 	H 	0.69523	0.79227	0.80237	0.044
Mof_H 	H 	0.83643	0.93997	0.76267	-0.067
Mof_H 	H 	0.88963	0.96667	0.65187	0.253
Mof_O 	O 	0.5574	0.5192	0.0805	-0.408
Mof_O 	O 	0.56391	0.51335	0.933	-0.41
Mof_C 	C 	0.57828	0.5214	0.0094	0.37
Mof_C 	C 	0.62506	0.53615	0.0237	-0.151
Mof_C 	C 	0.65197	0.54157	0.956	0.105
Mof_H 	H 	0.6414	0.5354	0.8985	0.007
Mof_C 	C 	0.69549	0.55635	0.972	-0.197
Mof_H 	H 	0.713	0.5586	0.9245	0.113
Mof_C 	C 	0.71307	0.56741	0.0519	0.152
Mof_C 	C 	0.6852	0.5592	0.1227	-0.183
Mof_H 	H 	0.6961	0.5642	0.18	0.096
Mof_C 	C 	0.64175	0.54379	0.1098	0.092
Mof_H 	H 	0.6237	0.5385	0.1581	0.014
Mof_C 	C 	0.75997	0.58736	0.0699	-0.094
Mof_C 	C 	0.7799	0.62571	0.1183	-0.035
Mof_H 	H 	0.7637	0.6381	0.1357	0.044
Mof_H 	H 	0.7702	0.4969	0.096	-0.067
Mof_H 	H 	0.7437	0.4437	0.9852	0.251
Mof_O 	O 	0.22407	0.85253	0.41383	-0.408
Mof_O 	O 	0.23058	0.84668	0.26633	-0.41
Mof_C 	C 	0.24495	0.85473	0.34273	0.37
Mof_C 	C 	0.29173	0.86948	0.35703	-0.151
Mof_C 	C 	0.31864	0.8749	0.28933	0.105
Mof_H 	H 	0.30807	0.86873	0.23183	0.007
Mof_C 	C 	0.36216	0.88968	0.30533	-0.197
Mof_H 	H 	0.37967	0.89193	0.25783	0.113
Mof_C 	C 	0.37974	0.90074	0.38523	0.151
Mof_C 	C 	0.35187	0.89253	0.45603	-0.182
Mof_H 	H 	0.36277	0.89753	0.51333	0.096
Mof_C 	C 	0.30842	0.87712	0.44313	0.092
Mof_H 	H 	0.29037	0.87183	0.49143	0.014
Mof_C 	C 	0.42664	0.92069	0.40323	-0.094
Mof_C 	C 	0.44657	0.95904	0.45163	-0.036
Mof_H 	H 	0.43037	0.97143	0.46903	0.044
Mof_H 	H 	0.43687	0.83023	0.42933	-0.067
Mof_H 	H 	0.41037	0.77703	0.31853	0.253
Mof_O 	O 	0.89073	0.18587	0.74717	-0.408
Mof_O 	O 	0.89724	0.18002	0.59967	-0.41
Mof_C 	C 	0.91161	0.18807	0.67607	0.369
Mof_C 	C 	0.95839	0.20282	0.69037	-0.151
Mof_C 	C 	0.9853	0.20824	0.62267	0.105
Mof_H 	H 	0.97473	0.20207	0.56517	0.007
Mof_C 	C 	0.02882	0.22302	0.63867	-0.196
Mof_H 	H 	0.04633	0.22527	0.59117	0.113
Mof_C 	C 	0.0464	0.23408	0.71857	0.151
Mof_C 	C 	0.01853	0.22587	0.78937	-0.182
Mof_H 	H 	0.02943	0.23087	0.84667	0.096
Mof_C 	C 	0.97508	0.21046	0.77647	0.091
Mof_H 	H 	0.95703	0.20517	0.82477	0.014
Mof_C 	C 	0.0933	0.25403	0.73657	-0.093
Mof_C 	C 	0.11323	0.29238	0.78497	-0.036
Mof_H 	H 	0.09703	0.30477	0.80237	0.044
Mof_H 	H 	0.10353	0.16357	0.76267	-0.067
Mof_H 	H 	0.07703	0.11037	0.65187	0.253
Mof_Cu	Cu	0.50335	0.0067	0.91397	0.903
Mof_Cu	Cu	0.17002	0.34003	0.2473	0.903
Mof_Cu	Cu	0.83668	0.67337	0.58064	0.903
Mof_Cu	Cu	0.9933	0.49665	0.91397	0.903
Mof_Cu	Cu	0.65997	0.82998	0.2473	0.903
Mof_Cu	Cu	0.32663	0.16332	0.58064	0.903
Mof_Cu	Cu	0.50335	0.49665	0.91397	0.903
Mof_Cu	Cu	0.17002	0.82998	0.2473	0.903
Mof_Cu	Cu	0.83668	0.16332	0.58064	0.903
Mof_Cu	Cu	0.0067	0.50335	0.08603	0.903
Mof_Cu	Cu	0.67337	0.83668	0.41936	0.903
Mof_Cu	Cu	0.34003	0.17002	0.7527	0.903
Mof_Cu	Cu	0.49665	0.9933	0.08603	0.903
Mof_Cu	Cu	0.16332	0.32663	0.41936	0.903
Mof_Cu	Cu	0.82998	0.65997	0.7527	0.903
Mof_Cu	Cu	0.49665	0.50335	0.08603	0.903
Mof_Cu	Cu	0.16332	0.83668	0.41936	0.903
Mof_Cu	Cu	0.82998	0.17002	0.7527	0.903
Mof_O 	O 	0.76537	0.23463	0.9966	-0.276
Mof_C 	C 	0.82287	0.17713	0.1411	0
Mof_C 	C 	0.78438	0.21562	0.046	0.161
Mof_C 	C 	0.7471	0.2529	0.0583	0.337
Mof_C 	C 	0.724	0.276	0.0209	-0.762
Mof_H 	H 	0.7138	0.2862	0.0688	0.243
Mof_O 	O 	0.43204	0.56796	0.32993	-0.276
Mof_C 	C 	0.48954	0.51046	0.47443	0.001
Mof_C 	C 	0.45105	0.54895	0.37933	0.16
Mof_C 	C 	0.41377	0.58623	0.39163	0.339
Mof_C 	C 	0.39067	0.60933	0.35423	-0.768
Mof_H 	H 	0.38047	0.61953	0.40213	0.245
Mof_O 	O 	0.0987	0.9013	0.66327	-0.276
Mof_C 	C 	0.1562	0.8438	0.80777	0.001
Mof_C 	C 	0.11771	0.88229	0.71267	0.159
Mof_C 	C 	0.08043	0.91957	0.72497	0.339
Mof_C 	C 	0.05733	0.94267	0.68757	-0.768
Mof_H 	H 	0.04713	0.95287	0.73547	0.245
Mof_O 	O 	0.76537	0.53074	0.9966	-0.276
Mof_C 	C 	0.82287	0.64574	0.1411	0.001
Mof_C 	C 	0.78438	0.56876	0.046	0.16
Mof_C 	C 	0.7471	0.4942	0.0583	0.337
Mof_C 	C 	0.724	0.448	0.0209	-0.763
Mof_H 	H 	0.7138	0.4276	0.0688	0.243
Mof_O 	O 	0.43204	0.86407	0.32993	-0.276
Mof_C 	C 	0.48954	0.97907	0.47443	0.001
Mof_C 	C 	0.45105	0.90209	0.37933	0.16
Mof_C 	C 	0.41377	0.82753	0.39163	0.339
Mof_C 	C 	0.39067	0.78133	0.35423	-0.768
Mof_H 	H 	0.38047	0.76093	0.40213	0.245
Mof_O 	O 	0.0987	0.19741	0.66327	-0.276
Mof_C 	C 	0.1562	0.31241	0.80777	0.001
Mof_C 	C 	0.11771	0.23543	0.71267	0.16
Mof_C 	C 	0.08043	0.16087	0.72497	0.339
Mof_C 	C 	0.05733	0.11467	0.68757	-0.768
Mof_H 	H 	0.04713	0.09427	0.73547	0.245
Mof_O 	O 	0.46926	0.23463	0.9966	-0.276
Mof_C 	C 	0.35426	0.17713	0.1411	0.001
Mof_C 	C 	0.43124	0.21562	0.046	0.16
Mof_C 	C 	0.5058	0.2529	0.0583	0.337
Mof_C 	C 	0.552	0.276	0.0209	-0.763
Mof_H 	H 	0.5724	0.2862	0.0688	0.243
Mof_O 	O 	0.13593	0.56796	0.32993	-0.276
Mof_C 	C 	0.02093	0.51046	0.47443	0.001
Mof_C 	C 	0.09791	0.54895	0.37933	0.16
Mof_C 	C 	0.17247	0.58623	0.39163	0.339
Mof_C 	C 	0.21867	0.60933	0.35423	-0.768
Mof_H 	H 	0.23907	0.61953	0.40213	0.245
Mof_O 	O 	0.80259	0.9013	0.66327	-0.276
Mof_C 	C 	0.68759	0.8438	0.80777	0.001
Mof_C 	C 	0.76457	0.88229	0.71267	0.16
Mof_C 	C 	0.83913	0.91957	0.72497	0.339
Mof_C 	C 	0.88533	0.94267	0.68757	-0.768
Mof_H 	H 	0.90573	0.95287	0.73547	0.245
Mof_O 	O 	0.23463	0.76537	0.0034	-0.276
Mof_C 	C 	0.17713	0.82287	0.8589	0
Mof_C 	C 	0.21562	0.78438	0.954	0.161
Mof_C 	C 	0.2529	0.7471	0.9417	0.337
Mof_C 	C 	0.276	0.724	0.9791	-0.762
Mof_H 	H 	0.2862	0.7138	0.9312	0.243
Mof_O 	O 	0.9013	0.0987	0.33673	-0.276
Mof_C 	C 	0.8438	0.1562	0.19223	0.001
Mof_C 	C 	0.88229	0.11771	0.28733	0.159
Mof_C 	C 	0.91957	0.08043	0.27503	0.339
Mof_C 	C 	0.94267	0.05733	0.31243	-0.768
Mof_H 	H 	0.95287	0.04713	0.26453	0.245
Mof_O 	O 	0.56796	0.43204	0.67007	-0.276
Mof_C 	C 	0.51046	0.48954	0.52557	0.001
Mof_C 	C 	0.54895	0.45105	0.62067	0.16
Mof_C 	C 	0.58623	0.41377	0.60837	0.339
Mof_C 	C 	0.60933	0.39067	0.64577	-0.768
Mof_H 	H 	0.61953	0.38047	0.59787	0.245
Mof_O 	O 	0.53074	0.76537	0.0034	-0.276
Mof_C 	C 	0.64574	0.82287	0.8589	0.001
Mof_C 	C 	0.56876	0.78438	0.954	0.16
Mof_C 	C 	0.4942	0.7471	0.9417	0.337
Mof_C 	C 	0.448	0.724	0.9791	-0.763
Mof_H 	H 	0.4276	0.7138	0.9312	0.243
Mof_O 	O 	0.19741	0.0987	0.33673	-0.276
Mof_C 	C 	0.31241	0.1562	0.19223	0.001
Mof_C 	C 	0.23543	0.11771	0.28733	0.16
Mof_C 	C 	0.16087	0.08043	0.27503	0.339
Mof_C 	C 	0.11467	0.05733	0.31243	-0.768
Mof_H 	H 	0.09427	0.04713	0.26453	0.245
Mof_O 	O 	0.86407	0.43204	0.67007	-0.276
Mof_C 	C 	0.97907	0.48954	0.52557	0.001
Mof_C 	C 	0.90209	0.45105	0.62067	0.16
Mof_C 	C 	0.82753	0.41377	0.60837	0.339
Mof_C 	C 	0.78133	0.39067	0.64577	-0.768
Mof_H 	H 	0.76093	0.38047	0.59787	0.245
Mof_O 	O 	0.23463	0.46926	0.0034	-0.276
Mof_C 	C 	0.17713	0.35426	0.8589	0.001
Mof_C 	C 	0.21562	0.43124	0.954	0.16
Mof_C 	C 	0.2529	0.5058	0.9417	0.337
Mof_C 	C 	0.276	0.552	0.9791	-0.763
Mof_H 	H 	0.2862	0.5724	0.9312	0.243
Mof_O 	O 	0.9013	0.80259	0.33673	-0.276
Mof_C 	C 	0.8438	0.68759	0.19223	0.001
Mof_C 	C 	0.88229	0.76457	0.28733	0.16
Mof_C 	C 	0.91957	0.83913	0.27503	0.339
Mof_C 	C 	0.94267	0.88533	0.31243	-0.768
Mof_H 	H 	0.95287	0.90573	0.26453	0.245
Mof_O 	O 	0.56796	0.13593	0.67007	-0.276
Mof_C 	C 	0.51046	0.02093	0.52557	0.001
Mof_C 	C 	0.54895	0.09791	0.62067	0.16
Mof_C 	C 	0.58623	0.17247	0.60837	0.339
Mof_C 	C 	0.60933	0.21867	0.64577	-0.768
Mof_H 	H 	0.61953	0.23907	0.59787	0.245
_end
