data_functionalizedCrystal
_audit_creation_method	'EQeq! by Chris Wilmer'
_symmetry_space_group_name_H-M	'P1'
_symmetry_Int_Tables_number	1
_symmetry_cell_setting	triclinic
loop_
_symmetry_equiv_pos_as_xyz
  x,y,z
_cell_length_a	9.437
_cell_length_b	15.378
_cell_length_c	13.319
_cell_angle_alpha	90
_cell_angle_beta	106.383
_cell_angle_gamma	90
loop_
_atom_site_label
_atom_site_type_symbol
_atom_site_fract_x
_atom_site_fract_y
_atom_site_fract_z
_atom_site_charge
Mof_C 	C 	0.0636	0.1891	0.1357	0.324
Mof_C 	C 	0.0624	0.2559	0.2182	-0.088
Mof_C 	C 	0.9359	0.2649	0.2516	0.035
Mof_H 	H 	0.8549	0.2291	0.224	0.059
Mof_C 	C 	0.9304	0.3275	0.3262	-0.086
Mof_C 	C 	0.7922	0.3344	0.3635	0.341
Mof_C 	C 	0.0518	0.3801	0.3676	0.054
Mof_H 	H 	0.0475	0.4228	0.4162	0.054
Mof_C 	C 	0.18	0.3695	0.3373	-0.121
Mof_C 	C 	0.1839	0.3081	0.2625	0.055
Mof_H 	H 	0.2693	0.3016	0.2415	0.055
Mof_C 	C 	0.3128	0.4239	0.3882	0.427
Mof_O 	O 	0.9646	0.1336	0.1118	-0.32
Mof_O 	O 	0.1682	0.1922	0.0936	-0.405
Mof_O 	O 	0.4363	0.3965	0.3822	-0.466
Mof_O 	O 	0.2914	0.4904	0.4356	-0.475
Mof_O 	O 	0.7855	0.3994	0.42	-0.412
Mof_O 	O 	0.6952	0.2784	0.3365	-0.267
Mof_Zn	Zn	0.12617	0.09632	0.98868	1.238
Mof_C 	C 	0.4364	0.6891	0.3643	0.326
Mof_C 	C 	0.4376	0.7559	0.2818	-0.088
Mof_C 	C 	0.5641	0.7649	0.2484	0.035
Mof_H 	H 	0.6451	0.7291	0.276	0.058
Mof_C 	C 	0.5696	0.8275	0.1738	-0.088
Mof_C 	C 	0.7078	0.8344	0.1365	0.341
Mof_C 	C 	0.4482	0.8801	0.1324	0.056
Mof_H 	H 	0.4525	0.9228	0.0838	0.053
Mof_C 	C 	0.32	0.8695	0.1627	-0.121
Mof_C 	C 	0.3161	0.8081	0.2375	0.055
Mof_H 	H 	0.2307	0.8016	0.2585	0.055
Mof_C 	C 	0.1872	0.9239	0.1118	0.426
Mof_O 	O 	0.5354	0.6336	0.3882	-0.322
Mof_O 	O 	0.3318	0.6922	0.4064	-0.408
Mof_O 	O 	0.0637	0.8965	0.1178	-0.463
Mof_O 	O 	0.2086	0.9904	0.0644	-0.473
Mof_O 	O 	0.7145	0.8994	0.08	-0.415
Mof_O 	O 	0.8048	0.7784	0.1635	-0.271
Mof_Zn	Zn	0.37383	0.59632	0.51132	1.241
Mof_C 	C 	0.9364	0.8109	0.8643	0.325
Mof_C 	C 	0.9376	0.7441	0.7818	-0.087
Mof_C 	C 	0.0641	0.7351	0.7484	0.035
Mof_H 	H 	0.1451	0.7709	0.776	0.059
Mof_C 	C 	0.0696	0.6725	0.6738	-0.086
Mof_C 	C 	0.2078	0.6656	0.6365	0.341
Mof_C 	C 	0.9482	0.6199	0.6324	0.054
Mof_H 	H 	0.9525	0.5772	0.5838	0.054
Mof_C 	C 	0.82	0.6305	0.6627	-0.121
Mof_C 	C 	0.8161	0.6919	0.7375	0.055
Mof_H 	H 	0.7307	0.6984	0.7585	0.055
Mof_C 	C 	0.6872	0.5761	0.6118	0.427
Mof_O 	O 	0.0354	0.8664	0.8882	-0.32
Mof_O 	O 	0.8318	0.8078	0.9064	-0.405
Mof_O 	O 	0.5637	0.6035	0.6178	-0.466
Mof_O 	O 	0.7086	0.5096	0.5644	-0.475
Mof_O 	O 	0.2145	0.6006	0.58	-0.412
Mof_O 	O 	0.3048	0.7216	0.6635	-0.267
Mof_Zn	Zn	0.87383	0.90368	0.01132	1.238
Mof_C 	C 	0.5636	0.3109	0.6357	0.326
Mof_C 	C 	0.5624	0.2441	0.7182	-0.088
Mof_C 	C 	0.4359	0.2351	0.7516	0.035
Mof_H 	H 	0.3549	0.2709	0.724	0.058
Mof_C 	C 	0.4304	0.1725	0.8262	-0.088
Mof_C 	C 	0.2922	0.1656	0.8635	0.341
Mof_C 	C 	0.5518	0.1199	0.8676	0.056
Mof_H 	H 	0.5475	0.0772	0.9162	0.053
Mof_C 	C 	0.68	0.1305	0.8373	-0.121
Mof_C 	C 	0.6839	0.1919	0.7625	0.055
Mof_H 	H 	0.7693	0.1984	0.7415	0.055
Mof_C 	C 	0.8128	0.0761	0.8882	0.426
Mof_O 	O 	0.4646	0.3664	0.6118	-0.322
Mof_O 	O 	0.6682	0.3078	0.5936	-0.408
Mof_O 	O 	0.9363	0.1035	0.8822	-0.463
Mof_O 	O 	0.7914	0.0096	0.9356	-0.473
Mof_O 	O 	0.2855	0.1006	0.92	-0.415
Mof_O 	O 	0.1952	0.2216	0.8365	-0.271
Mof_Zn	Zn	0.62617	0.40368	0.48868	1.241
_end
