# CIF file generated by openbabel 3.1.0, see https://openbabel.org
data_I
_chemical_name_common 'image0'
_cell_length_a 22.805
_cell_length_b 22.805
_cell_length_c 44.0727
_cell_angle_alpha 90
_cell_angle_beta 90
_cell_angle_gamma 90
_space_group_name_H-M_alt 'P 1'
_space_group_name_Hall 'P 1'
loop_
    _symmetry_equiv_pos_as_xyz
    x,y,z
loop_
    _atom_site_label
    _atom_site_type_symbol
    _atom_site_fract_x
    _atom_site_fract_y
    _atom_site_fract_z
    _atom_site_occupancy
    Cu1      Cu       0.55582    0.48451    0.36105    1.000
    O1       O        0.53220    0.42960    0.33004    1.000
    O2       O        0.43470    0.45550    0.32993    1.000
    O3       O        0.07030    0.03290    0.89206    1.000
    O4       O        0.04305    0.93870    0.89259    1.000
    N1       N        0.43190    0.25440    0.22840    1.000
    N2       N        0.37660    0.25230    0.21410    1.000
    N3       N        0.38140    0.21100    0.19400    1.000
    N4       N        0.27570    0.89150    0.03250    1.000
    N5       N        0.23370    0.89040    0.01330    1.000
    N6       N        0.24230    0.93520    0.99593    1.000
    C1       C        0.47730    0.42460    0.32022    1.000
    C2       C        0.46520    0.37850    0.29707    1.000
    C3       C        0.50870    0.34650    0.28690    1.000
    H1       H        0.54600    0.35100    0.29511    1.000
    C4       C        0.49980    0.30720    0.26450    1.000
    H2       H        0.53115    0.28485    0.25748    1.000
    C5       C        0.44790    0.29970    0.25240    1.000
    C6       C        0.39930    0.33200    0.26180    1.000
    H3       H        0.36232    0.32719    0.25328    1.000
    C7       C        0.40990    0.37160    0.28470    1.000
    H4       H        0.37914    0.39422    0.29206    1.000
    C8       C        0.46650    0.21530    0.21370    1.000
    H5       H        0.50647    0.21021    0.21696    1.000
    C9       C        0.43310    0.18450    0.19330    1.000
    C10      C        0.45230    0.13930    0.17346    1.000
    C11      C        0.50780    0.11460    0.17375    1.000
    H6       H        0.53560    0.12782    0.18759    1.000
    C12      C        0.52130    0.07270    0.15458    1.000
    H7       H        0.55882    0.05687    0.15550    1.000
    C13      C        0.48150    0.04990    0.13228    1.000
    C14      C        0.42660    0.07440    0.13250    1.000
    H8       H        0.39767    0.05948    0.11977    1.000
    C15      C        0.41370    0.12230    0.15190    1.000
    H9       H        0.37834    0.14219    0.14982    1.000
    C16      C        0.44830    0.98290    0.08983    1.000
    C17      C        0.42340    0.92870    0.08913    1.000
    H10      H        0.43728    0.90075    0.10271    1.000
    C18      C        0.37910    0.91240    0.06981    1.000
    H11      H        0.36448    0.87435    0.07041    1.000
    C19      C        0.35680    0.95160    0.04990    1.000
    C20      C        0.38090    0.00950    0.04813    1.000
    H12      H        0.36610    0.03775    0.03499    1.000
    C21      C        0.42910    0.02080    0.06786    1.000
    H13      H        0.44875    0.05631    0.06569    1.000
    C22      C        0.30550    0.94030    0.02900    1.000
    C23      C        0.28310    0.97010    0.00668    1.000
    H14      H        0.29362    0.00723    0.99991    1.000
    C24      C        0.20060    0.94400    0.97310    1.000
    C25      C        0.16200    0.90370    0.96135    1.000
    H15      H        0.16253    0.86616    0.96956    1.000
    C26      C        0.12180    0.91480    0.93777    1.000
    H16      H        0.09757    0.88512    0.93059    1.000
    C27      C        0.11900    0.96960    0.92569    1.000
    C28      C        0.15760    0.01300    0.93543    1.000
    H17      H        0.15750    0.04963    0.92615    1.000
    C29      C        0.19710    0.00110    0.95973    1.000
    H18      H        0.22117    0.03090    0.96698    1.000
    C30      C        0.07510    0.98020    0.90170    1.000
    Cu2      Cu       0.44418    0.51549    0.36105    1.000
    O5       O        0.46780    0.57040    0.33004    1.000
    O6       O        0.56530    0.54450    0.32993    1.000
    O7       O        0.92970    0.96710    0.89206    1.000
    O8       O        0.95695    0.06130    0.89259    1.000
    N7       N        0.56810    0.74560    0.22840    1.000
    N8       N        0.62340    0.74770    0.21410    1.000
    N9       N        0.61860    0.78900    0.19400    1.000
    N10      N        0.72430    0.10850    0.03250    1.000
    N11      N        0.76630    0.10960    0.01330    1.000
    N12      N        0.75770    0.06480    0.99593    1.000
    C31      C        0.52270    0.57540    0.32022    1.000
    C32      C        0.53480    0.62150    0.29707    1.000
    C33      C        0.49130    0.65350    0.28690    1.000
    H19      H        0.45400    0.64900    0.29511    1.000
    C34      C        0.50020    0.69280    0.26450    1.000
    H20      H        0.46885    0.71515    0.25748    1.000
    C35      C        0.55210    0.70030    0.25240    1.000
    C36      C        0.60070    0.66800    0.26180    1.000
    H21      H        0.63768    0.67281    0.25328    1.000
    C37      C        0.59010    0.62840    0.28470    1.000
    H22      H        0.62086    0.60578    0.29206    1.000
    C38      C        0.53350    0.78470    0.21370    1.000
    H23      H        0.49353    0.78979    0.21696    1.000
    C39      C        0.56690    0.81550    0.19330    1.000
    C40      C        0.54770    0.86070    0.17346    1.000
    C41      C        0.49220    0.88540    0.17375    1.000
    H24      H        0.46440    0.87218    0.18759    1.000
    C42      C        0.47870    0.92730    0.15458    1.000
    H25      H        0.44118    0.94313    0.15550    1.000
    C43      C        0.51850    0.95010    0.13228    1.000
    C44      C        0.57340    0.92560    0.13250    1.000
    H26      H        0.60233    0.94052    0.11977    1.000
    C45      C        0.58630    0.87770    0.15190    1.000
    H27      H        0.62166    0.85781    0.14982    1.000
    C46      C        0.55170    0.01710    0.08983    1.000
    C47      C        0.57660    0.07130    0.08913    1.000
    H28      H        0.56272    0.09925    0.10271    1.000
    C48      C        0.62090    0.08760    0.06981    1.000
    H29      H        0.63552    0.12565    0.07041    1.000
    C49      C        0.64320    0.04840    0.04990    1.000
    C50      C        0.61910    0.99050    0.04813    1.000
    H30      H        0.63390    0.96225    0.03499    1.000
    C51      C        0.57090    0.97920    0.06786    1.000
    H31      H        0.55125    0.94369    0.06569    1.000
    C52      C        0.69450    0.05970    0.02900    1.000
    C53      C        0.71690    0.02990    0.00668    1.000
    H32      H        0.70638    0.99277    0.99991    1.000
    C54      C        0.79940    0.05600    0.97310    1.000
    C55      C        0.83800    0.09630    0.96135    1.000
    H33      H        0.83747    0.13384    0.96956    1.000
    C56      C        0.87820    0.08520    0.93777    1.000
    H34      H        0.90243    0.11488    0.93059    1.000
    C57      C        0.88100    0.03040    0.92569    1.000
    C58      C        0.84240    0.98700    0.93543    1.000
    H35      H        0.84250    0.95037    0.92615    1.000
    C59      C        0.80290    0.99890    0.95973    1.000
    H36      H        0.77883    0.96910    0.96698    1.000
    C60      C        0.92490    0.01980    0.90170    1.000
    Cu3      Cu       0.01549    0.05582    0.86105    1.000
    O9       O        0.07040    0.03220    0.83004    1.000
    O10      O        0.04450    0.93470    0.82993    1.000
    O11      O        0.46710    0.57030    0.39206    1.000
    O12      O        0.56130    0.54305    0.39259    1.000
    N13      N        0.24560    0.93190    0.72840    1.000
    N14      N        0.24770    0.87660    0.71410    1.000
    N15      N        0.28900    0.88140    0.69400    1.000
    N16      N        0.60850    0.77570    0.53250    1.000
    N17      N        0.60960    0.73370    0.51330    1.000
    N18      N        0.56480    0.74230    0.49593    1.000
    C61      C        0.07540    0.97730    0.82022    1.000
    C62      C        0.12150    0.96520    0.79707    1.000
    C63      C        0.15350    0.00870    0.78690    1.000
    H37      H        0.14900    0.04600    0.79511    1.000
    C64      C        0.19280    0.99980    0.76450    1.000
    H38      H        0.21515    0.03115    0.75748    1.000
    C65      C        0.20030    0.94790    0.75240    1.000
    C66      C        0.16800    0.89930    0.76180    1.000
    H39      H        0.17281    0.86232    0.75328    1.000
    C67      C        0.12840    0.90990    0.78470    1.000
    H40      H        0.10578    0.87914    0.79206    1.000
    C68      C        0.28470    0.96650    0.71370    1.000
    H41      H        0.28979    0.00647    0.71696    1.000
    C69      C        0.31550    0.93310    0.69330    1.000
    C70      C        0.36070    0.95230    0.67346    1.000
    C71      C        0.38540    0.00780    0.67375    1.000
    H42      H        0.37218    0.03560    0.68759    1.000
    C72      C        0.42730    0.02130    0.65458    1.000
    H43      H        0.44313    0.05882    0.65550    1.000
    C73      C        0.45010    0.98150    0.63228    1.000
    C74      C        0.42560    0.92660    0.63250    1.000
    H44      H        0.44052    0.89767    0.61977    1.000
    C75      C        0.37770    0.91370    0.65190    1.000
    H45      H        0.35781    0.87834    0.64982    1.000
    C76      C        0.51710    0.94830    0.58983    1.000
    C77      C        0.57130    0.92340    0.58913    1.000
    H46      H        0.59925    0.93728    0.60271    1.000
    C78      C        0.58760    0.87910    0.56981    1.000
    H47      H        0.62565    0.86448    0.57041    1.000
    C79      C        0.54840    0.85680    0.54990    1.000
    C80      C        0.49050    0.88090    0.54813    1.000
    H48      H        0.46225    0.86610    0.53499    1.000
    C81      C        0.47920    0.92910    0.56786    1.000
    H49      H        0.44369    0.94875    0.56569    1.000
    C82      C        0.55970    0.80550    0.52900    1.000
    C83      C        0.52990    0.78310    0.50668    1.000
    H50      H        0.49277    0.79362    0.49991    1.000
    C84      C        0.55600    0.70060    0.47310    1.000
    C85      C        0.59630    0.66200    0.46135    1.000
    H51      H        0.63384    0.66253    0.46956    1.000
    C86      C        0.58520    0.62180    0.43777    1.000
    H52      H        0.61488    0.59757    0.43059    1.000
    C87      C        0.53040    0.61900    0.42569    1.000
    C88      C        0.48700    0.65760    0.43543    1.000
    H53      H        0.45037    0.65750    0.42615    1.000
    C89      C        0.49890    0.69710    0.45973    1.000
    H54      H        0.46910    0.72117    0.46698    1.000
    C90      C        0.51980    0.57510    0.40170    1.000
    Cu4      Cu       0.98451    0.94418    0.86105    1.000
    O13      O        0.92960    0.96780    0.83004    1.000
    O14      O        0.95550    0.06530    0.82993    1.000
    O15      O        0.53290    0.42970    0.39206    1.000
    O16      O        0.43870    0.45695    0.39259    1.000
    N19      N        0.75440    0.06810    0.72840    1.000
    N20      N        0.75230    0.12340    0.71410    1.000
    N21      N        0.71100    0.11860    0.69400    1.000
    N22      N        0.39150    0.22430    0.53250    1.000
    N23      N        0.39040    0.26630    0.51330    1.000
    N24      N        0.43520    0.25770    0.49593    1.000
    C91      C        0.92460    0.02270    0.82022    1.000
    C92      C        0.87850    0.03480    0.79707    1.000
    C93      C        0.84650    0.99130    0.78690    1.000
    H55      H        0.85100    0.95400    0.79511    1.000
    C94      C        0.80720    0.00020    0.76450    1.000
    H56      H        0.78485    0.96885    0.75748    1.000
    C95      C        0.79970    0.05210    0.75240    1.000
    C96      C        0.83200    0.10070    0.76180    1.000
    H57      H        0.82719    0.13768    0.75328    1.000
    C97      C        0.87160    0.09010    0.78470    1.000
    H58      H        0.89422    0.12086    0.79206    1.000
    C98      C        0.71530    0.03350    0.71370    1.000
    H59      H        0.71021    0.99353    0.71696    1.000
    C99      C        0.68450    0.06690    0.69330    1.000
    C100     C        0.63930    0.04770    0.67346    1.000
    C101     C        0.61460    0.99220    0.67375    1.000
    H60      H        0.62782    0.96440    0.68759    1.000
    C102     C        0.57270    0.97870    0.65458    1.000
    H61      H        0.55687    0.94118    0.65550    1.000
    C103     C        0.54990    0.01850    0.63228    1.000
    C104     C        0.57440    0.07340    0.63250    1.000
    H62      H        0.55948    0.10233    0.61977    1.000
    C105     C        0.62230    0.08630    0.65190    1.000
    H63      H        0.64219    0.12166    0.64982    1.000
    C106     C        0.48290    0.05170    0.58983    1.000
    C107     C        0.42870    0.07660    0.58913    1.000
    H64      H        0.40075    0.06272    0.60271    1.000
    C108     C        0.41240    0.12090    0.56981    1.000
    H65      H        0.37435    0.13552    0.57041    1.000
    C109     C        0.45160    0.14320    0.54990    1.000
    C110     C        0.50950    0.11910    0.54813    1.000
    H66      H        0.53775    0.13390    0.53499    1.000
    C111     C        0.52080    0.07090    0.56786    1.000
    H67      H        0.55631    0.05125    0.56569    1.000
    C112     C        0.44030    0.19450    0.52900    1.000
    C113     C        0.47010    0.21690    0.50668    1.000
    H68      H        0.50723    0.20638    0.49991    1.000
    C114     C        0.44400    0.29940    0.47310    1.000
    C115     C        0.40370    0.33800    0.46135    1.000
    H69      H        0.36616    0.33747    0.46956    1.000
    C116     C        0.41480    0.37820    0.43777    1.000
    H70      H        0.38512    0.40243    0.43059    1.000
    C117     C        0.46960    0.38100    0.42569    1.000
    C118     C        0.51300    0.34240    0.43543    1.000
    H71      H        0.54963    0.34250    0.42615    1.000
    C119     C        0.50110    0.30290    0.45973    1.000
    H72      H        0.53090    0.27883    0.46698    1.000
    C120     C        0.48020    0.42490    0.40170    1.000
    C121     C        0.50000    0.00000    0.11010    1.000
    C122     C        0.50000    0.00000    0.61010    1.000
    Cu5      Cu       0.94418    0.98451    0.13895    1.000
    O17      O        0.96780    0.92960    0.16996    1.000
    O18      O        0.06530    0.95550    0.17007    1.000
    O19      O        0.42970    0.53290    0.60794    1.000
    O20      O        0.45695    0.43870    0.60741    1.000
    N25      N        0.06810    0.75440    0.27160    1.000
    N26      N        0.12340    0.75230    0.28590    1.000
    N27      N        0.11860    0.71100    0.30600    1.000
    N28      N        0.22430    0.39150    0.46750    1.000
    N29      N        0.26630    0.39040    0.48670    1.000
    N30      N        0.25770    0.43520    0.50407    1.000
    C123     C        0.02270    0.92460    0.17978    1.000
    C124     C        0.03480    0.87850    0.20293    1.000
    C125     C        0.99130    0.84650    0.21310    1.000
    H73      H        0.95400    0.85100    0.20489    1.000
    C126     C        0.00020    0.80720    0.23550    1.000
    H74      H        0.96885    0.78485    0.24252    1.000
    C127     C        0.05210    0.79970    0.24760    1.000
    C128     C        0.10070    0.83200    0.23820    1.000
    H75      H        0.13768    0.82719    0.24672    1.000
    C129     C        0.09010    0.87160    0.21530    1.000
    H76      H        0.12086    0.89422    0.20794    1.000
    C130     C        0.03350    0.71530    0.28630    1.000
    H77      H        0.99353    0.71021    0.28304    1.000
    C131     C        0.06690    0.68450    0.30670    1.000
    C132     C        0.04770    0.63930    0.32654    1.000
    C133     C        0.99220    0.61460    0.32625    1.000
    H78      H        0.96440    0.62782    0.31241    1.000
    C134     C        0.97870    0.57270    0.34542    1.000
    H79      H        0.94118    0.55687    0.34450    1.000
    C135     C        0.01850    0.54990    0.36772    1.000
    C136     C        0.07340    0.57440    0.36750    1.000
    H80      H        0.10233    0.55948    0.38023    1.000
    C137     C        0.08630    0.62230    0.34810    1.000
    H81      H        0.12166    0.64219    0.35018    1.000
    C138     C        0.05170    0.48290    0.41017    1.000
    C139     C        0.07660    0.42870    0.41087    1.000
    H82      H        0.06272    0.40075    0.39729    1.000
    C140     C        0.12090    0.41240    0.43019    1.000
    H83      H        0.13552    0.37435    0.42959    1.000
    C141     C        0.14320    0.45160    0.45010    1.000
    C142     C        0.11910    0.50950    0.45187    1.000
    H84      H        0.13390    0.53775    0.46501    1.000
    C143     C        0.07090    0.52080    0.43214    1.000
    H85      H        0.05125    0.55631    0.43431    1.000
    C144     C        0.19450    0.44030    0.47100    1.000
    C145     C        0.21690    0.47010    0.49332    1.000
    H86      H        0.20638    0.50723    0.50009    1.000
    C146     C        0.29940    0.44400    0.52690    1.000
    C147     C        0.33800    0.40370    0.53865    1.000
    H87      H        0.33747    0.36616    0.53044    1.000
    C148     C        0.37820    0.41480    0.56223    1.000
    H88      H        0.40243    0.38512    0.56941    1.000
    C149     C        0.38100    0.46960    0.57431    1.000
    C150     C        0.34240    0.51300    0.56457    1.000
    H89      H        0.34250    0.54963    0.57385    1.000
    C151     C        0.30290    0.50110    0.54027    1.000
    H90      H        0.27883    0.53090    0.53302    1.000
    C152     C        0.42490    0.48020    0.59830    1.000
    Cu6      Cu       0.05582    0.01549    0.13895    1.000
    O21      O        0.03220    0.07040    0.16996    1.000
    O22      O        0.93470    0.04450    0.17007    1.000
    O23      O        0.57030    0.46710    0.60794    1.000
    O24      O        0.54305    0.56130    0.60741    1.000
    N31      N        0.93190    0.24560    0.27160    1.000
    N32      N        0.87660    0.24770    0.28590    1.000
    N33      N        0.88140    0.28900    0.30600    1.000
    N34      N        0.77570    0.60850    0.46750    1.000
    N35      N        0.73370    0.60960    0.48670    1.000
    N36      N        0.74230    0.56480    0.50407    1.000
    C153     C        0.97730    0.07540    0.17978    1.000
    C154     C        0.96520    0.12150    0.20293    1.000
    C155     C        0.00870    0.15350    0.21310    1.000
    H91      H        0.04600    0.14900    0.20489    1.000
    C156     C        0.99980    0.19280    0.23550    1.000
    H92      H        0.03115    0.21515    0.24252    1.000
    C157     C        0.94790    0.20030    0.24760    1.000
    C158     C        0.89930    0.16800    0.23820    1.000
    H93      H        0.86232    0.17281    0.24672    1.000
    C159     C        0.90990    0.12840    0.21530    1.000
    H94      H        0.87914    0.10578    0.20794    1.000
    C160     C        0.96650    0.28470    0.28630    1.000
    H95      H        0.00647    0.28979    0.28304    1.000
    C161     C        0.93310    0.31550    0.30670    1.000
    C162     C        0.95230    0.36070    0.32654    1.000
    C163     C        0.00780    0.38540    0.32625    1.000
    H96      H        0.03560    0.37218    0.31241    1.000
    C164     C        0.02130    0.42730    0.34542    1.000
    H97      H        0.05882    0.44313    0.34450    1.000
    C165     C        0.98150    0.45010    0.36772    1.000
    C166     C        0.92660    0.42560    0.36750    1.000
    H98      H        0.89767    0.44052    0.38023    1.000
    C167     C        0.91370    0.37770    0.34810    1.000
    H99      H        0.87834    0.35781    0.35018    1.000
    C168     C        0.94830    0.51710    0.41017    1.000
    C169     C        0.92340    0.57130    0.41087    1.000
    H100     H        0.93728    0.59925    0.39729    1.000
    C170     C        0.87910    0.58760    0.43019    1.000
    H101     H        0.86448    0.62565    0.42959    1.000
    C171     C        0.85680    0.54840    0.45010    1.000
    C172     C        0.88090    0.49050    0.45187    1.000
    H102     H        0.86610    0.46225    0.46501    1.000
    C173     C        0.92910    0.47920    0.43214    1.000
    H103     H        0.94875    0.44369    0.43431    1.000
    C174     C        0.80550    0.55970    0.47100    1.000
    C175     C        0.78310    0.52990    0.49332    1.000
    H104     H        0.79362    0.49277    0.50009    1.000
    C176     C        0.70060    0.55600    0.52690    1.000
    C177     C        0.66200    0.59630    0.53865    1.000
    H105     H        0.66253    0.63384    0.53044    1.000
    C178     C        0.62180    0.58520    0.56223    1.000
    H106     H        0.59757    0.61488    0.56941    1.000
    C179     C        0.61900    0.53040    0.57431    1.000
    C180     C        0.65760    0.48700    0.56457    1.000
    H107     H        0.65750    0.45037    0.57385    1.000
    C181     C        0.69710    0.49890    0.54027    1.000
    H108     H        0.72117    0.46910    0.53302    1.000
    C182     C        0.57510    0.51980    0.59830    1.000
    Cu7      Cu       0.48451    0.55582    0.63895    1.000
    O25      O        0.42960    0.53220    0.66996    1.000
    O26      O        0.45550    0.43470    0.67007    1.000
    O27      O        0.03290    0.07030    0.10794    1.000
    O28      O        0.93870    0.04305    0.10741    1.000
    N37      N        0.25440    0.43190    0.77160    1.000
    N38      N        0.25230    0.37660    0.78590    1.000
    N39      N        0.21100    0.38140    0.80600    1.000
    N40      N        0.89150    0.27570    0.96750    1.000
    N41      N        0.89040    0.23370    0.98670    1.000
    N42      N        0.93520    0.24230    0.00407    1.000
    C183     C        0.42460    0.47730    0.67978    1.000
    C184     C        0.37850    0.46520    0.70293    1.000
    C185     C        0.34650    0.50870    0.71310    1.000
    H109     H        0.35100    0.54600    0.70489    1.000
    C186     C        0.30720    0.49980    0.73550    1.000
    H110     H        0.28485    0.53115    0.74252    1.000
    C187     C        0.29970    0.44790    0.74760    1.000
    C188     C        0.33200    0.39930    0.73820    1.000
    H111     H        0.32719    0.36232    0.74672    1.000
    C189     C        0.37160    0.40990    0.71530    1.000
    H112     H        0.39422    0.37914    0.70794    1.000
    C190     C        0.21530    0.46650    0.78630    1.000
    H113     H        0.21021    0.50647    0.78304    1.000
    C191     C        0.18450    0.43310    0.80670    1.000
    C192     C        0.13930    0.45230    0.82654    1.000
    C193     C        0.11460    0.50780    0.82625    1.000
    H114     H        0.12782    0.53560    0.81241    1.000
    C194     C        0.07270    0.52130    0.84542    1.000
    H115     H        0.05687    0.55882    0.84450    1.000
    C195     C        0.04990    0.48150    0.86772    1.000
    C196     C        0.07440    0.42660    0.86750    1.000
    H116     H        0.05948    0.39767    0.88023    1.000
    C197     C        0.12230    0.41370    0.84810    1.000
    H117     H        0.14219    0.37834    0.85018    1.000
    C198     C        0.98290    0.44830    0.91017    1.000
    C199     C        0.92870    0.42340    0.91087    1.000
    H118     H        0.90075    0.43728    0.89729    1.000
    C200     C        0.91240    0.37910    0.93019    1.000
    H119     H        0.87435    0.36448    0.92959    1.000
    C201     C        0.95160    0.35680    0.95010    1.000
    C202     C        0.00950    0.38090    0.95187    1.000
    H120     H        0.03775    0.36610    0.96501    1.000
    C203     C        0.02080    0.42910    0.93214    1.000
    H121     H        0.05631    0.44875    0.93431    1.000
    C204     C        0.94030    0.30550    0.97100    1.000
    C205     C        0.97010    0.28310    0.99332    1.000
    H122     H        0.00723    0.29362    0.00009    1.000
    C206     C        0.94400    0.20060    0.02690    1.000
    C207     C        0.90370    0.16200    0.03865    1.000
    H123     H        0.86616    0.16253    0.03044    1.000
    C208     C        0.91480    0.12180    0.06223    1.000
    H124     H        0.88512    0.09757    0.06941    1.000
    C209     C        0.96960    0.11900    0.07431    1.000
    C210     C        0.01300    0.15760    0.06457    1.000
    H125     H        0.04963    0.15750    0.07385    1.000
    C211     C        0.00110    0.19710    0.04027    1.000
    H126     H        0.03090    0.22117    0.03302    1.000
    C212     C        0.98020    0.07510    0.09830    1.000
    Cu8      Cu       0.51549    0.44418    0.63895    1.000
    O29      O        0.57040    0.46780    0.66996    1.000
    O30      O        0.54450    0.56530    0.67007    1.000
    O31      O        0.96710    0.92970    0.10794    1.000
    O32      O        0.06130    0.95695    0.10741    1.000
    N43      N        0.74560    0.56810    0.77160    1.000
    N44      N        0.74770    0.62340    0.78590    1.000
    N45      N        0.78900    0.61860    0.80600    1.000
    N46      N        0.10850    0.72430    0.96750    1.000
    N47      N        0.10960    0.76630    0.98670    1.000
    N48      N        0.06480    0.75770    0.00407    1.000
    C213     C        0.57540    0.52270    0.67978    1.000
    C214     C        0.62150    0.53480    0.70293    1.000
    C215     C        0.65350    0.49130    0.71310    1.000
    H127     H        0.64900    0.45400    0.70489    1.000
    C216     C        0.69280    0.50020    0.73550    1.000
    H128     H        0.71515    0.46885    0.74252    1.000
    C217     C        0.70030    0.55210    0.74760    1.000
    C218     C        0.66800    0.60070    0.73820    1.000
    H129     H        0.67281    0.63768    0.74672    1.000
    C219     C        0.62840    0.59010    0.71530    1.000
    H130     H        0.60578    0.62086    0.70794    1.000
    C220     C        0.78470    0.53350    0.78630    1.000
    H131     H        0.78979    0.49353    0.78304    1.000
    C221     C        0.81550    0.56690    0.80670    1.000
    C222     C        0.86070    0.54770    0.82654    1.000
    C223     C        0.88540    0.49220    0.82625    1.000
    H132     H        0.87218    0.46440    0.81241    1.000
    C224     C        0.92730    0.47870    0.84542    1.000
    H133     H        0.94313    0.44118    0.84450    1.000
    C225     C        0.95010    0.51850    0.86772    1.000
    C226     C        0.92560    0.57340    0.86750    1.000
    H134     H        0.94052    0.60233    0.88023    1.000
    C227     C        0.87770    0.58630    0.84810    1.000
    H135     H        0.85781    0.62166    0.85018    1.000
    C228     C        0.01710    0.55170    0.91017    1.000
    C229     C        0.07130    0.57660    0.91087    1.000
    H136     H        0.09925    0.56272    0.89729    1.000
    C230     C        0.08760    0.62090    0.93019    1.000
    H137     H        0.12565    0.63552    0.92959    1.000
    C231     C        0.04840    0.64320    0.95010    1.000
    C232     C        0.99050    0.61910    0.95187    1.000
    H138     H        0.96225    0.63390    0.96501    1.000
    C233     C        0.97920    0.57090    0.93214    1.000
    H139     H        0.94369    0.55125    0.93431    1.000
    C234     C        0.05970    0.69450    0.97100    1.000
    C235     C        0.02990    0.71690    0.99332    1.000
    H140     H        0.99277    0.70638    0.00009    1.000
    C236     C        0.05600    0.79940    0.02690    1.000
    C237     C        0.09630    0.83800    0.03865    1.000
    H141     H        0.13384    0.83747    0.03044    1.000
    C238     C        0.08520    0.87820    0.06223    1.000
    H142     H        0.11488    0.90243    0.06941    1.000
    C239     C        0.03040    0.88100    0.07431    1.000
    C240     C        0.98700    0.84240    0.06457    1.000
    H143     H        0.95037    0.84250    0.07385    1.000
    C241     C        0.99890    0.80290    0.04027    1.000
    H144     H        0.96910    0.77883    0.03302    1.000
    C242     C        0.01980    0.92490    0.09830    1.000
    C243     C        0.00000    0.50000    0.38990    1.000
    C244     C        0.00000    0.50000    0.88990    1.000
