data_functionalizedCrystal
_audit_creation_method	'EQeq! by Chris Wilmer'
_symmetry_space_group_name_H-M	'P1'
_symmetry_Int_Tables_number	1
_symmetry_cell_setting	triclinic
loop_
_symmetry_equiv_pos_as_xyz
  x,y,z
_cell_length_a	18.5015
_cell_length_b	18.5015
_cell_length_c	18.5015
_cell_angle_alpha	90
_cell_angle_beta	90
_cell_angle_gamma	90
loop_
_atom_site_label
_atom_site_type_symbol
_atom_site_fract_x
_atom_site_fract_y
_atom_site_fract_z
_atom_site_charge
Mof_N 	N 	0.3713	0.4215	0.075	-0.202
Mof_N 	N 	0.3258	0.4103	0.1292	-0.269
Mof_N 	N 	0.6287	0.5785	0.075	-0.202
Mof_N 	N 	0.6742	0.5897	0.1292	-0.268
Mof_N 	N 	0.6287	0.4215	0.925	-0.195
Mof_N 	N 	0.6742	0.4103	0.8708	-0.266
Mof_N 	N 	0.3713	0.5785	0.925	-0.195
Mof_N 	N 	0.3258	0.5897	0.8708	-0.266
Mof_N 	N 	0.075	0.3713	0.4215	-0.201
Mof_N 	N 	0.1292	0.3258	0.4103	-0.268
Mof_N 	N 	0.075	0.6287	0.5785	-0.201
Mof_N 	N 	0.1292	0.6742	0.5897	-0.268
Mof_N 	N 	0.925	0.6287	0.4215	-0.195
Mof_N 	N 	0.8708	0.6742	0.4103	-0.266
Mof_N 	N 	0.925	0.3713	0.5785	-0.195
Mof_N 	N 	0.8708	0.3258	0.5897	-0.266
Mof_N 	N 	0.4215	0.075	0.3713	-0.201
Mof_N 	N 	0.4103	0.1292	0.3258	-0.268
Mof_N 	N 	0.5785	0.075	0.6287	-0.201
Mof_N 	N 	0.5897	0.1292	0.6742	-0.268
Mof_N 	N 	0.4215	0.925	0.6287	-0.195
Mof_N 	N 	0.4103	0.8708	0.6742	-0.266
Mof_N 	N 	0.5785	0.925	0.3713	-0.195
Mof_N 	N 	0.5897	0.8708	0.3258	-0.266
Mof_N 	N 	0.4215	0.3713	0.925	-0.196
Mof_N 	N 	0.4103	0.3258	0.8708	-0.267
Mof_N 	N 	0.5785	0.6287	0.925	-0.195
Mof_N 	N 	0.5897	0.6742	0.8708	-0.266
Mof_N 	N 	0.4215	0.6287	0.075	-0.201
Mof_N 	N 	0.4103	0.6742	0.1292	-0.268
Mof_N 	N 	0.5785	0.3713	0.075	-0.201
Mof_N 	N 	0.5897	0.3258	0.1292	-0.268
Mof_N 	N 	0.3713	0.075	0.5785	-0.201
Mof_N 	N 	0.3258	0.1292	0.5897	-0.268
Mof_N 	N 	0.6287	0.075	0.4215	-0.201
Mof_N 	N 	0.6742	0.1292	0.4103	-0.268
Mof_N 	N 	0.6287	0.925	0.5785	-0.195
Mof_N 	N 	0.6742	0.8708	0.5897	-0.266
Mof_N 	N 	0.3713	0.925	0.4215	-0.196
Mof_N 	N 	0.3258	0.8708	0.4103	-0.267
Mof_N 	N 	0.075	0.4215	0.6287	-0.201
Mof_N 	N 	0.1292	0.4103	0.6742	-0.268
Mof_N 	N 	0.075	0.5785	0.3713	-0.201
Mof_N 	N 	0.1292	0.5897	0.3258	-0.268
Mof_N 	N 	0.925	0.4215	0.3713	-0.196
Mof_N 	N 	0.8708	0.4103	0.3258	-0.267
Mof_N 	N 	0.925	0.5785	0.6287	-0.195
Mof_N 	N 	0.8708	0.5897	0.6742	-0.266
Mof_N 	N 	0.6287	0.5785	0.925	-0.195
Mof_N 	N 	0.6742	0.5897	0.8708	-0.266
Mof_N 	N 	0.3713	0.4215	0.925	-0.196
Mof_N 	N 	0.3258	0.4103	0.8708	-0.267
Mof_N 	N 	0.3713	0.5785	0.075	-0.201
Mof_N 	N 	0.3258	0.5897	0.1292	-0.268
Mof_N 	N 	0.6287	0.4215	0.075	-0.201
Mof_N 	N 	0.6742	0.4103	0.1292	-0.268
Mof_N 	N 	0.925	0.6287	0.5785	-0.195
Mof_N 	N 	0.8708	0.6742	0.5897	-0.266
Mof_N 	N 	0.925	0.3713	0.4215	-0.196
Mof_N 	N 	0.8708	0.3258	0.4103	-0.267
Mof_N 	N 	0.075	0.3713	0.5785	-0.201
Mof_N 	N 	0.1292	0.3258	0.5897	-0.268
Mof_N 	N 	0.075	0.6287	0.4215	-0.201
Mof_N 	N 	0.1292	0.6742	0.4103	-0.268
Mof_N 	N 	0.5785	0.925	0.6287	-0.195
Mof_N 	N 	0.5897	0.8708	0.6742	-0.266
Mof_N 	N 	0.4215	0.925	0.3713	-0.196
Mof_N 	N 	0.4103	0.8708	0.3258	-0.267
Mof_N 	N 	0.5785	0.075	0.3713	-0.201
Mof_N 	N 	0.5897	0.1292	0.3258	-0.268
Mof_N 	N 	0.4215	0.075	0.6287	-0.201
Mof_N 	N 	0.4103	0.1292	0.6742	-0.268
Mof_N 	N 	0.5785	0.6287	0.075	-0.201
Mof_N 	N 	0.5897	0.6742	0.1292	-0.268
Mof_N 	N 	0.4215	0.3713	0.075	-0.201
Mof_N 	N 	0.4103	0.3258	0.1292	-0.268
Mof_N 	N 	0.5785	0.3713	0.925	-0.195
Mof_N 	N 	0.5897	0.3258	0.8708	-0.266
Mof_N 	N 	0.4215	0.6287	0.925	-0.195
Mof_N 	N 	0.4103	0.6742	0.8708	-0.266
Mof_N 	N 	0.6287	0.925	0.4215	-0.195
Mof_N 	N 	0.6742	0.8708	0.4103	-0.266
Mof_N 	N 	0.3713	0.925	0.5785	-0.195
Mof_N 	N 	0.3258	0.8708	0.5897	-0.266
Mof_N 	N 	0.3713	0.075	0.4215	-0.201
Mof_N 	N 	0.3258	0.1292	0.4103	-0.268
Mof_N 	N 	0.6287	0.075	0.5785	-0.201
Mof_N 	N 	0.6742	0.1292	0.5897	-0.268
Mof_N 	N 	0.925	0.5785	0.3713	-0.195
Mof_N 	N 	0.8708	0.5897	0.3258	-0.266
Mof_N 	N 	0.925	0.4215	0.6287	-0.195
Mof_N 	N 	0.8708	0.4103	0.6742	-0.266
Mof_N 	N 	0.075	0.5785	0.6287	-0.201
Mof_N 	N 	0.1292	0.5897	0.6742	-0.268
Mof_N 	N 	0.075	0.4215	0.3713	-0.201
Mof_N 	N 	0.1292	0.4103	0.3258	-0.268
Mof_Co	Co	0.36674	0.5	-0	1.122
Mof_Cl	Cl	0.2403	0.5	-0	-0.797
Mof_Co	Co	0.63326	0.5	-0	1.122
Mof_Cl	Cl	0.7597	0.5	-0	-0.792
Mof_Co	Co	5.86063e-33	0.36674	0.5	1.122
Mof_Cl	Cl	5.86063e-33	0.2403	0.5	-0.797
Mof_Co	Co	1.38325e-32	0.63326	0.5	1.122
Mof_Cl	Cl	1.38325e-32	0.7597	0.5	-0.792
Mof_Co	Co	0.5	0	0.36674	1.122
Mof_Cl	Cl	0.5	0	0.2403	-0.797
Mof_Co	Co	0.5	0	0.63326	1.122
Mof_Cl	Cl	0.5	0	0.7597	-0.792
Mof_Co	Co	0.5	0.36674	-0	1.122
Mof_Cl	Cl	0.5	0.2403	-0	-0.797
Mof_Co	Co	0.5	0.63326	-0	1.122
Mof_Cl	Cl	0.5	0.7597	-0	-0.792
Mof_Co	Co	0.36674	3.98593e-33	0.5	1.122
Mof_Cl	Cl	0.2403	3.98593e-33	0.5	-0.797
Mof_Co	Co	0.63326	3.98593e-33	0.5	1.122
Mof_Cl	Cl	0.7597	3.98593e-33	0.5	-0.792
Mof_Co	Co	1.03462e-32	0.5	0.63326	1.122
Mof_Cl	Cl	1.87921e-32	0.5	0.7597	-0.792
Mof_Co	Co	5.36098e-33	0.5	0.36674	1.122
Mof_Cl	Cl	6.87987e-33	0.5	0.2403	-0.797
Mof_Cl	Cl	0.5	0.5	-0	-0.932
Mof_Cl	Cl	9.84656e-33	0.5	0.5	-0.932
Mof_Cl	Cl	0.5	3.98593e-33	0.5	-0.932
Mof_C 	C 	0.3507	0.3507	0.1618	0.145
Mof_C 	C 	0.3169	0.3169	0.2257	-0.257
Mof_C 	C 	0.6493	0.6493	0.1618	0.145
Mof_C 	C 	0.6831	0.6831	0.2257	-0.255
Mof_C 	C 	0.6493	0.3507	0.8382	0.147
Mof_C 	C 	0.6831	0.3169	0.7743	-0.255
Mof_C 	C 	0.3507	0.6493	0.8382	0.147
Mof_C 	C 	0.3169	0.6831	0.7743	-0.255
Mof_C 	C 	0.1618	0.3507	0.3507	0.145
Mof_C 	C 	0.2257	0.3169	0.3169	-0.257
Mof_C 	C 	0.1618	0.6493	0.6493	0.145
Mof_C 	C 	0.2257	0.6831	0.6831	-0.255
Mof_C 	C 	0.8382	0.6493	0.3507	0.147
Mof_C 	C 	0.7743	0.6831	0.3169	-0.255
Mof_C 	C 	0.8382	0.3507	0.6493	0.147
Mof_C 	C 	0.7743	0.3169	0.6831	-0.255
Mof_C 	C 	0.3507	0.1618	0.3507	0.145
Mof_C 	C 	0.3169	0.2257	0.3169	-0.257
Mof_C 	C 	0.6493	0.1618	0.6493	0.145
Mof_C 	C 	0.6831	0.2257	0.6831	-0.255
Mof_C 	C 	0.3507	0.8382	0.6493	0.147
Mof_C 	C 	0.3169	0.7743	0.6831	-0.255
Mof_C 	C 	0.6493	0.8382	0.3507	0.147
Mof_C 	C 	0.6831	0.7743	0.3169	-0.255
Mof_C 	C 	0.3507	0.3507	0.8382	0.146
Mof_C 	C 	0.3169	0.3169	0.7743	-0.256
Mof_C 	C 	0.6493	0.6493	0.8382	0.147
Mof_C 	C 	0.6831	0.6831	0.7743	-0.254
Mof_C 	C 	0.3507	0.6493	0.1618	0.145
Mof_C 	C 	0.3169	0.6831	0.2257	-0.256
Mof_C 	C 	0.6493	0.3507	0.1618	0.145
Mof_C 	C 	0.6831	0.3169	0.2257	-0.256
Mof_C 	C 	0.3507	0.1618	0.6493	0.145
Mof_C 	C 	0.3169	0.2257	0.6831	-0.256
Mof_C 	C 	0.6493	0.1618	0.3507	0.145
Mof_C 	C 	0.6831	0.2257	0.3169	-0.256
Mof_C 	C 	0.6493	0.8382	0.6493	0.147
Mof_C 	C 	0.6831	0.7743	0.6831	-0.254
Mof_C 	C 	0.3507	0.8382	0.3507	0.146
Mof_C 	C 	0.3169	0.7743	0.3169	-0.256
Mof_C 	C 	0.1618	0.3507	0.6493	0.145
Mof_C 	C 	0.2257	0.3169	0.6831	-0.256
Mof_C 	C 	0.1618	0.6493	0.3507	0.145
Mof_C 	C 	0.2257	0.6831	0.3169	-0.256
Mof_C 	C 	0.8382	0.3507	0.3507	0.146
Mof_C 	C 	0.7743	0.3169	0.3169	-0.256
Mof_C 	C 	0.8382	0.6493	0.6493	0.147
Mof_C 	C 	0.7743	0.6831	0.6831	-0.254
Mof_C 	C 	0.2575	0.3477	0.2575	0.167
Mof_H 	H 	0.2384	0.3901	0.2384	-0.179
Mof_C 	C 	0.7425	0.6523	0.2575	0.167
Mof_H 	H 	0.7616	0.6099	0.2384	-0.178
Mof_C 	C 	0.7425	0.3477	0.7425	0.167
Mof_H 	H 	0.7616	0.3901	0.7616	-0.177
Mof_C 	C 	0.2575	0.6523	0.7425	0.167
Mof_H 	H 	0.2384	0.6099	0.7616	-0.178
Mof_C 	C 	0.2575	0.2575	0.3477	0.167
Mof_H 	H 	0.2384	0.2384	0.3901	-0.179
Mof_C 	C 	0.2575	0.7425	0.6523	0.167
Mof_H 	H 	0.2384	0.7616	0.6099	-0.178
Mof_C 	C 	0.7425	0.7425	0.3477	0.167
Mof_H 	H 	0.7616	0.7616	0.3901	-0.177
Mof_C 	C 	0.7425	0.2575	0.6523	0.167
Mof_H 	H 	0.7616	0.2384	0.6099	-0.178
Mof_C 	C 	0.3477	0.2575	0.2575	0.167
Mof_H 	H 	0.3901	0.2384	0.2384	-0.179
Mof_C 	C 	0.6523	0.2575	0.7425	0.167
Mof_H 	H 	0.6099	0.2384	0.7616	-0.178
Mof_C 	C 	0.3477	0.7425	0.7425	0.167
Mof_H 	H 	0.3901	0.7616	0.7616	-0.177
Mof_C 	C 	0.6523	0.7425	0.2575	0.167
Mof_H 	H 	0.6099	0.7616	0.2384	-0.178
Mof_C 	C 	0.3477	0.2575	0.7425	0.167
Mof_H 	H 	0.3901	0.2384	0.7616	-0.178
Mof_C 	C 	0.6523	0.7425	0.7425	0.167
Mof_H 	H 	0.6099	0.7616	0.7616	-0.177
Mof_C 	C 	0.3477	0.7425	0.2575	0.167
Mof_H 	H 	0.3901	0.7616	0.2384	-0.178
Mof_C 	C 	0.6523	0.2575	0.2575	0.167
Mof_H 	H 	0.6099	0.2384	0.2384	-0.179
Mof_C 	C 	0.2575	0.2575	0.6523	0.167
Mof_H 	H 	0.2384	0.2384	0.6099	-0.179
Mof_C 	C 	0.7425	0.2575	0.3477	0.167
Mof_H 	H 	0.7616	0.2384	0.3901	-0.178
Mof_C 	C 	0.7425	0.7425	0.6523	0.167
Mof_H 	H 	0.7616	0.7616	0.6099	-0.177
Mof_C 	C 	0.2575	0.7425	0.3477	0.167
Mof_H 	H 	0.2384	0.7616	0.3901	-0.178
Mof_C 	C 	0.2575	0.3477	0.7425	0.167
Mof_H 	H 	0.2384	0.3901	0.7616	-0.178
Mof_C 	C 	0.2575	0.6523	0.2575	0.167
Mof_H 	H 	0.2384	0.6099	0.2384	-0.179
Mof_C 	C 	0.7425	0.3477	0.2575	0.167
Mof_H 	H 	0.7616	0.3901	0.2384	-0.178
Mof_C 	C 	0.7425	0.6523	0.7425	0.167
Mof_H 	H 	0.7616	0.6099	0.7616	-0.177
Mof_Co	Co	0.2681	0.5	0.1484	1.002
Mof_Co	Co	0.7319	0.5	0.1484	1.003
Mof_Co	Co	0.7319	0.5	0.8516	1.006
Mof_Co	Co	0.2681	0.5	0.8516	1.005
Mof_Co	Co	0.1484	0.2681	0.5	1.002
Mof_Co	Co	0.1484	0.7319	0.5	1.003
Mof_Co	Co	0.8516	0.7319	0.5	1.006
Mof_Co	Co	0.8516	0.2681	0.5	1.005
Mof_Co	Co	0.5	0.1484	0.2681	1.002
Mof_Co	Co	0.5	0.1484	0.7319	1.003
Mof_Co	Co	0.5	0.8516	0.7319	1.006
Mof_Co	Co	0.5	0.8516	0.2681	1.005
Mof_Co	Co	0.5	0.2681	0.8516	1.005
Mof_Co	Co	0.5	0.7319	0.8516	1.006
Mof_Co	Co	0.5	0.7319	0.1484	1.003
Mof_Co	Co	0.5	0.2681	0.1484	1.002
Mof_Co	Co	0.2681	0.1484	0.5	1.002
Mof_Co	Co	0.7319	0.1484	0.5	1.003
Mof_Co	Co	0.7319	0.8516	0.5	1.006
Mof_Co	Co	0.2681	0.8516	0.5	1.005
Mof_Co	Co	0.1484	0.5	0.7319	1.003
Mof_Co	Co	0.1484	0.5	0.2681	1.002
Mof_Co	Co	0.8516	0.5	0.2681	1.005
Mof_Co	Co	0.8516	0.5	0.7319	1.006
_end
