# CIF file generated by openbabel 3.1.0, see https://openbabel.org
data_I
_chemical_name_common 'image0'
_cell_length_a 9.8824
_cell_length_b 11.548
_cell_length_c 15.648
_cell_angle_alpha 89.784
_cell_angle_beta 76.441
_cell_angle_gamma 75.603
_space_group_name_H-M_alt 'P 1'
_space_group_name_Hall 'P 1'
loop_
    _symmetry_equiv_pos_as_xyz
    x,y,z
loop_
    _atom_site_label
    _atom_site_type_symbol
    _atom_site_fract_x
    _atom_site_fract_y
    _atom_site_fract_z
    _atom_site_occupancy
    Zn1      Zn       0.15965    0.97354    0.97675    1.000
    O1       O        0.16025    0.85651    0.07343    1.000
    O2       O        0.92141    0.89373    0.09997    1.000
    O3       O        0.88267    0.14338    0.10536    1.000
    O4       O        0.12352    0.10575    0.07072    1.000
    N1       N        0.36558    0.96364    0.91130    1.000
    C1       C        0.00022    0.15542    0.11732    1.000
    C2       C        0.99358    0.23526    0.19481    1.000
    C3       C        0.10768    0.28499    0.19600    1.000
    H1       H        0.18680    0.27100    0.14790    1.000
    C4       C        0.10420    0.35543    0.26851    1.000
    H2       H        0.17990    0.39000    0.26820    1.000
    C5       C        0.98780    0.37474    0.34192    1.000
    C6       C        0.87500    0.32375    0.34075    1.000
    H3       H        0.79760    0.33510    0.38970    1.000
    C7       C        0.87640    0.25591    0.26709    1.000
    H4       H        0.79870    0.22440    0.26630    1.000
    C8       C        0.99040    0.44284    0.42264    1.000
    C9       C        0.02660    0.61163    0.49691    1.000
    H5       H        0.04530    0.68680    0.49460    1.000
    C10      C        0.01652    0.55710    0.41991    1.000
    C11      C        0.42860    0.05100    0.92182    1.000
    H6       H        0.38560    0.10680    0.96920    1.000
    C12      C        0.55490    0.06200    0.86535    1.000
    H7       H        0.59640    0.12280    0.87600    1.000
    C13      C        0.61980    0.98163    0.79236    1.000
    C14      C        0.74490    0.99977    0.72706    1.000
    H8       H        0.80040    0.04540    0.74420    1.000
    C15      C        0.55700    0.88829    0.78402    1.000
    H9       H        0.59930    0.82980    0.73830    1.000
    C16      C        0.43180    0.88270    0.84380    1.000
    H10      H        0.39140    0.81970    0.83690    1.000
    C17      C        0.02528    0.62624    0.33843    1.000
    C18      C        0.15410    0.64707    0.29302    1.000
    H11      H        0.23750    0.61560    0.31200    1.000
    C19      C        0.03960    0.84429    0.11570    1.000
    C20      C        0.03670    0.76465    0.19193    1.000
    C21      C        0.90750    0.74340    0.23728    1.000
    H12      H        0.82360    0.77660    0.21920    1.000
    C22      C        0.90260    0.67280    0.30963    1.000
    H13      H        0.81610    0.65700    0.33860    1.000
    C23      C        0.16010    0.71446    0.21936    1.000
    H14      H        0.24780    0.72590    0.18830    1.000
    C24      C        0.78290    0.95394    0.64417    1.000
    H15      H        0.73220    0.90150    0.63060    1.000
    C25      C        0.89597    0.97731    0.57228    1.000
    C26      C        0.90210    0.93953    0.48602    1.000
    H16      H        0.83640    0.89860    0.47650    1.000
    C27      C        0.99650    0.03820    0.58508    1.000
    H17      H        0.99500    0.06370    0.64170    1.000
    Zn2      Zn       0.84035    0.02646    0.02325    1.000
    O5       O        0.83975    0.14349    0.92657    1.000
    O6       O        0.07859    0.10627    0.90003    1.000
    O7       O        0.11733    0.85662    0.89464    1.000
    O8       O        0.87648    0.89425    0.92928    1.000
    N2       N        0.63442    0.03636    0.08870    1.000
    C28      C        0.99978    0.84458    0.88268    1.000
    C29      C        0.00642    0.76474    0.80519    1.000
    C30      C        0.89232    0.71501    0.80400    1.000
    H18      H        0.81320    0.72900    0.85210    1.000
    C31      C        0.89580    0.64457    0.73149    1.000
    H19      H        0.82010    0.61000    0.73180    1.000
    C32      C        0.01220    0.62526    0.65808    1.000
    C33      C        0.12500    0.67625    0.65925    1.000
    H20      H        0.20240    0.66490    0.61030    1.000
    C34      C        0.12360    0.74409    0.73291    1.000
    H21      H        0.20130    0.77560    0.73370    1.000
    C35      C        0.00960    0.55716    0.57736    1.000
    C36      C        0.97340    0.38837    0.50309    1.000
    H22      H        0.95470    0.31320    0.50540    1.000
    C37      C        0.98348    0.44290    0.58009    1.000
    C38      C        0.57140    0.94900    0.07818    1.000
    H23      H        0.61440    0.89320    0.03080    1.000
    C39      C        0.44510    0.93800    0.13465    1.000
    H24      H        0.40360    0.87720    0.12400    1.000
    C40      C        0.38020    0.01837    0.20764    1.000
    C41      C        0.25510    0.00023    0.27294    1.000
    H25      H        0.19960    0.95460    0.25580    1.000
    C42      C        0.44300    0.11171    0.21598    1.000
    H26      H        0.40070    0.17020    0.26170    1.000
    C43      C        0.56820    0.11730    0.15620    1.000
    H27      H        0.60860    0.18030    0.16310    1.000
    C44      C        0.97472    0.37376    0.66157    1.000
    C45      C        0.84590    0.35293    0.70698    1.000
    H28      H        0.76250    0.38440    0.68800    1.000
    C46      C        0.96040    0.15571    0.88430    1.000
    C47      C        0.96330    0.23535    0.80807    1.000
    C48      C        0.09250    0.25660    0.76272    1.000
    H29      H        0.17640    0.22340    0.78080    1.000
    C49      C        0.09740    0.32720    0.69037    1.000
    H30      H        0.18390    0.34300    0.66140    1.000
    C50      C        0.83990    0.28554    0.78064    1.000
    H31      H        0.75220    0.27410    0.81170    1.000
    C51      C        0.21710    0.04606    0.35583    1.000
    H32      H        0.26780    0.09850    0.36940    1.000
    C52      C        0.10403    0.02269    0.42772    1.000
    C53      C        0.09790    0.06047    0.51398    1.000
    H33      H        0.16360    0.10140    0.52350    1.000
    C54      C        0.00350    0.96180    0.41492    1.000
    H34      H        0.00500    0.93630    0.35830    1.000
