data_functionalizedCrystal
_audit_creation_method	'EQeq! by Chris Wilmer'
_symmetry_space_group_name_H-M	'P1'
_symmetry_Int_Tables_number	1
_symmetry_cell_setting	triclinic
loop_
_symmetry_equiv_pos_as_xyz
  x,y,z
_cell_length_a	11.2896
_cell_length_b	12.1049
_cell_length_c	16.1579
_cell_angle_alpha	90
_cell_angle_beta	129.914
_cell_angle_gamma	90
loop_
_atom_site_label
_atom_site_type_symbol
_atom_site_fract_x
_atom_site_fract_y
_atom_site_fract_z
_atom_site_charge
Mof_Zn	Zn	0.82132	0.02471	0.48098	1.24
Mof_S 	S 	0.97715	0.96244	0.71584	0.513
Mof_O 	O 	0.9272	0.92544	0.61072	-0.413
Mof_O 	O 	0.1331	0.9296	0.80265	-0.222
Mof_O 	O 	0.9446	0.0762	0.7146	-0.273
Mof_O 	O 	0.3946	0.98006	0.55763	-0.379
Mof_O 	O 	0.3621	0.85415	0.63532	-0.344
Mof_O 	O 	0.7841	0.57851	0.87254	-0.448
Mof_O 	O 	0.02394	0.64134	0.96261	-0.459
Mof_C 	C 	0.8576	0.88758	0.7318	-0.084
Mof_C 	C 	0.7049	0.92009	0.67184	0.041
Mof_H 	H 	0.6668	0.9789	0.6239	0.06
Mof_C 	C 	0.6093	0.86461	0.68369	-0.081
Mof_C 	C 	0.4453	0.9008	0.6219	0.331
Mof_C 	C 	0.6669	0.77597	0.75412	0.053
Mof_H 	H 	0.6027	0.7383	0.7618	0.058
Mof_C 	C 	0.8193	0.74286	0.81331	-0.104
Mof_C 	C 	0.9162	0.79983	0.80278	0.048
Mof_H 	H 	0.019	0.7791	0.843	0.064
Mof_C 	C 	0.8812	0.64705	0.88854	0.402
Mof_Zn	Zn	0.17868	0.52471	0.01902	1.237
Mof_S 	S 	0.02285	0.46244	0.78416	0.532
Mof_O 	O 	0.0728	0.42544	0.88928	-0.413
Mof_O 	O 	0.8669	0.4296	0.69735	-0.233
Mof_O 	O 	0.0554	0.5762	0.7854	-0.275
Mof_O 	O 	0.6054	0.48006	0.94237	-0.383
Mof_O 	O 	0.6379	0.35415	0.86468	-0.347
Mof_O 	O 	0.2159	0.07851	0.62746	-0.451
Mof_O 	O 	0.97606	0.14134	0.53739	-0.47
Mof_C 	C 	0.1424	0.38758	0.7682	-0.098
Mof_C 	C 	0.2951	0.42009	0.82816	0.053
Mof_H 	H 	0.3332	0.4789	0.8761	0.056
Mof_C 	C 	0.3907	0.36461	0.81631	-0.09
Mof_C 	C 	0.5547	0.4008	0.8781	0.334
Mof_C 	C 	0.3331	0.27597	0.74588	0.065
Mof_H 	H 	0.3973	0.2383	0.7382	0.054
Mof_C 	C 	0.1807	0.24286	0.68669	-0.119
Mof_C 	C 	0.0838	0.29983	0.69722	0.078
Mof_H 	H 	0.981	0.2791	0.657	0.048
Mof_C 	C 	0.1188	0.14705	0.61146	0.419
Mof_Zn	Zn	0.17868	0.97529	0.51902	1.24
Mof_S 	S 	0.02285	0.03756	0.28416	0.513
Mof_O 	O 	0.0728	0.07456	0.38928	-0.413
Mof_O 	O 	0.8669	0.0704	0.19735	-0.222
Mof_O 	O 	0.0554	0.9238	0.2854	-0.273
Mof_O 	O 	0.6054	0.01994	0.44237	-0.379
Mof_O 	O 	0.6379	0.14585	0.36468	-0.344
Mof_O 	O 	0.2159	0.42149	0.12746	-0.448
Mof_O 	O 	0.97606	0.35866	0.03739	-0.459
Mof_C 	C 	0.1424	0.11242	0.2682	-0.084
Mof_C 	C 	0.2951	0.07991	0.32816	0.041
Mof_H 	H 	0.3332	0.0211	0.3761	0.06
Mof_C 	C 	0.3907	0.13539	0.31631	-0.081
Mof_C 	C 	0.5547	0.0992	0.3781	0.331
Mof_C 	C 	0.3331	0.22403	0.24588	0.053
Mof_H 	H 	0.3973	0.2617	0.2382	0.058
Mof_C 	C 	0.1807	0.25714	0.18669	-0.104
Mof_C 	C 	0.0838	0.20017	0.19722	0.048
Mof_H 	H 	0.981	0.2209	0.157	0.064
Mof_C 	C 	0.1188	0.35295	0.11146	0.402
Mof_Zn	Zn	0.82132	0.47529	0.98098	1.237
Mof_S 	S 	0.97715	0.53756	0.21584	0.532
Mof_O 	O 	0.9272	0.57456	0.11072	-0.413
Mof_O 	O 	0.1331	0.5704	0.30265	-0.233
Mof_O 	O 	0.9446	0.4238	0.2146	-0.275
Mof_O 	O 	0.3946	0.51994	0.05763	-0.383
Mof_O 	O 	0.3621	0.64585	0.13532	-0.347
Mof_O 	O 	0.7841	0.92149	0.37254	-0.451
Mof_O 	O 	0.02394	0.85866	0.46261	-0.47
Mof_C 	C 	0.8576	0.61242	0.2318	-0.098
Mof_C 	C 	0.7049	0.57991	0.17184	0.053
Mof_H 	H 	0.6668	0.5211	0.1239	0.056
Mof_C 	C 	0.6093	0.63539	0.18369	-0.09
Mof_C 	C 	0.4453	0.5992	0.1219	0.334
Mof_C 	C 	0.6669	0.72403	0.25412	0.065
Mof_H 	H 	0.6027	0.7617	0.2618	0.054
Mof_C 	C 	0.8193	0.75714	0.31331	-0.119
Mof_C 	C 	0.9162	0.70017	0.30278	0.078
Mof_H 	H 	0.019	0.7209	0.343	0.048
Mof_C 	C 	0.8812	0.85295	0.38854	0.419
_end
