# CIF file generated by openbabel 3.1.0, see https://openbabel.org
data_I
_chemical_name_common 'image0'
_cell_length_a 19.5639
_cell_length_b 19.5639
_cell_length_c 26.8732
_cell_angle_alpha 90
_cell_angle_beta 90
_cell_angle_gamma 120
_space_group_name_H-M_alt 'P 1'
_space_group_name_Hall 'P 1'
loop_
    _symmetry_equiv_pos_as_xyz
    x,y,z
loop_
    _atom_site_label
    _atom_site_type_symbol
    _atom_site_fract_x
    _atom_site_fract_y
    _atom_site_fract_z
    _atom_site_occupancy
    Cd1      Cd       0.28993    0.01014    0.36144    1.000
    C1       C        0.99950    0.92530    0.37434    1.000
    H1       H        0.99950    0.92230    0.33830    1.000
    H2       H        0.99930    0.87910    0.38750    1.000
    C2       C        0.07450    0.99960    0.39157    1.000
    H3       H        0.07400    0.99960    0.42800    1.000
    C3       C        0.14810    0.99810    0.37529    1.000
    C4       C        0.38170    0.08850    0.56840    1.000
    C5       C        0.45610    0.09790    0.56760    1.000
    H4       H        0.48350    0.10660    0.53790    1.000
    C6       C        0.48920    0.09410    0.61247    1.000
    C7       C        0.44960    0.08190    0.65666    1.000
    H5       H        0.47260    0.07960    0.68640    1.000
    C8       C        0.37490    0.07320    0.65621    1.000
    C9       C        0.33960    0.07690    0.61224    1.000
    H6       H        0.28980    0.07190    0.61220    1.000
    C10      C        0.28660    0.10750    0.51495    1.000
    H7       H        0.26710    0.12890    0.53800    1.000
    C11      C        0.26580    0.09060    0.46703    1.000
    H8       H        0.22830    0.09900    0.45130    1.000
    C12      C        0.35350    0.05760    0.47880    1.000
    H9       H        0.38870    0.03940    0.47410    1.000
    C13      C        0.62910    0.14840    0.58140    1.000
    H10      H        0.63410    0.18850    0.56050    1.000
    C14      C        0.68300    0.12460    0.58900    1.000
    H11      H        0.73220    0.14680    0.57380    1.000
    C15      C        0.58220    0.04830    0.63170    1.000
    H12      H        0.54700    0.00560    0.65100    1.000
    C16      C        0.24120    0.00320    0.70040    1.000
    H13      H        0.20820    0.98460    0.67280    1.000
    C17      C        0.22070    0.98870    0.74870    1.000
    H14      H        0.16960    0.95820    0.76100    1.000
    C18      C        0.34700    0.04590    0.74649    1.000
    H15      H        0.39490    0.04940    0.75450    1.000
    C19      C        0.61780    0.36610    0.32230    1.000
    H16      H        0.58530    0.38810    0.32090    1.000
    C20      C        0.58600    0.28550    0.32330    1.000
    C21      C        0.44830    0.25320    0.30550    1.000
    H17      H        0.45720    0.29860    0.28890    1.000
    C22      C        0.37670    0.18800    0.31770    1.000
    H18      H        0.32780    0.18420    0.31340    1.000
    C23      C        0.46420    0.16100    0.33800    1.000
    H19      H        0.48890    0.13330    0.34820    1.000
    N1       N        0.30720    0.05930    0.44402    1.000
    N2       N        0.34310    0.08600    0.52248    1.000
    N3       N        0.65480    0.06460    0.62154    1.000
    N4       N        0.56520    0.09980    0.61142    1.000
    N5       N        0.29440    0.03030    0.77921    1.000
    N6       N        0.33040    0.05670    0.70088    1.000
    N7       N        0.38800    0.13020    0.33680    1.000
    N8       N        0.50340    0.23570    0.32340    1.000
    O1       O        0.20255    0.05852    0.35486    1.000
    O2       O        0.15295    0.93704    0.38453    1.000
    C24      C        0.28200    0.09120    0.71170    1.000
    H20      H        0.26800    0.11910    0.68990    1.000
    C25      C        0.26150    0.07450    0.75960    1.000
    H21      H        0.23040    0.08970    0.77730    1.000
    Cd2      Cd       0.98986    0.27979    0.36144    1.000
    C26      C        0.07470    0.07420    0.37434    1.000
    H22      H        0.07770    0.07720    0.33830    1.000
    H23      H        0.12090    0.12020    0.38750    1.000
    C27      C        0.00040    0.07490    0.39157    1.000
    H24      H        0.00040    0.07440    0.42800    1.000
    C28      C        0.00190    0.15000    0.37529    1.000
    C29      C        0.91150    0.29320    0.56840    1.000
    C30      C        0.90210    0.35820    0.56760    1.000
    H25      H        0.89340    0.37690    0.53790    1.000
    C31      C        0.90590    0.39510    0.61247    1.000
    C32      C        0.91810    0.36770    0.65666    1.000
    H26      H        0.92040    0.39300    0.68640    1.000
    C33      C        0.92680    0.30170    0.65621    1.000
    C34      C        0.92310    0.26270    0.61224    1.000
    H27      H        0.92810    0.21790    0.61220    1.000
    C35      C        0.89250    0.17910    0.51495    1.000
    H28      H        0.87110    0.13820    0.53800    1.000
    C36      C        0.90940    0.17520    0.46703    1.000
    H29      H        0.90100    0.12930    0.45130    1.000
    C37      C        0.94240    0.29590    0.47880    1.000
    H30      H        0.96060    0.34930    0.47410    1.000
    C38      C        0.85160    0.48070    0.58140    1.000
    H31      H        0.81150    0.44560    0.56050    1.000
    C39      C        0.87540    0.55840    0.58900    1.000
    H32      H        0.85320    0.58540    0.57380    1.000
    C40      C        0.95170    0.53390    0.63170    1.000
    H33      H        0.99440    0.54140    0.65100    1.000
    C41      C        0.99680    0.23800    0.70040    1.000
    H34      H        0.01540    0.22360    0.67280    1.000
    C42      C        0.01130    0.23200    0.74870    1.000
    H35      H        0.04180    0.21140    0.76100    1.000
    C43      C        0.95410    0.30110    0.74649    1.000
    H36      H        0.95060    0.34550    0.75450    1.000
    C44      C        0.63390    0.25170    0.32230    1.000
    H37      H        0.61190    0.19720    0.32090    1.000
    C45      C        0.71450    0.30050    0.32330    1.000
    C46      C        0.74680    0.19510    0.30550    1.000
    H38      H        0.70140    0.15860    0.28890    1.000
    C47      C        0.81200    0.18870    0.31770    1.000
    H39      H        0.81580    0.14360    0.31340    1.000
    C48      C        0.83900    0.30320    0.33800    1.000
    H40      H        0.86670    0.35560    0.34820    1.000
    N9       N        0.94070    0.24790    0.44402    1.000
    N10      N        0.91400    0.25710    0.52248    1.000
    N11      N        0.93540    0.59020    0.62154    1.000
    N12      N        0.90020    0.46540    0.61142    1.000
    N13      N        0.96970    0.26410    0.77921    1.000
    N14      N        0.94330    0.27370    0.70088    1.000
    N15      N        0.86980    0.25780    0.33680    1.000
    N16      N        0.76430    0.26770    0.32340    1.000
    O3       O        0.94148    0.14403    0.35486    1.000
    O4       O        0.06296    0.21591    0.38453    1.000
    C49      C        0.90880    0.19080    0.71170    1.000
    H41      H        0.88090    0.14890    0.68990    1.000
    C50      C        0.92550    0.18700    0.75960    1.000
    H42      H        0.91030    0.14070    0.77730    1.000
    Cd3      Cd       0.72021    0.71007    0.36144    1.000
    C51      C        0.92580    0.00050    0.37434    1.000
    H43      H        0.92280    0.00050    0.33830    1.000
    H44      H        0.87980    0.00070    0.38750    1.000
    C52      C        0.92510    0.92550    0.39157    1.000
    H45      H        0.92560    0.92600    0.42800    1.000
    C53      C        0.85000    0.85190    0.37529    1.000
    C54      C        0.70680    0.61830    0.56840    1.000
    C55      C        0.64180    0.54390    0.56760    1.000
    H46      H        0.62310    0.51650    0.53790    1.000
    C56      C        0.60490    0.51080    0.61247    1.000
    C57      C        0.63230    0.55040    0.65666    1.000
    H47      H        0.60700    0.52740    0.68640    1.000
    C58      C        0.69830    0.62510    0.65621    1.000
    C59      C        0.73730    0.66040    0.61224    1.000
    H48      H        0.78210    0.71020    0.61220    1.000
    C60      C        0.82090    0.71340    0.51495    1.000
    H49      H        0.86180    0.73290    0.53800    1.000
    C61      C        0.82480    0.73420    0.46703    1.000
    H50      H        0.87070    0.77170    0.45130    1.000
    C62      C        0.70410    0.64650    0.47880    1.000
    H51      H        0.65070    0.61130    0.47410    1.000
    C63      C        0.51930    0.37090    0.58140    1.000
    H52      H        0.55440    0.36590    0.56050    1.000
    C64      C        0.44160    0.31700    0.58900    1.000
    H53      H        0.41460    0.26780    0.57380    1.000
    C65      C        0.46610    0.41780    0.63170    1.000
    H54      H        0.45860    0.45300    0.65100    1.000
    C66      C        0.76200    0.75880    0.70040    1.000
    H55      H        0.77640    0.79180    0.67280    1.000
    C67      C        0.76800    0.77930    0.74870    1.000
    H56      H        0.78860    0.83040    0.76100    1.000
    C68      C        0.69890    0.65300    0.74649    1.000
    H57      H        0.65450    0.60510    0.75450    1.000
    C69      C        0.74830    0.38220    0.32230    1.000
    H58      H        0.80280    0.41470    0.32090    1.000
    C70      C        0.69950    0.41400    0.32330    1.000
    C71      C        0.80490    0.55170    0.30550    1.000
    H59      H        0.84140    0.54280    0.28890    1.000
    C72      C        0.81130    0.62330    0.31770    1.000
    H60      H        0.85640    0.67220    0.31340    1.000
    C73      C        0.69680    0.53580    0.33800    1.000
    H61      H        0.64440    0.51110    0.34820    1.000
    N17      N        0.75210    0.69280    0.44402    1.000
    N18      N        0.74290    0.65690    0.52248    1.000
    N19      N        0.40980    0.34520    0.62154    1.000
    N20      N        0.53460    0.43480    0.61142    1.000
    N21      N        0.73590    0.70560    0.77921    1.000
    N22      N        0.72630    0.66960    0.70088    1.000
    N23      N        0.74220    0.61200    0.33680    1.000
    N24      N        0.73230    0.49660    0.32340    1.000
    O5       O        0.85597    0.79745    0.35486    1.000
    O6       O        0.78409    0.84705    0.38453    1.000
    C74      C        0.80920    0.71800    0.71170    1.000
    H62      H        0.85110    0.73200    0.68990    1.000
    C75      C        0.81300    0.73850    0.75960    1.000
    H63      H        0.85930    0.76960    0.77730    1.000
    Cd4      Cd       0.98986    0.71007    0.13856    1.000
    C76      C        0.07470    0.00050    0.12566    1.000
    H64      H        0.07770    0.00050    0.16170    1.000
    H65      H        0.12090    0.00070    0.11250    1.000
    C77      C        0.00040    0.92550    0.10843    1.000
    H66      H        0.00040    0.92600    0.07200    1.000
    C78      C        0.00190    0.85190    0.12471    1.000
    C79      C        0.91150    0.61830    0.93160    1.000
    C80      C        0.90210    0.54390    0.93240    1.000
    H67      H        0.89340    0.51650    0.96210    1.000
    C81      C        0.90590    0.51080    0.88753    1.000
    C82      C        0.91810    0.55040    0.84334    1.000
    H68      H        0.92040    0.52740    0.81360    1.000
    C83      C        0.92680    0.62510    0.84379    1.000
    C84      C        0.92310    0.66040    0.88776    1.000
    H69      H        0.92810    0.71020    0.88780    1.000
    C85      C        0.89250    0.71340    0.98505    1.000
    H70      H        0.87110    0.73290    0.96200    1.000
    C86      C        0.90940    0.73420    0.03297    1.000
    H71      H        0.90100    0.77170    0.04870    1.000
    C87      C        0.94240    0.64650    0.02120    1.000
    H72      H        0.96060    0.61130    0.02590    1.000
    C88      C        0.85160    0.37090    0.91860    1.000
    H73      H        0.81150    0.36590    0.93950    1.000
    C89      C        0.87540    0.31700    0.91100    1.000
    H74      H        0.85320    0.26780    0.92620    1.000
    C90      C        0.95170    0.41780    0.86830    1.000
    H75      H        0.99440    0.45300    0.84900    1.000
    C91      C        0.99680    0.75880    0.79960    1.000
    H76      H        0.01540    0.79180    0.82720    1.000
    C92      C        0.01130    0.77930    0.75130    1.000
    H77      H        0.04180    0.83040    0.73900    1.000
    C93      C        0.95410    0.65300    0.75351    1.000
    H78      H        0.95060    0.60510    0.74550    1.000
    C94      C        0.63390    0.38220    0.17770    1.000
    H79      H        0.61190    0.41470    0.17910    1.000
    C95      C        0.71450    0.41400    0.17670    1.000
    C96      C        0.74680    0.55170    0.19450    1.000
    H80      H        0.70140    0.54280    0.21110    1.000
    C97      C        0.81200    0.62330    0.18230    1.000
    H81      H        0.81580    0.67220    0.18660    1.000
    C98      C        0.83900    0.53580    0.16200    1.000
    H82      H        0.86670    0.51110    0.15180    1.000
    N25      N        0.94070    0.69280    0.05598    1.000
    N26      N        0.91400    0.65690    0.97752    1.000
    N27      N        0.93540    0.34520    0.87846    1.000
    N28      N        0.90020    0.43480    0.88858    1.000
    N29      N        0.96970    0.70560    0.72079    1.000
    N30      N        0.94330    0.66960    0.79912    1.000
    N31      N        0.86980    0.61200    0.16320    1.000
    N32      N        0.76430    0.49660    0.17660    1.000
    O7       O        0.94148    0.79745    0.14514    1.000
    O8       O        0.06296    0.84705    0.11547    1.000
    C99      C        0.90880    0.71800    0.78830    1.000
    H83      H        0.88090    0.73200    0.81010    1.000
    C100     C        0.92550    0.73850    0.74040    1.000
    H84      H        0.91030    0.76960    0.72270    1.000
    Cd5      Cd       0.72021    0.01014    0.13856    1.000
    C101     C        0.92580    0.92530    0.12566    1.000
    H85      H        0.92280    0.92230    0.16170    1.000
    H86      H        0.87980    0.87910    0.11250    1.000
    C102     C        0.92510    0.99960    0.10843    1.000
    H87      H        0.92560    0.99960    0.07200    1.000
    C103     C        0.85000    0.99810    0.12471    1.000
    C104     C        0.70680    0.08850    0.93160    1.000
    C105     C        0.64180    0.09790    0.93240    1.000
    H88      H        0.62310    0.10660    0.96210    1.000
    C106     C        0.60490    0.09410    0.88753    1.000
    C107     C        0.63230    0.08190    0.84334    1.000
    H89      H        0.60700    0.07960    0.81360    1.000
    C108     C        0.69830    0.07320    0.84379    1.000
    C109     C        0.73730    0.07690    0.88776    1.000
    H90      H        0.78210    0.07190    0.88780    1.000
    C110     C        0.82090    0.10750    0.98505    1.000
    H91      H        0.86180    0.12890    0.96200    1.000
    C111     C        0.82480    0.09060    0.03297    1.000
    H92      H        0.87070    0.09900    0.04870    1.000
    C112     C        0.70410    0.05760    0.02120    1.000
    H93      H        0.65070    0.03940    0.02590    1.000
    C113     C        0.51930    0.14840    0.91860    1.000
    H94      H        0.55440    0.18850    0.93950    1.000
    C114     C        0.44160    0.12460    0.91100    1.000
    H95      H        0.41460    0.14680    0.92620    1.000
    C115     C        0.46610    0.04830    0.86830    1.000
    H96      H        0.45860    0.00560    0.84900    1.000
    C116     C        0.76200    0.00320    0.79960    1.000
    H97      H        0.77640    0.98460    0.82720    1.000
    C117     C        0.76800    0.98870    0.75130    1.000
    H98      H        0.78860    0.95820    0.73900    1.000
    C118     C        0.69890    0.04590    0.75351    1.000
    H99      H        0.65450    0.04940    0.74550    1.000
    C119     C        0.74830    0.36610    0.17770    1.000
    H100     H        0.80280    0.38810    0.17910    1.000
    C120     C        0.69950    0.28550    0.17670    1.000
    C121     C        0.80490    0.25320    0.19450    1.000
    H101     H        0.84140    0.29860    0.21110    1.000
    C122     C        0.81130    0.18800    0.18230    1.000
    H102     H        0.85640    0.18420    0.18660    1.000
    C123     C        0.69680    0.16100    0.16200    1.000
    H103     H        0.64440    0.13330    0.15180    1.000
    N33      N        0.75210    0.05930    0.05598    1.000
    N34      N        0.74290    0.08600    0.97752    1.000
    N35      N        0.40980    0.06460    0.87846    1.000
    N36      N        0.53460    0.09980    0.88858    1.000
    N37      N        0.73590    0.03030    0.72079    1.000
    N38      N        0.72630    0.05670    0.79912    1.000
    N39      N        0.74220    0.13020    0.16320    1.000
    N40      N        0.73230    0.23570    0.17660    1.000
    O9       O        0.85597    0.05852    0.14514    1.000
    O10      O        0.78409    0.93704    0.11547    1.000
    C124     C        0.80920    0.09120    0.78830    1.000
    H104     H        0.85110    0.11910    0.81010    1.000
    C125     C        0.81300    0.07450    0.74040    1.000
    H105     H        0.85930    0.08970    0.72270    1.000
    Cd6      Cd       0.28993    0.27979    0.13856    1.000
    C126     C        0.99950    0.07420    0.12566    1.000
    H106     H        0.99950    0.07720    0.16170    1.000
    H107     H        0.99930    0.12020    0.11250    1.000
    C127     C        0.07450    0.07490    0.10843    1.000
    H108     H        0.07400    0.07440    0.07200    1.000
    C128     C        0.14810    0.15000    0.12471    1.000
    C129     C        0.38170    0.29320    0.93160    1.000
    C130     C        0.45610    0.35820    0.93240    1.000
    H109     H        0.48350    0.37690    0.96210    1.000
    C131     C        0.48920    0.39510    0.88753    1.000
    C132     C        0.44960    0.36770    0.84334    1.000
    H110     H        0.47260    0.39300    0.81360    1.000
    C133     C        0.37490    0.30170    0.84379    1.000
    C134     C        0.33960    0.26270    0.88776    1.000
    H111     H        0.28980    0.21790    0.88780    1.000
    C135     C        0.28660    0.17910    0.98505    1.000
    H112     H        0.26710    0.13820    0.96200    1.000
    C136     C        0.26580    0.17520    0.03297    1.000
    H113     H        0.22830    0.12930    0.04870    1.000
    C137     C        0.35350    0.29590    0.02120    1.000
    H114     H        0.38870    0.34930    0.02590    1.000
    C138     C        0.62910    0.48070    0.91860    1.000
    H115     H        0.63410    0.44560    0.93950    1.000
    C139     C        0.68300    0.55840    0.91100    1.000
    H116     H        0.73220    0.58540    0.92620    1.000
    C140     C        0.58220    0.53390    0.86830    1.000
    H117     H        0.54700    0.54140    0.84900    1.000
    C141     C        0.24120    0.23800    0.79960    1.000
    H118     H        0.20820    0.22360    0.82720    1.000
    C142     C        0.22070    0.23200    0.75130    1.000
    H119     H        0.16960    0.21140    0.73900    1.000
    C143     C        0.34700    0.30110    0.75351    1.000
    H120     H        0.39490    0.34550    0.74550    1.000
    C144     C        0.61780    0.25170    0.17770    1.000
    H121     H        0.58530    0.19720    0.17910    1.000
    C145     C        0.58600    0.30050    0.17670    1.000
    C146     C        0.44830    0.19510    0.19450    1.000
    H122     H        0.45720    0.15860    0.21110    1.000
    C147     C        0.37670    0.18870    0.18230    1.000
    H123     H        0.32780    0.14360    0.18660    1.000
    C148     C        0.46420    0.30320    0.16200    1.000
    H124     H        0.48890    0.35560    0.15180    1.000
    N41      N        0.30720    0.24790    0.05598    1.000
    N42      N        0.34310    0.25710    0.97752    1.000
    N43      N        0.65480    0.59020    0.87846    1.000
    N44      N        0.56520    0.46540    0.88858    1.000
    N45      N        0.29440    0.26410    0.72079    1.000
    N46      N        0.33040    0.27370    0.79912    1.000
    N47      N        0.38800    0.25780    0.16320    1.000
    N48      N        0.50340    0.26770    0.17660    1.000
    O11      O        0.20255    0.14403    0.14514    1.000
    O12      O        0.15295    0.21591    0.11547    1.000
    C149     C        0.28200    0.19080    0.78830    1.000
    H125     H        0.26800    0.14890    0.81010    1.000
    C150     C        0.26150    0.18700    0.74040    1.000
    H126     H        0.23040    0.14070    0.72270    1.000
    Cd7      Cd       0.71007    0.98986    0.63856    1.000
    C151     C        0.00050    0.07470    0.62566    1.000
    H127     H        0.00050    0.07770    0.66170    1.000
    H128     H        0.00070    0.12090    0.61250    1.000
    C152     C        0.92550    0.00040    0.60843    1.000
    H129     H        0.92600    0.00040    0.57200    1.000
    C153     C        0.85190    0.00190    0.62471    1.000
    C154     C        0.61830    0.91150    0.43160    1.000
    C155     C        0.54390    0.90210    0.43240    1.000
    H130     H        0.51650    0.89340    0.46210    1.000
    C156     C        0.51080    0.90590    0.38753    1.000
    C157     C        0.55040    0.91810    0.34334    1.000
    H131     H        0.52740    0.92040    0.31360    1.000
    C158     C        0.62510    0.92680    0.34379    1.000
    C159     C        0.66040    0.92310    0.38776    1.000
    H132     H        0.71020    0.92810    0.38780    1.000
    C160     C        0.71340    0.89250    0.48505    1.000
    H133     H        0.73290    0.87110    0.46200    1.000
    C161     C        0.73420    0.90940    0.53297    1.000
    H134     H        0.77170    0.90100    0.54870    1.000
    C162     C        0.64650    0.94240    0.52120    1.000
    H135     H        0.61130    0.96060    0.52590    1.000
    C163     C        0.37090    0.85160    0.41860    1.000
    H136     H        0.36590    0.81150    0.43950    1.000
    C164     C        0.31700    0.87540    0.41100    1.000
    H137     H        0.26780    0.85320    0.42620    1.000
    C165     C        0.41780    0.95170    0.36830    1.000
    H138     H        0.45300    0.99440    0.34900    1.000
    C166     C        0.75880    0.99680    0.29960    1.000
    H139     H        0.79180    0.01540    0.32720    1.000
    C167     C        0.77930    0.01130    0.25130    1.000
    H140     H        0.83040    0.04180    0.23900    1.000
    C168     C        0.65300    0.95410    0.25351    1.000
    H141     H        0.60510    0.95060    0.24550    1.000
    C169     C        0.38220    0.63390    0.67770    1.000
    H142     H        0.41470    0.61190    0.67910    1.000
    C170     C        0.41400    0.71450    0.67670    1.000
    C171     C        0.55170    0.74680    0.69450    1.000
    H143     H        0.54280    0.70140    0.71110    1.000
    C172     C        0.62330    0.81200    0.68230    1.000
    H144     H        0.67220    0.81580    0.68660    1.000
    C173     C        0.53580    0.83900    0.66200    1.000
    H145     H        0.51110    0.86670    0.65180    1.000
    N49      N        0.69280    0.94070    0.55598    1.000
    N50      N        0.65690    0.91400    0.47752    1.000
    N51      N        0.34520    0.93540    0.37846    1.000
    N52      N        0.43480    0.90020    0.38858    1.000
    N53      N        0.70560    0.96970    0.22079    1.000
    N54      N        0.66960    0.94330    0.29912    1.000
    N55      N        0.61200    0.86980    0.66320    1.000
    N56      N        0.49660    0.76430    0.67660    1.000
    O13      O        0.79745    0.94148    0.64514    1.000
    O14      O        0.84705    0.06296    0.61547    1.000
    C174     C        0.71800    0.90880    0.28830    1.000
    H146     H        0.73200    0.88090    0.31010    1.000
    C175     C        0.73850    0.92550    0.24040    1.000
    H147     H        0.76960    0.91030    0.22270    1.000
    Cd8      Cd       0.01014    0.72021    0.63856    1.000
    C176     C        0.92530    0.92580    0.62566    1.000
    H148     H        0.92230    0.92280    0.66170    1.000
    H149     H        0.87910    0.87980    0.61250    1.000
    C177     C        0.99960    0.92510    0.60843    1.000
    H150     H        0.99960    0.92560    0.57200    1.000
    C178     C        0.99810    0.85000    0.62471    1.000
    C179     C        0.08850    0.70680    0.43160    1.000
    C180     C        0.09790    0.64180    0.43240    1.000
    H151     H        0.10660    0.62310    0.46210    1.000
    C181     C        0.09410    0.60490    0.38753    1.000
    C182     C        0.08190    0.63230    0.34334    1.000
    H152     H        0.07960    0.60700    0.31360    1.000
    C183     C        0.07320    0.69830    0.34379    1.000
    C184     C        0.07690    0.73730    0.38776    1.000
    H153     H        0.07190    0.78210    0.38780    1.000
    C185     C        0.10750    0.82090    0.48505    1.000
    H154     H        0.12890    0.86180    0.46200    1.000
    C186     C        0.09060    0.82480    0.53297    1.000
    H155     H        0.09900    0.87070    0.54870    1.000
    C187     C        0.05760    0.70410    0.52120    1.000
    H156     H        0.03940    0.65070    0.52590    1.000
    C188     C        0.14840    0.51930    0.41860    1.000
    H157     H        0.18850    0.55440    0.43950    1.000
    C189     C        0.12460    0.44160    0.41100    1.000
    H158     H        0.14680    0.41460    0.42620    1.000
    C190     C        0.04830    0.46610    0.36830    1.000
    H159     H        0.00560    0.45860    0.34900    1.000
    C191     C        0.00320    0.76200    0.29960    1.000
    H160     H        0.98460    0.77640    0.32720    1.000
    C192     C        0.98870    0.76800    0.25130    1.000
    H161     H        0.95820    0.78860    0.23900    1.000
    C193     C        0.04590    0.69890    0.25351    1.000
    H162     H        0.04940    0.65450    0.24550    1.000
    C194     C        0.36610    0.74830    0.67770    1.000
    H163     H        0.38810    0.80280    0.67910    1.000
    C195     C        0.28550    0.69950    0.67670    1.000
    C196     C        0.25320    0.80490    0.69450    1.000
    H164     H        0.29860    0.84140    0.71110    1.000
    C197     C        0.18800    0.81130    0.68230    1.000
    H165     H        0.18420    0.85640    0.68660    1.000
    C198     C        0.16100    0.69680    0.66200    1.000
    H166     H        0.13330    0.64440    0.65180    1.000
    N57      N        0.05930    0.75210    0.55598    1.000
    N58      N        0.08600    0.74290    0.47752    1.000
    N59      N        0.06460    0.40980    0.37846    1.000
    N60      N        0.09980    0.53460    0.38858    1.000
    N61      N        0.03030    0.73590    0.22079    1.000
    N62      N        0.05670    0.72630    0.29912    1.000
    N63      N        0.13020    0.74220    0.66320    1.000
    N64      N        0.23570    0.73230    0.67660    1.000
    O15      O        0.05852    0.85597    0.64514    1.000
    O16      O        0.93704    0.78409    0.61547    1.000
    C199     C        0.09120    0.80920    0.28830    1.000
    H167     H        0.11910    0.85110    0.31010    1.000
    C200     C        0.07450    0.81300    0.24040    1.000
    H168     H        0.08970    0.85930    0.22270    1.000
    Cd9      Cd       0.27979    0.28993    0.63856    1.000
    C201     C        0.07420    0.99950    0.62566    1.000
    H169     H        0.07720    0.99950    0.66170    1.000
    H170     H        0.12020    0.99930    0.61250    1.000
    C202     C        0.07490    0.07450    0.60843    1.000
    H171     H        0.07440    0.07400    0.57200    1.000
    C203     C        0.15000    0.14810    0.62471    1.000
    C204     C        0.29320    0.38170    0.43160    1.000
    C205     C        0.35820    0.45610    0.43240    1.000
    H172     H        0.37690    0.48350    0.46210    1.000
    C206     C        0.39510    0.48920    0.38753    1.000
    C207     C        0.36770    0.44960    0.34334    1.000
    H173     H        0.39300    0.47260    0.31360    1.000
    C208     C        0.30170    0.37490    0.34379    1.000
    C209     C        0.26270    0.33960    0.38776    1.000
    H174     H        0.21790    0.28980    0.38780    1.000
    C210     C        0.17910    0.28660    0.48505    1.000
    H175     H        0.13820    0.26710    0.46200    1.000
    C211     C        0.17520    0.26580    0.53297    1.000
    H176     H        0.12930    0.22830    0.54870    1.000
    C212     C        0.29590    0.35350    0.52120    1.000
    H177     H        0.34930    0.38870    0.52590    1.000
    C213     C        0.48070    0.62910    0.41860    1.000
    H178     H        0.44560    0.63410    0.43950    1.000
    C214     C        0.55840    0.68300    0.41100    1.000
    H179     H        0.58540    0.73220    0.42620    1.000
    C215     C        0.53390    0.58220    0.36830    1.000
    H180     H        0.54140    0.54700    0.34900    1.000
    C216     C        0.23800    0.24120    0.29960    1.000
    H181     H        0.22360    0.20820    0.32720    1.000
    C217     C        0.23200    0.22070    0.25130    1.000
    H182     H        0.21140    0.16960    0.23900    1.000
    C218     C        0.30110    0.34700    0.25351    1.000
    H183     H        0.34550    0.39490    0.24550    1.000
    C219     C        0.25170    0.61780    0.67770    1.000
    H184     H        0.19720    0.58530    0.67910    1.000
    C220     C        0.30050    0.58600    0.67670    1.000
    C221     C        0.19510    0.44830    0.69450    1.000
    H185     H        0.15860    0.45720    0.71110    1.000
    C222     C        0.18870    0.37670    0.68230    1.000
    H186     H        0.14360    0.32780    0.68660    1.000
    C223     C        0.30320    0.46420    0.66200    1.000
    H187     H        0.35560    0.48890    0.65180    1.000
    N65      N        0.24790    0.30720    0.55598    1.000
    N66      N        0.25710    0.34310    0.47752    1.000
    N67      N        0.59020    0.65480    0.37846    1.000
    N68      N        0.46540    0.56520    0.38858    1.000
    N69      N        0.26410    0.29440    0.22079    1.000
    N70      N        0.27370    0.33040    0.29912    1.000
    N71      N        0.25780    0.38800    0.66320    1.000
    N72      N        0.26770    0.50340    0.67660    1.000
    O17      O        0.14403    0.20255    0.64514    1.000
    O18      O        0.21591    0.15295    0.61547    1.000
    C224     C        0.19080    0.28200    0.28830    1.000
    H188     H        0.14890    0.26800    0.31010    1.000
    C225     C        0.18700    0.26150    0.24040    1.000
    H189     H        0.14070    0.23040    0.22270    1.000
    Cd10     Cd       0.01014    0.28993    0.86144    1.000
    C226     C        0.92530    0.99950    0.87434    1.000
    H190     H        0.92230    0.99950    0.83830    1.000
    H191     H        0.87910    0.99930    0.88750    1.000
    C227     C        0.99960    0.07450    0.89157    1.000
    H192     H        0.99960    0.07400    0.92800    1.000
    C228     C        0.99810    0.14810    0.87529    1.000
    C229     C        0.08850    0.38170    0.06840    1.000
    C230     C        0.09790    0.45610    0.06760    1.000
    H193     H        0.10660    0.48350    0.03790    1.000
    C231     C        0.09410    0.48920    0.11247    1.000
    C232     C        0.08190    0.44960    0.15666    1.000
    H194     H        0.07960    0.47260    0.18640    1.000
    C233     C        0.07320    0.37490    0.15621    1.000
    C234     C        0.07690    0.33960    0.11224    1.000
    H195     H        0.07190    0.28980    0.11220    1.000
    C235     C        0.10750    0.28660    0.01495    1.000
    H196     H        0.12890    0.26710    0.03800    1.000
    C236     C        0.09060    0.26580    0.96703    1.000
    H197     H        0.09900    0.22830    0.95130    1.000
    C237     C        0.05760    0.35350    0.97880    1.000
    H198     H        0.03940    0.38870    0.97410    1.000
    C238     C        0.14840    0.62910    0.08140    1.000
    H199     H        0.18850    0.63410    0.06050    1.000
    C239     C        0.12460    0.68300    0.08900    1.000
    H200     H        0.14680    0.73220    0.07380    1.000
    C240     C        0.04830    0.58220    0.13170    1.000
    H201     H        0.00560    0.54700    0.15100    1.000
    C241     C        0.00320    0.24120    0.20040    1.000
    H202     H        0.98460    0.20820    0.17280    1.000
    C242     C        0.98870    0.22070    0.24870    1.000
    H203     H        0.95820    0.16960    0.26100    1.000
    C243     C        0.04590    0.34700    0.24649    1.000
    H204     H        0.04940    0.39490    0.25450    1.000
    C244     C        0.36610    0.61780    0.82230    1.000
    H205     H        0.38810    0.58530    0.82090    1.000
    C245     C        0.28550    0.58600    0.82330    1.000
    C246     C        0.25320    0.44830    0.80550    1.000
    H206     H        0.29860    0.45720    0.78890    1.000
    C247     C        0.18800    0.37670    0.81770    1.000
    H207     H        0.18420    0.32780    0.81340    1.000
    C248     C        0.16100    0.46420    0.83800    1.000
    H208     H        0.13330    0.48890    0.84820    1.000
    N73      N        0.05930    0.30720    0.94402    1.000
    N74      N        0.08600    0.34310    0.02248    1.000
    N75      N        0.06460    0.65480    0.12154    1.000
    N76      N        0.09980    0.56520    0.11142    1.000
    N77      N        0.03030    0.29440    0.27921    1.000
    N78      N        0.05670    0.33040    0.20088    1.000
    N79      N        0.13020    0.38800    0.83680    1.000
    N80      N        0.23570    0.50340    0.82340    1.000
    O19      O        0.05852    0.20255    0.85486    1.000
    O20      O        0.93704    0.15295    0.88453    1.000
    C249     C        0.09120    0.28200    0.21170    1.000
    H209     H        0.11910    0.26800    0.18990    1.000
    C250     C        0.07450    0.26150    0.25960    1.000
    H210     H        0.08970    0.23040    0.27730    1.000
    Cd11     Cd       0.27979    0.98986    0.86144    1.000
    C251     C        0.07420    0.07470    0.87434    1.000
    H211     H        0.07720    0.07770    0.83830    1.000
    H212     H        0.12020    0.12090    0.88750    1.000
    C252     C        0.07490    0.00040    0.89157    1.000
    H213     H        0.07440    0.00040    0.92800    1.000
    C253     C        0.15000    0.00190    0.87529    1.000
    C254     C        0.29320    0.91150    0.06840    1.000
    C255     C        0.35820    0.90210    0.06760    1.000
    H214     H        0.37690    0.89340    0.03790    1.000
    C256     C        0.39510    0.90590    0.11247    1.000
    C257     C        0.36770    0.91810    0.15666    1.000
    H215     H        0.39300    0.92040    0.18640    1.000
    C258     C        0.30170    0.92680    0.15621    1.000
    C259     C        0.26270    0.92310    0.11224    1.000
    H216     H        0.21790    0.92810    0.11220    1.000
    C260     C        0.17910    0.89250    0.01495    1.000
    H217     H        0.13820    0.87110    0.03800    1.000
    C261     C        0.17520    0.90940    0.96703    1.000
    H218     H        0.12930    0.90100    0.95130    1.000
    C262     C        0.29590    0.94240    0.97880    1.000
    H219     H        0.34930    0.96060    0.97410    1.000
    C263     C        0.48070    0.85160    0.08140    1.000
    H220     H        0.44560    0.81150    0.06050    1.000
    C264     C        0.55840    0.87540    0.08900    1.000
    H221     H        0.58540    0.85320    0.07380    1.000
    C265     C        0.53390    0.95170    0.13170    1.000
    H222     H        0.54140    0.99440    0.15100    1.000
    C266     C        0.23800    0.99680    0.20040    1.000
    H223     H        0.22360    0.01540    0.17280    1.000
    C267     C        0.23200    0.01130    0.24870    1.000
    H224     H        0.21140    0.04180    0.26100    1.000
    C268     C        0.30110    0.95410    0.24649    1.000
    H225     H        0.34550    0.95060    0.25450    1.000
    C269     C        0.25170    0.63390    0.82230    1.000
    H226     H        0.19720    0.61190    0.82090    1.000
    C270     C        0.30050    0.71450    0.82330    1.000
    C271     C        0.19510    0.74680    0.80550    1.000
    H227     H        0.15860    0.70140    0.78890    1.000
    C272     C        0.18870    0.81200    0.81770    1.000
    H228     H        0.14360    0.81580    0.81340    1.000
    C273     C        0.30320    0.83900    0.83800    1.000
    H229     H        0.35560    0.86670    0.84820    1.000
    N81      N        0.24790    0.94070    0.94402    1.000
    N82      N        0.25710    0.91400    0.02248    1.000
    N83      N        0.59020    0.93540    0.12154    1.000
    N84      N        0.46540    0.90020    0.11142    1.000
    N85      N        0.26410    0.96970    0.27921    1.000
    N86      N        0.27370    0.94330    0.20088    1.000
    N87      N        0.25780    0.86980    0.83680    1.000
    N88      N        0.26770    0.76430    0.82340    1.000
    O21      O        0.14403    0.94148    0.85486    1.000
    O22      O        0.21591    0.06296    0.88453    1.000
    C274     C        0.19080    0.90880    0.21170    1.000
    H230     H        0.14890    0.88090    0.18990    1.000
    C275     C        0.18700    0.92550    0.25960    1.000
    H231     H        0.14070    0.91030    0.27730    1.000
    Cd12     Cd       0.71007    0.72021    0.86144    1.000
    C276     C        0.00050    0.92580    0.87434    1.000
    H232     H        0.00050    0.92280    0.83830    1.000
    H233     H        0.00070    0.87980    0.88750    1.000
    C277     C        0.92550    0.92510    0.89157    1.000
    H234     H        0.92600    0.92560    0.92800    1.000
    C278     C        0.85190    0.85000    0.87529    1.000
    C279     C        0.61830    0.70680    0.06840    1.000
    C280     C        0.54390    0.64180    0.06760    1.000
    H235     H        0.51650    0.62310    0.03790    1.000
    C281     C        0.51080    0.60490    0.11247    1.000
    C282     C        0.55040    0.63230    0.15666    1.000
    H236     H        0.52740    0.60700    0.18640    1.000
    C283     C        0.62510    0.69830    0.15621    1.000
    C284     C        0.66040    0.73730    0.11224    1.000
    H237     H        0.71020    0.78210    0.11220    1.000
    C285     C        0.71340    0.82090    0.01495    1.000
    H238     H        0.73290    0.86180    0.03800    1.000
    C286     C        0.73420    0.82480    0.96703    1.000
    H239     H        0.77170    0.87070    0.95130    1.000
    C287     C        0.64650    0.70410    0.97880    1.000
    H240     H        0.61130    0.65070    0.97410    1.000
    C288     C        0.37090    0.51930    0.08140    1.000
    H241     H        0.36590    0.55440    0.06050    1.000
    C289     C        0.31700    0.44160    0.08900    1.000
    H242     H        0.26780    0.41460    0.07380    1.000
    C290     C        0.41780    0.46610    0.13170    1.000
    H243     H        0.45300    0.45860    0.15100    1.000
    C291     C        0.75880    0.76200    0.20040    1.000
    H244     H        0.79180    0.77640    0.17280    1.000
    C292     C        0.77930    0.76800    0.24870    1.000
    H245     H        0.83040    0.78860    0.26100    1.000
    C293     C        0.65300    0.69890    0.24649    1.000
    H246     H        0.60510    0.65450    0.25450    1.000
    C294     C        0.38220    0.74830    0.82230    1.000
    H247     H        0.41470    0.80280    0.82090    1.000
    C295     C        0.41400    0.69950    0.82330    1.000
    C296     C        0.55170    0.80490    0.80550    1.000
    H248     H        0.54280    0.84140    0.78890    1.000
    C297     C        0.62330    0.81130    0.81770    1.000
    H249     H        0.67220    0.85640    0.81340    1.000
    C298     C        0.53580    0.69680    0.83800    1.000
    H250     H        0.51110    0.64440    0.84820    1.000
    N89      N        0.69280    0.75210    0.94402    1.000
    N90      N        0.65690    0.74290    0.02248    1.000
    N91      N        0.34520    0.40980    0.12154    1.000
    N92      N        0.43480    0.53460    0.11142    1.000
    N93      N        0.70560    0.73590    0.27921    1.000
    N94      N        0.66960    0.72630    0.20088    1.000
    N95      N        0.61200    0.74220    0.83680    1.000
    N96      N        0.49660    0.73230    0.82340    1.000
    O23      O        0.79745    0.85597    0.85486    1.000
    O24      O        0.84705    0.78409    0.88453    1.000
    C299     C        0.71800    0.80920    0.21170    1.000
    H251     H        0.73200    0.85110    0.18990    1.000
    C300     C        0.73850    0.81300    0.25960    1.000
    H252     H        0.76960    0.85930    0.27730    1.000
