data_functionalizedCrystal
_audit_creation_method	'EQeq! by Chris Wilmer'
_symmetry_space_group_name_H-M	'P1'
_symmetry_Int_Tables_number	1
_symmetry_cell_setting	triclinic
loop_
_symmetry_equiv_pos_as_xyz
  x,y,z
_cell_length_a	12.375
_cell_length_b	23.376
_cell_length_c	8.5893
_cell_angle_alpha	90
_cell_angle_beta	104.46
_cell_angle_gamma	90
loop_
_atom_site_label
_atom_site_type_symbol
_atom_site_fract_x
_atom_site_fract_y
_atom_site_fract_z
_atom_site_charge
Mof_Cd	Cd	0.23929	0.21877	0.45246	0.517
Mof_O 	O 	0.0941	0.9385	0.3462	-0.242
Mof_O 	O 	0.2484	0.7828	0.6289	-0.256
Mof_O 	O 	0.4432	0.9481	0.6732	-0.233
Mof_O 	O 	0.2164	0.1419	0.6167	-0.301
Mof_O 	O 	0.2556	0.1185	0.3939	-0.288
Mof_O 	O 	0.8957	0.7845	0.1088	-0.296
Mof_O 	O 	0.9514	0.7091	0.2438	-0.275
Mof_O 	O 	0.7069	0.7735	0.7854	-0.309
Mof_O 	O 	0.5944	0.7624	0.9374	-0.322
Mof_N 	N 	0.1669	0.8601	0.4864	-0.209
Mof_N 	N 	0.3454	0.8651	0.6548	-0.213
Mof_N 	N 	0.2704	0.9438	0.5039	-0.213
Mof_C 	C 	0.1707	0.9164	0.4384	0.297
Mof_C 	C 	0.2534	0.8325	0.5929	0.296
Mof_C 	C 	0.3569	0.9214	0.6114	0.288
Mof_C 	C 	0.0627	0.8268	0.4238	0.155
Mof_H 	H 	0.9999	0.8527	0.3907	0.025
Mof_H 	H 	0.0491	0.8022	0.5078	0.014
Mof_C 	C 	0.0739	0.7911	0.2827	-0.456
Mof_H 	H 	0.1335	0.7634	0.3178	0.203
Mof_H 	H 	0.0931	0.8155	0.2023	0.204
Mof_C 	C 	0.9661	0.7601	0.2099	0.441
Mof_C 	C 	0.4372	0.8371	0.7733	0.176
Mof_H 	H 	0.4074	0.8059	0.8241	0.013
Mof_H 	H 	0.4709	0.8645	0.8562	0.012
Mof_C 	C 	0.5242	0.8146	0.697	-0.479
Mof_H 	H 	0.559	0.8465	0.6555	0.209
Mof_H 	H 	0.489	0.7904	0.6069	0.206
Mof_C 	C 	0.6134	0.7806	0.8128	0.46
Mof_C 	C 	0.2797	0.0051	0.465	0.144
Mof_H 	H 	0.2426	0.0115	0.3528	0.029
Mof_H 	H 	0.3578	0.0149	0.4805	0.025
Mof_C 	C 	0.2287	0.0432	0.5679	-0.444
Mof_H 	H 	0.2681	0.0381	0.6798	0.193
Mof_H 	H 	0.1516	0.0322	0.5563	0.195
Mof_C 	C 	0.2333	0.1054	0.5234	0.43
Mof_Cd	Cd	0.76071	0.71877	0.04754	0.517
Mof_O 	O 	0.9059	0.4385	0.1538	-0.242
Mof_O 	O 	0.7516	0.2828	0.8711	-0.255
Mof_O 	O 	0.5568	0.4481	0.8268	-0.232
Mof_O 	O 	0.7836	0.6419	0.8833	-0.3
Mof_O 	O 	0.7444	0.6185	0.1061	-0.288
Mof_O 	O 	0.1043	0.2845	0.3912	-0.294
Mof_O 	O 	0.0486	0.2091	0.2562	-0.274
Mof_O 	O 	0.2931	0.2735	0.7146	-0.309
Mof_O 	O 	0.4056	0.2624	0.5626	-0.323
Mof_N 	N 	0.8331	0.3601	0.0136	-0.208
Mof_N 	N 	0.6546	0.3651	0.8452	-0.213
Mof_N 	N 	0.7296	0.4438	0.9961	-0.213
Mof_C 	C 	0.8293	0.4164	0.0616	0.297
Mof_C 	C 	0.7466	0.3325	0.9071	0.296
Mof_C 	C 	0.6431	0.4214	0.8886	0.287
Mof_C 	C 	0.9373	0.3268	0.0762	0.154
Mof_H 	H 	0.0001	0.3527	0.1093	0.026
Mof_H 	H 	0.9509	0.3022	0.9922	0.014
Mof_C 	C 	0.9261	0.2911	0.2173	-0.456
Mof_H 	H 	0.8665	0.2634	0.1822	0.204
Mof_H 	H 	0.9069	0.3155	0.2977	0.204
Mof_C 	C 	0.0339	0.2601	0.2901	0.441
Mof_C 	C 	0.5628	0.3371	0.7267	0.176
Mof_H 	H 	0.5926	0.3059	0.6759	0.013
Mof_H 	H 	0.5291	0.3645	0.6438	0.011
Mof_C 	C 	0.4758	0.3146	0.803	-0.479
Mof_H 	H 	0.441	0.3465	0.8445	0.209
Mof_H 	H 	0.511	0.2904	0.8931	0.205
Mof_C 	C 	0.3866	0.2806	0.6872	0.46
Mof_C 	C 	0.7203	0.5051	0.035	0.144
Mof_H 	H 	0.7574	0.5115	0.1472	0.029
Mof_H 	H 	0.6422	0.5149	0.0195	0.025
Mof_C 	C 	0.7713	0.5432	0.9321	-0.445
Mof_H 	H 	0.7319	0.5381	0.8202	0.193
Mof_H 	H 	0.8484	0.5322	0.9437	0.195
Mof_C 	C 	0.7667	0.6054	0.9766	0.431
Mof_Cd	Cd	0.76071	0.78123	0.54754	0.518
Mof_O 	O 	0.9059	0.0615	0.6538	-0.241
Mof_O 	O 	0.7516	0.2172	0.3711	-0.255
Mof_O 	O 	0.5568	0.0519	0.3268	-0.232
Mof_O 	O 	0.7836	0.8581	0.3833	-0.3
Mof_O 	O 	0.7444	0.8815	0.6061	-0.287
Mof_O 	O 	0.1043	0.2155	0.8912	-0.295
Mof_O 	O 	0.0486	0.2909	0.7562	-0.274
Mof_O 	O 	0.2931	0.2265	0.2146	-0.309
Mof_O 	O 	0.4056	0.2376	0.0626	-0.322
Mof_N 	N 	0.8331	0.1399	0.5136	-0.209
Mof_N 	N 	0.6546	0.1349	0.3452	-0.213
Mof_N 	N 	0.7296	0.0562	0.4961	-0.213
Mof_C 	C 	0.8293	0.0836	0.5616	0.297
Mof_C 	C 	0.7466	0.1675	0.4071	0.296
Mof_C 	C 	0.6431	0.0786	0.3886	0.288
Mof_C 	C 	0.9373	0.1732	0.5762	0.155
Mof_H 	H 	0.0001	0.1473	0.6093	0.025
Mof_H 	H 	0.9509	0.1978	0.4922	0.014
Mof_C 	C 	0.9261	0.2089	0.7173	-0.456
Mof_H 	H 	0.8665	0.2366	0.6822	0.203
Mof_H 	H 	0.9069	0.1845	0.7977	0.204
Mof_C 	C 	0.0339	0.2399	0.7901	0.441
Mof_C 	C 	0.5628	0.1629	0.2267	0.176
Mof_H 	H 	0.5926	0.1941	0.1759	0.013
Mof_H 	H 	0.5291	0.1355	0.1438	0.012
Mof_C 	C 	0.4758	0.1854	0.303	-0.479
Mof_H 	H 	0.441	0.1535	0.3445	0.209
Mof_H 	H 	0.511	0.2096	0.3931	0.206
Mof_C 	C 	0.3866	0.2194	0.1872	0.46
Mof_C 	C 	0.7203	0.9949	0.535	0.144
Mof_H 	H 	0.7574	0.9885	0.6472	0.029
Mof_H 	H 	0.6422	0.9851	0.5195	0.025
Mof_C 	C 	0.7713	0.9568	0.4321	-0.444
Mof_H 	H 	0.7319	0.9619	0.3202	0.193
Mof_H 	H 	0.8484	0.9678	0.4437	0.195
Mof_C 	C 	0.7667	0.8946	0.4766	0.43
Mof_Cd	Cd	0.23929	0.28123	0.95246	0.517
Mof_O 	O 	0.0941	0.5615	0.8462	-0.242
Mof_O 	O 	0.2484	0.7172	0.1289	-0.255
Mof_O 	O 	0.4432	0.5519	0.1732	-0.232
Mof_O 	O 	0.2164	0.3581	0.1167	-0.3
Mof_O 	O 	0.2556	0.3815	0.8939	-0.288
Mof_O 	O 	0.8957	0.7155	0.6088	-0.294
Mof_O 	O 	0.9514	0.7909	0.7438	-0.274
Mof_O 	O 	0.7069	0.7265	0.2854	-0.309
Mof_O 	O 	0.5944	0.7376	0.4374	-0.323
Mof_N 	N 	0.1669	0.6399	0.9864	-0.208
Mof_N 	N 	0.3454	0.6349	0.1548	-0.213
Mof_N 	N 	0.2704	0.5562	0.0039	-0.213
Mof_C 	C 	0.1707	0.5836	0.9384	0.297
Mof_C 	C 	0.2534	0.6675	0.0929	0.296
Mof_C 	C 	0.3569	0.5786	0.1114	0.287
Mof_C 	C 	0.0627	0.6732	0.9238	0.154
Mof_H 	H 	0.9999	0.6473	0.8907	0.026
Mof_H 	H 	0.0491	0.6978	0.0078	0.014
Mof_C 	C 	0.0739	0.7089	0.7827	-0.456
Mof_H 	H 	0.1335	0.7366	0.8178	0.204
Mof_H 	H 	0.0931	0.6845	0.7023	0.204
Mof_C 	C 	0.9661	0.7399	0.7099	0.441
Mof_C 	C 	0.4372	0.6629	0.2733	0.176
Mof_H 	H 	0.4074	0.6941	0.3241	0.013
Mof_H 	H 	0.4709	0.6355	0.3562	0.011
Mof_C 	C 	0.5242	0.6854	0.197	-0.479
Mof_H 	H 	0.559	0.6535	0.1555	0.209
Mof_H 	H 	0.489	0.7096	0.1069	0.205
Mof_C 	C 	0.6134	0.7194	0.3128	0.46
Mof_C 	C 	0.2797	0.4949	0.965	0.144
Mof_H 	H 	0.2426	0.4885	0.8528	0.029
Mof_H 	H 	0.3578	0.4851	0.9805	0.025
Mof_C 	C 	0.2287	0.4568	0.0679	-0.445
Mof_H 	H 	0.2681	0.4619	0.1798	0.193
Mof_H 	H 	0.1516	0.4678	0.0563	0.195
Mof_C 	C 	0.2333	0.3946	0.0234	0.431
_end
