# CIF file generated by openbabel 3.1.0, see https://openbabel.org
data_I
_chemical_name_common 'image0'
_cell_length_a 8.018
_cell_length_b 21.04
_cell_length_c 11.069
_cell_angle_alpha 90
_cell_angle_beta 91.26
_cell_angle_gamma 90
_space_group_name_H-M_alt 'P 1'
_space_group_name_Hall 'P 1'
loop_
    _symmetry_equiv_pos_as_xyz
    x,y,z
loop_
    _atom_site_label
    _atom_site_type_symbol
    _atom_site_fract_x
    _atom_site_fract_y
    _atom_site_fract_z
    _atom_site_occupancy
    Zn1      Zn       0.10337    0.61355    0.27669    1.000
    Zn2      Zn       0.81521    0.69168    0.13554    1.000
    N1       N        0.86410    0.75210    0.49510    1.000
    N2       N        0.98160    0.68190    0.37450    1.000
    N3       N        0.87990    0.72260    0.30420    1.000
    N4       N        0.31590    0.65390    0.21220    1.000
    N5       N        0.56320    0.67870    0.15030    1.000
    N6       N        0.44830    0.70740    0.07730    1.000
    N7       N        0.30050    0.69240    0.11350    1.000
    O1       O        0.84600    0.45130    0.60490    1.000
    O2       O        0.75140    0.52070    0.73970    1.000
    O3       O        0.94610    0.61410    0.14110    1.000
    H1       H        0.96310    0.59390    0.07820    1.000
    C1       C        0.77040    0.50310    0.63420    1.000
    C2       C        0.69800    0.54090    0.52900    1.000
    C3       C        0.59180    0.59220    0.55170    1.000
    H2       H        0.56800    0.60340    0.63080    1.000
    C4       C        0.73360    0.52400    0.41060    1.000
    H3       H        0.80450    0.49010    0.39550    1.000
    C5       C        0.52170    0.62660    0.45490    1.000
    H4       H        0.45160    0.66080    0.46970    1.000
    C6       C        0.66230    0.55820    0.31500    1.000
    H5       H        0.68520    0.54660    0.23600    1.000
    C7       C        0.55690    0.60970    0.33620    1.000
    C8       C        0.47890    0.64690    0.23430    1.000
    C9       C        0.69580    0.81550    0.33860    1.000
    H6       H        0.74670    0.85620    0.35270    1.000
    H7       H        0.59470    0.81260    0.38320    1.000
    H8       H        0.67050    0.81070    0.25390    1.000
    C10      C        0.81300    0.76420    0.37900    1.000
    C11      C        0.96850    0.70080    0.48760    1.000
    C12      C        0.05410    0.66870    0.59210    1.000
    H9       H        0.11730    0.63320    0.56340    1.000
    H10      H        0.97240    0.65400    0.64760    1.000
    H11      H        0.12770    0.69830    0.63230    1.000
    Zn3      Zn       0.89663    0.11355    0.22331    1.000
    Zn4      Zn       0.18479    0.19168    0.36446    1.000
    N8       N        0.13590    0.25210    0.00490    1.000
    N9       N        0.01840    0.18190    0.12550    1.000
    N10      N        0.12010    0.22260    0.19580    1.000
    N11      N        0.68410    0.15390    0.28780    1.000
    N12      N        0.43680    0.17870    0.34970    1.000
    N13      N        0.55170    0.20740    0.42270    1.000
    N14      N        0.69950    0.19240    0.38650    1.000
    O4       O        0.15400    0.95130    0.89510    1.000
    O5       O        0.24860    0.02070    0.76030    1.000
    O6       O        0.05390    0.11410    0.35890    1.000
    H12      H        0.03690    0.09390    0.42180    1.000
    C13      C        0.22960    0.00310    0.86580    1.000
    C14      C        0.30200    0.04090    0.97100    1.000
    C15      C        0.40820    0.09220    0.94830    1.000
    H13      H        0.43200    0.10340    0.86920    1.000
    C16      C        0.26640    0.02400    0.08940    1.000
    H14      H        0.19550    0.99010    0.10450    1.000
    C17      C        0.47830    0.12660    0.04510    1.000
    H15      H        0.54840    0.16080    0.03030    1.000
    C18      C        0.33770    0.05820    0.18500    1.000
    H16      H        0.31480    0.04660    0.26400    1.000
    C19      C        0.44310    0.10970    0.16380    1.000
    C20      C        0.52110    0.14690    0.26570    1.000
    C21      C        0.30420    0.31550    0.16140    1.000
    H17      H        0.25330    0.35620    0.14730    1.000
    H18      H        0.40530    0.31260    0.11680    1.000
    H19      H        0.32950    0.31070    0.24610    1.000
    C22      C        0.18700    0.26420    0.12100    1.000
    C23      C        0.03150    0.20080    0.01240    1.000
    C24      C        0.94590    0.16870    0.90790    1.000
    H20      H        0.88270    0.13320    0.93660    1.000
    H21      H        0.02760    0.15400    0.85240    1.000
    H22      H        0.87230    0.19830    0.86770    1.000
    Zn5      Zn       0.89663    0.38645    0.72331    1.000
    Zn6      Zn       0.18479    0.30832    0.86446    1.000
    N15      N        0.13590    0.24790    0.50490    1.000
    N16      N        0.01840    0.31810    0.62550    1.000
    N17      N        0.12010    0.27740    0.69580    1.000
    N18      N        0.68410    0.34610    0.78780    1.000
    N19      N        0.43680    0.32130    0.84970    1.000
    N20      N        0.55170    0.29260    0.92270    1.000
    N21      N        0.69950    0.30760    0.88650    1.000
    O7       O        0.15400    0.54870    0.39510    1.000
    O8       O        0.24860    0.47930    0.26030    1.000
    O9       O        0.05390    0.38590    0.85890    1.000
    H23      H        0.03690    0.40610    0.92180    1.000
    C25      C        0.22960    0.49690    0.36580    1.000
    C26      C        0.30200    0.45910    0.47100    1.000
    C27      C        0.40820    0.40780    0.44830    1.000
    H24      H        0.43200    0.39660    0.36920    1.000
    C28      C        0.26640    0.47600    0.58940    1.000
    H25      H        0.19550    0.50990    0.60450    1.000
    C29      C        0.47830    0.37340    0.54510    1.000
    H26      H        0.54840    0.33920    0.53030    1.000
    C30      C        0.33770    0.44180    0.68500    1.000
    H27      H        0.31480    0.45340    0.76400    1.000
    C31      C        0.44310    0.39030    0.66380    1.000
    C32      C        0.52110    0.35310    0.76570    1.000
    C33      C        0.30420    0.18450    0.66140    1.000
    H28      H        0.25330    0.14380    0.64730    1.000
    H29      H        0.40530    0.18740    0.61680    1.000
    H30      H        0.32950    0.18930    0.74610    1.000
    C34      C        0.18700    0.23580    0.62100    1.000
    C35      C        0.03150    0.29920    0.51240    1.000
    C36      C        0.94590    0.33130    0.40790    1.000
    H31      H        0.88270    0.36680    0.43660    1.000
    H32      H        0.02760    0.34600    0.35240    1.000
    H33      H        0.87230    0.30170    0.36770    1.000
    Zn7      Zn       0.10337    0.88645    0.77669    1.000
    Zn8      Zn       0.81521    0.80832    0.63554    1.000
    N22      N        0.86410    0.74790    0.99510    1.000
    N23      N        0.98160    0.81810    0.87450    1.000
    N24      N        0.87990    0.77740    0.80420    1.000
    N25      N        0.31590    0.84610    0.71220    1.000
    N26      N        0.56320    0.82130    0.65030    1.000
    N27      N        0.44830    0.79260    0.57730    1.000
    N28      N        0.30050    0.80760    0.61350    1.000
    O10      O        0.84600    0.04870    0.10490    1.000
    O11      O        0.75140    0.97930    0.23970    1.000
    O12      O        0.94610    0.88590    0.64110    1.000
    H34      H        0.96310    0.90610    0.57820    1.000
    C37      C        0.77040    0.99690    0.13420    1.000
    C38      C        0.69800    0.95910    0.02900    1.000
    C39      C        0.59180    0.90780    0.05170    1.000
    H35      H        0.56800    0.89660    0.13080    1.000
    C40      C        0.73360    0.97600    0.91060    1.000
    H36      H        0.80450    0.00990    0.89550    1.000
    C41      C        0.52170    0.87340    0.95490    1.000
    H37      H        0.45160    0.83920    0.96970    1.000
    C42      C        0.66230    0.94180    0.81500    1.000
    H38      H        0.68520    0.95340    0.73600    1.000
    C43      C        0.55690    0.89030    0.83620    1.000
    C44      C        0.47890    0.85310    0.73430    1.000
    C45      C        0.69580    0.68450    0.83860    1.000
    H39      H        0.74670    0.64380    0.85270    1.000
    H40      H        0.59470    0.68740    0.88320    1.000
    H41      H        0.67050    0.68930    0.75390    1.000
    C46      C        0.81300    0.73580    0.87900    1.000
    C47      C        0.96850    0.79920    0.98760    1.000
    C48      C        0.05410    0.83130    0.09210    1.000
    H42      H        0.11730    0.86680    0.06340    1.000
    H43      H        0.97240    0.84600    0.14760    1.000
    H44      H        0.12770    0.80170    0.13230    1.000
