data_functionalizedCrystal
_audit_creation_method	'EQeq! by Chris Wilmer'
_symmetry_space_group_name_H-M	'P1'
_symmetry_Int_Tables_number	1
_symmetry_cell_setting	triclinic
loop_
_symmetry_equiv_pos_as_xyz
  x,y,z
_cell_length_a	21.9943
_cell_length_b	16.5773
_cell_length_c	25.558
_cell_angle_alpha	90
_cell_angle_beta	115.203
_cell_angle_gamma	90
loop_
_atom_site_label
_atom_site_type_symbol
_atom_site_fract_x
_atom_site_fract_y
_atom_site_fract_z
_atom_site_charge
Mof_Ag	Ag	0.84427	0.45714	0.3673	0.522
Mof_Ag	Ag	0.82228	0.75492	0.86677	0.533
Mof_C 	C 	0.0978	0.9708	0.9996	0.099
Mof_C 	C 	0.7975	0.5841	0.5042	-0.141
Mof_H 	H 	0.8197	0.5882	0.5442	0.086
Mof_C 	C 	0.0034	0.8846	0.9952	-0.134
Mof_H 	H 	0.0229	0.8834	0.0354	0.084
Mof_C 	C 	0.2773	0.1378	0.0086	-0.138
Mof_H 	H 	0.2983	0.1338	0.0487	0.074
Mof_C 	C 	0.1817	0.0522	0.0057	0.091
Mof_C 	C 	0.7098	0.7264	0.5864	0.098
Mof_C 	C 	0.5598	0.8014	0.4683	0.068
Mof_C 	C 	0.533	0.8112	0.4102	-0.153
Mof_H 	H 	0.5546	0.7901	0.389	0.084
Mof_C 	C 	0.6233	0.7563	0.5009	0.094
Mof_C 	C 	0.944	0.8441	0.9635	0.085
Mof_H 	H 	0.9242	0.8155	0.9835	-0.014
Mof_C 	C 	0.0331	0.9272	0.9654	0.067
Mof_C 	C 	0.2199	0.1532	0.8911	0.065
Mof_H 	H 	0.2002	0.1581	0.8511	-0.027
Mof_C 	C 	0.1791	0.9563	0.18	-0.145
Mof_H 	H 	0.135	0.9388	0.1599	0.083
Mof_C 	C 	0.7354	0.5644	0.3877	0.086
Mof_H 	H 	0.7138	0.5575	0.3478	-0.012
Mof_C 	C 	0.7432	0.7369	0.6505	0.066
Mof_C 	C 	0.1801	0.002	0.0866	0.094
Mof_C 	C 	0.2149	0.1013	0.9768	0.055
Mof_C 	C 	0.7357	0.621	0.4737	0.073
Mof_C 	C 	0.5256	0.8356	0.498	-0.156
Mof_H 	H 	0.5431	0.8319	0.5381	0.078
Mof_C 	C 	0.2122	0.992	0.1511	0.062
Mof_C 	C 	0.1859	0.1107	0.9173	-0.135
Mof_H 	H 	0.1439	0.0886	0.895	0.078
Mof_C 	C 	0.704	0.6093	0.4142	-0.138
Mof_H 	H 	0.6619	0.6316	0.3925	0.085
Mof_C 	C 	0.3073	0.1805	0.9785	0.078
Mof_H 	H 	0.3485	0.2054	0.9996	-0.013
Mof_C 	C 	0.705	0.6721	0.5038	0.101
Mof_C 	C 	0.4732	0.8529	0.3827	0.078
Mof_H 	H 	0.4559	0.8604	0.3429	-0.022
Mof_C 	C 	0.8251	0.5411	0.4734	0.095
Mof_H 	H 	0.8672	0.5181	0.4939	-0.016
Mof_C 	C 	0.4668	0.8742	0.4678	0.086
Mof_H 	H 	0.4444	0.896	0.4882	-0.025
Mof_C 	C 	0.002	0.9276	0.9059	-0.143
Mof_H 	H 	0.0198	0.957	0.8847	0.082
Mof_C 	C 	0.3067	0.0053	0.2414	0.077
Mof_H 	H 	0.3508	0.0225	0.2622	-0.026
Mof_C 	C 	0.944	0.8837	0.8786	0.089
Mof_H 	H 	0.9247	0.8819	0.8384	-0.009
Mof_C 	C 	0.2117	0.9466	0.2392	0.083
Mof_H 	H 	0.1888	0.9219	0.2583	-0.017
Mof_C 	C 	0.7149	0.7882	0.6771	-0.142
Mof_H 	H 	0.6763	0.8175	0.6553	0.072
Mof_C 	C 	0.7454	0.7946	0.7364	0.077
Mof_H 	H 	0.7263	0.8288	0.7541	-0.02
Mof_C 	C 	0.2776	0.0163	0.1818	-0.149
Mof_H 	H 	0.3016	0.0395	0.1633	0.075
Mof_C 	C 	0.8283	0.7089	0.7433	0.095
Mof_H 	H 	0.8678	0.6817	0.7659	-0.024
Mof_C 	C 	0.8022	0.6994	0.6841	-0.152
Mof_H 	H 	0.8243	0.6681	0.6674	0.087
Mof_N 	N 	0.7956	0.5304	0.4167	-0.195
Mof_N 	N 	0.4394	0.8827	0.411	-0.217
Mof_N 	N 	0.8008	0.7543	0.7697	-0.202
Mof_N 	N 	0.7378	0.6773	0.5618	-0.137
Mof_N 	N 	0.6478	0.71	0.4712	-0.137
Mof_N 	N 	0.6525	0.7666	0.558	-0.141
Mof_N 	N 	0.9135	0.8436	0.9059	-0.19
Mof_N 	N 	0.2753	0.9715	0.2703	-0.2
Mof_N 	N 	0.2797	0.1871	0.9213	-0.209
Mof_N 	N 	0.1257	0.0127	0.9718	-0.141
Mof_N 	N 	0.1229	0.9632	0.0577	-0.138
Mof_N 	N 	0.2111	0.0498	0.0636	-0.15
Mof_Ag	Ag	0.34427	0.95714	0.3673	0.523
Mof_Ag	Ag	0.32228	0.25492	0.86677	0.534
Mof_C 	C 	0.5978	0.4708	0.9996	0.098
Mof_C 	C 	0.2975	0.0841	0.5042	-0.14
Mof_H 	H 	0.3197	0.0882	0.5442	0.087
Mof_C 	C 	0.5034	0.3846	0.9952	-0.14
Mof_H 	H 	0.5229	0.3834	0.0354	0.088
Mof_C 	C 	0.7773	0.6378	0.0086	-0.131
Mof_H 	H 	0.7983	0.6338	0.0487	0.073
Mof_C 	C 	0.6817	0.5522	0.0057	0.096
Mof_C 	C 	0.2098	0.2264	0.5864	0.099
Mof_C 	C 	0.0598	0.3014	0.4683	0.07
Mof_C 	C 	0.033	0.3112	0.4102	-0.153
Mof_H 	H 	0.0546	0.2901	0.389	0.085
Mof_C 	C 	0.1233	0.2563	0.5009	0.095
Mof_C 	C 	0.444	0.3441	0.9635	0.09
Mof_H 	H 	0.4242	0.3155	0.9835	-0.014
Mof_C 	C 	0.5331	0.4272	0.9654	0.072
Mof_C 	C 	0.7199	0.6532	0.8911	0.064
Mof_H 	H 	0.7002	0.6581	0.8511	-0.026
Mof_C 	C 	0.6791	0.4563	0.18	-0.144
Mof_H 	H 	0.635	0.4388	0.1599	0.084
Mof_C 	C 	0.2354	0.0644	0.3877	0.087
Mof_H 	H 	0.2138	0.0575	0.3478	-0.011
Mof_C 	C 	0.2432	0.2369	0.6505	0.067
Mof_C 	C 	0.6801	0.502	0.0866	0.096
Mof_C 	C 	0.7149	0.6013	0.9768	0.05
Mof_C 	C 	0.2357	0.121	0.4737	0.073
Mof_C 	C 	0.0256	0.3356	0.498	-0.156
Mof_H 	H 	0.0431	0.3319	0.5381	0.078
Mof_C 	C 	0.7122	0.492	0.1511	0.062
Mof_C 	C 	0.6859	0.6107	0.9173	-0.131
Mof_H 	H 	0.6439	0.5886	0.895	0.076
Mof_C 	C 	0.204	0.1093	0.4142	-0.138
Mof_H 	H 	0.1619	0.1316	0.3925	0.085
Mof_C 	C 	0.8073	0.6805	0.9785	0.074
Mof_H 	H 	0.8485	0.7054	0.9996	-0.012
Mof_C 	C 	0.205	0.1721	0.5038	0.101
Mof_C 	C 	0.9732	0.3529	0.3827	0.078
Mof_H 	H 	0.9559	0.3604	0.3429	-0.022
Mof_C 	C 	0.3251	0.0411	0.4734	0.095
Mof_H 	H 	0.3672	0.0181	0.4939	-0.016
Mof_C 	C 	0.9668	0.3742	0.4678	0.086
Mof_H 	H 	0.9444	0.396	0.4882	-0.025
Mof_C 	C 	0.502	0.4276	0.9059	-0.147
Mof_H 	H 	0.5198	0.457	0.8847	0.083
Mof_C 	C 	0.8067	0.5053	0.2414	0.077
Mof_H 	H 	0.8508	0.5225	0.2622	-0.026
Mof_C 	C 	0.444	0.3837	0.8786	0.092
Mof_H 	H 	0.4247	0.3819	0.8384	-0.01
Mof_C 	C 	0.7117	0.4466	0.2392	0.083
Mof_H 	H 	0.6888	0.4219	0.2583	-0.017
Mof_C 	C 	0.2149	0.2882	0.6771	-0.142
Mof_H 	H 	0.1763	0.3175	0.6553	0.072
Mof_C 	C 	0.2454	0.2946	0.7364	0.077
Mof_H 	H 	0.2263	0.3288	0.7541	-0.02
Mof_C 	C 	0.7776	0.5163	0.1818	-0.149
Mof_H 	H 	0.8016	0.5395	0.1633	0.076
Mof_C 	C 	0.3283	0.2089	0.7433	0.095
Mof_H 	H 	0.3678	0.1817	0.7659	-0.024
Mof_C 	C 	0.3022	0.1994	0.6841	-0.152
Mof_H 	H 	0.3243	0.1681	0.6674	0.087
Mof_N 	N 	0.2956	0.0304	0.4167	-0.195
Mof_N 	N 	0.9394	0.3827	0.411	-0.217
Mof_N 	N 	0.3008	0.2543	0.7697	-0.202
Mof_N 	N 	0.2378	0.1773	0.5618	-0.137
Mof_N 	N 	0.1478	0.21	0.4712	-0.137
Mof_N 	N 	0.1525	0.2666	0.558	-0.141
Mof_N 	N 	0.4135	0.3436	0.9059	-0.191
Mof_N 	N 	0.7753	0.4715	0.2703	-0.2
Mof_N 	N 	0.7797	0.6871	0.9213	-0.208
Mof_N 	N 	0.6257	0.5127	0.9718	-0.142
Mof_N 	N 	0.6229	0.4632	0.0577	-0.137
Mof_N 	N 	0.7111	0.5498	0.0636	-0.15
Mof_Ag	Ag	0.15573	0.45714	0.1327	0.522
Mof_Ag	Ag	0.17772	0.75492	0.63323	0.534
Mof_C 	C 	0.9022	0.9708	0.5004	0.098
Mof_C 	C 	0.2025	0.5841	0.9958	-0.138
Mof_H 	H 	0.1803	0.5882	0.9558	0.086
Mof_C 	C 	0.9966	0.8846	0.5048	-0.139
Mof_H 	H 	0.9771	0.8834	0.4646	0.088
Mof_C 	C 	0.7227	0.1378	0.4914	-0.134
Mof_H 	H 	0.7017	0.1338	0.4513	0.073
Mof_C 	C 	0.8183	0.0522	0.4943	0.095
Mof_C 	C 	0.2902	0.7264	0.9136	0.099
Mof_C 	C 	0.4402	0.8014	0.0317	0.069
Mof_C 	C 	0.467	0.8112	0.0898	-0.152
Mof_H 	H 	0.4454	0.7901	0.111	0.085
Mof_C 	C 	0.3767	0.7563	0.9991	0.095
Mof_C 	C 	0.056	0.8441	0.5365	0.09
Mof_H 	H 	0.0758	0.8155	0.5165	-0.014
Mof_C 	C 	0.9669	0.9272	0.5346	0.071
Mof_C 	C 	0.7801	0.1532	0.6089	0.065
Mof_H 	H 	0.7998	0.1581	0.6489	-0.026
Mof_C 	C 	0.8209	0.9563	0.32	-0.144
Mof_H 	H 	0.865	0.9388	0.3401	0.084
Mof_C 	C 	0.2646	0.5644	0.1123	0.086
Mof_H 	H 	0.2862	0.5575	0.1522	-0.011
Mof_C 	C 	0.2568	0.7369	0.8495	0.067
Mof_C 	C 	0.8199	0.002	0.4134	0.095
Mof_C 	C 	0.7851	0.1013	0.5232	0.052
Mof_C 	C 	0.2643	0.621	0.0263	0.07
Mof_C 	C 	0.4744	0.8356	0.002	-0.156
Mof_H 	H 	0.4569	0.8319	0.9619	0.078
Mof_C 	C 	0.7878	0.992	0.3489	0.062
Mof_C 	C 	0.8141	0.1107	0.5827	-0.133
Mof_H 	H 	0.8561	0.0886	0.605	0.077
Mof_C 	C 	0.296	0.6093	0.0858	-0.136
Mof_H 	H 	0.3381	0.6316	0.1075	0.085
Mof_C 	C 	0.6927	0.1805	0.5215	0.076
Mof_H 	H 	0.6515	0.2054	0.5004	-0.012
Mof_C 	C 	0.295	0.6721	0.9962	0.102
Mof_C 	C 	0.5268	0.8529	0.1173	0.078
Mof_H 	H 	0.5441	0.8604	0.1571	-0.022
Mof_C 	C 	0.1749	0.5411	0.0266	0.093
Mof_H 	H 	0.1328	0.5181	0.0061	-0.016
Mof_C 	C 	0.5332	0.8742	0.0322	0.086
Mof_H 	H 	0.5556	0.896	0.0118	-0.025
Mof_C 	C 	0.998	0.9276	0.5941	-0.147
Mof_H 	H 	0.9802	0.957	0.6153	0.083
Mof_C 	C 	0.6933	0.0053	0.2586	0.077
Mof_H 	H 	0.6492	0.0225	0.2378	-0.026
Mof_C 	C 	0.056	0.8837	0.6214	0.092
Mof_H 	H 	0.0753	0.8819	0.6616	-0.01
Mof_C 	C 	0.7883	0.9466	0.2608	0.083
Mof_H 	H 	0.8112	0.9219	0.2417	-0.017
Mof_C 	C 	0.2851	0.7882	0.8229	-0.142
Mof_H 	H 	0.3237	0.8175	0.8447	0.072
Mof_C 	C 	0.2546	0.7946	0.7636	0.077
Mof_H 	H 	0.2737	0.8288	0.7459	-0.02
Mof_C 	C 	0.7224	0.0163	0.3182	-0.149
Mof_H 	H 	0.6984	0.0395	0.3367	0.075
Mof_C 	C 	0.1717	0.7089	0.7567	0.095
Mof_H 	H 	0.1322	0.6817	0.7341	-0.024
Mof_C 	C 	0.1978	0.6994	0.8159	-0.152
Mof_H 	H 	0.1757	0.6681	0.8326	0.087
Mof_N 	N 	0.2044	0.5304	0.0833	-0.194
Mof_N 	N 	0.5606	0.8827	0.089	-0.217
Mof_N 	N 	0.1992	0.7543	0.7303	-0.202
Mof_N 	N 	0.2622	0.6773	0.9382	-0.137
Mof_N 	N 	0.3522	0.71	0.0288	-0.137
Mof_N 	N 	0.3475	0.7666	0.942	-0.141
Mof_N 	N 	0.0865	0.8436	0.5941	-0.191
Mof_N 	N 	0.7247	0.9715	0.2297	-0.2
Mof_N 	N 	0.7203	0.1871	0.5787	-0.208
Mof_N 	N 	0.8743	0.0127	0.5282	-0.141
Mof_N 	N 	0.8771	0.9632	0.4423	-0.137
Mof_N 	N 	0.7889	0.0498	0.4364	-0.15
Mof_Ag	Ag	0.65573	0.95714	0.1327	0.523
Mof_Ag	Ag	0.67772	0.25492	0.63323	0.534
Mof_C 	C 	0.4022	0.4708	0.5004	0.098
Mof_C 	C 	0.7025	0.0841	0.9958	-0.143
Mof_H 	H 	0.6803	0.0882	0.9558	0.088
Mof_C 	C 	0.4966	0.3846	0.5048	-0.139
Mof_H 	H 	0.4771	0.3834	0.4646	0.087
Mof_C 	C 	0.2227	0.6378	0.4914	-0.134
Mof_H 	H 	0.2017	0.6338	0.4513	0.073
Mof_C 	C 	0.3183	0.5522	0.4943	0.095
Mof_C 	C 	0.7902	0.2264	0.9136	0.099
Mof_C 	C 	0.9402	0.3014	0.0317	0.068
Mof_C 	C 	0.967	0.3112	0.0898	-0.15
Mof_H 	H 	0.9454	0.2901	0.111	0.084
Mof_C 	C 	0.8767	0.2563	0.9991	0.094
Mof_C 	C 	0.556	0.3441	0.5365	0.09
Mof_H 	H 	0.5758	0.3155	0.5165	-0.014
Mof_C 	C 	0.4669	0.4272	0.5346	0.071
Mof_C 	C 	0.2801	0.6532	0.6089	0.065
Mof_H 	H 	0.2998	0.6581	0.6489	-0.026
Mof_C 	C 	0.3209	0.4563	0.32	-0.144
Mof_H 	H 	0.365	0.4388	0.3401	0.084
Mof_C 	C 	0.7646	0.0644	0.1123	0.088
Mof_H 	H 	0.7862	0.0575	0.1522	-0.011
Mof_C 	C 	0.7568	0.2369	0.8495	0.067
Mof_C 	C 	0.3199	0.502	0.4134	0.096
Mof_C 	C 	0.2851	0.6013	0.5232	0.052
Mof_C 	C 	0.7643	0.121	0.0263	0.075
Mof_C 	C 	0.9744	0.3356	0.002	-0.151
Mof_H 	H 	0.9569	0.3319	0.9619	0.076
Mof_C 	C 	0.2878	0.492	0.3489	0.062
Mof_C 	C 	0.3141	0.6107	0.5827	-0.133
Mof_H 	H 	0.3561	0.5886	0.605	0.077
Mof_C 	C 	0.796	0.1093	0.0858	-0.139
Mof_H 	H 	0.8381	0.1316	0.1075	0.086
Mof_C 	C 	0.1927	0.6805	0.5215	0.076
Mof_H 	H 	0.1515	0.7054	0.5004	-0.012
Mof_C 	C 	0.795	0.1721	0.9962	0.099
Mof_C 	C 	0.0268	0.3529	0.1173	0.075
Mof_H 	H 	0.0441	0.3604	0.1571	-0.021
Mof_C 	C 	0.6749	0.0411	0.0266	0.097
Mof_H 	H 	0.6328	0.0181	0.0061	-0.017
Mof_C 	C 	0.0332	0.3742	0.0322	0.082
Mof_H 	H 	0.0556	0.396	0.0118	-0.024
Mof_C 	C 	0.498	0.4276	0.5941	-0.147
Mof_H 	H 	0.4802	0.457	0.6153	0.083
Mof_C 	C 	0.1933	0.5053	0.2586	0.077
Mof_H 	H 	0.1492	0.5225	0.2378	-0.026
Mof_C 	C 	0.556	0.3837	0.6214	0.092
Mof_H 	H 	0.5753	0.3819	0.6616	-0.01
Mof_C 	C 	0.2883	0.4466	0.2608	0.083
Mof_H 	H 	0.3112	0.4219	0.2417	-0.017
Mof_C 	C 	0.7851	0.2882	0.8229	-0.142
Mof_H 	H 	0.8237	0.3175	0.8447	0.072
Mof_C 	C 	0.7546	0.2946	0.7636	0.077
Mof_H 	H 	0.7737	0.3288	0.7459	-0.02
Mof_C 	C 	0.2224	0.5163	0.3182	-0.149
Mof_H 	H 	0.1984	0.5395	0.3367	0.075
Mof_C 	C 	0.6717	0.2089	0.7567	0.095
Mof_H 	H 	0.6322	0.1817	0.7341	-0.024
Mof_C 	C 	0.6978	0.1994	0.8159	-0.152
Mof_H 	H 	0.6757	0.1681	0.8326	0.087
Mof_N 	N 	0.7044	0.0304	0.0833	-0.195
Mof_N 	N 	0.0606	0.3827	0.089	-0.216
Mof_N 	N 	0.6992	0.2543	0.7303	-0.202
Mof_N 	N 	0.7622	0.1773	0.9382	-0.137
Mof_N 	N 	0.8522	0.21	0.0288	-0.136
Mof_N 	N 	0.8475	0.2666	0.942	-0.141
Mof_N 	N 	0.5865	0.3436	0.5941	-0.191
Mof_N 	N 	0.2247	0.4715	0.2297	-0.2
Mof_N 	N 	0.2203	0.6871	0.5787	-0.208
Mof_N 	N 	0.3743	0.5127	0.5282	-0.141
Mof_N 	N 	0.3771	0.4632	0.4423	-0.137
Mof_N 	N 	0.2889	0.5498	0.4364	-0.15
Mof_Ag	Ag	0.15573	0.54286	0.6327	0.523
Mof_Ag	Ag	0.17772	0.24508	0.13323	0.534
Mof_C 	C 	0.9022	0.0292	0.0004	0.1
Mof_C 	C 	0.2025	0.4159	0.4958	-0.14
Mof_H 	H 	0.1803	0.4118	0.4558	0.087
Mof_C 	C 	0.9966	0.1154	0.0048	-0.133
Mof_H 	H 	0.9771	0.1166	0.9646	0.085
Mof_C 	C 	0.7227	0.8622	0.9914	-0.137
Mof_H 	H 	0.7017	0.8662	0.9513	0.075
Mof_C 	C 	0.8183	0.9478	0.9943	0.092
Mof_C 	C 	0.2902	0.2736	0.4136	0.099
Mof_C 	C 	0.4402	0.1986	0.5317	0.069
Mof_C 	C 	0.467	0.1888	0.5898	-0.152
Mof_H 	H 	0.4454	0.2099	0.611	0.085
Mof_C 	C 	0.3767	0.2437	0.4991	0.095
Mof_C 	C 	0.056	0.1559	0.0365	0.086
Mof_H 	H 	0.0758	0.1845	0.0165	-0.013
Mof_C 	C 	0.9669	0.0728	0.0346	0.068
Mof_C 	C 	0.7801	0.8468	0.1089	0.066
Mof_H 	H 	0.7998	0.8419	0.1489	-0.026
Mof_C 	C 	0.8209	0.0437	0.82	-0.144
Mof_H 	H 	0.865	0.0612	0.8401	0.084
Mof_C 	C 	0.2646	0.4356	0.6123	0.087
Mof_H 	H 	0.2862	0.4425	0.6522	-0.011
Mof_C 	C 	0.2568	0.2631	0.3495	0.067
Mof_C 	C 	0.8199	0.998	0.9134	0.095
Mof_C 	C 	0.7851	0.8987	0.0232	0.055
Mof_C 	C 	0.2643	0.379	0.5263	0.073
Mof_C 	C 	0.4744	0.1644	0.502	-0.156
Mof_H 	H 	0.4569	0.1681	0.4619	0.078
Mof_C 	C 	0.7878	0.008	0.8489	0.062
Mof_C 	C 	0.8141	0.8893	0.0827	-0.135
Mof_H 	H 	0.8561	0.9114	0.105	0.078
Mof_C 	C 	0.296	0.3907	0.5858	-0.138
Mof_H 	H 	0.3381	0.3684	0.6075	0.085
Mof_C 	C 	0.6927	0.8195	0.0215	0.078
Mof_H 	H 	0.6515	0.7946	0.0004	-0.013
Mof_C 	C 	0.295	0.3279	0.4962	0.101
Mof_C 	C 	0.5268	0.1471	0.6173	0.078
Mof_H 	H 	0.5441	0.1396	0.6571	-0.022
Mof_C 	C 	0.1749	0.4589	0.5266	0.095
Mof_H 	H 	0.1328	0.4819	0.5061	-0.016
Mof_C 	C 	0.5332	0.1258	0.5322	0.086
Mof_H 	H 	0.5556	0.104	0.5118	-0.025
Mof_C 	C 	0.998	0.0724	0.0941	-0.143
Mof_H 	H 	0.9802	0.043	0.1153	0.082
Mof_C 	C 	0.6933	0.9947	0.7586	0.077
Mof_H 	H 	0.6492	0.9775	0.7378	-0.026
Mof_C 	C 	0.056	0.1163	0.1214	0.089
Mof_H 	H 	0.0753	0.1181	0.1616	-0.009
Mof_C 	C 	0.7883	0.0534	0.7608	0.083
Mof_H 	H 	0.8112	0.0781	0.7417	-0.017
Mof_C 	C 	0.2851	0.2118	0.3229	-0.142
Mof_H 	H 	0.3237	0.1825	0.3447	0.072
Mof_C 	C 	0.2546	0.2054	0.2636	0.077
Mof_H 	H 	0.2737	0.1712	0.2459	-0.02
Mof_C 	C 	0.7224	0.9837	0.8182	-0.149
Mof_H 	H 	0.6984	0.9605	0.8367	0.075
Mof_C 	C 	0.1717	0.2911	0.2567	0.095
Mof_H 	H 	0.1322	0.3183	0.2341	-0.024
Mof_C 	C 	0.1978	0.3006	0.3159	-0.152
Mof_H 	H 	0.1757	0.3319	0.3326	0.087
Mof_N 	N 	0.2044	0.4696	0.5833	-0.195
Mof_N 	N 	0.5606	0.1173	0.589	-0.217
Mof_N 	N 	0.1992	0.2457	0.2303	-0.202
Mof_N 	N 	0.2622	0.3227	0.4382	-0.137
Mof_N 	N 	0.3522	0.29	0.5288	-0.137
Mof_N 	N 	0.3475	0.2334	0.442	-0.141
Mof_N 	N 	0.0865	0.1564	0.0941	-0.19
Mof_N 	N 	0.7247	0.0285	0.7297	-0.2
Mof_N 	N 	0.7203	0.8129	0.0787	-0.209
Mof_N 	N 	0.8743	0.9873	0.0282	-0.141
Mof_N 	N 	0.8771	0.0368	0.9423	-0.138
Mof_N 	N 	0.7889	0.9502	0.9364	-0.15
Mof_Ag	Ag	0.65573	0.04286	0.6327	0.523
Mof_Ag	Ag	0.67772	0.74508	0.13323	0.534
Mof_C 	C 	0.4022	0.5292	0.0004	0.098
Mof_C 	C 	0.7025	0.9159	0.4958	-0.14
Mof_H 	H 	0.6803	0.9118	0.4558	0.087
Mof_C 	C 	0.4966	0.6154	0.0048	-0.14
Mof_H 	H 	0.4771	0.6166	0.9646	0.088
Mof_C 	C 	0.2227	0.3622	0.9914	-0.131
Mof_H 	H 	0.2017	0.3662	0.9513	0.073
Mof_C 	C 	0.3183	0.4478	0.9943	0.096
Mof_C 	C 	0.7902	0.7736	0.4136	0.099
Mof_C 	C 	0.9402	0.6986	0.5317	0.07
Mof_C 	C 	0.967	0.6888	0.5898	-0.153
Mof_H 	H 	0.9454	0.7099	0.611	0.085
Mof_C 	C 	0.8767	0.7437	0.4991	0.095
Mof_C 	C 	0.556	0.6559	0.0365	0.09
Mof_H 	H 	0.5758	0.6845	0.0165	-0.014
Mof_C 	C 	0.4669	0.5728	0.0346	0.072
Mof_C 	C 	0.2801	0.3468	0.1089	0.064
Mof_H 	H 	0.2998	0.3419	0.1489	-0.026
Mof_C 	C 	0.3209	0.5437	0.82	-0.144
Mof_H 	H 	0.365	0.5612	0.8401	0.084
Mof_C 	C 	0.7646	0.9356	0.6123	0.087
Mof_H 	H 	0.7862	0.9425	0.6522	-0.011
Mof_C 	C 	0.7568	0.7631	0.3495	0.067
Mof_C 	C 	0.3199	0.498	0.9134	0.096
Mof_C 	C 	0.2851	0.3987	0.0232	0.05
Mof_C 	C 	0.7643	0.879	0.5263	0.073
Mof_C 	C 	0.9744	0.6644	0.502	-0.156
Mof_H 	H 	0.9569	0.6681	0.4619	0.078
Mof_C 	C 	0.2878	0.508	0.8489	0.062
Mof_C 	C 	0.3141	0.3893	0.0827	-0.131
Mof_H 	H 	0.3561	0.4114	0.105	0.076
Mof_C 	C 	0.796	0.8907	0.5858	-0.138
Mof_H 	H 	0.8381	0.8684	0.6075	0.085
Mof_C 	C 	0.1927	0.3195	0.0215	0.074
Mof_H 	H 	0.1515	0.2946	0.0004	-0.012
Mof_C 	C 	0.795	0.8279	0.4962	0.101
Mof_C 	C 	0.0268	0.6471	0.6173	0.078
Mof_H 	H 	0.0441	0.6396	0.6571	-0.022
Mof_C 	C 	0.6749	0.9589	0.5266	0.095
Mof_H 	H 	0.6328	0.9819	0.5061	-0.016
Mof_C 	C 	0.0332	0.6258	0.5322	0.086
Mof_H 	H 	0.0556	0.604	0.5118	-0.025
Mof_C 	C 	0.498	0.5724	0.0941	-0.147
Mof_H 	H 	0.4802	0.543	0.1153	0.083
Mof_C 	C 	0.1933	0.4947	0.7586	0.077
Mof_H 	H 	0.1492	0.4775	0.7378	-0.026
Mof_C 	C 	0.556	0.6163	0.1214	0.092
Mof_H 	H 	0.5753	0.6181	0.1616	-0.01
Mof_C 	C 	0.2883	0.5534	0.7608	0.083
Mof_H 	H 	0.3112	0.5781	0.7417	-0.017
Mof_C 	C 	0.7851	0.7118	0.3229	-0.142
Mof_H 	H 	0.8237	0.6825	0.3447	0.072
Mof_C 	C 	0.7546	0.7054	0.2636	0.077
Mof_H 	H 	0.7737	0.6712	0.2459	-0.02
Mof_C 	C 	0.2224	0.4837	0.8182	-0.149
Mof_H 	H 	0.1984	0.4605	0.8367	0.076
Mof_C 	C 	0.6717	0.7911	0.2567	0.095
Mof_H 	H 	0.6322	0.8183	0.2341	-0.024
Mof_C 	C 	0.6978	0.8006	0.3159	-0.152
Mof_H 	H 	0.6757	0.8319	0.3326	0.087
Mof_N 	N 	0.7044	0.9696	0.5833	-0.195
Mof_N 	N 	0.0606	0.6173	0.589	-0.217
Mof_N 	N 	0.6992	0.7457	0.2303	-0.202
Mof_N 	N 	0.7622	0.8227	0.4382	-0.137
Mof_N 	N 	0.8522	0.79	0.5288	-0.137
Mof_N 	N 	0.8475	0.7334	0.442	-0.141
Mof_N 	N 	0.5865	0.6564	0.0941	-0.191
Mof_N 	N 	0.2247	0.5285	0.7297	-0.2
Mof_N 	N 	0.2203	0.3129	0.0787	-0.208
Mof_N 	N 	0.3743	0.4873	0.0282	-0.142
Mof_N 	N 	0.3771	0.5368	0.9423	-0.137
Mof_N 	N 	0.2889	0.4502	0.9364	-0.15
Mof_Ag	Ag	0.84427	0.54286	0.8673	0.522
Mof_Ag	Ag	0.82228	0.24508	0.36677	0.534
Mof_C 	C 	0.0978	0.0292	0.4996	0.098
Mof_C 	C 	0.7975	0.4159	0.0042	-0.138
Mof_H 	H 	0.8197	0.4118	0.0442	0.086
Mof_C 	C 	0.0034	0.1154	0.4952	-0.139
Mof_H 	H 	0.0229	0.1166	0.5354	0.088
Mof_C 	C 	0.2773	0.8622	0.5086	-0.134
Mof_H 	H 	0.2983	0.8662	0.5487	0.073
Mof_C 	C 	0.1817	0.9478	0.5057	0.095
Mof_C 	C 	0.7098	0.2736	0.0864	0.099
Mof_C 	C 	0.5598	0.1986	0.9683	0.069
Mof_C 	C 	0.533	0.1888	0.9102	-0.152
Mof_H 	H 	0.5546	0.2099	0.889	0.085
Mof_C 	C 	0.6233	0.2437	0.0009	0.095
Mof_C 	C 	0.944	0.1559	0.4635	0.09
Mof_H 	H 	0.9242	0.1845	0.4835	-0.014
Mof_C 	C 	0.0331	0.0728	0.4654	0.071
Mof_C 	C 	0.2199	0.8468	0.3911	0.065
Mof_H 	H 	0.2002	0.8419	0.3511	-0.026
Mof_C 	C 	0.1791	0.0437	0.68	-0.144
Mof_H 	H 	0.135	0.0612	0.6599	0.084
Mof_C 	C 	0.7354	0.4356	0.8877	0.086
Mof_H 	H 	0.7138	0.4425	0.8478	-0.011
Mof_C 	C 	0.7432	0.2631	0.1505	0.067
Mof_C 	C 	0.1801	0.998	0.5866	0.095
Mof_C 	C 	0.2149	0.8987	0.4768	0.052
Mof_C 	C 	0.7357	0.379	0.9737	0.07
Mof_C 	C 	0.5256	0.1644	0.998	-0.156
Mof_H 	H 	0.5431	0.1681	0.0381	0.078
Mof_C 	C 	0.2122	0.008	0.6511	0.062
Mof_C 	C 	0.1859	0.8893	0.4173	-0.133
Mof_H 	H 	0.1439	0.9114	0.395	0.077
Mof_C 	C 	0.704	0.3907	0.9142	-0.136
Mof_H 	H 	0.6619	0.3684	0.8925	0.085
Mof_C 	C 	0.3073	0.8195	0.4785	0.076
Mof_H 	H 	0.3485	0.7946	0.4996	-0.012
Mof_C 	C 	0.705	0.3279	0.0038	0.102
Mof_C 	C 	0.4732	0.1471	0.8827	0.078
Mof_H 	H 	0.4559	0.1396	0.8429	-0.022
Mof_C 	C 	0.8251	0.4589	0.9734	0.093
Mof_H 	H 	0.8672	0.4819	0.9939	-0.016
Mof_C 	C 	0.4668	0.1258	0.9678	0.086
Mof_H 	H 	0.4444	0.104	0.9882	-0.025
Mof_C 	C 	0.002	0.0724	0.4059	-0.147
Mof_H 	H 	0.0198	0.043	0.3847	0.083
Mof_C 	C 	0.3067	0.9947	0.7414	0.077
Mof_H 	H 	0.3508	0.9775	0.7622	-0.026
Mof_C 	C 	0.944	0.1163	0.3786	0.092
Mof_H 	H 	0.9247	0.1181	0.3384	-0.01
Mof_C 	C 	0.2117	0.0534	0.7392	0.083
Mof_H 	H 	0.1888	0.0781	0.7583	-0.017
Mof_C 	C 	0.7149	0.2118	0.1771	-0.142
Mof_H 	H 	0.6763	0.1825	0.1553	0.072
Mof_C 	C 	0.7454	0.2054	0.2364	0.077
Mof_H 	H 	0.7263	0.1712	0.2541	-0.02
Mof_C 	C 	0.2776	0.9837	0.6818	-0.149
Mof_H 	H 	0.3016	0.9605	0.6633	0.075
Mof_C 	C 	0.8283	0.2911	0.2433	0.095
Mof_H 	H 	0.8678	0.3183	0.2659	-0.024
Mof_C 	C 	0.8022	0.3006	0.1841	-0.152
Mof_H 	H 	0.8243	0.3319	0.1674	0.087
Mof_N 	N 	0.7956	0.4696	0.9167	-0.194
Mof_N 	N 	0.4394	0.1173	0.911	-0.217
Mof_N 	N 	0.8008	0.2457	0.2697	-0.202
Mof_N 	N 	0.7378	0.3227	0.0618	-0.137
Mof_N 	N 	0.6478	0.29	0.9712	-0.137
Mof_N 	N 	0.6525	0.2334	0.058	-0.141
Mof_N 	N 	0.9135	0.1564	0.4059	-0.191
Mof_N 	N 	0.2753	0.0285	0.7703	-0.2
Mof_N 	N 	0.2797	0.8129	0.4213	-0.208
Mof_N 	N 	0.1257	0.9873	0.4718	-0.141
Mof_N 	N 	0.1229	0.0368	0.5577	-0.137
Mof_N 	N 	0.2111	0.9502	0.5636	-0.15
Mof_Ag	Ag	0.34427	0.04286	0.8673	0.523
Mof_Ag	Ag	0.32228	0.74508	0.36677	0.534
Mof_C 	C 	0.5978	0.5292	0.4996	0.098
Mof_C 	C 	0.2975	0.9159	0.0042	-0.143
Mof_H 	H 	0.3197	0.9118	0.0442	0.088
Mof_C 	C 	0.5034	0.6154	0.4952	-0.139
Mof_H 	H 	0.5229	0.6166	0.5354	0.087
Mof_C 	C 	0.7773	0.3622	0.5086	-0.134
Mof_H 	H 	0.7983	0.3662	0.5487	0.073
Mof_C 	C 	0.6817	0.4478	0.5057	0.095
Mof_C 	C 	0.2098	0.7736	0.0864	0.099
Mof_C 	C 	0.0598	0.6986	0.9683	0.068
Mof_C 	C 	0.033	0.6888	0.9102	-0.15
Mof_H 	H 	0.0546	0.7099	0.889	0.084
Mof_C 	C 	0.1233	0.7437	0.0009	0.094
Mof_C 	C 	0.444	0.6559	0.4635	0.09
Mof_H 	H 	0.4242	0.6845	0.4835	-0.014
Mof_C 	C 	0.5331	0.5728	0.4654	0.071
Mof_C 	C 	0.7199	0.3468	0.3911	0.065
Mof_H 	H 	0.7002	0.3419	0.3511	-0.026
Mof_C 	C 	0.6791	0.5437	0.68	-0.144
Mof_H 	H 	0.635	0.5612	0.6599	0.084
Mof_C 	C 	0.2354	0.9356	0.8877	0.088
Mof_H 	H 	0.2138	0.9425	0.8478	-0.011
Mof_C 	C 	0.2432	0.7631	0.1505	0.067
Mof_C 	C 	0.6801	0.498	0.5866	0.096
Mof_C 	C 	0.7149	0.3987	0.4768	0.052
Mof_C 	C 	0.2357	0.879	0.9737	0.075
Mof_C 	C 	0.0256	0.6644	0.998	-0.151
Mof_H 	H 	0.0431	0.6681	0.0381	0.076
Mof_C 	C 	0.7122	0.508	0.6511	0.062
Mof_C 	C 	0.6859	0.3893	0.4173	-0.133
Mof_H 	H 	0.6439	0.4114	0.395	0.077
Mof_C 	C 	0.204	0.8907	0.9142	-0.139
Mof_H 	H 	0.1619	0.8684	0.8925	0.086
Mof_C 	C 	0.8073	0.3195	0.4785	0.076
Mof_H 	H 	0.8485	0.2946	0.4996	-0.012
Mof_C 	C 	0.205	0.8279	0.0038	0.099
Mof_C 	C 	0.9732	0.6471	0.8827	0.075
Mof_H 	H 	0.9559	0.6396	0.8429	-0.021
Mof_C 	C 	0.3251	0.9589	0.9734	0.097
Mof_H 	H 	0.3672	0.9819	0.9939	-0.017
Mof_C 	C 	0.9668	0.6258	0.9678	0.082
Mof_H 	H 	0.9444	0.604	0.9882	-0.024
Mof_C 	C 	0.502	0.5724	0.4059	-0.147
Mof_H 	H 	0.5198	0.543	0.3847	0.083
Mof_C 	C 	0.8067	0.4947	0.7414	0.077
Mof_H 	H 	0.8508	0.4775	0.7622	-0.026
Mof_C 	C 	0.444	0.6163	0.3786	0.092
Mof_H 	H 	0.4247	0.6181	0.3384	-0.01
Mof_C 	C 	0.7117	0.5534	0.7392	0.083
Mof_H 	H 	0.6888	0.5781	0.7583	-0.017
Mof_C 	C 	0.2149	0.7118	0.1771	-0.142
Mof_H 	H 	0.1763	0.6825	0.1553	0.072
Mof_C 	C 	0.2454	0.7054	0.2364	0.077
Mof_H 	H 	0.2263	0.6712	0.2541	-0.02
Mof_C 	C 	0.7776	0.4837	0.6818	-0.149
Mof_H 	H 	0.8016	0.4605	0.6633	0.075
Mof_C 	C 	0.3283	0.7911	0.2433	0.095
Mof_H 	H 	0.3678	0.8183	0.2659	-0.024
Mof_C 	C 	0.3022	0.8006	0.1841	-0.152
Mof_H 	H 	0.3243	0.8319	0.1674	0.087
Mof_N 	N 	0.2956	0.9696	0.9167	-0.195
Mof_N 	N 	0.9394	0.6173	0.911	-0.216
Mof_N 	N 	0.3008	0.7457	0.2697	-0.202
Mof_N 	N 	0.2378	0.8227	0.0618	-0.137
Mof_N 	N 	0.1478	0.79	0.9712	-0.136
Mof_N 	N 	0.1525	0.7334	0.058	-0.141
Mof_N 	N 	0.4135	0.6564	0.4059	-0.191
Mof_N 	N 	0.7753	0.5285	0.7703	-0.2
Mof_N 	N 	0.7797	0.3129	0.4213	-0.208
Mof_N 	N 	0.6257	0.4873	0.4718	-0.141
Mof_N 	N 	0.6229	0.5368	0.5577	-0.137
Mof_N 	N 	0.7111	0.4502	0.5636	-0.15
_end
