data_functionalizedCrystal
_audit_creation_method	'EQeq! by Chris Wilmer'
_symmetry_space_group_name_H-M	'P1'
_symmetry_Int_Tables_number	1
_symmetry_cell_setting	triclinic
loop_
_symmetry_equiv_pos_as_xyz
  x,y,z
_cell_length_a	11.1053
_cell_length_b	12.5767
_cell_length_c	20.0751
_cell_angle_alpha	82.84
_cell_angle_beta	77.765
_cell_angle_gamma	79.258
loop_
_atom_site_label
_atom_site_type_symbol
_atom_site_fract_x
_atom_site_fract_y
_atom_site_fract_z
_atom_site_charge
Mof_Mn	Mn	0.47676	0.76862	0.75526	0.629
Mof_Mn	Mn	0.37142	0.51055	0.7722	0.753
Mof_Mn	Mn	0.62848	0.28246	0.7346	0.875
Mof_Mn	Mn	0.3263	0.25547	0.77027	0.87
Mof_Mn	Mn	0.58037	0.0253	0.74234	0.886
Mof_Mn	Mn	0.52324	0.23138	0.24474	0.629
Mof_Mn	Mn	0.62858	0.48945	0.2278	0.753
Mof_Mn	Mn	0.37152	0.71754	0.2654	0.875
Mof_Mn	Mn	0.6737	0.74453	0.22973	0.871
Mof_Mn	Mn	0.41963	0.9747	0.25766	0.887
Mof_H 	H 	0.9437	0.8864	0.7495	0.016
Mof_H 	H 	0.1474	0.8011	0.751	0.066
Mof_H 	H 	0.0311	0.1854	0.7575	0.064
Mof_H 	H 	0.0049	0.6486	0.7726	0.015
Mof_H 	H 	0.8007	0.7339	0.7696	0.062
Mof_H 	H 	0.9242	0.3527	0.7522	0.065
Mof_H 	H 	0.4495	0.9344	0.4723	0.021
Mof_H 	H 	0.465	0.9082	0.5878	0.077
Mof_H 	H 	0.2978	0.6601	0.4868	0.065
Mof_H 	H 	0.5699	0.555	0.0161	0.012
Mof_H 	H 	0.5183	0.6081	0.9094	0.065
Mof_H 	H 	0.6786	0.845	0.0234	0.065
Mof_H 	H 	0.2862	0.6196	0.9064	0.88
Mof_H 	H 	0.184	0.6724	0.8624	0.877
Mof_H 	H 	0.1746	0.7549	0.9457	-1.028
Mof_H 	H 	0.3159	0.7749	0.92	-0.991
Mof_H 	H 	0.212	0.828	0.8758	-0.991
Mof_H 	H 	0.7771	0.8572	0.658	0.626
Mof_H 	H 	0.6866	0.9222	0.6101	0.639
Mof_H 	H 	0.7913	0.7835	0.5704	-0.685
Mof_H 	H 	0.7364	0.7098	0.6367	-0.662
Mof_H 	H 	0.6456	0.7756	0.5881	-0.662
Mof_H 	H 	0.5173	0.1643	0.8405	0.17
Mof_H 	H 	0.4376	0.3807	0.6678	0.166
Mof_H 	H 	0.2795	0.6982	0.7912	-0.012
Mof_H 	H 	0.5803	0.9377	0.6935	-0.223
Mof_H 	H 	0.0563	0.1136	0.2505	0.016
Mof_H 	H 	0.8526	0.1989	0.249	0.066
Mof_H 	H 	0.9689	0.8146	0.2425	0.064
Mof_H 	H 	0.9951	0.3514	0.2274	0.015
Mof_H 	H 	0.1993	0.2661	0.2304	0.062
Mof_H 	H 	0.0758	0.6473	0.2478	0.065
Mof_H 	H 	0.5505	0.0656	0.5277	0.021
Mof_H 	H 	0.535	0.0918	0.4122	0.077
Mof_H 	H 	0.7022	0.3399	0.5132	0.065
Mof_H 	H 	0.4301	0.445	0.9839	0.012
Mof_H 	H 	0.4817	0.3919	0.0906	0.065
Mof_H 	H 	0.3214	0.155	0.9766	0.065
Mof_H 	H 	0.7138	0.3804	0.0936	0.88
Mof_H 	H 	0.816	0.3276	0.1376	0.877
Mof_H 	H 	0.8254	0.2451	0.0543	-1.028
Mof_H 	H 	0.6841	0.2251	0.08	-0.991
Mof_H 	H 	0.788	0.172	0.1242	-0.991
Mof_H 	H 	0.2229	0.1428	0.342	0.626
Mof_H 	H 	0.3134	0.0778	0.3899	0.639
Mof_H 	H 	0.2087	0.2165	0.4296	-0.685
Mof_H 	H 	0.2636	0.2902	0.3633	-0.662
Mof_H 	H 	0.3544	0.2244	0.4119	-0.662
Mof_H 	H 	0.4827	0.8357	0.1595	0.17
Mof_H 	H 	0.5624	0.6193	0.3322	0.166
Mof_H 	H 	0.7205	0.3018	0.2088	-0.012
Mof_H 	H 	0.4197	0.0623	0.3065	-0.223
Mof_C 	C 	0.8369	0.0932	0.7471	0.384
Mof_C 	C 	0.9696	0.0435	0.7519	-0.092
Mof_C 	C 	0.0054	0.9288	0.7508	0.039
Mof_C 	C 	0.1246	0.8776	0.7517	-0.106
Mof_C 	C 	0.2128	0.9447	0.7538	0.119
Mof_C 	C 	0.1774	0.0572	0.7565	0.049
Mof_C 	C 	0.0547	0.1091	0.7556	-0.033
Mof_C 	C 	0.115	0.4442	0.7661	0.374
Mof_C 	C 	0.9816	0.4926	0.7628	-0.092
Mof_C 	C 	0.9446	0.6068	0.7681	0.034
Mof_C 	C 	0.8247	0.6577	0.7669	-0.116
Mof_C 	C 	0.7384	0.5911	0.7613	0.102
Mof_C 	C 	0.7755	0.4791	0.7567	0.048
Mof_C 	C 	0.899	0.4283	0.7565	-0.036
Mof_C 	C 	0.3759	0.8131	0.3925	0.353
Mof_C 	C 	0.3768	0.7975	0.4682	-0.094
Mof_C 	C 	0.4242	0.8719	0.4993	0.029
Mof_C 	C 	0.435	0.8569	0.5673	-0.098
Mof_C 	C 	0.3994	0.7618	0.6044	0.102
Mof_C 	C 	0.3498	0.6893	0.5746	0.041
Mof_C 	C 	0.3351	0.7077	0.5063	-0.032
Mof_C 	C 	0.6536	0.6597	0.1001	0.361
Mof_C 	C 	0.6278	0.6952	0.0296	-0.103
Mof_C 	C 	0.5807	0.6254	0.9949	0.038
Mof_C 	C 	0.5501	0.6556	0.932	-0.106
Mof_C 	C 	0.5681	0.7608	0.9023	0.118
Mof_C 	C 	0.616	0.8301	0.9358	0.042
Mof_C 	C 	0.6465	0.798	0.0005	-0.027
Mof_C 	C 	0.2644	0.6814	0.8731	-3.027
Mof_C 	C 	0.2404	0.7643	0.9054	3.622
Mof_C 	C 	0.6985	0.8566	0.6424	-2.118
Mof_C 	C 	0.7191	0.7771	0.6075	2.435
Mof_C 	C 	0.1631	0.9068	0.2529	0.384
Mof_C 	C 	0.0304	0.9565	0.2481	-0.092
Mof_C 	C 	0.9946	0.0712	0.2492	0.039
Mof_C 	C 	0.8754	0.1224	0.2483	-0.106
Mof_C 	C 	0.7872	0.0553	0.2462	0.119
Mof_C 	C 	0.8226	0.9428	0.2435	0.049
Mof_C 	C 	0.9453	0.8909	0.2444	-0.033
Mof_C 	C 	0.885	0.5558	0.2339	0.374
Mof_C 	C 	0.0184	0.5074	0.2372	-0.092
Mof_C 	C 	0.0554	0.3932	0.2319	0.034
Mof_C 	C 	0.1753	0.3423	0.2331	-0.116
Mof_C 	C 	0.2616	0.4089	0.2387	0.102
Mof_C 	C 	0.2245	0.5209	0.2433	0.048
Mof_C 	C 	0.101	0.5717	0.2435	-0.036
Mof_C 	C 	0.6241	0.1869	0.6075	0.353
Mof_C 	C 	0.6232	0.2025	0.5318	-0.094
Mof_C 	C 	0.5758	0.1281	0.5007	0.029
Mof_C 	C 	0.565	0.1431	0.4327	-0.098
Mof_C 	C 	0.6006	0.2382	0.3956	0.102
Mof_C 	C 	0.6502	0.3107	0.4254	0.041
Mof_C 	C 	0.6649	0.2923	0.4937	-0.032
Mof_C 	C 	0.3464	0.3403	0.8999	0.361
Mof_C 	C 	0.3722	0.3048	0.9704	-0.103
Mof_C 	C 	0.4193	0.3746	0.0051	0.038
Mof_C 	C 	0.4499	0.3444	0.068	-0.106
Mof_C 	C 	0.4319	0.2392	0.0977	0.118
Mof_C 	C 	0.384	0.1699	0.0642	0.042
Mof_C 	C 	0.3535	0.202	0.9995	-0.027
Mof_C 	C 	0.7356	0.3186	0.1269	-3.027
Mof_C 	C 	0.7596	0.2357	0.0946	3.622
Mof_C 	C 	0.3015	0.1434	0.3576	-2.118
Mof_C 	C 	0.2809	0.2229	0.3925	2.435
Mof_N 	N 	0.3377	0.9208	0.7532	-0.142
Mof_N 	N 	0.3759	0.014	0.7553	-0.117
Mof_N 	N 	0.2833	0.0985	0.7574	-0.156
Mof_N 	N 	0.6707	0.4379	0.7534	-0.155
Mof_N 	N 	0.577	0.5225	0.7557	-0.122
Mof_N 	N 	0.6148	0.6149	0.76	-0.153
Mof_N 	N 	0.3277	0.6044	0.6217	-0.086
Mof_N 	N 	0.364	0.6236	0.6767	-0.121
Mof_N 	N 	0.4072	0.7178	0.6691	-0.156
Mof_N 	N 	0.5467	0.8154	0.8418	-0.149
Mof_N 	N 	0.5812	0.9131	0.8397	-0.119
Mof_N 	N 	0.6221	0.9262	0.8949	-0.08
Mof_N 	N 	0.6623	0.0792	0.2468	-0.142
Mof_N 	N 	0.6241	0.986	0.2447	-0.117
Mof_N 	N 	0.7167	0.9015	0.2426	-0.156
Mof_N 	N 	0.3293	0.5621	0.2466	-0.155
Mof_N 	N 	0.423	0.4775	0.2443	-0.122
Mof_N 	N 	0.3852	0.3851	0.24	-0.153
Mof_N 	N 	0.6723	0.3956	0.3783	-0.086
Mof_N 	N 	0.636	0.3764	0.3233	-0.121
Mof_N 	N 	0.5928	0.2822	0.3309	-0.156
Mof_N 	N 	0.4533	0.1846	0.1582	-0.149
Mof_N 	N 	0.4188	0.0869	0.1603	-0.119
Mof_N 	N 	0.3779	0.0738	0.1051	-0.08
Mof_O 	O 	0.7715	0.0324	0.73241	-0.412
Mof_O 	O 	0.8012	0.1919	0.75739	-0.381
Mof_O 	O 	0.1527	0.3474	0.75094	-0.379
Mof_O 	O 	0.1799	0.5033	0.78381	-0.402
Mof_O 	O 	0.3262	0.7478	0.36883	-0.384
Mof_O 	O 	0.4273	0.8891	0.35831	-0.393
Mof_O 	O 	0.6115	0.5769	0.1305	-0.408
Mof_O 	O 	0.7107	0.7171	0.12552	-0.38
Mof_O 	O 	0.514	0.1736	0.79069	-0.546
Mof_O 	O 	0.4419	0.3668	0.71745	-0.531
Mof_O 	O 	0.3441	0.6658	0.81909	0.469
Mof_O 	O 	0.6119	0.8716	0.69402	0.382
Mof_O 	O 	0.2285	0.9676	0.26759	-0.412
Mof_O 	O 	0.1988	0.8081	0.24261	-0.381
Mof_O 	O 	0.8473	0.6526	0.24906	-0.379
Mof_O 	O 	0.8201	0.4967	0.21619	-0.402
Mof_O 	O 	0.6738	0.2522	0.63117	-0.384
Mof_O 	O 	0.5727	0.1109	0.64169	-0.393
Mof_O 	O 	0.3885	0.4231	0.8695	-0.408
Mof_O 	O 	0.2893	0.2829	0.87448	-0.38
Mof_O 	O 	0.486	0.8264	0.20931	-0.546
Mof_O 	O 	0.5581	0.6332	0.28255	-0.531
Mof_O 	O 	0.6559	0.3342	0.18091	0.469
Mof_O 	O 	0.3881	0.1284	0.30598	0.382
_end
