data_functionalizedCrystal
_audit_creation_method	'EQeq! by Chris Wilmer'
_symmetry_space_group_name_H-M	'P1'
_symmetry_Int_Tables_number	1
_symmetry_cell_setting	triclinic
loop_
_symmetry_equiv_pos_as_xyz
  x,y,z
_cell_length_a	7.3058
_cell_length_b	7.3058
_cell_length_c	8.1897
_cell_angle_alpha	90
_cell_angle_beta	90
_cell_angle_gamma	120
loop_
_atom_site_label
_atom_site_type_symbol
_atom_site_fract_x
_atom_site_fract_y
_atom_site_fract_z
_atom_site_charge
Mof_O 	O 	0.89045	0.30738	0.89444	-0.24
Mof_O 	O 	0.69262	0.58307	0.89444	-0.258
Mof_O 	O 	0.41693	0.10955	0.89444	-0.27
Mof_O 	O 	0.10955	0.69262	0.39444	-0.344
Mof_O 	O 	0.30738	0.41693	0.39444	-0.374
Mof_O 	O 	0.58307	0.89045	0.39444	-0.293
Mof_O 	O 	0.30738	0.89045	0.10556	-0.286
Mof_O 	O 	0.58307	0.69262	0.10556	-0.326
Mof_O 	O 	0.10955	0.41693	0.10556	-0.346
Mof_O 	O 	0.69262	0.10955	0.60556	-0.339
Mof_O 	O 	0.41693	0.30738	0.60556	-0.367
Mof_O 	O 	0.89045	0.58307	0.60556	-0.303
Mof_Co	Co	0.66667	0.33333	0.75	1.201
Mof_Co	Co	0.33333	0.66667	0.25	1.198
Mof_C 	C 	-3.75393e-17	0.439	-0	0.191
Mof_H 	H 	-0	0.592	-0	-0.025
Mof_C 	C 	0.561	0.561	-0	0.243
Mof_H 	H 	0.408	0.408	-0	-0.034
Mof_C 	C 	0.439	0	-0	0.162
Mof_H 	H 	0.592	0	-0	-0.027
Mof_C 	C 	6.43797e-18	0.561	0.5	0.295
Mof_H 	H 	6.43797e-18	0.408	0.5	-0.031
Mof_C 	C 	0.439	0.439	0.5	0.355
Mof_H 	H 	0.592	0.592	0.5	-0.021
Mof_C 	C 	0.561	8.3354e-33	0.5	0.27
Mof_H 	H 	0.408	8.3354e-33	0.5	-0.031
_end
