# CIF file generated by openbabel 3.1.0, see https://openbabel.org
data_I
_chemical_name_common 'image0'
_cell_length_a 22.915
_cell_length_b 14.2802
_cell_length_c 5.6451
_cell_angle_alpha 90
_cell_angle_beta 102.801
_cell_angle_gamma 90
_space_group_name_H-M_alt 'P 1'
_space_group_name_Hall 'P 1'
loop_
    _symmetry_equiv_pos_as_xyz
    x,y,z
loop_
    _atom_site_label
    _atom_site_type_symbol
    _atom_site_fract_x
    _atom_site_fract_y
    _atom_site_fract_z
    _atom_site_occupancy
    P1       P        0.58433    0.13220    0.27360    1.000
    O1       O        0.55140    0.03810    0.15960    1.000
    O2       O        0.56710    0.19980    0.03280    1.000
    O3       O        0.56130    0.16190    0.50270    1.000
    C1       C        0.66640    0.10300    0.36050    1.000
    C2       C        0.76460    0.15288    0.46820    1.000
    C3       C        0.77830    0.09190    0.70300    1.000
    C4       C        0.69544    0.27800    0.33650    1.000
    C5       C        0.64730    0.35500    0.33700    1.000
    N1       N        0.70145    0.18580    0.47990    1.000
    P2       P        0.08433    0.63220    0.27360    1.000
    O4       O        0.05140    0.53810    0.15960    1.000
    O5       O        0.06710    0.69980    0.03280    1.000
    O6       O        0.06130    0.66190    0.50270    1.000
    C6       C        0.16640    0.60300    0.36050    1.000
    C7       C        0.26460    0.65288    0.46820    1.000
    C8       C        0.27830    0.59190    0.70300    1.000
    C9       C        0.19544    0.77800    0.33650    1.000
    C10      C        0.14730    0.85500    0.33700    1.000
    N2       N        0.20145    0.68580    0.47990    1.000
    P3       P        0.41567    0.13220    0.22640    1.000
    O7       O        0.44860    0.03810    0.34040    1.000
    O8       O        0.43290    0.19980    0.46720    1.000
    O9       O        0.43870    0.16190    0.99730    1.000
    C11      C        0.33360    0.10300    0.13950    1.000
    C12      C        0.23540    0.15288    0.03180    1.000
    C13      C        0.22170    0.09190    0.79700    1.000
    C14      C        0.30456    0.27800    0.16350    1.000
    C15      C        0.35270    0.35500    0.16300    1.000
    N3       N        0.29855    0.18580    0.02010    1.000
    P4       P        0.91567    0.63220    0.22640    1.000
    O10      O        0.94860    0.53810    0.34040    1.000
    O11      O        0.93290    0.69980    0.46720    1.000
    O12      O        0.93870    0.66190    0.99730    1.000
    C16      C        0.83360    0.60300    0.13950    1.000
    C17      C        0.73540    0.65288    0.03180    1.000
    C18      C        0.72170    0.59190    0.79700    1.000
    C19      C        0.80456    0.77800    0.16350    1.000
    C20      C        0.85270    0.85500    0.16300    1.000
    N4       N        0.79855    0.68580    0.02010    1.000
    P5       P        0.41567    0.86780    0.72640    1.000
    O13      O        0.44860    0.96190    0.84040    1.000
    O14      O        0.43290    0.80020    0.96720    1.000
    O15      O        0.43870    0.83810    0.49730    1.000
    C21      C        0.33360    0.89700    0.63950    1.000
    C22      C        0.23540    0.84712    0.53180    1.000
    C23      C        0.22170    0.90810    0.29700    1.000
    C24      C        0.30456    0.72200    0.66350    1.000
    C25      C        0.35270    0.64500    0.66300    1.000
    N5       N        0.29855    0.81420    0.52010    1.000
    P6       P        0.91567    0.36780    0.72640    1.000
    O16      O        0.94860    0.46190    0.84040    1.000
    O17      O        0.93290    0.30020    0.96720    1.000
    O18      O        0.93870    0.33810    0.49730    1.000
    C26      C        0.83360    0.39700    0.63950    1.000
    C27      C        0.73540    0.34712    0.53180    1.000
    C28      C        0.72170    0.40810    0.29700    1.000
    C29      C        0.80456    0.22200    0.66350    1.000
    C30      C        0.85270    0.14500    0.66300    1.000
    N6       N        0.79855    0.31420    0.52010    1.000
    P7       P        0.58433    0.86780    0.77360    1.000
    O19      O        0.55140    0.96190    0.65960    1.000
    O20      O        0.56710    0.80020    0.53280    1.000
    O21      O        0.56130    0.83810    0.00270    1.000
    C31      C        0.66640    0.89700    0.86050    1.000
    C32      C        0.76460    0.84712    0.96820    1.000
    C33      C        0.77830    0.90810    0.20300    1.000
    C34      C        0.69544    0.72200    0.83650    1.000
    C35      C        0.64730    0.64500    0.83700    1.000
    N7       N        0.70145    0.81420    0.97990    1.000
    P8       P        0.08433    0.36780    0.77360    1.000
    O22      O        0.05140    0.46190    0.65960    1.000
    O23      O        0.06710    0.30020    0.53280    1.000
    O24      O        0.06130    0.33810    0.00270    1.000
    C36      C        0.16640    0.39700    0.86050    1.000
    C37      C        0.26460    0.34712    0.96820    1.000
    C38      C        0.27830    0.40810    0.20300    1.000
    C39      C        0.19544    0.22200    0.83650    1.000
    C40      C        0.14730    0.14500    0.83700    1.000
    N8       N        0.20145    0.31420    0.97990    1.000
    Ce1      Ce       0.50000    0.10305    0.75000    1.000
    Ce2      Ce       0.00000    0.60305    0.75000    1.000
    Ce3      Ce       0.50000    0.89695    0.25000    1.000
    Ce4      Ce       0.00000    0.39695    0.25000    1.000
