data_functionalizedCrystal
_audit_creation_method	'EQeq! by Chris Wilmer'
_symmetry_space_group_name_H-M	'P1'
_symmetry_Int_Tables_number	1
_symmetry_cell_setting	triclinic
loop_
_symmetry_equiv_pos_as_xyz
  x,y,z
_cell_length_a	12.3588
_cell_length_b	15.5011
_cell_length_c	34.305
_cell_angle_alpha	90
_cell_angle_beta	90
_cell_angle_gamma	90
loop_
_atom_site_label
_atom_site_type_symbol
_atom_site_fract_x
_atom_site_fract_y
_atom_site_fract_z
_atom_site_charge
Mof_Cu	Cu	0.65009	0.64226	0.51369	0.902
Mof_S 	S 	0.88048	0.62868	0.30932	-0.066
Mof_C 	C 	0.8152	0.2315	0.3332	-0.616
Mof_H 	H 	0.8775	0.194	0.3284	0.17
Mof_H 	H 	0.751	0.2073	0.3205	0.188
Mof_H 	H 	0.8023	0.2358	0.3613	0.202
Mof_C 	C 	0.8373	0.3186	0.3172	0.248
Mof_C 	C 	0.8256	0.4571	0.3068	0.104
Mof_C 	C 	0.7894	0.5463	0.3062	-0.04
Mof_C 	C 	0.6884	0.5755	0.2988	-0.034
Mof_H 	H 	0.6271	0.539	0.2958	0.037
Mof_C 	C 	0.6842	0.6666	0.296	-0.042
Mof_H 	H 	0.6196	0.6981	0.2914	0.041
Mof_C 	C 	0.7825	0.7039	0.3005	-0.035
Mof_C 	C 	0.8142	0.7942	0.2955	0.103
Mof_C 	C 	0.8172	0.9338	0.3023	0.284
Mof_C 	C 	0.7952	0.0219	0.3165	-0.669
Mof_H 	H 	0.8361	0.0635	0.3009	0.173
Mof_H 	H 	0.8172	0.0265	0.3439	0.204
Mof_H 	H 	0.7177	0.0341	0.3143	0.201
Mof_C 	C 	0.7022	0.4019	0.3582	0.11
Mof_C 	C 	0.6009	0.3627	0.3564	-0.127
Mof_H 	H 	0.5809	0.3285	0.3346	0.063
Mof_C 	C 	0.5295	0.375	0.3875	0.002
Mof_H 	H 	0.4613	0.3467	0.3875	0.019
Mof_C 	C 	0.5579	0.4287	0.4185	-0.051
Mof_H 	H 	0.5073	0.4391	0.4388	0.056
Mof_C 	C 	0.6612	0.4679	0.4199	-0.04
Mof_C 	C 	0.7307	0.4536	0.3891	-0.095
Mof_H 	H 	0.8	0.4801	0.3893	0.081
Mof_C 	C 	0.6921	0.5275	0.4509	0.32
Mof_C 	C 	0.6975	0.8537	0.3488	0.126
Mof_C 	C 	0.5938	0.8878	0.3468	-0.133
Mof_H 	H 	0.5682	0.9145	0.3236	0.074
Mof_C 	C 	0.5292	0.8818	0.3792	0.024
Mof_H 	H 	0.4591	0.9069	0.3787	0.036
Mof_C 	C 	0.5634	0.8402	0.4129	-0.06
Mof_H 	H 	0.5166	0.8352	0.4347	0.076
Mof_C 	C 	0.6676	0.8057	0.4141	-0.025
Mof_C 	C 	0.7347	0.8123	0.3815	-0.104
Mof_H 	H 	0.8055	0.7884	0.3819	0.087
Mof_C 	C 	0.7022	0.7535	0.4482	0.323
Mof_N 	N 	0.7795	0.3911	0.327	-0.182
Mof_N 	N 	0.9133	0.3381	0.2922	-0.242
Mof_N 	N 	0.9083	0.427	0.286	-0.205
Mof_N 	N 	0.7685	0.8617	0.31557	-0.19
Mof_N 	N 	0.89	0.823	0.27179	-0.203
Mof_N 	N 	0.8912	0.9125	0.2757	-0.238
Mof_O 	O 	0.6188	0.5551	0.47421	-0.396
Mof_O 	O 	0.7902	0.5529	0.4521	-0.396
Mof_O 	O 	0.6333	0.7327	0.47363	-0.4
Mof_O 	O 	0.8012	0.7301	0.44889	-0.39
Mof_Cu	Cu	0.15009	0.14226	0.01369	0.898
Mof_S 	S 	0.38048	0.12868	0.80932	-0.086
Mof_C 	C 	0.3152	0.7315	0.8332	-0.611
Mof_H 	H 	0.3775	0.694	0.8284	0.163
Mof_H 	H 	0.251	0.7073	0.8205	0.185
Mof_H 	H 	0.3023	0.7358	0.8613	0.198
Mof_C 	C 	0.3373	0.8186	0.8172	0.243
Mof_C 	C 	0.3256	0.9571	0.8068	0.131
Mof_C 	C 	0.2894	0.0463	0.8062	-0.073
Mof_C 	C 	0.1884	0.0755	0.7988	-0.019
Mof_H 	H 	0.1271	0.039	0.7958	0.019
Mof_C 	C 	0.1842	0.1666	0.796	-0.054
Mof_H 	H 	0.1196	0.1981	0.7914	0.039
Mof_C 	C 	0.2825	0.2039	0.8005	-0.029
Mof_C 	C 	0.3142	0.2942	0.7955	0.096
Mof_C 	C 	0.3172	0.4338	0.8023	0.24
Mof_C 	C 	0.2952	0.5219	0.8165	-0.597
Mof_H 	H 	0.3361	0.5635	0.8009	0.154
Mof_H 	H 	0.3172	0.5265	0.8439	0.188
Mof_H 	H 	0.2177	0.5341	0.8143	0.187
Mof_C 	C 	0.2022	0.9019	0.8582	0.106
Mof_C 	C 	0.1009	0.8627	0.8564	-0.1
Mof_H 	H 	0.0809	0.8285	0.8346	0.051
Mof_C 	C 	0.0295	0.875	0.8875	-0.051
Mof_H 	H 	0.9613	0.8467	0.8875	0.056
Mof_C 	C 	0.0579	0.9287	0.9185	-0.033
Mof_H 	H 	0.0073	0.9391	0.9388	0.051
Mof_C 	C 	0.1612	0.9679	0.9199	-0.019
Mof_C 	C 	0.2307	0.9536	0.8891	-0.095
Mof_H 	H 	0.3	0.9801	0.8893	0.088
Mof_C 	C 	0.1921	0.0275	0.9509	0.295
Mof_C 	C 	0.1975	0.3537	0.8488	0.094
Mof_C 	C 	0.0938	0.3878	0.8468	-0.09
Mof_H 	H 	0.0682	0.4145	0.8236	0.048
Mof_C 	C 	0.0292	0.3818	0.8792	-0.058
Mof_H 	H 	0.9591	0.4069	0.8787	0.071
Mof_C 	C 	0.0634	0.3402	0.9129	-0.019
Mof_H 	H 	0.0166	0.3352	0.9347	0.05
Mof_C 	C 	0.1676	0.3057	0.9141	-0.057
Mof_C 	C 	0.2347	0.3123	0.8815	-0.079
Mof_H 	H 	0.3055	0.2884	0.8819	0.073
Mof_C 	C 	0.2022	0.2535	0.9482	0.332
Mof_N 	N 	0.2795	0.8911	0.827	-0.184
Mof_N 	N 	0.4133	0.8381	0.7922	-0.247
Mof_N 	N 	0.4083	0.927	0.786	-0.209
Mof_N 	N 	0.2685	0.3617	0.81557	-0.181
Mof_N 	N 	0.39	0.323	0.77179	-0.21
Mof_N 	N 	0.3912	0.4125	0.7757	-0.242
Mof_O 	O 	0.1188	0.0551	0.97421	-0.403
Mof_O 	O 	0.2902	0.0529	0.9521	-0.401
Mof_O 	O 	0.1333	0.2327	0.97363	-0.411
Mof_O 	O 	0.3012	0.2301	0.94889	-0.399
Mof_Cu	Cu	0.84991	0.35774	0.01369	0.903
Mof_S 	S 	0.61952	0.37132	0.80932	-0.085
Mof_C 	C 	0.6848	0.7685	0.8332	-0.622
Mof_H 	H 	0.6225	0.806	0.8284	0.169
Mof_H 	H 	0.749	0.7927	0.8205	0.192
Mof_H 	H 	0.6977	0.7642	0.8613	0.204
Mof_C 	C 	0.6627	0.6814	0.8172	0.247
Mof_C 	C 	0.6744	0.5429	0.8068	0.101
Mof_C 	C 	0.7106	0.4537	0.8062	-0.038
Mof_C 	C 	0.8116	0.4245	0.7988	-0.035
Mof_H 	H 	0.8729	0.461	0.7958	0.042
Mof_C 	C 	0.8158	0.3334	0.796	-0.041
Mof_H 	H 	0.8804	0.3019	0.7914	0.045
Mof_C 	C 	0.7175	0.2961	0.8005	-0.033
Mof_C 	C 	0.6858	0.2058	0.7955	0.1
Mof_C 	C 	0.6828	0.0662	0.8023	0.21
Mof_C 	C 	0.7048	0.9781	0.8165	-0.551
Mof_H 	H 	0.6639	0.9365	0.8009	0.146
Mof_H 	H 	0.6828	0.9735	0.8439	0.184
Mof_H 	H 	0.7823	0.9659	0.8143	0.186
Mof_C 	C 	0.7978	0.5981	0.8582	0.129
Mof_C 	C 	0.8991	0.6373	0.8564	-0.164
Mof_H 	H 	0.9191	0.6715	0.8346	0.082
Mof_C 	C 	0.9705	0.625	0.8875	0.074
Mof_H 	H 	0.0387	0.6533	0.8875	-0.019
Mof_C 	C 	0.9421	0.5713	0.9185	-0.088
Mof_H 	H 	0.9927	0.5609	0.9388	0.078
Mof_C 	C 	0.8388	0.5321	0.9199	-0.019
Mof_C 	C 	0.7693	0.5464	0.8891	-0.113
Mof_H 	H 	0.7	0.5199	0.8893	0.084
Mof_C 	C 	0.8079	0.4725	0.9509	0.312
Mof_C 	C 	0.8025	0.1463	0.8488	0.133
Mof_C 	C 	0.9062	0.1122	0.8468	-0.172
Mof_H 	H 	0.9318	0.0855	0.8236	0.083
Mof_C 	C 	0.9708	0.1182	0.8792	0.09
Mof_H 	H 	0.0409	0.0931	0.8787	-0.01
Mof_C 	C 	0.9366	0.1598	0.9129	-0.101
Mof_H 	H 	0.9834	0.1648	0.9347	0.095
Mof_C 	C 	0.8324	0.1943	0.9141	-0.009
Mof_C 	C 	0.7653	0.1877	0.8815	-0.12
Mof_H 	H 	0.6945	0.2116	0.8819	0.086
Mof_C 	C 	0.7978	0.2465	0.9482	0.315
Mof_N 	N 	0.7205	0.6089	0.827	-0.185
Mof_N 	N 	0.5867	0.6619	0.7922	-0.249
Mof_N 	N 	0.5917	0.573	0.786	-0.211
Mof_N 	N 	0.7315	0.1383	0.81557	-0.183
Mof_N 	N 	0.61	0.177	0.77179	-0.211
Mof_N 	N 	0.6088	0.0875	0.7757	-0.241
Mof_O 	O 	0.8812	0.4449	0.97421	-0.387
Mof_O 	O 	0.7098	0.4471	0.9521	-0.396
Mof_O 	O 	0.8667	0.2673	0.97363	-0.394
Mof_O 	O 	0.6988	0.2699	0.94889	-0.395
Mof_Cu	Cu	0.34991	0.85774	0.51369	0.903
Mof_S 	S 	0.11952	0.87132	0.30932	-0.096
Mof_C 	C 	0.1848	0.2685	0.3332	-0.603
Mof_H 	H 	0.1225	0.306	0.3284	0.156
Mof_H 	H 	0.249	0.2927	0.3205	0.184
Mof_H 	H 	0.1977	0.2642	0.3613	0.193
Mof_C 	C 	0.1627	0.1814	0.3172	0.237
Mof_C 	C 	0.1744	0.0429	0.3068	0.066
Mof_C 	C 	0.2106	0.9537	0.3062	-0.001
Mof_C 	C 	0.3116	0.9245	0.2988	-0.052
Mof_H 	H 	0.3729	0.961	0.2958	0.052
Mof_C 	C 	0.3158	0.8334	0.296	-0.032
Mof_H 	H 	0.3804	0.8019	0.2914	0.039
Mof_C 	C 	0.2175	0.7961	0.3005	-0.034
Mof_C 	C 	0.1858	0.7058	0.2955	0.098
Mof_C 	C 	0.1828	0.5662	0.3023	0.238
Mof_C 	C 	0.2048	0.4781	0.3165	-0.596
Mof_H 	H 	0.1639	0.4365	0.3009	0.151
Mof_H 	H 	0.1828	0.4735	0.3439	0.184
Mof_H 	H 	0.2823	0.4659	0.3143	0.188
Mof_C 	C 	0.2978	0.0981	0.3582	0.087
Mof_C 	C 	0.3991	0.1373	0.3564	-0.111
Mof_H 	H 	0.4191	0.1715	0.3346	0.056
Mof_C 	C 	0.4705	0.125	0.3875	-0.021
Mof_H 	H 	0.5387	0.1533	0.3875	0.025
Mof_C 	C 	0.4421	0.0713	0.4185	-0.028
Mof_H 	H 	0.4927	0.0609	0.4388	0.041
Mof_C 	C 	0.3388	0.0321	0.4199	-0.089
Mof_C 	C 	0.2693	0.0464	0.3891	-0.07
Mof_H 	H 	0.2	0.0199	0.3893	0.058
Mof_C 	C 	0.3079	0.9725	0.4509	0.356
Mof_C 	C 	0.3025	0.6463	0.3488	0.115
Mof_C 	C 	0.4062	0.6122	0.3468	-0.131
Mof_H 	H 	0.4318	0.5855	0.3236	0.068
Mof_C 	C 	0.4708	0.6182	0.3792	0.018
Mof_H 	H 	0.5409	0.5931	0.3787	0.032
Mof_C 	C 	0.4366	0.6598	0.4129	-0.059
Mof_H 	H 	0.4834	0.6648	0.4347	0.073
Mof_C 	C 	0.3324	0.6943	0.4141	-0.032
Mof_C 	C 	0.2653	0.6877	0.3815	-0.1
Mof_H 	H 	0.1945	0.7116	0.3819	0.078
Mof_C 	C 	0.2978	0.7465	0.4482	0.324
Mof_N 	N 	0.2205	0.1089	0.327	-0.175
Mof_N 	N 	0.0867	0.1619	0.2922	-0.252
Mof_N 	N 	0.0917	0.073	0.286	-0.216
Mof_N 	N 	0.2315	0.6383	0.31557	-0.184
Mof_N 	N 	0.11	0.677	0.27179	-0.214
Mof_N 	N 	0.1088	0.5875	0.2757	-0.246
Mof_O 	O 	0.3812	0.9449	0.47421	-0.396
Mof_O 	O 	0.2098	0.9471	0.4521	-0.401
Mof_O 	O 	0.3667	0.7673	0.47363	-0.402
Mof_O 	O 	0.1988	0.7699	0.44889	-0.398
Mof_Cu	Cu	0.34991	0.14226	0.98631	0.9
Mof_S 	S 	0.11952	0.12868	0.19068	-0.1
Mof_C 	C 	0.1848	0.7315	0.1668	-0.607
Mof_H 	H 	0.1225	0.694	0.1716	0.157
Mof_H 	H 	0.249	0.7073	0.1795	0.185
Mof_H 	H 	0.1977	0.7358	0.1387	0.195
Mof_C 	C 	0.1627	0.8186	0.1828	0.24
Mof_C 	C 	0.1744	0.9571	0.1932	0.128
Mof_C 	C 	0.2106	0.0463	0.1938	-0.071
Mof_C 	C 	0.3116	0.0755	0.2012	-0.019
Mof_H 	H 	0.3729	0.039	0.2042	0.023
Mof_C 	C 	0.3158	0.1666	0.204	-0.054
Mof_H 	H 	0.3804	0.1981	0.2086	0.044
Mof_C 	C 	0.2175	0.2039	0.1995	-0.026
Mof_C 	C 	0.1858	0.2942	0.2045	0.095
Mof_C 	C 	0.1828	0.4338	0.1977	0.238
Mof_C 	C 	0.2048	0.5219	0.1835	-0.597
Mof_H 	H 	0.1639	0.5635	0.1991	0.151
Mof_H 	H 	0.1828	0.5265	0.1561	0.185
Mof_H 	H 	0.2823	0.5341	0.1857	0.189
Mof_C 	C 	0.2978	0.9019	0.1418	0.125
Mof_C 	C 	0.3991	0.8627	0.1436	-0.138
Mof_H 	H 	0.4191	0.8285	0.1654	0.069
Mof_C 	C 	0.4705	0.875	0.1125	0.021
Mof_H 	H 	0.5387	0.8467	0.1125	0.017
Mof_C 	C 	0.4421	0.9287	0.0815	-0.07
Mof_H 	H 	0.4927	0.9391	0.0612	0.072
Mof_C 	C 	0.3388	0.9679	0.0801	0.002
Mof_C 	C 	0.2693	0.9536	0.1109	-0.114
Mof_H 	H 	0.2	0.9801	0.1107	0.091
Mof_C 	C 	0.3079	0.0275	0.0491	0.286
Mof_C 	C 	0.3025	0.3537	0.1512	0.115
Mof_C 	C 	0.4062	0.3878	0.1532	-0.13
Mof_H 	H 	0.4318	0.4145	0.1764	0.068
Mof_C 	C 	0.4708	0.3818	0.1208	0.017
Mof_H 	H 	0.5409	0.4069	0.1213	0.033
Mof_C 	C 	0.4366	0.3402	0.0871	-0.058
Mof_H 	H 	0.4834	0.3352	0.0653	0.073
Mof_C 	C 	0.3324	0.3057	0.0859	-0.034
Mof_C 	C 	0.2653	0.3123	0.1185	-0.099
Mof_H 	H 	0.1945	0.2884	0.1181	0.077
Mof_C 	C 	0.2978	0.2535	0.0518	0.325
Mof_N 	N 	0.2205	0.8911	0.173	-0.186
Mof_N 	N 	0.0867	0.8381	0.2078	-0.251
Mof_N 	N 	0.0917	0.927	0.214	-0.215
Mof_N 	N 	0.2315	0.3617	0.18443	-0.183
Mof_N 	N 	0.11	0.323	0.22821	-0.213
Mof_N 	N 	0.1088	0.4125	0.2243	-0.246
Mof_O 	O 	0.3812	0.0551	0.02579	-0.395
Mof_O 	O 	0.2098	0.0529	0.0479	-0.402
Mof_O 	O 	0.3667	0.2327	0.02637	-0.403
Mof_O 	O 	0.1988	0.2301	0.05111	-0.401
Mof_Cu	Cu	0.84991	0.64226	0.48631	0.903
Mof_S 	S 	0.61952	0.62868	0.69068	-0.084
Mof_C 	C 	0.6848	0.2315	0.6668	-0.612
Mof_H 	H 	0.6225	0.194	0.6716	0.162
Mof_H 	H 	0.749	0.2073	0.6795	0.186
Mof_H 	H 	0.6977	0.2358	0.6387	0.198
Mof_C 	C 	0.6627	0.3186	0.6828	0.244
Mof_C 	C 	0.6744	0.4571	0.6932	0.101
Mof_C 	C 	0.7106	0.5463	0.6938	-0.038
Mof_C 	C 	0.8116	0.5755	0.7012	-0.035
Mof_H 	H 	0.8729	0.539	0.7042	0.042
Mof_C 	C 	0.8158	0.6666	0.704	-0.042
Mof_H 	H 	0.8804	0.6981	0.7086	0.046
Mof_C 	C 	0.7175	0.7039	0.6995	-0.032
Mof_C 	C 	0.6858	0.7942	0.7045	0.101
Mof_C 	C 	0.6828	0.9338	0.6977	0.282
Mof_C 	C 	0.7048	0.0219	0.6835	-0.667
Mof_H 	H 	0.6639	0.0635	0.6991	0.17
Mof_H 	H 	0.6828	0.0265	0.6561	0.2
Mof_H 	H 	0.7823	0.0341	0.6857	0.202
Mof_C 	C 	0.7978	0.4019	0.6418	0.127
Mof_C 	C 	0.8991	0.3627	0.6436	-0.162
Mof_H 	H 	0.9191	0.3285	0.6654	0.081
Mof_C 	C 	0.9705	0.375	0.6125	0.071
Mof_H 	H 	0.0387	0.3467	0.6125	-0.018
Mof_C 	C 	0.9421	0.4287	0.5815	-0.087
Mof_H 	H 	0.9927	0.4391	0.5612	0.076
Mof_C 	C 	0.8388	0.4679	0.5801	-0.02
Mof_C 	C 	0.7693	0.4536	0.6109	-0.113
Mof_H 	H 	0.7	0.4801	0.6107	0.084
Mof_C 	C 	0.8079	0.5275	0.5491	0.312
Mof_C 	C 	0.8025	0.8537	0.6512	0.148
Mof_C 	C 	0.9062	0.8878	0.6532	-0.175
Mof_H 	H 	0.9318	0.9145	0.6764	0.095
Mof_C 	C 	0.9708	0.8818	0.6208	0.104
Mof_H 	H 	0.0409	0.9069	0.6213	-0.004
Mof_C 	C 	0.9366	0.8402	0.5871	-0.102
Mof_H 	H 	0.9834	0.8352	0.5653	0.1
Mof_C 	C 	0.8324	0.8057	0.5859	-0
Mof_C 	C 	0.7653	0.8123	0.6185	-0.124
Mof_H 	H 	0.6945	0.7884	0.6181	0.09
Mof_C 	C 	0.7978	0.7535	0.5518	0.315
Mof_N 	N 	0.7205	0.3911	0.673	-0.184
Mof_N 	N 	0.5867	0.3381	0.7078	-0.248
Mof_N 	N 	0.5917	0.427	0.714	-0.212
Mof_N 	N 	0.7315	0.8617	0.68443	-0.193
Mof_N 	N 	0.61	0.823	0.72821	-0.21
Mof_N 	N 	0.6088	0.9125	0.7243	-0.242
Mof_O 	O 	0.8812	0.5551	0.52579	-0.388
Mof_O 	O 	0.7098	0.5529	0.5479	-0.397
Mof_O 	O 	0.8667	0.7327	0.52637	-0.391
Mof_O 	O 	0.6988	0.7301	0.55111	-0.392
Mof_Cu	Cu	0.15009	0.85774	0.48631	0.9
Mof_S 	S 	0.38048	0.87132	0.69068	-0.081
Mof_C 	C 	0.3152	0.2685	0.6668	-0.608
Mof_H 	H 	0.3775	0.306	0.6716	0.162
Mof_H 	H 	0.251	0.2927	0.6795	0.184
Mof_H 	H 	0.3023	0.2642	0.6387	0.196
Mof_C 	C 	0.3373	0.1814	0.6828	0.24
Mof_C 	C 	0.3256	0.0429	0.6932	0.068
Mof_C 	C 	0.2894	0.9537	0.6938	-0.002
Mof_C 	C 	0.1884	0.9245	0.7012	-0.053
Mof_H 	H 	0.1271	0.961	0.7042	0.048
Mof_C 	C 	0.1842	0.8334	0.704	-0.032
Mof_H 	H 	0.1196	0.8019	0.7086	0.033
Mof_C 	C 	0.2825	0.7961	0.6995	-0.037
Mof_C 	C 	0.3142	0.7058	0.7045	0.1
Mof_C 	C 	0.3172	0.5662	0.6977	0.24
Mof_C 	C 	0.2952	0.4781	0.6835	-0.597
Mof_H 	H 	0.3361	0.4365	0.6991	0.153
Mof_H 	H 	0.3172	0.4735	0.6561	0.187
Mof_H 	H 	0.2177	0.4659	0.6857	0.186
Mof_C 	C 	0.2022	0.0981	0.6418	0.07
Mof_C 	C 	0.1009	0.1373	0.6436	-0.077
Mof_H 	H 	0.0809	0.1715	0.6654	0.039
Mof_C 	C 	0.0295	0.125	0.6125	-0.087
Mof_H 	H 	0.9613	0.1533	0.6125	0.061
Mof_C 	C 	0.0579	0.0713	0.5815	0.007
Mof_H 	H 	0.0073	0.0609	0.5612	0.022
Mof_C 	C 	0.1612	0.0321	0.5801	-0.108
Mof_C 	C 	0.2307	0.0464	0.6109	-0.053
Mof_H 	H 	0.3	0.0199	0.6107	0.055
Mof_C 	C 	0.1921	0.9725	0.5491	0.362
Mof_C 	C 	0.1975	0.6463	0.6512	0.094
Mof_C 	C 	0.0938	0.6122	0.6532	-0.089
Mof_H 	H 	0.0682	0.5855	0.6764	0.047
Mof_C 	C 	0.0292	0.6182	0.6208	-0.06
Mof_H 	H 	0.9591	0.5931	0.6213	0.072
Mof_C 	C 	0.0634	0.6598	0.5871	-0.019
Mof_H 	H 	0.0166	0.6648	0.5653	0.049
Mof_C 	C 	0.1676	0.6943	0.5859	-0.056
Mof_C 	C 	0.2347	0.6877	0.6185	-0.079
Mof_H 	H 	0.3055	0.7116	0.6181	0.075
Mof_C 	C 	0.2022	0.7465	0.5518	0.332
Mof_N 	N 	0.2795	0.1089	0.673	-0.173
Mof_N 	N 	0.4133	0.1619	0.7078	-0.248
Mof_N 	N 	0.4083	0.073	0.714	-0.211
Mof_N 	N 	0.2685	0.6383	0.68443	-0.181
Mof_N 	N 	0.39	0.677	0.72821	-0.211
Mof_N 	N 	0.3912	0.5875	0.7243	-0.242
Mof_O 	O 	0.1188	0.9449	0.52579	-0.404
Mof_O 	O 	0.2902	0.9471	0.5479	-0.4
Mof_O 	O 	0.1333	0.7673	0.52637	-0.41
Mof_O 	O 	0.3012	0.7699	0.55111	-0.397
Mof_Cu	Cu	0.65009	0.35774	0.98631	0.901
Mof_S 	S 	0.88048	0.37132	0.19068	-0.068
Mof_C 	C 	0.8152	0.7685	0.1668	-0.627
Mof_H 	H 	0.8775	0.806	0.1716	0.176
Mof_H 	H 	0.751	0.7927	0.1795	0.193
Mof_H 	H 	0.8023	0.7642	0.1387	0.208
Mof_C 	C 	0.8373	0.6814	0.1828	0.251
Mof_C 	C 	0.8256	0.5429	0.1932	0.103
Mof_C 	C 	0.7894	0.4537	0.1938	-0.04
Mof_C 	C 	0.6884	0.4245	0.2012	-0.035
Mof_H 	H 	0.6271	0.461	0.2042	0.037
Mof_C 	C 	0.6842	0.3334	0.204	-0.041
Mof_H 	H 	0.6196	0.3019	0.2086	0.04
Mof_C 	C 	0.7825	0.2961	0.1995	-0.035
Mof_C 	C 	0.8142	0.2058	0.2045	0.102
Mof_C 	C 	0.8172	0.0662	0.1977	0.211
Mof_C 	C 	0.7952	0.9781	0.1835	-0.552
Mof_H 	H 	0.8361	0.9365	0.1991	0.149
Mof_H 	H 	0.8172	0.9735	0.1561	0.187
Mof_H 	H 	0.7177	0.9659	0.1857	0.184
Mof_C 	C 	0.7022	0.5981	0.1418	0.111
Mof_C 	C 	0.6009	0.6373	0.1436	-0.127
Mof_H 	H 	0.5809	0.6715	0.1654	0.064
Mof_C 	C 	0.5295	0.625	0.1125	0.003
Mof_H 	H 	0.4613	0.6533	0.1125	0.019
Mof_C 	C 	0.5579	0.5713	0.0815	-0.051
Mof_H 	H 	0.5073	0.5609	0.0612	0.057
Mof_C 	C 	0.6612	0.5321	0.0801	-0.039
Mof_C 	C 	0.7307	0.5464	0.1109	-0.095
Mof_H 	H 	0.8	0.5199	0.1107	0.081
Mof_C 	C 	0.6921	0.4725	0.0491	0.32
Mof_C 	C 	0.6975	0.1463	0.1512	0.114
Mof_C 	C 	0.5938	0.1122	0.1532	-0.134
Mof_H 	H 	0.5682	0.0855	0.1764	0.064
Mof_C 	C 	0.5292	0.1182	0.1208	0.018
Mof_H 	H 	0.4591	0.0931	0.1213	0.027
Mof_C 	C 	0.5634	0.1598	0.0871	-0.063
Mof_H 	H 	0.5166	0.1648	0.0653	0.073
Mof_C 	C 	0.6676	0.1943	0.0859	-0.031
Mof_C 	C 	0.7347	0.1877	0.1185	-0.101
Mof_H 	H 	0.8055	0.2116	0.1181	0.083
Mof_C 	C 	0.7022	0.2465	0.0518	0.322
Mof_N 	N 	0.7795	0.6089	0.173	-0.183
Mof_N 	N 	0.9133	0.6619	0.2078	-0.242
Mof_N 	N 	0.9083	0.573	0.214	-0.205
Mof_N 	N 	0.7685	0.1383	0.18443	-0.18
Mof_N 	N 	0.89	0.177	0.22821	-0.205
Mof_N 	N 	0.8912	0.0875	0.2243	-0.237
Mof_O 	O 	0.6188	0.4449	0.02579	-0.395
Mof_O 	O 	0.7902	0.4471	0.0479	-0.395
Mof_O 	O 	0.6333	0.2673	0.02637	-0.402
Mof_O 	O 	0.8012	0.2699	0.05111	-0.393
Mof_Cu	Cu	1.03883e-32	0.25	0.26002	0.826
Mof_Cu	Cu	0.5	0.75	0.76002	0.838
Mof_Cu	Cu	1.01797e-32	0.75	0.23998	0.827
Mof_Cu	Cu	0.5	0.25	0.73998	0.837
Mof_Cu	Cu	0.00531	0.5	0.25	0.828
Mof_Cu	Cu	0.49469	0.5	0.75	0.839
Mof_Cu	Cu	0.99469	0	0.25	0.839
Mof_Cu	Cu	0.50531	1.53643e-32	0.75	0.827
_end
