# CIF file generated by openbabel 3.1.0, see https://openbabel.org
data_I
_chemical_name_common 'image0'
_cell_length_a 25.2378
_cell_length_b 8.6872
_cell_length_c 18.8139
_cell_angle_alpha 90
_cell_angle_beta 130.447
_cell_angle_gamma 90
_space_group_name_H-M_alt 'P 1'
_space_group_name_Hall 'P 1'
loop_
    _symmetry_equiv_pos_as_xyz
    x,y,z
loop_
    _atom_site_label
    _atom_site_type_symbol
    _atom_site_fract_x
    _atom_site_fract_y
    _atom_site_fract_z
    _atom_site_occupancy
    Co1      Co       0.12867    0.20514    0.06328    1.000
    N1       N        0.18500    0.04400    0.05540    1.000
    O1       O        0.07510    0.34190    0.09070    1.000
    O2       O        0.14910    0.17570    0.19790    1.000
    O3       O        0.05130    0.46140    0.45060    1.000
    O4       O        0.08550    0.69370    0.43960    1.000
    O5       O        0.06310    0.67270    0.10460    1.000
    O6       O        0.14760    0.79490    0.25530    1.000
    O7       O        0.18380    0.58360    0.21060    1.000
    S1       S        0.12754    0.65140    0.20211    1.000
    C1       C        0.11010    0.28720    0.17370    1.000
    C2       C        0.10280    0.36090    0.23900    1.000
    C3       C        0.10710    0.51850    0.25370    1.000
    C4       C        0.09800    0.57920    0.31350    1.000
    H1       H        0.10150    0.68490    0.32370    1.000
    C5       C        0.08370    0.48270    0.35840    1.000
    C6       C        0.08000    0.32560    0.34390    1.000
    H2       H        0.07040    0.26040    0.37350    1.000
    C7       C        0.09040    0.26400    0.28610    1.000
    H3       H        0.08910    0.15790    0.27850    1.000
    C8       C        0.07220    0.55190    0.42070    1.000
    C9       C        0.20110    0.06870    0.00060    1.000
    H4       H        0.19360    0.16680    0.97570    1.000
    C10      C        0.22720    0.96170    0.97960    1.000
    H5       H        0.23850    0.98730    0.94280    1.000
    C11      C        0.23730    0.81230    0.01270    1.000
    C12      C        0.22180    0.78760    0.07050    1.000
    H6       H        0.22840    0.69030    0.09570    1.000
    C13      C        0.19730    0.90320    0.09060    1.000
    H7       H        0.18860    0.88300    0.13090    1.000
    Co2      Co       0.62867    0.70514    0.06328    1.000
    N2       N        0.68500    0.54400    0.05540    1.000
    O8       O        0.57510    0.84190    0.09070    1.000
    O9       O        0.64910    0.67570    0.19790    1.000
    O10      O        0.55130    0.96140    0.45060    1.000
    O11      O        0.58550    0.19370    0.43960    1.000
    O12      O        0.56310    0.17270    0.10460    1.000
    O13      O        0.64760    0.29490    0.25530    1.000
    O14      O        0.68380    0.08360    0.21060    1.000
    S2       S        0.62754    0.15140    0.20211    1.000
    C14      C        0.61010    0.78720    0.17370    1.000
    C15      C        0.60280    0.86090    0.23900    1.000
    C16      C        0.60710    0.01850    0.25370    1.000
    C17      C        0.59800    0.07920    0.31350    1.000
    H8       H        0.60150    0.18490    0.32370    1.000
    C18      C        0.58370    0.98270    0.35840    1.000
    C19      C        0.58000    0.82560    0.34390    1.000
    H9       H        0.57040    0.76040    0.37350    1.000
    C20      C        0.59040    0.76400    0.28610    1.000
    H10      H        0.58910    0.65790    0.27850    1.000
    C21      C        0.57220    0.05190    0.42070    1.000
    C22      C        0.70110    0.56870    0.00060    1.000
    H11      H        0.69360    0.66680    0.97570    1.000
    C23      C        0.72720    0.46170    0.97960    1.000
    H12      H        0.73850    0.48730    0.94280    1.000
    C24      C        0.73730    0.31230    0.01270    1.000
    C25      C        0.72180    0.28760    0.07050    1.000
    H13      H        0.72840    0.19030    0.09570    1.000
    C26      C        0.69730    0.40320    0.09060    1.000
    H14      H        0.68860    0.38300    0.13090    1.000
    Co3      Co       0.87133    0.20514    0.43672    1.000
    N3       N        0.81500    0.04400    0.44460    1.000
    O15      O        0.92490    0.34190    0.40930    1.000
    O16      O        0.85090    0.17570    0.30210    1.000
    O17      O        0.94870    0.46140    0.04940    1.000
    O18      O        0.91450    0.69370    0.06040    1.000
    O19      O        0.93690    0.67270    0.39540    1.000
    O20      O        0.85240    0.79490    0.24470    1.000
    O21      O        0.81620    0.58360    0.28940    1.000
    S3       S        0.87246    0.65140    0.29789    1.000
    C27      C        0.88990    0.28720    0.32630    1.000
    C28      C        0.89720    0.36090    0.26100    1.000
    C29      C        0.89290    0.51850    0.24630    1.000
    C30      C        0.90200    0.57920    0.18650    1.000
    H15      H        0.89850    0.68490    0.17630    1.000
    C31      C        0.91630    0.48270    0.14160    1.000
    C32      C        0.92000    0.32560    0.15610    1.000
    H16      H        0.92960    0.26040    0.12650    1.000
    C33      C        0.90960    0.26400    0.21390    1.000
    H17      H        0.91090    0.15790    0.22150    1.000
    C34      C        0.92780    0.55190    0.07930    1.000
    C35      C        0.79890    0.06870    0.49940    1.000
    H18      H        0.80640    0.16680    0.52430    1.000
    C36      C        0.77280    0.96170    0.52040    1.000
    H19      H        0.76150    0.98730    0.55720    1.000
    C37      C        0.76270    0.81230    0.48730    1.000
    C38      C        0.77820    0.78760    0.42950    1.000
    H20      H        0.77160    0.69030    0.40430    1.000
    C39      C        0.80270    0.90320    0.40940    1.000
    H21      H        0.81140    0.88300    0.36910    1.000
    Co4      Co       0.37133    0.70514    0.43672    1.000
    N4       N        0.31500    0.54400    0.44460    1.000
    O22      O        0.42490    0.84190    0.40930    1.000
    O23      O        0.35090    0.67570    0.30210    1.000
    O24      O        0.44870    0.96140    0.04940    1.000
    O25      O        0.41450    0.19370    0.06040    1.000
    O26      O        0.43690    0.17270    0.39540    1.000
    O27      O        0.35240    0.29490    0.24470    1.000
    O28      O        0.31620    0.08360    0.28940    1.000
    S4       S        0.37246    0.15140    0.29789    1.000
    C40      C        0.38990    0.78720    0.32630    1.000
    C41      C        0.39720    0.86090    0.26100    1.000
    C42      C        0.39290    0.01850    0.24630    1.000
    C43      C        0.40200    0.07920    0.18650    1.000
    H22      H        0.39850    0.18490    0.17630    1.000
    C44      C        0.41630    0.98270    0.14160    1.000
    C45      C        0.42000    0.82560    0.15610    1.000
    H23      H        0.42960    0.76040    0.12650    1.000
    C46      C        0.40960    0.76400    0.21390    1.000
    H24      H        0.41090    0.65790    0.22150    1.000
    C47      C        0.42780    0.05190    0.07930    1.000
    C48      C        0.29890    0.56870    0.49940    1.000
    H25      H        0.30640    0.66680    0.52430    1.000
    C49      C        0.27280    0.46170    0.52040    1.000
    H26      H        0.26150    0.48730    0.55720    1.000
    C50      C        0.26270    0.31230    0.48730    1.000
    C51      C        0.27820    0.28760    0.42950    1.000
    H27      H        0.27160    0.19030    0.40430    1.000
    C52      C        0.30270    0.40320    0.40940    1.000
    H28      H        0.31140    0.38300    0.36910    1.000
    Co5      Co       0.87133    0.79486    0.93672    1.000
    N5       N        0.81500    0.95600    0.94460    1.000
    O29      O        0.92490    0.65810    0.90930    1.000
    O30      O        0.85090    0.82430    0.80210    1.000
    O31      O        0.94870    0.53860    0.54940    1.000
    O32      O        0.91450    0.30630    0.56040    1.000
    O33      O        0.93690    0.32730    0.89540    1.000
    O34      O        0.85240    0.20510    0.74470    1.000
    O35      O        0.81620    0.41640    0.78940    1.000
    S5       S        0.87246    0.34860    0.79789    1.000
    C53      C        0.88990    0.71280    0.82630    1.000
    C54      C        0.89720    0.63910    0.76100    1.000
    C55      C        0.89290    0.48150    0.74630    1.000
    C56      C        0.90200    0.42080    0.68650    1.000
    H29      H        0.89850    0.31510    0.67630    1.000
    C57      C        0.91630    0.51730    0.64160    1.000
    C58      C        0.92000    0.67440    0.65610    1.000
    H30      H        0.92960    0.73960    0.62650    1.000
    C59      C        0.90960    0.73600    0.71390    1.000
    H31      H        0.91090    0.84210    0.72150    1.000
    C60      C        0.92780    0.44810    0.57930    1.000
    C61      C        0.79890    0.93130    0.99940    1.000
    H32      H        0.80640    0.83320    0.02430    1.000
    C62      C        0.77280    0.03830    0.02040    1.000
    H33      H        0.76150    0.01270    0.05720    1.000
    C63      C        0.76270    0.18770    0.98730    1.000
    C64      C        0.77820    0.21240    0.92950    1.000
    H34      H        0.77160    0.30970    0.90430    1.000
    C65      C        0.80270    0.09680    0.90940    1.000
    H35      H        0.81140    0.11700    0.86910    1.000
    Co6      Co       0.37133    0.29486    0.93672    1.000
    N6       N        0.31500    0.45600    0.94460    1.000
    O36      O        0.42490    0.15810    0.90930    1.000
    O37      O        0.35090    0.32430    0.80210    1.000
    O38      O        0.44870    0.03860    0.54940    1.000
    O39      O        0.41450    0.80630    0.56040    1.000
    O40      O        0.43690    0.82730    0.89540    1.000
    O41      O        0.35240    0.70510    0.74470    1.000
    O42      O        0.31620    0.91640    0.78940    1.000
    S6       S        0.37246    0.84860    0.79789    1.000
    C66      C        0.38990    0.21280    0.82630    1.000
    C67      C        0.39720    0.13910    0.76100    1.000
    C68      C        0.39290    0.98150    0.74630    1.000
    C69      C        0.40200    0.92080    0.68650    1.000
    H36      H        0.39850    0.81510    0.67630    1.000
    C70      C        0.41630    0.01730    0.64160    1.000
    C71      C        0.42000    0.17440    0.65610    1.000
    H37      H        0.42960    0.23960    0.62650    1.000
    C72      C        0.40960    0.23600    0.71390    1.000
    H38      H        0.41090    0.34210    0.72150    1.000
    C73      C        0.42780    0.94810    0.57930    1.000
    C74      C        0.29890    0.43130    0.99940    1.000
    H39      H        0.30640    0.33320    0.02430    1.000
    C75      C        0.27280    0.53830    0.02040    1.000
    H40      H        0.26150    0.51270    0.05720    1.000
    C76      C        0.26270    0.68770    0.98730    1.000
    C77      C        0.27820    0.71240    0.92950    1.000
    H41      H        0.27160    0.80970    0.90430    1.000
    C78      C        0.30270    0.59680    0.90940    1.000
    H42      H        0.31140    0.61700    0.86910    1.000
    Co7      Co       0.12867    0.79486    0.56328    1.000
    N7       N        0.18500    0.95600    0.55540    1.000
    O43      O        0.07510    0.65810    0.59070    1.000
    O44      O        0.14910    0.82430    0.69790    1.000
    O45      O        0.05130    0.53860    0.95060    1.000
    O46      O        0.08550    0.30630    0.93960    1.000
    O47      O        0.06310    0.32730    0.60460    1.000
    O48      O        0.14760    0.20510    0.75530    1.000
    O49      O        0.18380    0.41640    0.71060    1.000
    S7       S        0.12754    0.34860    0.70211    1.000
    C79      C        0.11010    0.71280    0.67370    1.000
    C80      C        0.10280    0.63910    0.73900    1.000
    C81      C        0.10710    0.48150    0.75370    1.000
    C82      C        0.09800    0.42080    0.81350    1.000
    H43      H        0.10150    0.31510    0.82370    1.000
    C83      C        0.08370    0.51730    0.85840    1.000
    C84      C        0.08000    0.67440    0.84390    1.000
    H44      H        0.07040    0.73960    0.87350    1.000
    C85      C        0.09040    0.73600    0.78610    1.000
    H45      H        0.08910    0.84210    0.77850    1.000
    C86      C        0.07220    0.44810    0.92070    1.000
    C87      C        0.20110    0.93130    0.50060    1.000
    H46      H        0.19360    0.83320    0.47570    1.000
    C88      C        0.22720    0.03830    0.47960    1.000
    H47      H        0.23850    0.01270    0.44280    1.000
    C89      C        0.23730    0.18770    0.51270    1.000
    C90      C        0.22180    0.21240    0.57050    1.000
    H48      H        0.22840    0.30970    0.59570    1.000
    C91      C        0.19730    0.09680    0.59060    1.000
    H49      H        0.18860    0.11700    0.63090    1.000
    Co8      Co       0.62867    0.29486    0.56328    1.000
    N8       N        0.68500    0.45600    0.55540    1.000
    O50      O        0.57510    0.15810    0.59070    1.000
    O51      O        0.64910    0.32430    0.69790    1.000
    O52      O        0.55130    0.03860    0.95060    1.000
    O53      O        0.58550    0.80630    0.93960    1.000
    O54      O        0.56310    0.82730    0.60460    1.000
    O55      O        0.64760    0.70510    0.75530    1.000
    O56      O        0.68380    0.91640    0.71060    1.000
    S8       S        0.62754    0.84860    0.70211    1.000
    C92      C        0.61010    0.21280    0.67370    1.000
    C93      C        0.60280    0.13910    0.73900    1.000
    C94      C        0.60710    0.98150    0.75370    1.000
    C95      C        0.59800    0.92080    0.81350    1.000
    H50      H        0.60150    0.81510    0.82370    1.000
    C96      C        0.58370    0.01730    0.85840    1.000
    C97      C        0.58000    0.17440    0.84390    1.000
    H51      H        0.57040    0.23960    0.87350    1.000
    C98      C        0.59040    0.23600    0.78610    1.000
    H52      H        0.58910    0.34210    0.77850    1.000
    C99      C        0.57220    0.94810    0.92070    1.000
    C100     C        0.70110    0.43130    0.50060    1.000
    H53      H        0.69360    0.33320    0.47570    1.000
    C101     C        0.72720    0.53830    0.47960    1.000
    H54      H        0.73850    0.51270    0.44280    1.000
    C102     C        0.73730    0.68770    0.51270    1.000
    C103     C        0.72180    0.71240    0.57050    1.000
    H55      H        0.72840    0.80970    0.59570    1.000
    C104     C        0.69730    0.59680    0.59060    1.000
    H56      H        0.68860    0.61700    0.63090    1.000
    Co9      Co       0.00000    0.50000    0.00000    1.000
    Co10     Co       0.50000    0.00000    0.00000    1.000
    Co11     Co       0.00000    0.50000    0.50000    1.000
    Co12     Co       0.50000    0.00000    0.50000    1.000
