data_functionalizedCrystal
_audit_creation_method	'EQeq! by Chris Wilmer'
_symmetry_space_group_name_H-M	'P1'
_symmetry_Int_Tables_number	1
_symmetry_cell_setting	triclinic
loop_
_symmetry_equiv_pos_as_xyz
  x,y,z
_cell_length_a	34.0465
_cell_length_b	14.9235
_cell_length_c	30.8377
_cell_angle_alpha	90
_cell_angle_beta	100.629
_cell_angle_gamma	90
loop_
_atom_site_label
_atom_site_type_symbol
_atom_site_fract_x
_atom_site_fract_y
_atom_site_fract_z
_atom_site_charge
Mof_I 	I 	0.61844	0.3233	0.20124	-0.833
Mof_Zn	Zn	0.66895	0.3508	0.2725	0.655
Mof_I 	I 	0.73171	0.261	0.29551	0.63
Mof_N 	N 	0.6388	0.3372	0.3248	-0.314
Mof_N 	N 	0.6839	0.4879	0.2773	-0.305
Mof_C 	C 	0.6604	0.5431	0.2509	0.077
Mof_C 	C 	0.7141	0.5238	0.3054	0.063
Mof_C 	C 	0.6658	0.6333	0.2506	-0.129
Mof_H 	H 	0.6384	0.5184	0.231	-0.017
Mof_C 	C 	0.7224	0.6138	0.3066	-0.127
Mof_H 	H 	0.7306	0.4854	0.3255	-0.009
Mof_C 	C 	0.6974	0.6704	0.2797	0.057
Mof_H 	H 	0.6482	0.6702	0.2307	0.089
Mof_H 	H 	0.7452	0.6365	0.326	0.073
Mof_C 	C 	0.7043	0.7697	0.2796	0.094
Mof_N 	N 	0.67937	0.8148	0.249	-0.132
Mof_N 	N 	0.7341	0.8046	0.3082	-0.151
Mof_C 	C 	0.6878	0.9006	0.2463	0.102
Mof_C 	C 	0.7395	0.8932	0.3038	0.074
Mof_C 	C 	0.6621	0.9548	0.2116	0.064
Mof_N 	N 	0.71766	0.9443	0.2725	-0.146
Mof_C 	C 	0.7708	0.9401	0.335	0.036
Mof_C 	C 	0.6284	0.9162	0.1877	-0.116
Mof_C 	C 	0.6715	0.0415	0.2027	-0.125
Mof_C 	C 	0.7748	0.0307	0.3327	-0.104
Mof_C 	C 	0.7971	0.8949	0.3674	-0.125
Mof_C 	C 	0.6042	0.9662	0.1558	0.077
Mof_H 	H 	0.6218	0.8559	0.1931	0.094
Mof_C 	C 	0.6462	0.0866	0.1691	0.068
Mof_H 	H 	0.6945	0.0699	0.219	0.059
Mof_H 	H 	0.7579	0.0637	0.3103	0.074
Mof_C 	C 	0.8031	0.0741	0.3627	0.051
Mof_C 	C 	0.8243	0.9429	0.3963	0.082
Mof_H 	H 	0.7962	0.8314	0.3694	0.078
Mof_N 	N 	0.6133	0.0502	0.1461	-0.265
Mof_H 	H 	0.5803	0.94	0.1402	-0.006
Mof_H 	H 	0.6528	0.1462	0.1623	-0.021
Mof_N 	N 	0.8277	0.0305	0.3946	-0.276
Mof_H 	H 	0.8053	0.1374	0.3608	0.019
Mof_H 	H 	0.8416	0.9114	0.4189	-0.005
Mof_Zn	Zn	0.57189	0.12	0.101	0.56
Mof_Zn	Zn	0.86669	0.1078	0.4367	0.602
Mof_I 	I 	0.61032	0.23711	0.06434	-0.131
Mof_N 	N 	0.5584	0.018	0.0547	-0.269
Mof_I 	I 	0.51207	0.1493	0.13747	-0.235
Mof_N 	N 	0.9165	0.0197	0.4476	-0.285
Mof_I 	I 	0.88279	0.2491	0.39779	-0.331
Mof_I 	I 	0.84414	0.1089	0.50962	0.056
Mof_C 	C 	0.9353	0.0149	0.4146	0.092
Mof_C 	C 	0.9288	0.9692	0.4835	0.07
Mof_C 	C 	0.9674	0.9595	0.4145	-0.132
Mof_H 	H 	0.9265	0.0514	0.3894	-0.024
Mof_C 	C 	0.9616	0.9115	0.4852	-0.122
Mof_H 	H 	0.9153	0.9724	0.5078	-0.009
Mof_H 	H 	0.9803	0.9573	0.3897	0.092
Mof_C 	C 	0.9809	0.9068	0.4511	0.063
Mof_H 	H 	0.9703	0.8757	0.5107	0.08
Mof_C 	C 	0.0135	0.8432	0.4512	0.082
Mof_N 	N 	0.0368	0.8592	0.4218	-0.137
Mof_N 	N 	0.01678	0.773	0.4786	-0.15
Mof_C 	C 	0.0652	0.7974	0.4207	0.096
Mof_C 	C 	0.0456	0.7167	0.4742	0.082
Mof_N 	N 	0.0711	0.7257	0.4463	-0.141
Mof_C 	C 	0.0912	0.8103	0.3873	0.069
Mof_C 	C 	0.0495	0.634	0.5024	0.052
Mof_C 	C 	0.1247	0.7591	0.388	-0.12
Mof_C 	C 	0.0818	0.8769	0.3553	-0.13
Mof_C 	C 	0.0804	0.5759	0.5013	-0.115
Mof_C 	C 	0.0224	0.6131	0.5283	-0.126
Mof_C 	C 	0.1473	0.7742	0.3571	0.068
Mof_H 	H 	0.1319	0.7139	0.4098	0.083
Mof_C 	C 	0.107	0.8862	0.3252	0.096
Mof_H 	H 	0.0591	0.9143	0.3543	0.089
Mof_H 	H 	0.0989	0.5871	0.4823	0.078
Mof_C 	C 	0.0845	0.5001	0.5283	0.06
Mof_C 	C 	0.0278	0.5358	0.554	0.081
Mof_H 	H 	2.12706e-33	0.6509	0.5288	0.074
Mof_H 	H 	0.1706	0.7386	0.358	-0.021
Mof_H 	H 	0.1008	0.9313	0.3032	-0.025
Mof_H 	H 	0.1063	0.4605	0.528	-0.014
Mof_H 	H 	0.0086	0.5215	0.5718	-0.012
Mof_Zn	Zn	0.6804	0.3515	0.2861	0.674
Mof_I 	I 	0.6375	0.3092	0.2113	0.386
Mof_I 	I 	0.746	0.2786	0.3168	-1.065
Mof_Zn	Zn	0.367	0.5948	0.4465	0.598
Mof_I 	I 	0.3356	0.5814	0.5159	-0.408
Mof_I 	I 	0.38358	0.7421	0.4123	-0.013
Mof_Zn	Zn	0.0771	0.6235	0.097	0.558
Mof_I 	I 	0.0194	0.6614	0.1351	-0.063
Mof_I 	I 	0.1157	0.7361	0.065	-0.193
Mof_I 	I 	0.11844	0.8233	0.20124	-0.832
Mof_Zn	Zn	0.16895	0.8508	0.2725	0.656
Mof_I 	I 	0.23171	0.761	0.29551	0.631
Mof_N 	N 	0.1388	0.8372	0.3248	-0.313
Mof_N 	N 	0.1839	0.9879	0.2773	-0.304
Mof_C 	C 	0.1604	0.0431	0.2509	0.078
Mof_C 	C 	0.2141	0.0238	0.3054	0.064
Mof_C 	C 	0.1658	0.1333	0.2506	-0.128
Mof_H 	H 	0.1384	0.0184	0.231	-0.016
Mof_C 	C 	0.2224	0.1138	0.3066	-0.125
Mof_H 	H 	0.2306	0.9854	0.3255	-0.008
Mof_C 	C 	0.1974	0.1704	0.2797	0.057
Mof_H 	H 	0.1482	0.1702	0.2307	0.089
Mof_H 	H 	0.2452	0.1365	0.326	0.074
Mof_C 	C 	0.2043	0.2697	0.2796	0.095
Mof_N 	N 	0.17937	0.3148	0.249	-0.131
Mof_N 	N 	0.2341	0.3046	0.3082	-0.15
Mof_C 	C 	0.1878	0.4006	0.2463	0.103
Mof_C 	C 	0.2395	0.3932	0.3038	0.075
Mof_C 	C 	0.1621	0.4548	0.2116	0.064
Mof_N 	N 	0.21766	0.4443	0.2725	-0.146
Mof_C 	C 	0.2708	0.4401	0.335	0.035
Mof_C 	C 	0.1284	0.4162	0.1877	-0.116
Mof_C 	C 	0.1715	0.5415	0.2027	-0.124
Mof_C 	C 	0.2748	0.5307	0.3327	-0.104
Mof_C 	C 	0.2971	0.3949	0.3674	-0.124
Mof_C 	C 	0.1042	0.4662	0.1558	0.077
Mof_H 	H 	0.1218	0.3559	0.1931	0.094
Mof_C 	C 	0.1462	0.5866	0.1691	0.068
Mof_H 	H 	0.1945	0.5699	0.219	0.058
Mof_H 	H 	0.2579	0.5637	0.3103	0.074
Mof_C 	C 	0.3031	0.5741	0.3627	0.05
Mof_C 	C 	0.3243	0.4429	0.3963	0.082
Mof_H 	H 	0.2962	0.3314	0.3694	0.078
Mof_N 	N 	0.1133	0.5502	0.1461	-0.264
Mof_H 	H 	0.0803	0.44	0.1402	-0.006
Mof_H 	H 	0.1528	0.6462	0.1623	-0.021
Mof_N 	N 	0.3277	0.5305	0.3946	-0.276
Mof_H 	H 	0.3053	0.6374	0.3608	0.019
Mof_H 	H 	0.3416	0.4114	0.4189	-0.005
Mof_Zn	Zn	0.07189	0.62	0.101	0.56
Mof_Zn	Zn	0.36669	0.6078	0.4367	0.602
Mof_I 	I 	0.11032	0.73711	0.06434	-0.131
Mof_N 	N 	0.0584	0.518	0.0547	-0.268
Mof_I 	I 	0.01207	0.6493	0.13747	-0.235
Mof_N 	N 	0.4165	0.5197	0.4476	-0.285
Mof_I 	I 	0.38279	0.7491	0.39779	-0.331
Mof_I 	I 	0.34414	0.6089	0.50962	0.056
Mof_C 	C 	0.4353	0.5149	0.4146	0.092
Mof_C 	C 	0.4288	0.4692	0.4835	0.069
Mof_C 	C 	0.4674	0.4595	0.4145	-0.13
Mof_H 	H 	0.4265	0.5514	0.3894	-0.024
Mof_C 	C 	0.4616	0.4115	0.4852	-0.12
Mof_H 	H 	0.4153	0.4724	0.5078	-0.009
Mof_H 	H 	0.4803	0.4573	0.3897	0.091
Mof_C 	C 	0.4809	0.4068	0.4511	0.061
Mof_H 	H 	0.4703	0.3757	0.5107	0.079
Mof_C 	C 	0.5135	0.3432	0.4512	0.084
Mof_N 	N 	0.5368	0.3592	0.4218	-0.137
Mof_N 	N 	0.51678	0.273	0.4786	-0.149
Mof_C 	C 	0.5652	0.2974	0.4207	0.096
Mof_C 	C 	0.5456	0.2167	0.4742	0.082
Mof_N 	N 	0.5711	0.2257	0.4463	-0.141
Mof_C 	C 	0.5912	0.3103	0.3873	0.069
Mof_C 	C 	0.5495	0.134	0.5024	0.052
Mof_C 	C 	0.6247	0.2591	0.388	-0.12
Mof_C 	C 	0.5818	0.3769	0.3553	-0.13
Mof_C 	C 	0.5804	0.0759	0.5013	-0.115
Mof_C 	C 	0.5224	0.1131	0.5283	-0.126
Mof_C 	C 	0.6473	0.2742	0.3571	0.068
Mof_H 	H 	0.6319	0.2139	0.4098	0.083
Mof_C 	C 	0.607	0.3862	0.3252	0.096
Mof_H 	H 	0.5591	0.4143	0.3543	0.089
Mof_H 	H 	0.5989	0.0871	0.4823	0.078
Mof_C 	C 	0.5845	0.0001	0.5283	0.061
Mof_C 	C 	0.5278	0.0358	0.554	0.082
Mof_H 	H 	0.5	0.1509	0.5288	0.074
Mof_H 	H 	0.6706	0.2386	0.358	-0.021
Mof_H 	H 	0.6008	0.4313	0.3032	-0.025
Mof_H 	H 	0.6063	0.9605	0.528	-0.014
Mof_H 	H 	0.5086	0.0215	0.5718	-0.012
Mof_Zn	Zn	0.1804	0.8515	0.2861	0.674
Mof_I 	I 	0.1375	0.8092	0.2113	0.385
Mof_I 	I 	0.246	0.7786	0.3168	-1.065
Mof_Zn	Zn	0.867	0.0948	0.4465	0.598
Mof_I 	I 	0.8356	0.0814	0.5159	-0.408
Mof_I 	I 	0.88358	0.2421	0.4123	-0.013
Mof_Zn	Zn	0.5771	0.1235	0.097	0.558
Mof_I 	I 	0.5194	0.1614	0.1351	-0.062
Mof_I 	I 	0.6157	0.2361	0.065	-0.193
Mof_I 	I 	0.61844	0.6767	0.70124	-0.832
Mof_Zn	Zn	0.66895	0.6492	0.7725	0.656
Mof_I 	I 	0.73171	0.739	0.79551	0.631
Mof_N 	N 	0.6388	0.6628	0.8248	-0.313
Mof_N 	N 	0.6839	0.5121	0.7773	-0.304
Mof_C 	C 	0.6604	0.4569	0.7509	0.078
Mof_C 	C 	0.7141	0.4762	0.8054	0.064
Mof_C 	C 	0.6658	0.3667	0.7506	-0.128
Mof_H 	H 	0.6384	0.4816	0.731	-0.016
Mof_C 	C 	0.7224	0.3862	0.8066	-0.126
Mof_H 	H 	0.7306	0.5146	0.8255	-0.008
Mof_C 	C 	0.6974	0.3296	0.7797	0.058
Mof_H 	H 	0.6482	0.3298	0.7307	0.09
Mof_H 	H 	0.7452	0.3635	0.826	0.074
Mof_C 	C 	0.7043	0.2303	0.7796	0.095
Mof_N 	N 	0.67937	0.1852	0.749	-0.131
Mof_N 	N 	0.7341	0.1954	0.8082	-0.15
Mof_C 	C 	0.6878	0.0994	0.7463	0.103
Mof_C 	C 	0.7395	0.1068	0.8038	0.075
Mof_C 	C 	0.6621	0.0452	0.7116	0.064
Mof_N 	N 	0.71766	0.0557	0.7725	-0.146
Mof_C 	C 	0.7708	0.0599	0.835	0.036
Mof_C 	C 	0.6284	0.0838	0.6877	-0.116
Mof_C 	C 	0.6715	0.9585	0.7027	-0.125
Mof_C 	C 	0.7748	0.9693	0.8327	-0.105
Mof_C 	C 	0.7971	0.1051	0.8674	-0.125
Mof_C 	C 	0.6042	0.0338	0.6558	0.077
Mof_H 	H 	0.6218	0.1441	0.6931	0.094
Mof_C 	C 	0.6462	0.9134	0.6691	0.068
Mof_H 	H 	0.6945	0.9301	0.719	0.058
Mof_H 	H 	0.7579	0.9363	0.8103	0.074
Mof_C 	C 	0.8031	0.9259	0.8627	0.051
Mof_C 	C 	0.8243	0.0571	0.8963	0.082
Mof_H 	H 	0.7962	0.1686	0.8694	0.079
Mof_N 	N 	0.6133	0.9498	0.6461	-0.265
Mof_H 	H 	0.5803	0.06	0.6402	-0.006
Mof_H 	H 	0.6528	0.8538	0.6623	-0.021
Mof_N 	N 	0.8277	0.9695	0.8946	-0.277
Mof_H 	H 	0.8053	0.8626	0.8608	0.019
Mof_H 	H 	0.8416	0.0886	0.9189	-0.005
Mof_Zn	Zn	0.57189	0.88	0.601	0.56
Mof_Zn	Zn	0.86669	0.8922	0.9367	0.602
Mof_I 	I 	0.61032	0.76289	0.56434	-0.131
Mof_N 	N 	0.5584	0.982	0.5547	-0.268
Mof_I 	I 	0.51207	0.8507	0.63747	-0.235
Mof_N 	N 	0.9165	0.9803	0.9476	-0.285
Mof_I 	I 	0.88279	0.7509	0.89779	-0.331
Mof_I 	I 	0.84414	0.8911	0.00962	0.056
Mof_C 	C 	0.9353	0.9851	0.9146	0.092
Mof_C 	C 	0.9288	0.0308	0.9835	0.07
Mof_C 	C 	0.9674	0.0405	0.9145	-0.131
Mof_H 	H 	0.9265	0.9486	0.8894	-0.024
Mof_C 	C 	0.9616	0.0885	0.9852	-0.121
Mof_H 	H 	0.9153	0.0276	0.0078	-0.01
Mof_H 	H 	0.9803	0.0427	0.8897	0.092
Mof_C 	C 	0.9809	0.0932	0.9511	0.063
Mof_H 	H 	0.9703	0.1243	0.0107	0.08
Mof_C 	C 	0.0135	0.1568	0.9512	0.082
Mof_N 	N 	0.0368	0.1408	0.9218	-0.137
Mof_N 	N 	0.01678	0.227	0.9786	-0.15
Mof_C 	C 	0.0652	0.2026	0.9207	0.096
Mof_C 	C 	0.0456	0.2833	0.9742	0.082
Mof_N 	N 	0.0711	0.2743	0.9463	-0.141
Mof_C 	C 	0.0912	0.1897	0.8873	0.069
Mof_C 	C 	0.0495	0.366	0.0024	0.052
Mof_C 	C 	0.1247	0.2409	0.888	-0.12
Mof_C 	C 	0.0818	0.1231	0.8553	-0.13
Mof_C 	C 	0.0804	0.4241	0.0013	-0.115
Mof_C 	C 	0.0224	0.3869	0.0283	-0.126
Mof_C 	C 	0.1473	0.2258	0.8571	0.068
Mof_H 	H 	0.1319	0.2861	0.9098	0.083
Mof_C 	C 	0.107	0.1138	0.8252	0.096
Mof_H 	H 	0.0591	0.0857	0.8543	0.089
Mof_H 	H 	0.0989	0.4129	0.9823	0.078
Mof_C 	C 	0.0845	0.4999	0.0283	0.06
Mof_C 	C 	0.0278	0.4642	0.054	0.081
Mof_H 	H 	-9.22808e-19	0.3491	0.0288	0.074
Mof_H 	H 	0.1706	0.2614	0.858	-0.021
Mof_H 	H 	0.1008	0.0687	0.8032	-0.025
Mof_H 	H 	0.1063	0.5395	0.028	-0.014
Mof_H 	H 	0.0086	0.4785	0.0718	-0.012
Mof_Zn	Zn	0.6804	0.6485	0.7861	0.674
Mof_I 	I 	0.6375	0.6908	0.7113	0.386
Mof_I 	I 	0.746	0.7214	0.8168	-1.065
Mof_Zn	Zn	0.367	0.4052	0.9465	0.599
Mof_I 	I 	0.3356	0.4186	0.0159	-0.408
Mof_I 	I 	0.38358	0.2579	0.9123	-0.013
Mof_Zn	Zn	0.0771	0.3765	0.597	0.558
Mof_I 	I 	0.0194	0.3386	0.6351	-0.063
Mof_I 	I 	0.1157	0.2639	0.565	-0.193
Mof_I 	I 	0.11844	0.1767	0.70124	-0.832
Mof_Zn	Zn	0.16895	0.1492	0.7725	0.656
Mof_I 	I 	0.23171	0.239	0.79551	0.631
Mof_N 	N 	0.1388	0.1628	0.8248	-0.313
Mof_N 	N 	0.1839	0.0121	0.7773	-0.304
Mof_C 	C 	0.1604	0.9569	0.7509	0.078
Mof_C 	C 	0.2141	0.9762	0.8054	0.063
Mof_C 	C 	0.1658	0.8667	0.7506	-0.128
Mof_H 	H 	0.1384	0.9816	0.731	-0.016
Mof_C 	C 	0.2224	0.8862	0.8066	-0.125
Mof_H 	H 	0.2306	0.0146	0.8255	-0.008
Mof_C 	C 	0.1974	0.8296	0.7797	0.057
Mof_H 	H 	0.1482	0.8298	0.7307	0.089
Mof_H 	H 	0.2452	0.8635	0.826	0.074
Mof_C 	C 	0.2043	0.7303	0.7796	0.095
Mof_N 	N 	0.17937	0.6852	0.749	-0.131
Mof_N 	N 	0.2341	0.6954	0.8082	-0.15
Mof_C 	C 	0.1878	0.5994	0.7463	0.103
Mof_C 	C 	0.2395	0.6068	0.8038	0.075
Mof_C 	C 	0.1621	0.5452	0.7116	0.064
Mof_N 	N 	0.21766	0.5557	0.7725	-0.146
Mof_C 	C 	0.2708	0.5599	0.835	0.035
Mof_C 	C 	0.1284	0.5838	0.6877	-0.116
Mof_C 	C 	0.1715	0.4585	0.7027	-0.124
Mof_C 	C 	0.2748	0.4693	0.8327	-0.104
Mof_C 	C 	0.2971	0.6051	0.8674	-0.124
Mof_C 	C 	0.1042	0.5338	0.6558	0.077
Mof_H 	H 	0.1218	0.6441	0.6931	0.094
Mof_C 	C 	0.1462	0.4134	0.6691	0.068
Mof_H 	H 	0.1945	0.4301	0.719	0.058
Mof_H 	H 	0.2579	0.4363	0.8103	0.074
Mof_C 	C 	0.3031	0.4259	0.8627	0.05
Mof_C 	C 	0.3243	0.5571	0.8963	0.082
Mof_H 	H 	0.2962	0.6686	0.8694	0.078
Mof_N 	N 	0.1133	0.4498	0.6461	-0.264
Mof_H 	H 	0.0803	0.56	0.6402	-0.006
Mof_H 	H 	0.1528	0.3538	0.6623	-0.021
Mof_N 	N 	0.3277	0.4695	0.8946	-0.276
Mof_H 	H 	0.3053	0.3626	0.8608	0.019
Mof_H 	H 	0.3416	0.5886	0.9189	-0.005
Mof_Zn	Zn	0.07189	0.38	0.601	0.56
Mof_Zn	Zn	0.36669	0.3922	0.9367	0.602
Mof_I 	I 	0.11032	0.26289	0.56434	-0.131
Mof_N 	N 	0.0584	0.482	0.5547	-0.268
Mof_I 	I 	0.01207	0.3507	0.63747	-0.235
Mof_N 	N 	0.4165	0.4803	0.9476	-0.285
Mof_I 	I 	0.38279	0.2509	0.89779	-0.331
Mof_I 	I 	0.34414	0.3911	0.00962	0.056
Mof_C 	C 	0.4353	0.4851	0.9146	0.092
Mof_C 	C 	0.4288	0.5308	0.9835	0.069
Mof_C 	C 	0.4674	0.5405	0.9145	-0.13
Mof_H 	H 	0.4265	0.4486	0.8894	-0.024
Mof_C 	C 	0.4616	0.5885	0.9852	-0.121
Mof_H 	H 	0.4153	0.5276	0.0078	-0.009
Mof_H 	H 	0.4803	0.5427	0.8897	0.091
Mof_C 	C 	0.4809	0.5932	0.9511	0.061
Mof_H 	H 	0.4703	0.6243	0.0107	0.079
Mof_C 	C 	0.5135	0.6568	0.9512	0.084
Mof_N 	N 	0.5368	0.6408	0.9218	-0.137
Mof_N 	N 	0.51678	0.727	0.9786	-0.149
Mof_C 	C 	0.5652	0.7026	0.9207	0.096
Mof_C 	C 	0.5456	0.7833	0.9742	0.082
Mof_N 	N 	0.5711	0.7743	0.9463	-0.141
Mof_C 	C 	0.5912	0.6897	0.8873	0.069
Mof_C 	C 	0.5495	0.866	0.0024	0.052
Mof_C 	C 	0.6247	0.7409	0.888	-0.12
Mof_C 	C 	0.5818	0.6231	0.8553	-0.13
Mof_C 	C 	0.5804	0.9241	0.0013	-0.115
Mof_C 	C 	0.5224	0.8869	0.0283	-0.127
Mof_C 	C 	0.6473	0.7258	0.8571	0.068
Mof_H 	H 	0.6319	0.7861	0.9098	0.083
Mof_C 	C 	0.607	0.6138	0.8252	0.096
Mof_H 	H 	0.5591	0.5857	0.8543	0.089
Mof_H 	H 	0.5989	0.9129	0.9823	0.078
Mof_C 	C 	0.5845	0.9999	0.0283	0.061
Mof_C 	C 	0.5278	0.9642	0.054	0.082
Mof_H 	H 	0.5	0.8491	0.0288	0.074
Mof_H 	H 	0.6706	0.7614	0.858	-0.021
Mof_H 	H 	0.6008	0.5687	0.8032	-0.025
Mof_H 	H 	0.6063	0.0395	0.028	-0.015
Mof_H 	H 	0.5086	0.9785	0.0718	-0.012
Mof_Zn	Zn	0.1804	0.1485	0.7861	0.674
Mof_I 	I 	0.1375	0.1908	0.7113	0.385
Mof_I 	I 	0.246	0.2214	0.8168	-1.065
Mof_Zn	Zn	0.867	0.9052	0.9465	0.598
Mof_I 	I 	0.8356	0.9186	0.0159	-0.408
Mof_I 	I 	0.88358	0.7579	0.9123	-0.013
Mof_Zn	Zn	0.5771	0.8765	0.597	0.558
Mof_I 	I 	0.5194	0.8386	0.6351	-0.062
Mof_I 	I 	0.6157	0.7639	0.565	-0.193
Mof_I 	I 	0.38156	0.3233	0.29876	-0.832
Mof_Zn	Zn	0.33105	0.3508	0.2275	0.656
Mof_I 	I 	0.26829	0.261	0.20449	0.631
Mof_N 	N 	0.3612	0.3372	0.1752	-0.313
Mof_N 	N 	0.3161	0.4879	0.2227	-0.304
Mof_C 	C 	0.3396	0.5431	0.2491	0.078
Mof_C 	C 	0.2859	0.5238	0.1946	0.064
Mof_C 	C 	0.3342	0.6333	0.2494	-0.128
Mof_H 	H 	0.3616	0.5184	0.269	-0.016
Mof_C 	C 	0.2776	0.6138	0.1934	-0.126
Mof_H 	H 	0.2694	0.4854	0.1745	-0.008
Mof_C 	C 	0.3026	0.6704	0.2203	0.058
Mof_H 	H 	0.3518	0.6702	0.2693	0.09
Mof_H 	H 	0.2548	0.6365	0.174	0.074
Mof_C 	C 	0.2957	0.7697	0.2204	0.095
Mof_N 	N 	0.32063	0.8148	0.251	-0.131
Mof_N 	N 	0.2659	0.8046	0.1918	-0.15
Mof_C 	C 	0.3122	0.9006	0.2537	0.103
Mof_C 	C 	0.2605	0.8932	0.1962	0.075
Mof_C 	C 	0.3379	0.9548	0.2884	0.064
Mof_N 	N 	0.28234	0.9443	0.2275	-0.146
Mof_C 	C 	0.2292	0.9401	0.165	0.036
Mof_C 	C 	0.3716	0.9162	0.3123	-0.116
Mof_C 	C 	0.3285	0.0415	0.2973	-0.125
Mof_C 	C 	0.2252	0.0307	0.1673	-0.105
Mof_C 	C 	0.2029	0.8949	0.1326	-0.125
Mof_C 	C 	0.3958	0.9662	0.3442	0.077
Mof_H 	H 	0.3782	0.8559	0.3069	0.094
Mof_C 	C 	0.3538	0.0866	0.3309	0.068
Mof_H 	H 	0.3055	0.0699	0.281	0.058
Mof_H 	H 	0.2421	0.0637	0.1897	0.074
Mof_C 	C 	0.1969	0.0741	0.1373	0.051
Mof_C 	C 	0.1757	0.9429	0.1037	0.082
Mof_H 	H 	0.2038	0.8314	0.1306	0.079
Mof_N 	N 	0.3867	0.0502	0.3539	-0.265
Mof_H 	H 	0.4197	0.94	0.3598	-0.006
Mof_H 	H 	0.3472	0.1462	0.3377	-0.021
Mof_N 	N 	0.1723	0.0305	0.1054	-0.277
Mof_H 	H 	0.1947	0.1374	0.1392	0.019
Mof_H 	H 	0.1584	0.9114	0.0811	-0.005
Mof_Zn	Zn	0.42811	0.12	0.399	0.56
Mof_Zn	Zn	0.13331	0.1078	0.0633	0.602
Mof_I 	I 	0.38968	0.23711	0.43566	-0.131
Mof_N 	N 	0.4416	0.018	0.4453	-0.268
Mof_I 	I 	0.48793	0.1493	0.36253	-0.235
Mof_N 	N 	0.0835	0.0197	0.0524	-0.285
Mof_I 	I 	0.11721	0.2491	0.10221	-0.331
Mof_I 	I 	0.15586	0.1089	0.99038	0.056
Mof_C 	C 	0.0647	0.0149	0.0854	0.09
Mof_C 	C 	0.0712	0.9692	0.0165	0.069
Mof_C 	C 	0.0326	0.9595	0.0855	-0.128
Mof_H 	H 	0.0735	0.0514	0.1106	-0.024
Mof_C 	C 	0.0384	0.9115	0.0148	-0.119
Mof_H 	H 	0.0847	0.9724	0.9922	-0.009
Mof_H 	H 	0.0197	0.9573	0.1103	0.09
Mof_C 	C 	0.0191	0.9068	0.0489	0.058
Mof_H 	H 	0.0297	0.8757	0.9893	0.078
Mof_C 	C 	0.9865	0.8432	0.0488	0.086
Mof_N 	N 	0.9632	0.8592	0.0782	-0.137
Mof_N 	N 	0.98322	0.773	0.0214	-0.149
Mof_C 	C 	0.9348	0.7974	0.0793	0.096
Mof_C 	C 	0.9544	0.7167	0.0258	0.083
Mof_N 	N 	0.9289	0.7257	0.0537	-0.141
Mof_C 	C 	0.9088	0.8103	0.1127	0.069
Mof_C 	C 	0.9505	0.634	0.9976	0.05
Mof_C 	C 	0.8753	0.7591	0.112	-0.121
Mof_C 	C 	0.9182	0.8769	0.1447	-0.13
Mof_C 	C 	0.9196	0.5759	0.9987	-0.114
Mof_C 	C 	0.9776	0.6131	0.9717	-0.122
Mof_C 	C 	0.8527	0.7742	0.1429	0.068
Mof_H 	H 	0.8681	0.7139	0.0902	0.083
Mof_C 	C 	0.893	0.8862	0.1748	0.096
Mof_H 	H 	0.9409	0.9143	0.1457	0.09
Mof_H 	H 	0.9011	0.5871	0.0177	0.078
Mof_C 	C 	0.9155	0.5001	0.9717	0.06
Mof_C 	C 	0.9722	0.5358	0.946	0.08
Mof_H 	H 	3.90658e-33	0.6509	0.9712	0.072
Mof_H 	H 	0.8294	0.7386	0.142	-0.021
Mof_H 	H 	0.8992	0.9313	0.1968	-0.025
Mof_H 	H 	0.8937	0.4605	0.972	-0.014
Mof_H 	H 	0.9914	0.5215	0.9282	-0.011
Mof_Zn	Zn	0.3196	0.3515	0.2139	0.674
Mof_I 	I 	0.3625	0.3092	0.2887	0.386
Mof_I 	I 	0.254	0.2786	0.1832	-1.065
Mof_Zn	Zn	0.633	0.5948	0.0535	0.599
Mof_I 	I 	0.6644	0.5814	0.9841	-0.408
Mof_I 	I 	0.61642	0.7421	0.0877	-0.013
Mof_Zn	Zn	0.9229	0.6235	0.403	0.558
Mof_I 	I 	0.9806	0.6614	0.3649	-0.061
Mof_I 	I 	0.8843	0.7361	0.435	-0.193
Mof_I 	I 	0.88156	0.8233	0.29876	-0.832
Mof_Zn	Zn	0.83105	0.8508	0.2275	0.656
Mof_I 	I 	0.76829	0.761	0.20449	0.631
Mof_N 	N 	0.8612	0.8372	0.1752	-0.313
Mof_N 	N 	0.8161	0.9879	0.2227	-0.304
Mof_C 	C 	0.8396	0.0431	0.2491	0.078
Mof_C 	C 	0.7859	0.0238	0.1946	0.063
Mof_C 	C 	0.8342	0.1333	0.2494	-0.128
Mof_H 	H 	0.8616	0.0184	0.269	-0.015
Mof_C 	C 	0.7776	0.1138	0.1934	-0.125
Mof_H 	H 	0.7694	0.9854	0.1745	-0.008
Mof_C 	C 	0.8026	0.1704	0.2203	0.057
Mof_H 	H 	0.8518	0.1702	0.2693	0.09
Mof_H 	H 	0.7548	0.1365	0.174	0.074
Mof_C 	C 	0.7957	0.2697	0.2204	0.095
Mof_N 	N 	0.82063	0.3148	0.251	-0.131
Mof_N 	N 	0.7659	0.3046	0.1918	-0.15
Mof_C 	C 	0.8122	0.4006	0.2537	0.104
Mof_C 	C 	0.7605	0.3932	0.1962	0.075
Mof_C 	C 	0.8379	0.4548	0.2884	0.064
Mof_N 	N 	0.78234	0.4443	0.2275	-0.146
Mof_C 	C 	0.7292	0.4401	0.165	0.035
Mof_C 	C 	0.8716	0.4162	0.3123	-0.116
Mof_C 	C 	0.8285	0.5415	0.2973	-0.124
Mof_C 	C 	0.7252	0.5307	0.1673	-0.104
Mof_C 	C 	0.7029	0.3949	0.1326	-0.124
Mof_C 	C 	0.8958	0.4662	0.3442	0.077
Mof_H 	H 	0.8782	0.3559	0.3069	0.094
Mof_C 	C 	0.8538	0.5866	0.3309	0.068
Mof_H 	H 	0.8055	0.5699	0.281	0.058
Mof_H 	H 	0.7421	0.5637	0.1897	0.074
Mof_C 	C 	0.6969	0.5741	0.1373	0.05
Mof_C 	C 	0.6757	0.4429	0.1037	0.082
Mof_H 	H 	0.7038	0.3314	0.1306	0.078
Mof_N 	N 	0.8867	0.5502	0.3539	-0.264
Mof_H 	H 	0.9197	0.44	0.3598	-0.006
Mof_H 	H 	0.8472	0.6462	0.3377	-0.021
Mof_N 	N 	0.6723	0.5305	0.1054	-0.276
Mof_H 	H 	0.6947	0.6374	0.1392	0.019
Mof_H 	H 	0.6584	0.4114	0.0811	-0.005
Mof_Zn	Zn	0.92811	0.62	0.399	0.56
Mof_Zn	Zn	0.63331	0.6078	0.0633	0.602
Mof_I 	I 	0.88968	0.73711	0.43566	-0.13
Mof_N 	N 	0.9416	0.518	0.4453	-0.268
Mof_I 	I 	0.98793	0.6493	0.36253	-0.234
Mof_N 	N 	0.5835	0.5197	0.0524	-0.285
Mof_I 	I 	0.61721	0.7491	0.10221	-0.331
Mof_I 	I 	0.65586	0.6089	0.99038	0.056
Mof_C 	C 	0.5647	0.5149	0.0854	0.092
Mof_C 	C 	0.5712	0.4692	0.0165	0.069
Mof_C 	C 	0.5326	0.4595	0.0855	-0.13
Mof_H 	H 	0.5735	0.5514	0.1106	-0.024
Mof_C 	C 	0.5384	0.4115	0.0148	-0.121
Mof_H 	H 	0.5847	0.4724	0.9922	-0.009
Mof_H 	H 	0.5197	0.4573	0.1103	0.091
Mof_C 	C 	0.5191	0.4068	0.0489	0.061
Mof_H 	H 	0.5297	0.3757	0.9893	0.079
Mof_C 	C 	0.4865	0.3432	0.0488	0.084
Mof_N 	N 	0.4632	0.3592	0.0782	-0.137
Mof_N 	N 	0.48322	0.273	0.0214	-0.149
Mof_C 	C 	0.4348	0.2974	0.0793	0.096
Mof_C 	C 	0.4544	0.2167	0.0258	0.082
Mof_N 	N 	0.4289	0.2257	0.0537	-0.141
Mof_C 	C 	0.4088	0.3103	0.1127	0.069
Mof_C 	C 	0.4505	0.134	0.9976	0.052
Mof_C 	C 	0.3753	0.2591	0.112	-0.12
Mof_C 	C 	0.4182	0.3769	0.1447	-0.13
Mof_C 	C 	0.4196	0.0759	0.9987	-0.115
Mof_C 	C 	0.4776	0.1131	0.9717	-0.127
Mof_C 	C 	0.3527	0.2742	0.1429	0.068
Mof_H 	H 	0.3681	0.2139	0.0902	0.083
Mof_C 	C 	0.393	0.3862	0.1748	0.096
Mof_H 	H 	0.4409	0.4143	0.1457	0.089
Mof_H 	H 	0.4011	0.0871	0.0177	0.078
Mof_C 	C 	0.4155	0.0001	0.9717	0.061
Mof_C 	C 	0.4722	0.0358	0.946	0.082
Mof_H 	H 	0.5	0.1509	0.9712	0.074
Mof_H 	H 	0.3294	0.2386	0.142	-0.021
Mof_H 	H 	0.3992	0.4313	0.1968	-0.025
Mof_H 	H 	0.3937	0.9605	0.972	-0.015
Mof_H 	H 	0.4914	0.0215	0.9282	-0.012
Mof_Zn	Zn	0.8196	0.8515	0.2139	0.674
Mof_I 	I 	0.8625	0.8092	0.2887	0.386
Mof_I 	I 	0.754	0.7786	0.1832	-1.065
Mof_Zn	Zn	0.133	0.0948	0.0535	0.598
Mof_I 	I 	0.1644	0.0814	0.9841	-0.408
Mof_I 	I 	0.11642	0.2421	0.0877	-0.013
Mof_Zn	Zn	0.4229	0.1235	0.403	0.558
Mof_I 	I 	0.4806	0.1614	0.3649	-0.062
Mof_I 	I 	0.3843	0.2361	0.435	-0.193
Mof_I 	I 	0.38156	0.6767	0.79876	-0.832
Mof_Zn	Zn	0.33105	0.6492	0.7275	0.656
Mof_I 	I 	0.26829	0.739	0.70449	0.631
Mof_N 	N 	0.3612	0.6628	0.6752	-0.313
Mof_N 	N 	0.3161	0.5121	0.7227	-0.304
Mof_C 	C 	0.3396	0.4569	0.7491	0.078
Mof_C 	C 	0.2859	0.4762	0.6946	0.064
Mof_C 	C 	0.3342	0.3667	0.7494	-0.128
Mof_H 	H 	0.3616	0.4816	0.769	-0.016
Mof_C 	C 	0.2776	0.3862	0.6934	-0.126
Mof_H 	H 	0.2694	0.5146	0.6745	-0.008
Mof_C 	C 	0.3026	0.3296	0.7203	0.058
Mof_H 	H 	0.3518	0.3298	0.7693	0.09
Mof_H 	H 	0.2548	0.3635	0.674	0.074
Mof_C 	C 	0.2957	0.2303	0.7204	0.095
Mof_N 	N 	0.32063	0.1852	0.751	-0.131
Mof_N 	N 	0.2659	0.1954	0.6918	-0.15
Mof_C 	C 	0.3122	0.0994	0.7537	0.103
Mof_C 	C 	0.2605	0.1068	0.6962	0.075
Mof_C 	C 	0.3379	0.0452	0.7884	0.064
Mof_N 	N 	0.28234	0.0557	0.7275	-0.146
Mof_C 	C 	0.2292	0.0599	0.665	0.036
Mof_C 	C 	0.3716	0.0838	0.8123	-0.116
Mof_C 	C 	0.3285	0.9585	0.7973	-0.125
Mof_C 	C 	0.2252	0.9693	0.6673	-0.104
Mof_C 	C 	0.2029	0.1051	0.6326	-0.125
Mof_C 	C 	0.3958	0.0338	0.8442	0.077
Mof_H 	H 	0.3782	0.1441	0.8069	0.094
Mof_C 	C 	0.3538	0.9134	0.8309	0.068
Mof_H 	H 	0.3055	0.9301	0.781	0.059
Mof_H 	H 	0.2421	0.9363	0.6897	0.074
Mof_C 	C 	0.1969	0.9259	0.6373	0.05
Mof_C 	C 	0.1757	0.0571	0.6037	0.082
Mof_H 	H 	0.2038	0.1686	0.6306	0.078
Mof_N 	N 	0.3867	0.9498	0.8539	-0.265
Mof_H 	H 	0.4197	0.06	0.8598	-0.006
Mof_H 	H 	0.3472	0.8538	0.8377	-0.021
Mof_N 	N 	0.1723	0.9695	0.6054	-0.276
Mof_H 	H 	0.1947	0.8626	0.6392	0.019
Mof_H 	H 	0.1584	0.0886	0.5811	-0.005
Mof_Zn	Zn	0.42811	0.88	0.899	0.56
Mof_Zn	Zn	0.13331	0.8922	0.5633	0.602
Mof_I 	I 	0.38968	0.76289	0.93566	-0.131
Mof_N 	N 	0.4416	0.982	0.9453	-0.269
Mof_I 	I 	0.48793	0.8507	0.86253	-0.235
Mof_N 	N 	0.0835	0.9803	0.5524	-0.285
Mof_I 	I 	0.11721	0.7509	0.60221	-0.331
Mof_I 	I 	0.15586	0.8911	0.49038	0.056
Mof_C 	C 	0.0647	0.9851	0.5854	0.091
Mof_C 	C 	0.0712	0.0308	0.5165	0.068
Mof_C 	C 	0.0326	0.0405	0.5855	-0.129
Mof_H 	H 	0.0735	0.9486	0.6106	-0.024
Mof_C 	C 	0.0384	0.0885	0.5148	-0.119
Mof_H 	H 	0.0847	0.0276	0.4922	-0.009
Mof_H 	H 	0.0197	0.0427	0.6103	0.09
Mof_C 	C 	0.0191	0.0932	0.5489	0.058
Mof_H 	H 	0.0297	0.1243	0.4893	0.078
Mof_C 	C 	0.9865	0.1568	0.5488	0.086
Mof_N 	N 	0.9632	0.1408	0.5782	-0.137
Mof_N 	N 	0.98322	0.227	0.5214	-0.149
Mof_C 	C 	0.9348	0.2026	0.5793	0.096
Mof_C 	C 	0.9544	0.2833	0.5258	0.083
Mof_N 	N 	0.9289	0.2743	0.5537	-0.141
Mof_C 	C 	0.9088	0.1897	0.6127	0.069
Mof_C 	C 	0.9505	0.366	0.4976	0.05
Mof_C 	C 	0.8753	0.2409	0.612	-0.121
Mof_C 	C 	0.9182	0.1231	0.6447	-0.13
Mof_C 	C 	0.9196	0.4241	0.4987	-0.114
Mof_C 	C 	0.9776	0.3869	0.4717	-0.122
Mof_C 	C 	0.8527	0.2258	0.6429	0.068
Mof_H 	H 	0.8681	0.2861	0.5902	0.083
Mof_C 	C 	0.893	0.1138	0.6748	0.096
Mof_H 	H 	0.9409	0.0857	0.6457	0.09
Mof_H 	H 	0.9011	0.4129	0.5177	0.078
Mof_C 	C 	0.9155	0.4999	0.4717	0.06
Mof_C 	C 	0.9722	0.4642	0.446	0.08
Mof_H 	H 	1.89536e-33	0.3491	0.4712	0.072
Mof_H 	H 	0.8294	0.2614	0.642	-0.021
Mof_H 	H 	0.8992	0.0687	0.6968	-0.025
Mof_H 	H 	0.8937	0.5395	0.472	-0.014
Mof_H 	H 	0.9914	0.4785	0.4282	-0.011
Mof_Zn	Zn	0.3196	0.6485	0.7139	0.674
Mof_I 	I 	0.3625	0.6908	0.7887	0.386
Mof_I 	I 	0.254	0.7214	0.6832	-1.065
Mof_Zn	Zn	0.633	0.4052	0.5535	0.598
Mof_I 	I 	0.6644	0.4186	0.4841	-0.408
Mof_I 	I 	0.61642	0.2579	0.5877	-0.013
Mof_Zn	Zn	0.9229	0.3765	0.903	0.558
Mof_I 	I 	0.9806	0.3386	0.8649	-0.061
Mof_I 	I 	0.8843	0.2639	0.935	-0.193
Mof_I 	I 	0.88156	0.1767	0.79876	-0.832
Mof_Zn	Zn	0.83105	0.1492	0.7275	0.656
Mof_I 	I 	0.76829	0.239	0.70449	0.631
Mof_N 	N 	0.8612	0.1628	0.6752	-0.313
Mof_N 	N 	0.8161	0.0121	0.7227	-0.304
Mof_C 	C 	0.8396	0.9569	0.7491	0.078
Mof_C 	C 	0.7859	0.9762	0.6946	0.064
Mof_C 	C 	0.8342	0.8667	0.7494	-0.128
Mof_H 	H 	0.8616	0.9816	0.769	-0.015
Mof_C 	C 	0.7776	0.8862	0.6934	-0.125
Mof_H 	H 	0.7694	0.0146	0.6745	-0.008
Mof_C 	C 	0.8026	0.8296	0.7203	0.057
Mof_H 	H 	0.8518	0.8298	0.7693	0.09
Mof_H 	H 	0.7548	0.8635	0.674	0.074
Mof_C 	C 	0.7957	0.7303	0.7204	0.095
Mof_N 	N 	0.82063	0.6852	0.751	-0.131
Mof_N 	N 	0.7659	0.6954	0.6918	-0.15
Mof_C 	C 	0.8122	0.5994	0.7537	0.104
Mof_C 	C 	0.7605	0.6068	0.6962	0.075
Mof_C 	C 	0.8379	0.5452	0.7884	0.064
Mof_N 	N 	0.78234	0.5557	0.7275	-0.146
Mof_C 	C 	0.7292	0.5599	0.665	0.035
Mof_C 	C 	0.8716	0.5838	0.8123	-0.116
Mof_C 	C 	0.8285	0.4585	0.7973	-0.124
Mof_C 	C 	0.7252	0.4693	0.6673	-0.104
Mof_C 	C 	0.7029	0.6051	0.6326	-0.124
Mof_C 	C 	0.8958	0.5338	0.8442	0.077
Mof_H 	H 	0.8782	0.6441	0.8069	0.094
Mof_C 	C 	0.8538	0.4134	0.8309	0.068
Mof_H 	H 	0.8055	0.4301	0.781	0.058
Mof_H 	H 	0.7421	0.4363	0.6897	0.074
Mof_C 	C 	0.6969	0.4259	0.6373	0.05
Mof_C 	C 	0.6757	0.5571	0.6037	0.082
Mof_H 	H 	0.7038	0.6686	0.6306	0.078
Mof_N 	N 	0.8867	0.4498	0.8539	-0.264
Mof_H 	H 	0.9197	0.56	0.8598	-0.006
Mof_H 	H 	0.8472	0.3538	0.8377	-0.021
Mof_N 	N 	0.6723	0.4695	0.6054	-0.276
Mof_H 	H 	0.6947	0.3626	0.6392	0.019
Mof_H 	H 	0.6584	0.5886	0.5811	-0.005
Mof_Zn	Zn	0.92811	0.38	0.899	0.56
Mof_Zn	Zn	0.63331	0.3922	0.5633	0.602
Mof_I 	I 	0.88968	0.26289	0.93566	-0.13
Mof_N 	N 	0.9416	0.482	0.9453	-0.268
Mof_I 	I 	0.98793	0.3507	0.86253	-0.234
Mof_N 	N 	0.5835	0.4803	0.5524	-0.285
Mof_I 	I 	0.61721	0.2509	0.60221	-0.331
Mof_I 	I 	0.65586	0.3911	0.49038	0.056
Mof_C 	C 	0.5647	0.4851	0.5854	0.092
Mof_C 	C 	0.5712	0.5308	0.5165	0.069
Mof_C 	C 	0.5326	0.5405	0.5855	-0.13
Mof_H 	H 	0.5735	0.4486	0.6106	-0.024
Mof_C 	C 	0.5384	0.5885	0.5148	-0.12
Mof_H 	H 	0.5847	0.5276	0.4922	-0.009
Mof_H 	H 	0.5197	0.5427	0.6103	0.091
Mof_C 	C 	0.5191	0.5932	0.5489	0.061
Mof_H 	H 	0.5297	0.6243	0.4893	0.079
Mof_C 	C 	0.4865	0.6568	0.5488	0.084
Mof_N 	N 	0.4632	0.6408	0.5782	-0.137
Mof_N 	N 	0.48322	0.727	0.5214	-0.149
Mof_C 	C 	0.4348	0.7026	0.5793	0.096
Mof_C 	C 	0.4544	0.7833	0.5258	0.082
Mof_N 	N 	0.4289	0.7743	0.5537	-0.141
Mof_C 	C 	0.4088	0.6897	0.6127	0.069
Mof_C 	C 	0.4505	0.866	0.4976	0.052
Mof_C 	C 	0.3753	0.7409	0.612	-0.12
Mof_C 	C 	0.4182	0.6231	0.6447	-0.13
Mof_C 	C 	0.4196	0.9241	0.4987	-0.115
Mof_C 	C 	0.4776	0.8869	0.4717	-0.126
Mof_C 	C 	0.3527	0.7258	0.6429	0.068
Mof_H 	H 	0.3681	0.7861	0.5902	0.083
Mof_C 	C 	0.393	0.6138	0.6748	0.096
Mof_H 	H 	0.4409	0.5857	0.6457	0.089
Mof_H 	H 	0.4011	0.9129	0.5177	0.078
Mof_C 	C 	0.4155	0.9999	0.4717	0.061
Mof_C 	C 	0.4722	0.9642	0.446	0.082
Mof_H 	H 	0.5	0.8491	0.4712	0.074
Mof_H 	H 	0.3294	0.7614	0.642	-0.021
Mof_H 	H 	0.3992	0.5687	0.6968	-0.025
Mof_H 	H 	0.3937	0.0395	0.472	-0.014
Mof_H 	H 	0.4914	0.9785	0.4282	-0.012
Mof_Zn	Zn	0.8196	0.1485	0.7139	0.674
Mof_I 	I 	0.8625	0.1908	0.7887	0.386
Mof_I 	I 	0.754	0.2214	0.6832	-1.065
Mof_Zn	Zn	0.133	0.9052	0.5535	0.598
Mof_I 	I 	0.1644	0.9186	0.4841	-0.408
Mof_I 	I 	0.11642	0.7579	0.5877	-0.013
Mof_Zn	Zn	0.4229	0.8765	0.903	0.558
Mof_I 	I 	0.4806	0.8386	0.8649	-0.062
Mof_I 	I 	0.3843	0.7639	0.935	-0.193
_end
