# CIF file generated by openbabel 3.1.0, see https://openbabel.org
data_I
_chemical_name_common 'REFJET_clean'
_cell_length_a 7.3628
_cell_length_b 18.111
_cell_length_c 18.111
_cell_angle_alpha 99.1384
_cell_angle_beta 94.884
_cell_angle_gamma 85.116
_space_group_name_H-M_alt 'P 1'
_space_group_name_Hall 'P 1'
loop_
    _symmetry_equiv_pos_as_xyz
    x,y,z
loop_
    _atom_site_label
    _atom_site_type_symbol
    _atom_site_fract_x
    _atom_site_fract_y
    _atom_site_fract_z
    _atom_site_occupancy
    K1       K        0.78291    0.00916    0.42384    1.000
    K2       K        0.71709    0.42384    0.00916    1.000
    K3       K        0.21709    0.99084    0.57616    1.000
    K4       K        0.28291    0.57616    0.99084    1.000
    In1      In       0.70259    0.86188    0.55229    1.000
    In2      In       0.79741    0.55229    0.86188    1.000
    In3      In       0.29741    0.13812    0.44771    1.000
    In4      In       0.20259    0.44771    0.13812    1.000
    H1       H        0.54350    0.25740    0.68520    1.000
    H2       H        0.94470    0.68890    0.71150    1.000
    H3       H        0.84190    0.04490    0.75550    1.000
    H4       H        0.95650    0.68520    0.25740    1.000
    H5       H        0.55530    0.71150    0.68890    1.000
    H6       H        0.65810    0.75550    0.04490    1.000
    H7       H        0.45650    0.74260    0.31480    1.000
    H8       H        0.05530    0.31110    0.28850    1.000
    H9       H        0.15810    0.95510    0.24450    1.000
    H10      H        0.04350    0.31480    0.74260    1.000
    H11      H        0.44470    0.28850    0.31110    1.000
    H12      H        0.34190    0.24450    0.95510    1.000
    C1       C        0.60130    0.21411    0.70049    1.000
    C2       C        0.69620    0.08365    0.67035    1.000
    C3       C        0.70940    0.01064    0.61996    1.000
    C4       C        0.11770    0.74000    0.66000    1.000
    C5       C        0.60240    0.14848    0.64972    1.000
    C6       C        0.06810    0.69341    0.70719    1.000
    C7       C        0.30240    0.74833    0.65327    1.000
    C8       C        0.36500    0.79840    0.60340    1.000
    C9       C        0.96590    0.78062    0.61838    1.000
    C10      C        0.49800    0.14800    0.57540    1.000
    C11      C        0.77880    0.08787    0.74173    1.000
    C12      C        0.68150    0.21890    0.77270    1.000
    C13      C        0.77340    0.15251    0.79429    1.000
    C14      C        0.65680    0.29640    0.81840    1.000
    C15      C        0.86760    0.14270    0.87010    1.000
    C16      C        0.89870    0.70049    0.21411    1.000
    C17      C        0.80380    0.67035    0.08365    1.000
    C18      C        0.79060    0.61996    0.01064    1.000
    C19      C        0.38230    0.66000    0.74000    1.000
    C20      C        0.89760    0.64972    0.14848    1.000
    C21      C        0.43190    0.70719    0.69341    1.000
    C22      C        0.19760    0.65327    0.74833    1.000
    C23      C        0.13500    0.60340    0.79840    1.000
    C24      C        0.53410    0.61838    0.78062    1.000
    C25      C        0.00200    0.57540    0.14800    1.000
    C26      C        0.72120    0.74173    0.08787    1.000
    C27      C        0.81850    0.77270    0.21890    1.000
    C28      C        0.72660    0.79429    0.15251    1.000
    C29      C        0.84320    0.81840    0.29640    1.000
    C30      C        0.63240    0.87010    0.14270    1.000
    C31      C        0.39870    0.78589    0.29951    1.000
    C32      C        0.30380    0.91635    0.32965    1.000
    C33      C        0.29060    0.98936    0.38004    1.000
    C34      C        0.88230    0.26000    0.34000    1.000
    C35      C        0.39760    0.85152    0.35028    1.000
    C36      C        0.93190    0.30659    0.29281    1.000
    C37      C        0.69760    0.25167    0.34673    1.000
    C38      C        0.63500    0.20160    0.39660    1.000
    C39      C        0.03410    0.21938    0.38162    1.000
    C40      C        0.50200    0.85200    0.42460    1.000
    C41      C        0.22120    0.91213    0.25827    1.000
    C42      C        0.31850    0.78110    0.22730    1.000
    C43      C        0.22660    0.84749    0.20571    1.000
    C44      C        0.34320    0.70360    0.18160    1.000
    C45      C        0.13240    0.85730    0.12990    1.000
    C46      C        0.10130    0.29951    0.78589    1.000
    C47      C        0.19620    0.32965    0.91635    1.000
    C48      C        0.20940    0.38004    0.98936    1.000
    C49      C        0.61770    0.34000    0.26000    1.000
    C50      C        0.10240    0.35028    0.85152    1.000
    C51      C        0.56810    0.29281    0.30659    1.000
    C52      C        0.80240    0.34673    0.25167    1.000
    C53      C        0.86500    0.39660    0.20160    1.000
    C54      C        0.46590    0.38162    0.21938    1.000
    C55      C        0.99800    0.42460    0.85200    1.000
    C56      C        0.27880    0.25827    0.91213    1.000
    C57      C        0.18150    0.22730    0.78110    1.000
    C58      C        0.27340    0.20571    0.84749    1.000
    C59      C        0.15680    0.18160    0.70360    1.000
    C60      C        0.36760    0.12990    0.85730    1.000
    O1       O        0.59990    0.96251    0.62851    1.000
    O2       O        0.71090    0.30770    0.88694    1.000
    O3       O        0.88440    0.74603    0.56197    1.000
    O4       O        0.42600    0.20716    0.55530    1.000
    O5       O        0.91950    0.84775    0.64253    1.000
    O6       O        0.83160    0.99567    0.57711    1.000
    O7       O        0.25500    0.83060    0.56280    1.000
    O8       O        0.47480    0.08545    0.53391    1.000
    O9       O        0.53510    0.80470    0.61108    1.000
    O10      O        0.57940    0.34679    0.78681    1.000
    O11      O        0.86540    0.19724    0.92436    1.000
    O12      O        0.94990    0.08305    0.87715    1.000
    O13      O        0.90010    0.62851    0.96251    1.000
    O14      O        0.78910    0.88694    0.30770    1.000
    O15      O        0.61560    0.56197    0.74603    1.000
    O16      O        0.07400    0.55530    0.20716    1.000
    O17      O        0.58050    0.64253    0.84775    1.000
    O18      O        0.66840    0.57711    0.99567    1.000
    O19      O        0.24500    0.56280    0.83060    1.000
    O20      O        0.02520    0.53391    0.08545    1.000
    O21      O        0.96490    0.61108    0.80470    1.000
    O22      O        0.92060    0.78681    0.34679    1.000
    O23      O        0.63460    0.92436    0.19724    1.000
    O24      O        0.55010    0.87715    0.08305    1.000
    O25      O        0.40010    0.03749    0.37149    1.000
    O26      O        0.28910    0.69230    0.11306    1.000
    O27      O        0.11560    0.25397    0.43803    1.000
    O28      O        0.57400    0.79284    0.44470    1.000
    O29      O        0.08050    0.15225    0.35747    1.000
    O30      O        0.16840    0.00433    0.42289    1.000
    O31      O        0.74500    0.16940    0.43720    1.000
    O32      O        0.52520    0.91455    0.46609    1.000
    O33      O        0.46490    0.19530    0.38892    1.000
    O34      O        0.42060    0.65321    0.21319    1.000
    O35      O        0.13460    0.80276    0.07564    1.000
    O36      O        0.05010    0.91695    0.12285    1.000
    O37      O        0.09990    0.37149    0.03749    1.000
    O38      O        0.21090    0.11306    0.69230    1.000
    O39      O        0.38440    0.43803    0.25397    1.000
    O40      O        0.92600    0.44470    0.79284    1.000
    O41      O        0.41950    0.35747    0.15225    1.000
    O42      O        0.33160    0.42289    0.00433    1.000
    O43      O        0.75500    0.43720    0.16940    1.000
    O44      O        0.97480    0.46609    0.91455    1.000
    O45      O        0.03510    0.38892    0.19530    1.000
    O46      O        0.07940    0.21319    0.65321    1.000
    O47      O        0.36540    0.07564    0.80276    1.000
    O48      O        0.44990    0.12285    0.91695    1.000
