data_functionalizedCrystal
_audit_creation_method	'EQeq! by Chris Wilmer'
_symmetry_space_group_name_H-M	'P1'
_symmetry_Int_Tables_number	1
_symmetry_cell_setting	triclinic
loop_
_symmetry_equiv_pos_as_xyz
  x,y,z
_cell_length_a	29.608
_cell_length_b	29.608
_cell_length_c	18.158
_cell_angle_alpha	90
_cell_angle_beta	90
_cell_angle_gamma	120
loop_
_atom_site_label
_atom_site_type_symbol
_atom_site_fract_x
_atom_site_fract_y
_atom_site_fract_z
_atom_site_charge
Mof_Zn	Zn	0.62572	0.85443	0.5217	1.21
Mof_N 	N 	0.63578	0.89499	0.42459	-0.254
Mof_N 	N 	0.5988	0.79368	0.44659	-0.25
Mof_N 	N 	0.58255	0.77135	0.33025	-0.175
Mof_O 	O 	0.47532	0.49313	0.24123	-0.459
Mof_O 	O 	0.45216	0.52788	0.14993	-0.321
Mof_O 	O 	0.58095	0.63218	0.74761	-0.377
Mof_O 	O 	0.49635	0.5907	0.72999	-0.42
Mof_C 	C 	0.6522	0.94585	0.4177	0.077
Mof_H 	H 	0.6609	0.9666	0.4609	0
Mof_C 	C 	0.6572	0.96944	0.3504	-0.122
Mof_H 	H 	0.6691	0.0057	0.3475	0.083
Mof_C 	C 	0.6446	0.93965	0.2878	0.042
Mof_H 	H 	0.6477	0.9552	0.2409	0.021
Mof_C 	C 	0.6273	0.88676	0.2933	-0.105
Mof_H 	H 	0.6186	0.8654	0.2507	0.072
Mof_C 	C 	0.62316	0.86609	0.3629	0.042
Mof_C 	C 	0.60265	0.81091	0.37852	0.075
Mof_C 	C 	0.57537	0.74056	0.4426	0.033
Mof_C 	C 	0.56454	0.72549	0.36948	0.024
Mof_C 	C 	0.54021	0.67518	0.3311	0.056
Mof_C 	C 	0.51611	0.66986	0.2625	-0.114
Mof_H 	H 	0.5153	0.6988	0.2416	0.084
Mof_C 	C 	0.49384	0.62339	0.2253	0.044
Mof_H 	H 	0.4781	0.6208	0.1787	0.028
Mof_C 	C 	0.49382	0.57999	0.25438	-0.118
Mof_C 	C 	0.51711	0.58478	0.3233	0.041
Mof_H 	H 	0.5167	0.5553	0.3448	0.031
Mof_C 	C 	0.5406	0.63165	0.3603	-0.114
Mof_H 	H 	0.5573	0.6345	0.4061	0.073
Mof_C 	C 	0.47143	0.53028	0.21151	0.348
Mof_C 	C 	0.56469	0.70977	0.51073	0.023
Mof_C 	C 	0.60254	0.7289	0.5656	-0.09
Mof_H 	H 	0.6342	0.7608	0.5584	0.049
Mof_C 	C 	0.5942	0.70152	0.6308	0.019
Mof_H 	H 	0.6202	0.7149	0.668	0.035
Mof_C 	C 	0.54873	0.6553	0.6422	-0.084
Mof_C 	C 	0.5098	0.6363	0.5885	0.017
Mof_H 	H 	0.4778	0.6049	0.5969	0.043
Mof_C 	C 	0.5178	0.66323	0.5228	-0.085
Mof_H 	H 	0.4914	0.6501	0.4861	0.063
Mof_C 	C 	0.54192	0.6247	0.7112	0.304
Mof_H 	H 	0.5853	0.7753	0.277	0.13
Mof_Zn	Zn	0.29239	0.18776	0.85503	1.211
Mof_N 	N 	0.30245	0.22832	0.75792	-0.253
Mof_N 	N 	0.26547	0.12701	0.77992	-0.249
Mof_N 	N 	0.24922	0.10468	0.66358	-0.174
Mof_O 	O 	0.14199	0.82646	0.57456	-0.458
Mof_O 	O 	0.11883	0.86121	0.48326	-0.32
Mof_O 	O 	0.24762	0.96551	0.08094	-0.377
Mof_O 	O 	0.16302	0.92403	0.06332	-0.419
Mof_C 	C 	0.31887	0.27918	0.75103	0.079
Mof_H 	H 	0.32757	0.29993	0.79423	0
Mof_C 	C 	0.32387	0.30277	0.68373	-0.122
Mof_H 	H 	0.33577	0.33903	0.68083	0.085
Mof_C 	C 	0.31127	0.27298	0.62113	0.044
Mof_H 	H 	0.31437	0.28853	0.57423	0.021
Mof_C 	C 	0.29397	0.22009	0.62663	-0.104
Mof_H 	H 	0.28527	0.19873	0.58403	0.073
Mof_C 	C 	0.28983	0.19942	0.69623	0.043
Mof_C 	C 	0.26932	0.14424	0.71185	0.076
Mof_C 	C 	0.24204	0.07389	0.77593	0.034
Mof_C 	C 	0.23121	0.05882	0.70281	0.025
Mof_C 	C 	0.20688	0.00851	0.66443	0.057
Mof_C 	C 	0.18278	0.00319	0.59583	-0.113
Mof_H 	H 	0.18197	0.03213	0.57493	0.084
Mof_C 	C 	0.16051	0.95672	0.55863	0.044
Mof_H 	H 	0.14477	0.95413	0.51203	0.028
Mof_C 	C 	0.16049	0.91332	0.58771	-0.118
Mof_C 	C 	0.18378	0.91811	0.65663	0.041
Mof_H 	H 	0.18337	0.88863	0.67813	0.031
Mof_C 	C 	0.20727	0.96498	0.69363	-0.114
Mof_H 	H 	0.22397	0.96783	0.73943	0.073
Mof_C 	C 	0.1381	0.86361	0.54484	0.348
Mof_C 	C 	0.23136	0.0431	0.84406	0.025
Mof_C 	C 	0.26921	0.06223	0.89893	-0.092
Mof_H 	H 	0.30087	0.09413	0.89173	0.049
Mof_C 	C 	0.26087	0.03485	0.96413	0.022
Mof_H 	H 	0.28687	0.04823	0.00133	0.033
Mof_C 	C 	0.2154	0.98863	0.97553	-0.087
Mof_C 	C 	0.17647	0.96963	0.92183	0.019
Mof_H 	H 	0.14447	0.93823	0.93023	0.042
Mof_C 	C 	0.18447	0.99656	0.85613	-0.088
Mof_H 	H 	0.15807	0.98343	0.81943	0.064
Mof_C 	C 	0.20859	0.95803	0.04453	0.306
Mof_H 	H 	0.25197	0.10863	0.61033	0.13
Mof_Zn	Zn	0.95905	0.5211	0.18837	1.211
Mof_N 	N 	0.96911	0.56166	0.09126	-0.253
Mof_N 	N 	0.93213	0.46035	0.11326	-0.249
Mof_N 	N 	0.91588	0.43802	0.99692	-0.173
Mof_O 	O 	0.80865	0.1598	0.9079	-0.458
Mof_O 	O 	0.78549	0.19455	0.8166	-0.32
Mof_O 	O 	0.91428	0.29885	0.41428	-0.376
Mof_O 	O 	0.82968	0.25737	0.39666	-0.419
Mof_C 	C 	0.98553	0.61252	0.08437	0.08
Mof_H 	H 	0.99423	0.63327	0.12757	-0
Mof_C 	C 	0.99053	0.63611	0.01707	-0.124
Mof_H 	H 	0.00243	0.67237	0.01417	0.086
Mof_C 	C 	0.97793	0.60632	0.95447	0.045
Mof_H 	H 	0.98103	0.62187	0.90757	0.021
Mof_C 	C 	0.96063	0.55343	0.95997	-0.104
Mof_H 	H 	0.95193	0.53207	0.91737	0.074
Mof_C 	C 	0.95649	0.53276	0.02957	0.043
Mof_C 	C 	0.93598	0.47758	0.04519	0.076
Mof_C 	C 	0.9087	0.40723	0.10927	0.035
Mof_C 	C 	0.89787	0.39216	0.03615	0.023
Mof_C 	C 	0.87354	0.34185	0.99777	0.06
Mof_C 	C 	0.84944	0.33653	0.92917	-0.115
Mof_H 	H 	0.84863	0.36547	0.90827	0.084
Mof_C 	C 	0.82717	0.29006	0.89197	0.046
Mof_H 	H 	0.81143	0.28747	0.84537	0.027
Mof_C 	C 	0.82715	0.24666	0.92105	-0.12
Mof_C 	C 	0.85044	0.25145	0.98997	0.046
Mof_H 	H 	0.85003	0.22197	0.01147	0.029
Mof_C 	C 	0.87393	0.29832	0.02697	-0.118
Mof_H 	H 	0.89063	0.30117	0.07277	0.074
Mof_C 	C 	0.80476	0.19695	0.87818	0.349
Mof_C 	C 	0.89802	0.37644	0.1774	0.023
Mof_C 	C 	0.93587	0.39557	0.23227	-0.09
Mof_H 	H 	0.96753	0.42747	0.22507	0.049
Mof_C 	C 	0.92753	0.36819	0.29747	0.018
Mof_H 	H 	0.95353	0.38157	0.33467	0.035
Mof_C 	C 	0.88206	0.32197	0.30887	-0.083
Mof_C 	C 	0.84313	0.30297	0.25517	0.017
Mof_H 	H 	0.81113	0.27157	0.26357	0.043
Mof_C 	C 	0.85113	0.3299	0.18947	-0.085
Mof_H 	H 	0.82473	0.31677	0.15277	0.063
Mof_C 	C 	0.87525	0.29137	0.37787	0.304
Mof_H 	H 	0.91863	0.44197	0.94367	0.13
Mof_Zn	Zn	0.14557	0.77129	0.5217	1.211
Mof_N 	N 	0.10501	0.74079	0.42459	-0.253
Mof_N 	N 	0.20632	0.80512	0.44659	-0.249
Mof_N 	N 	0.22865	0.8112	0.33025	-0.174
Mof_O 	O 	0.50687	0.98219	0.24123	-0.458
Mof_O 	O 	0.47212	0.92428	0.14993	-0.32
Mof_O 	O 	0.36782	0.94877	0.74761	-0.377
Mof_O 	O 	0.4093	0.90565	0.72999	-0.419
Mof_C 	C 	0.05415	0.70635	0.4177	0.078
Mof_H 	H 	0.0334	0.6943	0.4609	0.001
Mof_C 	C 	0.03056	0.68776	0.3504	-0.121
Mof_H 	H 	0.9943	0.6634	0.3475	0.084
Mof_C 	C 	0.06035	0.70495	0.2878	0.043
Mof_H 	H 	0.0448	0.6925	0.2409	0.022
Mof_C 	C 	0.11324	0.74054	0.2933	-0.104
Mof_H 	H 	0.1346	0.7532	0.2507	0.073
Mof_C 	C 	0.13391	0.75707	0.3629	0.043
Mof_C 	C 	0.18909	0.79174	0.37852	0.076
Mof_C 	C 	0.25944	0.83481	0.4426	0.034
Mof_C 	C 	0.27451	0.83905	0.36948	0.025
Mof_C 	C 	0.32482	0.86503	0.3311	0.057
Mof_C 	C 	0.33014	0.84625	0.2625	-0.113
Mof_H 	H 	0.3012	0.8165	0.2416	0.084
Mof_C 	C 	0.37661	0.87045	0.2253	0.044
Mof_H 	H 	0.3792	0.8573	0.1787	0.028
Mof_C 	C 	0.42001	0.91383	0.25438	-0.118
Mof_C 	C 	0.41522	0.93233	0.3233	0.041
Mof_H 	H 	0.4447	0.9614	0.3448	0.031
Mof_C 	C 	0.36835	0.90895	0.3603	-0.114
Mof_H 	H 	0.3655	0.9228	0.4061	0.073
Mof_C 	C 	0.46972	0.94115	0.21151	0.348
Mof_C 	C 	0.29023	0.85492	0.51073	0.023
Mof_C 	C 	0.2711	0.87364	0.5656	-0.09
Mof_H 	H 	0.2392	0.8734	0.5584	0.049
Mof_C 	C 	0.29848	0.89268	0.6308	0.019
Mof_H 	H 	0.2851	0.9053	0.668	0.035
Mof_C 	C 	0.3447	0.89343	0.6422	-0.084
Mof_C 	C 	0.3637	0.8735	0.5885	0.017
Mof_H 	H 	0.3951	0.8729	0.5969	0.043
Mof_C 	C 	0.33677	0.85457	0.5228	-0.085
Mof_H 	H 	0.3499	0.8413	0.4861	0.063
Mof_C 	C 	0.3753	0.91722	0.7112	0.304
Mof_H 	H 	0.2247	0.81	0.277	0.13
Mof_Zn	Zn	0.81224	0.10462	0.85503	1.211
Mof_N 	N 	0.77168	0.07412	0.75792	-0.253
Mof_N 	N 	0.87299	0.13845	0.77992	-0.249
Mof_N 	N 	0.89532	0.14453	0.66358	-0.174
Mof_O 	O 	0.17354	0.31552	0.57456	-0.458
Mof_O 	O 	0.13879	0.25761	0.48326	-0.32
Mof_O 	O 	0.03449	0.2821	0.08094	-0.377
Mof_O 	O 	0.07597	0.23898	0.06332	-0.419
Mof_C 	C 	0.72082	0.03968	0.75103	0.078
Mof_H 	H 	0.70007	0.02763	0.79423	0.001
Mof_C 	C 	0.69723	0.02109	0.68373	-0.121
Mof_H 	H 	0.66097	0.99673	0.68083	0.084
Mof_C 	C 	0.72702	0.03828	0.62113	0.043
Mof_H 	H 	0.71147	0.02583	0.57423	0.022
Mof_C 	C 	0.77991	0.07387	0.62663	-0.104
Mof_H 	H 	0.80127	0.08653	0.58403	0.073
Mof_C 	C 	0.80058	0.0904	0.69623	0.043
Mof_C 	C 	0.85576	0.12507	0.71185	0.076
Mof_C 	C 	0.92611	0.16814	0.77593	0.034
Mof_C 	C 	0.94118	0.17238	0.70281	0.025
Mof_C 	C 	0.99149	0.19836	0.66443	0.057
Mof_C 	C 	0.99681	0.17958	0.59583	-0.113
Mof_H 	H 	0.96787	0.14983	0.57493	0.084
Mof_C 	C 	0.04328	0.20378	0.55863	0.044
Mof_H 	H 	0.04587	0.19063	0.51203	0.028
Mof_C 	C 	0.08668	0.24716	0.58771	-0.118
Mof_C 	C 	0.08189	0.26566	0.65663	0.041
Mof_H 	H 	0.11137	0.29473	0.67813	0.031
Mof_C 	C 	0.03502	0.24228	0.69363	-0.114
Mof_H 	H 	0.03217	0.25613	0.73943	0.073
Mof_C 	C 	0.13639	0.27448	0.54484	0.348
Mof_C 	C 	0.9569	0.18825	0.84406	0.025
Mof_C 	C 	0.93777	0.20697	0.89893	-0.093
Mof_H 	H 	0.90587	0.20673	0.89173	0.05
Mof_C 	C 	0.96515	0.22601	0.96413	0.023
Mof_H 	H 	0.95177	0.23863	0.00133	0.033
Mof_C 	C 	0.01137	0.22676	0.97553	-0.086
Mof_C 	C 	0.03037	0.20683	0.92183	0.019
Mof_H 	H 	0.06177	0.20623	0.93023	0.042
Mof_C 	C 	0.00344	0.1879	0.85613	-0.088
Mof_H 	H 	0.01657	0.17463	0.81943	0.064
Mof_C 	C 	0.04197	0.25055	0.04453	0.305
Mof_H 	H 	0.89137	0.14333	0.61033	0.13
Mof_Zn	Zn	0.4789	0.43796	0.18837	1.211
Mof_N 	N 	0.43834	0.40746	0.09126	-0.253
Mof_N 	N 	0.53965	0.47179	0.11326	-0.249
Mof_N 	N 	0.56198	0.47787	0.99692	-0.174
Mof_O 	O 	0.8402	0.64886	0.9079	-0.458
Mof_O 	O 	0.80545	0.59095	0.8166	-0.32
Mof_O 	O 	0.70115	0.61544	0.41428	-0.376
Mof_O 	O 	0.74263	0.57232	0.39666	-0.419
Mof_C 	C 	0.38748	0.37302	0.08437	0.079
Mof_H 	H 	0.36673	0.36097	0.12757	0
Mof_C 	C 	0.36389	0.35443	0.01707	-0.122
Mof_H 	H 	0.32763	0.33007	0.01417	0.085
Mof_C 	C 	0.39368	0.37162	0.95447	0.044
Mof_H 	H 	0.37813	0.35917	0.90757	0.021
Mof_C 	C 	0.44657	0.40721	0.95997	-0.104
Mof_H 	H 	0.46793	0.41987	0.91737	0.073
Mof_C 	C 	0.46724	0.42374	0.02957	0.043
Mof_C 	C 	0.52242	0.45841	0.04519	0.076
Mof_C 	C 	0.59277	0.50148	0.10927	0.034
Mof_C 	C 	0.60784	0.50572	0.03615	0.025
Mof_C 	C 	0.65815	0.5317	0.99777	0.058
Mof_C 	C 	0.66347	0.51292	0.92917	-0.113
Mof_H 	H 	0.63453	0.48317	0.90827	0.084
Mof_C 	C 	0.70994	0.53712	0.89197	0.045
Mof_H 	H 	0.71253	0.52397	0.84537	0.028
Mof_C 	C 	0.75334	0.5805	0.92105	-0.119
Mof_C 	C 	0.74855	0.599	0.98997	0.042
Mof_H 	H 	0.77803	0.62807	0.01147	0.03
Mof_C 	C 	0.70168	0.57562	0.02697	-0.115
Mof_H 	H 	0.69883	0.58947	0.07277	0.073
Mof_C 	C 	0.80305	0.60782	0.87818	0.348
Mof_C 	C 	0.62356	0.52159	0.1774	0.023
Mof_C 	C 	0.60443	0.54031	0.23227	-0.09
Mof_H 	H 	0.57253	0.54007	0.22507	0.049
Mof_C 	C 	0.63181	0.55935	0.29747	0.019
Mof_H 	H 	0.61843	0.57197	0.33467	0.035
Mof_C 	C 	0.67803	0.5601	0.30887	-0.083
Mof_C 	C 	0.69703	0.54017	0.25517	0.017
Mof_H 	H 	0.72843	0.53957	0.26357	0.043
Mof_C 	C 	0.6701	0.52124	0.18947	-0.085
Mof_H 	H 	0.68323	0.50797	0.15277	0.063
Mof_C 	C 	0.70863	0.58389	0.37787	0.304
Mof_H 	H 	0.55803	0.47667	0.94367	0.13
Mof_Zn	Zn	0.22871	0.37428	0.5217	1.211
Mof_N 	N 	0.25921	0.36422	0.42459	-0.253
Mof_N 	N 	0.19488	0.4012	0.44659	-0.249
Mof_N 	N 	0.1888	0.41745	0.33025	-0.174
Mof_O 	O 	0.01781	0.52468	0.24123	-0.458
Mof_O 	O 	0.07572	0.54784	0.14993	-0.32
Mof_O 	O 	0.05123	0.41905	0.74761	-0.377
Mof_O 	O 	0.09435	0.50365	0.72999	-0.419
Mof_C 	C 	0.29365	0.3478	0.4177	0.079
Mof_H 	H 	0.3057	0.3391	0.4609	0
Mof_C 	C 	0.31224	0.3428	0.3504	-0.122
Mof_H 	H 	0.3366	0.3309	0.3475	0.085
Mof_C 	C 	0.29505	0.3554	0.2878	0.044
Mof_H 	H 	0.3075	0.3523	0.2409	0.021
Mof_C 	C 	0.25946	0.3727	0.2933	-0.104
Mof_H 	H 	0.2468	0.3814	0.2507	0.073
Mof_C 	C 	0.24293	0.37684	0.3629	0.043
Mof_C 	C 	0.20826	0.39735	0.37852	0.076
Mof_C 	C 	0.16519	0.42463	0.4426	0.034
Mof_C 	C 	0.16095	0.43546	0.36948	0.025
Mof_C 	C 	0.13497	0.45979	0.3311	0.057
Mof_C 	C 	0.15375	0.48389	0.2625	-0.113
Mof_H 	H 	0.1835	0.4847	0.2416	0.084
Mof_C 	C 	0.12955	0.50616	0.2253	0.044
Mof_H 	H 	0.1427	0.5219	0.1787	0.028
Mof_C 	C 	0.08617	0.50618	0.25438	-0.118
Mof_C 	C 	0.06767	0.48289	0.3233	0.041
Mof_H 	H 	0.0386	0.4833	0.3448	0.031
Mof_C 	C 	0.09105	0.4594	0.3603	-0.114
Mof_H 	H 	0.0772	0.4427	0.4061	0.073
Mof_C 	C 	0.05885	0.52857	0.21151	0.348
Mof_C 	C 	0.14508	0.43531	0.51073	0.023
Mof_C 	C 	0.12636	0.39746	0.5656	-0.09
Mof_H 	H 	0.1266	0.3658	0.5584	0.049
Mof_C 	C 	0.10732	0.4058	0.6308	0.019
Mof_H 	H 	0.0947	0.3798	0.668	0.035
Mof_C 	C 	0.10657	0.45127	0.6422	-0.084
Mof_C 	C 	0.1265	0.4902	0.5885	0.017
Mof_H 	H 	0.1271	0.5222	0.5969	0.043
Mof_C 	C 	0.14543	0.4822	0.5228	-0.085
Mof_H 	H 	0.1587	0.5086	0.4861	0.063
Mof_C 	C 	0.08278	0.45808	0.7112	0.304
Mof_H 	H 	0.19	0.4147	0.277	0.13
Mof_Zn	Zn	0.89538	0.70761	0.85503	1.211
Mof_N 	N 	0.92588	0.69755	0.75792	-0.253
Mof_N 	N 	0.86155	0.73453	0.77992	-0.249
Mof_N 	N 	0.85547	0.75078	0.66358	-0.174
Mof_O 	O 	0.68448	0.85801	0.57456	-0.458
Mof_O 	O 	0.74239	0.88117	0.48326	-0.32
Mof_O 	O 	0.7179	0.75238	0.08094	-0.376
Mof_O 	O 	0.76102	0.83698	0.06332	-0.419
Mof_C 	C 	0.96032	0.68113	0.75103	0.078
Mof_H 	H 	0.97237	0.67243	0.79423	0.001
Mof_C 	C 	0.97891	0.67613	0.68373	-0.121
Mof_H 	H 	0.00327	0.66423	0.68083	0.084
Mof_C 	C 	0.96172	0.68873	0.62113	0.043
Mof_H 	H 	0.97417	0.68563	0.57423	0.022
Mof_C 	C 	0.92613	0.70603	0.62663	-0.104
Mof_H 	H 	0.91347	0.71473	0.58403	0.073
Mof_C 	C 	0.9096	0.71017	0.69623	0.043
Mof_C 	C 	0.87493	0.73068	0.71185	0.076
Mof_C 	C 	0.83186	0.75796	0.77593	0.034
Mof_C 	C 	0.82762	0.76879	0.70281	0.025
Mof_C 	C 	0.80164	0.79312	0.66443	0.057
Mof_C 	C 	0.82042	0.81722	0.59583	-0.113
Mof_H 	H 	0.85017	0.81803	0.57493	0.084
Mof_C 	C 	0.79622	0.83949	0.55863	0.044
Mof_H 	H 	0.80937	0.85523	0.51203	0.028
Mof_C 	C 	0.75284	0.83951	0.58771	-0.118
Mof_C 	C 	0.73434	0.81622	0.65663	0.041
Mof_H 	H 	0.70527	0.81663	0.67813	0.031
Mof_C 	C 	0.75772	0.79273	0.69363	-0.114
Mof_H 	H 	0.74387	0.77603	0.73943	0.073
Mof_C 	C 	0.72552	0.8619	0.54484	0.348
Mof_C 	C 	0.81175	0.76864	0.84406	0.024
Mof_C 	C 	0.79303	0.73079	0.89893	-0.091
Mof_H 	H 	0.79327	0.69913	0.89173	0.049
Mof_C 	C 	0.77399	0.73913	0.96413	0.019
Mof_H 	H 	0.76137	0.71313	0.00133	0.035
Mof_C 	C 	0.77324	0.7846	0.97553	-0.084
Mof_C 	C 	0.79317	0.82353	0.92183	0.017
Mof_H 	H 	0.79377	0.85553	0.93023	0.043
Mof_C 	C 	0.8121	0.81553	0.85613	-0.086
Mof_H 	H 	0.82537	0.84193	0.81943	0.063
Mof_C 	C 	0.74945	0.79141	0.04453	0.304
Mof_H 	H 	0.85667	0.74803	0.61033	0.13
Mof_Zn	Zn	0.56204	0.04095	0.18837	1.211
Mof_N 	N 	0.59254	0.03089	0.09126	-0.253
Mof_N 	N 	0.52821	0.06787	0.11326	-0.249
Mof_N 	N 	0.52213	0.08412	0.99692	-0.173
Mof_O 	O 	0.35114	0.19135	0.9079	-0.458
Mof_O 	O 	0.40905	0.21451	0.8166	-0.32
Mof_O 	O 	0.38456	0.08572	0.41428	-0.376
Mof_O 	O 	0.42768	0.17032	0.39666	-0.419
Mof_C 	C 	0.62698	0.01447	0.08437	0.08
Mof_H 	H 	0.63903	0.00577	0.12757	-0
Mof_C 	C 	0.64557	0.00947	0.01707	-0.125
Mof_H 	H 	0.66993	0.99757	0.01417	0.086
Mof_C 	C 	0.62838	0.02207	0.95447	0.046
Mof_H 	H 	0.64083	0.01897	0.90757	0.021
Mof_C 	C 	0.59279	0.03937	0.95997	-0.104
Mof_H 	H 	0.58013	0.04807	0.91737	0.074
Mof_C 	C 	0.57626	0.04351	0.02957	0.043
Mof_C 	C 	0.54159	0.06402	0.04519	0.076
Mof_C 	C 	0.49852	0.0913	0.10927	0.035
Mof_C 	C 	0.49428	0.10213	0.03615	0.024
Mof_C 	C 	0.4683	0.12646	0.99777	0.059
Mof_C 	C 	0.48708	0.15056	0.92917	-0.114
Mof_H 	H 	0.51683	0.15137	0.90827	0.084
Mof_C 	C 	0.46288	0.17283	0.89197	0.045
Mof_H 	H 	0.47603	0.18857	0.84537	0.028
Mof_C 	C 	0.4195	0.17285	0.92105	-0.119
Mof_C 	C 	0.401	0.14956	0.98997	0.043
Mof_H 	H 	0.37193	0.14997	0.01147	0.03
Mof_C 	C 	0.42438	0.12607	0.02697	-0.116
Mof_H 	H 	0.41053	0.10937	0.07277	0.073
Mof_C 	C 	0.39218	0.19524	0.87818	0.348
Mof_C 	C 	0.47841	0.10198	0.1774	0.023
Mof_C 	C 	0.45969	0.06413	0.23227	-0.09
Mof_H 	H 	0.45993	0.03247	0.22507	0.049
Mof_C 	C 	0.44065	0.07247	0.29747	0.019
Mof_H 	H 	0.42803	0.04647	0.33467	0.035
Mof_C 	C 	0.4399	0.11794	0.30887	-0.083
Mof_C 	C 	0.45983	0.15687	0.25517	0.017
Mof_H 	H 	0.46043	0.18887	0.26357	0.043
Mof_C 	C 	0.47876	0.14887	0.18947	-0.085
Mof_H 	H 	0.49203	0.17527	0.15277	0.063
Mof_C 	C 	0.41611	0.12475	0.37787	0.304
Mof_H 	H 	0.52333	0.08137	0.94367	0.13
Mof_Zn	Zn	0.37428	0.14557	0.4783	1.211
Mof_N 	N 	0.36422	0.10501	0.57541	-0.253
Mof_N 	N 	0.4012	0.20632	0.55341	-0.249
Mof_N 	N 	0.41745	0.22865	0.66975	-0.174
Mof_O 	O 	0.52468	0.50687	0.75877	-0.458
Mof_O 	O 	0.54784	0.47212	0.85007	-0.32
Mof_O 	O 	0.41905	0.36782	0.25239	-0.376
Mof_O 	O 	0.50365	0.4093	0.27001	-0.419
Mof_C 	C 	0.3478	0.05415	0.5823	0.078
Mof_H 	H 	0.3391	0.0334	0.5391	0.001
Mof_C 	C 	0.3428	0.03056	0.6496	-0.121
Mof_H 	H 	0.3309	0.9943	0.6525	0.084
Mof_C 	C 	0.3554	0.06035	0.7122	0.043
Mof_H 	H 	0.3523	0.0448	0.7591	0.022
Mof_C 	C 	0.3727	0.11324	0.7067	-0.104
Mof_H 	H 	0.3814	0.1346	0.7493	0.073
Mof_C 	C 	0.37684	0.13391	0.6371	0.043
Mof_C 	C 	0.39735	0.18909	0.62148	0.076
Mof_C 	C 	0.42463	0.25944	0.5574	0.034
Mof_C 	C 	0.43546	0.27451	0.63052	0.025
Mof_C 	C 	0.45979	0.32482	0.6689	0.057
Mof_C 	C 	0.48389	0.33014	0.7375	-0.113
Mof_H 	H 	0.4847	0.3012	0.7584	0.084
Mof_C 	C 	0.50616	0.37661	0.7747	0.044
Mof_H 	H 	0.5219	0.3792	0.8213	0.028
Mof_C 	C 	0.50618	0.42001	0.74562	-0.118
Mof_C 	C 	0.48289	0.41522	0.6767	0.041
Mof_H 	H 	0.4833	0.4447	0.6552	0.031
Mof_C 	C 	0.4594	0.36835	0.6397	-0.114
Mof_H 	H 	0.4427	0.3655	0.5939	0.073
Mof_C 	C 	0.52857	0.46972	0.78849	0.348
Mof_C 	C 	0.43531	0.29023	0.48927	0.023
Mof_C 	C 	0.39746	0.2711	0.4344	-0.09
Mof_H 	H 	0.3658	0.2392	0.4416	0.049
Mof_C 	C 	0.4058	0.29848	0.3692	0.019
Mof_H 	H 	0.3798	0.2851	0.332	0.035
Mof_C 	C 	0.45127	0.3447	0.3578	-0.084
Mof_C 	C 	0.4902	0.3637	0.4115	0.017
Mof_H 	H 	0.5222	0.3951	0.4031	0.043
Mof_C 	C 	0.4822	0.33677	0.4772	-0.085
Mof_H 	H 	0.5086	0.3499	0.5139	0.063
Mof_C 	C 	0.45808	0.3753	0.2888	0.304
Mof_H 	H 	0.4147	0.2247	0.723	0.13
Mof_Zn	Zn	0.04095	0.4789	0.81163	1.211
Mof_N 	N 	0.03089	0.43834	0.90874	-0.253
Mof_N 	N 	0.06787	0.53965	0.88674	-0.249
Mof_N 	N 	0.08412	0.56198	0.00308	-0.173
Mof_O 	O 	0.19135	0.8402	0.0921	-0.458
Mof_O 	O 	0.21451	0.80545	0.1834	-0.32
Mof_O 	O 	0.08572	0.70115	0.58572	-0.376
Mof_O 	O 	0.17032	0.74263	0.60334	-0.419
Mof_C 	C 	0.01447	0.38748	0.91563	0.08
Mof_H 	H 	0.00577	0.36673	0.87243	-0
Mof_C 	C 	0.00947	0.36389	0.98293	-0.124
Mof_H 	H 	0.99757	0.32763	0.98583	0.086
Mof_C 	C 	0.02207	0.39368	0.04553	0.045
Mof_H 	H 	0.01897	0.37813	0.09243	0.021
Mof_C 	C 	0.03937	0.44657	0.04003	-0.104
Mof_H 	H 	0.04807	0.46793	0.08263	0.074
Mof_C 	C 	0.04351	0.46724	0.97043	0.043
Mof_C 	C 	0.06402	0.52242	0.95481	0.076
Mof_C 	C 	0.0913	0.59277	0.89073	0.035
Mof_C 	C 	0.10213	0.60784	0.96385	0.023
Mof_C 	C 	0.12646	0.65815	0.00223	0.06
Mof_C 	C 	0.15056	0.66347	0.07083	-0.115
Mof_H 	H 	0.15137	0.63453	0.09173	0.084
Mof_C 	C 	0.17283	0.70994	0.10803	0.046
Mof_H 	H 	0.18857	0.71253	0.15463	0.027
Mof_C 	C 	0.17285	0.75334	0.07895	-0.12
Mof_C 	C 	0.14956	0.74855	0.01003	0.046
Mof_H 	H 	0.14997	0.77803	0.98853	0.029
Mof_C 	C 	0.12607	0.70168	0.97303	-0.118
Mof_H 	H 	0.10937	0.69883	0.92723	0.074
Mof_C 	C 	0.19524	0.80305	0.12182	0.349
Mof_C 	C 	0.10198	0.62356	0.8226	0.023
Mof_C 	C 	0.06413	0.60443	0.76773	-0.09
Mof_H 	H 	0.03247	0.57253	0.77493	0.049
Mof_C 	C 	0.07247	0.63181	0.70253	0.018
Mof_H 	H 	0.04647	0.61843	0.66533	0.035
Mof_C 	C 	0.11794	0.67803	0.69113	-0.083
Mof_C 	C 	0.15687	0.69703	0.74483	0.017
Mof_H 	H 	0.18887	0.72843	0.73643	0.043
Mof_C 	C 	0.14887	0.6701	0.81053	-0.085
Mof_H 	H 	0.17527	0.68323	0.84723	0.063
Mof_C 	C 	0.12475	0.70863	0.62213	0.304
Mof_H 	H 	0.08137	0.55803	0.05633	0.13
Mof_Zn	Zn	0.70761	0.81224	0.14497	1.211
Mof_N 	N 	0.69755	0.77168	0.24208	-0.253
Mof_N 	N 	0.73453	0.87299	0.22008	-0.249
Mof_N 	N 	0.75078	0.89532	0.33642	-0.174
Mof_O 	O 	0.85801	0.17354	0.42544	-0.458
Mof_O 	O 	0.88117	0.13879	0.51674	-0.32
Mof_O 	O 	0.75238	0.03449	0.91906	-0.377
Mof_O 	O 	0.83698	0.07597	0.93668	-0.419
Mof_C 	C 	0.68113	0.72082	0.24897	0.079
Mof_H 	H 	0.67243	0.70007	0.20577	0
Mof_C 	C 	0.67613	0.69723	0.31627	-0.122
Mof_H 	H 	0.66423	0.66097	0.31917	0.085
Mof_C 	C 	0.68873	0.72702	0.37887	0.044
Mof_H 	H 	0.68563	0.71147	0.42577	0.021
Mof_C 	C 	0.70603	0.77991	0.37337	-0.104
Mof_H 	H 	0.71473	0.80127	0.41597	0.073
Mof_C 	C 	0.71017	0.80058	0.30377	0.043
Mof_C 	C 	0.73068	0.85576	0.28815	0.076
Mof_C 	C 	0.75796	0.92611	0.22407	0.034
Mof_C 	C 	0.76879	0.94118	0.29719	0.025
Mof_C 	C 	0.79312	0.99149	0.33557	0.057
Mof_C 	C 	0.81722	0.99681	0.40417	-0.113
Mof_H 	H 	0.81803	0.96787	0.42507	0.084
Mof_C 	C 	0.83949	0.04328	0.44137	0.044
Mof_H 	H 	0.85523	0.04587	0.48797	0.028
Mof_C 	C 	0.83951	0.08668	0.41229	-0.118
Mof_C 	C 	0.81622	0.08189	0.34337	0.041
Mof_H 	H 	0.81663	0.11137	0.32187	0.031
Mof_C 	C 	0.79273	0.03502	0.30637	-0.114
Mof_H 	H 	0.77603	0.03217	0.26057	0.073
Mof_C 	C 	0.8619	0.13639	0.45516	0.348
Mof_C 	C 	0.76864	0.9569	0.15594	0.025
Mof_C 	C 	0.73079	0.93777	0.10107	-0.092
Mof_H 	H 	0.69913	0.90587	0.10827	0.049
Mof_C 	C 	0.73913	0.96515	0.03587	0.022
Mof_H 	H 	0.71313	0.95177	0.99867	0.033
Mof_C 	C 	0.7846	0.01137	0.02447	-0.087
Mof_C 	C 	0.82353	0.03037	0.07817	0.019
Mof_H 	H 	0.85553	0.06177	0.06977	0.042
Mof_C 	C 	0.81553	0.00344	0.14387	-0.088
Mof_H 	H 	0.84193	0.01657	0.18057	0.064
Mof_C 	C 	0.79141	0.04197	0.95547	0.306
Mof_H 	H 	0.74803	0.89137	0.38967	0.13
Mof_Zn	Zn	0.85443	0.22871	0.4783	1.211
Mof_N 	N 	0.89499	0.25921	0.57541	-0.253
Mof_N 	N 	0.79368	0.19488	0.55341	-0.249
Mof_N 	N 	0.77135	0.1888	0.66975	-0.174
Mof_O 	O 	0.49313	0.01781	0.75877	-0.458
Mof_O 	O 	0.52788	0.07572	0.85007	-0.32
Mof_O 	O 	0.63218	0.05123	0.25239	-0.377
Mof_O 	O 	0.5907	0.09435	0.27001	-0.419
Mof_C 	C 	0.94585	0.29365	0.5823	0.078
Mof_H 	H 	0.9666	0.3057	0.5391	0.001
Mof_C 	C 	0.96944	0.31224	0.6496	-0.121
Mof_H 	H 	0.0057	0.3366	0.6525	0.084
Mof_C 	C 	0.93965	0.29505	0.7122	0.043
Mof_H 	H 	0.9552	0.3075	0.7591	0.022
Mof_C 	C 	0.88676	0.25946	0.7067	-0.104
Mof_H 	H 	0.8654	0.2468	0.7493	0.073
Mof_C 	C 	0.86609	0.24293	0.6371	0.043
Mof_C 	C 	0.81091	0.20826	0.62148	0.076
Mof_C 	C 	0.74056	0.16519	0.5574	0.034
Mof_C 	C 	0.72549	0.16095	0.63052	0.025
Mof_C 	C 	0.67518	0.13497	0.6689	0.057
Mof_C 	C 	0.66986	0.15375	0.7375	-0.113
Mof_H 	H 	0.6988	0.1835	0.7584	0.084
Mof_C 	C 	0.62339	0.12955	0.7747	0.044
Mof_H 	H 	0.6208	0.1427	0.8213	0.028
Mof_C 	C 	0.57999	0.08617	0.74562	-0.118
Mof_C 	C 	0.58478	0.06767	0.6767	0.041
Mof_H 	H 	0.5553	0.0386	0.6552	0.031
Mof_C 	C 	0.63165	0.09105	0.6397	-0.114
Mof_H 	H 	0.6345	0.0772	0.5939	0.073
Mof_C 	C 	0.53028	0.05885	0.78849	0.348
Mof_C 	C 	0.70977	0.14508	0.48927	0.023
Mof_C 	C 	0.7289	0.12636	0.4344	-0.09
Mof_H 	H 	0.7608	0.1266	0.4416	0.049
Mof_C 	C 	0.70152	0.10732	0.3692	0.019
Mof_H 	H 	0.7149	0.0947	0.332	0.035
Mof_C 	C 	0.6553	0.10657	0.3578	-0.084
Mof_C 	C 	0.6363	0.1265	0.4115	0.017
Mof_H 	H 	0.6049	0.1271	0.4031	0.043
Mof_C 	C 	0.66323	0.14543	0.4772	-0.085
Mof_H 	H 	0.6501	0.1587	0.5139	0.063
Mof_C 	C 	0.6247	0.08278	0.2888	0.304
Mof_H 	H 	0.7753	0.19	0.723	0.13
Mof_Zn	Zn	0.5211	0.56204	0.81163	1.211
Mof_N 	N 	0.56166	0.59254	0.90874	-0.253
Mof_N 	N 	0.46035	0.52821	0.88674	-0.249
Mof_N 	N 	0.43802	0.52213	0.00308	-0.174
Mof_O 	O 	0.1598	0.35114	0.0921	-0.458
Mof_O 	O 	0.19455	0.40905	0.1834	-0.32
Mof_O 	O 	0.29885	0.38456	0.58572	-0.376
Mof_O 	O 	0.25737	0.42768	0.60334	-0.419
Mof_C 	C 	0.61252	0.62698	0.91563	0.079
Mof_H 	H 	0.63327	0.63903	0.87243	0
Mof_C 	C 	0.63611	0.64557	0.98293	-0.122
Mof_H 	H 	0.67237	0.66993	0.98583	0.085
Mof_C 	C 	0.60632	0.62838	0.04553	0.044
Mof_H 	H 	0.62187	0.64083	0.09243	0.021
Mof_C 	C 	0.55343	0.59279	0.04003	-0.104
Mof_H 	H 	0.53207	0.58013	0.08263	0.073
Mof_C 	C 	0.53276	0.57626	0.97043	0.043
Mof_C 	C 	0.47758	0.54159	0.95481	0.076
Mof_C 	C 	0.40723	0.49852	0.89073	0.034
Mof_C 	C 	0.39216	0.49428	0.96385	0.025
Mof_C 	C 	0.34185	0.4683	0.00223	0.058
Mof_C 	C 	0.33653	0.48708	0.07083	-0.113
Mof_H 	H 	0.36547	0.51683	0.09173	0.084
Mof_C 	C 	0.29006	0.46288	0.10803	0.045
Mof_H 	H 	0.28747	0.47603	0.15463	0.028
Mof_C 	C 	0.24666	0.4195	0.07895	-0.119
Mof_C 	C 	0.25145	0.401	0.01003	0.042
Mof_H 	H 	0.22197	0.37193	0.98853	0.03
Mof_C 	C 	0.29832	0.42438	0.97303	-0.115
Mof_H 	H 	0.30117	0.41053	0.92723	0.073
Mof_C 	C 	0.19695	0.39218	0.12182	0.348
Mof_C 	C 	0.37644	0.47841	0.8226	0.023
Mof_C 	C 	0.39557	0.45969	0.76773	-0.09
Mof_H 	H 	0.42747	0.45993	0.77493	0.049
Mof_C 	C 	0.36819	0.44065	0.70253	0.019
Mof_H 	H 	0.38157	0.42803	0.66533	0.035
Mof_C 	C 	0.32197	0.4399	0.69113	-0.083
Mof_C 	C 	0.30297	0.45983	0.74483	0.017
Mof_H 	H 	0.27157	0.46043	0.73643	0.043
Mof_C 	C 	0.3299	0.47876	0.81053	-0.085
Mof_H 	H 	0.31677	0.49203	0.84723	0.063
Mof_C 	C 	0.29137	0.41611	0.62213	0.304
Mof_H 	H 	0.44197	0.52333	0.05633	0.13
Mof_Zn	Zn	0.18776	0.89538	0.14497	1.211
Mof_N 	N 	0.22832	0.92588	0.24208	-0.253
Mof_N 	N 	0.12701	0.86155	0.22008	-0.249
Mof_N 	N 	0.10468	0.85547	0.33642	-0.174
Mof_O 	O 	0.82646	0.68448	0.42544	-0.458
Mof_O 	O 	0.86121	0.74239	0.51674	-0.32
Mof_O 	O 	0.96551	0.7179	0.91906	-0.377
Mof_O 	O 	0.92403	0.76102	0.93668	-0.419
Mof_C 	C 	0.27918	0.96032	0.24897	0.078
Mof_H 	H 	0.29993	0.97237	0.20577	0.001
Mof_C 	C 	0.30277	0.97891	0.31627	-0.121
Mof_H 	H 	0.33903	0.00327	0.31917	0.084
Mof_C 	C 	0.27298	0.96172	0.37887	0.043
Mof_H 	H 	0.28853	0.97417	0.42577	0.022
Mof_C 	C 	0.22009	0.92613	0.37337	-0.104
Mof_H 	H 	0.19873	0.91347	0.41597	0.073
Mof_C 	C 	0.19942	0.9096	0.30377	0.043
Mof_C 	C 	0.14424	0.87493	0.28815	0.076
Mof_C 	C 	0.07389	0.83186	0.22407	0.034
Mof_C 	C 	0.05882	0.82762	0.29719	0.025
Mof_C 	C 	0.00851	0.80164	0.33557	0.057
Mof_C 	C 	0.00319	0.82042	0.40417	-0.113
Mof_H 	H 	0.03213	0.85017	0.42507	0.084
Mof_C 	C 	0.95672	0.79622	0.44137	0.044
Mof_H 	H 	0.95413	0.80937	0.48797	0.028
Mof_C 	C 	0.91332	0.75284	0.41229	-0.118
Mof_C 	C 	0.91811	0.73434	0.34337	0.041
Mof_H 	H 	0.88863	0.70527	0.32187	0.031
Mof_C 	C 	0.96498	0.75772	0.30637	-0.114
Mof_H 	H 	0.96783	0.74387	0.26057	0.073
Mof_C 	C 	0.86361	0.72552	0.45516	0.348
Mof_C 	C 	0.0431	0.81175	0.15594	0.025
Mof_C 	C 	0.06223	0.79303	0.10107	-0.093
Mof_H 	H 	0.09413	0.79327	0.10827	0.05
Mof_C 	C 	0.03485	0.77399	0.03587	0.023
Mof_H 	H 	0.04823	0.76137	0.99867	0.033
Mof_C 	C 	0.98863	0.77324	0.02447	-0.086
Mof_C 	C 	0.96963	0.79317	0.07817	0.019
Mof_H 	H 	0.93823	0.79377	0.06977	0.042
Mof_C 	C 	0.99656	0.8121	0.14387	-0.088
Mof_H 	H 	0.98343	0.82537	0.18057	0.064
Mof_C 	C 	0.95803	0.74945	0.95547	0.305
Mof_H 	H 	0.10863	0.85667	0.38967	0.13
Mof_Zn	Zn	0.77129	0.62572	0.4783	1.211
Mof_N 	N 	0.74079	0.63578	0.57541	-0.253
Mof_N 	N 	0.80512	0.5988	0.55341	-0.249
Mof_N 	N 	0.8112	0.58255	0.66975	-0.174
Mof_O 	O 	0.98219	0.47532	0.75877	-0.458
Mof_O 	O 	0.92428	0.45216	0.85007	-0.32
Mof_O 	O 	0.94877	0.58095	0.25239	-0.377
Mof_O 	O 	0.90565	0.49635	0.27001	-0.419
Mof_C 	C 	0.70635	0.6522	0.5823	0.079
Mof_H 	H 	0.6943	0.6609	0.5391	0
Mof_C 	C 	0.68776	0.6572	0.6496	-0.122
Mof_H 	H 	0.6634	0.6691	0.6525	0.085
Mof_C 	C 	0.70495	0.6446	0.7122	0.044
Mof_H 	H 	0.6925	0.6477	0.7591	0.021
Mof_C 	C 	0.74054	0.6273	0.7067	-0.104
Mof_H 	H 	0.7532	0.6186	0.7493	0.073
Mof_C 	C 	0.75707	0.62316	0.6371	0.043
Mof_C 	C 	0.79174	0.60265	0.62148	0.076
Mof_C 	C 	0.83481	0.57537	0.5574	0.034
Mof_C 	C 	0.83905	0.56454	0.63052	0.025
Mof_C 	C 	0.86503	0.54021	0.6689	0.057
Mof_C 	C 	0.84625	0.51611	0.7375	-0.113
Mof_H 	H 	0.8165	0.5153	0.7584	0.084
Mof_C 	C 	0.87045	0.49384	0.7747	0.044
Mof_H 	H 	0.8573	0.4781	0.8213	0.028
Mof_C 	C 	0.91383	0.49382	0.74562	-0.118
Mof_C 	C 	0.93233	0.51711	0.6767	0.041
Mof_H 	H 	0.9614	0.5167	0.6552	0.031
Mof_C 	C 	0.90895	0.5406	0.6397	-0.114
Mof_H 	H 	0.9228	0.5573	0.5939	0.073
Mof_C 	C 	0.94115	0.47143	0.78849	0.348
Mof_C 	C 	0.85492	0.56469	0.48927	0.023
Mof_C 	C 	0.87364	0.60254	0.4344	-0.09
Mof_H 	H 	0.8734	0.6342	0.4416	0.049
Mof_C 	C 	0.89268	0.5942	0.3692	0.019
Mof_H 	H 	0.9053	0.6202	0.332	0.035
Mof_C 	C 	0.89343	0.54873	0.3578	-0.084
Mof_C 	C 	0.8735	0.5098	0.4115	0.017
Mof_H 	H 	0.8729	0.4778	0.4031	0.043
Mof_C 	C 	0.85457	0.5178	0.4772	-0.085
Mof_H 	H 	0.8413	0.4914	0.5139	0.063
Mof_C 	C 	0.91722	0.54192	0.2888	0.304
Mof_H 	H 	0.81	0.5853	0.723	0.13
Mof_Zn	Zn	0.43796	0.95905	0.81163	1.211
Mof_N 	N 	0.40746	0.96911	0.90874	-0.253
Mof_N 	N 	0.47179	0.93213	0.88674	-0.249
Mof_N 	N 	0.47787	0.91588	0.00308	-0.173
Mof_O 	O 	0.64886	0.80865	0.0921	-0.458
Mof_O 	O 	0.59095	0.78549	0.1834	-0.32
Mof_O 	O 	0.61544	0.91428	0.58572	-0.376
Mof_O 	O 	0.57232	0.82968	0.60334	-0.419
Mof_C 	C 	0.37302	0.98553	0.91563	0.08
Mof_H 	H 	0.36097	0.99423	0.87243	-0
Mof_C 	C 	0.35443	0.99053	0.98293	-0.125
Mof_H 	H 	0.33007	0.00243	0.98583	0.086
Mof_C 	C 	0.37162	0.97793	0.04553	0.046
Mof_H 	H 	0.35917	0.98103	0.09243	0.021
Mof_C 	C 	0.40721	0.96063	0.04003	-0.104
Mof_H 	H 	0.41987	0.95193	0.08263	0.074
Mof_C 	C 	0.42374	0.95649	0.97043	0.043
Mof_C 	C 	0.45841	0.93598	0.95481	0.076
Mof_C 	C 	0.50148	0.9087	0.89073	0.035
Mof_C 	C 	0.50572	0.89787	0.96385	0.024
Mof_C 	C 	0.5317	0.87354	0.00223	0.059
Mof_C 	C 	0.51292	0.84944	0.07083	-0.114
Mof_H 	H 	0.48317	0.84863	0.09173	0.084
Mof_C 	C 	0.53712	0.82717	0.10803	0.045
Mof_H 	H 	0.52397	0.81143	0.15463	0.028
Mof_C 	C 	0.5805	0.82715	0.07895	-0.119
Mof_C 	C 	0.599	0.85044	0.01003	0.043
Mof_H 	H 	0.62807	0.85003	0.98853	0.03
Mof_C 	C 	0.57562	0.87393	0.97303	-0.116
Mof_H 	H 	0.58947	0.89063	0.92723	0.073
Mof_C 	C 	0.60782	0.80476	0.12182	0.348
Mof_C 	C 	0.52159	0.89802	0.8226	0.023
Mof_C 	C 	0.54031	0.93587	0.76773	-0.09
Mof_H 	H 	0.54007	0.96753	0.77493	0.049
Mof_C 	C 	0.55935	0.92753	0.70253	0.019
Mof_H 	H 	0.57197	0.95353	0.66533	0.035
Mof_C 	C 	0.5601	0.88206	0.69113	-0.083
Mof_C 	C 	0.54017	0.84313	0.74483	0.017
Mof_H 	H 	0.53957	0.81113	0.73643	0.043
Mof_C 	C 	0.52124	0.85113	0.81053	-0.085
Mof_H 	H 	0.50797	0.82473	0.84723	0.063
Mof_C 	C 	0.58389	0.87525	0.62213	0.304
Mof_H 	H 	0.47667	0.91863	0.05633	0.13
Mof_Zn	Zn	0.10462	0.29239	0.14497	1.211
Mof_N 	N 	0.07412	0.30245	0.24208	-0.253
Mof_N 	N 	0.13845	0.26547	0.22008	-0.249
Mof_N 	N 	0.14453	0.24922	0.33642	-0.174
Mof_O 	O 	0.31552	0.14199	0.42544	-0.458
Mof_O 	O 	0.25761	0.11883	0.51674	-0.32
Mof_O 	O 	0.2821	0.24762	0.91906	-0.376
Mof_O 	O 	0.23898	0.16302	0.93668	-0.419
Mof_C 	C 	0.03968	0.31887	0.24897	0.078
Mof_H 	H 	0.02763	0.32757	0.20577	0.001
Mof_C 	C 	0.02109	0.32387	0.31627	-0.121
Mof_H 	H 	0.99673	0.33577	0.31917	0.084
Mof_C 	C 	0.03828	0.31127	0.37887	0.043
Mof_H 	H 	0.02583	0.31437	0.42577	0.022
Mof_C 	C 	0.07387	0.29397	0.37337	-0.104
Mof_H 	H 	0.08653	0.28527	0.41597	0.073
Mof_C 	C 	0.0904	0.28983	0.30377	0.043
Mof_C 	C 	0.12507	0.26932	0.28815	0.076
Mof_C 	C 	0.16814	0.24204	0.22407	0.034
Mof_C 	C 	0.17238	0.23121	0.29719	0.025
Mof_C 	C 	0.19836	0.20688	0.33557	0.057
Mof_C 	C 	0.17958	0.18278	0.40417	-0.113
Mof_H 	H 	0.14983	0.18197	0.42507	0.084
Mof_C 	C 	0.20378	0.16051	0.44137	0.044
Mof_H 	H 	0.19063	0.14477	0.48797	0.028
Mof_C 	C 	0.24716	0.16049	0.41229	-0.118
Mof_C 	C 	0.26566	0.18378	0.34337	0.041
Mof_H 	H 	0.29473	0.18337	0.32187	0.031
Mof_C 	C 	0.24228	0.20727	0.30637	-0.114
Mof_H 	H 	0.25613	0.22397	0.26057	0.073
Mof_C 	C 	0.27448	0.1381	0.45516	0.348
Mof_C 	C 	0.18825	0.23136	0.15594	0.024
Mof_C 	C 	0.20697	0.26921	0.10107	-0.091
Mof_H 	H 	0.20673	0.30087	0.10827	0.049
Mof_C 	C 	0.22601	0.26087	0.03587	0.019
Mof_H 	H 	0.23863	0.28687	0.99867	0.035
Mof_C 	C 	0.22676	0.2154	0.02447	-0.084
Mof_C 	C 	0.20683	0.17647	0.07817	0.017
Mof_H 	H 	0.20623	0.14447	0.06977	0.043
Mof_C 	C 	0.1879	0.18447	0.14387	-0.086
Mof_H 	H 	0.17463	0.15807	0.18057	0.063
Mof_C 	C 	0.25055	0.20859	0.95547	0.304
Mof_H 	H 	0.14333	0.25197	0.38967	0.13
_end
