data_functionalizedCrystal
_audit_creation_method	'EQeq! by Chris Wilmer'
_symmetry_space_group_name_H-M	'P1'
_symmetry_Int_Tables_number	1
_symmetry_cell_setting	triclinic
loop_
_symmetry_equiv_pos_as_xyz
  x,y,z
_cell_length_a	15.2445
_cell_length_b	15.2445
_cell_length_c	23.215
_cell_angle_alpha	90
_cell_angle_beta	90
_cell_angle_gamma	96.0915
loop_
_atom_site_label
_atom_site_type_symbol
_atom_site_fract_x
_atom_site_fract_y
_atom_site_fract_z
_atom_site_charge
Mof_Co	Co	0.29867	0.29867	-0	1.202
Mof_Co	Co	0.84573	0.26155	0.89193	1.173
Mof_Co	Co	0.26155	0.84573	0.10807	1.171
Mof_Co	Co	0.21111	0.78889	0.25	1.21
Mof_Co	Co	0.74327	0.65571	0.64611	1.155
Mof_Co	Co	0.25673	0.34429	0.14611	1.155
Mof_Co	Co	0.70133	0.70133	0.5	1.211
Mof_Co	Co	0.73845	0.15427	0.60807	1.172
Mof_Co	Co	0.34429	0.25673	0.85389	1.155
Mof_Co	Co	0.15427	0.73845	0.39193	1.172
Mof_Co	Co	0.78889	0.21111	0.75	1.21
Mof_Co	Co	0.65571	0.74327	0.35389	1.155
Mof_H 	H 	0.1764	0.12	0.6848	0.079
Mof_H 	H 	0.5582	0.3454	0.0411	0.023
Mof_H 	H 	0.8583	0.9629	0.7886	0.025
Mof_H 	H 	0.0371	0.1417	0.7114	0.025
Mof_H 	H 	0.5405	0.8651	0.1332	0.025
Mof_H 	H 	0.0174	0.6688	0.6214	0.022
Mof_H 	H 	0.5204	0.2272	0.791	0.017
Mof_H 	H 	0.3312	0.9826	0.8786	0.023
Mof_H 	H 	0.7021	0.3501	0.0747	0.091
Mof_H 	H 	0.4796	0.7728	0.291	0.017
Mof_H 	H 	0.88	0.8236	0.8152	0.081
Mof_H 	H 	0.1173	0.3101	0.3398	0.079
Mof_H 	H 	0.4126	0.2002	0.0644	-0.134
Mof_H 	H 	0.6499	0.2979	0.4253	0.081
Mof_H 	H 	0.2739	0.0263	0.0425	0.022
Mof_H 	H 	0.7301	0.3663	0.6125	0.01
Mof_H 	H 	0.1661	0.6673	0.5993	0.082
Mof_H 	H 	0.9826	0.3312	0.1214	0.023
Mof_H 	H 	0.9629	0.8583	0.2114	0.022
Mof_H 	H 	0.3663	0.7301	0.3875	0.01
Mof_H 	H 	0.2593	0.9443	0.3498	-0.082
Mof_H 	H 	0.6899	0.8827	0.1602	0.077
Mof_H 	H 	0.8339	0.3327	0.0993	0.07
Mof_H 	H 	0.4418	0.6546	0.5411	0.021
Mof_H 	H 	0.8661	0.7487	0.3577	0.009
Mof_H 	H 	0.12	0.1764	0.3152	0.08
Mof_H 	H 	0.1349	0.4595	0.3668	0.027
Mof_H 	H 	0.2513	0.1339	0.1423	0.007
Mof_H 	H 	0.8236	0.88	0.1848	0.078
Mof_H 	H 	0.2979	0.6499	0.5747	0.081
Mof_H 	H 	0.3454	0.5582	0.9589	0.019
Mof_H 	H 	0.2272	0.5204	0.209	0.017
Mof_H 	H 	0.1339	0.2513	0.8577	0.012
Mof_H 	H 	0.3327	0.8339	0.9007	0.09
Mof_H 	H 	0.0263	0.2739	0.9575	0.016
Mof_H 	H 	0.4595	0.1349	0.6332	0.027
Mof_H 	H 	0.8651	0.5405	0.8668	0.03
Mof_H 	H 	0.5874	0.7998	0.5644	-0.126
Mof_H 	H 	0.6688	0.0174	0.3786	0.024
Mof_H 	H 	0.7487	0.8661	0.6423	0.01
Mof_H 	H 	0.2699	0.6337	0.1125	0.008
Mof_H 	H 	0.1417	0.0371	0.2886	0.022
Mof_H 	H 	0.3501	0.7021	0.9253	0.071
Mof_H 	H 	0.7998	0.5874	0.4356	-0.126
Mof_H 	H 	0.0557	0.7407	0.1502	-0.084
Mof_H 	H 	0.7407	0.0557	0.8498	-0.081
Mof_H 	H 	0.2002	0.4126	0.9356	-0.117
Mof_H 	H 	0.6673	0.1661	0.4007	0.078
Mof_H 	H 	0.8827	0.6899	0.8398	0.08
Mof_H 	H 	0.3101	0.1173	0.6602	0.079
Mof_H 	H 	0.6546	0.4418	0.4589	0.021
Mof_H 	H 	0.7728	0.4796	0.709	0.017
Mof_H 	H 	0.9737	0.7261	0.4575	0.016
Mof_H 	H 	0.6337	0.2699	0.8875	0.013
Mof_H 	H 	0.9443	0.2593	0.6502	-0.083
Mof_H 	H 	0.7261	0.9737	0.5425	0.024
Mof_C 	C 	0.6945	0.9809	0.4594	-0.137
Mof_C 	C 	0.3055	0.0191	0.9594	-0.12
Mof_C 	C 	0.1426	0.2264	0.8218	0.102
Mof_C 	C 	0.2845	0.6479	0.0745	0.111
Mof_C 	C 	0.8184	0.7612	0.7467	0.059
Mof_C 	C 	0.6769	0.1259	0.4296	-0.127
Mof_C 	C 	0.1424	0.3536	0.3149	-0.126
Mof_C 	C 	0.4784	0.205	0.7642	0.086
Mof_C 	C 	0.7687	0.1083	0.8643	0.405
Mof_C 	C 	0.1083	0.7687	0.1357	0.408
Mof_C 	C 	0.1541	0.6891	0.5153	0.069
Mof_C 	C 	0.3969	0.2345	0.0951	0.529
Mof_C 	C 	0.6032	0.1806	0.698	0.405
Mof_C 	C 	0.6947	0.8833	0.4472	0.406
Mof_C 	C 	0.6671	0.3125	0.4628	-0.131
Mof_C 	C 	0.1167	0.3053	0.0528	0.414
Mof_C 	C 	0.3968	0.8194	0.198	0.405
Mof_C 	C 	0.7985	0.9303	0.7117	-0.143
Mof_C 	C 	0.6891	0.1541	0.4847	0.065
Mof_C 	C 	0.58	0.303	0.9618	-0.134
Mof_C 	C 	0.8244	0.4928	0.7879	-0.14
Mof_C 	C 	0.3125	0.6671	0.5372	-0.13
Mof_C 	C 	0.9764	0.2158	0.8054	0.411
Mof_C 	C 	0.9809	0.6945	0.5406	-0.151
Mof_C 	C 	0.8574	0.7736	0.3218	0.104
Mof_C 	C 	0.1259	0.6769	0.5704	-0.134
Mof_C 	C 	0.9874	0.2884	0.9861	0.126
Mof_C 	C 	0.5132	0.703	0.4426	0.413
Mof_C 	C 	0.7655	0.6031	0.4049	0.527
Mof_C 	C 	0.3978	0.6706	0.5167	0.086
Mof_C 	C 	0.333	0.1754	0.7381	0.064
Mof_C 	C 	0.3053	0.1167	0.9472	0.401
Mof_C 	C 	0.1756	0.5072	0.2879	-0.141
Mof_C 	C 	0.2388	0.1816	0.7533	0.058
Mof_C 	C 	0.3091	0.7511	0.0024	0.007
Mof_C 	C 	0.8459	0.3109	0.0153	0.015
Mof_C 	C 	0.1495	0.1669	0.281	-0.129
Mof_C 	C 	0.5574	0.8514	0.1704	0.064
Mof_C 	C 	0.795	0.5216	0.7358	0.086
Mof_C 	C 	0.6909	0.2489	0.5024	0.059
Mof_C 	C 	0.297	0.4868	0.0574	0.421
Mof_C 	C 	0.9625	0.3215	0.0839	0.071
Mof_C 	C 	0.2015	0.0697	0.2117	-0.148
Mof_C 	C 	0.6022	0.3294	0.0167	0.063
Mof_C 	C 	0.7116	0.0126	0.5139	0.088
Mof_C 	C 	0.6706	0.3978	0.4833	0.086
Mof_C 	C 	0.2489	0.6909	0.4976	0.058
Mof_C 	C 	0.3536	0.1424	0.6851	-0.127
Mof_C 	C 	0.6479	0.2845	0.9255	0.1
Mof_C 	C 	0.1754	0.333	0.2619	0.063
Mof_C 	C 	0.9303	0.7985	0.2883	-0.146
Mof_C 	C 	0.8505	0.8331	0.781	-0.127
Mof_C 	C 	0.2313	0.8917	0.3643	0.406
Mof_C 	C 	0.7511	0.3091	0.9976	0.113
Mof_C 	C 	0.3231	0.8741	0.9296	-0.149
Mof_C 	C 	0.3329	0.6875	0.9628	-0.095
Mof_C 	C 	0.6031	0.7655	0.5951	0.526
Mof_C 	C 	0.9155	0.8393	0.2351	0.075
Mof_C 	C 	0.1669	0.1495	0.719	-0.126
Mof_C 	C 	0.7612	0.8184	0.2533	0.058
Mof_C 	C 	0.5072	0.1756	0.7121	-0.141
Mof_C 	C 	0.8194	0.3968	0.802	0.404
Mof_C 	C 	0.8393	0.9155	0.7649	0.075
Mof_C 	C 	0.0697	0.2015	0.7883	-0.141
Mof_C 	C 	0.8514	0.5574	0.8296	0.064
Mof_C 	C 	0.6875	0.3329	0.0372	-0.167
Mof_C 	C 	0.4868	0.297	0.9426	0.405
Mof_C 	C 	0.303	0.58	0.0382	-0.189
Mof_C 	C 	0.0375	0.6785	0.5839	0.083
Mof_C 	C 	0.5216	0.795	0.2642	0.086
Mof_C 	C 	0.1806	0.6032	0.302	0.404
Mof_C 	C 	0.8741	0.3231	0.0704	-0.11
Mof_C 	C 	0.8833	0.6947	0.5528	0.41
Mof_C 	C 	0.1816	0.2388	0.2467	0.059
Mof_C 	C 	0.3215	0.9625	0.9161	0.08
Mof_C 	C 	0.703	0.5132	0.5574	0.413
Mof_C 	C 	0.0126	0.7116	0.4861	0.103
Mof_C 	C 	0.3521	0.7155	0.4255	0.106
Mof_C 	C 	0.8576	0.6464	0.8149	-0.125
Mof_C 	C 	0.6785	0.0375	0.4161	0.069
Mof_C 	C 	0.1607	0.0845	0.2649	0.077
Mof_C 	C 	0.8331	0.8505	0.219	-0.128
Mof_C 	C 	0.7736	0.8574	0.6782	0.103
Mof_C 	C 	0.0845	0.1607	0.7351	0.074
Mof_C 	C 	0.42	0.697	0.4618	-0.162
Mof_C 	C 	0.4426	0.1486	0.6704	0.064
Mof_C 	C 	0.697	0.42	0.5382	-0.162
Mof_C 	C 	0.667	0.8246	0.2381	0.063
Mof_C 	C 	0.4928	0.8244	0.2121	-0.142
Mof_C 	C 	0.2345	0.3969	0.9049	0.522
Mof_C 	C 	0.2884	0.9874	0.0139	0.067
Mof_C 	C 	0.8917	0.2313	0.6357	0.406
Mof_C 	C 	0.3109	0.8459	0.9847	0.118
Mof_C 	C 	0.1486	0.4426	0.3296	0.064
Mof_C 	C 	0.7842	0.0236	0.6946	0.411
Mof_C 	C 	0.6464	0.8576	0.1851	-0.127
Mof_C 	C 	0.0191	0.3055	0.0406	-0.168
Mof_C 	C 	0.2264	0.1426	0.1782	0.105
Mof_C 	C 	0.7155	0.3521	0.5745	0.106
Mof_C 	C 	0.2158	0.9764	0.1946	0.415
Mof_C 	C 	0.0236	0.7842	0.3054	0.415
Mof_C 	C 	0.8246	0.667	0.7619	0.064
Mof_C 	C 	0.205	0.4784	0.2358	0.086
Mof_C 	C 	0.3294	0.6022	0.9833	0.108
Mof_N 	N 	0.7083	0.0985	0.5278	-0.231
Mof_N 	N 	0.2254	0.2166	0.8054	-0.225
Mof_N 	N 	0.0985	0.7083	0.4722	-0.234
Mof_N 	N 	0.608	0.7968	0.2782	-0.237
Mof_N 	N 	0.2032	0.392	0.2218	-0.237
Mof_N 	N 	0.7137	0.2667	0.55831	-0.224
Mof_N 	N 	0.7746	0.7834	0.3054	-0.226
Mof_N 	N 	0.2667	0.7137	0.44169	-0.224
Mof_N 	N 	0.7968	0.608	0.7218	-0.237
Mof_N 	N 	0.2863	0.7333	0.05831	-0.22
Mof_N 	N 	0.2166	0.2254	0.1946	-0.226
Mof_N 	N 	0.2917	0.9015	0.0278	-0.244
Mof_N 	N 	0.392	0.2032	0.7782	-0.237
Mof_N 	N 	0.7834	0.7746	0.6946	-0.225
Mof_N 	N 	0.7333	0.2863	0.94169	-0.228
Mof_N 	N 	0.9015	0.2917	0.9722	-0.22
Mof_O 	O 	0.84308	0.37832	0.85273	-0.443
Mof_O 	O 	0.7227	0.6695	0.4131	-0.571
Mof_O 	O 	0.2773	0.3305	0.9131	-0.562
Mof_O 	O 	0.2345	0.8209	0.3372	-0.534
Mof_O 	O 	0.5605	0.7669	0.6357	-0.355
Mof_O 	O 	0.1649	0.2899	0.01136	-0.435
Mof_O 	O 	0.1901	0.8915	0.4114	-0.354
Mof_O 	O 	0.3199	0.1399	0.89589	-0.437
Mof_O 	O 	0.0776	0.7884	0.2661	-0.436
Mof_O 	O 	0.7194	0.5304	0.61008	-0.436
Mof_O 	O 	0.7884	0.0776	0.7339	-0.435
Mof_O 	O 	0.1085	0.8099	0.0886	-0.359
Mof_O 	O 	0.6801	0.8601	0.39589	-0.439
Mof_O 	O 	0.7101	0.8351	0.48864	-0.421
Mof_O 	O 	0.23511	0.96409	0.14251	-0.433
Mof_O 	O 	0.03591	0.76489	0.35749	-0.431
Mof_O 	O 	0.6917	0.5681	0.51959	-0.433
Mof_O 	O 	0.7669	0.5605	0.3643	-0.357
Mof_O 	O 	0.2116	0.9224	0.2339	-0.436
Mof_O 	O 	0.5304	0.7194	0.38992	-0.436
Mof_O 	O 	0.8099	0.1085	0.9114	-0.35
Mof_O 	O 	0.2064	0.6552	0.26326	-0.428
Mof_O 	O 	0.3083	0.4319	0.01959	-0.446
Mof_O 	O 	0.4395	0.2331	0.1357	-0.36
Mof_O 	O 	0.2806	0.4696	0.11008	-0.439
Mof_O 	O 	0.3305	0.2773	0.0869	-0.575
Mof_O 	O 	0.15692	0.62168	0.35273	-0.445
Mof_O 	O 	0.4319	0.3083	0.98041	-0.417
Mof_O 	O 	0.5681	0.6917	0.48041	-0.433
Mof_O 	O 	0.8351	0.7101	0.51136	-0.423
Mof_O 	O 	0.7936	0.3448	0.76326	-0.428
Mof_O 	O 	0.8209	0.2345	0.6628	-0.534
Mof_O 	O 	0.76489	0.03591	0.64251	-0.432
Mof_O 	O 	0.1791	0.7655	0.1628	-0.535
Mof_O 	O 	0.2899	0.1649	0.98864	-0.405
Mof_O 	O 	0.7655	0.1791	0.8372	-0.533
Mof_O 	O 	0.8915	0.1901	0.5886	-0.355
Mof_O 	O 	0.96409	0.23511	0.85749	-0.431
Mof_O 	O 	0.2331	0.4395	0.8643	-0.353
Mof_O 	O 	0.8601	0.6801	0.60411	-0.441
Mof_O 	O 	0.37832	0.84308	0.14727	-0.446
Mof_O 	O 	0.1399	0.3199	0.10411	-0.443
Mof_O 	O 	0.6552	0.2064	0.73674	-0.428
Mof_O 	O 	0.6695	0.7227	0.5869	-0.57
Mof_O 	O 	0.62168	0.15692	0.64727	-0.445
Mof_O 	O 	0.4696	0.2806	0.88992	-0.432
Mof_O 	O 	0.9224	0.2116	0.7661	-0.435
Mof_O 	O 	0.3448	0.7936	0.23674	-0.428
_end
