data_functionalizedCrystal
_audit_creation_method	'EQeq! by Chris Wilmer'
_symmetry_space_group_name_H-M	'P1'
_symmetry_Int_Tables_number	1
_symmetry_cell_setting	triclinic
loop_
_symmetry_equiv_pos_as_xyz
  x,y,z
_cell_length_a	15.348
_cell_length_b	32.866
_cell_length_c	10.1122
_cell_angle_alpha	90
_cell_angle_beta	106.642
_cell_angle_gamma	90
loop_
_atom_site_label
_atom_site_type_symbol
_atom_site_fract_x
_atom_site_fract_y
_atom_site_fract_z
_atom_site_charge
Mof_Cu	Cu	0.15488	0.27467	0.46082	0.931
Mof_Cu	Cu	0.00823	0.21721	0.48399	0.935
Mof_Cu	Cu	0.08122	0.21667	0.22564	0.93
Mof_O 	O 	0.1187	0.21828	0.4254	-0.742
Mof_H 	H 	0.1589	0.2009	0.4645	0.29
Mof_O 	O 	0.033	0.15784	0.2353	-0.37
Mof_O 	O 	0.9731	0.16248	0.415	-0.377
Mof_O 	O 	0.2067	0.2283	0.2132	-0.458
Mof_O 	O 	0.2636	0.26713	0.4012	-0.4
Mof_O 	O 	0.0453	0.22509	0.0289	-0.699
Mof_H 	H 	0.0052	0.2082	0.9859	0.266
Mof_O 	O 	0.5386	0.3404	0.4291	-0.089
Mof_O 	O 	0.6457	0.3078	0.4014	-0.087
Mof_O 	O 	0.5036	0.3097	0.019	-0.092
Mof_O 	O 	0.6118	0.3408	0.977	-0.096
Mof_O 	O 	0.7579	0.9999	0.3422	-0.078
Mof_O 	O 	0.801	0.0401	0.4908	-0.071
Mof_O 	O 	0.7799	0.0154	0.0184	-0.079
Mof_O 	O 	0.8143	0.9714	0.8806	-0.098
Mof_O 	O 	0.9023	0.27869	0.0488	-0.395
Mof_O 	O 	0.9556	0.23974	0.2367	-0.447
Mof_O 	O 	0.9005	0.81948	0.2683	-0.365
Mof_O 	O 	0.8361	0.83267	0.0465	-0.384
Mof_C 	C 	0.9929	0.14377	0.317	0.341
Mof_C 	C 	0.9661	0.09978	0.3	-0.055
Mof_C 	C 	0.0109	0.0732	0.2369	0.013
Mof_H 	H 	0.058	0.0828	0.2045	0.059
Mof_C 	C 	0.9873	0.0327	0.2207	-0.072
Mof_H 	H 	0.0204	0.0153	0.181	0.09
Mof_C 	C 	0.9155	0.0174	0.2622	0.026
Mof_C 	C 	0.8707	0.0449	0.3251	0.075
Mof_C 	C 	0.8967	0.0848	0.3455	-0.052
Mof_H 	H 	0.8667	0.1019	0.3911	0.094
Mof_C 	C 	0.8929	0.973	0.2398	0.02
Mof_C 	C 	0.8507	0.9564	0.1104	0.075
Mof_C 	C 	0.842	0.9151	0.0882	-0.053
Mof_H 	H 	0.813	0.9052	0.0005	0.092
Mof_C 	C 	0.8761	0.8886	0.1947	-0.047
Mof_C 	C 	0.9216	0.9043	0.3238	-0.004
Mof_H 	H 	0.947	0.8866	0.3966	0.056
Mof_C 	C 	0.9296	0.9461	0.3452	-0.055
Mof_H 	H 	0.9602	0.956	0.4323	0.072
Mof_C 	C 	0.871	0.8433	0.171	0.328
Mof_C 	C 	0.2695	0.24767	0.2967	0.365
Mof_C 	C 	0.3606	0.2483	0.2704	-0.077
Mof_C 	C 	0.4182	0.2805	0.3229	-0.034
Mof_H 	H 	0.4006	0.3008	0.3737	0.082
Mof_C 	C 	0.5023	0.282	0.2988	0.071
Mof_C 	C 	0.5317	0.2522	0.2218	0.034
Mof_C 	C 	0.4733	0.2198	0.176	-0.074
Mof_H 	H 	0.4913	0.1987	0.1286	0.093
Mof_C 	C 	0.3888	0.2181	0.1989	0.031
Mof_H 	H 	0.3506	0.1962	0.1652	0.048
Mof_C 	C 	0.6215	0.2534	0.1907	0.028
Mof_C 	C 	0.6852	0.2235	0.247	-0.068
Mof_H 	H 	0.6684	0.202	0.2942	0.087
Mof_C 	C 	0.7726	0.2245	0.2354	0.022
Mof_H 	H 	0.814	0.2045	0.2776	0.047
Mof_C 	C 	0.7988	0.2552	0.1613	-0.072
Mof_C 	C 	0.734	0.2844	0.0971	-0.039
Mof_H 	H 	0.7496	0.3046	0.0438	0.087
Mof_C 	C 	0.6482	0.2834	0.1116	0.079
Mof_C 	C 	0.8938	0.25794	0.1497	0.369
Mof_N 	N 	0.7917	0.0326	0.3704	0.01
Mof_N 	N 	0.5637	0.3153	0.3628	0.012
Mof_N 	N 	0.5843	0.3141	0.0379	-0.001
Mof_N 	N 	0.8123	0.9835	0.993	-0.005
Mof_O 	O 	0.5973	0.3373	0.295	-0.05
Mof_O 	O 	0.7391	0.0583	0.389	-0.054
Mof_Cu	Cu	0.84512	0.77467	0.03918	0.928
Mof_Cu	Cu	0.99177	0.71721	0.01601	0.93
Mof_Cu	Cu	0.91878	0.71667	0.27436	0.929
Mof_O 	O 	0.8813	0.71828	0.0746	-0.745
Mof_H 	H 	0.8411	0.7009	0.0355	0.288
Mof_O 	O 	0.967	0.65784	0.2647	-0.375
Mof_O 	O 	0.0269	0.66248	0.085	-0.378
Mof_O 	O 	0.7933	0.7283	0.2868	-0.46
Mof_O 	O 	0.7364	0.76713	0.0988	-0.403
Mof_O 	O 	0.9547	0.72509	0.4711	-0.72
Mof_H 	H 	0.9948	0.7082	0.5141	0.282
Mof_O 	O 	0.4614	0.8404	0.0709	-0.092
Mof_O 	O 	0.3543	0.8078	0.0986	-0.089
Mof_O 	O 	0.4964	0.8097	0.481	-0.095
Mof_O 	O 	0.3882	0.8408	0.523	-0.09
Mof_O 	O 	0.2421	0.4999	0.1578	-0.076
Mof_O 	O 	0.199	0.5401	0.0092	-0.071
Mof_O 	O 	0.2201	0.5154	0.4816	-0.078
Mof_O 	O 	0.1857	0.4714	0.6194	-0.1
Mof_O 	O 	0.0977	0.77869	0.4512	-0.396
Mof_O 	O 	0.0444	0.73974	0.2633	-0.445
Mof_O 	O 	0.0995	0.31948	0.2317	-0.362
Mof_O 	O 	0.1639	0.33267	0.4535	-0.38
Mof_C 	C 	0.0071	0.64377	0.183	0.341
Mof_C 	C 	0.0339	0.59978	0.2	-0.043
Mof_C 	C 	0.9891	0.5732	0.2631	-0.012
Mof_H 	H 	0.942	0.5828	0.2955	0.066
Mof_C 	C 	0.0127	0.5327	0.2793	-0.046
Mof_H 	H 	0.9796	0.5153	0.319	0.078
Mof_C 	C 	0.0845	0.5174	0.2378	0.014
Mof_C 	C 	0.1293	0.5449	0.1749	0.082
Mof_C 	C 	0.1033	0.5848	0.1545	-0.061
Mof_H 	H 	0.1333	0.6019	0.1089	0.096
Mof_C 	C 	0.1071	0.473	0.2602	0.025
Mof_C 	C 	0.1493	0.4564	0.3896	0.078
Mof_C 	C 	0.158	0.4151	0.4118	-0.054
Mof_H 	H 	0.187	0.4052	0.4995	0.095
Mof_C 	C 	0.1239	0.3886	0.3053	-0.044
Mof_C 	C 	0.0784	0.4043	0.1762	-0.003
Mof_H 	H 	0.053	0.3866	0.1034	0.058
Mof_C 	C 	0.0704	0.4461	0.1548	-0.056
Mof_H 	H 	0.0398	0.456	0.0677	0.074
Mof_C 	C 	0.129	0.3433	0.329	0.327
Mof_C 	C 	0.7305	0.74767	0.2033	0.365
Mof_C 	C 	0.6394	0.7483	0.2296	-0.081
Mof_C 	C 	0.5818	0.7805	0.1771	-0.033
Mof_H 	H 	0.5994	0.8008	0.1263	0.08
Mof_C 	C 	0.4977	0.782	0.2012	0.069
Mof_C 	C 	0.4683	0.7522	0.2782	0.034
Mof_C 	C 	0.5267	0.7198	0.324	-0.076
Mof_H 	H 	0.5087	0.6987	0.3714	0.091
Mof_C 	C 	0.6112	0.7181	0.3011	0.031
Mof_H 	H 	0.6494	0.6962	0.3348	0.046
Mof_C 	C 	0.3785	0.7534	0.3093	0.027
Mof_C 	C 	0.3148	0.7235	0.253	-0.068
Mof_H 	H 	0.3316	0.702	0.2058	0.086
Mof_C 	C 	0.2274	0.7245	0.2646	0.021
Mof_H 	H 	0.186	0.7045	0.2224	0.046
Mof_C 	C 	0.2012	0.7552	0.3387	-0.073
Mof_C 	C 	0.266	0.7844	0.4029	-0.04
Mof_H 	H 	0.2504	0.8046	0.4562	0.086
Mof_C 	C 	0.3518	0.7834	0.3884	0.078
Mof_C 	C 	0.1062	0.75794	0.3503	0.369
Mof_N 	N 	0.2083	0.5326	0.1296	0.009
Mof_N 	N 	0.4363	0.8153	0.1372	0.013
Mof_N 	N 	0.4157	0.8141	0.4621	-0.004
Mof_N 	N 	0.1877	0.4835	0.507	-0.007
Mof_O 	O 	0.4027	0.8373	0.205	-0.051
Mof_O 	O 	0.2609	0.5583	0.111	-0.055
Mof_Cu	Cu	0.84512	0.72533	0.53918	0.932
Mof_Cu	Cu	0.99177	0.78279	0.51601	0.936
Mof_Cu	Cu	0.91878	0.78333	0.77436	0.93
Mof_O 	O 	0.8813	0.78172	0.5746	-0.742
Mof_H 	H 	0.8411	0.7991	0.5355	0.29
Mof_O 	O 	0.967	0.84216	0.7647	-0.37
Mof_O 	O 	0.0269	0.83752	0.585	-0.377
Mof_O 	O 	0.7933	0.7717	0.7868	-0.458
Mof_O 	O 	0.7364	0.73287	0.5988	-0.4
Mof_O 	O 	0.9547	0.77491	0.9711	-0.699
Mof_H 	H 	0.9948	0.7918	0.0141	0.266
Mof_O 	O 	0.4614	0.6596	0.5709	-0.089
Mof_O 	O 	0.3543	0.6922	0.5986	-0.087
Mof_O 	O 	0.4964	0.6903	0.981	-0.092
Mof_O 	O 	0.3882	0.6592	0.023	-0.096
Mof_O 	O 	0.2421	0.0001	0.6578	-0.078
Mof_O 	O 	0.199	0.9599	0.5092	-0.071
Mof_O 	O 	0.2201	0.9846	0.9816	-0.079
Mof_O 	O 	0.1857	0.0286	0.1194	-0.098
Mof_O 	O 	0.0977	0.72131	0.9512	-0.395
Mof_O 	O 	0.0444	0.76026	0.7633	-0.447
Mof_O 	O 	0.0995	0.18052	0.7317	-0.365
Mof_O 	O 	0.1639	0.16733	0.9535	-0.384
Mof_C 	C 	0.0071	0.85623	0.683	0.341
Mof_C 	C 	0.0339	0.90022	0.7	-0.055
Mof_C 	C 	0.9891	0.9268	0.7631	0.013
Mof_H 	H 	0.942	0.9172	0.7955	0.059
Mof_C 	C 	0.0127	0.9673	0.7793	-0.072
Mof_H 	H 	0.9796	0.9847	0.819	0.09
Mof_C 	C 	0.0845	0.9826	0.7378	0.026
Mof_C 	C 	0.1293	0.9551	0.6749	0.075
Mof_C 	C 	0.1033	0.9152	0.6545	-0.052
Mof_H 	H 	0.1333	0.8981	0.6089	0.094
Mof_C 	C 	0.1071	0.027	0.7602	0.02
Mof_C 	C 	0.1493	0.0436	0.8896	0.075
Mof_C 	C 	0.158	0.0849	0.9118	-0.053
Mof_H 	H 	0.187	0.0948	0.9995	0.092
Mof_C 	C 	0.1239	0.1114	0.8053	-0.047
Mof_C 	C 	0.0784	0.0957	0.6762	-0.004
Mof_H 	H 	0.053	0.1134	0.6034	0.056
Mof_C 	C 	0.0704	0.0539	0.6548	-0.055
Mof_H 	H 	0.0398	0.044	0.5677	0.072
Mof_C 	C 	0.129	0.1567	0.829	0.328
Mof_C 	C 	0.7305	0.75233	0.7033	0.365
Mof_C 	C 	0.6394	0.7517	0.7296	-0.077
Mof_C 	C 	0.5818	0.7195	0.6771	-0.034
Mof_H 	H 	0.5994	0.6992	0.6263	0.082
Mof_C 	C 	0.4977	0.718	0.7012	0.071
Mof_C 	C 	0.4683	0.7478	0.7782	0.034
Mof_C 	C 	0.5267	0.7802	0.824	-0.074
Mof_H 	H 	0.5087	0.8013	0.8714	0.093
Mof_C 	C 	0.6112	0.7819	0.8011	0.031
Mof_H 	H 	0.6494	0.8038	0.8348	0.048
Mof_C 	C 	0.3785	0.7466	0.8093	0.028
Mof_C 	C 	0.3148	0.7765	0.753	-0.068
Mof_H 	H 	0.3316	0.798	0.7058	0.087
Mof_C 	C 	0.2274	0.7755	0.7646	0.022
Mof_H 	H 	0.186	0.7955	0.7224	0.047
Mof_C 	C 	0.2012	0.7448	0.8387	-0.072
Mof_C 	C 	0.266	0.7156	0.9029	-0.039
Mof_H 	H 	0.2504	0.6954	0.9562	0.087
Mof_C 	C 	0.3518	0.7166	0.8884	0.079
Mof_C 	C 	0.1062	0.74206	0.8503	0.369
Mof_N 	N 	0.2083	0.9674	0.6296	0.01
Mof_N 	N 	0.4363	0.6847	0.6372	0.012
Mof_N 	N 	0.4157	0.6859	0.9621	-0.001
Mof_N 	N 	0.1877	0.0165	0.007	-0.005
Mof_O 	O 	0.4027	0.6627	0.705	-0.05
Mof_O 	O 	0.2609	0.9417	0.611	-0.054
Mof_Cu	Cu	0.15488	0.22533	0.96082	0.928
Mof_Cu	Cu	0.00823	0.28279	0.98399	0.93
Mof_Cu	Cu	0.08122	0.28333	0.72564	0.929
Mof_O 	O 	0.1187	0.28172	0.9254	-0.745
Mof_H 	H 	0.1589	0.2991	0.9645	0.288
Mof_O 	O 	0.033	0.34216	0.7353	-0.375
Mof_O 	O 	0.9731	0.33752	0.915	-0.378
Mof_O 	O 	0.2067	0.2717	0.7132	-0.46
Mof_O 	O 	0.2636	0.23287	0.9012	-0.403
Mof_O 	O 	0.0453	0.27491	0.5289	-0.72
Mof_H 	H 	0.0052	0.2918	0.4859	0.282
Mof_O 	O 	0.5386	0.1596	0.9291	-0.092
Mof_O 	O 	0.6457	0.1922	0.9014	-0.089
Mof_O 	O 	0.5036	0.1903	0.519	-0.095
Mof_O 	O 	0.6118	0.1592	0.477	-0.09
Mof_O 	O 	0.7579	0.5001	0.8422	-0.076
Mof_O 	O 	0.801	0.4599	0.9908	-0.071
Mof_O 	O 	0.7799	0.4846	0.5184	-0.078
Mof_O 	O 	0.8143	0.5286	0.3806	-0.1
Mof_O 	O 	0.9023	0.22131	0.5488	-0.396
Mof_O 	O 	0.9556	0.26026	0.7367	-0.445
Mof_O 	O 	0.9005	0.68052	0.7683	-0.362
Mof_O 	O 	0.8361	0.66733	0.5465	-0.38
Mof_C 	C 	0.9929	0.35623	0.817	0.341
Mof_C 	C 	0.9661	0.40022	0.8	-0.043
Mof_C 	C 	0.0109	0.4268	0.7369	-0.012
Mof_H 	H 	0.058	0.4172	0.7045	0.066
Mof_C 	C 	0.9873	0.4673	0.7207	-0.046
Mof_H 	H 	0.0204	0.4847	0.681	0.078
Mof_C 	C 	0.9155	0.4826	0.7622	0.014
Mof_C 	C 	0.8707	0.4551	0.8251	0.082
Mof_C 	C 	0.8967	0.4152	0.8455	-0.061
Mof_H 	H 	0.8667	0.3981	0.8911	0.096
Mof_C 	C 	0.8929	0.527	0.7398	0.025
Mof_C 	C 	0.8507	0.5436	0.6104	0.078
Mof_C 	C 	0.842	0.5849	0.5882	-0.054
Mof_H 	H 	0.813	0.5948	0.5005	0.095
Mof_C 	C 	0.8761	0.6114	0.6947	-0.044
Mof_C 	C 	0.9216	0.5957	0.8238	-0.003
Mof_H 	H 	0.947	0.6134	0.8966	0.058
Mof_C 	C 	0.9296	0.5539	0.8452	-0.056
Mof_H 	H 	0.9602	0.544	0.9323	0.074
Mof_C 	C 	0.871	0.6567	0.671	0.327
Mof_C 	C 	0.2695	0.25233	0.7967	0.365
Mof_C 	C 	0.3606	0.2517	0.7704	-0.081
Mof_C 	C 	0.4182	0.2195	0.8229	-0.033
Mof_H 	H 	0.4006	0.1992	0.8737	0.08
Mof_C 	C 	0.5023	0.218	0.7988	0.069
Mof_C 	C 	0.5317	0.2478	0.7218	0.034
Mof_C 	C 	0.4733	0.2802	0.676	-0.076
Mof_H 	H 	0.4913	0.3013	0.6286	0.091
Mof_C 	C 	0.3888	0.2819	0.6989	0.031
Mof_H 	H 	0.3506	0.3038	0.6652	0.046
Mof_C 	C 	0.6215	0.2466	0.6907	0.027
Mof_C 	C 	0.6852	0.2765	0.747	-0.068
Mof_H 	H 	0.6684	0.298	0.7942	0.086
Mof_C 	C 	0.7726	0.2755	0.7354	0.021
Mof_H 	H 	0.814	0.2955	0.7776	0.046
Mof_C 	C 	0.7988	0.2448	0.6613	-0.073
Mof_C 	C 	0.734	0.2156	0.5971	-0.04
Mof_H 	H 	0.7496	0.1954	0.5438	0.086
Mof_C 	C 	0.6482	0.2166	0.6116	0.078
Mof_C 	C 	0.8938	0.24206	0.6497	0.369
Mof_N 	N 	0.7917	0.4674	0.8704	0.009
Mof_N 	N 	0.5637	0.1847	0.8628	0.013
Mof_N 	N 	0.5843	0.1859	0.5379	-0.004
Mof_N 	N 	0.8123	0.5165	0.493	-0.007
Mof_O 	O 	0.5973	0.1627	0.795	-0.051
Mof_O 	O 	0.7391	0.4417	0.889	-0.055
_end
