data_functionalizedCrystal
_audit_creation_method	'EQeq! by Chris Wilmer'
_symmetry_space_group_name_H-M	'P1'
_symmetry_Int_Tables_number	1
_symmetry_cell_setting	triclinic
loop_
_symmetry_equiv_pos_as_xyz
  x,y,z
_cell_length_a	35.2422
_cell_length_b	35.2422
_cell_length_c	35.2422
_cell_angle_alpha	60
_cell_angle_beta	60
_cell_angle_gamma	60
loop_
_atom_site_label
_atom_site_type_symbol
_atom_site_fract_x
_atom_site_fract_y
_atom_site_fract_z
_atom_site_charge
Mof_Hf	Hf	0.06957	0.5	0.93043	1.417
Mof_Hf	Hf	0.5	0.06957	0.5	1.416
Mof_Hf	Hf	0.93043	0.5	0.06957	1.417
Mof_Hf	Hf	0.5	0.93043	0.5	1.416
Mof_Hf	Hf	0.06957	0.93043	0.5	1.417
Mof_Hf	Hf	0.5	0.5	0.93043	1.416
Mof_Hf	Hf	0.93043	0.06957	0.5	1.416
Mof_Hf	Hf	0.5	0.5	0.06957	1.415
Mof_Hf	Hf	0.06957	0.5	0.5	1.415
Mof_Hf	Hf	0.5	0.93043	0.06957	1.416
Mof_Hf	Hf	0.93043	0.5	0.5	1.415
Mof_Hf	Hf	0.5	0.06957	0.93043	1.416
Mof_Hf	Hf	0.03531	0.41483	0.03531	1.172
Mof_Hf	Hf	0.41483	0.03531	0.51455	1.174
Mof_Hf	Hf	0.03531	0.51455	0.03531	1.172
Mof_Hf	Hf	0.51455	0.03531	0.41483	1.174
Mof_Hf	Hf	0.03531	0.03531	0.51455	1.172
Mof_Hf	Hf	0.41483	0.51455	0.03531	1.174
Mof_Hf	Hf	0.03531	0.03531	0.41483	1.172
Mof_Hf	Hf	0.51455	0.41483	0.03531	1.174
Mof_Hf	Hf	0.03531	0.51455	0.41483	1.174
Mof_Hf	Hf	0.41483	0.03531	0.03531	1.172
Mof_Hf	Hf	0.03531	0.41483	0.51455	1.174
Mof_Hf	Hf	0.51455	0.03531	0.03531	1.172
Mof_Hf	Hf	0.58517	0.96469	0.96469	1.172
Mof_Hf	Hf	0.96469	0.58517	0.48545	1.174
Mof_Hf	Hf	0.48545	0.96469	0.96469	1.172
Mof_Hf	Hf	0.96469	0.48545	0.58517	1.174
Mof_Hf	Hf	0.96469	0.96469	0.48545	1.172
Mof_Hf	Hf	0.48545	0.58517	0.96469	1.174
Mof_Hf	Hf	0.96469	0.96469	0.58517	1.172
Mof_Hf	Hf	0.58517	0.48545	0.96469	1.174
Mof_Hf	Hf	0.48545	0.96469	0.58517	1.174
Mof_Hf	Hf	0.96469	0.58517	0.96469	1.172
Mof_Hf	Hf	0.58517	0.96469	0.48545	1.174
Mof_Hf	Hf	0.96469	0.48545	0.96469	1.172
Mof_H 	H 	0.2171	0.3959	0.8759	0.053
Mof_H 	H 	0.3959	0.2171	0.5111	0.053
Mof_H 	H 	0.8759	0.5111	0.2171	0.053
Mof_H 	H 	0.5111	0.8759	0.3959	0.053
Mof_H 	H 	0.2171	0.8759	0.5111	0.053
Mof_H 	H 	0.3959	0.5111	0.8759	0.053
Mof_H 	H 	0.8759	0.2171	0.3959	0.053
Mof_H 	H 	0.5111	0.3959	0.2171	0.053
Mof_H 	H 	0.2171	0.5111	0.3959	0.053
Mof_H 	H 	0.3959	0.8759	0.2171	0.053
Mof_H 	H 	0.8759	0.3959	0.5111	0.053
Mof_H 	H 	0.5111	0.2171	0.8759	0.053
Mof_H 	H 	0.6041	0.7829	0.1241	0.053
Mof_H 	H 	0.7829	0.6041	0.4889	0.053
Mof_H 	H 	0.4889	0.1241	0.7829	0.053
Mof_H 	H 	0.1241	0.4889	0.6041	0.053
Mof_H 	H 	0.1241	0.7829	0.4889	0.053
Mof_H 	H 	0.4889	0.6041	0.1241	0.053
Mof_H 	H 	0.7829	0.1241	0.6041	0.053
Mof_H 	H 	0.6041	0.4889	0.7829	0.053
Mof_H 	H 	0.4889	0.7829	0.6041	0.053
Mof_H 	H 	0.1241	0.6041	0.7829	0.053
Mof_H 	H 	0.6041	0.1241	0.4889	0.053
Mof_H 	H 	0.7829	0.4889	0.1241	0.053
Mof_H 	H 	0.7829	0.6041	0.1241	0.053
Mof_H 	H 	0.6041	0.7829	0.4889	0.053
Mof_H 	H 	0.1241	0.4889	0.7829	0.053
Mof_H 	H 	0.4889	0.1241	0.6041	0.053
Mof_H 	H 	0.7829	0.1241	0.4889	0.053
Mof_H 	H 	0.6041	0.4889	0.1241	0.053
Mof_H 	H 	0.1241	0.7829	0.6041	0.053
Mof_H 	H 	0.4889	0.6041	0.7829	0.053
Mof_H 	H 	0.7829	0.4889	0.6041	0.053
Mof_H 	H 	0.6041	0.1241	0.7829	0.053
Mof_H 	H 	0.1241	0.6041	0.4889	0.053
Mof_H 	H 	0.4889	0.7829	0.1241	0.053
Mof_H 	H 	0.3959	0.2171	0.8759	0.053
Mof_H 	H 	0.2171	0.3959	0.5111	0.053
Mof_H 	H 	0.5111	0.8759	0.2171	0.053
Mof_H 	H 	0.8759	0.5111	0.3959	0.053
Mof_H 	H 	0.8759	0.2171	0.5111	0.053
Mof_H 	H 	0.5111	0.3959	0.8759	0.053
Mof_H 	H 	0.2171	0.8759	0.3959	0.053
Mof_H 	H 	0.3959	0.5111	0.2171	0.053
Mof_H 	H 	0.5111	0.2171	0.3959	0.053
Mof_H 	H 	0.8759	0.3959	0.2171	0.053
Mof_H 	H 	0.3959	0.8759	0.5111	0.053
Mof_H 	H 	0.2171	0.5111	0.8759	0.053
Mof_C 	C 	0.18251	0.36147	0.94001	-0.103
Mof_C 	C 	0.21819	0.36799	0.90061	-0.009
Mof_C 	C 	0.25772	0.3271	0.90128	0.002
Mof_C 	C 	0.13563	0.39545	0.95307	0.407
Mof_C 	C 	0.25012	0.29076	0.94064	-0.009
Mof_C 	C 	0.36147	0.18251	0.51601	-0.103
Mof_C 	C 	0.36799	0.21819	0.51321	-0.009
Mof_C 	C 	0.3271	0.25772	0.5139	0.002
Mof_C 	C 	0.39545	0.13563	0.51585	0.407
Mof_C 	C 	0.29076	0.25012	0.51848	-0.009
Mof_C 	C 	0.94001	0.51601	0.18251	-0.103
Mof_C 	C 	0.90061	0.51321	0.21819	-0.009
Mof_C 	C 	0.90128	0.5139	0.25772	0.002
Mof_C 	C 	0.95307	0.51585	0.13563	0.407
Mof_C 	C 	0.94064	0.51848	0.25012	-0.009
Mof_C 	C 	0.51601	0.94001	0.36147	-0.103
Mof_C 	C 	0.51321	0.90061	0.36799	-0.009
Mof_C 	C 	0.5139	0.90128	0.3271	0.002
Mof_C 	C 	0.51585	0.95307	0.39545	0.407
Mof_C 	C 	0.51848	0.94064	0.29076	-0.009
Mof_C 	C 	0.18251	0.94001	0.51601	-0.103
Mof_C 	C 	0.21819	0.90061	0.51321	-0.009
Mof_C 	C 	0.25772	0.90128	0.5139	0.002
Mof_C 	C 	0.13563	0.95307	0.51585	0.407
Mof_C 	C 	0.25012	0.94064	0.51848	-0.009
Mof_C 	C 	0.36147	0.51601	0.94001	-0.103
Mof_C 	C 	0.36799	0.51321	0.90061	-0.009
Mof_C 	C 	0.3271	0.5139	0.90128	0.002
Mof_C 	C 	0.39545	0.51585	0.95307	0.407
Mof_C 	C 	0.29076	0.51848	0.94064	-0.009
Mof_C 	C 	0.94001	0.18251	0.36147	-0.103
Mof_C 	C 	0.90061	0.21819	0.36799	-0.009
Mof_C 	C 	0.90128	0.25772	0.3271	0.002
Mof_C 	C 	0.95307	0.13563	0.39545	0.407
Mof_C 	C 	0.94064	0.25012	0.29076	-0.009
Mof_C 	C 	0.51601	0.36147	0.18251	-0.103
Mof_C 	C 	0.51321	0.36799	0.21819	-0.009
Mof_C 	C 	0.5139	0.3271	0.25772	0.002
Mof_C 	C 	0.51585	0.39545	0.13563	0.407
Mof_C 	C 	0.51848	0.29076	0.25012	-0.009
Mof_C 	C 	0.18251	0.51601	0.36147	-0.103
Mof_C 	C 	0.21819	0.51321	0.36799	-0.009
Mof_C 	C 	0.25772	0.5139	0.3271	0.002
Mof_C 	C 	0.13563	0.51585	0.39545	0.407
Mof_C 	C 	0.25012	0.51848	0.29076	-0.009
Mof_C 	C 	0.36147	0.94001	0.18251	-0.103
Mof_C 	C 	0.36799	0.90061	0.21819	-0.009
Mof_C 	C 	0.3271	0.90128	0.25772	0.002
Mof_C 	C 	0.39545	0.95307	0.13563	0.407
Mof_C 	C 	0.29076	0.94064	0.25012	-0.009
Mof_C 	C 	0.94001	0.36147	0.51601	-0.103
Mof_C 	C 	0.90061	0.36799	0.51321	-0.009
Mof_C 	C 	0.90128	0.3271	0.5139	0.002
Mof_C 	C 	0.95307	0.39545	0.51585	0.407
Mof_C 	C 	0.94064	0.29076	0.51848	-0.009
Mof_C 	C 	0.51601	0.18251	0.94001	-0.103
Mof_C 	C 	0.51321	0.21819	0.90061	-0.009
Mof_C 	C 	0.5139	0.25772	0.90128	0.002
Mof_C 	C 	0.51585	0.13563	0.95307	0.407
Mof_C 	C 	0.51848	0.25012	0.94064	-0.009
Mof_C 	C 	0.63853	0.81749	0.05999	-0.103
Mof_C 	C 	0.63201	0.78181	0.09939	-0.009
Mof_C 	C 	0.6729	0.74228	0.09872	0.002
Mof_C 	C 	0.60455	0.86437	0.04693	0.407
Mof_C 	C 	0.70924	0.74988	0.05936	-0.009
Mof_C 	C 	0.81749	0.63853	0.48399	-0.103
Mof_C 	C 	0.78181	0.63201	0.48679	-0.009
Mof_C 	C 	0.74228	0.6729	0.4861	0.002
Mof_C 	C 	0.86437	0.60455	0.48415	0.407
Mof_C 	C 	0.74988	0.70924	0.48152	-0.009
Mof_C 	C 	0.48399	0.05999	0.81749	-0.103
Mof_C 	C 	0.48679	0.09939	0.78181	-0.009
Mof_C 	C 	0.4861	0.09872	0.74228	0.002
Mof_C 	C 	0.48415	0.04693	0.86437	0.407
Mof_C 	C 	0.48152	0.05936	0.74988	-0.009
Mof_C 	C 	0.05999	0.48399	0.63853	-0.103
Mof_C 	C 	0.09939	0.48679	0.63201	-0.009
Mof_C 	C 	0.09872	0.4861	0.6729	0.002
Mof_C 	C 	0.04693	0.48415	0.60455	0.407
Mof_C 	C 	0.05936	0.48152	0.70924	-0.009
Mof_C 	C 	0.05999	0.81749	0.48399	-0.103
Mof_C 	C 	0.09939	0.78181	0.48679	-0.009
Mof_C 	C 	0.09872	0.74228	0.4861	0.002
Mof_C 	C 	0.04693	0.86437	0.48415	0.407
Mof_C 	C 	0.05936	0.74988	0.48152	-0.009
Mof_C 	C 	0.48399	0.63853	0.05999	-0.103
Mof_C 	C 	0.48679	0.63201	0.09939	-0.009
Mof_C 	C 	0.4861	0.6729	0.09872	0.002
Mof_C 	C 	0.48415	0.60455	0.04693	0.407
Mof_C 	C 	0.48152	0.70924	0.05936	-0.009
Mof_C 	C 	0.81749	0.05999	0.63853	-0.103
Mof_C 	C 	0.78181	0.09939	0.63201	-0.009
Mof_C 	C 	0.74228	0.09872	0.6729	0.002
Mof_C 	C 	0.86437	0.04693	0.60455	0.407
Mof_C 	C 	0.74988	0.05936	0.70924	-0.009
Mof_C 	C 	0.63853	0.48399	0.81749	-0.103
Mof_C 	C 	0.63201	0.48679	0.78181	-0.009
Mof_C 	C 	0.6729	0.4861	0.74228	0.002
Mof_C 	C 	0.60455	0.48415	0.86437	0.407
Mof_C 	C 	0.70924	0.48152	0.74988	-0.009
Mof_C 	C 	0.48399	0.81749	0.63853	-0.103
Mof_C 	C 	0.48679	0.78181	0.63201	-0.009
Mof_C 	C 	0.4861	0.74228	0.6729	0.002
Mof_C 	C 	0.48415	0.86437	0.60455	0.407
Mof_C 	C 	0.48152	0.74988	0.70924	-0.009
Mof_C 	C 	0.05999	0.63853	0.81749	-0.103
Mof_C 	C 	0.09939	0.63201	0.78181	-0.009
Mof_C 	C 	0.09872	0.6729	0.74228	0.002
Mof_C 	C 	0.04693	0.60455	0.86437	0.407
Mof_C 	C 	0.05936	0.70924	0.74988	-0.009
Mof_C 	C 	0.63853	0.05999	0.48399	-0.103
Mof_C 	C 	0.63201	0.09939	0.48679	-0.009
Mof_C 	C 	0.6729	0.09872	0.4861	0.002
Mof_C 	C 	0.60455	0.04693	0.48415	0.407
Mof_C 	C 	0.70924	0.05936	0.48152	-0.009
Mof_C 	C 	0.81749	0.48399	0.05999	-0.103
Mof_C 	C 	0.78181	0.48679	0.09939	-0.009
Mof_C 	C 	0.74228	0.4861	0.09872	0.002
Mof_C 	C 	0.86437	0.48415	0.04693	0.407
Mof_C 	C 	0.74988	0.48152	0.05936	-0.009
Mof_C 	C 	0.81749	0.63853	0.05999	-0.103
Mof_C 	C 	0.78181	0.63201	0.09939	-0.009
Mof_C 	C 	0.74228	0.6729	0.09872	0.002
Mof_C 	C 	0.86437	0.60455	0.04693	0.407
Mof_C 	C 	0.74988	0.70924	0.05936	-0.009
Mof_C 	C 	0.63853	0.81749	0.48399	-0.103
Mof_C 	C 	0.63201	0.78181	0.48679	-0.009
Mof_C 	C 	0.6729	0.74228	0.4861	0.002
Mof_C 	C 	0.60455	0.86437	0.48415	0.407
Mof_C 	C 	0.70924	0.74988	0.48152	-0.009
Mof_C 	C 	0.05999	0.48399	0.81749	-0.103
Mof_C 	C 	0.09939	0.48679	0.78181	-0.009
Mof_C 	C 	0.09872	0.4861	0.74228	0.002
Mof_C 	C 	0.04693	0.48415	0.86437	0.407
Mof_C 	C 	0.05936	0.48152	0.74988	-0.009
Mof_C 	C 	0.48399	0.05999	0.63853	-0.103
Mof_C 	C 	0.48679	0.09939	0.63201	-0.009
Mof_C 	C 	0.4861	0.09872	0.6729	0.002
Mof_C 	C 	0.48415	0.04693	0.60455	0.407
Mof_C 	C 	0.48152	0.05936	0.70924	-0.009
Mof_C 	C 	0.81749	0.05999	0.48399	-0.103
Mof_C 	C 	0.78181	0.09939	0.48679	-0.009
Mof_C 	C 	0.74228	0.09872	0.4861	0.002
Mof_C 	C 	0.86437	0.04693	0.48415	0.407
Mof_C 	C 	0.74988	0.05936	0.48152	-0.009
Mof_C 	C 	0.63853	0.48399	0.05999	-0.103
Mof_C 	C 	0.63201	0.48679	0.09939	-0.009
Mof_C 	C 	0.6729	0.4861	0.09872	0.002
Mof_C 	C 	0.60455	0.48415	0.04693	0.407
Mof_C 	C 	0.70924	0.48152	0.05936	-0.009
Mof_C 	C 	0.05999	0.81749	0.63853	-0.103
Mof_C 	C 	0.09939	0.78181	0.63201	-0.009
Mof_C 	C 	0.09872	0.74228	0.6729	0.002
Mof_C 	C 	0.04693	0.86437	0.60455	0.407
Mof_C 	C 	0.05936	0.74988	0.70924	-0.009
Mof_C 	C 	0.48399	0.63853	0.81749	-0.103
Mof_C 	C 	0.48679	0.63201	0.78181	-0.009
Mof_C 	C 	0.4861	0.6729	0.74228	0.002
Mof_C 	C 	0.48415	0.60455	0.86437	0.407
Mof_C 	C 	0.48152	0.70924	0.74988	-0.009
Mof_C 	C 	0.81749	0.48399	0.63853	-0.103
Mof_C 	C 	0.78181	0.48679	0.63201	-0.009
Mof_C 	C 	0.74228	0.4861	0.6729	0.002
Mof_C 	C 	0.86437	0.48415	0.60455	0.407
Mof_C 	C 	0.74988	0.48152	0.70924	-0.009
Mof_C 	C 	0.63853	0.05999	0.81749	-0.103
Mof_C 	C 	0.63201	0.09939	0.78181	-0.009
Mof_C 	C 	0.6729	0.09872	0.74228	0.002
Mof_C 	C 	0.60455	0.04693	0.86437	0.407
Mof_C 	C 	0.70924	0.05936	0.74988	-0.009
Mof_C 	C 	0.05999	0.63853	0.48399	-0.103
Mof_C 	C 	0.09939	0.63201	0.48679	-0.009
Mof_C 	C 	0.09872	0.6729	0.4861	0.002
Mof_C 	C 	0.04693	0.60455	0.48415	0.407
Mof_C 	C 	0.05936	0.70924	0.48152	-0.009
Mof_C 	C 	0.48399	0.81749	0.05999	-0.103
Mof_C 	C 	0.48679	0.78181	0.09939	-0.009
Mof_C 	C 	0.4861	0.74228	0.09872	0.002
Mof_C 	C 	0.48415	0.86437	0.04693	0.407
Mof_C 	C 	0.48152	0.74988	0.05936	-0.009
Mof_C 	C 	0.36147	0.18251	0.94001	-0.103
Mof_C 	C 	0.36799	0.21819	0.90061	-0.009
Mof_C 	C 	0.3271	0.25772	0.90128	0.002
Mof_C 	C 	0.39545	0.13563	0.95307	0.407
Mof_C 	C 	0.29076	0.25012	0.94064	-0.009
Mof_C 	C 	0.18251	0.36147	0.51601	-0.103
Mof_C 	C 	0.21819	0.36799	0.51321	-0.009
Mof_C 	C 	0.25772	0.3271	0.5139	0.002
Mof_C 	C 	0.13563	0.39545	0.51585	0.407
Mof_C 	C 	0.25012	0.29076	0.51848	-0.009
Mof_C 	C 	0.51601	0.94001	0.18251	-0.103
Mof_C 	C 	0.51321	0.90061	0.21819	-0.009
Mof_C 	C 	0.5139	0.90128	0.25772	0.002
Mof_C 	C 	0.51585	0.95307	0.13563	0.407
Mof_C 	C 	0.51848	0.94064	0.25012	-0.009
Mof_C 	C 	0.94001	0.51601	0.36147	-0.103
Mof_C 	C 	0.90061	0.51321	0.36799	-0.009
Mof_C 	C 	0.90128	0.5139	0.3271	0.002
Mof_C 	C 	0.95307	0.51585	0.39545	0.407
Mof_C 	C 	0.94064	0.51848	0.29076	-0.009
Mof_C 	C 	0.94001	0.18251	0.51601	-0.103
Mof_C 	C 	0.90061	0.21819	0.51321	-0.009
Mof_C 	C 	0.90128	0.25772	0.5139	0.002
Mof_C 	C 	0.95307	0.13563	0.51585	0.407
Mof_C 	C 	0.94064	0.25012	0.51848	-0.009
Mof_C 	C 	0.51601	0.36147	0.94001	-0.103
Mof_C 	C 	0.51321	0.36799	0.90061	-0.009
Mof_C 	C 	0.5139	0.3271	0.90128	0.002
Mof_C 	C 	0.51585	0.39545	0.95307	0.407
Mof_C 	C 	0.51848	0.29076	0.94064	-0.009
Mof_C 	C 	0.18251	0.94001	0.36147	-0.103
Mof_C 	C 	0.21819	0.90061	0.36799	-0.009
Mof_C 	C 	0.25772	0.90128	0.3271	0.002
Mof_C 	C 	0.13563	0.95307	0.39545	0.407
Mof_C 	C 	0.25012	0.94064	0.29076	-0.009
Mof_C 	C 	0.36147	0.51601	0.18251	-0.103
Mof_C 	C 	0.36799	0.51321	0.21819	-0.009
Mof_C 	C 	0.3271	0.5139	0.25772	0.002
Mof_C 	C 	0.39545	0.51585	0.13563	0.407
Mof_C 	C 	0.29076	0.51848	0.25012	-0.009
Mof_C 	C 	0.51601	0.18251	0.36147	-0.103
Mof_C 	C 	0.51321	0.21819	0.36799	-0.009
Mof_C 	C 	0.5139	0.25772	0.3271	0.002
Mof_C 	C 	0.51585	0.13563	0.39545	0.407
Mof_C 	C 	0.51848	0.25012	0.29076	-0.009
Mof_C 	C 	0.94001	0.36147	0.18251	-0.103
Mof_C 	C 	0.90061	0.36799	0.21819	-0.009
Mof_C 	C 	0.90128	0.3271	0.25772	0.002
Mof_C 	C 	0.95307	0.39545	0.13563	0.407
Mof_C 	C 	0.94064	0.29076	0.25012	-0.009
Mof_C 	C 	0.36147	0.94001	0.51601	-0.103
Mof_C 	C 	0.36799	0.90061	0.51321	-0.009
Mof_C 	C 	0.3271	0.90128	0.5139	0.002
Mof_C 	C 	0.39545	0.95307	0.51585	0.407
Mof_C 	C 	0.29076	0.94064	0.51848	-0.009
Mof_C 	C 	0.18251	0.51601	0.94001	-0.103
Mof_C 	C 	0.21819	0.51321	0.90061	-0.009
Mof_C 	C 	0.25772	0.5139	0.90128	0.002
Mof_C 	C 	0.13563	0.51585	0.95307	0.407
Mof_C 	C 	0.25012	0.51848	0.94064	-0.009
Mof_S 	S 	0.19432	0.30474	0.97808	0.026
Mof_S 	S 	0.30474	0.19432	0.52286	0.026
Mof_S 	S 	0.97808	0.52286	0.19432	0.026
Mof_S 	S 	0.52286	0.97808	0.30474	0.026
Mof_S 	S 	0.19432	0.97808	0.52286	0.026
Mof_S 	S 	0.30474	0.52286	0.97808	0.026
Mof_S 	S 	0.97808	0.19432	0.30474	0.026
Mof_S 	S 	0.52286	0.30474	0.19432	0.026
Mof_S 	S 	0.19432	0.52286	0.30474	0.026
Mof_S 	S 	0.30474	0.97808	0.19432	0.026
Mof_S 	S 	0.97808	0.30474	0.52286	0.026
Mof_S 	S 	0.52286	0.19432	0.97808	0.026
Mof_S 	S 	0.69526	0.80568	0.02192	0.026
Mof_S 	S 	0.80568	0.69526	0.47714	0.026
Mof_S 	S 	0.47714	0.02192	0.80568	0.026
Mof_S 	S 	0.02192	0.47714	0.69526	0.026
Mof_S 	S 	0.02192	0.80568	0.47714	0.026
Mof_S 	S 	0.47714	0.69526	0.02192	0.026
Mof_S 	S 	0.80568	0.02192	0.69526	0.026
Mof_S 	S 	0.69526	0.47714	0.80568	0.026
Mof_S 	S 	0.47714	0.80568	0.69526	0.026
Mof_S 	S 	0.02192	0.69526	0.80568	0.026
Mof_S 	S 	0.69526	0.02192	0.47714	0.026
Mof_S 	S 	0.80568	0.47714	0.02192	0.026
Mof_S 	S 	0.80568	0.69526	0.02192	0.026
Mof_S 	S 	0.69526	0.80568	0.47714	0.026
Mof_S 	S 	0.02192	0.47714	0.80568	0.026
Mof_S 	S 	0.47714	0.02192	0.69526	0.026
Mof_S 	S 	0.80568	0.02192	0.47714	0.026
Mof_S 	S 	0.69526	0.47714	0.02192	0.026
Mof_S 	S 	0.02192	0.80568	0.69526	0.026
Mof_S 	S 	0.47714	0.69526	0.80568	0.026
Mof_S 	S 	0.80568	0.47714	0.69526	0.026
Mof_S 	S 	0.69526	0.02192	0.80568	0.026
Mof_S 	S 	0.02192	0.69526	0.47714	0.026
Mof_S 	S 	0.47714	0.80568	0.02192	0.026
Mof_S 	S 	0.30474	0.19432	0.97808	0.026
Mof_S 	S 	0.19432	0.30474	0.52286	0.026
Mof_S 	S 	0.52286	0.97808	0.19432	0.026
Mof_S 	S 	0.97808	0.52286	0.30474	0.026
Mof_S 	S 	0.97808	0.19432	0.52286	0.026
Mof_S 	S 	0.52286	0.30474	0.97808	0.026
Mof_S 	S 	0.19432	0.97808	0.30474	0.026
Mof_S 	S 	0.30474	0.52286	0.19432	0.026
Mof_S 	S 	0.52286	0.19432	0.30474	0.026
Mof_S 	S 	0.97808	0.30474	0.19432	0.026
Mof_S 	S 	0.30474	0.97808	0.52286	0.026
Mof_S 	S 	0.19432	0.52286	0.97808	0.026
Mof_S 	S 	0.31461	0.31461	0.86331	-0.006
Mof_S 	S 	0.31461	0.31461	0.50747	-0.006
Mof_S 	S 	0.86331	0.50747	0.31461	-0.006
Mof_S 	S 	0.50747	0.86331	0.31461	-0.006
Mof_S 	S 	0.31461	0.86331	0.50747	-0.006
Mof_S 	S 	0.31461	0.50747	0.86331	-0.006
Mof_S 	S 	0.86331	0.31461	0.31461	-0.006
Mof_S 	S 	0.50747	0.31461	0.31461	-0.006
Mof_S 	S 	0.31461	0.50747	0.31461	-0.006
Mof_S 	S 	0.31461	0.86331	0.31461	-0.006
Mof_S 	S 	0.86331	0.31461	0.50747	-0.006
Mof_S 	S 	0.50747	0.31461	0.86331	-0.006
Mof_S 	S 	0.68539	0.68539	0.13669	-0.006
Mof_S 	S 	0.68539	0.68539	0.49253	-0.006
Mof_S 	S 	0.49253	0.13669	0.68539	-0.006
Mof_S 	S 	0.13669	0.49253	0.68539	-0.006
Mof_S 	S 	0.13669	0.68539	0.49253	-0.006
Mof_S 	S 	0.49253	0.68539	0.13669	-0.006
Mof_S 	S 	0.68539	0.13669	0.68539	-0.006
Mof_S 	S 	0.68539	0.49253	0.68539	-0.006
Mof_S 	S 	0.49253	0.68539	0.68539	-0.006
Mof_S 	S 	0.13669	0.68539	0.68539	-0.006
Mof_S 	S 	0.68539	0.13669	0.49253	-0.006
Mof_S 	S 	0.68539	0.49253	0.13669	-0.006
Mof_O 	O 	0.12866	0.43596	0.92454	-0.382
Mof_O 	O 	0.10718	0.3808	0.99192	-0.401
Mof_O 	O 	0.43596	0.12866	0.51084	-0.382
Mof_O 	O 	0.3808	0.10718	0.5201	-0.402
Mof_O 	O 	0.92454	0.51084	0.12866	-0.382
Mof_O 	O 	0.99192	0.5201	0.10718	-0.401
Mof_O 	O 	0.51084	0.92454	0.43596	-0.382
Mof_O 	O 	0.5201	0.99192	0.3808	-0.401
Mof_O 	O 	0.12866	0.92454	0.51084	-0.382
Mof_O 	O 	0.10718	0.99192	0.5201	-0.401
Mof_O 	O 	0.43596	0.51084	0.92454	-0.382
Mof_O 	O 	0.3808	0.5201	0.99192	-0.401
Mof_O 	O 	0.92454	0.12866	0.43596	-0.382
Mof_O 	O 	0.99192	0.10718	0.3808	-0.401
Mof_O 	O 	0.51084	0.43596	0.12866	-0.382
Mof_O 	O 	0.5201	0.3808	0.10718	-0.402
Mof_O 	O 	0.12866	0.51084	0.43596	-0.382
Mof_O 	O 	0.10718	0.5201	0.3808	-0.402
Mof_O 	O 	0.43596	0.92454	0.12866	-0.382
Mof_O 	O 	0.3808	0.99192	0.10718	-0.401
Mof_O 	O 	0.92454	0.43596	0.51084	-0.382
Mof_O 	O 	0.99192	0.3808	0.5201	-0.401
Mof_O 	O 	0.51084	0.12866	0.92454	-0.382
Mof_O 	O 	0.5201	0.10718	0.99192	-0.401
Mof_O 	O 	0.56404	0.87134	0.07546	-0.382
Mof_O 	O 	0.6192	0.89282	0.00808	-0.401
Mof_O 	O 	0.87134	0.56404	0.48916	-0.382
Mof_O 	O 	0.89282	0.6192	0.4799	-0.402
Mof_O 	O 	0.48916	0.07546	0.87134	-0.382
Mof_O 	O 	0.4799	0.00808	0.89282	-0.401
Mof_O 	O 	0.07546	0.48916	0.56404	-0.382
Mof_O 	O 	0.00808	0.4799	0.6192	-0.401
Mof_O 	O 	0.07546	0.87134	0.48916	-0.382
Mof_O 	O 	0.00808	0.89282	0.4799	-0.401
Mof_O 	O 	0.48916	0.56404	0.07546	-0.382
Mof_O 	O 	0.4799	0.6192	0.00808	-0.401
Mof_O 	O 	0.87134	0.07546	0.56404	-0.382
Mof_O 	O 	0.89282	0.00808	0.6192	-0.401
Mof_O 	O 	0.56404	0.48916	0.87134	-0.382
Mof_O 	O 	0.6192	0.4799	0.89282	-0.402
Mof_O 	O 	0.48916	0.87134	0.56404	-0.382
Mof_O 	O 	0.4799	0.89282	0.6192	-0.402
Mof_O 	O 	0.07546	0.56404	0.87134	-0.382
Mof_O 	O 	0.00808	0.6192	0.89282	-0.401
Mof_O 	O 	0.56404	0.07546	0.48916	-0.382
Mof_O 	O 	0.6192	0.00808	0.4799	-0.401
Mof_O 	O 	0.87134	0.48916	0.07546	-0.382
Mof_O 	O 	0.89282	0.4799	0.00808	-0.401
Mof_O 	O 	0.87134	0.56404	0.07546	-0.382
Mof_O 	O 	0.89282	0.6192	0.00808	-0.401
Mof_O 	O 	0.56404	0.87134	0.48916	-0.382
Mof_O 	O 	0.6192	0.89282	0.4799	-0.402
Mof_O 	O 	0.07546	0.48916	0.87134	-0.382
Mof_O 	O 	0.00808	0.4799	0.89282	-0.401
Mof_O 	O 	0.48916	0.07546	0.56404	-0.382
Mof_O 	O 	0.4799	0.00808	0.6192	-0.401
Mof_O 	O 	0.87134	0.07546	0.48916	-0.382
Mof_O 	O 	0.89282	0.00808	0.4799	-0.401
Mof_O 	O 	0.56404	0.48916	0.07546	-0.382
Mof_O 	O 	0.6192	0.4799	0.00808	-0.401
Mof_O 	O 	0.07546	0.87134	0.56404	-0.382
Mof_O 	O 	0.00808	0.89282	0.6192	-0.401
Mof_O 	O 	0.48916	0.56404	0.87134	-0.382
Mof_O 	O 	0.4799	0.6192	0.89282	-0.402
Mof_O 	O 	0.87134	0.48916	0.56404	-0.382
Mof_O 	O 	0.89282	0.4799	0.6192	-0.402
Mof_O 	O 	0.56404	0.07546	0.87134	-0.382
Mof_O 	O 	0.6192	0.00808	0.89282	-0.401
Mof_O 	O 	0.07546	0.56404	0.48916	-0.382
Mof_O 	O 	0.00808	0.6192	0.4799	-0.401
Mof_O 	O 	0.48916	0.87134	0.07546	-0.382
Mof_O 	O 	0.4799	0.89282	0.00808	-0.401
Mof_O 	O 	0.43596	0.12866	0.92454	-0.382
Mof_O 	O 	0.3808	0.10718	0.99192	-0.401
Mof_O 	O 	0.12866	0.43596	0.51084	-0.382
Mof_O 	O 	0.10718	0.3808	0.5201	-0.402
Mof_O 	O 	0.51084	0.92454	0.12866	-0.382
Mof_O 	O 	0.5201	0.99192	0.10718	-0.401
Mof_O 	O 	0.92454	0.51084	0.43596	-0.382
Mof_O 	O 	0.99192	0.5201	0.3808	-0.401
Mof_O 	O 	0.92454	0.12866	0.51084	-0.382
Mof_O 	O 	0.99192	0.10718	0.5201	-0.401
Mof_O 	O 	0.51084	0.43596	0.92454	-0.382
Mof_O 	O 	0.5201	0.3808	0.99192	-0.401
Mof_O 	O 	0.12866	0.92454	0.43596	-0.382
Mof_O 	O 	0.10718	0.99192	0.3808	-0.401
Mof_O 	O 	0.43596	0.51084	0.12866	-0.382
Mof_O 	O 	0.3808	0.5201	0.10718	-0.402
Mof_O 	O 	0.51084	0.12866	0.43596	-0.382
Mof_O 	O 	0.5201	0.10718	0.3808	-0.402
Mof_O 	O 	0.92454	0.43596	0.12866	-0.382
Mof_O 	O 	0.99192	0.3808	0.10718	-0.401
Mof_O 	O 	0.43596	0.92454	0.51084	-0.382
Mof_O 	O 	0.3808	0.99192	0.5201	-0.401
Mof_O 	O 	0.12866	0.51084	0.92454	-0.382
Mof_O 	O 	0.10718	0.5201	0.99192	-0.401
Mof_O 	O 	0.06891	0.46503	0.00103	-0.522
Mof_O 	O 	0.46503	0.06891	0.46503	-0.522
Mof_O 	O 	0.00103	0.46503	0.06891	-0.522
Mof_O 	O 	0.46503	0.00103	0.46503	-0.522
Mof_O 	O 	0.06891	0.00103	0.46503	-0.522
Mof_O 	O 	0.46503	0.46503	0.00103	-0.522
Mof_O 	O 	0.00103	0.06891	0.46503	-0.522
Mof_O 	O 	0.46503	0.46503	0.06891	-0.522
Mof_O 	O 	0.06891	0.46503	0.46503	-0.522
Mof_O 	O 	0.46503	0.00103	0.06891	-0.522
Mof_O 	O 	0.00103	0.46503	0.46503	-0.522
Mof_O 	O 	0.46503	0.06891	0.00103	-0.522
Mof_O 	O 	0.53497	0.93109	0.99897	-0.522
Mof_O 	O 	0.93109	0.53497	0.53497	-0.522
Mof_O 	O 	0.53497	0.99897	0.93109	-0.522
Mof_O 	O 	0.99897	0.53497	0.53497	-0.522
Mof_O 	O 	0.99897	0.93109	0.53497	-0.522
Mof_O 	O 	0.53497	0.53497	0.99897	-0.522
Mof_O 	O 	0.93109	0.99897	0.53497	-0.522
Mof_O 	O 	0.53497	0.53497	0.93109	-0.522
Mof_O 	O 	0.53497	0.93109	0.53497	-0.522
Mof_O 	O 	0.99897	0.53497	0.93109	-0.522
Mof_O 	O 	0.53497	0.99897	0.53497	-0.522
Mof_O 	O 	0.93109	0.53497	0.99897	-0.522
Mof_O 	O 	0.03403	0.54913	0.96597	-0.52
Mof_O 	O 	0.54913	0.03403	0.45087	-0.521
Mof_O 	O 	0.96597	0.45087	0.03403	-0.52
Mof_O 	O 	0.45087	0.96597	0.54913	-0.521
Mof_O 	O 	0.03403	0.96597	0.45087	-0.52
Mof_O 	O 	0.54913	0.45087	0.96597	-0.521
Mof_O 	O 	0.96597	0.03403	0.54913	-0.52
Mof_O 	O 	0.45087	0.54913	0.03403	-0.521
Mof_O 	O 	0.03403	0.45087	0.54913	-0.521
Mof_O 	O 	0.54913	0.96597	0.03403	-0.52
Mof_O 	O 	0.96597	0.54913	0.45087	-0.521
Mof_O 	O 	0.45087	0.03403	0.96597	-0.52
Mof_O 	O 	0.45087	0.96597	0.03403	-0.52
Mof_O 	O 	0.96597	0.45087	0.54913	-0.521
Mof_O 	O 	0.54913	0.03403	0.96597	-0.52
Mof_O 	O 	0.03403	0.54913	0.45087	-0.521
Mof_O 	O 	0.03403	0.96597	0.54913	-0.52
Mof_O 	O 	0.54913	0.45087	0.03403	-0.521
Mof_O 	O 	0.96597	0.03403	0.45087	-0.52
Mof_O 	O 	0.45087	0.54913	0.96597	-0.521
Mof_O 	O 	0.54913	0.96597	0.45087	-0.521
Mof_O 	O 	0.03403	0.45087	0.96597	-0.52
Mof_O 	O 	0.45087	0.03403	0.54913	-0.521
Mof_O 	O 	0.96597	0.54913	0.03403	-0.52
_end
