# CIF file generated by openbabel 3.1.0, see https://openbabel.org
data_I
_chemical_name_common 'image0'
_cell_length_a 10.2363
_cell_length_b 10.6504
_cell_length_c 6.2225
_cell_angle_alpha 90
_cell_angle_beta 114.522
_cell_angle_gamma 90
_space_group_name_H-M_alt 'P 1'
_space_group_name_Hall 'P 1'
loop_
    _symmetry_equiv_pos_as_xyz
    x,y,z
loop_
    _atom_site_label
    _atom_site_type_symbol
    _atom_site_fract_x
    _atom_site_fract_y
    _atom_site_fract_z
    _atom_site_occupancy
    C1       C        0.31790    0.21090    0.54550    1.000
    H1       H        0.40090    0.26570    0.56960    1.000
    H2       H        0.33300    0.17420    0.70020    1.000
    N1       N        0.31070    0.10910    0.38010    1.000
    H3       H        0.29490    0.14350    0.23580    1.000
    H4       H        0.23400    0.05780    0.35950    1.000
    C2       C        0.81790    0.71090    0.54550    1.000
    H5       H        0.90090    0.76570    0.56960    1.000
    H6       H        0.83300    0.67420    0.70020    1.000
    N2       N        0.81070    0.60910    0.38010    1.000
    H7       H        0.79490    0.64350    0.23580    1.000
    H8       H        0.73400    0.55780    0.35950    1.000
    C3       C        0.68210    0.21090    0.95450    1.000
    H9       H        0.59910    0.26570    0.93040    1.000
    H10      H        0.66700    0.17420    0.79980    1.000
    N3       N        0.68930    0.10910    0.11990    1.000
    H11      H        0.70510    0.14350    0.26420    1.000
    H12      H        0.76600    0.05780    0.14050    1.000
    C4       C        0.18210    0.71090    0.95450    1.000
    H13      H        0.09910    0.76570    0.93040    1.000
    H14      H        0.16700    0.67420    0.79980    1.000
    N4       N        0.18930    0.60910    0.11990    1.000
    H15      H        0.20510    0.64350    0.26420    1.000
    H16      H        0.26600    0.55780    0.14050    1.000
    C5       C        0.68210    0.78910    0.45450    1.000
    H17      H        0.59910    0.73430    0.43040    1.000
    H18      H        0.66700    0.82580    0.29980    1.000
    N5       N        0.68930    0.89090    0.61990    1.000
    H19      H        0.70510    0.85650    0.76420    1.000
    H20      H        0.76600    0.94220    0.64050    1.000
    C6       C        0.18210    0.28910    0.45450    1.000
    H21      H        0.09910    0.23430    0.43040    1.000
    H22      H        0.16700    0.32580    0.29980    1.000
    N6       N        0.18930    0.39090    0.61990    1.000
    H23      H        0.20510    0.35650    0.76420    1.000
    H24      H        0.26600    0.44220    0.64050    1.000
    C7       C        0.31790    0.78910    0.04550    1.000
    H25      H        0.40090    0.73430    0.06960    1.000
    H26      H        0.33300    0.82580    0.20020    1.000
    N7       N        0.31070    0.89090    0.88010    1.000
    H27      H        0.29490    0.85650    0.73580    1.000
    H28      H        0.23400    0.94220    0.85950    1.000
    C8       C        0.81790    0.28910    0.04550    1.000
    H29      H        0.90090    0.23430    0.06960    1.000
    H30      H        0.83300    0.32580    0.20020    1.000
    N8       N        0.81070    0.39090    0.88010    1.000
    H31      H        0.79490    0.35650    0.73580    1.000
    H32      H        0.73400    0.44220    0.85950    1.000
    Ag1      Ag       0.50000    0.00000    0.50000    1.000
    Ag2      Ag       0.00000    0.50000    0.50000    1.000
    Ag3      Ag       0.50000    0.00000    0.00000    1.000
    Ag4      Ag       0.00000    0.50000    0.00000    1.000
