data_functionalizedCrystal
_audit_creation_method	'EQeq! by Chris Wilmer'
_symmetry_space_group_name_H-M	'P1'
_symmetry_Int_Tables_number	1
_symmetry_cell_setting	triclinic
loop_
_symmetry_equiv_pos_as_xyz
  x,y,z
_cell_length_a	14.012
_cell_length_b	28.28
_cell_length_c	44.907
_cell_angle_alpha	90
_cell_angle_beta	90
_cell_angle_gamma	90
loop_
_atom_site_label
_atom_site_type_symbol
_atom_site_fract_x
_atom_site_fract_y
_atom_site_fract_z
_atom_site_charge
Mof_Zn	Zn	0.33131	0.7634	0.18106	1.166
Mof_Zn	Zn	0.36712	0.94838	0.91511	1.166
Mof_Zn	Zn	0.11692	0.98042	0.08488	1.166
Mof_Zn	Zn	0.66869	0.7366	0.68106	1.166
Mof_Zn	Zn	0.63288	0.55162	0.41511	1.166
Mof_Zn	Zn	0.88308	0.51958	0.58488	1.166
Mof_Zn	Zn	0.83131	0.2366	0.31894	1.166
Mof_Zn	Zn	0.86712	0.05162	0.58489	1.166
Mof_Zn	Zn	0.61692	0.01958	0.41512	1.166
Mof_Zn	Zn	0.16869	0.2634	0.81894	1.166
Mof_Zn	Zn	0.13288	0.44838	0.08489	1.166
Mof_Zn	Zn	0.38308	0.48042	0.91512	1.166
Mof_H 	H 	0.2971	0.8264	0.1304	-0.007
Mof_H 	H 	0.3779	0.8679	0.0935	0.088
Mof_H 	H 	0.6257	0.822	0.1299	0.084
Mof_H 	H 	0.5375	0.7831	0.1655	-0.013
Mof_H 	H 	0.9711	0.9236	0.1174	-0.007
Mof_H 	H 	0.8159	0.8977	0.1124	0.098
Mof_H 	H 	0.8192	0.9452	0.0276	0.093
Mof_H 	H 	0.974	0.9709	0.035	-0.006
Mof_H 	H 	0.3064	0.9313	0.9797	-0.003
Mof_H 	H 	0.3774	0.9142	0.0255	0.079
Mof_H 	H 	0.6326	0.9423	0.9877	0.092
Mof_H 	H 	0.5549	0.9598	0.9439	-0.018
Mof_H 	H 	0.6198	0.6551	0.4315	-0.017
Mof_H 	H 	0.5928	0.7282	0.4087	0.079
Mof_H 	H 	0.5222	0.6575	0.3339	0.08
Mof_H 	H 	0.5469	0.5876	0.3588	-0.01
Mof_H 	H 	0.5912	0.9172	0.4305	-0.012
Mof_H 	H 	0.5656	0.8447	0.4073	0.082
Mof_H 	H 	0.5442	0.9124	0.3287	0.081
Mof_H 	H 	0.5705	0.9834	0.3539	-0.009
Mof_H 	H 	0.3911	0.8407	0.2226	-0.01
Mof_H 	H 	0.4523	0.8495	0.2706	0.078
Mof_H 	H 	0.4883	0.7085	0.2742	0.08
Mof_H 	H 	0.4307	0.7027	0.2262	-0.002
Mof_H 	H 	0.7029	0.6736	0.6304	-0.008
Mof_H 	H 	0.6221	0.6321	0.5935	0.087
Mof_H 	H 	0.3743	0.678	0.6299	0.083
Mof_H 	H 	0.4625	0.7169	0.6655	-0.014
Mof_H 	H 	0.0289	0.5764	0.6174	-0.008
Mof_H 	H 	0.1841	0.6023	0.6124	0.098
Mof_H 	H 	0.1808	0.5548	0.5276	0.093
Mof_H 	H 	0.026	0.5291	0.535	-0.007
Mof_H 	H 	0.6936	0.5687	0.4797	-0.003
Mof_H 	H 	0.6226	0.5858	0.5255	0.079
Mof_H 	H 	0.3674	0.5577	0.4877	0.092
Mof_H 	H 	0.4451	0.5402	0.4439	-0.018
Mof_H 	H 	0.3802	0.8449	0.9315	-0.017
Mof_H 	H 	0.4072	0.7718	0.9087	0.079
Mof_H 	H 	0.4778	0.8425	0.8339	0.08
Mof_H 	H 	0.4531	0.9124	0.8588	-0.01
Mof_H 	H 	0.4088	0.5828	0.9305	-0.012
Mof_H 	H 	0.4344	0.6553	0.9073	0.082
Mof_H 	H 	0.4558	0.5876	0.8287	0.081
Mof_H 	H 	0.4295	0.5166	0.8539	-0.009
Mof_H 	H 	0.6089	0.6593	0.7226	-0.01
Mof_H 	H 	0.5477	0.6505	0.7706	0.078
Mof_H 	H 	0.5117	0.7915	0.7742	0.08
Mof_H 	H 	0.5693	0.7973	0.7262	-0.002
Mof_H 	H 	0.7971	0.1736	0.3696	-0.008
Mof_H 	H 	0.8779	0.1321	0.4065	0.087
Mof_H 	H 	0.1257	0.178	0.3701	0.083
Mof_H 	H 	0.0375	0.2169	0.3345	-0.014
Mof_H 	H 	0.4711	0.0764	0.3826	-0.008
Mof_H 	H 	0.3159	0.1023	0.3876	0.098
Mof_H 	H 	0.3192	0.0548	0.4724	0.093
Mof_H 	H 	0.474	0.0291	0.465	-0.007
Mof_H 	H 	0.8064	0.0687	0.5203	-0.003
Mof_H 	H 	0.8774	0.0858	0.4745	0.08
Mof_H 	H 	0.1326	0.0577	0.5123	0.092
Mof_H 	H 	0.0549	0.0402	0.5561	-0.018
Mof_H 	H 	0.1198	0.3449	0.0685	-0.017
Mof_H 	H 	0.0928	0.2718	0.0913	0.079
Mof_H 	H 	0.0222	0.3425	0.1661	0.08
Mof_H 	H 	0.0469	0.4124	0.1412	-0.01
Mof_H 	H 	0.0912	0.0828	0.0695	-0.012
Mof_H 	H 	0.0656	0.1553	0.0927	0.082
Mof_H 	H 	0.0442	0.0876	0.1713	0.081
Mof_H 	H 	0.0705	0.0166	0.1461	-0.009
Mof_H 	H 	0.8911	0.1593	0.2774	-0.01
Mof_H 	H 	0.9523	0.1505	0.2294	0.078
Mof_H 	H 	0.9883	0.2915	0.2258	0.08
Mof_H 	H 	0.9307	0.2973	0.2738	-0.002
Mof_H 	H 	0.2029	0.3264	0.8696	-0.008
Mof_H 	H 	0.1221	0.3679	0.9065	0.086
Mof_H 	H 	0.8743	0.322	0.8701	0.083
Mof_H 	H 	0.9625	0.2831	0.8345	-0.014
Mof_H 	H 	0.5289	0.4236	0.8826	-0.008
Mof_H 	H 	0.6841	0.3977	0.8876	0.098
Mof_H 	H 	0.6808	0.4452	0.9724	0.093
Mof_H 	H 	0.526	0.4709	0.965	-0.007
Mof_H 	H 	0.1936	0.4313	0.0203	-0.003
Mof_H 	H 	0.1226	0.4142	0.9745	0.079
Mof_H 	H 	0.8674	0.4423	0.0123	0.092
Mof_H 	H 	0.9451	0.4598	0.0561	-0.018
Mof_H 	H 	0.8802	0.1551	0.5685	-0.017
Mof_H 	H 	0.9072	0.2282	0.5913	0.079
Mof_H 	H 	0.9778	0.1575	0.6661	0.08
Mof_H 	H 	0.9531	0.0876	0.6412	-0.01
Mof_H 	H 	0.9088	0.4172	0.5695	-0.012
Mof_H 	H 	0.9344	0.3447	0.5927	0.082
Mof_H 	H 	0.9558	0.4124	0.6713	0.081
Mof_H 	H 	0.9295	0.4834	0.6461	-0.009
Mof_H 	H 	0.1089	0.3407	0.7774	-0.01
Mof_H 	H 	0.0477	0.3495	0.7294	0.079
Mof_H 	H 	0.0117	0.2085	0.7258	0.081
Mof_H 	H 	0.0693	0.2027	0.7738	-0.002
Mof_C 	C 	0.3649	0.8258	0.13021	0.075
Mof_C 	C 	0.4124	0.8502	0.10784	-0.115
Mof_C 	C 	0.5112	0.8482	0.10696	0.063
Mof_C 	C 	0.558	0.8232	0.1293	-0.123
Mof_C 	C 	0.505	0.8005	0.15052	0.075
Mof_C 	C 	0.5642	0.8736	0.08297	0.105
Mof_C 	C 	0.6985	0.9059	0.06543	0.09
Mof_C 	C 	0.5635	0.9105	0.03858	0.098
Mof_C 	C 	0.9392	0.9287	0.09905	0.078
Mof_C 	C 	0.847	0.9128	0.09622	-0.129
Mof_C 	C 	0.7999	0.9192	0.0693	0.057
Mof_C 	C 	0.8489	0.9409	0.04644	-0.128
Mof_C 	C 	0.941	0.9561	0.05096	0.075
Mof_C 	C 	0.3739	0.9327	0.98128	0.067
Mof_C 	C 	0.4156	0.9223	0.0088	-0.116
Mof_C 	C 	0.5135	0.9241	0.01088	0.055
Mof_C 	C 	0.5652	0.939	0.98644	-0.126
Mof_C 	C 	0.5184	0.9491	0.96035	0.074
Mof_C 	C 	0.5998	0.6557	0.41132	0.072
Mof_C 	C 	0.5846	0.6997	0.39777	-0.12
Mof_C 	C 	0.5575	0.7006	0.36832	0.053
Mof_C 	C 	0.5428	0.658	0.35408	-0.117
Mof_C 	C 	0.558	0.6165	0.36896	0.062
Mof_C 	C 	0.5431	0.8251	0.35034	0.097
Mof_C 	C 	0.5432	0.7457	0.35203	0.105
Mof_C 	C 	0.5057	0.783	0.30926	0.105
Mof_C 	C 	0.5827	0.9163	0.4095	0.076
Mof_C 	C 	0.5676	0.8728	0.39578	-0.119
Mof_C 	C 	0.5556	0.8709	0.36557	0.059
Mof_C 	C 	0.555	0.9125	0.34954	-0.117
Mof_C 	C 	0.5705	0.9546	0.3648	0.069
Mof_C 	C 	0.4112	0.8134	0.23326	0.062
Mof_C 	C 	0.4469	0.8189	0.26201	-0.113
Mof_C 	C 	0.4742	0.7795	0.27785	0.049
Mof_C 	C 	0.4683	0.7362	0.26397	-0.113
Mof_C 	C 	0.4338	0.7329	0.23544	0.063
Mof_C 	C 	0.6351	0.6742	0.63021	0.075
Mof_C 	C 	0.5876	0.6498	0.60784	-0.115
Mof_C 	C 	0.4888	0.6518	0.60696	0.063
Mof_C 	C 	0.442	0.6768	0.6293	-0.123
Mof_C 	C 	0.495	0.6995	0.65052	0.075
Mof_C 	C 	0.4358	0.6264	0.58297	0.105
Mof_C 	C 	0.3015	0.5941	0.56543	0.09
Mof_C 	C 	0.4365	0.5895	0.53858	0.098
Mof_C 	C 	0.0608	0.5713	0.59905	0.078
Mof_C 	C 	0.153	0.5872	0.59622	-0.129
Mof_C 	C 	0.2001	0.5808	0.5693	0.056
Mof_C 	C 	0.1511	0.5591	0.54644	-0.128
Mof_C 	C 	0.059	0.5439	0.55096	0.075
Mof_C 	C 	0.6261	0.5673	0.48128	0.067
Mof_C 	C 	0.5844	0.5777	0.5088	-0.116
Mof_C 	C 	0.4865	0.5759	0.51088	0.055
Mof_C 	C 	0.4348	0.561	0.48644	-0.126
Mof_C 	C 	0.4816	0.5509	0.46035	0.074
Mof_C 	C 	0.4002	0.8443	0.91132	0.072
Mof_C 	C 	0.4154	0.8003	0.89777	-0.12
Mof_C 	C 	0.4425	0.7994	0.86832	0.053
Mof_C 	C 	0.4572	0.842	0.85408	-0.117
Mof_C 	C 	0.442	0.8835	0.86896	0.062
Mof_C 	C 	0.4569	0.6749	0.85034	0.097
Mof_C 	C 	0.4568	0.7543	0.85203	0.105
Mof_C 	C 	0.4943	0.717	0.80926	0.105
Mof_C 	C 	0.4173	0.5837	0.9095	0.076
Mof_C 	C 	0.4324	0.6272	0.89578	-0.119
Mof_C 	C 	0.4444	0.6291	0.86557	0.059
Mof_C 	C 	0.445	0.5875	0.84954	-0.117
Mof_C 	C 	0.4295	0.5454	0.8648	0.069
Mof_C 	C 	0.5888	0.6866	0.73326	0.062
Mof_C 	C 	0.5531	0.6811	0.76201	-0.113
Mof_C 	C 	0.5258	0.7205	0.77785	0.049
Mof_C 	C 	0.5317	0.7638	0.76397	-0.113
Mof_C 	C 	0.5662	0.7671	0.73544	0.063
Mof_C 	C 	0.8649	0.1742	0.36979	0.075
Mof_C 	C 	0.9124	0.1498	0.39216	-0.116
Mof_C 	C 	0.0112	0.1518	0.39304	0.063
Mof_C 	C 	0.058	0.1768	0.3707	-0.123
Mof_C 	C 	0.005	0.1995	0.34948	0.075
Mof_C 	C 	0.0642	0.1264	0.41703	0.105
Mof_C 	C 	0.1985	0.0941	0.43457	0.09
Mof_C 	C 	0.0635	0.0895	0.46142	0.098
Mof_C 	C 	0.4392	0.0713	0.40095	0.078
Mof_C 	C 	0.347	0.0872	0.40378	-0.129
Mof_C 	C 	0.2999	0.0808	0.4307	0.057
Mof_C 	C 	0.3489	0.0591	0.45356	-0.128
Mof_C 	C 	0.441	0.0439	0.44904	0.075
Mof_C 	C 	0.8739	0.0673	0.51872	0.067
Mof_C 	C 	0.9156	0.0777	0.4912	-0.117
Mof_C 	C 	0.0135	0.0759	0.48912	0.056
Mof_C 	C 	0.0652	0.061	0.51356	-0.127
Mof_C 	C 	0.0184	0.0509	0.53965	0.075
Mof_C 	C 	0.0998	0.3443	0.08868	0.072
Mof_C 	C 	0.0846	0.3003	0.10223	-0.12
Mof_C 	C 	0.0575	0.2994	0.13168	0.053
Mof_C 	C 	0.0428	0.342	0.14592	-0.117
Mof_C 	C 	0.058	0.3835	0.13104	0.062
Mof_C 	C 	0.0431	0.1749	0.14966	0.097
Mof_C 	C 	0.0432	0.2543	0.14797	0.105
Mof_C 	C 	0.0057	0.217	0.19074	0.105
Mof_C 	C 	0.0827	0.0837	0.0905	0.076
Mof_C 	C 	0.0676	0.1272	0.10422	-0.119
Mof_C 	C 	0.0556	0.1291	0.13443	0.059
Mof_C 	C 	0.055	0.0875	0.15046	-0.117
Mof_C 	C 	0.0705	0.0454	0.1352	0.069
Mof_C 	C 	0.9112	0.1866	0.26674	0.062
Mof_C 	C 	0.9469	0.1811	0.23799	-0.113
Mof_C 	C 	0.9742	0.2205	0.22215	0.049
Mof_C 	C 	0.9683	0.2638	0.23603	-0.113
Mof_C 	C 	0.9338	0.2671	0.26456	0.063
Mof_C 	C 	0.1351	0.3258	0.86979	0.074
Mof_C 	C 	0.0876	0.3502	0.89216	-0.114
Mof_C 	C 	0.9888	0.3482	0.89304	0.061
Mof_C 	C 	0.942	0.3232	0.8707	-0.122
Mof_C 	C 	0.995	0.3005	0.84948	0.074
Mof_C 	C 	0.9358	0.3736	0.91703	0.106
Mof_C 	C 	0.8015	0.4059	0.93457	0.09
Mof_C 	C 	0.9365	0.4105	0.96142	0.098
Mof_C 	C 	0.5608	0.4287	0.90095	0.078
Mof_C 	C 	0.653	0.4128	0.90378	-0.129
Mof_C 	C 	0.7001	0.4192	0.9307	0.056
Mof_C 	C 	0.6511	0.4409	0.95356	-0.128
Mof_C 	C 	0.559	0.4561	0.94904	0.075
Mof_C 	C 	0.1261	0.4327	0.01872	0.067
Mof_C 	C 	0.0844	0.4223	0.9912	-0.116
Mof_C 	C 	0.9865	0.4241	0.98912	0.055
Mof_C 	C 	0.9348	0.439	0.01356	-0.126
Mof_C 	C 	0.9816	0.4491	0.03965	0.074
Mof_C 	C 	0.9002	0.1557	0.58868	0.072
Mof_C 	C 	0.9154	0.1997	0.60223	-0.12
Mof_C 	C 	0.9425	0.2006	0.63168	0.053
Mof_C 	C 	0.9572	0.158	0.64592	-0.117
Mof_C 	C 	0.942	0.1165	0.63104	0.062
Mof_C 	C 	0.9569	0.3251	0.64966	0.097
Mof_C 	C 	0.9568	0.2457	0.64797	0.104
Mof_C 	C 	0.9943	0.283	0.69074	0.104
Mof_C 	C 	0.9173	0.4163	0.5905	0.076
Mof_C 	C 	0.9324	0.3728	0.60422	-0.119
Mof_C 	C 	0.9444	0.3709	0.63443	0.059
Mof_C 	C 	0.945	0.4125	0.65046	-0.117
Mof_C 	C 	0.9295	0.4546	0.6352	0.069
Mof_C 	C 	0.0888	0.3134	0.76674	0.062
Mof_C 	C 	0.0531	0.3189	0.73799	-0.113
Mof_C 	C 	0.0258	0.2795	0.72215	0.051
Mof_C 	C 	0.0317	0.2362	0.73603	-0.113
Mof_C 	C 	0.0662	0.2329	0.76456	0.063
Mof_I 	I 	0.16895	0.80328	0.18756	-0.369
Mof_I 	I 	0.33536	0.67723	0.16488	-0.373
Mof_I 	I 	0.18713	0.94183	0.91775	-0.386
Mof_I 	I 	0.45478	0.01207	0.88593	-0.361
Mof_I 	I 	0.19254	0.9991	0.03437	-0.393
Mof_I 	I 	0.20276	0.92937	0.12227	-0.373
Mof_I 	I 	0.83105	0.69672	0.68756	-0.369
Mof_I 	I 	0.66464	0.82277	0.66488	-0.373
Mof_I 	I 	0.81287	0.55817	0.41775	-0.385
Mof_I 	I 	0.54522	0.48793	0.38593	-0.361
Mof_I 	I 	0.80746	0.5009	0.53437	-0.392
Mof_I 	I 	0.79724	0.57063	0.62227	-0.373
Mof_I 	I 	0.66895	0.19672	0.31244	-0.369
Mof_I 	I 	0.83536	0.32277	0.33512	-0.373
Mof_I 	I 	0.68713	0.05817	0.58225	-0.386
Mof_I 	I 	0.95478	0.98793	0.61407	-0.36
Mof_I 	I 	0.69254	0.0009	0.46563	-0.393
Mof_I 	I 	0.70276	0.07063	0.37773	-0.373
Mof_I 	I 	0.33105	0.30328	0.81244	-0.369
Mof_I 	I 	0.16464	0.17723	0.83512	-0.372
Mof_I 	I 	0.31287	0.44183	0.08225	-0.386
Mof_I 	I 	0.04522	0.51207	0.11407	-0.361
Mof_I 	I 	0.30746	0.4991	0.96563	-0.392
Mof_I 	I 	0.29724	0.42937	0.87773	-0.373
Mof_N 	N 	0.4092	0.8018	0.15116	-0.278
Mof_N 	N 	0.5136	0.8874	0.05921	-0.138
Mof_N 	N 	0.6572	0.8811	0.08711	-0.134
Mof_N 	N 	0.6548	0.9213	0.04081	-0.145
Mof_N 	N 	0.9862	0.9508	0.07727	-0.276
Mof_N 	N 	0.424	0.9446	0.95698	-0.277
Mof_N 	N 	0.5877	0.6149	0.39729	-0.274
Mof_N 	N 	0.5563	0.7858	0.36652	-0.14
Mof_N 	N 	0.5174	0.7421	0.32349	-0.141
Mof_N 	N 	0.5172	0.8255	0.32113	-0.138
Mof_N 	N 	0.5856	0.9563	0.39432	-0.271
Mof_N 	N 	0.4043	0.7708	0.22018	-0.273
Mof_N 	N 	0.5908	0.6982	0.65116	-0.278
Mof_N 	N 	0.4864	0.6126	0.55921	-0.138
Mof_N 	N 	0.3428	0.6189	0.58711	-0.134
Mof_N 	N 	0.3452	0.5787	0.54081	-0.145
Mof_N 	N 	0.0138	0.5492	0.57727	-0.276
Mof_N 	N 	0.576	0.5554	0.45698	-0.277
Mof_N 	N 	0.4123	0.8851	0.89729	-0.274
Mof_N 	N 	0.4437	0.7142	0.86652	-0.14
Mof_N 	N 	0.4826	0.7579	0.82349	-0.141
Mof_N 	N 	0.4828	0.6745	0.82113	-0.138
Mof_N 	N 	0.4144	0.5437	0.89432	-0.271
Mof_N 	N 	0.5957	0.7292	0.72018	-0.273
Mof_N 	N 	0.9092	0.1982	0.34884	-0.278
Mof_N 	N 	0.0136	0.1126	0.44079	-0.138
Mof_N 	N 	0.1572	0.1189	0.41289	-0.134
Mof_N 	N 	0.1548	0.0787	0.45919	-0.145
Mof_N 	N 	0.4862	0.0492	0.42273	-0.276
Mof_N 	N 	0.924	0.0554	0.54302	-0.278
Mof_N 	N 	0.0877	0.3851	0.10271	-0.274
Mof_N 	N 	0.0563	0.2142	0.13348	-0.14
Mof_N 	N 	0.0174	0.2579	0.17651	-0.141
Mof_N 	N 	0.0172	0.1745	0.17887	-0.138
Mof_N 	N 	0.0856	0.0437	0.10568	-0.271
Mof_N 	N 	0.9043	0.2292	0.27982	-0.273
Mof_N 	N 	0.0908	0.3018	0.84884	-0.277
Mof_N 	N 	0.9864	0.3874	0.94079	-0.138
Mof_N 	N 	0.8428	0.3811	0.91289	-0.134
Mof_N 	N 	0.8452	0.4213	0.95919	-0.145
Mof_N 	N 	0.5138	0.4508	0.92273	-0.276
Mof_N 	N 	0.076	0.4446	0.04302	-0.277
Mof_N 	N 	0.9123	0.1149	0.60271	-0.274
Mof_N 	N 	0.9437	0.2858	0.63348	-0.14
Mof_N 	N 	0.9826	0.2421	0.67651	-0.141
Mof_N 	N 	0.9828	0.3255	0.67887	-0.138
Mof_N 	N 	0.9144	0.4563	0.60568	-0.271
Mof_N 	N 	0.0957	0.2708	0.77982	-0.274
Mof_Zn	Zn	0.66869	0.2366	0.81894	1.165
Mof_Zn	Zn	0.63288	0.05162	0.08489	1.165
Mof_Zn	Zn	0.88308	0.01958	0.91512	1.165
Mof_Zn	Zn	0.33131	0.2634	0.31894	1.165
Mof_Zn	Zn	0.36712	0.44838	0.58489	1.165
Mof_Zn	Zn	0.11692	0.48042	0.41512	1.165
Mof_Zn	Zn	0.16869	0.7634	0.68106	1.165
Mof_Zn	Zn	0.13288	0.94838	0.41511	1.165
Mof_Zn	Zn	0.38308	0.98042	0.58488	1.165
Mof_Zn	Zn	0.83131	0.7366	0.18106	1.165
Mof_Zn	Zn	0.86712	0.55162	0.91511	1.165
Mof_Zn	Zn	0.61692	0.51958	0.08488	1.165
Mof_H 	H 	0.7029	0.1736	0.8696	-0.008
Mof_H 	H 	0.6221	0.1321	0.9065	0.087
Mof_H 	H 	0.3743	0.178	0.8701	0.083
Mof_H 	H 	0.4625	0.2169	0.8345	-0.014
Mof_H 	H 	0.0289	0.0764	0.8826	-0.007
Mof_H 	H 	0.1841	0.1023	0.8876	0.098
Mof_H 	H 	0.1808	0.0548	0.9724	0.093
Mof_H 	H 	0.026	0.0291	0.965	-0.006
Mof_H 	H 	0.6936	0.0687	0.0203	-0.003
Mof_H 	H 	0.6226	0.0858	0.9745	0.079
Mof_H 	H 	0.3674	0.0577	0.0123	0.092
Mof_H 	H 	0.4451	0.0402	0.0561	-0.018
Mof_H 	H 	0.3802	0.3449	0.5685	-0.017
Mof_H 	H 	0.4072	0.2718	0.5913	0.079
Mof_H 	H 	0.4778	0.3425	0.6661	0.08
Mof_H 	H 	0.4531	0.4124	0.6412	-0.01
Mof_H 	H 	0.4088	0.0828	0.5695	-0.012
Mof_H 	H 	0.4344	0.1553	0.5927	0.082
Mof_H 	H 	0.4558	0.0876	0.6713	0.081
Mof_H 	H 	0.4295	0.0166	0.6461	-0.009
Mof_H 	H 	0.6089	0.1593	0.7774	-0.01
Mof_H 	H 	0.5477	0.1505	0.7294	0.078
Mof_H 	H 	0.5117	0.2915	0.7258	0.08
Mof_H 	H 	0.5693	0.2973	0.7738	-0.002
Mof_H 	H 	0.2971	0.3264	0.3696	-0.008
Mof_H 	H 	0.3779	0.3679	0.4065	0.087
Mof_H 	H 	0.6257	0.322	0.3701	0.083
Mof_H 	H 	0.5375	0.2831	0.3345	-0.014
Mof_H 	H 	0.9711	0.4236	0.3826	-0.008
Mof_H 	H 	0.8159	0.3977	0.3876	0.098
Mof_H 	H 	0.8192	0.4452	0.4724	0.093
Mof_H 	H 	0.974	0.4709	0.465	-0.007
Mof_H 	H 	0.3064	0.4313	0.5203	-0.003
Mof_H 	H 	0.3774	0.4142	0.4745	0.079
Mof_H 	H 	0.6326	0.4423	0.5123	0.092
Mof_H 	H 	0.5549	0.4598	0.5561	-0.018
Mof_H 	H 	0.6198	0.1551	0.0685	-0.017
Mof_H 	H 	0.5928	0.2282	0.0913	0.079
Mof_H 	H 	0.5222	0.1575	0.1661	0.08
Mof_H 	H 	0.5469	0.0876	0.1412	-0.01
Mof_H 	H 	0.5912	0.4172	0.0695	-0.012
Mof_H 	H 	0.5656	0.3447	0.0927	0.082
Mof_H 	H 	0.5442	0.4124	0.1713	0.081
Mof_H 	H 	0.5705	0.4834	0.1461	-0.009
Mof_H 	H 	0.3911	0.3407	0.2774	-0.01
Mof_H 	H 	0.4523	0.3495	0.2294	0.078
Mof_H 	H 	0.4883	0.2085	0.2258	0.08
Mof_H 	H 	0.4307	0.2027	0.2738	-0.002
Mof_H 	H 	0.2029	0.8264	0.6304	-0.008
Mof_H 	H 	0.1221	0.8679	0.5935	0.087
Mof_H 	H 	0.8743	0.822	0.6299	0.083
Mof_H 	H 	0.9625	0.7831	0.6655	-0.014
Mof_H 	H 	0.5289	0.9236	0.6174	-0.008
Mof_H 	H 	0.6841	0.8977	0.6124	0.098
Mof_H 	H 	0.6808	0.9452	0.5276	0.093
Mof_H 	H 	0.526	0.9709	0.535	-0.007
Mof_H 	H 	0.1936	0.9313	0.4797	-0.003
Mof_H 	H 	0.1226	0.9142	0.5255	0.08
Mof_H 	H 	0.8674	0.9423	0.4877	0.092
Mof_H 	H 	0.9451	0.9598	0.4439	-0.018
Mof_H 	H 	0.8802	0.6551	0.9315	-0.017
Mof_H 	H 	0.9072	0.7282	0.9087	0.079
Mof_H 	H 	0.9778	0.6575	0.8339	0.08
Mof_H 	H 	0.9531	0.5876	0.8588	-0.01
Mof_H 	H 	0.9088	0.9172	0.9305	-0.012
Mof_H 	H 	0.9344	0.8447	0.9073	0.082
Mof_H 	H 	0.9558	0.9124	0.8287	0.081
Mof_H 	H 	0.9295	0.9834	0.8539	-0.009
Mof_H 	H 	0.1089	0.8407	0.7226	-0.01
Mof_H 	H 	0.0477	0.8495	0.7706	0.078
Mof_H 	H 	0.0117	0.7085	0.7742	0.08
Mof_H 	H 	0.0693	0.7027	0.7262	-0.002
Mof_H 	H 	0.7971	0.6736	0.1304	-0.008
Mof_H 	H 	0.8779	0.6321	0.0935	0.086
Mof_H 	H 	0.1257	0.678	0.1299	0.083
Mof_H 	H 	0.0375	0.7169	0.1655	-0.014
Mof_H 	H 	0.4711	0.5764	0.1174	-0.008
Mof_H 	H 	0.3159	0.6023	0.1124	0.098
Mof_H 	H 	0.3192	0.5548	0.0276	0.093
Mof_H 	H 	0.474	0.5291	0.035	-0.007
Mof_H 	H 	0.8064	0.5687	0.9797	-0.003
Mof_H 	H 	0.8774	0.5858	0.0255	0.079
Mof_H 	H 	0.1326	0.5577	0.9877	0.092
Mof_H 	H 	0.0549	0.5402	0.9439	-0.018
Mof_H 	H 	0.1198	0.8449	0.4315	-0.017
Mof_H 	H 	0.0928	0.7718	0.4087	0.079
Mof_H 	H 	0.0222	0.8425	0.3339	0.08
Mof_H 	H 	0.0469	0.9124	0.3588	-0.01
Mof_H 	H 	0.0912	0.5828	0.4305	-0.012
Mof_H 	H 	0.0656	0.6553	0.4073	0.082
Mof_H 	H 	0.0442	0.5876	0.3287	0.081
Mof_H 	H 	0.0705	0.5166	0.3539	-0.009
Mof_H 	H 	0.8911	0.6593	0.2226	-0.01
Mof_H 	H 	0.9523	0.6505	0.2706	0.079
Mof_H 	H 	0.9883	0.7915	0.2742	0.081
Mof_H 	H 	0.9307	0.7973	0.2262	-0.002
Mof_C 	C 	0.6351	0.1742	0.86979	0.075
Mof_C 	C 	0.5876	0.1498	0.89216	-0.115
Mof_C 	C 	0.4888	0.1518	0.89304	0.063
Mof_C 	C 	0.442	0.1768	0.8707	-0.123
Mof_C 	C 	0.495	0.1995	0.84948	0.075
Mof_C 	C 	0.4358	0.1264	0.91703	0.105
Mof_C 	C 	0.3015	0.0941	0.93457	0.09
Mof_C 	C 	0.4365	0.0895	0.96142	0.098
Mof_C 	C 	0.0608	0.0713	0.90095	0.078
Mof_C 	C 	0.153	0.0872	0.90378	-0.129
Mof_C 	C 	0.2001	0.0808	0.9307	0.057
Mof_C 	C 	0.1511	0.0591	0.95356	-0.128
Mof_C 	C 	0.059	0.0439	0.94904	0.075
Mof_C 	C 	0.6261	0.0673	0.01872	0.067
Mof_C 	C 	0.5844	0.0777	0.9912	-0.116
Mof_C 	C 	0.4865	0.0759	0.98912	0.055
Mof_C 	C 	0.4348	0.061	0.01356	-0.126
Mof_C 	C 	0.4816	0.0509	0.03965	0.074
Mof_C 	C 	0.4002	0.3443	0.58868	0.072
Mof_C 	C 	0.4154	0.3003	0.60223	-0.12
Mof_C 	C 	0.4425	0.2994	0.63168	0.053
Mof_C 	C 	0.4572	0.342	0.64592	-0.117
Mof_C 	C 	0.442	0.3835	0.63104	0.062
Mof_C 	C 	0.4569	0.1749	0.64966	0.097
Mof_C 	C 	0.4568	0.2543	0.64797	0.105
Mof_C 	C 	0.4943	0.217	0.69074	0.105
Mof_C 	C 	0.4173	0.0837	0.5905	0.076
Mof_C 	C 	0.4324	0.1272	0.60422	-0.119
Mof_C 	C 	0.4444	0.1291	0.63443	0.059
Mof_C 	C 	0.445	0.0875	0.65046	-0.117
Mof_C 	C 	0.4295	0.0454	0.6352	0.069
Mof_C 	C 	0.5888	0.1866	0.76674	0.062
Mof_C 	C 	0.5531	0.1811	0.73799	-0.113
Mof_C 	C 	0.5258	0.2205	0.72215	0.049
Mof_C 	C 	0.5317	0.2638	0.73603	-0.113
Mof_C 	C 	0.5662	0.2671	0.76456	0.063
Mof_C 	C 	0.3649	0.3258	0.36979	0.075
Mof_C 	C 	0.4124	0.3502	0.39216	-0.115
Mof_C 	C 	0.5112	0.3482	0.39304	0.063
Mof_C 	C 	0.558	0.3232	0.3707	-0.123
Mof_C 	C 	0.505	0.3005	0.34948	0.075
Mof_C 	C 	0.5642	0.3736	0.41703	0.105
Mof_C 	C 	0.6985	0.4059	0.43457	0.09
Mof_C 	C 	0.5635	0.4105	0.46142	0.098
Mof_C 	C 	0.9392	0.4287	0.40095	0.078
Mof_C 	C 	0.847	0.4128	0.40378	-0.129
Mof_C 	C 	0.7999	0.4192	0.4307	0.056
Mof_C 	C 	0.8489	0.4409	0.45356	-0.128
Mof_C 	C 	0.941	0.4561	0.44904	0.075
Mof_C 	C 	0.3739	0.4327	0.51872	0.067
Mof_C 	C 	0.4156	0.4223	0.4912	-0.116
Mof_C 	C 	0.5135	0.4241	0.48912	0.055
Mof_C 	C 	0.5652	0.439	0.51356	-0.126
Mof_C 	C 	0.5184	0.4491	0.53965	0.074
Mof_C 	C 	0.5998	0.1557	0.08868	0.072
Mof_C 	C 	0.5846	0.1997	0.10223	-0.12
Mof_C 	C 	0.5575	0.2006	0.13168	0.053
Mof_C 	C 	0.5428	0.158	0.14592	-0.117
Mof_C 	C 	0.558	0.1165	0.13104	0.062
Mof_C 	C 	0.5431	0.3251	0.14966	0.097
Mof_C 	C 	0.5432	0.2457	0.14797	0.105
Mof_C 	C 	0.5057	0.283	0.19074	0.105
Mof_C 	C 	0.5827	0.4163	0.0905	0.076
Mof_C 	C 	0.5676	0.3728	0.10422	-0.119
Mof_C 	C 	0.5556	0.3709	0.13443	0.059
Mof_C 	C 	0.555	0.4125	0.15046	-0.117
Mof_C 	C 	0.5705	0.4546	0.1352	0.069
Mof_C 	C 	0.4112	0.3134	0.26674	0.062
Mof_C 	C 	0.4469	0.3189	0.23799	-0.113
Mof_C 	C 	0.4742	0.2795	0.22215	0.049
Mof_C 	C 	0.4683	0.2362	0.23603	-0.113
Mof_C 	C 	0.4338	0.2329	0.26456	0.063
Mof_C 	C 	0.1351	0.8258	0.63021	0.075
Mof_C 	C 	0.0876	0.8502	0.60784	-0.116
Mof_C 	C 	0.9888	0.8482	0.60696	0.063
Mof_C 	C 	0.942	0.8232	0.6293	-0.123
Mof_C 	C 	0.995	0.8005	0.65052	0.075
Mof_C 	C 	0.9358	0.8736	0.58297	0.105
Mof_C 	C 	0.8015	0.9059	0.56543	0.09
Mof_C 	C 	0.9365	0.9105	0.53858	0.098
Mof_C 	C 	0.5608	0.9287	0.59905	0.078
Mof_C 	C 	0.653	0.9128	0.59622	-0.129
Mof_C 	C 	0.7001	0.9192	0.5693	0.057
Mof_C 	C 	0.6511	0.9409	0.54644	-0.128
Mof_C 	C 	0.559	0.9561	0.55096	0.075
Mof_C 	C 	0.1261	0.9327	0.48128	0.067
Mof_C 	C 	0.0844	0.9223	0.5088	-0.117
Mof_C 	C 	0.9865	0.9241	0.51088	0.056
Mof_C 	C 	0.9348	0.939	0.48644	-0.127
Mof_C 	C 	0.9816	0.9491	0.46035	0.075
Mof_C 	C 	0.9002	0.6557	0.91132	0.072
Mof_C 	C 	0.9154	0.6997	0.89777	-0.12
Mof_C 	C 	0.9425	0.7006	0.86832	0.053
Mof_C 	C 	0.9572	0.658	0.85408	-0.117
Mof_C 	C 	0.942	0.6165	0.86896	0.062
Mof_C 	C 	0.9569	0.8251	0.85034	0.097
Mof_C 	C 	0.9568	0.7457	0.85203	0.105
Mof_C 	C 	0.9943	0.783	0.80926	0.105
Mof_C 	C 	0.9173	0.9163	0.9095	0.076
Mof_C 	C 	0.9324	0.8728	0.89578	-0.119
Mof_C 	C 	0.9444	0.8709	0.86557	0.059
Mof_C 	C 	0.945	0.9125	0.84954	-0.117
Mof_C 	C 	0.9295	0.9546	0.8648	0.069
Mof_C 	C 	0.0888	0.8134	0.73326	0.062
Mof_C 	C 	0.0531	0.8189	0.76201	-0.113
Mof_C 	C 	0.0258	0.7795	0.77785	0.049
Mof_C 	C 	0.0317	0.7362	0.76397	-0.113
Mof_C 	C 	0.0662	0.7329	0.73544	0.063
Mof_C 	C 	0.8649	0.6742	0.13021	0.074
Mof_C 	C 	0.9124	0.6498	0.10784	-0.114
Mof_C 	C 	0.0112	0.6518	0.10696	0.061
Mof_C 	C 	0.058	0.6768	0.1293	-0.122
Mof_C 	C 	0.005	0.6995	0.15052	0.074
Mof_C 	C 	0.0642	0.6264	0.08297	0.106
Mof_C 	C 	0.1985	0.5941	0.06543	0.09
Mof_C 	C 	0.0635	0.5895	0.03858	0.098
Mof_C 	C 	0.4392	0.5713	0.09905	0.078
Mof_C 	C 	0.347	0.5872	0.09622	-0.129
Mof_C 	C 	0.2999	0.5808	0.0693	0.056
Mof_C 	C 	0.3489	0.5591	0.04644	-0.128
Mof_C 	C 	0.441	0.5439	0.05096	0.075
Mof_C 	C 	0.8739	0.5673	0.98128	0.067
Mof_C 	C 	0.9156	0.5777	0.0088	-0.116
Mof_C 	C 	0.0135	0.5759	0.01088	0.055
Mof_C 	C 	0.0652	0.561	0.98644	-0.126
Mof_C 	C 	0.0184	0.5509	0.96035	0.074
Mof_C 	C 	0.0998	0.8443	0.41132	0.072
Mof_C 	C 	0.0846	0.8003	0.39777	-0.12
Mof_C 	C 	0.0575	0.7994	0.36832	0.053
Mof_C 	C 	0.0428	0.842	0.35408	-0.117
Mof_C 	C 	0.058	0.8835	0.36896	0.062
Mof_C 	C 	0.0431	0.6749	0.35034	0.097
Mof_C 	C 	0.0432	0.7543	0.35203	0.104
Mof_C 	C 	0.0057	0.717	0.30926	0.104
Mof_C 	C 	0.0827	0.5837	0.4095	0.076
Mof_C 	C 	0.0676	0.6272	0.39578	-0.119
Mof_C 	C 	0.0556	0.6291	0.36557	0.059
Mof_C 	C 	0.055	0.5875	0.34954	-0.117
Mof_C 	C 	0.0705	0.5454	0.3648	0.069
Mof_C 	C 	0.9112	0.6866	0.23326	0.062
Mof_C 	C 	0.9469	0.6811	0.26201	-0.113
Mof_C 	C 	0.9742	0.7205	0.27785	0.051
Mof_C 	C 	0.9683	0.7638	0.26397	-0.113
Mof_C 	C 	0.9338	0.7671	0.23544	0.063
Mof_I 	I 	0.83105	0.19672	0.81244	-0.369
Mof_I 	I 	0.66464	0.32277	0.83512	-0.373
Mof_I 	I 	0.81287	0.05817	0.08225	-0.386
Mof_I 	I 	0.54522	0.98793	0.11407	-0.361
Mof_I 	I 	0.80746	0.0009	0.96563	-0.393
Mof_I 	I 	0.79724	0.07063	0.87773	-0.373
Mof_I 	I 	0.16895	0.30328	0.31244	-0.369
Mof_I 	I 	0.33536	0.17723	0.33512	-0.373
Mof_I 	I 	0.18713	0.44183	0.58225	-0.385
Mof_I 	I 	0.45478	0.51207	0.61407	-0.361
Mof_I 	I 	0.19254	0.4991	0.46563	-0.392
Mof_I 	I 	0.20276	0.42937	0.37773	-0.373
Mof_I 	I 	0.33105	0.80328	0.68756	-0.369
Mof_I 	I 	0.16464	0.67723	0.66488	-0.373
Mof_I 	I 	0.31287	0.94183	0.41775	-0.386
Mof_I 	I 	0.04522	0.01207	0.38593	-0.36
Mof_I 	I 	0.30746	0.9991	0.53437	-0.393
Mof_I 	I 	0.29724	0.92937	0.62227	-0.373
Mof_I 	I 	0.66895	0.69672	0.18756	-0.369
Mof_I 	I 	0.83536	0.82277	0.16488	-0.372
Mof_I 	I 	0.68713	0.55817	0.91775	-0.386
Mof_I 	I 	0.95478	0.48793	0.88593	-0.361
Mof_I 	I 	0.69254	0.5009	0.03437	-0.392
Mof_I 	I 	0.70276	0.57063	0.12227	-0.373
Mof_N 	N 	0.5908	0.1982	0.84884	-0.278
Mof_N 	N 	0.4864	0.1126	0.94079	-0.138
Mof_N 	N 	0.3428	0.1189	0.91289	-0.134
Mof_N 	N 	0.3452	0.0787	0.95919	-0.145
Mof_N 	N 	0.0138	0.0492	0.92273	-0.276
Mof_N 	N 	0.576	0.0554	0.04302	-0.277
Mof_N 	N 	0.4123	0.3851	0.60271	-0.274
Mof_N 	N 	0.4437	0.2142	0.63348	-0.14
Mof_N 	N 	0.4826	0.2579	0.67651	-0.141
Mof_N 	N 	0.4828	0.1745	0.67887	-0.138
Mof_N 	N 	0.4144	0.0437	0.60568	-0.271
Mof_N 	N 	0.5957	0.2292	0.77982	-0.273
Mof_N 	N 	0.4092	0.3018	0.34884	-0.278
Mof_N 	N 	0.5136	0.3874	0.44079	-0.138
Mof_N 	N 	0.6572	0.3811	0.41289	-0.134
Mof_N 	N 	0.6548	0.4213	0.45919	-0.145
Mof_N 	N 	0.9862	0.4508	0.42273	-0.276
Mof_N 	N 	0.424	0.4446	0.54302	-0.277
Mof_N 	N 	0.5877	0.1149	0.10271	-0.274
Mof_N 	N 	0.5563	0.2858	0.13348	-0.14
Mof_N 	N 	0.5174	0.2421	0.17651	-0.141
Mof_N 	N 	0.5172	0.3255	0.17887	-0.138
Mof_N 	N 	0.5856	0.4563	0.10568	-0.271
Mof_N 	N 	0.4043	0.2708	0.27982	-0.273
Mof_N 	N 	0.0908	0.8018	0.65116	-0.278
Mof_N 	N 	0.9864	0.8874	0.55921	-0.138
Mof_N 	N 	0.8428	0.8811	0.58711	-0.134
Mof_N 	N 	0.8452	0.9213	0.54081	-0.145
Mof_N 	N 	0.5138	0.9508	0.57727	-0.276
Mof_N 	N 	0.076	0.9446	0.45698	-0.278
Mof_N 	N 	0.9123	0.6149	0.89729	-0.274
Mof_N 	N 	0.9437	0.7858	0.86652	-0.14
Mof_N 	N 	0.9826	0.7421	0.82349	-0.141
Mof_N 	N 	0.9828	0.8255	0.82113	-0.138
Mof_N 	N 	0.9144	0.9563	0.89432	-0.271
Mof_N 	N 	0.0957	0.7708	0.72018	-0.273
Mof_N 	N 	0.9092	0.6982	0.15116	-0.277
Mof_N 	N 	0.0136	0.6126	0.05921	-0.138
Mof_N 	N 	0.1572	0.6189	0.08711	-0.134
Mof_N 	N 	0.1548	0.5787	0.04081	-0.145
Mof_N 	N 	0.4862	0.5492	0.07727	-0.276
Mof_N 	N 	0.924	0.5554	0.95698	-0.277
Mof_N 	N 	0.0877	0.8851	0.39729	-0.274
Mof_N 	N 	0.0563	0.7142	0.36652	-0.14
Mof_N 	N 	0.0174	0.7579	0.32349	-0.141
Mof_N 	N 	0.0172	0.6745	0.32113	-0.138
Mof_N 	N 	0.0856	0.5437	0.39432	-0.271
Mof_N 	N 	0.9043	0.7292	0.22018	-0.274
_end
