data_functionalizedCrystal
_audit_creation_method	'EQeq! by Chris Wilmer'
_symmetry_space_group_name_H-M	'P1'
_symmetry_Int_Tables_number	1
_symmetry_cell_setting	triclinic
loop_
_symmetry_equiv_pos_as_xyz
  x,y,z
_cell_length_a	7.31
_cell_length_b	13.144
_cell_length_c	13.8
_cell_angle_alpha	83.46
_cell_angle_beta	82.88
_cell_angle_gamma	84.71
loop_
_atom_site_label
_atom_site_type_symbol
_atom_site_fract_x
_atom_site_fract_y
_atom_site_fract_z
_atom_site_charge
Mof_N 	N 	0.7964	0.7881	0.7896	-0.238
Mof_N 	N 	0.5354	0.82	0.6094	-0.24
Mof_N 	N 	0.9037	0.6332	0.6173	-0.251
Mof_N 	N 	0.4935	0.6273	0.7807	-0.246
Mof_C 	C 	0.926	0.852	0.7577	0.086
Mof_C 	C 	0.9946	0.9136	0.8168	-0.159
Mof_C 	C 	0.9296	0.9103	0.9153	0.095
Mof_C 	C 	0.7961	0.8413	0.9493	-0.159
Mof_C 	C 	0.7331	0.7837	0.8849	0.08
Mof_C 	C 	0.4388	0.7957	0.5408	0.087
Mof_C 	C 	0.2882	0.8559	0.5089	-0.169
Mof_C 	C 	0.2339	0.949	0.5462	0.11
Mof_C 	C 	0.3425	0.9784	0.6127	-0.166
Mof_C 	C 	0.4879	0.9125	0.6419	0.085
Mof_C 	C 	0.0686	0.014	0.521	-0.09
Mof_C 	C 	0.0232	0.5695	0.6677	0.084
Mof_C 	C 	0.1918	0.5308	0.6261	-0.167
Mof_C 	C 	0.2491	0.5571	0.5265	0.108
Mof_C 	C 	0.1216	0.6186	0.4747	-0.168
Mof_C 	C 	0.9536	0.6549	0.5212	0.09
Mof_C 	C 	0.4284	0.5231	0.4785	-0.098
Mof_C 	C 	0.5123	0.5264	0.8109	0.088
Mof_C 	C 	0.3779	0.4766	0.8728	-0.172
Mof_C 	C 	0.217	0.5313	0.9102	0.113
Mof_C 	C 	0.2004	0.6359	0.8796	-0.174
Mof_C 	C 	0.3382	0.6794	0.8151	0.092
Mof_C 	C 	0.0723	0.4781	0.9745	-0.091
Mof_C 	C 	0.9499	0.9573	0.0092	-0.006
Mof_C 	C 	0.0283	0.9927	0.9541	-0.035
Mof_H 	H 	0.9738	0.8555	0.691	-0.018
Mof_H 	H 	0.086	0.9579	0.79	0.083
Mof_H 	H 	0.7493	0.8342	0.016	0.079
Mof_H 	H 	0.6409	0.739	0.9092	-0.015
Mof_H 	H 	0.4749	0.7341	0.5124	-0.02
Mof_H 	H 	0.2225	0.8337	0.4619	0.083
Mof_H 	H 	0.3169	0.0426	0.6374	0.081
Mof_H 	H 	0.5583	0.9335	0.6875	-0.015
Mof_H 	H 	0.0598	0.0823	0.5363	0.052
Mof_H 	H 	0.9889	0.5507	0.7348	-0.02
Mof_H 	H 	0.269	0.4865	0.6646	0.083
Mof_H 	H 	0.1499	0.6359	0.4068	0.08
Mof_H 	H 	0.8711	0.6965	0.4837	-0.025
Mof_H 	H 	0.4454	0.535	0.4096	0.05
Mof_H 	H 	0.6215	0.4881	0.7889	-0.023
Mof_H 	H 	0.395	0.4054	0.89	0.083
Mof_H 	H 	0.0955	0.6768	0.9029	0.089
Mof_H 	H 	0.3216	0.7498	0.7941	-0.021
Mof_H 	H 	0.0839	0.4059	0.9799	0.056
Mof_Cu	Cu	0.6885	0.7077	0.6909	0.85
Mof_N 	N 	0.2036	0.2119	0.2104	-0.239
Mof_N 	N 	0.4646	0.18	0.3906	-0.241
Mof_N 	N 	0.0963	0.3668	0.3827	-0.251
Mof_N 	N 	0.5065	0.3727	0.2193	-0.246
Mof_C 	C 	0.074	0.148	0.2423	0.086
Mof_C 	C 	0.0054	0.0864	0.1832	-0.159
Mof_C 	C 	0.0704	0.0897	0.0847	0.095
Mof_C 	C 	0.2039	0.1587	0.0507	-0.159
Mof_C 	C 	0.2669	0.2163	0.1151	0.08
Mof_C 	C 	0.5612	0.2043	0.4592	0.087
Mof_C 	C 	0.7118	0.1441	0.4911	-0.169
Mof_C 	C 	0.7661	0.051	0.4538	0.11
Mof_C 	C 	0.6575	0.0216	0.3873	-0.166
Mof_C 	C 	0.5121	0.0875	0.3581	0.085
Mof_C 	C 	0.9314	0.986	0.479	-0.09
Mof_C 	C 	0.9768	0.4305	0.3323	0.084
Mof_C 	C 	0.8082	0.4692	0.3739	-0.167
Mof_C 	C 	0.7509	0.4429	0.4735	0.108
Mof_C 	C 	0.8784	0.3814	0.5253	-0.168
Mof_C 	C 	0.0464	0.3451	0.4788	0.09
Mof_C 	C 	0.5716	0.4769	0.5215	-0.098
Mof_C 	C 	0.4877	0.4736	0.1891	0.088
Mof_C 	C 	0.6221	0.5234	0.1272	-0.172
Mof_C 	C 	0.783	0.4687	0.0898	0.113
Mof_C 	C 	0.7996	0.3641	0.1204	-0.174
Mof_C 	C 	0.6618	0.3206	0.1849	0.092
Mof_C 	C 	0.9277	0.5219	0.0255	-0.091
Mof_C 	C 	0.0501	0.0427	0.9908	-0.006
Mof_C 	C 	0.9717	0.0073	0.0459	-0.035
Mof_H 	H 	0.0262	0.1445	0.309	-0.018
Mof_H 	H 	0.914	0.0421	0.21	0.083
Mof_H 	H 	0.2507	0.1658	0.984	0.079
Mof_H 	H 	0.3591	0.261	0.0908	-0.015
Mof_H 	H 	0.5251	0.2659	0.4876	-0.02
Mof_H 	H 	0.7775	0.1663	0.5381	0.083
Mof_H 	H 	0.6831	0.9574	0.3626	0.081
Mof_H 	H 	0.4417	0.0665	0.3125	-0.015
Mof_H 	H 	0.9402	0.9177	0.4637	0.052
Mof_H 	H 	0.0111	0.4493	0.2652	-0.02
Mof_H 	H 	0.731	0.5135	0.3354	0.083
Mof_H 	H 	0.8501	0.3641	0.5932	0.08
Mof_H 	H 	0.1289	0.3035	0.5163	-0.025
Mof_H 	H 	0.5546	0.465	0.5904	0.05
Mof_H 	H 	0.3785	0.5119	0.2111	-0.023
Mof_H 	H 	0.605	0.5946	0.11	0.083
Mof_H 	H 	0.9045	0.3232	0.0971	0.089
Mof_H 	H 	0.6784	0.2502	0.2059	-0.021
Mof_H 	H 	0.9161	0.5941	0.0201	0.056
Mof_Cu	Cu	0.3115	0.2923	0.3091	0.85
_end
