# CIF file generated by openbabel 3.1.0, see https://openbabel.org
data_I
_chemical_name_common 'image0'
_cell_length_a 24.2788
_cell_length_b 25.6735
_cell_length_c 53.8201
_cell_angle_alpha 90
_cell_angle_beta 90
_cell_angle_gamma 90
_space_group_name_H-M_alt 'P 1'
_space_group_name_Hall 'P 1'
loop_
    _symmetry_equiv_pos_as_xyz
    x,y,z
loop_
    _atom_site_label
    _atom_site_type_symbol
    _atom_site_fract_x
    _atom_site_fract_y
    _atom_site_fract_z
    _atom_site_occupancy
    K1       K        0.25770    0.18679    0.23842    1.000
    K2       K        0.52569    0.42261    0.22610    1.000
    K3       K        0.51395    0.16127    0.40638    1.000
    K4       K        0.24088    0.37994    0.39057    1.000
    K5       K        0.23944    0.37251    0.07245    1.000
    K6       K        0.51300    0.14133    0.05930    1.000
    Zn1      Zn       0.40059    0.26871    0.15014    1.000
    O1       O        0.47918    0.16363    0.10206    1.000
    O2       O        0.30229    0.37313    0.10988    1.000
    O3       O        0.32577    0.17213    0.20294    1.000
    O4       O        0.49736    0.38260    0.18544    1.000
    N1       N        0.42930    0.22737    0.12181    1.000
    N2       N        0.35661    0.30674    0.12471    1.000
    N3       N        0.38162    0.22688    0.18009    1.000
    N4       N        0.43955    0.31585    0.17354    1.000
    N5       N        0.48968    0.17740    0.14399    1.000
    H1       H        0.48570    0.20060    0.15590    1.000
    N6       N        0.29760    0.34940    0.15023    1.000
    H2       H        0.30700    0.32510    0.16090    1.000
    N7       N        0.33879    0.15836    0.16134    1.000
    H3       H        0.35250    0.17140    0.14750    1.000
    N8       N        0.46177    0.38008    0.14604    1.000
    H4       H        0.44690    0.35960    0.13480    1.000
    C1       C        0.53370    0.13380    0.17752    1.000
    H5       H        0.55720    0.16420    0.18070    1.000
    H6       H        0.55290    0.10210    0.18280    1.000
    H7       H        0.49920    0.13740    0.18680    1.000
    C2       C        0.52113    0.13035    0.14990    1.000
    C3       C        0.48740    0.08150    0.14437    1.000
    H8       H        0.47790    0.08060    0.12670    1.000
    H9       H        0.45350    0.08200    0.15430    1.000
    H10      H        0.50900    0.05050    0.14860    1.000
    C4       C        0.57500    0.12830    0.13522    1.000
    H11      H        0.59520    0.16090    0.13750    1.000
    H12      H        0.56680    0.12340    0.11750    1.000
    H13      H        0.59740    0.09910    0.14120    1.000
    C5       C        0.46556    0.18860    0.12120    1.000
    C6       C        0.40166    0.24205    0.09873    1.000
    H14      H        0.37080    0.21770    0.09550    1.000
    H15      H        0.42790    0.23930    0.08470    1.000
    C7       C        0.37962    0.29732    0.10016    1.000
    H16      H        0.40980    0.32240    0.09690    1.000
    H17      H        0.35080    0.30240    0.08740    1.000
    C8       C        0.31907    0.34460    0.12675    1.000
    C9       C        0.26140    0.38960    0.15946    1.000
    C10      C        0.25240    0.37950    0.18695    1.000
    H18      H        0.23510    0.34530    0.18920    1.000
    H19      H        0.22840    0.40660    0.19390    1.000
    H20      H        0.28800    0.38010    0.19560    1.000
    C11      C        0.28830    0.44170    0.15625    1.000
    H21      H        0.29540    0.44790    0.13860    1.000
    H22      H        0.32320    0.44230    0.16540    1.000
    H23      H        0.26390    0.46900    0.16270    1.000
    C12      C        0.20740    0.38940    0.14630    1.000
    H24      H        0.19130    0.35450    0.14720    1.000
    H25      H        0.21300    0.39920    0.12890    1.000
    H26      H        0.18260    0.41450    0.15420    1.000
    C13      C        0.31380    0.09160    0.13233    1.000
    H27      H        0.29690    0.11760    0.12140    1.000
    H28      H        0.29510    0.05810    0.13010    1.000
    H29      H        0.35280    0.08790    0.12810    1.000
    C14      C        0.30820    0.10900    0.15934    1.000
    C15      C        0.24710    0.11770    0.16547    1.000
    H30      H        0.24350    0.12910    0.18280    1.000
    H31      H        0.22680    0.08500    0.16310    1.000
    H32      H        0.23190    0.14440    0.15440    1.000
    C16      C        0.33160    0.06760    0.17643    1.000
    H33      H        0.32830    0.07910    0.19370    1.000
    H34      H        0.37050    0.06180    0.17240    1.000
    H35      H        0.31100    0.03510    0.17420    1.000
    C17      C        0.34800    0.18620    0.18300    1.000
    C18      C        0.39350    0.25750    0.20243    1.000
    H36      H        0.40000    0.23400    0.21670    1.000
    H37      H        0.36170    0.28020    0.20640    1.000
    C19      C        0.44450    0.29060    0.19763    1.000
    H38      H        0.44830    0.31730    0.21080    1.000
    H39      H        0.47780    0.26830    0.19790    1.000
    C20      C        0.46733    0.35980    0.16966    1.000
    C21      C        0.47820    0.43240    0.13791    1.000
    C22      C        0.45730    0.43830    0.11143    1.000
    H40      H        0.41720    0.43450    0.11120    1.000
    H41      H        0.47410    0.41140    0.10090    1.000
    H42      H        0.46740    0.47280    0.10510    1.000
    C23      C        0.54130    0.43730    0.13808    1.000
    H43      H        0.55730    0.41080    0.12710    1.000
    H44      H        0.55500    0.43220    0.15500    1.000
    H45      H        0.55190    0.47200    0.13220    1.000
    C24      C        0.45310    0.47460    0.15430    1.000
    H46      H        0.41290    0.47100    0.15440    1.000
    H47      H        0.46310    0.50890    0.14780    1.000
    H48      H        0.46720    0.47100    0.17130    1.000
    Zn2      Zn       0.39579    0.31104    0.31920    1.000
    O5       O        0.28832    0.20776    0.28283    1.000
    O6       O        0.48241    0.39959    0.26633    1.000
    O7       O        0.47990    0.21461    0.36983    1.000
    O8       O        0.30263    0.42326    0.35662    1.000
    N9       N        0.35478    0.26608    0.29545    1.000
    N10      N        0.42892    0.34345    0.28946    1.000
    N11      N        0.42639    0.27401    0.34849    1.000
    N12      N        0.36384    0.35983    0.34405    1.000
    N13      N        0.30830    0.21782    0.32400    1.000
    H49      H        0.32880    0.23460    0.33480    1.000
    N14      N        0.50031    0.38743    0.30769    1.000
    H50      H        0.49780    0.36480    0.31990    1.000
    N15      N        0.47065    0.20936    0.32730    1.000
    H51      H        0.46760    0.22870    0.31390    1.000
    N16      N        0.34096    0.42585    0.31772    1.000
    H52      H        0.35880    0.40760    0.30650    1.000
    C25      C        0.27850    0.18060    0.36226    1.000
    H53      H        0.27040    0.21540    0.36880    1.000
    H54      H        0.31690    0.17160    0.36590    1.000
    H55      H        0.25400    0.15510    0.37020    1.000
    C26      C        0.26930    0.17990    0.33413    1.000
    C27      C        0.21030    0.19640    0.32816    1.000
    H56      H        0.20590    0.19970    0.31010    1.000
    H57      H        0.20240    0.22990    0.33610    1.000
    H58      H        0.18460    0.17000    0.33440    1.000
    C28      C        0.27970    0.12590    0.32436    1.000
    H59      H        0.27270    0.12510    0.30640    1.000
    H60      H        0.25500    0.10120    0.33270    1.000
    H61      H        0.31800    0.11610    0.32760    1.000
    C29      C        0.31630    0.23000    0.29941    1.000
    C30      C        0.36890    0.27910    0.27001    1.000
    H62      H        0.33510    0.27820    0.25970    1.000
    H63      H        0.39450    0.25240    0.26340    1.000
    C31      C        0.39490    0.33130    0.26778    1.000
    H64      H        0.41800    0.33220    0.25260    1.000
    H65      H        0.36580    0.35800    0.26600    1.000
    C32      C        0.47020    0.37710    0.28636    1.000
    C33      C        0.53610    0.43300    0.31155    1.000
    C34      C        0.54980    0.43380    0.33898    1.000
    H66      H        0.51580    0.43680    0.34870    1.000
    H67      H        0.57370    0.46370    0.34260    1.000
    H68      H        0.56890    0.40150    0.34350    1.000
    C35      C        0.58930    0.42810    0.29636    1.000
    H69      H        0.60990    0.39740    0.30190    1.000
    H70      H        0.61190    0.45940    0.29880    1.000
    H71      H        0.58020    0.42450    0.27870    1.000
    C36      C        0.50690    0.48270    0.30447    1.000
    H72      H        0.47230    0.48550    0.31380    1.000
    H73      H        0.49900    0.48250    0.28660    1.000
    H74      H        0.53050    0.51260    0.30840    1.000
    C37      C        0.48610    0.14560    0.29628    1.000
    H75      H        0.51280    0.16870    0.28820    1.000
    H76      H        0.44910    0.15320    0.29000    1.000
    H77      H        0.49550    0.10930    0.29270    1.000
    C38      C        0.48760    0.15450    0.32422    1.000
    C39      C        0.54640    0.14570    0.33349    1.000
    H78      H        0.57170    0.16870    0.32450    1.000
    H79      H        0.55690    0.10930    0.33060    1.000
    H80      H        0.54830    0.15330    0.35130    1.000
    C40      C        0.44840    0.11820    0.33747    1.000
    H81      H        0.45030    0.12450    0.35540    1.000
    H82      H        0.45880    0.08200    0.33400    1.000
    H83      H        0.41080    0.12440    0.33160    1.000
    C41      C        0.45923    0.23250    0.35023    1.000
    C42      C        0.41580    0.30350    0.37117    1.000
    H84      H        0.44670    0.32770    0.37440    1.000
    H85      H        0.41260    0.27950    0.38550    1.000
    C43      C        0.36222    0.33435    0.36813    1.000
    H86      H        0.33020    0.31060    0.36910    1.000
    H87      H        0.35880    0.36060    0.38150    1.000
    C44      C        0.33433    0.40323    0.34074    1.000
    C45      C        0.32110    0.47750    0.31009    1.000
    C46      C        0.34450    0.48620    0.28409    1.000
    H88      H        0.38480    0.48370    0.28470    1.000
    H89      H        0.33390    0.52080    0.27810    1.000
    H90      H        0.33000    0.45960    0.27280    1.000
    C47      C        0.25850    0.47860    0.30917    1.000
    H91      H        0.24370    0.46820    0.32540    1.000
    H92      H        0.24550    0.45440    0.29640    1.000
    H93      H        0.24600    0.51390    0.30520    1.000
    C48      C        0.34220    0.52000    0.32746    1.000
    H94      H        0.38220    0.51710    0.32910    1.000
    H95      H        0.32510    0.51590    0.34380    1.000
    H96      H        0.33270    0.55420    0.32060    1.000
    Zn3      Zn       0.36540    0.26566    0.48446    1.000
    O9       O        0.45946    0.15243    0.44718    1.000
    O10      O        0.27801    0.35850    0.43385    1.000
    O11      O        0.27282    0.32397    0.03449    1.000
    O12      O        0.45443    0.11878    0.02173    1.000
    N17      N        0.40233    0.21842    0.46052    1.000
    N18      N        0.32894    0.29683    0.45500    1.000
    N19      N        0.33122    0.26748    0.01391    1.000
    N20      N        0.39491    0.18225    0.00852    1.000
    N21      N        0.44987    0.16926    0.48869    1.000
    H97      H        0.42860    0.18410    0.49990    1.000
    N22      N        0.26171    0.34211    0.47522    1.000
    H98      H        0.25710    0.31550    0.48530    1.000
    N23      N        0.29874    0.34040    0.99424    1.000
    H99      H        0.30740    0.32500    0.98020    1.000
    N24      N        0.43423    0.12782    0.98037    1.000
    H100     H        0.41920    0.14810    0.96910    1.000
    C49      C        0.49230    0.14100    0.52629    1.000
    H101     H        0.49910    0.17730    0.53110    1.000
    H102     H        0.52060    0.11860    0.53370    1.000
    H103     H        0.45590    0.13030    0.53230    1.000
    C50      C        0.49440    0.13620    0.49797    1.000
    C51      C        0.48520    0.07980    0.49074    1.000
    H104     H        0.48220    0.07710    0.47260    1.000
    H105     H        0.45100    0.06710    0.49840    1.000
    H106     H        0.51620    0.05860    0.49650    1.000
    C52      C        0.55000    0.15450    0.48841    1.000
    H107     H        0.55510    0.19140    0.49260    1.000
    H108     H        0.55140    0.15030    0.47030    1.000
    H109     H        0.57930    0.13380    0.49610    1.000
    C53      C        0.43805    0.17950    0.46406    1.000
    C54      C        0.38135    0.22684    0.43537    1.000
    H110     H        0.35180    0.20130    0.43180    1.000
    H111     H        0.41140    0.22120    0.42320    1.000
    C55      C        0.35875    0.28192    0.43249    1.000
    H112     H        0.38940    0.30650    0.42960    1.000
    H113     H        0.33370    0.28340    0.41800    1.000
    C56      C        0.29081    0.33376    0.45319    1.000
    C57      C        0.23840    0.39241    0.48266    1.000
    C58      C        0.22110    0.38620    0.50974    1.000
    H114     H        0.19390    0.35810    0.51110    1.000
    H115     H        0.20480    0.41880    0.51570    1.000
    H116     H        0.25340    0.37760    0.51980    1.000
    C59      C        0.18830    0.40660    0.46718    1.000
    H117     H        0.16020    0.37950    0.46900    1.000
    H118     H        0.19900    0.40940    0.44970    1.000
    H119     H        0.17340    0.44000    0.47290    1.000
    C60      C        0.28280    0.43470    0.48078    1.000
    H120     H        0.31480    0.42460    0.49070    1.000
    H121     H        0.26800    0.46770    0.48710    1.000
    H122     H        0.29380    0.43900    0.46340    1.000
    C61      C        0.29780    0.41380    0.96702    1.000
    H123     H        0.27570    0.39390    0.95510    1.000
    H124     H        0.28940    0.45100    0.96540    1.000
    H125     H        0.33700    0.40800    0.96370    1.000
    C62      C        0.28420    0.39590    0.99327    1.000
    C63      C        0.22190    0.40240    0.99813    1.000
    H126     H        0.21320    0.39020    0.01490    1.000
    H127     H        0.21190    0.43920    0.99660    1.000
    H128     H        0.20120    0.38180    0.98600    1.000
    C64      C        0.31720    0.42750    0.01229    1.000
    H129     H        0.30920    0.41470    0.02910    1.000
    H130     H        0.35660    0.42380    0.00890    1.000
    H131     H        0.30680    0.46430    0.01110    1.000
    C65      C        0.29991    0.31040    0.01578    1.000
    C66      C        0.33430    0.23250    0.03515    1.000
    H132     H        0.33280    0.25270    0.05080    1.000
    H133     H        0.30270    0.20800    0.03490    1.000
    C67      C        0.38790    0.20240    0.03368    1.000
    H134     H        0.38740    0.17320    0.04570    1.000
    H135     H        0.41910    0.22560    0.03790    1.000
    C68      C        0.42860    0.14250    0.00502    1.000
    C69      C        0.46340    0.08100    0.97161    1.000
    C70      C        0.45360    0.07950    0.94349    1.000
    H136     H        0.46870    0.11110    0.93590    1.000
    H137     H        0.47190    0.04880    0.93640    1.000
    H138     H        0.41400    0.07760    0.94020    1.000
    C71      C        0.52550    0.08510    0.97661    1.000
    H139     H        0.53190    0.08810    0.99450    1.000
    H140     H        0.54410    0.05400    0.97030    1.000
    H141     H        0.54020    0.11610    0.96820    1.000
    C72      C        0.44050    0.03180    0.98341    1.000
    H142     H        0.44460    0.03380    0.00150    1.000
    H143     H        0.40140    0.02830    0.97920    1.000
    H144     H        0.46070    0.00140    0.97720    1.000
    O13      O        0.22120    0.09110    0.24040    1.000
    N25      N        0.14610    0.04900    0.22790    1.000
    C73      C        0.20030    0.05160    0.23090    1.000
    C74      C        0.23480    0.00280    0.22790    1.000
    H145     H        0.23650    0.98420    0.24380    1.000
    H146     H        0.27220    0.01050    0.22210    1.000
    H147     H        0.21590    0.98110    0.21550    1.000
    C75      C        0.11300    0.09540    0.23250    1.000
    H148     H        0.13320    0.11650    0.24460    1.000
    H149     H        0.07680    0.08620    0.23940    1.000
    H150     H        0.10800    0.11530    0.21710    1.000
    C76      C        0.11510    0.00670    0.21670    1.000
    H151     H        0.10500    0.01470    0.19940    1.000
    H152     H        0.08160    0.00290    0.22670    1.000
    H153     H        0.13620    0.97410    0.21720    1.000
    O14      O        0.20680    0.09770    0.23970    1.000
    N26      N        0.16240    0.02870    0.22470    1.000
    C77      C        0.16220    0.07550    0.23530    1.000
    C78      C        0.11070    0.09340    0.24880    1.000
    H154     H        0.11020    0.08370    0.26640    1.000
    H155     H        0.08130    0.07480    0.24000    1.000
    H156     H        0.10480    0.13110    0.24720    1.000
    C79      C        0.21480    0.00780    0.21600    1.000
    H157     H        0.24220    0.02990    0.22420    1.000
    H158     H        0.22030    0.00930    0.19790    1.000
    H159     H        0.21900    0.97170    0.22170    1.000
    C80      C        0.11940    0.98940    0.22660    1.000
    H160     H        0.12720    0.96160    0.23860    1.000
    H161     H        0.11920    0.97480    0.20970    1.000
    H162     H        0.08340    0.00480    0.23030    1.000
    O15      O        0.52370    0.52520    0.23730    1.000
    N27      N        0.60730    0.56110    0.23598    1.000
    C81      C        0.55700    0.55790    0.24535    1.000
    C82      C        0.53970    0.59620    0.26520    1.000
    H163     H        0.53630    0.63110    0.25800    1.000
    H164     H        0.56700    0.59680    0.27860    1.000
    H165     H        0.50390    0.58530    0.27200    1.000
    C83      C        0.62470    0.52450    0.21680    1.000
    H166     H        0.63830    0.49250    0.22470    1.000
    H167     H        0.65430    0.54040    0.20700    1.000
    H168     H        0.59360    0.51620    0.20590    1.000
    C84      C        0.65200    0.59390    0.24490    1.000
    H169     H        0.64260    0.60720    0.26150    1.000
    H170     H        0.65570    0.62310    0.23330    1.000
    H171     H        0.68690    0.57470    0.24580    1.000
    O16      O        0.53350    0.52180    0.23300    1.000
    N28      N        0.59460    0.58020    0.24700    1.000
    C85      C        0.58000    0.54190    0.23190    1.000
    C86      C        0.61690    0.52960    0.20990    1.000
    H172     H        0.65290    0.51840    0.21620    1.000
    H173     H        0.62150    0.56020    0.19920    1.000
    H174     H        0.60020    0.50120    0.20030    1.000
    C87      C        0.55630    0.59920    0.26580    1.000
    H175     H        0.55540    0.63740    0.26530    1.000
    H176     H        0.56800    0.58750    0.28230    1.000
    H177     H        0.51940    0.58550    0.26220    1.000
    C88      C        0.64150    0.61480    0.24340    1.000
    H178     H        0.67400    0.59360    0.23970    1.000
    H179     H        0.64800    0.63490    0.25860    1.000
    H180     H        0.63460    0.63880    0.22950    1.000
    O17      O        0.61180    0.18960    0.40240    1.000
    N29      N        0.70220    0.20620    0.40213    1.000
    C89      C        0.65210    0.21150    0.39277    1.000
    C90      C        0.64490    0.24070    0.36850    1.000
    H181     H        0.66390    0.22050    0.35570    1.000
    H182     H        0.66130    0.27550    0.36960    1.000
    H183     H        0.60580    0.24390    0.36420    1.000
    C91      C        0.71010    0.17690    0.42510    1.000
    H184     H        0.72280    0.20110    0.43790    1.000
    H185     H        0.73720    0.14890    0.42300    1.000
    H186     H        0.67460    0.16190    0.43000    1.000
    C92      C        0.75110    0.23500    0.39460    1.000
    H187     H        0.77270    0.21330    0.38320    1.000
    H188     H        0.77330    0.24330    0.40930    1.000
    H189     H        0.74050    0.26740    0.38620    1.000
    O18      O        0.61660    0.19130    0.40933    1.000
    N30      N        0.68890    0.21780    0.38681    1.000
    C93      C        0.66700    0.19860    0.40741    1.000
    C94      C        0.70350    0.19130    0.43001    1.000
    H190     H        0.70720    0.22430    0.43900    1.000
    H191     H        0.73990    0.17960    0.42450    1.000
    H192     H        0.68730    0.16500    0.44100    1.000
    C95      C        0.65350    0.23060    0.36581    1.000
    H193     H        0.61860    0.21170    0.36750    1.000
    H194     H        0.67120    0.22110    0.35010    1.000
    H195     H        0.64630    0.26820    0.36600    1.000
    C96      C        0.74480    0.23750    0.38386    1.000
    H196     H        0.74760    0.27140    0.39220    1.000
    H197     H        0.75320    0.24150    0.36610    1.000
    H198     H        0.77100    0.21310    0.39140    1.000
    O19      O        0.55814    0.07050    0.40313    1.000
    N31      N        0.62740    0.02800    0.42166    1.000
    C97      C        0.60690    0.05570    0.40311    1.000
    C98      C        0.64370    0.06820    0.38120    1.000
    H199     H        0.62190    0.08520    0.36820    1.000
    H200     H        0.65850    0.03530    0.37480    1.000
    H201     H        0.67410    0.09100    0.38610    1.000
    C99      C        0.59400    0.01640    0.44346    1.000
    H202     H        0.61420    0.02610    0.45850    1.000
    H203     H        0.58540    0.97910    0.44400    1.000
    H204     H        0.55980    0.03650    0.44250    1.000
    C100     C        0.68160    0.00370    0.42210    1.000
    H205     H        0.68230    0.97290    0.41140    1.000
    H206     H        0.69020    0.99350    0.43920    1.000
    H207     H        0.70910    0.02890    0.41630    1.000
    O20      O        0.55460    0.06620    0.41360    1.000
    N32      N        0.64170    0.03950    0.40880    1.000
    C101     C        0.59450    0.04040    0.42120    1.000
    C102     C        0.58660    0.00290    0.44270    1.000
    H208     H        0.54820    0.00310    0.44830    1.000
    H209     H        0.61030    0.01670    0.45590    1.000
    H210     H        0.59770    0.96710    0.43880    1.000
    C103     C        0.64670    0.06700    0.38530    1.000
    H211     H        0.61650    0.09230    0.38410    1.000
    H212     H        0.64560    0.04370    0.37080    1.000
    H213     H        0.68200    0.08560    0.38550    1.000
    C104     C        0.69110    0.01080    0.41560    1.000
    H214     H        0.70540    0.02210    0.43180    1.000
    H215     H        0.71950    0.01560    0.40290    1.000
    H216     H        0.68090    0.97390    0.41650    1.000
    O21      O        0.14639    0.32860    0.08340    1.000
    N33      N        0.07652    0.29710    0.06085    1.000
    C105     C        0.09720    0.31530    0.08189    1.000
    C106     C        0.05920    0.32380    0.10383    1.000
    H217     H        0.07980    0.33930    0.11760    1.000
    H218     H        0.02900    0.34720    0.09900    1.000
    H219     H        0.04390    0.29020    0.10900    1.000
    C107     C        0.11240    0.28860    0.03952    1.000
    H220     H        0.12170    0.25160    0.03810    1.000
    H221     H        0.09360    0.30010    0.02440    1.000
    H222     H        0.14620    0.30890    0.04180    1.000
    C108     C        0.02040    0.27920    0.05671    1.000
    H223     H        0.00360    0.29940    0.04320    1.000
    H224     H        0.02090    0.24220    0.05220    1.000
    H225     H        0.99880    0.28390    0.07200    1.000
    O22      O        0.15330    0.18080    0.58310    1.000
    N34      N        0.06410    0.19600    0.57540    1.000
    C109     C        0.11650    0.19490    0.56850    1.000
    C110     C        0.13170    0.21430    0.54280    1.000
    H226     H        0.12010    0.25080    0.54150    1.000
    H227     H        0.11280    0.19370    0.53010    1.000
    H228     H        0.17160    0.21190    0.54040    1.000
    C111     C        0.04860    0.17900    0.60030    1.000
    H229     H        0.07880    0.15790    0.60700    1.000
    H230     H        0.01530    0.15760    0.59910    1.000
    H231     H        0.04160    0.20860    0.61140    1.000
    C112     C        0.01970    0.22280    0.56250    1.000
    H232     H        0.03360    0.23820    0.54700    1.000
    H233     H        0.00510    0.25040    0.57330    1.000
    H234     H        0.99020    0.19790    0.55860    1.000
    O23      O        0.19350    0.46280    0.06758    1.000
    N35      N        0.11520    0.50410    0.07756    1.000
    C113     C        0.16080    0.49930    0.06427    1.000
    C114     C        0.17010    0.53670    0.04288    1.000
    H235     H        0.19790    0.52240    0.03160    1.000
    H236     H        0.13530    0.54130    0.03390    1.000
    H237     H        0.18270    0.57040    0.04920    1.000
    C115     C        0.10540    0.46990    0.09869    1.000
    H238     H        0.13640    0.44570    0.10040    1.000
    H239     H        0.10190    0.49070    0.11390    1.000
    H240     H        0.07140    0.45010    0.09600    1.000
    C116     C        0.07540    0.54630    0.07560    1.000
    H241     H        0.07640    0.55830    0.05830    1.000
    H242     H        0.03910    0.53120    0.07910    1.000
    H243     H        0.08210    0.57570    0.08680    1.000
    O24      O        0.19630    0.03370    0.57440    1.000
    N36      N        0.13150    0.97400    0.56670    1.000
    C117     C        0.14940    0.01620    0.57840    1.000
    C118     C        0.10940    0.04700    0.59420    1.000
    H244     H        0.11030    0.03370    0.61130    1.000
    H245     H        0.07210    0.04320    0.58750    1.000
    H246     H        0.11980    0.08390    0.59420    1.000
    C119     C        0.16920    0.94380    0.55140    1.000
    H247     H        0.19830    0.96700    0.54540    1.000
    H248     H        0.14910    0.92920    0.53720    1.000
    H249     H        0.18560    0.91540    0.56110    1.000
    C120     C        0.07840    0.94880    0.57040    1.000
    H250     H        0.08850    0.91750    0.57980    1.000
    H251     H        0.05870    0.93860    0.55520    1.000
    H252     H        0.05450    0.97100    0.58060    1.000
    O25      O        0.55930    0.05840    0.07570    1.000
    N37      N        0.62540    0.00740    0.09178    1.000
    C121     C        0.60720    0.04150    0.07523    1.000
    C122     C        0.64620    0.05980    0.05507    1.000
    H253     H        0.62640    0.08180    0.04320    1.000
    H254     H        0.67660    0.07970    0.06250    1.000
    H255     H        0.66110    0.02930    0.04640    1.000
    C123     C        0.58840    0.98550    0.11030    1.000
    H256     H        0.55350    0.00480    0.10980    1.000
    H257     H        0.58140    0.94850    0.10710    1.000
    H258     H        0.60520    0.98940    0.12680    1.000
    C124     C        0.67940    0.98250    0.09128    1.000
    H259     H        0.70610    0.00580    0.08330    1.000
    H260     H        0.69130    0.97500    0.10830    1.000
    H261     H        0.67710    0.94990    0.08180    1.000
    O26      O        0.55550    0.45150    0.57900    1.000
    N38      N        0.64360    0.47690    0.58081    1.000
    C125     C        0.59210    0.47810    0.58900    1.000
    C126     C        0.57730    0.51500    0.60990    1.000
    H262     H        0.53760    0.52200    0.61000    1.000
    H263     H        0.59750    0.54770    0.60730    1.000
    H264     H        0.58810    0.49980    0.62590    1.000
    C127     C        0.65830    0.44380    0.55990    1.000
    H265     H        0.62590    0.43990    0.54910    1.000
    H266     H        0.66970    0.40940    0.56600    1.000
    H267     H        0.68850    0.45940    0.55040    1.000
    C128     C        0.69070    0.50300    0.59200    1.000
    H268     H        0.68030    0.51740    0.60820    1.000
    H269     H        0.70250    0.53130    0.58090    1.000
    H270     H        0.72100    0.47820    0.59410    1.000
    K7       K        0.75770    0.31321    0.76158    1.000
    K8       K        0.02569    0.07739    0.77390    1.000
    K9       K        0.01395    0.33873    0.59362    1.000
    K10      K        0.74088    0.12006    0.60943    1.000
    K11      K        0.73944    0.12749    0.92755    1.000
    K12      K        0.01300    0.35867    0.94070    1.000
    Zn4      Zn       0.90059    0.23129    0.84986    1.000
    O27      O        0.97918    0.33637    0.89794    1.000
    O28      O        0.80229    0.12687    0.89012    1.000
    O29      O        0.82577    0.32787    0.79706    1.000
    O30      O        0.99736    0.11740    0.81456    1.000
    N39      N        0.92930    0.27263    0.87819    1.000
    N40      N        0.85661    0.19326    0.87529    1.000
    N41      N        0.88162    0.27312    0.81991    1.000
    N42      N        0.93955    0.18415    0.82646    1.000
    N43      N        0.98968    0.32260    0.85601    1.000
    H271     H        0.98570    0.29940    0.84410    1.000
    N44      N        0.79760    0.15060    0.84977    1.000
    H272     H        0.80700    0.17490    0.83910    1.000
    N45      N        0.83879    0.34164    0.83866    1.000
    H273     H        0.85250    0.32860    0.85250    1.000
    N46      N        0.96177    0.11992    0.85396    1.000
    H274     H        0.94690    0.14040    0.86520    1.000
    C129     C        0.03370    0.36620    0.82248    1.000
    H275     H        0.05720    0.33580    0.81930    1.000
    H276     H        0.05290    0.39790    0.81720    1.000
    H277     H        0.99920    0.36260    0.81320    1.000
    C130     C        0.02113    0.36965    0.85010    1.000
    C131     C        0.98740    0.41850    0.85563    1.000
    H278     H        0.97790    0.41940    0.87330    1.000
    H279     H        0.95350    0.41800    0.84570    1.000
    H280     H        0.00900    0.44950    0.85140    1.000
    C132     C        0.07500    0.37170    0.86478    1.000
    H281     H        0.09520    0.33910    0.86250    1.000
    H282     H        0.06680    0.37660    0.88250    1.000
    H283     H        0.09740    0.40090    0.85880    1.000
    C133     C        0.96556    0.31140    0.87880    1.000
    C134     C        0.90166    0.25795    0.90127    1.000
    H284     H        0.87080    0.28230    0.90450    1.000
    H285     H        0.92790    0.26070    0.91530    1.000
    C135     C        0.87962    0.20268    0.89984    1.000
    H286     H        0.90980    0.17760    0.90310    1.000
    H287     H        0.85080    0.19760    0.91260    1.000
    C136     C        0.81907    0.15540    0.87325    1.000
    C137     C        0.76140    0.11040    0.84054    1.000
    C138     C        0.75240    0.12050    0.81305    1.000
    H288     H        0.73510    0.15470    0.81080    1.000
    H289     H        0.72840    0.09340    0.80610    1.000
    H290     H        0.78800    0.11990    0.80440    1.000
    C139     C        0.78830    0.05830    0.84375    1.000
    H291     H        0.79540    0.05210    0.86140    1.000
    H292     H        0.82320    0.05770    0.83460    1.000
    H293     H        0.76390    0.03100    0.83730    1.000
    C140     C        0.70740    0.11060    0.85370    1.000
    H294     H        0.69130    0.14550    0.85280    1.000
    H295     H        0.71300    0.10080    0.87110    1.000
    H296     H        0.68260    0.08550    0.84580    1.000
    C141     C        0.81380    0.40840    0.86767    1.000
    H297     H        0.79690    0.38240    0.87860    1.000
    H298     H        0.79510    0.44190    0.86990    1.000
    H299     H        0.85280    0.41210    0.87190    1.000
    C142     C        0.80820    0.39100    0.84066    1.000
    C143     C        0.74710    0.38230    0.83453    1.000
    H300     H        0.74350    0.37090    0.81720    1.000
    H301     H        0.72680    0.41500    0.83690    1.000
    H302     H        0.73190    0.35560    0.84560    1.000
    C144     C        0.83160    0.43240    0.82357    1.000
    H303     H        0.82830    0.42090    0.80630    1.000
    H304     H        0.87050    0.43820    0.82760    1.000
    H305     H        0.81100    0.46490    0.82580    1.000
    C145     C        0.84800    0.31380    0.81700    1.000
    C146     C        0.89350    0.24250    0.79757    1.000
    H306     H        0.90000    0.26600    0.78330    1.000
    H307     H        0.86170    0.21980    0.79360    1.000
    C147     C        0.94450    0.20940    0.80237    1.000
    H308     H        0.94830    0.18270    0.78920    1.000
    H309     H        0.97780    0.23170    0.80210    1.000
    C148     C        0.96733    0.14020    0.83034    1.000
    C149     C        0.97820    0.06760    0.86209    1.000
    C150     C        0.95730    0.06170    0.88857    1.000
    H310     H        0.91720    0.06550    0.88880    1.000
    H311     H        0.97410    0.08860    0.89910    1.000
    H312     H        0.96740    0.02720    0.89490    1.000
    C151     C        0.04130    0.06270    0.86192    1.000
    H313     H        0.05730    0.08920    0.87290    1.000
    H314     H        0.05500    0.06780    0.84500    1.000
    H315     H        0.05190    0.02800    0.86780    1.000
    C152     C        0.95310    0.02540    0.84570    1.000
    H316     H        0.91290    0.02900    0.84560    1.000
    H317     H        0.96310    0.99110    0.85220    1.000
    H318     H        0.96720    0.02900    0.82870    1.000
    Zn5      Zn       0.89579    0.18896    0.68080    1.000
    O31      O        0.78832    0.29224    0.71717    1.000
    O32      O        0.98241    0.10041    0.73367    1.000
    O33      O        0.97990    0.28539    0.63017    1.000
    O34      O        0.80263    0.07674    0.64338    1.000
    N47      N        0.85478    0.23392    0.70455    1.000
    N48      N        0.92892    0.15655    0.71054    1.000
    N49      N        0.92639    0.22599    0.65151    1.000
    N50      N        0.86384    0.14017    0.65595    1.000
    N51      N        0.80830    0.28218    0.67600    1.000
    H319     H        0.82880    0.26540    0.66520    1.000
    N52      N        0.00031    0.11257    0.69231    1.000
    H320     H        0.99780    0.13520    0.68010    1.000
    N53      N        0.97065    0.29064    0.67270    1.000
    H321     H        0.96760    0.27130    0.68610    1.000
    N54      N        0.84096    0.07415    0.68228    1.000
    H322     H        0.85880    0.09240    0.69350    1.000
    C153     C        0.77850    0.31940    0.63774    1.000
    H323     H        0.77040    0.28460    0.63120    1.000
    H324     H        0.81690    0.32840    0.63410    1.000
    H325     H        0.75400    0.34490    0.62980    1.000
    C154     C        0.76930    0.32010    0.66587    1.000
    C155     C        0.71030    0.30360    0.67184    1.000
    H326     H        0.70590    0.30030    0.68990    1.000
    H327     H        0.70240    0.27010    0.66390    1.000
    H328     H        0.68460    0.33000    0.66560    1.000
    C156     C        0.77970    0.37410    0.67564    1.000
    H329     H        0.77270    0.37490    0.69360    1.000
    H330     H        0.75500    0.39880    0.66730    1.000
    H331     H        0.81800    0.38390    0.67240    1.000
    C157     C        0.81630    0.27000    0.70059    1.000
    C158     C        0.86890    0.22090    0.72999    1.000
    H332     H        0.83510    0.22180    0.74030    1.000
    H333     H        0.89450    0.24760    0.73660    1.000
    C159     C        0.89490    0.16870    0.73222    1.000
    H334     H        0.91800    0.16780    0.74740    1.000
    H335     H        0.86580    0.14200    0.73400    1.000
    C160     C        0.97020    0.12290    0.71364    1.000
    C161     C        0.03610    0.06700    0.68845    1.000
    C162     C        0.04980    0.06620    0.66102    1.000
    H336     H        0.01580    0.06320    0.65130    1.000
    H337     H        0.07370    0.03630    0.65740    1.000
    H338     H        0.06890    0.09850    0.65650    1.000
    C163     C        0.08930    0.07190    0.70364    1.000
    H339     H        0.10990    0.10260    0.69810    1.000
    H340     H        0.11190    0.04060    0.70120    1.000
    H341     H        0.08020    0.07550    0.72130    1.000
    C164     C        0.00690    0.01730    0.69553    1.000
    H342     H        0.97230    0.01450    0.68620    1.000
    H343     H        0.99900    0.01750    0.71340    1.000
    H344     H        0.03050    0.98740    0.69160    1.000
    C165     C        0.98610    0.35440    0.70372    1.000
    H345     H        0.01280    0.33130    0.71180    1.000
    H346     H        0.94910    0.34680    0.71000    1.000
    H347     H        0.99550    0.39070    0.70730    1.000
    C166     C        0.98760    0.34550    0.67578    1.000
    C167     C        0.04640    0.35430    0.66651    1.000
    H348     H        0.07170    0.33130    0.67550    1.000
    H349     H        0.05690    0.39070    0.66940    1.000
    H350     H        0.04830    0.34670    0.64870    1.000
    C168     C        0.94840    0.38180    0.66253    1.000
    H351     H        0.95030    0.37550    0.64460    1.000
    H352     H        0.95880    0.41800    0.66600    1.000
    H353     H        0.91080    0.37560    0.66840    1.000
    C169     C        0.95923    0.26750    0.64977    1.000
    C170     C        0.91580    0.19650    0.62883    1.000
    H354     H        0.94670    0.17230    0.62560    1.000
    H355     H        0.91260    0.22050    0.61450    1.000
    C171     C        0.86222    0.16565    0.63187    1.000
    H356     H        0.83020    0.18940    0.63090    1.000
    H357     H        0.85880    0.13940    0.61850    1.000
    C172     C        0.83433    0.09677    0.65926    1.000
    C173     C        0.82110    0.02250    0.68991    1.000
    C174     C        0.84450    0.01380    0.71591    1.000
    H358     H        0.88480    0.01630    0.71530    1.000
    H359     H        0.83390    0.97920    0.72190    1.000
    H360     H        0.83000    0.04040    0.72720    1.000
    C175     C        0.75850    0.02140    0.69083    1.000
    H361     H        0.74370    0.03180    0.67460    1.000
    H362     H        0.74550    0.04560    0.70360    1.000
    H363     H        0.74600    0.98610    0.69480    1.000
    C176     C        0.84220    0.98000    0.67254    1.000
    H364     H        0.88220    0.98290    0.67090    1.000
    H365     H        0.82510    0.98410    0.65620    1.000
    H366     H        0.83270    0.94580    0.67940    1.000
    Zn6      Zn       0.86540    0.23434    0.51554    1.000
    O35      O        0.95946    0.34757    0.55282    1.000
    O36      O        0.77801    0.14150    0.56615    1.000
    O37      O        0.77282    0.17603    0.96551    1.000
    O38      O        0.95443    0.38122    0.97827    1.000
    N55      N        0.90233    0.28158    0.53948    1.000
    N56      N        0.82894    0.20317    0.54500    1.000
    N57      N        0.83122    0.23252    0.98609    1.000
    N58      N        0.89491    0.31775    0.99148    1.000
    N59      N        0.94987    0.33074    0.51131    1.000
    H367     H        0.92860    0.31590    0.50010    1.000
    N60      N        0.76171    0.15789    0.52478    1.000
    H368     H        0.75710    0.18450    0.51470    1.000
    N61      N        0.79874    0.15960    0.00576    1.000
    H369     H        0.80740    0.17500    0.01980    1.000
    N62      N        0.93423    0.37218    0.01963    1.000
    H370     H        0.91920    0.35190    0.03090    1.000
    C177     C        0.99230    0.35900    0.47371    1.000
    H371     H        0.99910    0.32270    0.46890    1.000
    H372     H        0.02060    0.38140    0.46630    1.000
    H373     H        0.95590    0.36970    0.46770    1.000
    C178     C        0.99440    0.36380    0.50203    1.000
    C179     C        0.98520    0.42020    0.50926    1.000
    H374     H        0.98220    0.42290    0.52740    1.000
    H375     H        0.95100    0.43290    0.50160    1.000
    H376     H        0.01620    0.44140    0.50350    1.000
    C180     C        0.05000    0.34550    0.51159    1.000
    H377     H        0.05510    0.30860    0.50740    1.000
    H378     H        0.05140    0.34970    0.52970    1.000
    H379     H        0.07930    0.36620    0.50390    1.000
    C181     C        0.93805    0.32050    0.53594    1.000
    C182     C        0.88135    0.27316    0.56463    1.000
    H380     H        0.85180    0.29870    0.56820    1.000
    H381     H        0.91140    0.27880    0.57680    1.000
    C183     C        0.85875    0.21808    0.56751    1.000
    H382     H        0.88940    0.19350    0.57040    1.000
    H383     H        0.83370    0.21660    0.58200    1.000
    C184     C        0.79081    0.16624    0.54681    1.000
    C185     C        0.73840    0.10759    0.51734    1.000
    C186     C        0.72110    0.11380    0.49026    1.000
    H384     H        0.69390    0.14190    0.48890    1.000
    H385     H        0.70480    0.08120    0.48430    1.000
    H386     H        0.75340    0.12240    0.48020    1.000
    C187     C        0.68830    0.09340    0.53282    1.000
    H387     H        0.66020    0.12050    0.53100    1.000
    H388     H        0.69900    0.09060    0.55030    1.000
    H389     H        0.67340    0.06000    0.52710    1.000
    C188     C        0.78280    0.06530    0.51922    1.000
    H390     H        0.81480    0.07540    0.50930    1.000
    H391     H        0.76800    0.03230    0.51290    1.000
    H392     H        0.79380    0.06100    0.53660    1.000
    C189     C        0.79780    0.08620    0.03298    1.000
    H393     H        0.77570    0.10610    0.04490    1.000
    H394     H        0.78940    0.04900    0.03460    1.000
    H395     H        0.83700    0.09200    0.03630    1.000
    C190     C        0.78420    0.10410    0.00673    1.000
    C191     C        0.72190    0.09760    0.00187    1.000
    H396     H        0.71320    0.10980    0.98510    1.000
    H397     H        0.71190    0.06080    0.00340    1.000
    H398     H        0.70120    0.11820    0.01400    1.000
    C192     C        0.81720    0.07250    0.98771    1.000
    H399     H        0.80920    0.08530    0.97090    1.000
    H400     H        0.85660    0.07620    0.99110    1.000
    H401     H        0.80680    0.03570    0.98890    1.000
    C193     C        0.79991    0.18960    0.98422    1.000
    C194     C        0.83430    0.26750    0.96485    1.000
    H402     H        0.83280    0.24730    0.94920    1.000
    H403     H        0.80270    0.29200    0.96510    1.000
    C195     C        0.88790    0.29760    0.96632    1.000
    H404     H        0.88740    0.32680    0.95430    1.000
    H405     H        0.91910    0.27440    0.96210    1.000
    C196     C        0.92860    0.35750    0.99498    1.000
    C197     C        0.96340    0.41900    0.02839    1.000
    C198     C        0.95360    0.42050    0.05651    1.000
    H406     H        0.96870    0.38890    0.06410    1.000
    H407     H        0.97190    0.45120    0.06360    1.000
    H408     H        0.91400    0.42240    0.05980    1.000
    C199     C        0.02550    0.41490    0.02339    1.000
    H409     H        0.03190    0.41190    0.00550    1.000
    H410     H        0.04410    0.44600    0.02970    1.000
    H411     H        0.04020    0.38390    0.03180    1.000
    C200     C        0.94050    0.46820    0.01659    1.000
    H412     H        0.94460    0.46620    0.99850    1.000
    H413     H        0.90140    0.47170    0.02080    1.000
    H414     H        0.96070    0.49860    0.02280    1.000
    O39      O        0.72120    0.40890    0.75960    1.000
    N63      N        0.64610    0.45100    0.77210    1.000
    C201     C        0.70030    0.44840    0.76910    1.000
    C202     C        0.73480    0.49720    0.77210    1.000
    H415     H        0.73650    0.51580    0.75620    1.000
    H416     H        0.77220    0.48950    0.77790    1.000
    H417     H        0.71590    0.51890    0.78450    1.000
    C203     C        0.61300    0.40460    0.76750    1.000
    H418     H        0.63320    0.38350    0.75540    1.000
    H419     H        0.57680    0.41380    0.76060    1.000
    H420     H        0.60800    0.38470    0.78290    1.000
    C204     C        0.61510    0.49330    0.78330    1.000
    H421     H        0.60500    0.48530    0.80060    1.000
    H422     H        0.58160    0.49710    0.77330    1.000
    H423     H        0.63620    0.52590    0.78280    1.000
    O40      O        0.70680    0.40230    0.76030    1.000
    N64      N        0.66240    0.47130    0.77530    1.000
    C205     C        0.66220    0.42450    0.76470    1.000
    C206     C        0.61070    0.40660    0.75120    1.000
    H424     H        0.61020    0.41630    0.73360    1.000
    H425     H        0.58130    0.42520    0.76000    1.000
    H426     H        0.60480    0.36890    0.75280    1.000
    C207     C        0.71480    0.49220    0.78400    1.000
    H427     H        0.74220    0.47010    0.77580    1.000
    H428     H        0.72030    0.49070    0.80210    1.000
    H429     H        0.71900    0.52830    0.77830    1.000
    C208     C        0.61940    0.51060    0.77340    1.000
    H430     H        0.62720    0.53840    0.76140    1.000
    H431     H        0.61920    0.52520    0.79030    1.000
    H432     H        0.58340    0.49520    0.76970    1.000
    O41      O        0.02370    0.97480    0.76270    1.000
    N65      N        0.10730    0.93890    0.76402    1.000
    C209     C        0.05700    0.94210    0.75465    1.000
    C210     C        0.03970    0.90380    0.73480    1.000
    H433     H        0.03630    0.86890    0.74200    1.000
    H434     H        0.06700    0.90320    0.72140    1.000
    H435     H        0.00390    0.91470    0.72800    1.000
    C211     C        0.12470    0.97550    0.78320    1.000
    H436     H        0.13830    0.00750    0.77530    1.000
    H437     H        0.15430    0.95960    0.79300    1.000
    H438     H        0.09360    0.98380    0.79410    1.000
    C212     C        0.15200    0.90610    0.75510    1.000
    H439     H        0.14260    0.89280    0.73850    1.000
    H440     H        0.15570    0.87690    0.76670    1.000
    H441     H        0.18690    0.92530    0.75420    1.000
    O42      O        0.03350    0.97820    0.76700    1.000
    N66      N        0.09460    0.91980    0.75300    1.000
    C213     C        0.08000    0.95810    0.76810    1.000
    C214     C        0.11690    0.97040    0.79010    1.000
    H442     H        0.15290    0.98160    0.78380    1.000
    H443     H        0.12150    0.93980    0.80080    1.000
    H444     H        0.10020    0.99880    0.79970    1.000
    C215     C        0.05630    0.90080    0.73420    1.000
    H445     H        0.05540    0.86260    0.73470    1.000
    H446     H        0.06800    0.91250    0.71770    1.000
    H447     H        0.01940    0.91450    0.73780    1.000
    C216     C        0.14150    0.88520    0.75660    1.000
    H448     H        0.17400    0.90640    0.76030    1.000
    H449     H        0.14800    0.86510    0.74140    1.000
    H450     H        0.13460    0.86120    0.77050    1.000
    O43      O        0.11180    0.31040    0.59760    1.000
    N67      N        0.20220    0.29380    0.59787    1.000
    C217     C        0.15210    0.28850    0.60723    1.000
    C218     C        0.14490    0.25930    0.63150    1.000
    H451     H        0.16390    0.27950    0.64430    1.000
    H452     H        0.16130    0.22450    0.63040    1.000
    H453     H        0.10580    0.25610    0.63580    1.000
    C219     C        0.21010    0.32310    0.57490    1.000
    H454     H        0.22280    0.29890    0.56210    1.000
    H455     H        0.23720    0.35110    0.57700    1.000
    H456     H        0.17460    0.33810    0.57000    1.000
    C220     C        0.25110    0.26500    0.60540    1.000
    H457     H        0.27270    0.28670    0.61680    1.000
    H458     H        0.27330    0.25670    0.59070    1.000
    H459     H        0.24050    0.23260    0.61380    1.000
    O44      O        0.11660    0.30870    0.59067    1.000
    N68      N        0.18890    0.28220    0.61319    1.000
    C221     C        0.16700    0.30140    0.59259    1.000
    C222     C        0.20350    0.30870    0.56999    1.000
    H460     H        0.20720    0.27570    0.56100    1.000
    H461     H        0.23990    0.32040    0.57550    1.000
    H462     H        0.18730    0.33500    0.55900    1.000
    C223     C        0.15350    0.26940    0.63419    1.000
    H463     H        0.11860    0.28830    0.63250    1.000
    H464     H        0.17120    0.27890    0.64990    1.000
    H465     H        0.14630    0.23180    0.63400    1.000
    C224     C        0.24480    0.26250    0.61614    1.000
    H466     H        0.24760    0.22860    0.60780    1.000
    H467     H        0.25320    0.25850    0.63390    1.000
    H468     H        0.27100    0.28690    0.60860    1.000
    O45      O        0.05814    0.42950    0.59687    1.000
    N69      N        0.12740    0.47200    0.57834    1.000
    C225     C        0.10690    0.44430    0.59689    1.000
    C226     C        0.14370    0.43180    0.61880    1.000
    H469     H        0.12190    0.41480    0.63180    1.000
    H470     H        0.15850    0.46470    0.62520    1.000
    H471     H        0.17410    0.40900    0.61390    1.000
    C227     C        0.09400    0.48360    0.55654    1.000
    H472     H        0.11420    0.47390    0.54150    1.000
    H473     H        0.08540    0.52090    0.55600    1.000
    H474     H        0.05980    0.46350    0.55750    1.000
    C228     C        0.18160    0.49630    0.57790    1.000
    H475     H        0.18230    0.52710    0.58860    1.000
    H476     H        0.19020    0.50650    0.56080    1.000
    H477     H        0.20910    0.47110    0.58370    1.000
    O46      O        0.05460    0.43380    0.58640    1.000
    N70      N        0.14170    0.46050    0.59120    1.000
    C229     C        0.09450    0.45960    0.57880    1.000
    C230     C        0.08660    0.49710    0.55730    1.000
    H478     H        0.04820    0.49690    0.55170    1.000
    H479     H        0.11030    0.48330    0.54410    1.000
    H480     H        0.09770    0.53290    0.56120    1.000
    C231     C        0.14670    0.43300    0.61470    1.000
    H481     H        0.11650    0.40770    0.61590    1.000
    H482     H        0.14560    0.45630    0.62920    1.000
    H483     H        0.18200    0.41440    0.61450    1.000
    C232     C        0.19110    0.48920    0.58440    1.000
    H484     H        0.20540    0.47790    0.56820    1.000
    H485     H        0.21950    0.48440    0.59710    1.000
    H486     H        0.18090    0.52610    0.58350    1.000
    O47      O        0.64639    0.17140    0.91660    1.000
    N71      N        0.57652    0.20290    0.93915    1.000
    C233     C        0.59720    0.18470    0.91811    1.000
    C234     C        0.55920    0.17620    0.89617    1.000
    H487     H        0.57980    0.16070    0.88240    1.000
    H488     H        0.52900    0.15280    0.90100    1.000
    H489     H        0.54390    0.20980    0.89100    1.000
    C235     C        0.61240    0.21140    0.96048    1.000
    H490     H        0.62170    0.24840    0.96190    1.000
    H491     H        0.59360    0.19990    0.97560    1.000
    H492     H        0.64620    0.19110    0.95820    1.000
    C236     C        0.52040    0.22080    0.94329    1.000
    H493     H        0.50360    0.20060    0.95680    1.000
    H494     H        0.52090    0.25780    0.94780    1.000
    H495     H        0.49880    0.21610    0.92800    1.000
    O48      O        0.65330    0.31920    0.41690    1.000
    N72      N        0.56410    0.30400    0.42460    1.000
    C237     C        0.61650    0.30510    0.43150    1.000
    C238     C        0.63170    0.28570    0.45720    1.000
    H496     H        0.62010    0.24920    0.45850    1.000
    H497     H        0.61280    0.30630    0.46990    1.000
    H498     H        0.67160    0.28810    0.45960    1.000
    C239     C        0.54860    0.32100    0.39970    1.000
    H499     H        0.57880    0.34210    0.39300    1.000
    H500     H        0.51530    0.34240    0.40090    1.000
    H501     H        0.54160    0.29140    0.38860    1.000
    C240     C        0.51970    0.27720    0.43750    1.000
    H502     H        0.53360    0.26180    0.45300    1.000
    H503     H        0.50510    0.24960    0.42670    1.000
    H504     H        0.49020    0.30210    0.44140    1.000
    O49      O        0.69350    0.03720    0.93242    1.000
    N73      N        0.61520    0.99590    0.92244    1.000
    C241     C        0.66080    0.00070    0.93573    1.000
    C242     C        0.67010    0.96330    0.95712    1.000
    H505     H        0.69790    0.97760    0.96840    1.000
    H506     H        0.63530    0.95870    0.96610    1.000
    H507     H        0.68270    0.92960    0.95080    1.000
    C243     C        0.60540    0.03010    0.90131    1.000
    H508     H        0.63640    0.05430    0.89960    1.000
    H509     H        0.60190    0.00930    0.88610    1.000
    H510     H        0.57140    0.04990    0.90400    1.000
    C244     C        0.57540    0.95370    0.92440    1.000
    H511     H        0.57640    0.94170    0.94170    1.000
    H512     H        0.53910    0.96880    0.92090    1.000
    H513     H        0.58210    0.92430    0.91320    1.000
    O50      O        0.69630    0.46630    0.42560    1.000
    N74      N        0.63150    0.52600    0.43330    1.000
    C245     C        0.64940    0.48380    0.42160    1.000
    C246     C        0.60940    0.45300    0.40580    1.000
    H514     H        0.61030    0.46630    0.38870    1.000
    H515     H        0.57210    0.45680    0.41250    1.000
    H516     H        0.61980    0.41610    0.40580    1.000
    C247     C        0.66920    0.55620    0.44860    1.000
    H517     H        0.69830    0.53300    0.45460    1.000
    H518     H        0.64910    0.57080    0.46280    1.000
    H519     H        0.68560    0.58460    0.43890    1.000
    C248     C        0.57840    0.55120    0.42960    1.000
    H520     H        0.58850    0.58250    0.42020    1.000
    H521     H        0.55870    0.56140    0.44480    1.000
    H522     H        0.55450    0.52900    0.41940    1.000
    O51      O        0.05930    0.44160    0.92430    1.000
    N75      N        0.12540    0.49260    0.90822    1.000
    C249     C        0.10720    0.45850    0.92477    1.000
    C250     C        0.14620    0.44020    0.94493    1.000
    H523     H        0.12640    0.41820    0.95680    1.000
    H524     H        0.17660    0.42030    0.93750    1.000
    H525     H        0.16110    0.47070    0.95360    1.000
    C251     C        0.08840    0.51450    0.88970    1.000
    H526     H        0.05350    0.49520    0.89020    1.000
    H527     H        0.08140    0.55150    0.89290    1.000
    H528     H        0.10520    0.51060    0.87320    1.000
    C252     C        0.17940    0.51750    0.90872    1.000
    H529     H        0.20610    0.49420    0.91670    1.000
    H530     H        0.19130    0.52500    0.89170    1.000
    H531     H        0.17710    0.55010    0.91820    1.000
    O52      O        0.05550    0.04850    0.42100    1.000
    N76      N        0.14360    0.02310    0.41919    1.000
    C253     C        0.09210    0.02190    0.41100    1.000
    C254     C        0.07730    0.98500    0.39010    1.000
    H532     H        0.03760    0.97800    0.39000    1.000
    H533     H        0.09750    0.95230    0.39270    1.000
    H534     H        0.08810    0.00020    0.37410    1.000
    C255     C        0.15830    0.05620    0.44010    1.000
    H535     H        0.12590    0.06010    0.45090    1.000
    H536     H        0.16970    0.09060    0.43400    1.000
    H537     H        0.18850    0.04060    0.44960    1.000
    C256     C        0.19070    0.99700    0.40800    1.000
    H538     H        0.18030    0.98260    0.39180    1.000
    H539     H        0.20250    0.96870    0.41910    1.000
    H540     H        0.22100    0.02180    0.40590    1.000
    K13      K        0.75770    0.18679    0.26158    1.000
    K14      K        0.02569    0.42261    0.27390    1.000
    K15      K        0.01395    0.16127    0.09362    1.000
    K16      K        0.74088    0.37994    0.10943    1.000
    K17      K        0.73944    0.37251    0.42755    1.000
    K18      K        0.01300    0.14133    0.44070    1.000
    Zn7      Zn       0.90059    0.26871    0.34986    1.000
    O53      O        0.97918    0.16363    0.39794    1.000
    O54      O        0.80229    0.37313    0.39012    1.000
    O55      O        0.82577    0.17213    0.29706    1.000
    O56      O        0.99736    0.38260    0.31456    1.000
    N77      N        0.92930    0.22737    0.37819    1.000
    N78      N        0.85661    0.30674    0.37529    1.000
    N79      N        0.88162    0.22688    0.31991    1.000
    N80      N        0.93955    0.31585    0.32646    1.000
    N81      N        0.98968    0.17740    0.35601    1.000
    H541     H        0.98570    0.20060    0.34410    1.000
    N82      N        0.79760    0.34940    0.34977    1.000
    H542     H        0.80700    0.32510    0.33910    1.000
    N83      N        0.83879    0.15836    0.33866    1.000
    H543     H        0.85250    0.17140    0.35250    1.000
    N84      N        0.96177    0.38008    0.35396    1.000
    H544     H        0.94690    0.35960    0.36520    1.000
    C257     C        0.03370    0.13380    0.32248    1.000
    H545     H        0.05720    0.16420    0.31930    1.000
    H546     H        0.05290    0.10210    0.31720    1.000
    H547     H        0.99920    0.13740    0.31320    1.000
    C258     C        0.02113    0.13035    0.35010    1.000
    C259     C        0.98740    0.08150    0.35563    1.000
    H548     H        0.97790    0.08060    0.37330    1.000
    H549     H        0.95350    0.08200    0.34570    1.000
    H550     H        0.00900    0.05050    0.35140    1.000
    C260     C        0.07500    0.12830    0.36478    1.000
    H551     H        0.09520    0.16090    0.36250    1.000
    H552     H        0.06680    0.12340    0.38250    1.000
    H553     H        0.09740    0.09910    0.35880    1.000
    C261     C        0.96556    0.18860    0.37880    1.000
    C262     C        0.90166    0.24205    0.40127    1.000
    H554     H        0.87080    0.21770    0.40450    1.000
    H555     H        0.92790    0.23930    0.41530    1.000
    C263     C        0.87962    0.29732    0.39984    1.000
    H556     H        0.90980    0.32240    0.40310    1.000
    H557     H        0.85080    0.30240    0.41260    1.000
    C264     C        0.81907    0.34460    0.37325    1.000
    C265     C        0.76140    0.38960    0.34054    1.000
    C266     C        0.75240    0.37950    0.31305    1.000
    H558     H        0.73510    0.34530    0.31080    1.000
    H559     H        0.72840    0.40660    0.30610    1.000
    H560     H        0.78800    0.38010    0.30440    1.000
    C267     C        0.78830    0.44170    0.34375    1.000
    H561     H        0.79540    0.44790    0.36140    1.000
    H562     H        0.82320    0.44230    0.33460    1.000
    H563     H        0.76390    0.46900    0.33730    1.000
    C268     C        0.70740    0.38940    0.35370    1.000
    H564     H        0.69130    0.35450    0.35280    1.000
    H565     H        0.71300    0.39920    0.37110    1.000
    H566     H        0.68260    0.41450    0.34580    1.000
    C269     C        0.81380    0.09160    0.36767    1.000
    H567     H        0.79690    0.11760    0.37860    1.000
    H568     H        0.79510    0.05810    0.36990    1.000
    H569     H        0.85280    0.08790    0.37190    1.000
    C270     C        0.80820    0.10900    0.34066    1.000
    C271     C        0.74710    0.11770    0.33453    1.000
    H570     H        0.74350    0.12910    0.31720    1.000
    H571     H        0.72680    0.08500    0.33690    1.000
    H572     H        0.73190    0.14440    0.34560    1.000
    C272     C        0.83160    0.06760    0.32357    1.000
    H573     H        0.82830    0.07910    0.30630    1.000
    H574     H        0.87050    0.06180    0.32760    1.000
    H575     H        0.81100    0.03510    0.32580    1.000
    C273     C        0.84800    0.18620    0.31700    1.000
    C274     C        0.89350    0.25750    0.29757    1.000
    H576     H        0.90000    0.23400    0.28330    1.000
    H577     H        0.86170    0.28020    0.29360    1.000
    C275     C        0.94450    0.29060    0.30237    1.000
    H578     H        0.94830    0.31730    0.28920    1.000
    H579     H        0.97780    0.26830    0.30210    1.000
    C276     C        0.96733    0.35980    0.33034    1.000
    C277     C        0.97820    0.43240    0.36209    1.000
    C278     C        0.95730    0.43830    0.38857    1.000
    H580     H        0.91720    0.43450    0.38880    1.000
    H581     H        0.97410    0.41140    0.39910    1.000
    H582     H        0.96740    0.47280    0.39490    1.000
    C279     C        0.04130    0.43730    0.36192    1.000
    H583     H        0.05730    0.41080    0.37290    1.000
    H584     H        0.05500    0.43220    0.34500    1.000
    H585     H        0.05190    0.47200    0.36780    1.000
    C280     C        0.95310    0.47460    0.34570    1.000
    H586     H        0.91290    0.47100    0.34560    1.000
    H587     H        0.96310    0.50890    0.35220    1.000
    H588     H        0.96720    0.47100    0.32870    1.000
    Zn8      Zn       0.89579    0.31104    0.18080    1.000
    O57      O        0.78832    0.20776    0.21717    1.000
    O58      O        0.98241    0.39959    0.23367    1.000
    O59      O        0.97990    0.21461    0.13017    1.000
    O60      O        0.80263    0.42326    0.14338    1.000
    N85      N        0.85478    0.26608    0.20455    1.000
    N86      N        0.92892    0.34345    0.21054    1.000
    N87      N        0.92639    0.27401    0.15151    1.000
    N88      N        0.86384    0.35983    0.15595    1.000
    N89      N        0.80830    0.21782    0.17600    1.000
    H589     H        0.82880    0.23460    0.16520    1.000
    N90      N        0.00031    0.38743    0.19231    1.000
    H590     H        0.99780    0.36480    0.18010    1.000
    N91      N        0.97065    0.20936    0.17270    1.000
    H591     H        0.96760    0.22870    0.18610    1.000
    N92      N        0.84096    0.42585    0.18228    1.000
    H592     H        0.85880    0.40760    0.19350    1.000
    C281     C        0.77850    0.18060    0.13774    1.000
    H593     H        0.77040    0.21540    0.13120    1.000
    H594     H        0.81690    0.17160    0.13410    1.000
    H595     H        0.75400    0.15510    0.12980    1.000
    C282     C        0.76930    0.17990    0.16587    1.000
    C283     C        0.71030    0.19640    0.17184    1.000
    H596     H        0.70590    0.19970    0.18990    1.000
    H597     H        0.70240    0.22990    0.16390    1.000
    H598     H        0.68460    0.17000    0.16560    1.000
    C284     C        0.77970    0.12590    0.17564    1.000
    H599     H        0.77270    0.12510    0.19360    1.000
    H600     H        0.75500    0.10120    0.16730    1.000
    H601     H        0.81800    0.11610    0.17240    1.000
    C285     C        0.81630    0.23000    0.20059    1.000
    C286     C        0.86890    0.27910    0.22999    1.000
    H602     H        0.83510    0.27820    0.24030    1.000
    H603     H        0.89450    0.25240    0.23660    1.000
    C287     C        0.89490    0.33130    0.23222    1.000
    H604     H        0.91800    0.33220    0.24740    1.000
    H605     H        0.86580    0.35800    0.23400    1.000
    C288     C        0.97020    0.37710    0.21364    1.000
    C289     C        0.03610    0.43300    0.18845    1.000
    C290     C        0.04980    0.43380    0.16102    1.000
    H606     H        0.01580    0.43680    0.15130    1.000
    H607     H        0.07370    0.46370    0.15740    1.000
    H608     H        0.06890    0.40150    0.15650    1.000
    C291     C        0.08930    0.42810    0.20364    1.000
    H609     H        0.10990    0.39740    0.19810    1.000
    H610     H        0.11190    0.45940    0.20120    1.000
    H611     H        0.08020    0.42450    0.22130    1.000
    C292     C        0.00690    0.48270    0.19553    1.000
    H612     H        0.97230    0.48550    0.18620    1.000
    H613     H        0.99900    0.48250    0.21340    1.000
    H614     H        0.03050    0.51260    0.19160    1.000
    C293     C        0.98610    0.14560    0.20372    1.000
    H615     H        0.01280    0.16870    0.21180    1.000
    H616     H        0.94910    0.15320    0.21000    1.000
    H617     H        0.99550    0.10930    0.20730    1.000
    C294     C        0.98760    0.15450    0.17578    1.000
    C295     C        0.04640    0.14570    0.16651    1.000
    H618     H        0.07170    0.16870    0.17550    1.000
    H619     H        0.05690    0.10930    0.16940    1.000
    H620     H        0.04830    0.15330    0.14870    1.000
    C296     C        0.94840    0.11820    0.16253    1.000
    H621     H        0.95030    0.12450    0.14460    1.000
    H622     H        0.95880    0.08200    0.16600    1.000
    H623     H        0.91080    0.12440    0.16840    1.000
    C297     C        0.95923    0.23250    0.14977    1.000
    C298     C        0.91580    0.30350    0.12883    1.000
    H624     H        0.94670    0.32770    0.12560    1.000
    H625     H        0.91260    0.27950    0.11450    1.000
    C299     C        0.86222    0.33435    0.13187    1.000
    H626     H        0.83020    0.31060    0.13090    1.000
    H627     H        0.85880    0.36060    0.11850    1.000
    C300     C        0.83433    0.40323    0.15926    1.000
    C301     C        0.82110    0.47750    0.18991    1.000
    C302     C        0.84450    0.48620    0.21591    1.000
    H628     H        0.88480    0.48370    0.21530    1.000
    H629     H        0.83390    0.52080    0.22190    1.000
    H630     H        0.83000    0.45960    0.22720    1.000
    C303     C        0.75850    0.47860    0.19083    1.000
    H631     H        0.74370    0.46820    0.17460    1.000
    H632     H        0.74550    0.45440    0.20360    1.000
    H633     H        0.74600    0.51390    0.19480    1.000
    C304     C        0.84220    0.52000    0.17254    1.000
    H634     H        0.88220    0.51710    0.17090    1.000
    H635     H        0.82510    0.51590    0.15620    1.000
    H636     H        0.83270    0.55420    0.17940    1.000
    Zn9      Zn       0.86540    0.26566    0.01554    1.000
    O61      O        0.95946    0.15243    0.05282    1.000
    O62      O        0.77801    0.35850    0.06615    1.000
    O63      O        0.77282    0.32397    0.46551    1.000
    O64      O        0.95443    0.11878    0.47827    1.000
    N93      N        0.90233    0.21842    0.03948    1.000
    N94      N        0.82894    0.29683    0.04500    1.000
    N95      N        0.83122    0.26748    0.48609    1.000
    N96      N        0.89491    0.18225    0.49148    1.000
    N97      N        0.94987    0.16926    0.01131    1.000
    H637     H        0.92860    0.18410    0.00010    1.000
    N98      N        0.76171    0.34211    0.02478    1.000
    H638     H        0.75710    0.31550    0.01470    1.000
    N99      N        0.79874    0.34040    0.50576    1.000
    H639     H        0.80740    0.32500    0.51980    1.000
    N100     N        0.93423    0.12782    0.51963    1.000
    H640     H        0.91920    0.14810    0.53090    1.000
    C305     C        0.99230    0.14100    0.97371    1.000
    H641     H        0.99910    0.17730    0.96890    1.000
    H642     H        0.02060    0.11860    0.96630    1.000
    H643     H        0.95590    0.13030    0.96770    1.000
    C306     C        0.99440    0.13620    0.00203    1.000
    C307     C        0.98520    0.07980    0.00926    1.000
    H644     H        0.98220    0.07710    0.02740    1.000
    H645     H        0.95100    0.06710    0.00160    1.000
    H646     H        0.01620    0.05860    0.00350    1.000
    C308     C        0.05000    0.15450    0.01159    1.000
    H647     H        0.05510    0.19140    0.00740    1.000
    H648     H        0.05140    0.15030    0.02970    1.000
    H649     H        0.07930    0.13380    0.00390    1.000
    C309     C        0.93805    0.17950    0.03594    1.000
    C310     C        0.88135    0.22684    0.06463    1.000
    H650     H        0.85180    0.20130    0.06820    1.000
    H651     H        0.91140    0.22120    0.07680    1.000
    C311     C        0.85875    0.28192    0.06751    1.000
    H652     H        0.88940    0.30650    0.07040    1.000
    H653     H        0.83370    0.28340    0.08200    1.000
    C312     C        0.79081    0.33376    0.04681    1.000
    C313     C        0.73840    0.39241    0.01734    1.000
    C314     C        0.72110    0.38620    0.99026    1.000
    H654     H        0.69390    0.35810    0.98890    1.000
    H655     H        0.70480    0.41880    0.98430    1.000
    H656     H        0.75340    0.37760    0.98020    1.000
    C315     C        0.68830    0.40660    0.03282    1.000
    H657     H        0.66020    0.37950    0.03100    1.000
    H658     H        0.69900    0.40940    0.05030    1.000
    H659     H        0.67340    0.44000    0.02710    1.000
    C316     C        0.78280    0.43470    0.01922    1.000
    H660     H        0.81480    0.42460    0.00930    1.000
    H661     H        0.76800    0.46770    0.01290    1.000
    H662     H        0.79380    0.43900    0.03660    1.000
    C317     C        0.79780    0.41380    0.53298    1.000
    H663     H        0.77570    0.39390    0.54490    1.000
    H664     H        0.78940    0.45100    0.53460    1.000
    H665     H        0.83700    0.40800    0.53630    1.000
    C318     C        0.78420    0.39590    0.50673    1.000
    C319     C        0.72190    0.40240    0.50187    1.000
    H666     H        0.71320    0.39020    0.48510    1.000
    H667     H        0.71190    0.43920    0.50340    1.000
    H668     H        0.70120    0.38180    0.51400    1.000
    C320     C        0.81720    0.42750    0.48771    1.000
    H669     H        0.80920    0.41470    0.47090    1.000
    H670     H        0.85660    0.42380    0.49110    1.000
    H671     H        0.80680    0.46430    0.48890    1.000
    C321     C        0.79991    0.31040    0.48422    1.000
    C322     C        0.83430    0.23250    0.46485    1.000
    H672     H        0.83280    0.25270    0.44920    1.000
    H673     H        0.80270    0.20800    0.46510    1.000
    C323     C        0.88790    0.20240    0.46632    1.000
    H674     H        0.88740    0.17320    0.45430    1.000
    H675     H        0.91910    0.22560    0.46210    1.000
    C324     C        0.92860    0.14250    0.49498    1.000
    C325     C        0.96340    0.08100    0.52839    1.000
    C326     C        0.95360    0.07950    0.55651    1.000
    H676     H        0.96870    0.11110    0.56410    1.000
    H677     H        0.97190    0.04880    0.56360    1.000
    H678     H        0.91400    0.07760    0.55980    1.000
    C327     C        0.02550    0.08510    0.52339    1.000
    H679     H        0.03190    0.08810    0.50550    1.000
    H680     H        0.04410    0.05400    0.52970    1.000
    H681     H        0.04020    0.11610    0.53180    1.000
    C328     C        0.94050    0.03180    0.51659    1.000
    H682     H        0.94460    0.03380    0.49850    1.000
    H683     H        0.90140    0.02830    0.52080    1.000
    H684     H        0.96070    0.00140    0.52280    1.000
    O65      O        0.72120    0.09110    0.25960    1.000
    N101     N        0.64610    0.04900    0.27210    1.000
    C329     C        0.70030    0.05160    0.26910    1.000
    C330     C        0.73480    0.00280    0.27210    1.000
    H685     H        0.73650    0.98420    0.25620    1.000
    H686     H        0.77220    0.01050    0.27790    1.000
    H687     H        0.71590    0.98110    0.28450    1.000
    C331     C        0.61300    0.09540    0.26750    1.000
    H688     H        0.63320    0.11650    0.25540    1.000
    H689     H        0.57680    0.08620    0.26060    1.000
    H690     H        0.60800    0.11530    0.28290    1.000
    C332     C        0.61510    0.00670    0.28330    1.000
    H691     H        0.60500    0.01470    0.30060    1.000
    H692     H        0.58160    0.00290    0.27330    1.000
    H693     H        0.63620    0.97410    0.28280    1.000
    O66      O        0.70680    0.09770    0.26030    1.000
    N102     N        0.66240    0.02870    0.27530    1.000
    C333     C        0.66220    0.07550    0.26470    1.000
    C334     C        0.61070    0.09340    0.25120    1.000
    H694     H        0.61020    0.08370    0.23360    1.000
    H695     H        0.58130    0.07480    0.26000    1.000
    H696     H        0.60480    0.13110    0.25280    1.000
    C335     C        0.71480    0.00780    0.28400    1.000
    H697     H        0.74220    0.02990    0.27580    1.000
    H698     H        0.72030    0.00930    0.30210    1.000
    H699     H        0.71900    0.97170    0.27830    1.000
    C336     C        0.61940    0.98940    0.27340    1.000
    H700     H        0.62720    0.96160    0.26140    1.000
    H701     H        0.61920    0.97480    0.29030    1.000
    H702     H        0.58340    0.00480    0.26970    1.000
    O67      O        0.02370    0.52520    0.26270    1.000
    N103     N        0.10730    0.56110    0.26402    1.000
    C337     C        0.05700    0.55790    0.25465    1.000
    C338     C        0.03970    0.59620    0.23480    1.000
    H703     H        0.03630    0.63110    0.24200    1.000
    H704     H        0.06700    0.59680    0.22140    1.000
    H705     H        0.00390    0.58530    0.22800    1.000
    C339     C        0.12470    0.52450    0.28320    1.000
    H706     H        0.13830    0.49250    0.27530    1.000
    H707     H        0.15430    0.54040    0.29300    1.000
    H708     H        0.09360    0.51620    0.29410    1.000
    C340     C        0.15200    0.59390    0.25510    1.000
    H709     H        0.14260    0.60720    0.23850    1.000
    H710     H        0.15570    0.62310    0.26670    1.000
    H711     H        0.18690    0.57470    0.25420    1.000
    O68      O        0.03350    0.52180    0.26700    1.000
    N104     N        0.09460    0.58020    0.25300    1.000
    C341     C        0.08000    0.54190    0.26810    1.000
    C342     C        0.11690    0.52960    0.29010    1.000
    H712     H        0.15290    0.51840    0.28380    1.000
    H713     H        0.12150    0.56020    0.30080    1.000
    H714     H        0.10020    0.50120    0.29970    1.000
    C343     C        0.05630    0.59920    0.23420    1.000
    H715     H        0.05540    0.63740    0.23470    1.000
    H716     H        0.06800    0.58750    0.21770    1.000
    H717     H        0.01940    0.58550    0.23780    1.000
    C344     C        0.14150    0.61480    0.25660    1.000
    H718     H        0.17400    0.59360    0.26030    1.000
    H719     H        0.14800    0.63490    0.24140    1.000
    H720     H        0.13460    0.63880    0.27050    1.000
    O69      O        0.11180    0.18960    0.09760    1.000
    N105     N        0.20220    0.20620    0.09787    1.000
    C345     C        0.15210    0.21150    0.10723    1.000
    C346     C        0.14490    0.24070    0.13150    1.000
    H721     H        0.16390    0.22050    0.14430    1.000
    H722     H        0.16130    0.27550    0.13040    1.000
    H723     H        0.10580    0.24390    0.13580    1.000
    C347     C        0.21010    0.17690    0.07490    1.000
    H724     H        0.22280    0.20110    0.06210    1.000
    H725     H        0.23720    0.14890    0.07700    1.000
    H726     H        0.17460    0.16190    0.07000    1.000
    C348     C        0.25110    0.23500    0.10540    1.000
    H727     H        0.27270    0.21330    0.11680    1.000
    H728     H        0.27330    0.24330    0.09070    1.000
    H729     H        0.24050    0.26740    0.11380    1.000
    O70      O        0.11660    0.19130    0.09067    1.000
    N106     N        0.18890    0.21780    0.11319    1.000
    C349     C        0.16700    0.19860    0.09259    1.000
    C350     C        0.20350    0.19130    0.06999    1.000
    H730     H        0.20720    0.22430    0.06100    1.000
    H731     H        0.23990    0.17960    0.07550    1.000
    H732     H        0.18730    0.16500    0.05900    1.000
    C351     C        0.15350    0.23060    0.13419    1.000
    H733     H        0.11860    0.21170    0.13250    1.000
    H734     H        0.17120    0.22110    0.14990    1.000
    H735     H        0.14630    0.26820    0.13400    1.000
    C352     C        0.24480    0.23750    0.11614    1.000
    H736     H        0.24760    0.27140    0.10780    1.000
    H737     H        0.25320    0.24150    0.13390    1.000
    H738     H        0.27100    0.21310    0.10860    1.000
    O71      O        0.05814    0.07050    0.09687    1.000
    N107     N        0.12740    0.02800    0.07834    1.000
    C353     C        0.10690    0.05570    0.09689    1.000
    C354     C        0.14370    0.06820    0.11880    1.000
    H739     H        0.12190    0.08520    0.13180    1.000
    H740     H        0.15850    0.03530    0.12520    1.000
    H741     H        0.17410    0.09100    0.11390    1.000
    C355     C        0.09400    0.01640    0.05654    1.000
    H742     H        0.11420    0.02610    0.04150    1.000
    H743     H        0.08540    0.97910    0.05600    1.000
    H744     H        0.05980    0.03650    0.05750    1.000
    C356     C        0.18160    0.00370    0.07790    1.000
    H745     H        0.18230    0.97290    0.08860    1.000
    H746     H        0.19020    0.99350    0.06080    1.000
    H747     H        0.20910    0.02890    0.08370    1.000
    O72      O        0.05460    0.06620    0.08640    1.000
    N108     N        0.14170    0.03950    0.09120    1.000
    C357     C        0.09450    0.04040    0.07880    1.000
    C358     C        0.08660    0.00290    0.05730    1.000
    H748     H        0.04820    0.00310    0.05170    1.000
    H749     H        0.11030    0.01670    0.04410    1.000
    H750     H        0.09770    0.96710    0.06120    1.000
    C359     C        0.14670    0.06700    0.11470    1.000
    H751     H        0.11650    0.09230    0.11590    1.000
    H752     H        0.14560    0.04370    0.12920    1.000
    H753     H        0.18200    0.08560    0.11450    1.000
    C360     C        0.19110    0.01080    0.08440    1.000
    H754     H        0.20540    0.02210    0.06820    1.000
    H755     H        0.21950    0.01560    0.09710    1.000
    H756     H        0.18090    0.97390    0.08350    1.000
    O73      O        0.64639    0.32860    0.41660    1.000
    N109     N        0.57652    0.29710    0.43915    1.000
    C361     C        0.59720    0.31530    0.41811    1.000
    C362     C        0.55920    0.32380    0.39617    1.000
    H757     H        0.57980    0.33930    0.38240    1.000
    H758     H        0.52900    0.34720    0.40100    1.000
    H759     H        0.54390    0.29020    0.39100    1.000
    C363     C        0.61240    0.28860    0.46048    1.000
    H760     H        0.62170    0.25160    0.46190    1.000
    H761     H        0.59360    0.30010    0.47560    1.000
    H762     H        0.64620    0.30890    0.45820    1.000
    C364     C        0.52040    0.27920    0.44329    1.000
    H763     H        0.50360    0.29940    0.45680    1.000
    H764     H        0.52090    0.24220    0.44780    1.000
    H765     H        0.49880    0.28390    0.42800    1.000
    O74      O        0.65330    0.18080    0.91690    1.000
    N110     N        0.56410    0.19600    0.92460    1.000
    C365     C        0.61650    0.19490    0.93150    1.000
    C366     C        0.63170    0.21430    0.95720    1.000
    H766     H        0.62010    0.25080    0.95850    1.000
    H767     H        0.61280    0.19370    0.96990    1.000
    H768     H        0.67160    0.21190    0.95960    1.000
    C367     C        0.54860    0.17900    0.89970    1.000
    H769     H        0.57880    0.15790    0.89300    1.000
    H770     H        0.51530    0.15760    0.90090    1.000
    H771     H        0.54160    0.20860    0.88860    1.000
    C368     C        0.51970    0.22280    0.93750    1.000
    H772     H        0.53360    0.23820    0.95300    1.000
    H773     H        0.50510    0.25040    0.92670    1.000
    H774     H        0.49020    0.19790    0.94140    1.000
    O75      O        0.69350    0.46280    0.43242    1.000
    N111     N        0.61520    0.50410    0.42244    1.000
    C369     C        0.66080    0.49930    0.43573    1.000
    C370     C        0.67010    0.53670    0.45712    1.000
    H775     H        0.69790    0.52240    0.46840    1.000
    H776     H        0.63530    0.54130    0.46610    1.000
    H777     H        0.68270    0.57040    0.45080    1.000
    C371     C        0.60540    0.46990    0.40131    1.000
    H778     H        0.63640    0.44570    0.39960    1.000
    H779     H        0.60190    0.49070    0.38610    1.000
    H780     H        0.57140    0.45010    0.40400    1.000
    C372     C        0.57540    0.54630    0.42440    1.000
    H781     H        0.57640    0.55830    0.44170    1.000
    H782     H        0.53910    0.53120    0.42090    1.000
    H783     H        0.58210    0.57570    0.41320    1.000
    O76      O        0.69630    0.03370    0.92560    1.000
    N112     N        0.63150    0.97400    0.93330    1.000
    C373     C        0.64940    0.01620    0.92160    1.000
    C374     C        0.60940    0.04700    0.90580    1.000
    H784     H        0.61030    0.03370    0.88870    1.000
    H785     H        0.57210    0.04320    0.91250    1.000
    H786     H        0.61980    0.08390    0.90580    1.000
    C375     C        0.66920    0.94380    0.94860    1.000
    H787     H        0.69830    0.96700    0.95460    1.000
    H788     H        0.64910    0.92920    0.96280    1.000
    H789     H        0.68560    0.91540    0.93890    1.000
    C376     C        0.57840    0.94880    0.92960    1.000
    H790     H        0.58850    0.91750    0.92020    1.000
    H791     H        0.55870    0.93860    0.94480    1.000
    H792     H        0.55450    0.97100    0.91940    1.000
    O77      O        0.05930    0.05840    0.42430    1.000
    N113     N        0.12540    0.00740    0.40822    1.000
    C377     C        0.10720    0.04150    0.42477    1.000
    C378     C        0.14620    0.05980    0.44493    1.000
    H793     H        0.12640    0.08180    0.45680    1.000
    H794     H        0.17660    0.07970    0.43750    1.000
    H795     H        0.16110    0.02930    0.45360    1.000
    C379     C        0.08840    0.98550    0.38970    1.000
    H796     H        0.05350    0.00480    0.39020    1.000
    H797     H        0.08140    0.94850    0.39290    1.000
    H798     H        0.10520    0.98940    0.37320    1.000
    C380     C        0.17940    0.98250    0.40872    1.000
    H799     H        0.20610    0.00580    0.41670    1.000
    H800     H        0.19130    0.97500    0.39170    1.000
    H801     H        0.17710    0.94990    0.41820    1.000
    O78      O        0.05550    0.45150    0.92100    1.000
    N114     N        0.14360    0.47690    0.91919    1.000
    C381     C        0.09210    0.47810    0.91100    1.000
    C382     C        0.07730    0.51500    0.89010    1.000
    H802     H        0.03760    0.52200    0.89000    1.000
    H803     H        0.09750    0.54770    0.89270    1.000
    H804     H        0.08810    0.49980    0.87410    1.000
    C383     C        0.15830    0.44380    0.94010    1.000
    H805     H        0.12590    0.43990    0.95090    1.000
    H806     H        0.16970    0.40940    0.93400    1.000
    H807     H        0.18850    0.45940    0.94960    1.000
    C384     C        0.19070    0.50300    0.90800    1.000
    H808     H        0.18030    0.51740    0.89180    1.000
    H809     H        0.20250    0.53130    0.91910    1.000
    H810     H        0.22100    0.47820    0.90590    1.000
    K19      K        0.25770    0.31321    0.73842    1.000
    K20      K        0.52569    0.07739    0.72610    1.000
    K21      K        0.51395    0.33873    0.90638    1.000
    K22      K        0.24088    0.12006    0.89057    1.000
    K23      K        0.23944    0.12749    0.57245    1.000
    K24      K        0.51300    0.35867    0.55930    1.000
    Zn10     Zn       0.40059    0.23129    0.65014    1.000
    O79      O        0.47918    0.33637    0.60206    1.000
    O80      O        0.30229    0.12687    0.60988    1.000
    O81      O        0.32577    0.32787    0.70294    1.000
    O82      O        0.49736    0.11740    0.68544    1.000
    N115     N        0.42930    0.27263    0.62181    1.000
    N116     N        0.35661    0.19326    0.62471    1.000
    N117     N        0.38162    0.27312    0.68009    1.000
    N118     N        0.43955    0.18415    0.67354    1.000
    N119     N        0.48968    0.32260    0.64399    1.000
    H811     H        0.48570    0.29940    0.65590    1.000
    N120     N        0.29760    0.15060    0.65023    1.000
    H812     H        0.30700    0.17490    0.66090    1.000
    N121     N        0.33879    0.34164    0.66134    1.000
    H813     H        0.35250    0.32860    0.64750    1.000
    N122     N        0.46177    0.11992    0.64604    1.000
    H814     H        0.44690    0.14040    0.63480    1.000
    C385     C        0.53370    0.36620    0.67752    1.000
    H815     H        0.55720    0.33580    0.68070    1.000
    H816     H        0.55290    0.39790    0.68280    1.000
    H817     H        0.49920    0.36260    0.68680    1.000
    C386     C        0.52113    0.36965    0.64990    1.000
    C387     C        0.48740    0.41850    0.64437    1.000
    H818     H        0.47790    0.41940    0.62670    1.000
    H819     H        0.45350    0.41800    0.65430    1.000
    H820     H        0.50900    0.44950    0.64860    1.000
    C388     C        0.57500    0.37170    0.63522    1.000
    H821     H        0.59520    0.33910    0.63750    1.000
    H822     H        0.56680    0.37660    0.61750    1.000
    H823     H        0.59740    0.40090    0.64120    1.000
    C389     C        0.46556    0.31140    0.62120    1.000
    C390     C        0.40166    0.25795    0.59873    1.000
    H824     H        0.37080    0.28230    0.59550    1.000
    H825     H        0.42790    0.26070    0.58470    1.000
    C391     C        0.37962    0.20268    0.60016    1.000
    H826     H        0.40980    0.17760    0.59690    1.000
    H827     H        0.35080    0.19760    0.58740    1.000
    C392     C        0.31907    0.15540    0.62675    1.000
    C393     C        0.26140    0.11040    0.65946    1.000
    C394     C        0.25240    0.12050    0.68695    1.000
    H828     H        0.23510    0.15470    0.68920    1.000
    H829     H        0.22840    0.09340    0.69390    1.000
    H830     H        0.28800    0.11990    0.69560    1.000
    C395     C        0.28830    0.05830    0.65625    1.000
    H831     H        0.29540    0.05210    0.63860    1.000
    H832     H        0.32320    0.05770    0.66540    1.000
    H833     H        0.26390    0.03100    0.66270    1.000
    C396     C        0.20740    0.11060    0.64630    1.000
    H834     H        0.19130    0.14550    0.64720    1.000
    H835     H        0.21300    0.10080    0.62890    1.000
    H836     H        0.18260    0.08550    0.65420    1.000
    C397     C        0.31380    0.40840    0.63233    1.000
    H837     H        0.29690    0.38240    0.62140    1.000
    H838     H        0.29510    0.44190    0.63010    1.000
    H839     H        0.35280    0.41210    0.62810    1.000
    C398     C        0.30820    0.39100    0.65934    1.000
    C399     C        0.24710    0.38230    0.66547    1.000
    H840     H        0.24350    0.37090    0.68280    1.000
    H841     H        0.22680    0.41500    0.66310    1.000
    H842     H        0.23190    0.35560    0.65440    1.000
    C400     C        0.33160    0.43240    0.67643    1.000
    H843     H        0.32830    0.42090    0.69370    1.000
    H844     H        0.37050    0.43820    0.67240    1.000
    H845     H        0.31100    0.46490    0.67420    1.000
    C401     C        0.34800    0.31380    0.68300    1.000
    C402     C        0.39350    0.24250    0.70243    1.000
    H846     H        0.40000    0.26600    0.71670    1.000
    H847     H        0.36170    0.21980    0.70640    1.000
    C403     C        0.44450    0.20940    0.69763    1.000
    H848     H        0.44830    0.18270    0.71080    1.000
    H849     H        0.47780    0.23170    0.69790    1.000
    C404     C        0.46733    0.14020    0.66966    1.000
    C405     C        0.47820    0.06760    0.63791    1.000
    C406     C        0.45730    0.06170    0.61143    1.000
    H850     H        0.41720    0.06550    0.61120    1.000
    H851     H        0.47410    0.08860    0.60090    1.000
    H852     H        0.46740    0.02720    0.60510    1.000
    C407     C        0.54130    0.06270    0.63808    1.000
    H853     H        0.55730    0.08920    0.62710    1.000
    H854     H        0.55500    0.06780    0.65500    1.000
    H855     H        0.55190    0.02800    0.63220    1.000
    C408     C        0.45310    0.02540    0.65430    1.000
    H856     H        0.41290    0.02900    0.65440    1.000
    H857     H        0.46310    0.99110    0.64780    1.000
    H858     H        0.46720    0.02900    0.67130    1.000
    Zn11     Zn       0.39579    0.18896    0.81920    1.000
    O83      O        0.28832    0.29224    0.78283    1.000
    O84      O        0.48241    0.10041    0.76633    1.000
    O85      O        0.47990    0.28539    0.86983    1.000
    O86      O        0.30263    0.07674    0.85662    1.000
    N123     N        0.35478    0.23392    0.79545    1.000
    N124     N        0.42892    0.15655    0.78946    1.000
    N125     N        0.42639    0.22599    0.84849    1.000
    N126     N        0.36384    0.14017    0.84405    1.000
    N127     N        0.30830    0.28218    0.82400    1.000
    H859     H        0.32880    0.26540    0.83480    1.000
    N128     N        0.50031    0.11257    0.80769    1.000
    H860     H        0.49780    0.13520    0.81990    1.000
    N129     N        0.47065    0.29064    0.82730    1.000
    H861     H        0.46760    0.27130    0.81390    1.000
    N130     N        0.34096    0.07415    0.81772    1.000
    H862     H        0.35880    0.09240    0.80650    1.000
    C409     C        0.27850    0.31940    0.86226    1.000
    H863     H        0.27040    0.28460    0.86880    1.000
    H864     H        0.31690    0.32840    0.86590    1.000
    H865     H        0.25400    0.34490    0.87020    1.000
    C410     C        0.26930    0.32010    0.83413    1.000
    C411     C        0.21030    0.30360    0.82816    1.000
    H866     H        0.20590    0.30030    0.81010    1.000
    H867     H        0.20240    0.27010    0.83610    1.000
    H868     H        0.18460    0.33000    0.83440    1.000
    C412     C        0.27970    0.37410    0.82436    1.000
    H869     H        0.27270    0.37490    0.80640    1.000
    H870     H        0.25500    0.39880    0.83270    1.000
    H871     H        0.31800    0.38390    0.82760    1.000
    C413     C        0.31630    0.27000    0.79941    1.000
    C414     C        0.36890    0.22090    0.77001    1.000
    H872     H        0.33510    0.22180    0.75970    1.000
    H873     H        0.39450    0.24760    0.76340    1.000
    C415     C        0.39490    0.16870    0.76778    1.000
    H874     H        0.41800    0.16780    0.75260    1.000
    H875     H        0.36580    0.14200    0.76600    1.000
    C416     C        0.47020    0.12290    0.78636    1.000
    C417     C        0.53610    0.06700    0.81155    1.000
    C418     C        0.54980    0.06620    0.83898    1.000
    H876     H        0.51580    0.06320    0.84870    1.000
    H877     H        0.57370    0.03630    0.84260    1.000
    H878     H        0.56890    0.09850    0.84350    1.000
    C419     C        0.58930    0.07190    0.79636    1.000
    H879     H        0.60990    0.10260    0.80190    1.000
    H880     H        0.61190    0.04060    0.79880    1.000
    H881     H        0.58020    0.07550    0.77870    1.000
    C420     C        0.50690    0.01730    0.80447    1.000
    H882     H        0.47230    0.01450    0.81380    1.000
    H883     H        0.49900    0.01750    0.78660    1.000
    H884     H        0.53050    0.98740    0.80840    1.000
    C421     C        0.48610    0.35440    0.79628    1.000
    H885     H        0.51280    0.33130    0.78820    1.000
    H886     H        0.44910    0.34680    0.79000    1.000
    H887     H        0.49550    0.39070    0.79270    1.000
    C422     C        0.48760    0.34550    0.82422    1.000
    C423     C        0.54640    0.35430    0.83349    1.000
    H888     H        0.57170    0.33130    0.82450    1.000
    H889     H        0.55690    0.39070    0.83060    1.000
    H890     H        0.54830    0.34670    0.85130    1.000
    C424     C        0.44840    0.38180    0.83747    1.000
    H891     H        0.45030    0.37550    0.85540    1.000
    H892     H        0.45880    0.41800    0.83400    1.000
    H893     H        0.41080    0.37560    0.83160    1.000
    C425     C        0.45923    0.26750    0.85023    1.000
    C426     C        0.41580    0.19650    0.87117    1.000
    H894     H        0.44670    0.17230    0.87440    1.000
    H895     H        0.41260    0.22050    0.88550    1.000
    C427     C        0.36222    0.16565    0.86813    1.000
    H896     H        0.33020    0.18940    0.86910    1.000
    H897     H        0.35880    0.13940    0.88150    1.000
    C428     C        0.33433    0.09677    0.84074    1.000
    C429     C        0.32110    0.02250    0.81009    1.000
    C430     C        0.34450    0.01380    0.78409    1.000
    H898     H        0.38480    0.01630    0.78470    1.000
    H899     H        0.33390    0.97920    0.77810    1.000
    H900     H        0.33000    0.04040    0.77280    1.000
    C431     C        0.25850    0.02140    0.80917    1.000
    H901     H        0.24370    0.03180    0.82540    1.000
    H902     H        0.24550    0.04560    0.79640    1.000
    H903     H        0.24600    0.98610    0.80520    1.000
    C432     C        0.34220    0.98000    0.82746    1.000
    H904     H        0.38220    0.98290    0.82910    1.000
    H905     H        0.32510    0.98410    0.84380    1.000
    H906     H        0.33270    0.94580    0.82060    1.000
    Zn12     Zn       0.36540    0.23434    0.98446    1.000
    O87      O        0.45946    0.34757    0.94718    1.000
    O88      O        0.27801    0.14150    0.93385    1.000
    O89      O        0.27282    0.17603    0.53449    1.000
    O90      O        0.45443    0.38122    0.52173    1.000
    N131     N        0.40233    0.28158    0.96052    1.000
    N132     N        0.32894    0.20317    0.95500    1.000
    N133     N        0.33122    0.23252    0.51391    1.000
    N134     N        0.39491    0.31775    0.50852    1.000
    N135     N        0.44987    0.33074    0.98869    1.000
    H907     H        0.42860    0.31590    0.99990    1.000
    N136     N        0.26171    0.15789    0.97522    1.000
    H908     H        0.25710    0.18450    0.98530    1.000
    N137     N        0.29874    0.15960    0.49424    1.000
    H909     H        0.30740    0.17500    0.48020    1.000
    N138     N        0.43423    0.37218    0.48037    1.000
    H910     H        0.41920    0.35190    0.46910    1.000
    C433     C        0.49230    0.35900    0.02629    1.000
    H911     H        0.49910    0.32270    0.03110    1.000
    H912     H        0.52060    0.38140    0.03370    1.000
    H913     H        0.45590    0.36970    0.03230    1.000
    C434     C        0.49440    0.36380    0.99797    1.000
    C435     C        0.48520    0.42020    0.99074    1.000
    H914     H        0.48220    0.42290    0.97260    1.000
    H915     H        0.45100    0.43290    0.99840    1.000
    H916     H        0.51620    0.44140    0.99650    1.000
    C436     C        0.55000    0.34550    0.98841    1.000
    H917     H        0.55510    0.30860    0.99260    1.000
    H918     H        0.55140    0.34970    0.97030    1.000
    H919     H        0.57930    0.36620    0.99610    1.000
    C437     C        0.43805    0.32050    0.96406    1.000
    C438     C        0.38135    0.27316    0.93537    1.000
    H920     H        0.35180    0.29870    0.93180    1.000
    H921     H        0.41140    0.27880    0.92320    1.000
    C439     C        0.35875    0.21808    0.93249    1.000
    H922     H        0.38940    0.19350    0.92960    1.000
    H923     H        0.33370    0.21660    0.91800    1.000
    C440     C        0.29081    0.16624    0.95319    1.000
    C441     C        0.23840    0.10759    0.98266    1.000
    C442     C        0.22110    0.11380    0.00974    1.000
    H924     H        0.19390    0.14190    0.01110    1.000
    H925     H        0.20480    0.08120    0.01570    1.000
    H926     H        0.25340    0.12240    0.01980    1.000
    C443     C        0.18830    0.09340    0.96718    1.000
    H927     H        0.16020    0.12050    0.96900    1.000
    H928     H        0.19900    0.09060    0.94970    1.000
    H929     H        0.17340    0.06000    0.97290    1.000
    C444     C        0.28280    0.06530    0.98078    1.000
    H930     H        0.31480    0.07540    0.99070    1.000
    H931     H        0.26800    0.03230    0.98710    1.000
    H932     H        0.29380    0.06100    0.96340    1.000
    C445     C        0.29780    0.08620    0.46702    1.000
    H933     H        0.27570    0.10610    0.45510    1.000
    H934     H        0.28940    0.04900    0.46540    1.000
    H935     H        0.33700    0.09200    0.46370    1.000
    C446     C        0.28420    0.10410    0.49327    1.000
    C447     C        0.22190    0.09760    0.49813    1.000
    H936     H        0.21320    0.10980    0.51490    1.000
    H937     H        0.21190    0.06080    0.49660    1.000
    H938     H        0.20120    0.11820    0.48600    1.000
    C448     C        0.31720    0.07250    0.51229    1.000
    H939     H        0.30920    0.08530    0.52910    1.000
    H940     H        0.35660    0.07620    0.50890    1.000
    H941     H        0.30680    0.03570    0.51110    1.000
    C449     C        0.29991    0.18960    0.51578    1.000
    C450     C        0.33430    0.26750    0.53515    1.000
    H942     H        0.33280    0.24730    0.55080    1.000
    H943     H        0.30270    0.29200    0.53490    1.000
    C451     C        0.38790    0.29760    0.53368    1.000
    H944     H        0.38740    0.32680    0.54570    1.000
    H945     H        0.41910    0.27440    0.53790    1.000
    C452     C        0.42860    0.35750    0.50502    1.000
    C453     C        0.46340    0.41900    0.47161    1.000
    C454     C        0.45360    0.42050    0.44349    1.000
    H946     H        0.46870    0.38890    0.43590    1.000
    H947     H        0.47190    0.45120    0.43640    1.000
    H948     H        0.41400    0.42240    0.44020    1.000
    C455     C        0.52550    0.41490    0.47661    1.000
    H949     H        0.53190    0.41190    0.49450    1.000
    H950     H        0.54410    0.44600    0.47030    1.000
    H951     H        0.54020    0.38390    0.46820    1.000
    C456     C        0.44050    0.46820    0.48341    1.000
    H952     H        0.44460    0.46620    0.50150    1.000
    H953     H        0.40140    0.47170    0.47920    1.000
    H954     H        0.46070    0.49860    0.47720    1.000
    O91      O        0.22120    0.40890    0.74040    1.000
    N139     N        0.14610    0.45100    0.72790    1.000
    C457     C        0.20030    0.44840    0.73090    1.000
    C458     C        0.23480    0.49720    0.72790    1.000
    H955     H        0.23650    0.51580    0.74380    1.000
    H956     H        0.27220    0.48950    0.72210    1.000
    H957     H        0.21590    0.51890    0.71550    1.000
    C459     C        0.11300    0.40460    0.73250    1.000
    H958     H        0.13320    0.38350    0.74460    1.000
    H959     H        0.07680    0.41380    0.73940    1.000
    H960     H        0.10800    0.38470    0.71710    1.000
    C460     C        0.11510    0.49330    0.71670    1.000
    H961     H        0.10500    0.48530    0.69940    1.000
    H962     H        0.08160    0.49710    0.72670    1.000
    H963     H        0.13620    0.52590    0.71720    1.000
    O92      O        0.20680    0.40230    0.73970    1.000
    N140     N        0.16240    0.47130    0.72470    1.000
    C461     C        0.16220    0.42450    0.73530    1.000
    C462     C        0.11070    0.40660    0.74880    1.000
    H964     H        0.11020    0.41630    0.76640    1.000
    H965     H        0.08130    0.42520    0.74000    1.000
    H966     H        0.10480    0.36890    0.74720    1.000
    C463     C        0.21480    0.49220    0.71600    1.000
    H967     H        0.24220    0.47010    0.72420    1.000
    H968     H        0.22030    0.49070    0.69790    1.000
    H969     H        0.21900    0.52830    0.72170    1.000
    C464     C        0.11940    0.51060    0.72660    1.000
    H970     H        0.12720    0.53840    0.73860    1.000
    H971     H        0.11920    0.52520    0.70970    1.000
    H972     H        0.08340    0.49520    0.73030    1.000
    O93      O        0.52370    0.97480    0.73730    1.000
    N141     N        0.60730    0.93890    0.73598    1.000
    C465     C        0.55700    0.94210    0.74535    1.000
    C466     C        0.53970    0.90380    0.76520    1.000
    H973     H        0.53630    0.86890    0.75800    1.000
    H974     H        0.56700    0.90320    0.77860    1.000
    H975     H        0.50390    0.91470    0.77200    1.000
    C467     C        0.62470    0.97550    0.71680    1.000
    H976     H        0.63830    0.00750    0.72470    1.000
    H977     H        0.65430    0.95960    0.70700    1.000
    H978     H        0.59360    0.98380    0.70590    1.000
    C468     C        0.65200    0.90610    0.74490    1.000
    H979     H        0.64260    0.89280    0.76150    1.000
    H980     H        0.65570    0.87690    0.73330    1.000
    H981     H        0.68690    0.92530    0.74580    1.000
    O94      O        0.53350    0.97820    0.73300    1.000
    N142     N        0.59460    0.91980    0.74700    1.000
    C469     C        0.58000    0.95810    0.73190    1.000
    C470     C        0.61690    0.97040    0.70990    1.000
    H982     H        0.65290    0.98160    0.71620    1.000
    H983     H        0.62150    0.93980    0.69920    1.000
    H984     H        0.60020    0.99880    0.70030    1.000
    C471     C        0.55630    0.90080    0.76580    1.000
    H985     H        0.55540    0.86260    0.76530    1.000
    H986     H        0.56800    0.91250    0.78230    1.000
    H987     H        0.51940    0.91450    0.76220    1.000
    C472     C        0.64150    0.88520    0.74340    1.000
    H988     H        0.67400    0.90640    0.73970    1.000
    H989     H        0.64800    0.86510    0.75860    1.000
    H990     H        0.63460    0.86120    0.72950    1.000
    O95      O        0.61180    0.31040    0.90240    1.000
    N143     N        0.70220    0.29380    0.90213    1.000
    C473     C        0.65210    0.28850    0.89277    1.000
    C474     C        0.64490    0.25930    0.86850    1.000
    H991     H        0.66390    0.27950    0.85570    1.000
    H992     H        0.66130    0.22450    0.86960    1.000
    H993     H        0.60580    0.25610    0.86420    1.000
    C475     C        0.71010    0.32310    0.92510    1.000
    H994     H        0.72280    0.29890    0.93790    1.000
    H995     H        0.73720    0.35110    0.92300    1.000
    H996     H        0.67460    0.33810    0.93000    1.000
    C476     C        0.75110    0.26500    0.89460    1.000
    H997     H        0.77270    0.28670    0.88320    1.000
    H998     H        0.77330    0.25670    0.90930    1.000
    H999     H        0.74050    0.23260    0.88620    1.000
    O96      O        0.61660    0.30870    0.90933    1.000
    N144     N        0.68890    0.28220    0.88681    1.000
    C477     C        0.66700    0.30140    0.90741    1.000
    C478     C        0.70350    0.30870    0.93001    1.000
    H1000    H        0.70720    0.27570    0.93900    1.000
    H1001    H        0.73990    0.32040    0.92450    1.000
    H1002    H        0.68730    0.33500    0.94100    1.000
    C479     C        0.65350    0.26940    0.86581    1.000
    H1003    H        0.61860    0.28830    0.86750    1.000
    H1004    H        0.67120    0.27890    0.85010    1.000
    H1005    H        0.64630    0.23180    0.86600    1.000
    C480     C        0.74480    0.26250    0.88386    1.000
    H1006    H        0.74760    0.22860    0.89220    1.000
    H1007    H        0.75320    0.25850    0.86610    1.000
    H1008    H        0.77100    0.28690    0.89140    1.000
    O97      O        0.55814    0.42950    0.90313    1.000
    N145     N        0.62740    0.47200    0.92166    1.000
    C481     C        0.60690    0.44430    0.90311    1.000
    C482     C        0.64370    0.43180    0.88120    1.000
    H1009    H        0.62190    0.41480    0.86820    1.000
    H1010    H        0.65850    0.46470    0.87480    1.000
    H1011    H        0.67410    0.40900    0.88610    1.000
    C483     C        0.59400    0.48360    0.94346    1.000
    H1012    H        0.61420    0.47390    0.95850    1.000
    H1013    H        0.58540    0.52090    0.94400    1.000
    H1014    H        0.55980    0.46350    0.94250    1.000
    C484     C        0.68160    0.49630    0.92210    1.000
    H1015    H        0.68230    0.52710    0.91140    1.000
    H1016    H        0.69020    0.50650    0.93920    1.000
    H1017    H        0.70910    0.47110    0.91630    1.000
    O98      O        0.55460    0.43380    0.91360    1.000
    N146     N        0.64170    0.46050    0.90880    1.000
    C485     C        0.59450    0.45960    0.92120    1.000
    C486     C        0.58660    0.49710    0.94270    1.000
    H1018    H        0.54820    0.49690    0.94830    1.000
    H1019    H        0.61030    0.48330    0.95590    1.000
    H1020    H        0.59770    0.53290    0.93880    1.000
    C487     C        0.64670    0.43300    0.88530    1.000
    H1021    H        0.61650    0.40770    0.88410    1.000
    H1022    H        0.64560    0.45630    0.87080    1.000
    H1023    H        0.68200    0.41440    0.88550    1.000
    C488     C        0.69110    0.48920    0.91560    1.000
    H1024    H        0.70540    0.47790    0.93180    1.000
    H1025    H        0.71950    0.48440    0.90290    1.000
    H1026    H        0.68090    0.52610    0.91650    1.000
    O99      O        0.14639    0.17140    0.58340    1.000
    N147     N        0.07652    0.20290    0.56085    1.000
    C489     C        0.09720    0.18470    0.58189    1.000
    C490     C        0.05920    0.17620    0.60383    1.000
    H1027    H        0.07980    0.16070    0.61760    1.000
    H1028    H        0.02900    0.15280    0.59900    1.000
    H1029    H        0.04390    0.20980    0.60900    1.000
    C491     C        0.11240    0.21140    0.53952    1.000
    H1030    H        0.12170    0.24840    0.53810    1.000
    H1031    H        0.09360    0.19990    0.52440    1.000
    H1032    H        0.14620    0.19110    0.54180    1.000
    C492     C        0.02040    0.22080    0.55671    1.000
    H1033    H        0.00360    0.20060    0.54320    1.000
    H1034    H        0.02090    0.25780    0.55220    1.000
    H1035    H        0.99880    0.21610    0.57200    1.000
    O100     O        0.15330    0.31920    0.08310    1.000
    N148     N        0.06410    0.30400    0.07540    1.000
    C493     C        0.11650    0.30510    0.06850    1.000
    C494     C        0.13170    0.28570    0.04280    1.000
    H1036    H        0.12010    0.24920    0.04150    1.000
    H1037    H        0.11280    0.30630    0.03010    1.000
    H1038    H        0.17160    0.28810    0.04040    1.000
    C495     C        0.04860    0.32100    0.10030    1.000
    H1039    H        0.07880    0.34210    0.10700    1.000
    H1040    H        0.01530    0.34240    0.09910    1.000
    H1041    H        0.04160    0.29140    0.11140    1.000
    C496     C        0.01970    0.27720    0.06250    1.000
    H1042    H        0.03360    0.26180    0.04700    1.000
    H1043    H        0.00510    0.24960    0.07330    1.000
    H1044    H        0.99020    0.30210    0.05860    1.000
    O101     O        0.19350    0.03720    0.56758    1.000
    N149     N        0.11520    0.99590    0.57756    1.000
    C497     C        0.16080    0.00070    0.56427    1.000
    C498     C        0.17010    0.96330    0.54288    1.000
    H1045    H        0.19790    0.97760    0.53160    1.000
    H1046    H        0.13530    0.95870    0.53390    1.000
    H1047    H        0.18270    0.92960    0.54920    1.000
    C499     C        0.10540    0.03010    0.59869    1.000
    H1048    H        0.13640    0.05430    0.60040    1.000
    H1049    H        0.10190    0.00930    0.61390    1.000
    H1050    H        0.07140    0.04990    0.59600    1.000
    C500     C        0.07540    0.95370    0.57560    1.000
    H1051    H        0.07640    0.94170    0.55830    1.000
    H1052    H        0.03910    0.96880    0.57910    1.000
    H1053    H        0.08210    0.92430    0.58680    1.000
    O102     O        0.19630    0.46630    0.07440    1.000
    N150     N        0.13150    0.52600    0.06670    1.000
    C501     C        0.14940    0.48380    0.07840    1.000
    C502     C        0.10940    0.45300    0.09420    1.000
    H1054    H        0.11030    0.46630    0.11130    1.000
    H1055    H        0.07210    0.45680    0.08750    1.000
    H1056    H        0.11980    0.41610    0.09420    1.000
    C503     C        0.16920    0.55620    0.05140    1.000
    H1057    H        0.19830    0.53300    0.04540    1.000
    H1058    H        0.14910    0.57080    0.03720    1.000
    H1059    H        0.18560    0.58460    0.06110    1.000
    C504     C        0.07840    0.55120    0.07040    1.000
    H1060    H        0.08850    0.58250    0.07980    1.000
    H1061    H        0.05870    0.56140    0.05520    1.000
    H1062    H        0.05450    0.52900    0.08060    1.000
    O103     O        0.55930    0.44160    0.57570    1.000
    N151     N        0.62540    0.49260    0.59178    1.000
    C505     C        0.60720    0.45850    0.57523    1.000
    C506     C        0.64620    0.44020    0.55507    1.000
    H1063    H        0.62640    0.41820    0.54320    1.000
    H1064    H        0.67660    0.42030    0.56250    1.000
    H1065    H        0.66110    0.47070    0.54640    1.000
    C507     C        0.58840    0.51450    0.61030    1.000
    H1066    H        0.55350    0.49520    0.60980    1.000
    H1067    H        0.58140    0.55150    0.60710    1.000
    H1068    H        0.60520    0.51060    0.62680    1.000
    C508     C        0.67940    0.51750    0.59128    1.000
    H1069    H        0.70610    0.49420    0.58330    1.000
    H1070    H        0.69130    0.52500    0.60830    1.000
    H1071    H        0.67710    0.55010    0.58180    1.000
    O104     O        0.55550    0.04850    0.07900    1.000
    N152     N        0.64360    0.02310    0.08081    1.000
    C509     C        0.59210    0.02190    0.08900    1.000
    C510     C        0.57730    0.98500    0.10990    1.000
    H1072    H        0.53760    0.97800    0.11000    1.000
    H1073    H        0.59750    0.95230    0.10730    1.000
    H1074    H        0.58810    0.00020    0.12590    1.000
    C511     C        0.65830    0.05620    0.05990    1.000
    H1075    H        0.62590    0.06010    0.04910    1.000
    H1076    H        0.66970    0.09060    0.06600    1.000
    H1077    H        0.68850    0.04060    0.05040    1.000
    C512     C        0.69070    0.99700    0.09200    1.000
    H1078    H        0.68030    0.98260    0.10820    1.000
    H1079    H        0.70250    0.96870    0.08090    1.000
    H1080    H        0.72100    0.02180    0.09410    1.000
    K25      K        0.24230    0.81321    0.73842    1.000
    K26      K        0.97431    0.57739    0.72610    1.000
    K27      K        0.98605    0.83873    0.90638    1.000
    K28      K        0.25912    0.62006    0.89057    1.000
    K29      K        0.26056    0.62749    0.57245    1.000
    K30      K        0.98700    0.85867    0.55930    1.000
    Zn13     Zn       0.09941    0.73129    0.65014    1.000
    O105     O        0.02082    0.83637    0.60206    1.000
    O106     O        0.19771    0.62687    0.60988    1.000
    O107     O        0.17423    0.82787    0.70294    1.000
    O108     O        0.00264    0.61740    0.68544    1.000
    N153     N        0.07070    0.77263    0.62181    1.000
    N154     N        0.14339    0.69326    0.62471    1.000
    N155     N        0.11838    0.77312    0.68009    1.000
    N156     N        0.06045    0.68415    0.67354    1.000
    N157     N        0.01032    0.82260    0.64399    1.000
    H1081    H        0.01430    0.79940    0.65590    1.000
    N158     N        0.20240    0.65060    0.65023    1.000
    H1082    H        0.19300    0.67490    0.66090    1.000
    N159     N        0.16121    0.84164    0.66134    1.000
    H1083    H        0.14750    0.82860    0.64750    1.000
    N160     N        0.03823    0.61992    0.64604    1.000
    H1084    H        0.05310    0.64040    0.63480    1.000
    C513     C        0.96630    0.86620    0.67752    1.000
    H1085    H        0.94280    0.83580    0.68070    1.000
    H1086    H        0.94710    0.89790    0.68280    1.000
    H1087    H        0.00080    0.86260    0.68680    1.000
    C514     C        0.97887    0.86965    0.64990    1.000
    C515     C        0.01260    0.91850    0.64437    1.000
    H1088    H        0.02210    0.91940    0.62670    1.000
    H1089    H        0.04650    0.91800    0.65430    1.000
    H1090    H        0.99100    0.94950    0.64860    1.000
    C516     C        0.92500    0.87170    0.63522    1.000
    H1091    H        0.90480    0.83910    0.63750    1.000
    H1092    H        0.93320    0.87660    0.61750    1.000
    H1093    H        0.90260    0.90090    0.64120    1.000
    C517     C        0.03444    0.81140    0.62120    1.000
    C518     C        0.09834    0.75795    0.59873    1.000
    H1094    H        0.12920    0.78230    0.59550    1.000
    H1095    H        0.07210    0.76070    0.58470    1.000
    C519     C        0.12038    0.70268    0.60016    1.000
    H1096    H        0.09020    0.67760    0.59690    1.000
    H1097    H        0.14920    0.69760    0.58740    1.000
    C520     C        0.18093    0.65540    0.62675    1.000
    C521     C        0.23860    0.61040    0.65946    1.000
    C522     C        0.24760    0.62050    0.68695    1.000
    H1098    H        0.26490    0.65470    0.68920    1.000
    H1099    H        0.27160    0.59340    0.69390    1.000
    H1100    H        0.21200    0.61990    0.69560    1.000
    C523     C        0.21170    0.55830    0.65625    1.000
    H1101    H        0.20460    0.55210    0.63860    1.000
    H1102    H        0.17680    0.55770    0.66540    1.000
    H1103    H        0.23610    0.53100    0.66270    1.000
    C524     C        0.29260    0.61060    0.64630    1.000
    H1104    H        0.30870    0.64550    0.64720    1.000
    H1105    H        0.28700    0.60080    0.62890    1.000
    H1106    H        0.31740    0.58550    0.65420    1.000
    C525     C        0.18620    0.90840    0.63233    1.000
    H1107    H        0.20310    0.88240    0.62140    1.000
    H1108    H        0.20490    0.94190    0.63010    1.000
    H1109    H        0.14720    0.91210    0.62810    1.000
    C526     C        0.19180    0.89100    0.65934    1.000
    C527     C        0.25290    0.88230    0.66547    1.000
    H1110    H        0.25650    0.87090    0.68280    1.000
    H1111    H        0.27320    0.91500    0.66310    1.000
    H1112    H        0.26810    0.85560    0.65440    1.000
    C528     C        0.16840    0.93240    0.67643    1.000
    H1113    H        0.17170    0.92090    0.69370    1.000
    H1114    H        0.12950    0.93820    0.67240    1.000
    H1115    H        0.18900    0.96490    0.67420    1.000
    C529     C        0.15200    0.81380    0.68300    1.000
    C530     C        0.10650    0.74250    0.70243    1.000
    H1116    H        0.10000    0.76600    0.71670    1.000
    H1117    H        0.13830    0.71980    0.70640    1.000
    C531     C        0.05550    0.70940    0.69763    1.000
    H1118    H        0.05170    0.68270    0.71080    1.000
    H1119    H        0.02220    0.73170    0.69790    1.000
    C532     C        0.03267    0.64020    0.66966    1.000
    C533     C        0.02180    0.56760    0.63791    1.000
    C534     C        0.04270    0.56170    0.61143    1.000
    H1120    H        0.08280    0.56550    0.61120    1.000
    H1121    H        0.02590    0.58860    0.60090    1.000
    H1122    H        0.03260    0.52720    0.60510    1.000
    C535     C        0.95870    0.56270    0.63808    1.000
    H1123    H        0.94270    0.58920    0.62710    1.000
    H1124    H        0.94500    0.56780    0.65500    1.000
    H1125    H        0.94810    0.52800    0.63220    1.000
    C536     C        0.04690    0.52540    0.65430    1.000
    H1126    H        0.08710    0.52900    0.65440    1.000
    H1127    H        0.03690    0.49110    0.64780    1.000
    H1128    H        0.03280    0.52900    0.67130    1.000
    Zn14     Zn       0.10421    0.68896    0.81920    1.000
    O109     O        0.21168    0.79224    0.78283    1.000
    O110     O        0.01759    0.60041    0.76633    1.000
    O111     O        0.02010    0.78539    0.86983    1.000
    O112     O        0.19737    0.57674    0.85662    1.000
    N161     N        0.14522    0.73392    0.79545    1.000
    N162     N        0.07108    0.65655    0.78946    1.000
    N163     N        0.07361    0.72599    0.84849    1.000
    N164     N        0.13616    0.64017    0.84405    1.000
    N165     N        0.19170    0.78218    0.82400    1.000
    H1129    H        0.17120    0.76540    0.83480    1.000
    N166     N        0.99969    0.61257    0.80769    1.000
    H1130    H        0.00220    0.63520    0.81990    1.000
    N167     N        0.02935    0.79064    0.82730    1.000
    H1131    H        0.03240    0.77130    0.81390    1.000
    N168     N        0.15904    0.57415    0.81772    1.000
    H1132    H        0.14120    0.59240    0.80650    1.000
    C537     C        0.22150    0.81940    0.86226    1.000
    H1133    H        0.22960    0.78460    0.86880    1.000
    H1134    H        0.18310    0.82840    0.86590    1.000
    H1135    H        0.24600    0.84490    0.87020    1.000
    C538     C        0.23070    0.82010    0.83413    1.000
    C539     C        0.28970    0.80360    0.82816    1.000
    H1136    H        0.29410    0.80030    0.81010    1.000
    H1137    H        0.29760    0.77010    0.83610    1.000
    H1138    H        0.31540    0.83000    0.83440    1.000
    C540     C        0.22030    0.87410    0.82436    1.000
    H1139    H        0.22730    0.87490    0.80640    1.000
    H1140    H        0.24500    0.89880    0.83270    1.000
    H1141    H        0.18200    0.88390    0.82760    1.000
    C541     C        0.18370    0.77000    0.79941    1.000
    C542     C        0.13110    0.72090    0.77001    1.000
    H1142    H        0.16490    0.72180    0.75970    1.000
    H1143    H        0.10550    0.74760    0.76340    1.000
    C543     C        0.10510    0.66870    0.76778    1.000
    H1144    H        0.08200    0.66780    0.75260    1.000
    H1145    H        0.13420    0.64200    0.76600    1.000
    C544     C        0.02980    0.62290    0.78636    1.000
    C545     C        0.96390    0.56700    0.81155    1.000
    C546     C        0.95020    0.56620    0.83898    1.000
    H1146    H        0.98420    0.56320    0.84870    1.000
    H1147    H        0.92630    0.53630    0.84260    1.000
    H1148    H        0.93110    0.59850    0.84350    1.000
    C547     C        0.91070    0.57190    0.79636    1.000
    H1149    H        0.89010    0.60260    0.80190    1.000
    H1150    H        0.88810    0.54060    0.79880    1.000
    H1151    H        0.91980    0.57550    0.77870    1.000
    C548     C        0.99310    0.51730    0.80447    1.000
    H1152    H        0.02770    0.51450    0.81380    1.000
    H1153    H        0.00100    0.51750    0.78660    1.000
    H1154    H        0.96950    0.48740    0.80840    1.000
    C549     C        0.01390    0.85440    0.79628    1.000
    H1155    H        0.98720    0.83130    0.78820    1.000
    H1156    H        0.05090    0.84680    0.79000    1.000
    H1157    H        0.00450    0.89070    0.79270    1.000
    C550     C        0.01240    0.84550    0.82422    1.000
    C551     C        0.95360    0.85430    0.83349    1.000
    H1158    H        0.92830    0.83130    0.82450    1.000
    H1159    H        0.94310    0.89070    0.83060    1.000
    H1160    H        0.95170    0.84670    0.85130    1.000
    C552     C        0.05160    0.88180    0.83747    1.000
    H1161    H        0.04970    0.87550    0.85540    1.000
    H1162    H        0.04120    0.91800    0.83400    1.000
    H1163    H        0.08920    0.87560    0.83160    1.000
    C553     C        0.04077    0.76750    0.85023    1.000
    C554     C        0.08420    0.69650    0.87117    1.000
    H1164    H        0.05330    0.67230    0.87440    1.000
    H1165    H        0.08740    0.72050    0.88550    1.000
    C555     C        0.13778    0.66565    0.86813    1.000
    H1166    H        0.16980    0.68940    0.86910    1.000
    H1167    H        0.14120    0.63940    0.88150    1.000
    C556     C        0.16567    0.59677    0.84074    1.000
    C557     C        0.17890    0.52250    0.81009    1.000
    C558     C        0.15550    0.51380    0.78409    1.000
    H1168    H        0.11520    0.51630    0.78470    1.000
    H1169    H        0.16610    0.47920    0.77810    1.000
    H1170    H        0.17000    0.54040    0.77280    1.000
    C559     C        0.24150    0.52140    0.80917    1.000
    H1171    H        0.25630    0.53180    0.82540    1.000
    H1172    H        0.25450    0.54560    0.79640    1.000
    H1173    H        0.25400    0.48610    0.80520    1.000
    C560     C        0.15780    0.48000    0.82746    1.000
    H1174    H        0.11780    0.48290    0.82910    1.000
    H1175    H        0.17490    0.48410    0.84380    1.000
    H1176    H        0.16730    0.44580    0.82060    1.000
    Zn15     Zn       0.13460    0.73434    0.98446    1.000
    O113     O        0.04054    0.84757    0.94718    1.000
    O114     O        0.22199    0.64150    0.93385    1.000
    O115     O        0.22718    0.67603    0.53449    1.000
    O116     O        0.04557    0.88122    0.52173    1.000
    N169     N        0.09767    0.78158    0.96052    1.000
    N170     N        0.17106    0.70317    0.95500    1.000
    N171     N        0.16878    0.73252    0.51391    1.000
    N172     N        0.10509    0.81775    0.50852    1.000
    N173     N        0.05013    0.83074    0.98869    1.000
    H1177    H        0.07140    0.81590    0.99990    1.000
    N174     N        0.23829    0.65789    0.97522    1.000
    H1178    H        0.24290    0.68450    0.98530    1.000
    N175     N        0.20126    0.65960    0.49424    1.000
    H1179    H        0.19260    0.67500    0.48020    1.000
    N176     N        0.06577    0.87218    0.48037    1.000
    H1180    H        0.08080    0.85190    0.46910    1.000
    C561     C        0.00770    0.85900    0.02629    1.000
    H1181    H        0.00090    0.82270    0.03110    1.000
    H1182    H        0.97940    0.88140    0.03370    1.000
    H1183    H        0.04410    0.86970    0.03230    1.000
    C562     C        0.00560    0.86380    0.99797    1.000
    C563     C        0.01480    0.92020    0.99074    1.000
    H1184    H        0.01780    0.92290    0.97260    1.000
    H1185    H        0.04900    0.93290    0.99840    1.000
    H1186    H        0.98380    0.94140    0.99650    1.000
    C564     C        0.95000    0.84550    0.98841    1.000
    H1187    H        0.94490    0.80860    0.99260    1.000
    H1188    H        0.94860    0.84970    0.97030    1.000
    H1189    H        0.92070    0.86620    0.99610    1.000
    C565     C        0.06195    0.82050    0.96406    1.000
    C566     C        0.11865    0.77316    0.93537    1.000
    H1190    H        0.14820    0.79870    0.93180    1.000
    H1191    H        0.08860    0.77880    0.92320    1.000
    C567     C        0.14125    0.71808    0.93249    1.000
    H1192    H        0.11060    0.69350    0.92960    1.000
    H1193    H        0.16630    0.71660    0.91800    1.000
    C568     C        0.20919    0.66624    0.95319    1.000
    C569     C        0.26160    0.60759    0.98266    1.000
    C570     C        0.27890    0.61380    0.00974    1.000
    H1194    H        0.30610    0.64190    0.01110    1.000
    H1195    H        0.29520    0.58120    0.01570    1.000
    H1196    H        0.24660    0.62240    0.01980    1.000
    C571     C        0.31170    0.59340    0.96718    1.000
    H1197    H        0.33980    0.62050    0.96900    1.000
    H1198    H        0.30100    0.59060    0.94970    1.000
    H1199    H        0.32660    0.56000    0.97290    1.000
    C572     C        0.21720    0.56530    0.98078    1.000
    H1200    H        0.18520    0.57540    0.99070    1.000
    H1201    H        0.23200    0.53230    0.98710    1.000
    H1202    H        0.20620    0.56100    0.96340    1.000
    C573     C        0.20220    0.58620    0.46702    1.000
    H1203    H        0.22430    0.60610    0.45510    1.000
    H1204    H        0.21060    0.54900    0.46540    1.000
    H1205    H        0.16300    0.59200    0.46370    1.000
    C574     C        0.21580    0.60410    0.49327    1.000
    C575     C        0.27810    0.59760    0.49813    1.000
    H1206    H        0.28680    0.60980    0.51490    1.000
    H1207    H        0.28810    0.56080    0.49660    1.000
    H1208    H        0.29880    0.61820    0.48600    1.000
    C576     C        0.18280    0.57250    0.51229    1.000
    H1209    H        0.19080    0.58530    0.52910    1.000
    H1210    H        0.14340    0.57620    0.50890    1.000
    H1211    H        0.19320    0.53570    0.51110    1.000
    C577     C        0.20009    0.68960    0.51578    1.000
    C578     C        0.16570    0.76750    0.53515    1.000
    H1212    H        0.16720    0.74730    0.55080    1.000
    H1213    H        0.19730    0.79200    0.53490    1.000
    C579     C        0.11210    0.79760    0.53368    1.000
    H1214    H        0.11260    0.82680    0.54570    1.000
    H1215    H        0.08090    0.77440    0.53790    1.000
    C580     C        0.07140    0.85750    0.50502    1.000
    C581     C        0.03660    0.91900    0.47161    1.000
    C582     C        0.04640    0.92050    0.44349    1.000
    H1216    H        0.03130    0.88890    0.43590    1.000
    H1217    H        0.02810    0.95120    0.43640    1.000
    H1218    H        0.08600    0.92240    0.44020    1.000
    C583     C        0.97450    0.91490    0.47661    1.000
    H1219    H        0.96810    0.91190    0.49450    1.000
    H1220    H        0.95590    0.94600    0.47030    1.000
    H1221    H        0.95980    0.88390    0.46820    1.000
    C584     C        0.05950    0.96820    0.48341    1.000
    H1222    H        0.05540    0.96620    0.50150    1.000
    H1223    H        0.09860    0.97170    0.47920    1.000
    H1224    H        0.03930    0.99860    0.47720    1.000
    O117     O        0.27880    0.90890    0.74040    1.000
    N177     N        0.35390    0.95100    0.72790    1.000
    C585     C        0.29970    0.94840    0.73090    1.000
    C586     C        0.26520    0.99720    0.72790    1.000
    H1225    H        0.26350    0.01580    0.74380    1.000
    H1226    H        0.22780    0.98950    0.72210    1.000
    H1227    H        0.28410    0.01890    0.71550    1.000
    C587     C        0.38700    0.90460    0.73250    1.000
    H1228    H        0.36680    0.88350    0.74460    1.000
    H1229    H        0.42320    0.91380    0.73940    1.000
    H1230    H        0.39200    0.88470    0.71710    1.000
    C588     C        0.38490    0.99330    0.71670    1.000
    H1231    H        0.39500    0.98530    0.69940    1.000
    H1232    H        0.41840    0.99710    0.72670    1.000
    H1233    H        0.36380    0.02590    0.71720    1.000
    O118     O        0.29320    0.90230    0.73970    1.000
    N178     N        0.33760    0.97130    0.72470    1.000
    C589     C        0.33780    0.92450    0.73530    1.000
    C590     C        0.38930    0.90660    0.74880    1.000
    H1234    H        0.38980    0.91630    0.76640    1.000
    H1235    H        0.41870    0.92520    0.74000    1.000
    H1236    H        0.39520    0.86890    0.74720    1.000
    C591     C        0.28520    0.99220    0.71600    1.000
    H1237    H        0.25780    0.97010    0.72420    1.000
    H1238    H        0.27970    0.99070    0.69790    1.000
    H1239    H        0.28100    0.02830    0.72170    1.000
    C592     C        0.38060    0.01060    0.72660    1.000
    H1240    H        0.37280    0.03840    0.73860    1.000
    H1241    H        0.38080    0.02520    0.70970    1.000
    H1242    H        0.41660    0.99520    0.73030    1.000
    O119     O        0.97630    0.47480    0.73730    1.000
    N179     N        0.89270    0.43890    0.73598    1.000
    C593     C        0.94300    0.44210    0.74535    1.000
    C594     C        0.96030    0.40380    0.76520    1.000
    H1243    H        0.96370    0.36890    0.75800    1.000
    H1244    H        0.93300    0.40320    0.77860    1.000
    H1245    H        0.99610    0.41470    0.77200    1.000
    C595     C        0.87530    0.47550    0.71680    1.000
    H1246    H        0.86170    0.50750    0.72470    1.000
    H1247    H        0.84570    0.45960    0.70700    1.000
    H1248    H        0.90640    0.48380    0.70590    1.000
    C596     C        0.84800    0.40610    0.74490    1.000
    H1249    H        0.85740    0.39280    0.76150    1.000
    H1250    H        0.84430    0.37690    0.73330    1.000
    H1251    H        0.81310    0.42530    0.74580    1.000
    O120     O        0.96650    0.47820    0.73300    1.000
    N180     N        0.90540    0.41980    0.74700    1.000
    C597     C        0.92000    0.45810    0.73190    1.000
    C598     C        0.88310    0.47040    0.70990    1.000
    H1252    H        0.84710    0.48160    0.71620    1.000
    H1253    H        0.87850    0.43980    0.69920    1.000
    H1254    H        0.89980    0.49880    0.70030    1.000
    C599     C        0.94370    0.40080    0.76580    1.000
    H1255    H        0.94460    0.36260    0.76530    1.000
    H1256    H        0.93200    0.41250    0.78230    1.000
    H1257    H        0.98060    0.41450    0.76220    1.000
    C600     C        0.85850    0.38520    0.74340    1.000
    H1258    H        0.82600    0.40640    0.73970    1.000
    H1259    H        0.85200    0.36510    0.75860    1.000
    H1260    H        0.86540    0.36120    0.72950    1.000
    O121     O        0.88820    0.81040    0.90240    1.000
    N181     N        0.79780    0.79380    0.90213    1.000
    C601     C        0.84790    0.78850    0.89277    1.000
    C602     C        0.85510    0.75930    0.86850    1.000
    H1261    H        0.83610    0.77950    0.85570    1.000
    H1262    H        0.83870    0.72450    0.86960    1.000
    H1263    H        0.89420    0.75610    0.86420    1.000
    C603     C        0.78990    0.82310    0.92510    1.000
    H1264    H        0.77720    0.79890    0.93790    1.000
    H1265    H        0.76280    0.85110    0.92300    1.000
    H1266    H        0.82540    0.83810    0.93000    1.000
    C604     C        0.74890    0.76500    0.89460    1.000
    H1267    H        0.72730    0.78670    0.88320    1.000
    H1268    H        0.72670    0.75670    0.90930    1.000
    H1269    H        0.75950    0.73260    0.88620    1.000
    O122     O        0.88340    0.80870    0.90933    1.000
    N182     N        0.81110    0.78220    0.88681    1.000
    C605     C        0.83300    0.80140    0.90741    1.000
    C606     C        0.79650    0.80870    0.93001    1.000
    H1270    H        0.79280    0.77570    0.93900    1.000
    H1271    H        0.76010    0.82040    0.92450    1.000
    H1272    H        0.81270    0.83500    0.94100    1.000
    C607     C        0.84650    0.76940    0.86581    1.000
    H1273    H        0.88140    0.78830    0.86750    1.000
    H1274    H        0.82880    0.77890    0.85010    1.000
    H1275    H        0.85370    0.73180    0.86600    1.000
    C608     C        0.75520    0.76250    0.88386    1.000
    H1276    H        0.75240    0.72860    0.89220    1.000
    H1277    H        0.74680    0.75850    0.86610    1.000
    H1278    H        0.72900    0.78690    0.89140    1.000
    O123     O        0.94186    0.92950    0.90313    1.000
    N183     N        0.87260    0.97200    0.92166    1.000
    C609     C        0.89310    0.94430    0.90311    1.000
    C610     C        0.85630    0.93180    0.88120    1.000
    H1279    H        0.87810    0.91480    0.86820    1.000
    H1280    H        0.84150    0.96470    0.87480    1.000
    H1281    H        0.82590    0.90900    0.88610    1.000
    C611     C        0.90600    0.98360    0.94346    1.000
    H1282    H        0.88580    0.97390    0.95850    1.000
    H1283    H        0.91460    0.02090    0.94400    1.000
    H1284    H        0.94020    0.96350    0.94250    1.000
    C612     C        0.81840    0.99630    0.92210    1.000
    H1285    H        0.81770    0.02710    0.91140    1.000
    H1286    H        0.80980    0.00650    0.93920    1.000
    H1287    H        0.79090    0.97110    0.91630    1.000
    O124     O        0.94540    0.93380    0.91360    1.000
    N184     N        0.85830    0.96050    0.90880    1.000
    C613     C        0.90550    0.95960    0.92120    1.000
    C614     C        0.91340    0.99710    0.94270    1.000
    H1288    H        0.95180    0.99690    0.94830    1.000
    H1289    H        0.88970    0.98330    0.95590    1.000
    H1290    H        0.90230    0.03290    0.93880    1.000
    C615     C        0.85330    0.93300    0.88530    1.000
    H1291    H        0.88350    0.90770    0.88410    1.000
    H1292    H        0.85440    0.95630    0.87080    1.000
    H1293    H        0.81800    0.91440    0.88550    1.000
    C616     C        0.80890    0.98920    0.91560    1.000
    H1294    H        0.79460    0.97790    0.93180    1.000
    H1295    H        0.78050    0.98440    0.90290    1.000
    H1296    H        0.81910    0.02610    0.91650    1.000
    O125     O        0.35361    0.67140    0.58340    1.000
    N185     N        0.42348    0.70290    0.56085    1.000
    C617     C        0.40280    0.68470    0.58189    1.000
    C618     C        0.44080    0.67620    0.60383    1.000
    H1297    H        0.42020    0.66070    0.61760    1.000
    H1298    H        0.47100    0.65280    0.59900    1.000
    H1299    H        0.45610    0.70980    0.60900    1.000
    C619     C        0.38760    0.71140    0.53952    1.000
    H1300    H        0.37830    0.74840    0.53810    1.000
    H1301    H        0.40640    0.69990    0.52440    1.000
    H1302    H        0.35380    0.69110    0.54180    1.000
    C620     C        0.47960    0.72080    0.55671    1.000
    H1303    H        0.49640    0.70060    0.54320    1.000
    H1304    H        0.47910    0.75780    0.55220    1.000
    H1305    H        0.50120    0.71610    0.57200    1.000
    O126     O        0.34670    0.81920    0.08310    1.000
    N186     N        0.43590    0.80400    0.07540    1.000
    C621     C        0.38350    0.80510    0.06850    1.000
    C622     C        0.36830    0.78570    0.04280    1.000
    H1306    H        0.37990    0.74920    0.04150    1.000
    H1307    H        0.38720    0.80630    0.03010    1.000
    H1308    H        0.32840    0.78810    0.04040    1.000
    C623     C        0.45140    0.82100    0.10030    1.000
    H1309    H        0.42120    0.84210    0.10700    1.000
    H1310    H        0.48470    0.84240    0.09910    1.000
    H1311    H        0.45840    0.79140    0.11140    1.000
    C624     C        0.48030    0.77720    0.06250    1.000
    H1312    H        0.46640    0.76180    0.04700    1.000
    H1313    H        0.49490    0.74960    0.07330    1.000
    H1314    H        0.50980    0.80210    0.05860    1.000
    O127     O        0.30650    0.53720    0.56758    1.000
    N187     N        0.38480    0.49590    0.57756    1.000
    C625     C        0.33920    0.50070    0.56427    1.000
    C626     C        0.32990    0.46330    0.54288    1.000
    H1315    H        0.30210    0.47760    0.53160    1.000
    H1316    H        0.36470    0.45870    0.53390    1.000
    H1317    H        0.31730    0.42960    0.54920    1.000
    C627     C        0.39460    0.53010    0.59869    1.000
    H1318    H        0.36360    0.55430    0.60040    1.000
    H1319    H        0.39810    0.50930    0.61390    1.000
    H1320    H        0.42860    0.54990    0.59600    1.000
    C628     C        0.42460    0.45370    0.57560    1.000
    H1321    H        0.42360    0.44170    0.55830    1.000
    H1322    H        0.46090    0.46880    0.57910    1.000
    H1323    H        0.41790    0.42430    0.58680    1.000
    O128     O        0.30370    0.96630    0.07440    1.000
    N188     N        0.36850    0.02600    0.06670    1.000
    C629     C        0.35060    0.98380    0.07840    1.000
    C630     C        0.39060    0.95300    0.09420    1.000
    H1324    H        0.38970    0.96630    0.11130    1.000
    H1325    H        0.42790    0.95680    0.08750    1.000
    H1326    H        0.38020    0.91610    0.09420    1.000
    C631     C        0.33080    0.05620    0.05140    1.000
    H1327    H        0.30170    0.03300    0.04540    1.000
    H1328    H        0.35090    0.07080    0.03720    1.000
    H1329    H        0.31440    0.08460    0.06110    1.000
    C632     C        0.42160    0.05120    0.07040    1.000
    H1330    H        0.41150    0.08250    0.07980    1.000
    H1331    H        0.44130    0.06140    0.05520    1.000
    H1332    H        0.44550    0.02900    0.08060    1.000
    O129     O        0.94070    0.94160    0.57570    1.000
    N189     N        0.87460    0.99260    0.59178    1.000
    C633     C        0.89280    0.95850    0.57523    1.000
    C634     C        0.85380    0.94020    0.55507    1.000
    H1333    H        0.87360    0.91820    0.54320    1.000
    H1334    H        0.82340    0.92030    0.56250    1.000
    H1335    H        0.83890    0.97070    0.54640    1.000
    C635     C        0.91160    0.01450    0.61030    1.000
    H1336    H        0.94650    0.99520    0.60980    1.000
    H1337    H        0.91860    0.05150    0.60710    1.000
    H1338    H        0.89480    0.01060    0.62680    1.000
    C636     C        0.82060    0.01750    0.59128    1.000
    H1339    H        0.79390    0.99420    0.58330    1.000
    H1340    H        0.80870    0.02500    0.60830    1.000
    H1341    H        0.82290    0.05010    0.58180    1.000
    O130     O        0.94450    0.54850    0.07900    1.000
    N190     N        0.85640    0.52310    0.08081    1.000
    C637     C        0.90790    0.52190    0.08900    1.000
    C638     C        0.92270    0.48500    0.10990    1.000
    H1342    H        0.96240    0.47800    0.11000    1.000
    H1343    H        0.90250    0.45230    0.10730    1.000
    H1344    H        0.91190    0.50020    0.12590    1.000
    C639     C        0.84170    0.55620    0.05990    1.000
    H1345    H        0.87410    0.56010    0.04910    1.000
    H1346    H        0.83030    0.59060    0.06600    1.000
    H1347    H        0.81150    0.54060    0.05040    1.000
    C640     C        0.80930    0.49700    0.09200    1.000
    H1348    H        0.81970    0.48260    0.10820    1.000
    H1349    H        0.79750    0.46870    0.08090    1.000
    H1350    H        0.77900    0.52180    0.09410    1.000
    K31      K        0.74230    0.68679    0.26158    1.000
    K32      K        0.47431    0.92261    0.27390    1.000
    K33      K        0.48605    0.66127    0.09362    1.000
    K34      K        0.75912    0.87994    0.10943    1.000
    K35      K        0.76056    0.87251    0.42755    1.000
    K36      K        0.48700    0.64133    0.44070    1.000
    Zn16     Zn       0.59941    0.76871    0.34986    1.000
    O131     O        0.52082    0.66363    0.39794    1.000
    O132     O        0.69771    0.87313    0.39012    1.000
    O133     O        0.67423    0.67213    0.29706    1.000
    O134     O        0.50264    0.88260    0.31456    1.000
    N191     N        0.57070    0.72737    0.37819    1.000
    N192     N        0.64339    0.80674    0.37529    1.000
    N193     N        0.61838    0.72688    0.31991    1.000
    N194     N        0.56045    0.81585    0.32646    1.000
    N195     N        0.51032    0.67740    0.35601    1.000
    H1351    H        0.51430    0.70060    0.34410    1.000
    N196     N        0.70240    0.84940    0.34977    1.000
    H1352    H        0.69300    0.82510    0.33910    1.000
    N197     N        0.66121    0.65836    0.33866    1.000
    H1353    H        0.64750    0.67140    0.35250    1.000
    N198     N        0.53823    0.88008    0.35396    1.000
    H1354    H        0.55310    0.85960    0.36520    1.000
    C641     C        0.46630    0.63380    0.32248    1.000
    H1355    H        0.44280    0.66420    0.31930    1.000
    H1356    H        0.44710    0.60210    0.31720    1.000
    H1357    H        0.50080    0.63740    0.31320    1.000
    C642     C        0.47887    0.63035    0.35010    1.000
    C643     C        0.51260    0.58150    0.35563    1.000
    H1358    H        0.52210    0.58060    0.37330    1.000
    H1359    H        0.54650    0.58200    0.34570    1.000
    H1360    H        0.49100    0.55050    0.35140    1.000
    C644     C        0.42500    0.62830    0.36478    1.000
    H1361    H        0.40480    0.66090    0.36250    1.000
    H1362    H        0.43320    0.62340    0.38250    1.000
    H1363    H        0.40260    0.59910    0.35880    1.000
    C645     C        0.53444    0.68860    0.37880    1.000
    C646     C        0.59834    0.74205    0.40127    1.000
    H1364    H        0.62920    0.71770    0.40450    1.000
    H1365    H        0.57210    0.73930    0.41530    1.000
    C647     C        0.62038    0.79732    0.39984    1.000
    H1366    H        0.59020    0.82240    0.40310    1.000
    H1367    H        0.64920    0.80240    0.41260    1.000
    C648     C        0.68093    0.84460    0.37325    1.000
    C649     C        0.73860    0.88960    0.34054    1.000
    C650     C        0.74760    0.87950    0.31305    1.000
    H1368    H        0.76490    0.84530    0.31080    1.000
    H1369    H        0.77160    0.90660    0.30610    1.000
    H1370    H        0.71200    0.88010    0.30440    1.000
    C651     C        0.71170    0.94170    0.34375    1.000
    H1371    H        0.70460    0.94790    0.36140    1.000
    H1372    H        0.67680    0.94230    0.33460    1.000
    H1373    H        0.73610    0.96900    0.33730    1.000
    C652     C        0.79260    0.88940    0.35370    1.000
    H1374    H        0.80870    0.85450    0.35280    1.000
    H1375    H        0.78700    0.89920    0.37110    1.000
    H1376    H        0.81740    0.91450    0.34580    1.000
    C653     C        0.68620    0.59160    0.36767    1.000
    H1377    H        0.70310    0.61760    0.37860    1.000
    H1378    H        0.70490    0.55810    0.36990    1.000
    H1379    H        0.64720    0.58790    0.37190    1.000
    C654     C        0.69180    0.60900    0.34066    1.000
    C655     C        0.75290    0.61770    0.33453    1.000
    H1380    H        0.75650    0.62910    0.31720    1.000
    H1381    H        0.77320    0.58500    0.33690    1.000
    H1382    H        0.76810    0.64440    0.34560    1.000
    C656     C        0.66840    0.56760    0.32357    1.000
    H1383    H        0.67170    0.57910    0.30630    1.000
    H1384    H        0.62950    0.56180    0.32760    1.000
    H1385    H        0.68900    0.53510    0.32580    1.000
    C657     C        0.65200    0.68620    0.31700    1.000
    C658     C        0.60650    0.75750    0.29757    1.000
    H1386    H        0.60000    0.73400    0.28330    1.000
    H1387    H        0.63830    0.78020    0.29360    1.000
    C659     C        0.55550    0.79060    0.30237    1.000
    H1388    H        0.55170    0.81730    0.28920    1.000
    H1389    H        0.52220    0.76830    0.30210    1.000
    C660     C        0.53267    0.85980    0.33034    1.000
    C661     C        0.52180    0.93240    0.36209    1.000
    C662     C        0.54270    0.93830    0.38857    1.000
    H1390    H        0.58280    0.93450    0.38880    1.000
    H1391    H        0.52590    0.91140    0.39910    1.000
    H1392    H        0.53260    0.97280    0.39490    1.000
    C663     C        0.45870    0.93730    0.36192    1.000
    H1393    H        0.44270    0.91080    0.37290    1.000
    H1394    H        0.44500    0.93220    0.34500    1.000
    H1395    H        0.44810    0.97200    0.36780    1.000
    C664     C        0.54690    0.97460    0.34570    1.000
    H1396    H        0.58710    0.97100    0.34560    1.000
    H1397    H        0.53690    0.00890    0.35220    1.000
    H1398    H        0.53280    0.97100    0.32870    1.000
    Zn17     Zn       0.60421    0.81104    0.18080    1.000
    O135     O        0.71168    0.70776    0.21717    1.000
    O136     O        0.51759    0.89959    0.23367    1.000
    O137     O        0.52010    0.71461    0.13017    1.000
    O138     O        0.69737    0.92326    0.14338    1.000
    N199     N        0.64522    0.76608    0.20455    1.000
    N200     N        0.57108    0.84345    0.21054    1.000
    N201     N        0.57361    0.77401    0.15151    1.000
    N202     N        0.63616    0.85983    0.15595    1.000
    N203     N        0.69170    0.71782    0.17600    1.000
    H1399    H        0.67120    0.73460    0.16520    1.000
    N204     N        0.49969    0.88743    0.19231    1.000
    H1400    H        0.50220    0.86480    0.18010    1.000
    N205     N        0.52935    0.70936    0.17270    1.000
    H1401    H        0.53240    0.72870    0.18610    1.000
    N206     N        0.65904    0.92585    0.18228    1.000
    H1402    H        0.64120    0.90760    0.19350    1.000
    C665     C        0.72150    0.68060    0.13774    1.000
    H1403    H        0.72960    0.71540    0.13120    1.000
    H1404    H        0.68310    0.67160    0.13410    1.000
    H1405    H        0.74600    0.65510    0.12980    1.000
    C666     C        0.73070    0.67990    0.16587    1.000
    C667     C        0.78970    0.69640    0.17184    1.000
    H1406    H        0.79410    0.69970    0.18990    1.000
    H1407    H        0.79760    0.72990    0.16390    1.000
    H1408    H        0.81540    0.67000    0.16560    1.000
    C668     C        0.72030    0.62590    0.17564    1.000
    H1409    H        0.72730    0.62510    0.19360    1.000
    H1410    H        0.74500    0.60120    0.16730    1.000
    H1411    H        0.68200    0.61610    0.17240    1.000
    C669     C        0.68370    0.73000    0.20059    1.000
    C670     C        0.63110    0.77910    0.22999    1.000
    H1412    H        0.66490    0.77820    0.24030    1.000
    H1413    H        0.60550    0.75240    0.23660    1.000
    C671     C        0.60510    0.83130    0.23222    1.000
    H1414    H        0.58200    0.83220    0.24740    1.000
    H1415    H        0.63420    0.85800    0.23400    1.000
    C672     C        0.52980    0.87710    0.21364    1.000
    C673     C        0.46390    0.93300    0.18845    1.000
    C674     C        0.45020    0.93380    0.16102    1.000
    H1416    H        0.48420    0.93680    0.15130    1.000
    H1417    H        0.42630    0.96370    0.15740    1.000
    H1418    H        0.43110    0.90150    0.15650    1.000
    C675     C        0.41070    0.92810    0.20364    1.000
    H1419    H        0.39010    0.89740    0.19810    1.000
    H1420    H        0.38810    0.95940    0.20120    1.000
    H1421    H        0.41980    0.92450    0.22130    1.000
    C676     C        0.49310    0.98270    0.19553    1.000
    H1422    H        0.52770    0.98550    0.18620    1.000
    H1423    H        0.50100    0.98250    0.21340    1.000
    H1424    H        0.46950    0.01260    0.19160    1.000
    C677     C        0.51390    0.64560    0.20372    1.000
    H1425    H        0.48720    0.66870    0.21180    1.000
    H1426    H        0.55090    0.65320    0.21000    1.000
    H1427    H        0.50450    0.60930    0.20730    1.000
    C678     C        0.51240    0.65450    0.17578    1.000
    C679     C        0.45360    0.64570    0.16651    1.000
    H1428    H        0.42830    0.66870    0.17550    1.000
    H1429    H        0.44310    0.60930    0.16940    1.000
    H1430    H        0.45170    0.65330    0.14870    1.000
    C680     C        0.55160    0.61820    0.16253    1.000
    H1431    H        0.54970    0.62450    0.14460    1.000
    H1432    H        0.54120    0.58200    0.16600    1.000
    H1433    H        0.58920    0.62440    0.16840    1.000
    C681     C        0.54077    0.73250    0.14977    1.000
    C682     C        0.58420    0.80350    0.12883    1.000
    H1434    H        0.55330    0.82770    0.12560    1.000
    H1435    H        0.58740    0.77950    0.11450    1.000
    C683     C        0.63778    0.83435    0.13187    1.000
    H1436    H        0.66980    0.81060    0.13090    1.000
    H1437    H        0.64120    0.86060    0.11850    1.000
    C684     C        0.66567    0.90323    0.15926    1.000
    C685     C        0.67890    0.97750    0.18991    1.000
    C686     C        0.65550    0.98620    0.21591    1.000
    H1438    H        0.61520    0.98370    0.21530    1.000
    H1439    H        0.66610    0.02080    0.22190    1.000
    H1440    H        0.67000    0.95960    0.22720    1.000
    C687     C        0.74150    0.97860    0.19083    1.000
    H1441    H        0.75630    0.96820    0.17460    1.000
    H1442    H        0.75450    0.95440    0.20360    1.000
    H1443    H        0.75400    0.01390    0.19480    1.000
    C688     C        0.65780    0.02000    0.17254    1.000
    H1444    H        0.61780    0.01710    0.17090    1.000
    H1445    H        0.67490    0.01590    0.15620    1.000
    H1446    H        0.66730    0.05420    0.17940    1.000
    Zn18     Zn       0.63460    0.76566    0.01554    1.000
    O139     O        0.54054    0.65243    0.05282    1.000
    O140     O        0.72199    0.85850    0.06615    1.000
    O141     O        0.72718    0.82397    0.46551    1.000
    O142     O        0.54557    0.61878    0.47827    1.000
    N207     N        0.59767    0.71842    0.03948    1.000
    N208     N        0.67106    0.79683    0.04500    1.000
    N209     N        0.66878    0.76748    0.48609    1.000
    N210     N        0.60509    0.68225    0.49148    1.000
    N211     N        0.55013    0.66926    0.01131    1.000
    H1447    H        0.57140    0.68410    0.00010    1.000
    N212     N        0.73829    0.84211    0.02478    1.000
    H1448    H        0.74290    0.81550    0.01470    1.000
    N213     N        0.70126    0.84040    0.50576    1.000
    H1449    H        0.69260    0.82500    0.51980    1.000
    N214     N        0.56577    0.62782    0.51963    1.000
    H1450    H        0.58080    0.64810    0.53090    1.000
    C689     C        0.50770    0.64100    0.97371    1.000
    H1451    H        0.50090    0.67730    0.96890    1.000
    H1452    H        0.47940    0.61860    0.96630    1.000
    H1453    H        0.54410    0.63030    0.96770    1.000
    C690     C        0.50560    0.63620    0.00203    1.000
    C691     C        0.51480    0.57980    0.00926    1.000
    H1454    H        0.51780    0.57710    0.02740    1.000
    H1455    H        0.54900    0.56710    0.00160    1.000
    H1456    H        0.48380    0.55860    0.00350    1.000
    C692     C        0.45000    0.65450    0.01159    1.000
    H1457    H        0.44490    0.69140    0.00740    1.000
    H1458    H        0.44860    0.65030    0.02970    1.000
    H1459    H        0.42070    0.63380    0.00390    1.000
    C693     C        0.56195    0.67950    0.03594    1.000
    C694     C        0.61865    0.72684    0.06463    1.000
    H1460    H        0.64820    0.70130    0.06820    1.000
    H1461    H        0.58860    0.72120    0.07680    1.000
    C695     C        0.64125    0.78192    0.06751    1.000
    H1462    H        0.61060    0.80650    0.07040    1.000
    H1463    H        0.66630    0.78340    0.08200    1.000
    C696     C        0.70919    0.83376    0.04681    1.000
    C697     C        0.76160    0.89241    0.01734    1.000
    C698     C        0.77890    0.88620    0.99026    1.000
    H1464    H        0.80610    0.85810    0.98890    1.000
    H1465    H        0.79520    0.91880    0.98430    1.000
    H1466    H        0.74660    0.87760    0.98020    1.000
    C699     C        0.81170    0.90660    0.03282    1.000
    H1467    H        0.83980    0.87950    0.03100    1.000
    H1468    H        0.80100    0.90940    0.05030    1.000
    H1469    H        0.82660    0.94000    0.02710    1.000
    C700     C        0.71720    0.93470    0.01922    1.000
    H1470    H        0.68520    0.92460    0.00930    1.000
    H1471    H        0.73200    0.96770    0.01290    1.000
    H1472    H        0.70620    0.93900    0.03660    1.000
    C701     C        0.70220    0.91380    0.53298    1.000
    H1473    H        0.72430    0.89390    0.54490    1.000
    H1474    H        0.71060    0.95100    0.53460    1.000
    H1475    H        0.66300    0.90800    0.53630    1.000
    C702     C        0.71580    0.89590    0.50673    1.000
    C703     C        0.77810    0.90240    0.50187    1.000
    H1476    H        0.78680    0.89020    0.48510    1.000
    H1477    H        0.78810    0.93920    0.50340    1.000
    H1478    H        0.79880    0.88180    0.51400    1.000
    C704     C        0.68280    0.92750    0.48771    1.000
    H1479    H        0.69080    0.91470    0.47090    1.000
    H1480    H        0.64340    0.92380    0.49110    1.000
    H1481    H        0.69320    0.96430    0.48890    1.000
    C705     C        0.70009    0.81040    0.48422    1.000
    C706     C        0.66570    0.73250    0.46485    1.000
    H1482    H        0.66720    0.75270    0.44920    1.000
    H1483    H        0.69730    0.70800    0.46510    1.000
    C707     C        0.61210    0.70240    0.46632    1.000
    H1484    H        0.61260    0.67320    0.45430    1.000
    H1485    H        0.58090    0.72560    0.46210    1.000
    C708     C        0.57140    0.64250    0.49498    1.000
    C709     C        0.53660    0.58100    0.52839    1.000
    C710     C        0.54640    0.57950    0.55651    1.000
    H1486    H        0.53130    0.61110    0.56410    1.000
    H1487    H        0.52810    0.54880    0.56360    1.000
    H1488    H        0.58600    0.57760    0.55980    1.000
    C711     C        0.47450    0.58510    0.52339    1.000
    H1489    H        0.46810    0.58810    0.50550    1.000
    H1490    H        0.45590    0.55400    0.52970    1.000
    H1491    H        0.45980    0.61610    0.53180    1.000
    C712     C        0.55950    0.53180    0.51659    1.000
    H1492    H        0.55540    0.53380    0.49850    1.000
    H1493    H        0.59860    0.52830    0.52080    1.000
    H1494    H        0.53930    0.50140    0.52280    1.000
    O143     O        0.77880    0.59110    0.25960    1.000
    N215     N        0.85390    0.54900    0.27210    1.000
    C713     C        0.79970    0.55160    0.26910    1.000
    C714     C        0.76520    0.50280    0.27210    1.000
    H1495    H        0.76350    0.48420    0.25620    1.000
    H1496    H        0.72780    0.51050    0.27790    1.000
    H1497    H        0.78410    0.48110    0.28450    1.000
    C715     C        0.88700    0.59540    0.26750    1.000
    H1498    H        0.86680    0.61650    0.25540    1.000
    H1499    H        0.92320    0.58620    0.26060    1.000
    H1500    H        0.89200    0.61530    0.28290    1.000
    C716     C        0.88490    0.50670    0.28330    1.000
    H1501    H        0.89500    0.51470    0.30060    1.000
    H1502    H        0.91840    0.50290    0.27330    1.000
    H1503    H        0.86380    0.47410    0.28280    1.000
    O144     O        0.79320    0.59770    0.26030    1.000
    N216     N        0.83760    0.52870    0.27530    1.000
    C717     C        0.83780    0.57550    0.26470    1.000
    C718     C        0.88930    0.59340    0.25120    1.000
    H1504    H        0.88980    0.58370    0.23360    1.000
    H1505    H        0.91870    0.57480    0.26000    1.000
    H1506    H        0.89520    0.63110    0.25280    1.000
    C719     C        0.78520    0.50780    0.28400    1.000
    H1507    H        0.75780    0.52990    0.27580    1.000
    H1508    H        0.77970    0.50930    0.30210    1.000
    H1509    H        0.78100    0.47170    0.27830    1.000
    C720     C        0.88060    0.48940    0.27340    1.000
    H1510    H        0.87280    0.46160    0.26140    1.000
    H1511    H        0.88080    0.47480    0.29030    1.000
    H1512    H        0.91660    0.50480    0.26970    1.000
    O145     O        0.47630    0.02520    0.26270    1.000
    N217     N        0.39270    0.06110    0.26402    1.000
    C721     C        0.44300    0.05790    0.25465    1.000
    C722     C        0.46030    0.09620    0.23480    1.000
    H1513    H        0.46370    0.13110    0.24200    1.000
    H1514    H        0.43300    0.09680    0.22140    1.000
    H1515    H        0.49610    0.08530    0.22800    1.000
    C723     C        0.37530    0.02450    0.28320    1.000
    H1516    H        0.36170    0.99250    0.27530    1.000
    H1517    H        0.34570    0.04040    0.29300    1.000
    H1518    H        0.40640    0.01620    0.29410    1.000
    C724     C        0.34800    0.09390    0.25510    1.000
    H1519    H        0.35740    0.10720    0.23850    1.000
    H1520    H        0.34430    0.12310    0.26670    1.000
    H1521    H        0.31310    0.07470    0.25420    1.000
    O146     O        0.46650    0.02180    0.26700    1.000
    N218     N        0.40540    0.08020    0.25300    1.000
    C725     C        0.42000    0.04190    0.26810    1.000
    C726     C        0.38310    0.02960    0.29010    1.000
    H1522    H        0.34710    0.01840    0.28380    1.000
    H1523    H        0.37850    0.06020    0.30080    1.000
    H1524    H        0.39980    0.00120    0.29970    1.000
    C727     C        0.44370    0.09920    0.23420    1.000
    H1525    H        0.44460    0.13740    0.23470    1.000
    H1526    H        0.43200    0.08750    0.21770    1.000
    H1527    H        0.48060    0.08550    0.23780    1.000
    C728     C        0.35850    0.11480    0.25660    1.000
    H1528    H        0.32600    0.09360    0.26030    1.000
    H1529    H        0.35200    0.13490    0.24140    1.000
    H1530    H        0.36540    0.13880    0.27050    1.000
    O147     O        0.38820    0.68960    0.09760    1.000
    N219     N        0.29780    0.70620    0.09787    1.000
    C729     C        0.34790    0.71150    0.10723    1.000
    C730     C        0.35510    0.74070    0.13150    1.000
    H1531    H        0.33610    0.72050    0.14430    1.000
    H1532    H        0.33870    0.77550    0.13040    1.000
    H1533    H        0.39420    0.74390    0.13580    1.000
    C731     C        0.28990    0.67690    0.07490    1.000
    H1534    H        0.27720    0.70110    0.06210    1.000
    H1535    H        0.26280    0.64890    0.07700    1.000
    H1536    H        0.32540    0.66190    0.07000    1.000
    C732     C        0.24890    0.73500    0.10540    1.000
    H1537    H        0.22730    0.71330    0.11680    1.000
    H1538    H        0.22670    0.74330    0.09070    1.000
    H1539    H        0.25950    0.76740    0.11380    1.000
    O148     O        0.38340    0.69130    0.09067    1.000
    N220     N        0.31110    0.71780    0.11319    1.000
    C733     C        0.33300    0.69860    0.09259    1.000
    C734     C        0.29650    0.69130    0.06999    1.000
    H1540    H        0.29280    0.72430    0.06100    1.000
    H1541    H        0.26010    0.67960    0.07550    1.000
    H1542    H        0.31270    0.66500    0.05900    1.000
    C735     C        0.34650    0.73060    0.13419    1.000
    H1543    H        0.38140    0.71170    0.13250    1.000
    H1544    H        0.32880    0.72110    0.14990    1.000
    H1545    H        0.35370    0.76820    0.13400    1.000
    C736     C        0.25520    0.73750    0.11614    1.000
    H1546    H        0.25240    0.77140    0.10780    1.000
    H1547    H        0.24680    0.74150    0.13390    1.000
    H1548    H        0.22900    0.71310    0.10860    1.000
    O149     O        0.44186    0.57050    0.09687    1.000
    N221     N        0.37260    0.52800    0.07834    1.000
    C737     C        0.39310    0.55570    0.09689    1.000
    C738     C        0.35630    0.56820    0.11880    1.000
    H1549    H        0.37810    0.58520    0.13180    1.000
    H1550    H        0.34150    0.53530    0.12520    1.000
    H1551    H        0.32590    0.59100    0.11390    1.000
    C739     C        0.40600    0.51640    0.05654    1.000
    H1552    H        0.38580    0.52610    0.04150    1.000
    H1553    H        0.41460    0.47910    0.05600    1.000
    H1554    H        0.44020    0.53650    0.05750    1.000
    C740     C        0.31840    0.50370    0.07790    1.000
    H1555    H        0.31770    0.47290    0.08860    1.000
    H1556    H        0.30980    0.49350    0.06080    1.000
    H1557    H        0.29090    0.52890    0.08370    1.000
    O150     O        0.44540    0.56620    0.08640    1.000
    N222     N        0.35830    0.53950    0.09120    1.000
    C741     C        0.40550    0.54040    0.07880    1.000
    C742     C        0.41340    0.50290    0.05730    1.000
    H1558    H        0.45180    0.50310    0.05170    1.000
    H1559    H        0.38970    0.51670    0.04410    1.000
    H1560    H        0.40230    0.46710    0.06120    1.000
    C743     C        0.35330    0.56700    0.11470    1.000
    H1561    H        0.38350    0.59230    0.11590    1.000
    H1562    H        0.35440    0.54370    0.12920    1.000
    H1563    H        0.31800    0.58560    0.11450    1.000
    C744     C        0.30890    0.51080    0.08440    1.000
    H1564    H        0.29460    0.52210    0.06820    1.000
    H1565    H        0.28050    0.51560    0.09710    1.000
    H1566    H        0.31910    0.47390    0.08350    1.000
    O151     O        0.85361    0.82860    0.41660    1.000
    N223     N        0.92348    0.79710    0.43915    1.000
    C745     C        0.90280    0.81530    0.41811    1.000
    C746     C        0.94080    0.82380    0.39617    1.000
    H1567    H        0.92020    0.83930    0.38240    1.000
    H1568    H        0.97100    0.84720    0.40100    1.000
    H1569    H        0.95610    0.79020    0.39100    1.000
    C747     C        0.88760    0.78860    0.46048    1.000
    H1570    H        0.87830    0.75160    0.46190    1.000
    H1571    H        0.90640    0.80010    0.47560    1.000
    H1572    H        0.85380    0.80890    0.45820    1.000
    C748     C        0.97960    0.77920    0.44329    1.000
    H1573    H        0.99640    0.79940    0.45680    1.000
    H1574    H        0.97910    0.74220    0.44780    1.000
    H1575    H        0.00120    0.78390    0.42800    1.000
    O152     O        0.84670    0.68080    0.91690    1.000
    N224     N        0.93590    0.69600    0.92460    1.000
    C749     C        0.88350    0.69490    0.93150    1.000
    C750     C        0.86830    0.71430    0.95720    1.000
    H1576    H        0.87990    0.75080    0.95850    1.000
    H1577    H        0.88720    0.69370    0.96990    1.000
    H1578    H        0.82840    0.71190    0.95960    1.000
    C751     C        0.95140    0.67900    0.89970    1.000
    H1579    H        0.92120    0.65790    0.89300    1.000
    H1580    H        0.98470    0.65760    0.90090    1.000
    H1581    H        0.95840    0.70860    0.88860    1.000
    C752     C        0.98030    0.72280    0.93750    1.000
    H1582    H        0.96640    0.73820    0.95300    1.000
    H1583    H        0.99490    0.75040    0.92670    1.000
    H1584    H        0.00980    0.69790    0.94140    1.000
    O153     O        0.80650    0.96280    0.43242    1.000
    N225     N        0.88480    0.00410    0.42244    1.000
    C753     C        0.83920    0.99930    0.43573    1.000
    C754     C        0.82990    0.03670    0.45712    1.000
    H1585    H        0.80210    0.02240    0.46840    1.000
    H1586    H        0.86470    0.04130    0.46610    1.000
    H1587    H        0.81730    0.07040    0.45080    1.000
    C755     C        0.89460    0.96990    0.40131    1.000
    H1588    H        0.86360    0.94570    0.39960    1.000
    H1589    H        0.89810    0.99070    0.38610    1.000
    H1590    H        0.92860    0.95010    0.40400    1.000
    C756     C        0.92460    0.04630    0.42440    1.000
    H1591    H        0.92360    0.05830    0.44170    1.000
    H1592    H        0.96090    0.03120    0.42090    1.000
    H1593    H        0.91790    0.07570    0.41320    1.000
    O154     O        0.80370    0.53370    0.92560    1.000
    N226     N        0.86850    0.47400    0.93330    1.000
    C757     C        0.85060    0.51620    0.92160    1.000
    C758     C        0.89060    0.54700    0.90580    1.000
    H1594    H        0.88970    0.53370    0.88870    1.000
    H1595    H        0.92790    0.54320    0.91250    1.000
    H1596    H        0.88020    0.58390    0.90580    1.000
    C759     C        0.83080    0.44380    0.94860    1.000
    H1597    H        0.80170    0.46700    0.95460    1.000
    H1598    H        0.85090    0.42920    0.96280    1.000
    H1599    H        0.81440    0.41540    0.93890    1.000
    C760     C        0.92160    0.44880    0.92960    1.000
    H1600    H        0.91150    0.41750    0.92020    1.000
    H1601    H        0.94130    0.43860    0.94480    1.000
    H1602    H        0.94550    0.47100    0.91940    1.000
    O155     O        0.44070    0.55840    0.42430    1.000
    N227     N        0.37460    0.50740    0.40822    1.000
    C761     C        0.39280    0.54150    0.42477    1.000
    C762     C        0.35380    0.55980    0.44493    1.000
    H1603    H        0.37360    0.58180    0.45680    1.000
    H1604    H        0.32340    0.57970    0.43750    1.000
    H1605    H        0.33890    0.52930    0.45360    1.000
    C763     C        0.41160    0.48550    0.38970    1.000
    H1606    H        0.44650    0.50480    0.39020    1.000
    H1607    H        0.41860    0.44850    0.39290    1.000
    H1608    H        0.39480    0.48940    0.37320    1.000
    C764     C        0.32060    0.48250    0.40872    1.000
    H1609    H        0.29390    0.50580    0.41670    1.000
    H1610    H        0.30870    0.47500    0.39170    1.000
    H1611    H        0.32290    0.44990    0.41820    1.000
    O156     O        0.44450    0.95150    0.92100    1.000
    N228     N        0.35640    0.97690    0.91919    1.000
    C765     C        0.40790    0.97810    0.91100    1.000
    C766     C        0.42270    0.01500    0.89010    1.000
    H1612    H        0.46240    0.02200    0.89000    1.000
    H1613    H        0.40250    0.04770    0.89270    1.000
    H1614    H        0.41190    0.99980    0.87410    1.000
    C767     C        0.34170    0.94380    0.94010    1.000
    H1615    H        0.37410    0.93990    0.95090    1.000
    H1616    H        0.33030    0.90940    0.93400    1.000
    H1617    H        0.31150    0.95940    0.94960    1.000
    C768     C        0.30930    0.00300    0.90800    1.000
    H1618    H        0.31970    0.01740    0.89180    1.000
    H1619    H        0.29750    0.03130    0.91910    1.000
    H1620    H        0.27900    0.97820    0.90590    1.000
    K37      K        0.74230    0.81321    0.76158    1.000
    K38      K        0.47431    0.57739    0.77390    1.000
    K39      K        0.48605    0.83873    0.59362    1.000
    K40      K        0.75912    0.62006    0.60943    1.000
    K41      K        0.76056    0.62749    0.92755    1.000
    K42      K        0.48700    0.85867    0.94070    1.000
    Zn19     Zn       0.59941    0.73129    0.84986    1.000
    O157     O        0.52082    0.83637    0.89794    1.000
    O158     O        0.69771    0.62687    0.89012    1.000
    O159     O        0.67423    0.82787    0.79706    1.000
    O160     O        0.50264    0.61740    0.81456    1.000
    N229     N        0.57070    0.77263    0.87819    1.000
    N230     N        0.64339    0.69326    0.87529    1.000
    N231     N        0.61838    0.77312    0.81991    1.000
    N232     N        0.56045    0.68415    0.82646    1.000
    N233     N        0.51032    0.82260    0.85601    1.000
    H1621    H        0.51430    0.79940    0.84410    1.000
    N234     N        0.70240    0.65060    0.84977    1.000
    H1622    H        0.69300    0.67490    0.83910    1.000
    N235     N        0.66121    0.84164    0.83866    1.000
    H1623    H        0.64750    0.82860    0.85250    1.000
    N236     N        0.53823    0.61992    0.85396    1.000
    H1624    H        0.55310    0.64040    0.86520    1.000
    C769     C        0.46630    0.86620    0.82248    1.000
    H1625    H        0.44280    0.83580    0.81930    1.000
    H1626    H        0.44710    0.89790    0.81720    1.000
    H1627    H        0.50080    0.86260    0.81320    1.000
    C770     C        0.47887    0.86965    0.85010    1.000
    C771     C        0.51260    0.91850    0.85563    1.000
    H1628    H        0.52210    0.91940    0.87330    1.000
    H1629    H        0.54650    0.91800    0.84570    1.000
    H1630    H        0.49100    0.94950    0.85140    1.000
    C772     C        0.42500    0.87170    0.86478    1.000
    H1631    H        0.40480    0.83910    0.86250    1.000
    H1632    H        0.43320    0.87660    0.88250    1.000
    H1633    H        0.40260    0.90090    0.85880    1.000
    C773     C        0.53444    0.81140    0.87880    1.000
    C774     C        0.59834    0.75795    0.90127    1.000
    H1634    H        0.62920    0.78230    0.90450    1.000
    H1635    H        0.57210    0.76070    0.91530    1.000
    C775     C        0.62038    0.70268    0.89984    1.000
    H1636    H        0.59020    0.67760    0.90310    1.000
    H1637    H        0.64920    0.69760    0.91260    1.000
    C776     C        0.68093    0.65540    0.87325    1.000
    C777     C        0.73860    0.61040    0.84054    1.000
    C778     C        0.74760    0.62050    0.81305    1.000
    H1638    H        0.76490    0.65470    0.81080    1.000
    H1639    H        0.77160    0.59340    0.80610    1.000
    H1640    H        0.71200    0.61990    0.80440    1.000
    C779     C        0.71170    0.55830    0.84375    1.000
    H1641    H        0.70460    0.55210    0.86140    1.000
    H1642    H        0.67680    0.55770    0.83460    1.000
    H1643    H        0.73610    0.53100    0.83730    1.000
    C780     C        0.79260    0.61060    0.85370    1.000
    H1644    H        0.80870    0.64550    0.85280    1.000
    H1645    H        0.78700    0.60080    0.87110    1.000
    H1646    H        0.81740    0.58550    0.84580    1.000
    C781     C        0.68620    0.90840    0.86767    1.000
    H1647    H        0.70310    0.88240    0.87860    1.000
    H1648    H        0.70490    0.94190    0.86990    1.000
    H1649    H        0.64720    0.91210    0.87190    1.000
    C782     C        0.69180    0.89100    0.84066    1.000
    C783     C        0.75290    0.88230    0.83453    1.000
    H1650    H        0.75650    0.87090    0.81720    1.000
    H1651    H        0.77320    0.91500    0.83690    1.000
    H1652    H        0.76810    0.85560    0.84560    1.000
    C784     C        0.66840    0.93240    0.82357    1.000
    H1653    H        0.67170    0.92090    0.80630    1.000
    H1654    H        0.62950    0.93820    0.82760    1.000
    H1655    H        0.68900    0.96490    0.82580    1.000
    C785     C        0.65200    0.81380    0.81700    1.000
    C786     C        0.60650    0.74250    0.79757    1.000
    H1656    H        0.60000    0.76600    0.78330    1.000
    H1657    H        0.63830    0.71980    0.79360    1.000
    C787     C        0.55550    0.70940    0.80237    1.000
    H1658    H        0.55170    0.68270    0.78920    1.000
    H1659    H        0.52220    0.73170    0.80210    1.000
    C788     C        0.53267    0.64020    0.83034    1.000
    C789     C        0.52180    0.56760    0.86209    1.000
    C790     C        0.54270    0.56170    0.88857    1.000
    H1660    H        0.58280    0.56550    0.88880    1.000
    H1661    H        0.52590    0.58860    0.89910    1.000
    H1662    H        0.53260    0.52720    0.89490    1.000
    C791     C        0.45870    0.56270    0.86192    1.000
    H1663    H        0.44270    0.58920    0.87290    1.000
    H1664    H        0.44500    0.56780    0.84500    1.000
    H1665    H        0.44810    0.52800    0.86780    1.000
    C792     C        0.54690    0.52540    0.84570    1.000
    H1666    H        0.58710    0.52900    0.84560    1.000
    H1667    H        0.53690    0.49110    0.85220    1.000
    H1668    H        0.53280    0.52900    0.82870    1.000
    Zn20     Zn       0.60421    0.68896    0.68080    1.000
    O161     O        0.71168    0.79224    0.71717    1.000
    O162     O        0.51759    0.60041    0.73367    1.000
    O163     O        0.52010    0.78539    0.63017    1.000
    O164     O        0.69737    0.57674    0.64338    1.000
    N237     N        0.64522    0.73392    0.70455    1.000
    N238     N        0.57108    0.65655    0.71054    1.000
    N239     N        0.57361    0.72599    0.65151    1.000
    N240     N        0.63616    0.64017    0.65595    1.000
    N241     N        0.69170    0.78218    0.67600    1.000
    H1669    H        0.67120    0.76540    0.66520    1.000
    N242     N        0.49969    0.61257    0.69231    1.000
    H1670    H        0.50220    0.63520    0.68010    1.000
    N243     N        0.52935    0.79064    0.67270    1.000
    H1671    H        0.53240    0.77130    0.68610    1.000
    N244     N        0.65904    0.57415    0.68228    1.000
    H1672    H        0.64120    0.59240    0.69350    1.000
    C793     C        0.72150    0.81940    0.63774    1.000
    H1673    H        0.72960    0.78460    0.63120    1.000
    H1674    H        0.68310    0.82840    0.63410    1.000
    H1675    H        0.74600    0.84490    0.62980    1.000
    C794     C        0.73070    0.82010    0.66587    1.000
    C795     C        0.78970    0.80360    0.67184    1.000
    H1676    H        0.79410    0.80030    0.68990    1.000
    H1677    H        0.79760    0.77010    0.66390    1.000
    H1678    H        0.81540    0.83000    0.66560    1.000
    C796     C        0.72030    0.87410    0.67564    1.000
    H1679    H        0.72730    0.87490    0.69360    1.000
    H1680    H        0.74500    0.89880    0.66730    1.000
    H1681    H        0.68200    0.88390    0.67240    1.000
    C797     C        0.68370    0.77000    0.70059    1.000
    C798     C        0.63110    0.72090    0.72999    1.000
    H1682    H        0.66490    0.72180    0.74030    1.000
    H1683    H        0.60550    0.74760    0.73660    1.000
    C799     C        0.60510    0.66870    0.73222    1.000
    H1684    H        0.58200    0.66780    0.74740    1.000
    H1685    H        0.63420    0.64200    0.73400    1.000
    C800     C        0.52980    0.62290    0.71364    1.000
    C801     C        0.46390    0.56700    0.68845    1.000
    C802     C        0.45020    0.56620    0.66102    1.000
    H1686    H        0.48420    0.56320    0.65130    1.000
    H1687    H        0.42630    0.53630    0.65740    1.000
    H1688    H        0.43110    0.59850    0.65650    1.000
    C803     C        0.41070    0.57190    0.70364    1.000
    H1689    H        0.39010    0.60260    0.69810    1.000
    H1690    H        0.38810    0.54060    0.70120    1.000
    H1691    H        0.41980    0.57550    0.72130    1.000
    C804     C        0.49310    0.51730    0.69553    1.000
    H1692    H        0.52770    0.51450    0.68620    1.000
    H1693    H        0.50100    0.51750    0.71340    1.000
    H1694    H        0.46950    0.48740    0.69160    1.000
    C805     C        0.51390    0.85440    0.70372    1.000
    H1695    H        0.48720    0.83130    0.71180    1.000
    H1696    H        0.55090    0.84680    0.71000    1.000
    H1697    H        0.50450    0.89070    0.70730    1.000
    C806     C        0.51240    0.84550    0.67578    1.000
    C807     C        0.45360    0.85430    0.66651    1.000
    H1698    H        0.42830    0.83130    0.67550    1.000
    H1699    H        0.44310    0.89070    0.66940    1.000
    H1700    H        0.45170    0.84670    0.64870    1.000
    C808     C        0.55160    0.88180    0.66253    1.000
    H1701    H        0.54970    0.87550    0.64460    1.000
    H1702    H        0.54120    0.91800    0.66600    1.000
    H1703    H        0.58920    0.87560    0.66840    1.000
    C809     C        0.54077    0.76750    0.64977    1.000
    C810     C        0.58420    0.69650    0.62883    1.000
    H1704    H        0.55330    0.67230    0.62560    1.000
    H1705    H        0.58740    0.72050    0.61450    1.000
    C811     C        0.63778    0.66565    0.63187    1.000
    H1706    H        0.66980    0.68940    0.63090    1.000
    H1707    H        0.64120    0.63940    0.61850    1.000
    C812     C        0.66567    0.59677    0.65926    1.000
    C813     C        0.67890    0.52250    0.68991    1.000
    C814     C        0.65550    0.51380    0.71591    1.000
    H1708    H        0.61520    0.51630    0.71530    1.000
    H1709    H        0.66610    0.47920    0.72190    1.000
    H1710    H        0.67000    0.54040    0.72720    1.000
    C815     C        0.74150    0.52140    0.69083    1.000
    H1711    H        0.75630    0.53180    0.67460    1.000
    H1712    H        0.75450    0.54560    0.70360    1.000
    H1713    H        0.75400    0.48610    0.69480    1.000
    C816     C        0.65780    0.48000    0.67254    1.000
    H1714    H        0.61780    0.48290    0.67090    1.000
    H1715    H        0.67490    0.48410    0.65620    1.000
    H1716    H        0.66730    0.44580    0.67940    1.000
    Zn21     Zn       0.63460    0.73434    0.51554    1.000
    O165     O        0.54054    0.84757    0.55282    1.000
    O166     O        0.72199    0.64150    0.56615    1.000
    O167     O        0.72718    0.67603    0.96551    1.000
    O168     O        0.54557    0.88122    0.97827    1.000
    N245     N        0.59767    0.78158    0.53948    1.000
    N246     N        0.67106    0.70317    0.54500    1.000
    N247     N        0.66878    0.73252    0.98609    1.000
    N248     N        0.60509    0.81775    0.99148    1.000
    N249     N        0.55013    0.83074    0.51131    1.000
    H1717    H        0.57140    0.81590    0.50010    1.000
    N250     N        0.73829    0.65789    0.52478    1.000
    H1718    H        0.74290    0.68450    0.51470    1.000
    N251     N        0.70126    0.65960    0.00576    1.000
    H1719    H        0.69260    0.67500    0.01980    1.000
    N252     N        0.56577    0.87218    0.01963    1.000
    H1720    H        0.58080    0.85190    0.03090    1.000
    C817     C        0.50770    0.85900    0.47371    1.000
    H1721    H        0.50090    0.82270    0.46890    1.000
    H1722    H        0.47940    0.88140    0.46630    1.000
    H1723    H        0.54410    0.86970    0.46770    1.000
    C818     C        0.50560    0.86380    0.50203    1.000
    C819     C        0.51480    0.92020    0.50926    1.000
    H1724    H        0.51780    0.92290    0.52740    1.000
    H1725    H        0.54900    0.93290    0.50160    1.000
    H1726    H        0.48380    0.94140    0.50350    1.000
    C820     C        0.45000    0.84550    0.51159    1.000
    H1727    H        0.44490    0.80860    0.50740    1.000
    H1728    H        0.44860    0.84970    0.52970    1.000
    H1729    H        0.42070    0.86620    0.50390    1.000
    C821     C        0.56195    0.82050    0.53594    1.000
    C822     C        0.61865    0.77316    0.56463    1.000
    H1730    H        0.64820    0.79870    0.56820    1.000
    H1731    H        0.58860    0.77880    0.57680    1.000
    C823     C        0.64125    0.71808    0.56751    1.000
    H1732    H        0.61060    0.69350    0.57040    1.000
    H1733    H        0.66630    0.71660    0.58200    1.000
    C824     C        0.70919    0.66624    0.54681    1.000
    C825     C        0.76160    0.60759    0.51734    1.000
    C826     C        0.77890    0.61380    0.49026    1.000
    H1734    H        0.80610    0.64190    0.48890    1.000
    H1735    H        0.79520    0.58120    0.48430    1.000
    H1736    H        0.74660    0.62240    0.48020    1.000
    C827     C        0.81170    0.59340    0.53282    1.000
    H1737    H        0.83980    0.62050    0.53100    1.000
    H1738    H        0.80100    0.59060    0.55030    1.000
    H1739    H        0.82660    0.56000    0.52710    1.000
    C828     C        0.71720    0.56530    0.51922    1.000
    H1740    H        0.68520    0.57540    0.50930    1.000
    H1741    H        0.73200    0.53230    0.51290    1.000
    H1742    H        0.70620    0.56100    0.53660    1.000
    C829     C        0.70220    0.58620    0.03298    1.000
    H1743    H        0.72430    0.60610    0.04490    1.000
    H1744    H        0.71060    0.54900    0.03460    1.000
    H1745    H        0.66300    0.59200    0.03630    1.000
    C830     C        0.71580    0.60410    0.00673    1.000
    C831     C        0.77810    0.59760    0.00187    1.000
    H1746    H        0.78680    0.60980    0.98510    1.000
    H1747    H        0.78810    0.56080    0.00340    1.000
    H1748    H        0.79880    0.61820    0.01400    1.000
    C832     C        0.68280    0.57250    0.98771    1.000
    H1749    H        0.69080    0.58530    0.97090    1.000
    H1750    H        0.64340    0.57620    0.99110    1.000
    H1751    H        0.69320    0.53570    0.98890    1.000
    C833     C        0.70009    0.68960    0.98422    1.000
    C834     C        0.66570    0.76750    0.96485    1.000
    H1752    H        0.66720    0.74730    0.94920    1.000
    H1753    H        0.69730    0.79200    0.96510    1.000
    C835     C        0.61210    0.79760    0.96632    1.000
    H1754    H        0.61260    0.82680    0.95430    1.000
    H1755    H        0.58090    0.77440    0.96210    1.000
    C836     C        0.57140    0.85750    0.99498    1.000
    C837     C        0.53660    0.91900    0.02839    1.000
    C838     C        0.54640    0.92050    0.05651    1.000
    H1756    H        0.53130    0.88890    0.06410    1.000
    H1757    H        0.52810    0.95120    0.06360    1.000
    H1758    H        0.58600    0.92240    0.05980    1.000
    C839     C        0.47450    0.91490    0.02339    1.000
    H1759    H        0.46810    0.91190    0.00550    1.000
    H1760    H        0.45590    0.94600    0.02970    1.000
    H1761    H        0.45980    0.88390    0.03180    1.000
    C840     C        0.55950    0.96820    0.01659    1.000
    H1762    H        0.55540    0.96620    0.99850    1.000
    H1763    H        0.59860    0.97170    0.02080    1.000
    H1764    H        0.53930    0.99860    0.02280    1.000
    O169     O        0.77880    0.90890    0.75960    1.000
    N253     N        0.85390    0.95100    0.77210    1.000
    C841     C        0.79970    0.94840    0.76910    1.000
    C842     C        0.76520    0.99720    0.77210    1.000
    H1765    H        0.76350    0.01580    0.75620    1.000
    H1766    H        0.72780    0.98950    0.77790    1.000
    H1767    H        0.78410    0.01890    0.78450    1.000
    C843     C        0.88700    0.90460    0.76750    1.000
    H1768    H        0.86680    0.88350    0.75540    1.000
    H1769    H        0.92320    0.91380    0.76060    1.000
    H1770    H        0.89200    0.88470    0.78290    1.000
    C844     C        0.88490    0.99330    0.78330    1.000
    H1771    H        0.89500    0.98530    0.80060    1.000
    H1772    H        0.91840    0.99710    0.77330    1.000
    H1773    H        0.86380    0.02590    0.78280    1.000
    O170     O        0.79320    0.90230    0.76030    1.000
    N254     N        0.83760    0.97130    0.77530    1.000
    C845     C        0.83780    0.92450    0.76470    1.000
    C846     C        0.88930    0.90660    0.75120    1.000
    H1774    H        0.88980    0.91630    0.73360    1.000
    H1775    H        0.91870    0.92520    0.76000    1.000
    H1776    H        0.89520    0.86890    0.75280    1.000
    C847     C        0.78520    0.99220    0.78400    1.000
    H1777    H        0.75780    0.97010    0.77580    1.000
    H1778    H        0.77970    0.99070    0.80210    1.000
    H1779    H        0.78100    0.02830    0.77830    1.000
    C848     C        0.88060    0.01060    0.77340    1.000
    H1780    H        0.87280    0.03840    0.76140    1.000
    H1781    H        0.88080    0.02520    0.79030    1.000
    H1782    H        0.91660    0.99520    0.76970    1.000
    O171     O        0.47630    0.47480    0.76270    1.000
    N255     N        0.39270    0.43890    0.76402    1.000
    C849     C        0.44300    0.44210    0.75465    1.000
    C850     C        0.46030    0.40380    0.73480    1.000
    H1783    H        0.46370    0.36890    0.74200    1.000
    H1784    H        0.43300    0.40320    0.72140    1.000
    H1785    H        0.49610    0.41470    0.72800    1.000
    C851     C        0.37530    0.47550    0.78320    1.000
    H1786    H        0.36170    0.50750    0.77530    1.000
    H1787    H        0.34570    0.45960    0.79300    1.000
    H1788    H        0.40640    0.48380    0.79410    1.000
    C852     C        0.34800    0.40610    0.75510    1.000
    H1789    H        0.35740    0.39280    0.73850    1.000
    H1790    H        0.34430    0.37690    0.76670    1.000
    H1791    H        0.31310    0.42530    0.75420    1.000
    O172     O        0.46650    0.47820    0.76700    1.000
    N256     N        0.40540    0.41980    0.75300    1.000
    C853     C        0.42000    0.45810    0.76810    1.000
    C854     C        0.38310    0.47040    0.79010    1.000
    H1792    H        0.34710    0.48160    0.78380    1.000
    H1793    H        0.37850    0.43980    0.80080    1.000
    H1794    H        0.39980    0.49880    0.79970    1.000
    C855     C        0.44370    0.40080    0.73420    1.000
    H1795    H        0.44460    0.36260    0.73470    1.000
    H1796    H        0.43200    0.41250    0.71770    1.000
    H1797    H        0.48060    0.41450    0.73780    1.000
    C856     C        0.35850    0.38520    0.75660    1.000
    H1798    H        0.32600    0.40640    0.76030    1.000
    H1799    H        0.35200    0.36510    0.74140    1.000
    H1800    H        0.36540    0.36120    0.77050    1.000
    O173     O        0.38820    0.81040    0.59760    1.000
    N257     N        0.29780    0.79380    0.59787    1.000
    C857     C        0.34790    0.78850    0.60723    1.000
    C858     C        0.35510    0.75930    0.63150    1.000
    H1801    H        0.33610    0.77950    0.64430    1.000
    H1802    H        0.33870    0.72450    0.63040    1.000
    H1803    H        0.39420    0.75610    0.63580    1.000
    C859     C        0.28990    0.82310    0.57490    1.000
    H1804    H        0.27720    0.79890    0.56210    1.000
    H1805    H        0.26280    0.85110    0.57700    1.000
    H1806    H        0.32540    0.83810    0.57000    1.000
    C860     C        0.24890    0.76500    0.60540    1.000
    H1807    H        0.22730    0.78670    0.61680    1.000
    H1808    H        0.22670    0.75670    0.59070    1.000
    H1809    H        0.25950    0.73260    0.61380    1.000
    O174     O        0.38340    0.80870    0.59067    1.000
    N258     N        0.31110    0.78220    0.61319    1.000
    C861     C        0.33300    0.80140    0.59259    1.000
    C862     C        0.29650    0.80870    0.56999    1.000
    H1810    H        0.29280    0.77570    0.56100    1.000
    H1811    H        0.26010    0.82040    0.57550    1.000
    H1812    H        0.31270    0.83500    0.55900    1.000
    C863     C        0.34650    0.76940    0.63419    1.000
    H1813    H        0.38140    0.78830    0.63250    1.000
    H1814    H        0.32880    0.77890    0.64990    1.000
    H1815    H        0.35370    0.73180    0.63400    1.000
    C864     C        0.25520    0.76250    0.61614    1.000
    H1816    H        0.25240    0.72860    0.60780    1.000
    H1817    H        0.24680    0.75850    0.63390    1.000
    H1818    H        0.22900    0.78690    0.60860    1.000
    O175     O        0.44186    0.92950    0.59687    1.000
    N259     N        0.37260    0.97200    0.57834    1.000
    C865     C        0.39310    0.94430    0.59689    1.000
    C866     C        0.35630    0.93180    0.61880    1.000
    H1819    H        0.37810    0.91480    0.63180    1.000
    H1820    H        0.34150    0.96470    0.62520    1.000
    H1821    H        0.32590    0.90900    0.61390    1.000
    C867     C        0.40600    0.98360    0.55654    1.000
    H1822    H        0.38580    0.97390    0.54150    1.000
    H1823    H        0.41460    0.02090    0.55600    1.000
    H1824    H        0.44020    0.96350    0.55750    1.000
    C868     C        0.31840    0.99630    0.57790    1.000
    H1825    H        0.31770    0.02710    0.58860    1.000
    H1826    H        0.30980    0.00650    0.56080    1.000
    H1827    H        0.29090    0.97110    0.58370    1.000
    O176     O        0.44540    0.93380    0.58640    1.000
    N260     N        0.35830    0.96050    0.59120    1.000
    C869     C        0.40550    0.95960    0.57880    1.000
    C870     C        0.41340    0.99710    0.55730    1.000
    H1828    H        0.45180    0.99690    0.55170    1.000
    H1829    H        0.38970    0.98330    0.54410    1.000
    H1830    H        0.40230    0.03290    0.56120    1.000
    C871     C        0.35330    0.93300    0.61470    1.000
    H1831    H        0.38350    0.90770    0.61590    1.000
    H1832    H        0.35440    0.95630    0.62920    1.000
    H1833    H        0.31800    0.91440    0.61450    1.000
    C872     C        0.30890    0.98920    0.58440    1.000
    H1834    H        0.29460    0.97790    0.56820    1.000
    H1835    H        0.28050    0.98440    0.59710    1.000
    H1836    H        0.31910    0.02610    0.58350    1.000
    O177     O        0.85361    0.67140    0.91660    1.000
    N261     N        0.92348    0.70290    0.93915    1.000
    C873     C        0.90280    0.68470    0.91811    1.000
    C874     C        0.94080    0.67620    0.89617    1.000
    H1837    H        0.92020    0.66070    0.88240    1.000
    H1838    H        0.97100    0.65280    0.90100    1.000
    H1839    H        0.95610    0.70980    0.89100    1.000
    C875     C        0.88760    0.71140    0.96048    1.000
    H1840    H        0.87830    0.74840    0.96190    1.000
    H1841    H        0.90640    0.69990    0.97560    1.000
    H1842    H        0.85380    0.69110    0.95820    1.000
    C876     C        0.97960    0.72080    0.94329    1.000
    H1843    H        0.99640    0.70060    0.95680    1.000
    H1844    H        0.97910    0.75780    0.94780    1.000
    H1845    H        0.00120    0.71610    0.92800    1.000
    O178     O        0.84670    0.81920    0.41690    1.000
    N262     N        0.93590    0.80400    0.42460    1.000
    C877     C        0.88350    0.80510    0.43150    1.000
    C878     C        0.86830    0.78570    0.45720    1.000
    H1846    H        0.87990    0.74920    0.45850    1.000
    H1847    H        0.88720    0.80630    0.46990    1.000
    H1848    H        0.82840    0.78810    0.45960    1.000
    C879     C        0.95140    0.82100    0.39970    1.000
    H1849    H        0.92120    0.84210    0.39300    1.000
    H1850    H        0.98470    0.84240    0.40090    1.000
    H1851    H        0.95840    0.79140    0.38860    1.000
    C880     C        0.98030    0.77720    0.43750    1.000
    H1852    H        0.96640    0.76180    0.45300    1.000
    H1853    H        0.99490    0.74960    0.42670    1.000
    H1854    H        0.00980    0.80210    0.44140    1.000
    O179     O        0.80650    0.53720    0.93242    1.000
    N263     N        0.88480    0.49590    0.92244    1.000
    C881     C        0.83920    0.50070    0.93573    1.000
    C882     C        0.82990    0.46330    0.95712    1.000
    H1855    H        0.80210    0.47760    0.96840    1.000
    H1856    H        0.86470    0.45870    0.96610    1.000
    H1857    H        0.81730    0.42960    0.95080    1.000
    C883     C        0.89460    0.53010    0.90131    1.000
    H1858    H        0.86360    0.55430    0.89960    1.000
    H1859    H        0.89810    0.50930    0.88610    1.000
    H1860    H        0.92860    0.54990    0.90400    1.000
    C884     C        0.92460    0.45370    0.92440    1.000
    H1861    H        0.92360    0.44170    0.94170    1.000
    H1862    H        0.96090    0.46880    0.92090    1.000
    H1863    H        0.91790    0.42430    0.91320    1.000
    O180     O        0.80370    0.96630    0.42560    1.000
    N264     N        0.86850    0.02600    0.43330    1.000
    C885     C        0.85060    0.98380    0.42160    1.000
    C886     C        0.89060    0.95300    0.40580    1.000
    H1864    H        0.88970    0.96630    0.38870    1.000
    H1865    H        0.92790    0.95680    0.41250    1.000
    H1866    H        0.88020    0.91610    0.40580    1.000
    C887     C        0.83080    0.05620    0.44860    1.000
    H1867    H        0.80170    0.03300    0.45460    1.000
    H1868    H        0.85090    0.07080    0.46280    1.000
    H1869    H        0.81440    0.08460    0.43890    1.000
    C888     C        0.92160    0.05120    0.42960    1.000
    H1870    H        0.91150    0.08250    0.42020    1.000
    H1871    H        0.94130    0.06140    0.44480    1.000
    H1872    H        0.94550    0.02900    0.41940    1.000
    O181     O        0.44070    0.94160    0.92430    1.000
    N265     N        0.37460    0.99260    0.90822    1.000
    C889     C        0.39280    0.95850    0.92477    1.000
    C890     C        0.35380    0.94020    0.94493    1.000
    H1873    H        0.37360    0.91820    0.95680    1.000
    H1874    H        0.32340    0.92030    0.93750    1.000
    H1875    H        0.33890    0.97070    0.95360    1.000
    C891     C        0.41160    0.01450    0.88970    1.000
    H1876    H        0.44650    0.99520    0.89020    1.000
    H1877    H        0.41860    0.05150    0.89290    1.000
    H1878    H        0.39480    0.01060    0.87320    1.000
    C892     C        0.32060    0.01750    0.90872    1.000
    H1879    H        0.29390    0.99420    0.91670    1.000
    H1880    H        0.30870    0.02500    0.89170    1.000
    H1881    H        0.32290    0.05010    0.91820    1.000
    O182     O        0.44450    0.54850    0.42100    1.000
    N266     N        0.35640    0.52310    0.41919    1.000
    C893     C        0.40790    0.52190    0.41100    1.000
    C894     C        0.42270    0.48500    0.39010    1.000
    H1882    H        0.46240    0.47800    0.39000    1.000
    H1883    H        0.40250    0.45230    0.39270    1.000
    H1884    H        0.41190    0.50020    0.37410    1.000
    C895     C        0.34170    0.55620    0.44010    1.000
    H1885    H        0.37410    0.56010    0.45090    1.000
    H1886    H        0.33030    0.59060    0.43400    1.000
    H1887    H        0.31150    0.54060    0.44960    1.000
    C896     C        0.30930    0.49700    0.40800    1.000
    H1888    H        0.31970    0.48260    0.39180    1.000
    H1889    H        0.29750    0.46870    0.41910    1.000
    H1890    H        0.27900    0.52180    0.40590    1.000
    K43      K        0.24230    0.68679    0.23842    1.000
    K44      K        0.97431    0.92261    0.22610    1.000
    K45      K        0.98605    0.66127    0.40638    1.000
    K46      K        0.25912    0.87994    0.39057    1.000
    K47      K        0.26056    0.87251    0.07245    1.000
    K48      K        0.98700    0.64133    0.05930    1.000
    Zn22     Zn       0.09941    0.76871    0.15014    1.000
    O183     O        0.02082    0.66363    0.10206    1.000
    O184     O        0.19771    0.87313    0.10988    1.000
    O185     O        0.17423    0.67213    0.20294    1.000
    O186     O        0.00264    0.88260    0.18544    1.000
    N267     N        0.07070    0.72737    0.12181    1.000
    N268     N        0.14339    0.80674    0.12471    1.000
    N269     N        0.11838    0.72688    0.18009    1.000
    N270     N        0.06045    0.81585    0.17354    1.000
    N271     N        0.01032    0.67740    0.14399    1.000
    H1891    H        0.01430    0.70060    0.15590    1.000
    N272     N        0.20240    0.84940    0.15023    1.000
    H1892    H        0.19300    0.82510    0.16090    1.000
    N273     N        0.16121    0.65836    0.16134    1.000
    H1893    H        0.14750    0.67140    0.14750    1.000
    N274     N        0.03823    0.88008    0.14604    1.000
    H1894    H        0.05310    0.85960    0.13480    1.000
    C897     C        0.96630    0.63380    0.17752    1.000
    H1895    H        0.94280    0.66420    0.18070    1.000
    H1896    H        0.94710    0.60210    0.18280    1.000
    H1897    H        0.00080    0.63740    0.18680    1.000
    C898     C        0.97887    0.63035    0.14990    1.000
    C899     C        0.01260    0.58150    0.14437    1.000
    H1898    H        0.02210    0.58060    0.12670    1.000
    H1899    H        0.04650    0.58200    0.15430    1.000
    H1900    H        0.99100    0.55050    0.14860    1.000
    C900     C        0.92500    0.62830    0.13522    1.000
    H1901    H        0.90480    0.66090    0.13750    1.000
    H1902    H        0.93320    0.62340    0.11750    1.000
    H1903    H        0.90260    0.59910    0.14120    1.000
    C901     C        0.03444    0.68860    0.12120    1.000
    C902     C        0.09834    0.74205    0.09873    1.000
    H1904    H        0.12920    0.71770    0.09550    1.000
    H1905    H        0.07210    0.73930    0.08470    1.000
    C903     C        0.12038    0.79732    0.10016    1.000
    H1906    H        0.09020    0.82240    0.09690    1.000
    H1907    H        0.14920    0.80240    0.08740    1.000
    C904     C        0.18093    0.84460    0.12675    1.000
    C905     C        0.23860    0.88960    0.15946    1.000
    C906     C        0.24760    0.87950    0.18695    1.000
    H1908    H        0.26490    0.84530    0.18920    1.000
    H1909    H        0.27160    0.90660    0.19390    1.000
    H1910    H        0.21200    0.88010    0.19560    1.000
    C907     C        0.21170    0.94170    0.15625    1.000
    H1911    H        0.20460    0.94790    0.13860    1.000
    H1912    H        0.17680    0.94230    0.16540    1.000
    H1913    H        0.23610    0.96900    0.16270    1.000
    C908     C        0.29260    0.88940    0.14630    1.000
    H1914    H        0.30870    0.85450    0.14720    1.000
    H1915    H        0.28700    0.89920    0.12890    1.000
    H1916    H        0.31740    0.91450    0.15420    1.000
    C909     C        0.18620    0.59160    0.13233    1.000
    H1917    H        0.20310    0.61760    0.12140    1.000
    H1918    H        0.20490    0.55810    0.13010    1.000
    H1919    H        0.14720    0.58790    0.12810    1.000
    C910     C        0.19180    0.60900    0.15934    1.000
    C911     C        0.25290    0.61770    0.16547    1.000
    H1920    H        0.25650    0.62910    0.18280    1.000
    H1921    H        0.27320    0.58500    0.16310    1.000
    H1922    H        0.26810    0.64440    0.15440    1.000
    C912     C        0.16840    0.56760    0.17643    1.000
    H1923    H        0.17170    0.57910    0.19370    1.000
    H1924    H        0.12950    0.56180    0.17240    1.000
    H1925    H        0.18900    0.53510    0.17420    1.000
    C913     C        0.15200    0.68620    0.18300    1.000
    C914     C        0.10650    0.75750    0.20243    1.000
    H1926    H        0.10000    0.73400    0.21670    1.000
    H1927    H        0.13830    0.78020    0.20640    1.000
    C915     C        0.05550    0.79060    0.19763    1.000
    H1928    H        0.05170    0.81730    0.21080    1.000
    H1929    H        0.02220    0.76830    0.19790    1.000
    C916     C        0.03267    0.85980    0.16966    1.000
    C917     C        0.02180    0.93240    0.13791    1.000
    C918     C        0.04270    0.93830    0.11143    1.000
    H1930    H        0.08280    0.93450    0.11120    1.000
    H1931    H        0.02590    0.91140    0.10090    1.000
    H1932    H        0.03260    0.97280    0.10510    1.000
    C919     C        0.95870    0.93730    0.13808    1.000
    H1933    H        0.94270    0.91080    0.12710    1.000
    H1934    H        0.94500    0.93220    0.15500    1.000
    H1935    H        0.94810    0.97200    0.13220    1.000
    C920     C        0.04690    0.97460    0.15430    1.000
    H1936    H        0.08710    0.97100    0.15440    1.000
    H1937    H        0.03690    0.00890    0.14780    1.000
    H1938    H        0.03280    0.97100    0.17130    1.000
    Zn23     Zn       0.10421    0.81104    0.31920    1.000
    O187     O        0.21168    0.70776    0.28283    1.000
    O188     O        0.01759    0.89959    0.26633    1.000
    O189     O        0.02010    0.71461    0.36983    1.000
    O190     O        0.19737    0.92326    0.35662    1.000
    N275     N        0.14522    0.76608    0.29545    1.000
    N276     N        0.07108    0.84345    0.28946    1.000
    N277     N        0.07361    0.77401    0.34849    1.000
    N278     N        0.13616    0.85983    0.34405    1.000
    N279     N        0.19170    0.71782    0.32400    1.000
    H1939    H        0.17120    0.73460    0.33480    1.000
    N280     N        0.99969    0.88743    0.30769    1.000
    H1940    H        0.00220    0.86480    0.31990    1.000
    N281     N        0.02935    0.70936    0.32730    1.000
    H1941    H        0.03240    0.72870    0.31390    1.000
    N282     N        0.15904    0.92585    0.31772    1.000
    H1942    H        0.14120    0.90760    0.30650    1.000
    C921     C        0.22150    0.68060    0.36226    1.000
    H1943    H        0.22960    0.71540    0.36880    1.000
    H1944    H        0.18310    0.67160    0.36590    1.000
    H1945    H        0.24600    0.65510    0.37020    1.000
    C922     C        0.23070    0.67990    0.33413    1.000
    C923     C        0.28970    0.69640    0.32816    1.000
    H1946    H        0.29410    0.69970    0.31010    1.000
    H1947    H        0.29760    0.72990    0.33610    1.000
    H1948    H        0.31540    0.67000    0.33440    1.000
    C924     C        0.22030    0.62590    0.32436    1.000
    H1949    H        0.22730    0.62510    0.30640    1.000
    H1950    H        0.24500    0.60120    0.33270    1.000
    H1951    H        0.18200    0.61610    0.32760    1.000
    C925     C        0.18370    0.73000    0.29941    1.000
    C926     C        0.13110    0.77910    0.27001    1.000
    H1952    H        0.16490    0.77820    0.25970    1.000
    H1953    H        0.10550    0.75240    0.26340    1.000
    C927     C        0.10510    0.83130    0.26778    1.000
    H1954    H        0.08200    0.83220    0.25260    1.000
    H1955    H        0.13420    0.85800    0.26600    1.000
    C928     C        0.02980    0.87710    0.28636    1.000
    C929     C        0.96390    0.93300    0.31155    1.000
    C930     C        0.95020    0.93380    0.33898    1.000
    H1956    H        0.98420    0.93680    0.34870    1.000
    H1957    H        0.92630    0.96370    0.34260    1.000
    H1958    H        0.93110    0.90150    0.34350    1.000
    C931     C        0.91070    0.92810    0.29636    1.000
    H1959    H        0.89010    0.89740    0.30190    1.000
    H1960    H        0.88810    0.95940    0.29880    1.000
    H1961    H        0.91980    0.92450    0.27870    1.000
    C932     C        0.99310    0.98270    0.30447    1.000
    H1962    H        0.02770    0.98550    0.31380    1.000
    H1963    H        0.00100    0.98250    0.28660    1.000
    H1964    H        0.96950    0.01260    0.30840    1.000
    C933     C        0.01390    0.64560    0.29628    1.000
    H1965    H        0.98720    0.66870    0.28820    1.000
    H1966    H        0.05090    0.65320    0.29000    1.000
    H1967    H        0.00450    0.60930    0.29270    1.000
    C934     C        0.01240    0.65450    0.32422    1.000
    C935     C        0.95360    0.64570    0.33349    1.000
    H1968    H        0.92830    0.66870    0.32450    1.000
    H1969    H        0.94310    0.60930    0.33060    1.000
    H1970    H        0.95170    0.65330    0.35130    1.000
    C936     C        0.05160    0.61820    0.33747    1.000
    H1971    H        0.04970    0.62450    0.35540    1.000
    H1972    H        0.04120    0.58200    0.33400    1.000
    H1973    H        0.08920    0.62440    0.33160    1.000
    C937     C        0.04077    0.73250    0.35023    1.000
    C938     C        0.08420    0.80350    0.37117    1.000
    H1974    H        0.05330    0.82770    0.37440    1.000
    H1975    H        0.08740    0.77950    0.38550    1.000
    C939     C        0.13778    0.83435    0.36813    1.000
    H1976    H        0.16980    0.81060    0.36910    1.000
    H1977    H        0.14120    0.86060    0.38150    1.000
    C940     C        0.16567    0.90323    0.34074    1.000
    C941     C        0.17890    0.97750    0.31009    1.000
    C942     C        0.15550    0.98620    0.28409    1.000
    H1978    H        0.11520    0.98370    0.28470    1.000
    H1979    H        0.16610    0.02080    0.27810    1.000
    H1980    H        0.17000    0.95960    0.27280    1.000
    C943     C        0.24150    0.97860    0.30917    1.000
    H1981    H        0.25630    0.96820    0.32540    1.000
    H1982    H        0.25450    0.95440    0.29640    1.000
    H1983    H        0.25400    0.01390    0.30520    1.000
    C944     C        0.15780    0.02000    0.32746    1.000
    H1984    H        0.11780    0.01710    0.32910    1.000
    H1985    H        0.17490    0.01590    0.34380    1.000
    H1986    H        0.16730    0.05420    0.32060    1.000
    Zn24     Zn       0.13460    0.76566    0.48446    1.000
    O191     O        0.04054    0.65243    0.44718    1.000
    O192     O        0.22199    0.85850    0.43385    1.000
    O193     O        0.22718    0.82397    0.03449    1.000
    O194     O        0.04557    0.61878    0.02173    1.000
    N283     N        0.09767    0.71842    0.46052    1.000
    N284     N        0.17106    0.79683    0.45500    1.000
    N285     N        0.16878    0.76748    0.01391    1.000
    N286     N        0.10509    0.68225    0.00852    1.000
    N287     N        0.05013    0.66926    0.48869    1.000
    H1987    H        0.07140    0.68410    0.49990    1.000
    N288     N        0.23829    0.84211    0.47522    1.000
    H1988    H        0.24290    0.81550    0.48530    1.000
    N289     N        0.20126    0.84040    0.99424    1.000
    H1989    H        0.19260    0.82500    0.98020    1.000
    N290     N        0.06577    0.62782    0.98037    1.000
    H1990    H        0.08080    0.64810    0.96910    1.000
    C945     C        0.00770    0.64100    0.52629    1.000
    H1991    H        0.00090    0.67730    0.53110    1.000
    H1992    H        0.97940    0.61860    0.53370    1.000
    H1993    H        0.04410    0.63030    0.53230    1.000
    C946     C        0.00560    0.63620    0.49797    1.000
    C947     C        0.01480    0.57980    0.49074    1.000
    H1994    H        0.01780    0.57710    0.47260    1.000
    H1995    H        0.04900    0.56710    0.49840    1.000
    H1996    H        0.98380    0.55860    0.49650    1.000
    C948     C        0.95000    0.65450    0.48841    1.000
    H1997    H        0.94490    0.69140    0.49260    1.000
    H1998    H        0.94860    0.65030    0.47030    1.000
    H1999    H        0.92070    0.63380    0.49610    1.000
    C949     C        0.06195    0.67950    0.46406    1.000
    C950     C        0.11865    0.72684    0.43537    1.000
    H2000    H        0.14820    0.70130    0.43180    1.000
    H2001    H        0.08860    0.72120    0.42320    1.000
    C951     C        0.14125    0.78192    0.43249    1.000
    H2002    H        0.11060    0.80650    0.42960    1.000
    H2003    H        0.16630    0.78340    0.41800    1.000
    C952     C        0.20919    0.83376    0.45319    1.000
    C953     C        0.26160    0.89241    0.48266    1.000
    C954     C        0.27890    0.88620    0.50974    1.000
    H2004    H        0.30610    0.85810    0.51110    1.000
    H2005    H        0.29520    0.91880    0.51570    1.000
    H2006    H        0.24660    0.87760    0.51980    1.000
    C955     C        0.31170    0.90660    0.46718    1.000
    H2007    H        0.33980    0.87950    0.46900    1.000
    H2008    H        0.30100    0.90940    0.44970    1.000
    H2009    H        0.32660    0.94000    0.47290    1.000
    C956     C        0.21720    0.93470    0.48078    1.000
    H2010    H        0.18520    0.92460    0.49070    1.000
    H2011    H        0.23200    0.96770    0.48710    1.000
    H2012    H        0.20620    0.93900    0.46340    1.000
    C957     C        0.20220    0.91380    0.96702    1.000
    H2013    H        0.22430    0.89390    0.95510    1.000
    H2014    H        0.21060    0.95100    0.96540    1.000
    H2015    H        0.16300    0.90800    0.96370    1.000
    C958     C        0.21580    0.89590    0.99327    1.000
    C959     C        0.27810    0.90240    0.99813    1.000
    H2016    H        0.28680    0.89020    0.01490    1.000
    H2017    H        0.28810    0.93920    0.99660    1.000
    H2018    H        0.29880    0.88180    0.98600    1.000
    C960     C        0.18280    0.92750    0.01229    1.000
    H2019    H        0.19080    0.91470    0.02910    1.000
    H2020    H        0.14340    0.92380    0.00890    1.000
    H2021    H        0.19320    0.96430    0.01110    1.000
    C961     C        0.20009    0.81040    0.01578    1.000
    C962     C        0.16570    0.73250    0.03515    1.000
    H2022    H        0.16720    0.75270    0.05080    1.000
    H2023    H        0.19730    0.70800    0.03490    1.000
    C963     C        0.11210    0.70240    0.03368    1.000
    H2024    H        0.11260    0.67320    0.04570    1.000
    H2025    H        0.08090    0.72560    0.03790    1.000
    C964     C        0.07140    0.64250    0.00502    1.000
    C965     C        0.03660    0.58100    0.97161    1.000
    C966     C        0.04640    0.57950    0.94349    1.000
    H2026    H        0.03130    0.61110    0.93590    1.000
    H2027    H        0.02810    0.54880    0.93640    1.000
    H2028    H        0.08600    0.57760    0.94020    1.000
    C967     C        0.97450    0.58510    0.97661    1.000
    H2029    H        0.96810    0.58810    0.99450    1.000
    H2030    H        0.95590    0.55400    0.97030    1.000
    H2031    H        0.95980    0.61610    0.96820    1.000
    C968     C        0.05950    0.53180    0.98341    1.000
    H2032    H        0.05540    0.53380    0.00150    1.000
    H2033    H        0.09860    0.52830    0.97920    1.000
    H2034    H        0.03930    0.50140    0.97720    1.000
    O195     O        0.27880    0.59110    0.24040    1.000
    N291     N        0.35390    0.54900    0.22790    1.000
    C969     C        0.29970    0.55160    0.23090    1.000
    C970     C        0.26520    0.50280    0.22790    1.000
    H2035    H        0.26350    0.48420    0.24380    1.000
    H2036    H        0.22780    0.51050    0.22210    1.000
    H2037    H        0.28410    0.48110    0.21550    1.000
    C971     C        0.38700    0.59540    0.23250    1.000
    H2038    H        0.36680    0.61650    0.24460    1.000
    H2039    H        0.42320    0.58620    0.23940    1.000
    H2040    H        0.39200    0.61530    0.21710    1.000
    C972     C        0.38490    0.50670    0.21670    1.000
    H2041    H        0.39500    0.51470    0.19940    1.000
    H2042    H        0.41840    0.50290    0.22670    1.000
    H2043    H        0.36380    0.47410    0.21720    1.000
    O196     O        0.29320    0.59770    0.23970    1.000
    N292     N        0.33760    0.52870    0.22470    1.000
    C973     C        0.33780    0.57550    0.23530    1.000
    C974     C        0.38930    0.59340    0.24880    1.000
    H2044    H        0.38980    0.58370    0.26640    1.000
    H2045    H        0.41870    0.57480    0.24000    1.000
    H2046    H        0.39520    0.63110    0.24720    1.000
    C975     C        0.28520    0.50780    0.21600    1.000
    H2047    H        0.25780    0.52990    0.22420    1.000
    H2048    H        0.27970    0.50930    0.19790    1.000
    H2049    H        0.28100    0.47170    0.22170    1.000
    C976     C        0.38060    0.48940    0.22660    1.000
    H2050    H        0.37280    0.46160    0.23860    1.000
    H2051    H        0.38080    0.47480    0.20970    1.000
    H2052    H        0.41660    0.50480    0.23030    1.000
    O197     O        0.97630    0.02520    0.23730    1.000
    N293     N        0.89270    0.06110    0.23598    1.000
    C977     C        0.94300    0.05790    0.24535    1.000
    C978     C        0.96030    0.09620    0.26520    1.000
    H2053    H        0.96370    0.13110    0.25800    1.000
    H2054    H        0.93300    0.09680    0.27860    1.000
    H2055    H        0.99610    0.08530    0.27200    1.000
    C979     C        0.87530    0.02450    0.21680    1.000
    H2056    H        0.86170    0.99250    0.22470    1.000
    H2057    H        0.84570    0.04040    0.20700    1.000
    H2058    H        0.90640    0.01620    0.20590    1.000
    C980     C        0.84800    0.09390    0.24490    1.000
    H2059    H        0.85740    0.10720    0.26150    1.000
    H2060    H        0.84430    0.12310    0.23330    1.000
    H2061    H        0.81310    0.07470    0.24580    1.000
    O198     O        0.96650    0.02180    0.23300    1.000
    N294     N        0.90540    0.08020    0.24700    1.000
    C981     C        0.92000    0.04190    0.23190    1.000
    C982     C        0.88310    0.02960    0.20990    1.000
    H2062    H        0.84710    0.01840    0.21620    1.000
    H2063    H        0.87850    0.06020    0.19920    1.000
    H2064    H        0.89980    0.00120    0.20030    1.000
    C983     C        0.94370    0.09920    0.26580    1.000
    H2065    H        0.94460    0.13740    0.26530    1.000
    H2066    H        0.93200    0.08750    0.28230    1.000
    H2067    H        0.98060    0.08550    0.26220    1.000
    C984     C        0.85850    0.11480    0.24340    1.000
    H2068    H        0.82600    0.09360    0.23970    1.000
    H2069    H        0.85200    0.13490    0.25860    1.000
    H2070    H        0.86540    0.13880    0.22950    1.000
    O199     O        0.88820    0.68960    0.40240    1.000
    N295     N        0.79780    0.70620    0.40213    1.000
    C985     C        0.84790    0.71150    0.39277    1.000
    C986     C        0.85510    0.74070    0.36850    1.000
    H2071    H        0.83610    0.72050    0.35570    1.000
    H2072    H        0.83870    0.77550    0.36960    1.000
    H2073    H        0.89420    0.74390    0.36420    1.000
    C987     C        0.78990    0.67690    0.42510    1.000
    H2074    H        0.77720    0.70110    0.43790    1.000
    H2075    H        0.76280    0.64890    0.42300    1.000
    H2076    H        0.82540    0.66190    0.43000    1.000
    C988     C        0.74890    0.73500    0.39460    1.000
    H2077    H        0.72730    0.71330    0.38320    1.000
    H2078    H        0.72670    0.74330    0.40930    1.000
    H2079    H        0.75950    0.76740    0.38620    1.000
    O200     O        0.88340    0.69130    0.40933    1.000
    N296     N        0.81110    0.71780    0.38681    1.000
    C989     C        0.83300    0.69860    0.40741    1.000
    C990     C        0.79650    0.69130    0.43001    1.000
    H2080    H        0.79280    0.72430    0.43900    1.000
    H2081    H        0.76010    0.67960    0.42450    1.000
    H2082    H        0.81270    0.66500    0.44100    1.000
    C991     C        0.84650    0.73060    0.36581    1.000
    H2083    H        0.88140    0.71170    0.36750    1.000
    H2084    H        0.82880    0.72110    0.35010    1.000
    H2085    H        0.85370    0.76820    0.36600    1.000
    C992     C        0.75520    0.73750    0.38386    1.000
    H2086    H        0.75240    0.77140    0.39220    1.000
    H2087    H        0.74680    0.74150    0.36610    1.000
    H2088    H        0.72900    0.71310    0.39140    1.000
    O201     O        0.94186    0.57050    0.40313    1.000
    N297     N        0.87260    0.52800    0.42166    1.000
    C993     C        0.89310    0.55570    0.40311    1.000
    C994     C        0.85630    0.56820    0.38120    1.000
    H2089    H        0.87810    0.58520    0.36820    1.000
    H2090    H        0.84150    0.53530    0.37480    1.000
    H2091    H        0.82590    0.59100    0.38610    1.000
    C995     C        0.90600    0.51640    0.44346    1.000
    H2092    H        0.88580    0.52610    0.45850    1.000
    H2093    H        0.91460    0.47910    0.44400    1.000
    H2094    H        0.94020    0.53650    0.44250    1.000
    C996     C        0.81840    0.50370    0.42210    1.000
    H2095    H        0.81770    0.47290    0.41140    1.000
    H2096    H        0.80980    0.49350    0.43920    1.000
    H2097    H        0.79090    0.52890    0.41630    1.000
    O202     O        0.94540    0.56620    0.41360    1.000
    N298     N        0.85830    0.53950    0.40880    1.000
    C997     C        0.90550    0.54040    0.42120    1.000
    C998     C        0.91340    0.50290    0.44270    1.000
    H2098    H        0.95180    0.50310    0.44830    1.000
    H2099    H        0.88970    0.51670    0.45590    1.000
    H2100    H        0.90230    0.46710    0.43880    1.000
    C999     C        0.85330    0.56700    0.38530    1.000
    H2101    H        0.88350    0.59230    0.38410    1.000
    H2102    H        0.85440    0.54370    0.37080    1.000
    H2103    H        0.81800    0.58560    0.38550    1.000
    C1000    C        0.80890    0.51080    0.41560    1.000
    H2104    H        0.79460    0.52210    0.43180    1.000
    H2105    H        0.78050    0.51560    0.40290    1.000
    H2106    H        0.81910    0.47390    0.41650    1.000
    O203     O        0.35361    0.82860    0.08340    1.000
    N299     N        0.42348    0.79710    0.06085    1.000
    C1001    C        0.40280    0.81530    0.08189    1.000
    C1002    C        0.44080    0.82380    0.10383    1.000
    H2107    H        0.42020    0.83930    0.11760    1.000
    H2108    H        0.47100    0.84720    0.09900    1.000
    H2109    H        0.45610    0.79020    0.10900    1.000
    C1003    C        0.38760    0.78860    0.03952    1.000
    H2110    H        0.37830    0.75160    0.03810    1.000
    H2111    H        0.40640    0.80010    0.02440    1.000
    H2112    H        0.35380    0.80890    0.04180    1.000
    C1004    C        0.47960    0.77920    0.05671    1.000
    H2113    H        0.49640    0.79940    0.04320    1.000
    H2114    H        0.47910    0.74220    0.05220    1.000
    H2115    H        0.50120    0.78390    0.07200    1.000
    O204     O        0.34670    0.68080    0.58310    1.000
    N300     N        0.43590    0.69600    0.57540    1.000
    C1005    C        0.38350    0.69490    0.56850    1.000
    C1006    C        0.36830    0.71430    0.54280    1.000
    H2116    H        0.37990    0.75080    0.54150    1.000
    H2117    H        0.38720    0.69370    0.53010    1.000
    H2118    H        0.32840    0.71190    0.54040    1.000
    C1007    C        0.45140    0.67900    0.60030    1.000
    H2119    H        0.42120    0.65790    0.60700    1.000
    H2120    H        0.48470    0.65760    0.59910    1.000
    H2121    H        0.45840    0.70860    0.61140    1.000
    C1008    C        0.48030    0.72280    0.56250    1.000
    H2122    H        0.46640    0.73820    0.54700    1.000
    H2123    H        0.49490    0.75040    0.57330    1.000
    H2124    H        0.50980    0.69790    0.55860    1.000
    O205     O        0.30650    0.96280    0.06758    1.000
    N301     N        0.38480    0.00410    0.07756    1.000
    C1009    C        0.33920    0.99930    0.06427    1.000
    C1010    C        0.32990    0.03670    0.04288    1.000
    H2125    H        0.30210    0.02240    0.03160    1.000
    H2126    H        0.36470    0.04130    0.03390    1.000
    H2127    H        0.31730    0.07040    0.04920    1.000
    C1011    C        0.39460    0.96990    0.09869    1.000
    H2128    H        0.36360    0.94570    0.10040    1.000
    H2129    H        0.39810    0.99070    0.11390    1.000
    H2130    H        0.42860    0.95010    0.09600    1.000
    C1012    C        0.42460    0.04630    0.07560    1.000
    H2131    H        0.42360    0.05830    0.05830    1.000
    H2132    H        0.46090    0.03120    0.07910    1.000
    H2133    H        0.41790    0.07570    0.08680    1.000
    O206     O        0.30370    0.53370    0.57440    1.000
    N302     N        0.36850    0.47400    0.56670    1.000
    C1013    C        0.35060    0.51620    0.57840    1.000
    C1014    C        0.39060    0.54700    0.59420    1.000
    H2134    H        0.38970    0.53370    0.61130    1.000
    H2135    H        0.42790    0.54320    0.58750    1.000
    H2136    H        0.38020    0.58390    0.59420    1.000
    C1015    C        0.33080    0.44380    0.55140    1.000
    H2137    H        0.30170    0.46700    0.54540    1.000
    H2138    H        0.35090    0.42920    0.53720    1.000
    H2139    H        0.31440    0.41540    0.56110    1.000
    C1016    C        0.42160    0.44880    0.57040    1.000
    H2140    H        0.41150    0.41750    0.57980    1.000
    H2141    H        0.44130    0.43860    0.55520    1.000
    H2142    H        0.44550    0.47100    0.58060    1.000
    O207     O        0.94070    0.55840    0.07570    1.000
    N303     N        0.87460    0.50740    0.09178    1.000
    C1017    C        0.89280    0.54150    0.07523    1.000
    C1018    C        0.85380    0.55980    0.05507    1.000
    H2143    H        0.87360    0.58180    0.04320    1.000
    H2144    H        0.82340    0.57970    0.06250    1.000
    H2145    H        0.83890    0.52930    0.04640    1.000
    C1019    C        0.91160    0.48550    0.11030    1.000
    H2146    H        0.94650    0.50480    0.10980    1.000
    H2147    H        0.91860    0.44850    0.10710    1.000
    H2148    H        0.89480    0.48940    0.12680    1.000
    C1020    C        0.82060    0.48250    0.09128    1.000
    H2149    H        0.79390    0.50580    0.08330    1.000
    H2150    H        0.80870    0.47500    0.10830    1.000
    H2151    H        0.82290    0.44990    0.08180    1.000
    O208     O        0.94450    0.95150    0.57900    1.000
    N304     N        0.85640    0.97690    0.58081    1.000
    C1021    C        0.90790    0.97810    0.58900    1.000
    C1022    C        0.92270    0.01500    0.60990    1.000
    H2152    H        0.96240    0.02200    0.61000    1.000
    H2153    H        0.90250    0.04770    0.60730    1.000
    H2154    H        0.91190    0.99980    0.62590    1.000
    C1023    C        0.84170    0.94380    0.55990    1.000
    H2155    H        0.87410    0.93990    0.54910    1.000
    H2156    H        0.83030    0.90940    0.56600    1.000
    H2157    H        0.81150    0.95940    0.55040    1.000
    C1024    C        0.80930    0.00300    0.59200    1.000
    H2158    H        0.81970    0.01740    0.60820    1.000
    H2159    H        0.79750    0.03130    0.58090    1.000
    H2160    H        0.77900    0.97820    0.59410    1.000
