data_functionalizedCrystal
_audit_creation_method	'EQeq! by Chris Wilmer'
_symmetry_space_group_name_H-M	'P1'
_symmetry_Int_Tables_number	1
_symmetry_cell_setting	triclinic
loop_
_symmetry_equiv_pos_as_xyz
  x,y,z
_cell_length_a	9.9523
_cell_length_b	9.9523
_cell_length_c	36.798
_cell_angle_alpha	90
_cell_angle_beta	90
_cell_angle_gamma	90
loop_
_atom_site_label
_atom_site_type_symbol
_atom_site_fract_x
_atom_site_fract_y
_atom_site_fract_z
_atom_site_charge
Mof_C 	C 	0.0667	0.3785	0.0186	-0.009
Mof_C 	C 	0.0863	0.2641	0.0389	-0.06
Mof_H 	H 	0.0768	0.2619	0.0641	0.036
Mof_C 	C 	0.12	0.156	0.0191	-0.042
Mof_H 	H 	0.1452	0.0773	0.0311	0.014
Mof_C 	C 	0.9333	0.6215	0.0186	0.066
Mof_C 	C 	0.9137	0.7359	0.0389	-0.057
Mof_H 	H 	0.9232	0.7381	0.0641	0.082
Mof_C 	C 	0.88	0.844	0.0191	-0.013
Mof_H 	H 	0.8548	0.9227	0.0311	0.062
Mof_C 	C 	0.6215	0.0667	0.5186	-0.006
Mof_C 	C 	0.7359	0.0863	0.5389	-0.053
Mof_H 	H 	0.7381	0.0768	0.5641	0.046
Mof_C 	C 	0.844	0.12	0.5191	-0.036
Mof_H 	H 	0.9227	0.1452	0.5311	0.06
Mof_C 	C 	0.3785	0.9333	0.5186	0.067
Mof_C 	C 	0.2641	0.9137	0.5389	-0.06
Mof_H 	H 	0.2619	0.9232	0.5641	0.076
Mof_C 	C 	0.156	0.88	0.5191	-0.015
Mof_H 	H 	0.0773	0.8548	0.5311	0.022
Mof_C 	C 	0.9333	0.3785	0.9814	0.067
Mof_C 	C 	0.9137	0.2641	0.9611	-0.06
Mof_H 	H 	0.9232	0.2619	0.9359	0.076
Mof_C 	C 	0.88	0.156	0.9809	-0.015
Mof_H 	H 	0.8548	0.0773	0.9689	0.022
Mof_C 	C 	0.0667	0.6215	0.9814	-0.006
Mof_C 	C 	0.0863	0.7359	0.9611	-0.053
Mof_H 	H 	0.0768	0.7381	0.9359	0.046
Mof_C 	C 	0.12	0.844	0.9809	-0.036
Mof_H 	H 	0.1452	0.9227	0.9689	0.06
Mof_C 	C 	0.3785	0.0667	0.4814	-0.008
Mof_C 	C 	0.2641	0.0863	0.4611	-0.059
Mof_H 	H 	0.2619	0.0768	0.4359	0.037
Mof_C 	C 	0.156	0.12	0.4809	-0.041
Mof_H 	H 	0.0773	0.1452	0.4689	0.014
Mof_C 	C 	0.6215	0.9333	0.4814	0.066
Mof_C 	C 	0.7359	0.9137	0.4611	-0.057
Mof_H 	H 	0.7381	0.9232	0.4359	0.082
Mof_C 	C 	0.844	0.88	0.4809	-0.013
Mof_H 	H 	0.9227	0.8548	0.4689	0.062
Mof_C 	C 	0.9333	0.6215	0.9814	0.066
Mof_C 	C 	0.9137	0.7359	0.9611	-0.057
Mof_H 	H 	0.9232	0.7381	0.9359	0.082
Mof_C 	C 	0.88	0.844	0.9809	-0.013
Mof_H 	H 	0.8548	0.9227	0.9689	0.062
Mof_C 	C 	0.0667	0.3785	0.9814	-0.008
Mof_C 	C 	0.0863	0.2641	0.9611	-0.059
Mof_H 	H 	0.0768	0.2619	0.9359	0.037
Mof_C 	C 	0.12	0.156	0.9809	-0.041
Mof_H 	H 	0.1452	0.0773	0.9689	0.014
Mof_C 	C 	0.3785	0.9333	0.4814	0.067
Mof_C 	C 	0.2641	0.9137	0.4611	-0.06
Mof_H 	H 	0.2619	0.9232	0.4359	0.076
Mof_C 	C 	0.156	0.88	0.4809	-0.015
Mof_H 	H 	0.0773	0.8548	0.4689	0.022
Mof_C 	C 	0.6215	0.0667	0.4814	-0.006
Mof_C 	C 	0.7359	0.0863	0.4611	-0.053
Mof_H 	H 	0.7381	0.0768	0.4359	0.046
Mof_C 	C 	0.844	0.12	0.4809	-0.036
Mof_H 	H 	0.9227	0.1452	0.4689	0.06
Mof_C 	C 	0.0667	0.6215	0.0186	-0.006
Mof_C 	C 	0.0863	0.7359	0.0389	-0.053
Mof_H 	H 	0.0768	0.7381	0.0641	0.046
Mof_C 	C 	0.12	0.844	0.0191	-0.036
Mof_H 	H 	0.1452	0.9227	0.0311	0.06
Mof_C 	C 	0.9333	0.3785	0.0186	0.067
Mof_C 	C 	0.9137	0.2641	0.0389	-0.06
Mof_H 	H 	0.9232	0.2619	0.0641	0.076
Mof_C 	C 	0.88	0.156	0.0191	-0.015
Mof_H 	H 	0.8548	0.0773	0.0311	0.022
Mof_C 	C 	0.6215	0.9333	0.5186	0.066
Mof_C 	C 	0.7359	0.9137	0.5389	-0.057
Mof_H 	H 	0.7381	0.9232	0.5641	0.082
Mof_C 	C 	0.844	0.88	0.5191	-0.013
Mof_H 	H 	0.9227	0.8548	0.5311	0.062
Mof_C 	C 	0.3785	0.0667	0.5186	-0.008
Mof_C 	C 	0.2641	0.0863	0.5389	-0.059
Mof_H 	H 	0.2619	0.0768	0.5641	0.037
Mof_C 	C 	0.156	0.12	0.5191	-0.041
Mof_H 	H 	0.0773	0.1452	0.5311	0.014
Mof_In	In	-3.46016e-33	0	0.25	2.298
Mof_In	In	1.03974e-32	0	0.75	2.298
Mof_O 	O 	-4.0804e-33	0.1431	0.20526	-0.557
Mof_O 	O 	3.56048e-33	0.2444	0.25683	-0.455
Mof_C 	C 	3.10646e-33	0.2457	0.22408	0.355
Mof_C 	C 	-1.10159e-32	0.3817	0.20457	-0.043
Mof_C 	C 	2.31875e-33	0.3826	0.16726	-0.066
Mof_H 	H 	9.06919e-33	0.3017	0.1546	0.066
Mof_O 	O 	1.66975e-32	0.8569	0.20526	-0.506
Mof_O 	O 	3.56048e-33	0.7556	0.25683	-0.425
Mof_C 	C 	-1.07454e-32	0.7543	0.22408	0.345
Mof_C 	C 	-1.10159e-32	0.6183	0.20457	-0.031
Mof_C 	C 	2.30966e-32	0.6174	0.16726	-0.069
Mof_H 	H 	-4.7827e-33	0.6983	0.1546	0.08
Mof_O 	O 	0.8569	2.77038e-32	0.70526	-0.506
Mof_O 	O 	0.7556	0	0.75683	-0.425
Mof_C 	C 	0.7543	0	0.72408	0.345
Mof_C 	C 	0.6183	0	0.70457	-0.031
Mof_C 	C 	0.6174	0	0.66726	-0.069
Mof_H 	H 	0.6983	0	0.6546	0.08
Mof_O 	O 	0.1431	2.77038e-32	0.70526	-0.557
Mof_O 	O 	0.2444	0	0.75683	-0.455
Mof_C 	C 	0.2457	0	0.72408	0.355
Mof_C 	C 	0.3817	0	0.70457	-0.043
Mof_C 	C 	0.3826	0	0.66726	-0.066
Mof_H 	H 	0.3017	0	0.6546	0.066
Mof_O 	O 	-1.66862e-32	0.1431	0.79474	-0.557
Mof_O 	O 	3.80065e-32	0.2444	0.74317	-0.455
Mof_C 	C 	1.07567e-32	0.2457	0.77592	0.355
Mof_C 	C 	-1.66766e-32	0.3817	0.79543	-0.043
Mof_C 	C 	1.15444e-32	0.3826	0.83274	-0.066
Mof_H 	H 	1.17199e-32	0.3017	0.8454	0.066
Mof_O 	O 	1.10176e-32	0.8569	0.79474	-0.506
Mof_O 	O 	3.80065e-32	0.7556	0.74317	-0.425
Mof_C 	C 	3.84605e-32	0.7543	0.77592	0.345
Mof_C 	C 	1.10272e-32	0.6183	0.79543	-0.031
Mof_C 	C 	3.92482e-32	0.6174	0.83274	-0.069
Mof_H 	H 	3.94237e-32	0.6983	0.8454	0.08
Mof_O 	O 	0.1431	-1.38519e-32	0.29474	-0.557
Mof_O 	O 	0.2444	6.92595e-33	0.24317	-0.455
Mof_C 	C 	0.2457	0	0.27592	0.355
Mof_C 	C 	0.3817	1.38519e-32	0.29543	-0.043
Mof_C 	C 	0.3826	1.38519e-32	0.33274	-0.066
Mof_H 	H 	0.3017	1.38519e-32	0.3454	0.066
Mof_O 	O 	0.8569	-1.38519e-32	0.29474	-0.506
Mof_O 	O 	0.7556	6.92595e-33	0.24317	-0.425
Mof_C 	C 	0.7543	0	0.27592	0.345
Mof_C 	C 	0.6183	1.38519e-32	0.29543	-0.031
Mof_C 	C 	0.6174	1.38519e-32	0.33274	-0.069
Mof_H 	H 	0.6983	1.38519e-32	0.3454	0.08
Mof_C 	C 	3.09842e-33	0.5	0.2235	-0.019
Mof_H 	H 	-3.47679e-33	0.5	0.2488	0.068
Mof_C 	C 	-4.86311e-33	0.5	0.1488	0.05
Mof_C 	C 	4.95604e-33	0.5	0.1077	-0.055
Mof_C 	C 	1.06192e-33	0.5	0.0766	0.012
Mof_C 	C 	-4.67043e-33	0.5	0.0378	-0.082
Mof_C 	C 	0.5	2.77038e-32	0.7235	-0.019
Mof_H 	H 	0.5	0	0.7488	0.068
Mof_C 	C 	0.5	0	0.6488	0.05
Mof_C 	C 	0.5	2.77038e-32	0.6077	-0.055
Mof_C 	C 	0.5	0	0.5766	0.012
Mof_C 	C 	0.5	0	0.5378	-0.082
Mof_C 	C 	-1.6939e-32	0.5	0.7765	-0.019
Mof_H 	H 	3.81178e-32	0.5	0.7512	0.068
Mof_C 	C 	1.18003e-32	0.5	0.8512	0.05
Mof_C 	C 	-1.53337e-32	0.5	0.8923	-0.055
Mof_C 	C 	1.28012e-32	0.5	0.9234	0.012
Mof_C 	C 	1.33391e-32	0.5	0.9622	-0.082
Mof_C 	C 	0.5	1.38519e-32	0.2765	-0.019
Mof_H 	H 	0.5	6.92595e-33	0.2512	0.068
Mof_C 	C 	0.5	1.38519e-32	0.3512	0.05
Mof_C 	C 	0.5	1.38519e-32	0.3923	-0.055
Mof_C 	C 	0.5	0	0.4234	0.012
Mof_C 	C 	0.5	1.38519e-32	0.4622	-0.082
_end
