data_functionalizedCrystal
_audit_creation_method	'EQeq! by Chris Wilmer'
_symmetry_space_group_name_H-M	'P1'
_symmetry_Int_Tables_number	1
_symmetry_cell_setting	triclinic
loop_
_symmetry_equiv_pos_as_xyz
  x,y,z
_cell_length_a	7.474
_cell_length_b	11.6823
_cell_length_c	28.155
_cell_angle_alpha	88.017
_cell_angle_beta	83.79
_cell_angle_gamma	71.344
loop_
_atom_site_label
_atom_site_type_symbol
_atom_site_fract_x
_atom_site_fract_y
_atom_site_fract_z
_atom_site_charge
Mof_Co	Co	0.11902	0.76196	0.25	1.16
Mof_Co	Co	0.88098	0.23804	0.75	1.16
Mof_Cu	Cu	0.41121	0.13316	0.03193	0.916
Mof_Cu	Cu	0.45563	0.13316	0.46807	0.916
Mof_Cu	Cu	0.58879	0.86684	0.96807	0.916
Mof_Cu	Cu	0.54437	0.86684	0.53193	0.916
Mof_H 	H 	0.441	0.95	0.119	0.048
Mof_H 	H 	0.668	0.928	0.18	0.112
Mof_H 	H 	0.895	0.042	0.154	0.034
Mof_H 	H 	0.786	0.172	0.038	0.107
Mof_H 	H 	0.922	0.17	0.077	0.123
Mof_H 	H 	0.783	0.446	0.053	0.095
Mof_H 	H 	0.501	0.684	0.02	0.073
Mof_H 	H 	0.665	0.586	0.991	0.083
Mof_H 	H 	0.058	0.442	0.921	0.053
Mof_H 	H 	0.077	0.106	0.97	0.059
Mof_H 	H 	0.567	0.292	0.152	0.098
Mof_H 	H 	0.435	0.448	0.21	0.086
Mof_H 	H 	0.417	0.582	0.198	0.073
Mof_H 	H 	0.157	0.384	0.16	0.063
Mof_H 	H 	0.797	0.492	0.176	0.058
Mof_H 	H 	0.7669	0.688	0.209	0.027
Mof_H 	H 	0.609	0.95	0.381	0.049
Mof_H 	H 	0.404	0.928	0.32	0.113
Mof_H 	H 	0.063	0.042	0.346	0.032
Mof_H 	H 	0.042	0.172	0.462	0.108
Mof_H 	H 	0.908	0.17	0.423	0.124
Mof_H 	H 	0.771	0.446	0.447	0.094
Mof_H 	H 	0.815	0.684	0.48	0.072
Mof_H 	H 	0.749	0.586	0.509	0.083
Mof_H 	H 	0.5	0.442	0.579	0.052
Mof_H 	H 	0.817	0.106	0.53	0.057
Mof_H 	H 	0.141	0.292	0.348	0.097
Mof_H 	H 	0.117	0.448	0.29	0.084
Mof_H 	H 	0.001	0.582	0.302	0.069
Mof_H 	H 	0.459	0.384	0.34	0.062
Mof_H 	H 	0.711	0.492	0.324	0.06
Mof_H 	H 	0.5451	0.688	0.291	0.028
Mof_H 	H 	0.559	0.05	0.881	0.048
Mof_H 	H 	0.332	0.072	0.82	0.112
Mof_H 	H 	0.105	0.958	0.846	0.034
Mof_H 	H 	0.214	0.828	0.962	0.107
Mof_H 	H 	0.078	0.83	0.923	0.123
Mof_H 	H 	0.217	0.554	0.947	0.095
Mof_H 	H 	0.499	0.316	0.98	0.073
Mof_H 	H 	0.335	0.414	0.009	0.083
Mof_H 	H 	0.942	0.558	0.079	0.053
Mof_H 	H 	0.923	0.894	0.03	0.059
Mof_H 	H 	0.433	0.708	0.848	0.098
Mof_H 	H 	0.565	0.552	0.79	0.086
Mof_H 	H 	0.583	0.418	0.802	0.073
Mof_H 	H 	0.843	0.616	0.84	0.063
Mof_H 	H 	0.203	0.508	0.824	0.058
Mof_H 	H 	0.2331	0.312	0.791	0.027
Mof_H 	H 	0.391	0.05	0.619	0.049
Mof_H 	H 	0.596	0.072	0.68	0.113
Mof_H 	H 	0.937	0.958	0.654	0.032
Mof_H 	H 	0.958	0.828	0.538	0.108
Mof_H 	H 	0.092	0.83	0.577	0.124
Mof_H 	H 	0.229	0.554	0.553	0.094
Mof_H 	H 	0.185	0.316	0.52	0.072
Mof_H 	H 	0.251	0.414	0.491	0.083
Mof_H 	H 	0.5	0.558	0.421	0.052
Mof_H 	H 	0.183	0.894	0.47	0.057
Mof_H 	H 	0.859	0.708	0.652	0.097
Mof_H 	H 	0.883	0.552	0.71	0.084
Mof_H 	H 	0.999	0.418	0.698	0.069
Mof_H 	H 	0.541	0.616	0.66	0.062
Mof_H 	H 	0.289	0.508	0.676	0.06
Mof_H 	H 	0.4549	0.312	0.709	0.028
Mof_C 	C 	0.537	0.9914	0.1191	0.092
Mof_C 	C 	0.6657	0.9722	0.1532	-0.13
Mof_C 	C 	0.7755	0.041	0.1403	0.066
Mof_C 	C 	0.7858	0.1866	0.0725	-0.188
Mof_C 	C 	0.6811	0.3176	0.084	0.148
Mof_C 	C 	0.6932	0.402	0.0501	-0.149
Mof_C 	C 	0.6016	0.529	0.0603	0.06
Mof_C 	C 	0.6294	0.621	0.0233	-0.125
Mof_C 	C 	0.0964	0.36	0.9356	0.008
Mof_C 	C 	0.0095	0.2724	0.9342	0.016
Mof_C 	C 	0.1095	0.183	0.9626	0.023
Mof_C 	C 	0.5017	0.564	0.1042	-0.042
Mof_C 	C 	0.4889	0.4748	0.1388	0.106
Mof_C 	C 	0.5773	0.3556	0.1277	-0.16
Mof_C 	C 	0.388	0.513	0.1875	-0.162
Mof_C 	C 	0.0928	0.4698	0.1751	0.032
Mof_C 	C 	0.9029	0.5272	0.1835	-0.069
Mof_C 	C 	0.8905	0.6338	0.2041	0.045
Mof_C 	C 	0.4716	0.9914	0.3809	0.092
Mof_C 	C 	0.3621	0.9722	0.3468	-0.136
Mof_C 	C 	0.1835	0.041	0.3597	0.07
Mof_C 	C 	0.0276	0.1866	0.4275	-0.189
Mof_C 	C 	0.0013	0.3176	0.416	0.144
Mof_C 	C 	0.9048	0.402	0.4499	-0.145
Mof_C 	C 	0.8694	0.529	0.4397	0.058
Mof_C 	C 	0.7496	0.621	0.4767	-0.124
Mof_C 	C 	0.5436	0.36	0.5644	0.009
Mof_C 	C 	0.7181	0.2724	0.5658	0.013
Mof_C 	C 	0.7075	0.183	0.5374	0.024
Mof_C 	C 	0.9343	0.564	0.3958	-0.035
Mof_C 	C 	0.0363	0.4748	0.3612	0.099
Mof_C 	C 	0.0671	0.3556	0.3723	-0.157
Mof_C 	C 	0.099	0.513	0.3125	-0.157
Mof_C 	C 	0.4374	0.4698	0.3249	0.038
Mof_C 	C 	0.5699	0.5272	0.3165	-0.074
Mof_C 	C 	0.4757	0.6338	0.2959	0.041
Mof_C 	C 	0.463	0.0086	0.8809	0.092
Mof_C 	C 	0.3343	0.0278	0.8468	-0.13
Mof_C 	C 	0.2245	0.959	0.8597	0.066
Mof_C 	C 	0.2142	0.8134	0.9275	-0.188
Mof_C 	C 	0.3189	0.6824	0.916	0.148
Mof_C 	C 	0.3068	0.598	0.9499	-0.149
Mof_C 	C 	0.3984	0.471	0.9397	0.06
Mof_C 	C 	0.3706	0.379	0.9767	-0.125
Mof_C 	C 	0.9036	0.64	0.0644	0.008
Mof_C 	C 	0.9905	0.7276	0.0658	0.016
Mof_C 	C 	0.8905	0.817	0.0374	0.023
Mof_C 	C 	0.4983	0.436	0.8958	-0.042
Mof_C 	C 	0.5111	0.5252	0.8612	0.106
Mof_C 	C 	0.4227	0.6444	0.8723	-0.16
Mof_C 	C 	0.612	0.487	0.8125	-0.162
Mof_C 	C 	0.9072	0.5302	0.8249	0.032
Mof_C 	C 	0.0971	0.4728	0.8165	-0.069
Mof_C 	C 	0.1095	0.3662	0.7959	0.045
Mof_C 	C 	0.5284	0.0086	0.6191	0.092
Mof_C 	C 	0.6379	0.0278	0.6532	-0.136
Mof_C 	C 	0.8165	0.959	0.6403	0.07
Mof_C 	C 	0.9724	0.8134	0.5725	-0.189
Mof_C 	C 	0.9987	0.6824	0.584	0.144
Mof_C 	C 	0.0952	0.598	0.5501	-0.145
Mof_C 	C 	0.1306	0.471	0.5603	0.058
Mof_C 	C 	0.2504	0.379	0.5233	-0.124
Mof_C 	C 	0.4564	0.64	0.4356	0.009
Mof_C 	C 	0.2819	0.7276	0.4342	0.013
Mof_C 	C 	0.2925	0.817	0.4626	0.024
Mof_C 	C 	0.0657	0.436	0.6042	-0.035
Mof_C 	C 	0.9637	0.5252	0.6388	0.099
Mof_C 	C 	0.9329	0.6444	0.6277	-0.157
Mof_C 	C 	0.901	0.487	0.6875	-0.157
Mof_C 	C 	0.5626	0.5302	0.6751	0.038
Mof_C 	C 	0.4301	0.4728	0.6835	-0.074
Mof_C 	C 	0.5243	0.3662	0.7041	0.041
Mof_N 	N 	0.5679	0.0674	0.0857	-0.174
Mof_N 	N 	0.7175	0.0968	0.0996	-0.064
Mof_N 	N 	0.2359	0.3212	0.9632	-0.063
Mof_N 	N 	0.2485	0.209	0.9802	-0.16
Mof_N 	N 	0.18	0.5418	0.1884	-0.07
Mof_N 	N 	0.0597	0.6466	0.2089	-0.218
Mof_N 	N 	0.3647	0.0674	0.4143	-0.174
Mof_N 	N 	0.1857	0.0968	0.4004	-0.064
Mof_N 	N 	0.4429	0.3212	0.5368	-0.063
Mof_N 	N 	0.5425	0.209	0.5198	-0.161
Mof_N 	N 	0.2782	0.5418	0.3116	-0.071
Mof_N 	N 	0.2937	0.6466	0.2911	-0.215
Mof_N 	N 	0.4321	0.9326	0.9143	-0.174
Mof_N 	N 	0.2825	0.9032	0.9004	-0.064
Mof_N 	N 	0.7641	0.6788	0.0368	-0.063
Mof_N 	N 	0.7515	0.791	0.0198	-0.16
Mof_N 	N 	0.82	0.4582	0.8116	-0.07
Mof_N 	N 	0.9403	0.3534	0.7911	-0.218
Mof_N 	N 	0.6353	0.9326	0.5857	-0.174
Mof_N 	N 	0.8143	0.9032	0.5996	-0.064
Mof_N 	N 	0.5571	0.6788	0.4632	-0.063
Mof_N 	N 	0.4575	0.791	0.4802	-0.161
Mof_N 	N 	0.7218	0.4582	0.6884	-0.071
Mof_N 	N 	0.7063	0.3534	0.7089	-0.215
Mof_Cl	Cl	0.30153	0.85554	0.2095	-0.521
Mof_Cl	Cl	0.19758	0.26624	0.08367	-0.461
Mof_Cl	Cl	0.67717	0.06366	0.97294	-0.529
Mof_Cl	Cl	0.84293	0.85554	0.2905	-0.515
Mof_Cl	Cl	0.53618	0.26624	0.41633	-0.459
Mof_Cl	Cl	0.25917	0.06366	0.52706	-0.528
Mof_Cl	Cl	0.69847	0.14446	0.7905	-0.521
Mof_Cl	Cl	0.80242	0.73376	0.91633	-0.461
Mof_Cl	Cl	0.32283	0.93634	0.02706	-0.529
Mof_Cl	Cl	0.15707	0.14446	0.7095	-0.515
Mof_Cl	Cl	0.46382	0.73376	0.58367	-0.459
Mof_Cl	Cl	0.74083	0.93634	0.47294	-0.528
_end
