data_functionalizedCrystal
_audit_creation_method	'EQeq! by Chris Wilmer'
_symmetry_space_group_name_H-M	'P1'
_symmetry_Int_Tables_number	1
_symmetry_cell_setting	triclinic
loop_
_symmetry_equiv_pos_as_xyz
  x,y,z
_cell_length_a	17.9693
_cell_length_b	17.9693
_cell_length_c	30.1894
_cell_angle_alpha	90
_cell_angle_beta	90
_cell_angle_gamma	90
loop_
_atom_site_label
_atom_site_type_symbol
_atom_site_fract_x
_atom_site_fract_y
_atom_site_fract_z
_atom_site_charge
Mof_Cd	Cd	0.68097	0.1682	0.31251	0.341
Mof_Cd	Cd	0.85047	0.67294	0.31837	0.373
Mof_O 	O 	0.83496	0.80356	0.31397	-0.272
Mof_N 	N 	0.9786	0.505	0.07809	-0.117
Mof_N 	N 	0.7989	0.6588	0.17527	-0.116
Mof_O 	O 	0.7549	0.0647	0.31576	-0.281
Mof_O 	O 	0.9546	0.7762	0.31826	-0.269
Mof_N 	N 	0.09047	0.5528	0.07277	-0.149
Mof_C 	C 	0.8818	0.0323	0.31143	-0.027
Mof_N 	N 	0.8401	0.67442	0.24354	-0.147
Mof_C 	C 	0.9949	0.9267	0.31371	-0.087
Mof_H 	H 	0.0332	0.8919	0.3138	0.087
Mof_O 	O 	0.8354	0.1555	0.30534	-0.273
Mof_C 	C 	0.0104	0.0019	0.31353	0.102
Mof_C 	C 	0.9209	0.9039	0.31379	-0.022
Mof_N 	N 	0.8395	0.6828	0.39292	-0.15
Mof_N 	N 	0.5268	0.9814	0.29917	-0.12
Mof_N 	N 	0.5856	0.08747	0.30388	-0.15
Mof_C 	C 	0.8653	0.9569	0.31229	-0.032
Mof_H 	H 	0.8158	0.9417	0.3118	0.066
Mof_C 	C 	0.754	0.6311	0.13746	-0.058
Mof_H 	H 	0.7523	0.6691	0.1146	0.06
Mof_H 	H 	0.7035	0.622	0.1474	0.054
Mof_C 	C 	0.8199	0.0897	0.31073	0.294
Mof_C 	C 	0.5897	0.015	0.31067	0.092
Mof_H 	H 	0.6312	0.9907	0.322	0.014
Mof_C 	C 	0.4802	0.0344	0.28419	-0.002
Mof_H 	H 	0.4321	0.0274	0.2737	0.04
Mof_C 	C 	0.8661	0.5682	0.10432	-0.106
Mof_H 	H 	0.8704	0.6107	0.0847	0.062
Mof_H 	H 	0.8956	0.5785	0.1305	0.073
Mof_C 	C 	0.9552	0.0552	0.31148	-0.087
Mof_H 	H 	0.9672	0.1055	0.3102	0.088
Mof_C 	C 	0.0189	0.5669	0.07337	0.091
Mof_H 	H 	0.9986	0.6143	0.0708	-0.007
Mof_N 	N 	0.8096	0.6517	0.46039	-0.116
Mof_C 	C 	0.9032	0.8213	0.31547	0.287
Mof_C 	C 	0.6259	0.7443	0.24627	-0.054
Mof_H 	H 	0.6134	0.6936	0.2382	0.046
Mof_H 	H 	0.6627	0.7422	0.2697	0.051
Mof_O 	O 	0.1373	0.9806	0.3155	-0.137
Mof_O 	O 	0.1013	0.0922	0.3152	-0.135
Mof_C 	C 	0.897	0.5012	0.08161	-0.05
Mof_H 	H 	0.8832	0.4569	0.098	0.054
Mof_H 	H 	0.8757	0.4973	0.0522	0.051
Mof_C 	C 	0.5164	0.0987	0.28738	0.007
Mof_H 	H 	0.497	0.1448	0.2794	0.022
Mof_C 	C 	0.7857	0.5597	0.11783	-0.094
Mof_H 	H 	0.7817	0.52	0.1395	0.056
Mof_H 	H 	0.7565	0.5456	0.0922	0.064
Mof_C 	C 	0.8819	0.7166	0.21484	0.01
Mof_H 	H 	0.9216	0.7468	0.223	0.051
Mof_C 	C 	0.8702	0.7322	0.4212	0.017
Mof_H 	H 	0.8994	0.7726	0.413	0.031
Mof_C 	C 	0.8569	0.7079	0.17338	-0.001
Mof_H 	H 	0.8755	0.7309	0.1481	0.039
Mof_C 	C 	0.0962	0.4783	0.07726	0.014
Mof_H 	H 	0.1408	0.452	0.0783	0.032
Mof_N 	N 	0.0885	0.0265	0.31475	-0.007
Mof_C 	C 	0.8523	0.7142	0.46335	-0.019
Mof_H 	H 	0.8661	0.7392	0.489	0.035
Mof_C 	C 	0.5711	0.8625	0.2722	-0.114
Mof_H 	H 	0.619	0.8677	0.2868	0.072
Mof_H 	H 	0.5746	0.8878	0.2439	0.075
Mof_C 	C 	0.7908	0.6407	0.21832	0.088
Mof_H 	H 	0.7547	0.6082	0.2289	-0.005
Mof_C 	C 	0.5157	0.9002	0.2988	-0.043
Mof_H 	H 	0.518	0.8816	0.3289	0.052
Mof_H 	H 	0.4666	0.8892	0.2872	0.053
Mof_C 	C 	0.5581	0.7816	0.26347	-0.09
Mof_H 	H 	0.5427	0.7575	0.2907	0.054
Mof_H 	H 	0.5181	0.7763	0.2421	0.056
Mof_C 	C 	0.0282	0.4479	0.07995	-0.009
Mof_H 	H 	0.0171	0.3976	0.0826	0.037
Mof_C 	C 	0.8026	0.6366	0.4172	0.089
Mof_H 	H 	0.7745	0.5974	0.406	0.006
Mof_N 	N 	0.6592	0.7822	0.20712	-0.115
Mof_N 	N 	0.67692	0.81685	0.13842	-0.146
Mof_C 	C 	0.7215	0.8254	0.20673	-0.002
Mof_H 	H 	0.7511	0.8379	0.2309	0.051
Mof_C 	C 	0.6334	0.7787	0.1655	0.087
Mof_H 	H 	0.5909	0.753	0.1569	0.011
Mof_C 	C 	0.7317	0.8465	0.16436	0.005
Mof_H 	H 	0.7701	0.8767	0.1543	0.036
Mof_C 	C 	0.7122	0.667	0.51691	-0.104
Mof_H 	H 	0.6863	0.6426	0.5406	0.075
Mof_H 	H 	0.7381	0.7097	0.5281	0.074
Mof_C 	C 	0.7674	0.6153	0.496	-0.055
Mof_H 	H 	0.8018	0.5977	0.5184	0.054
Mof_H 	H 	0.7414	0.5725	0.484	0.069
Mof_Cd	Cd	0.31903	0.8318	0.81251	0.342
Mof_Cd	Cd	0.14953	0.32706	0.81837	0.374
Mof_O 	O 	0.16504	0.19644	0.81397	-0.271
Mof_N 	N 	0.0214	0.495	0.57809	-0.117
Mof_N 	N 	0.2011	0.3412	0.67527	-0.115
Mof_O 	O 	0.2451	0.9353	0.81576	-0.28
Mof_O 	O 	0.0454	0.2238	0.81826	-0.268
Mof_N 	N 	0.90953	0.4472	0.57277	-0.148
Mof_C 	C 	0.1182	0.9677	0.81143	-0.026
Mof_N 	N 	0.1599	0.32558	0.74354	-0.146
Mof_C 	C 	0.0051	0.0733	0.81371	-0.086
Mof_H 	H 	0.9668	0.1081	0.8138	0.088
Mof_O 	O 	0.1646	0.8445	0.80534	-0.272
Mof_C 	C 	0.9896	0.9981	0.81353	0.103
Mof_C 	C 	0.0791	0.0961	0.81379	-0.021
Mof_N 	N 	0.1605	0.3172	0.89292	-0.149
Mof_N 	N 	0.4732	0.0186	0.79917	-0.119
Mof_N 	N 	0.4144	0.91253	0.80388	-0.149
Mof_C 	C 	0.1347	0.0431	0.81229	-0.031
Mof_H 	H 	0.1842	0.0583	0.8118	0.067
Mof_C 	C 	0.246	0.3689	0.63746	-0.058
Mof_H 	H 	0.2477	0.3309	0.6146	0.061
Mof_H 	H 	0.2965	0.378	0.6474	0.055
Mof_C 	C 	0.1801	0.9103	0.81073	0.295
Mof_C 	C 	0.4103	0.985	0.81067	0.093
Mof_H 	H 	0.3688	0.0093	0.822	0.014
Mof_C 	C 	0.5198	0.9656	0.78419	-0.001
Mof_H 	H 	0.5679	0.9726	0.7737	0.04
Mof_C 	C 	0.1339	0.4318	0.60432	-0.106
Mof_H 	H 	0.1296	0.3893	0.5847	0.062
Mof_H 	H 	0.1044	0.4215	0.6305	0.073
Mof_C 	C 	0.0448	0.9448	0.81148	-0.087
Mof_H 	H 	0.0328	0.8945	0.8102	0.088
Mof_C 	C 	0.9811	0.4331	0.57337	0.091
Mof_H 	H 	0.0014	0.3857	0.5708	-0.007
Mof_N 	N 	0.1904	0.3483	0.96039	-0.116
Mof_C 	C 	0.0968	0.1787	0.81547	0.287
Mof_C 	C 	0.3741	0.2557	0.74627	-0.054
Mof_H 	H 	0.3866	0.3064	0.7382	0.046
Mof_H 	H 	0.3373	0.2578	0.7697	0.051
Mof_O 	O 	0.8627	0.0194	0.8155	-0.137
Mof_O 	O 	0.8987	0.9078	0.8152	-0.135
Mof_C 	C 	0.103	0.4988	0.58161	-0.05
Mof_H 	H 	0.1168	0.5431	0.598	0.054
Mof_H 	H 	0.1243	0.5027	0.5522	0.051
Mof_C 	C 	0.4836	0.9013	0.78738	0.007
Mof_H 	H 	0.503	0.8552	0.7794	0.022
Mof_C 	C 	0.2143	0.4403	0.61783	-0.094
Mof_H 	H 	0.2183	0.48	0.6395	0.056
Mof_H 	H 	0.2435	0.4544	0.5922	0.064
Mof_C 	C 	0.1181	0.2834	0.71484	0.01
Mof_H 	H 	0.0784	0.2532	0.723	0.051
Mof_C 	C 	0.1298	0.2678	0.9212	0.017
Mof_H 	H 	0.1006	0.2274	0.913	0.031
Mof_C 	C 	0.1431	0.2921	0.67338	-0.001
Mof_H 	H 	0.1245	0.2691	0.6481	0.039
Mof_C 	C 	0.9038	0.5217	0.57726	0.014
Mof_H 	H 	0.8592	0.548	0.5783	0.032
Mof_N 	N 	0.9115	0.9735	0.81475	-0.007
Mof_C 	C 	0.1477	0.2858	0.96335	-0.019
Mof_H 	H 	0.1339	0.2608	0.989	0.035
Mof_C 	C 	0.4289	0.1375	0.7722	-0.114
Mof_H 	H 	0.381	0.1323	0.7868	0.072
Mof_H 	H 	0.4254	0.1122	0.7439	0.075
Mof_C 	C 	0.2092	0.3593	0.71832	0.088
Mof_H 	H 	0.2453	0.3918	0.7289	-0.005
Mof_C 	C 	0.4843	0.0998	0.7988	-0.043
Mof_H 	H 	0.482	0.1184	0.8289	0.052
Mof_H 	H 	0.5334	0.1108	0.7872	0.053
Mof_C 	C 	0.4419	0.2184	0.76347	-0.09
Mof_H 	H 	0.4573	0.2425	0.7907	0.054
Mof_H 	H 	0.4819	0.2237	0.7421	0.056
Mof_C 	C 	0.9718	0.5521	0.57995	-0.009
Mof_H 	H 	0.9829	0.6024	0.5826	0.037
Mof_C 	C 	0.1974	0.3634	0.9172	0.089
Mof_H 	H 	0.2255	0.4026	0.906	0.006
Mof_N 	N 	0.3408	0.2178	0.70712	-0.115
Mof_N 	N 	0.32308	0.18315	0.63842	-0.146
Mof_C 	C 	0.2785	0.1746	0.70673	-0.002
Mof_H 	H 	0.2489	0.1621	0.7309	0.051
Mof_C 	C 	0.3666	0.2213	0.6655	0.087
Mof_H 	H 	0.4091	0.247	0.6569	0.011
Mof_C 	C 	0.2683	0.1535	0.66436	0.005
Mof_H 	H 	0.2299	0.1233	0.6543	0.036
Mof_C 	C 	0.2878	0.333	0.01691	-0.104
Mof_H 	H 	0.3137	0.3574	0.0406	0.075
Mof_H 	H 	0.2619	0.2903	0.0281	0.074
Mof_C 	C 	0.2326	0.3847	0.996	-0.055
Mof_H 	H 	0.1982	0.4023	0.0184	0.054
Mof_H 	H 	0.2586	0.4275	0.984	0.069
Mof_Cd	Cd	0.3318	0.18097	0.56251	0.342
Mof_Cd	Cd	0.82706	0.35047	0.56837	0.374
Mof_O 	O 	0.69644	0.33496	0.56397	-0.27
Mof_N 	N 	0.995	0.4786	0.32809	-0.117
Mof_N 	N 	0.8412	0.2989	0.42527	-0.115
Mof_O 	O 	0.4353	0.2549	0.56576	-0.28
Mof_O 	O 	0.7238	0.4546	0.56826	-0.268
Mof_N 	N 	0.9472	0.59047	0.32277	-0.148
Mof_C 	C 	0.4677	0.3818	0.56143	-0.026
Mof_N 	N 	0.82558	0.3401	0.49354	-0.146
Mof_C 	C 	0.5733	0.4949	0.56371	-0.087
Mof_H 	H 	0.6081	0.5332	0.5638	0.088
Mof_O 	O 	0.3445	0.3354	0.55534	-0.272
Mof_C 	C 	0.4981	0.5104	0.56353	0.103
Mof_C 	C 	0.5961	0.4209	0.56379	-0.021
Mof_N 	N 	0.8172	0.3395	0.64292	-0.149
Mof_N 	N 	0.5186	0.0268	0.54917	-0.119
Mof_N 	N 	0.41253	0.0856	0.55388	-0.149
Mof_C 	C 	0.5431	0.3653	0.56229	-0.031
Mof_H 	H 	0.5583	0.3158	0.5618	0.067
Mof_C 	C 	0.8689	0.254	0.38746	-0.058
Mof_H 	H 	0.8309	0.2523	0.3646	0.061
Mof_H 	H 	0.878	0.2035	0.3974	0.055
Mof_C 	C 	0.4103	0.3199	0.56073	0.295
Mof_C 	C 	0.485	0.0897	0.56067	0.092
Mof_H 	H 	0.5093	0.1312	0.572	0.014
Mof_C 	C 	0.4656	0.9802	0.53419	-0.002
Mof_H 	H 	0.4726	0.9321	0.5237	0.04
Mof_C 	C 	0.9318	0.3661	0.35432	-0.106
Mof_H 	H 	0.8893	0.3704	0.3347	0.062
Mof_H 	H 	0.9215	0.3956	0.3805	0.073
Mof_C 	C 	0.4448	0.4552	0.56148	-0.088
Mof_H 	H 	0.3945	0.4672	0.5602	0.088
Mof_C 	C 	0.9331	0.5189	0.32337	0.092
Mof_H 	H 	0.8857	0.4986	0.3208	-0.007
Mof_N 	N 	0.8483	0.3096	0.71039	-0.116
Mof_C 	C 	0.6787	0.4032	0.56547	0.287
Mof_C 	C 	0.7557	0.1259	0.49627	-0.054
Mof_H 	H 	0.8064	0.1134	0.4882	0.046
Mof_H 	H 	0.7578	0.1627	0.5197	0.051
Mof_O 	O 	0.5194	0.6373	0.5655	-0.137
Mof_O 	O 	0.4078	0.6013	0.5652	-0.135
Mof_C 	C 	0.9988	0.397	0.33161	-0.049
Mof_H 	H 	0.0431	0.3832	0.348	0.054
Mof_H 	H 	0.0027	0.3757	0.3022	0.051
Mof_C 	C 	0.4013	0.0164	0.53738	0.007
Mof_H 	H 	0.3552	0.997	0.5294	0.022
Mof_C 	C 	0.9403	0.2857	0.36783	-0.094
Mof_H 	H 	0.98	0.2817	0.3895	0.056
Mof_H 	H 	0.9544	0.2565	0.3422	0.064
Mof_C 	C 	0.7834	0.3819	0.46484	0.01
Mof_H 	H 	0.7532	0.4216	0.473	0.051
Mof_C 	C 	0.7678	0.3702	0.6712	0.017
Mof_H 	H 	0.7274	0.3994	0.663	0.031
Mof_C 	C 	0.7921	0.3569	0.42338	-0.001
Mof_H 	H 	0.7691	0.3755	0.3981	0.039
Mof_C 	C 	0.0217	0.5962	0.32726	0.014
Mof_H 	H 	0.048	0.6408	0.3283	0.032
Mof_N 	N 	0.4735	0.5885	0.56475	-0.007
Mof_C 	C 	0.7858	0.3523	0.71335	-0.019
Mof_H 	H 	0.7608	0.3661	0.739	0.035
Mof_C 	C 	0.6375	0.0711	0.5222	-0.114
Mof_H 	H 	0.6323	0.119	0.5368	0.072
Mof_H 	H 	0.6122	0.0746	0.4939	0.075
Mof_C 	C 	0.8593	0.2908	0.46832	0.088
Mof_H 	H 	0.8918	0.2547	0.4789	-0.005
Mof_C 	C 	0.5998	0.0157	0.5488	-0.044
Mof_H 	H 	0.6184	0.018	0.5789	0.052
Mof_H 	H 	0.6108	0.9666	0.5372	0.053
Mof_C 	C 	0.7184	0.0581	0.51347	-0.09
Mof_H 	H 	0.7425	0.0427	0.5407	0.054
Mof_H 	H 	0.7237	0.0181	0.4921	0.056
Mof_C 	C 	0.0521	0.5282	0.32995	-0.009
Mof_H 	H 	0.1024	0.5171	0.3326	0.037
Mof_C 	C 	0.8634	0.3026	0.6672	0.089
Mof_H 	H 	0.9026	0.2745	0.656	0.006
Mof_N 	N 	0.7178	0.1592	0.45712	-0.115
Mof_N 	N 	0.68315	0.17692	0.38842	-0.146
Mof_C 	C 	0.6746	0.2215	0.45673	-0.002
Mof_H 	H 	0.6621	0.2511	0.4809	0.051
Mof_C 	C 	0.7213	0.1334	0.4155	0.087
Mof_H 	H 	0.747	0.0909	0.4069	0.011
Mof_C 	C 	0.6535	0.2317	0.41436	0.005
Mof_H 	H 	0.6233	0.2701	0.4043	0.036
Mof_C 	C 	0.833	0.2122	0.76691	-0.104
Mof_H 	H 	0.8574	0.1863	0.7906	0.075
Mof_H 	H 	0.7903	0.2381	0.7781	0.074
Mof_C 	C 	0.8847	0.2674	0.746	-0.055
Mof_H 	H 	0.9023	0.3018	0.7684	0.054
Mof_H 	H 	0.9275	0.2414	0.734	0.069
Mof_Cd	Cd	0.6682	0.81903	0.06251	0.342
Mof_Cd	Cd	0.17294	0.64953	0.06837	0.374
Mof_O 	O 	0.30356	0.66504	0.06397	-0.27
Mof_N 	N 	0.005	0.5214	0.82809	-0.117
Mof_N 	N 	0.1588	0.7011	0.92527	-0.115
Mof_O 	O 	0.5647	0.7451	0.06576	-0.28
Mof_O 	O 	0.2762	0.5454	0.06826	-0.268
Mof_N 	N 	0.0528	0.40953	0.82277	-0.148
Mof_C 	C 	0.5323	0.6182	0.06143	-0.026
Mof_N 	N 	0.17442	0.6599	0.99354	-0.146
Mof_C 	C 	0.4267	0.5051	0.06371	-0.087
Mof_H 	H 	0.3919	0.4668	0.0638	0.088
Mof_O 	O 	0.6555	0.6646	0.05534	-0.272
Mof_C 	C 	0.5019	0.4896	0.06353	0.103
Mof_C 	C 	0.4039	0.5791	0.06379	-0.021
Mof_N 	N 	0.1828	0.6605	0.14292	-0.149
Mof_N 	N 	0.4814	0.9732	0.04917	-0.119
Mof_N 	N 	0.58747	0.9144	0.05388	-0.149
Mof_C 	C 	0.4569	0.6347	0.06229	-0.031
Mof_H 	H 	0.4417	0.6842	0.0618	0.067
Mof_C 	C 	0.1311	0.746	0.88746	-0.058
Mof_H 	H 	0.1691	0.7477	0.8646	0.061
Mof_H 	H 	0.122	0.7965	0.8974	0.055
Mof_C 	C 	0.5897	0.6801	0.06073	0.295
Mof_C 	C 	0.515	0.9103	0.06067	0.092
Mof_H 	H 	0.4907	0.8688	0.072	0.014
Mof_C 	C 	0.5344	0.0198	0.03419	-0.001
Mof_H 	H 	0.5274	0.0679	0.0237	0.04
Mof_C 	C 	0.0682	0.6339	0.85432	-0.106
Mof_H 	H 	0.1107	0.6296	0.8347	0.062
Mof_H 	H 	0.0785	0.6044	0.8805	0.073
Mof_C 	C 	0.5552	0.5448	0.06148	-0.088
Mof_H 	H 	0.6055	0.5328	0.0602	0.088
Mof_C 	C 	0.0669	0.4811	0.82337	0.092
Mof_H 	H 	0.1143	0.5014	0.8208	-0.007
Mof_N 	N 	0.1517	0.6904	0.21039	-0.116
Mof_C 	C 	0.3213	0.5968	0.06547	0.287
Mof_C 	C 	0.2443	0.8741	0.99627	-0.053
Mof_H 	H 	0.1936	0.8866	0.9882	0.045
Mof_H 	H 	0.2422	0.8373	0.0197	0.051
Mof_O 	O 	0.4806	0.3627	0.0655	-0.137
Mof_O 	O 	0.5922	0.3987	0.0652	-0.135
Mof_C 	C 	0.0012	0.603	0.83161	-0.049
Mof_H 	H 	0.9569	0.6168	0.848	0.054
Mof_H 	H 	0.9973	0.6243	0.8022	0.051
Mof_C 	C 	0.5987	0.9836	0.03738	0.007
Mof_H 	H 	0.6448	0.003	0.0294	0.022
Mof_C 	C 	0.0597	0.7143	0.86783	-0.094
Mof_H 	H 	0.02	0.7183	0.8895	0.056
Mof_H 	H 	0.0456	0.7435	0.8422	0.064
Mof_C 	C 	0.2166	0.6181	0.96484	0.01
Mof_H 	H 	0.2468	0.5784	0.973	0.051
Mof_C 	C 	0.2322	0.6298	0.1712	0.017
Mof_H 	H 	0.2726	0.6006	0.163	0.031
Mof_C 	C 	0.2079	0.6431	0.92338	-0.001
Mof_H 	H 	0.2309	0.6245	0.8981	0.039
Mof_C 	C 	0.9783	0.4038	0.82726	0.014
Mof_H 	H 	0.952	0.3592	0.8283	0.032
Mof_N 	N 	0.5265	0.4115	0.06475	-0.007
Mof_C 	C 	0.2142	0.6477	0.21335	-0.019
Mof_H 	H 	0.2392	0.6339	0.239	0.035
Mof_C 	C 	0.3625	0.9289	0.0222	-0.113
Mof_H 	H 	0.3677	0.881	0.0368	0.071
Mof_H 	H 	0.3878	0.9254	0.9939	0.075
Mof_C 	C 	0.1407	0.7092	0.96832	0.088
Mof_H 	H 	0.1082	0.7453	0.9789	-0.005
Mof_C 	C 	0.4002	0.9843	0.0488	-0.044
Mof_H 	H 	0.3816	0.982	0.0789	0.052
Mof_H 	H 	0.3892	0.0334	0.0372	0.053
Mof_C 	C 	0.2816	0.9419	0.01347	-0.091
Mof_H 	H 	0.2575	0.9573	0.0407	0.054
Mof_H 	H 	0.2763	0.9819	0.9921	0.056
Mof_C 	C 	0.9479	0.4718	0.82995	-0.009
Mof_H 	H 	0.8976	0.4829	0.8326	0.037
Mof_C 	C 	0.1366	0.6974	0.1672	0.089
Mof_H 	H 	0.0974	0.7255	0.156	0.006
Mof_N 	N 	0.2822	0.8408	0.95712	-0.115
Mof_N 	N 	0.31685	0.82308	0.88842	-0.146
Mof_C 	C 	0.3254	0.7785	0.95673	-0.002
Mof_H 	H 	0.3379	0.7489	0.9809	0.051
Mof_C 	C 	0.2787	0.8666	0.9155	0.087
Mof_H 	H 	0.253	0.9091	0.9069	0.011
Mof_C 	C 	0.3465	0.7683	0.91436	0.005
Mof_H 	H 	0.3767	0.7299	0.9043	0.036
Mof_C 	C 	0.167	0.7878	0.26691	-0.104
Mof_H 	H 	0.1426	0.8137	0.2906	0.075
Mof_H 	H 	0.2097	0.7619	0.2781	0.074
Mof_C 	C 	0.1153	0.7326	0.246	-0.055
Mof_H 	H 	0.0977	0.6982	0.2684	0.054
Mof_H 	H 	0.0725	0.7586	0.234	0.069
Mof_Cd	Cd	0.81903	0.6682	0.9375	0.342
Mof_Cd	Cd	0.64953	0.17294	0.93163	0.374
Mof_O 	O 	0.66504	0.30356	0.93603	-0.27
Mof_N 	N 	0.5214	0.005	0.17191	-0.117
Mof_N 	N 	0.7011	0.1588	0.07473	-0.115
Mof_O 	O 	0.7451	0.5647	0.93424	-0.28
Mof_O 	O 	0.5454	0.2762	0.93174	-0.268
Mof_N 	N 	0.40953	0.0528	0.17723	-0.148
Mof_C 	C 	0.6182	0.5323	0.93857	-0.026
Mof_N 	N 	0.6599	0.17442	0.00646	-0.146
Mof_C 	C 	0.5051	0.4267	0.93629	-0.087
Mof_H 	H 	0.4668	0.3919	0.9362	0.088
Mof_O 	O 	0.6646	0.6555	0.94466	-0.272
Mof_C 	C 	0.4896	0.5019	0.93647	0.103
Mof_C 	C 	0.5791	0.4039	0.93621	-0.021
Mof_N 	N 	0.6605	0.1828	0.85708	-0.149
Mof_N 	N 	0.9732	0.4814	0.95083	-0.119
Mof_N 	N 	0.9144	0.58747	0.94612	-0.149
Mof_C 	C 	0.6347	0.4569	0.93771	-0.031
Mof_H 	H 	0.6842	0.4417	0.9382	0.067
Mof_C 	C 	0.746	0.1311	0.11254	-0.058
Mof_H 	H 	0.7477	0.1691	0.1354	0.061
Mof_H 	H 	0.7965	0.122	0.1026	0.055
Mof_C 	C 	0.6801	0.5897	0.93927	0.295
Mof_C 	C 	0.9103	0.515	0.93933	0.092
Mof_H 	H 	0.8688	0.4907	0.928	0.014
Mof_C 	C 	0.0198	0.5344	0.96581	-0.001
Mof_H 	H 	0.0679	0.5274	0.9763	0.04
Mof_C 	C 	0.6339	0.0682	0.14568	-0.106
Mof_H 	H 	0.6296	0.1107	0.1653	0.062
Mof_H 	H 	0.6044	0.0785	0.1195	0.073
Mof_C 	C 	0.5448	0.5552	0.93852	-0.088
Mof_H 	H 	0.5328	0.6055	0.9398	0.088
Mof_C 	C 	0.4811	0.0669	0.17663	0.092
Mof_H 	H 	0.5014	0.1143	0.1792	-0.007
Mof_N 	N 	0.6904	0.1517	0.78961	-0.116
Mof_C 	C 	0.5968	0.3213	0.93453	0.287
Mof_C 	C 	0.8741	0.2443	0.00373	-0.053
Mof_H 	H 	0.8866	0.1936	0.0118	0.045
Mof_H 	H 	0.8373	0.2422	0.9803	0.051
Mof_O 	O 	0.3627	0.4806	0.9345	-0.137
Mof_O 	O 	0.3987	0.5922	0.9348	-0.135
Mof_C 	C 	0.603	0.0012	0.16839	-0.049
Mof_H 	H 	0.6168	0.9569	0.152	0.054
Mof_H 	H 	0.6243	0.9973	0.1978	0.051
Mof_C 	C 	0.9836	0.5987	0.96262	0.007
Mof_H 	H 	0.003	0.6448	0.9706	0.022
Mof_C 	C 	0.7143	0.0597	0.13217	-0.094
Mof_H 	H 	0.7183	0.02	0.1105	0.056
Mof_H 	H 	0.7435	0.0456	0.1578	0.064
Mof_C 	C 	0.6181	0.2166	0.03516	0.01
Mof_H 	H 	0.5784	0.2468	0.027	0.051
Mof_C 	C 	0.6298	0.2322	0.8288	0.017
Mof_H 	H 	0.6006	0.2726	0.837	0.031
Mof_C 	C 	0.6431	0.2079	0.07662	-0.001
Mof_H 	H 	0.6245	0.2309	0.1019	0.039
Mof_C 	C 	0.4038	0.9783	0.17274	0.014
Mof_H 	H 	0.3592	0.952	0.1717	0.032
Mof_N 	N 	0.4115	0.5265	0.93525	-0.007
Mof_C 	C 	0.6477	0.2142	0.78665	-0.019
Mof_H 	H 	0.6339	0.2392	0.761	0.035
Mof_C 	C 	0.9289	0.3625	0.9778	-0.113
Mof_H 	H 	0.881	0.3677	0.9632	0.071
Mof_H 	H 	0.9254	0.3878	0.0061	0.075
Mof_C 	C 	0.7092	0.1407	0.03168	0.088
Mof_H 	H 	0.7453	0.1082	0.0211	-0.005
Mof_C 	C 	0.9843	0.4002	0.9512	-0.044
Mof_H 	H 	0.982	0.3816	0.9211	0.052
Mof_H 	H 	0.0334	0.3892	0.9628	0.053
Mof_C 	C 	0.9419	0.2816	0.98653	-0.091
Mof_H 	H 	0.9573	0.2575	0.9593	0.054
Mof_H 	H 	0.9819	0.2763	0.0079	0.056
Mof_C 	C 	0.4718	0.9479	0.17005	-0.009
Mof_H 	H 	0.4829	0.8976	0.1674	0.037
Mof_C 	C 	0.6974	0.1366	0.8328	0.089
Mof_H 	H 	0.7255	0.0974	0.844	0.006
Mof_N 	N 	0.8408	0.2822	0.04288	-0.115
Mof_N 	N 	0.82308	0.31685	0.11158	-0.146
Mof_C 	C 	0.7785	0.3254	0.04327	-0.002
Mof_H 	H 	0.7489	0.3379	0.0191	0.051
Mof_C 	C 	0.8666	0.2787	0.0845	0.087
Mof_H 	H 	0.9091	0.253	0.0931	0.011
Mof_C 	C 	0.7683	0.3465	0.08564	0.005
Mof_H 	H 	0.7299	0.3767	0.0957	0.036
Mof_C 	C 	0.7878	0.167	0.73309	-0.104
Mof_H 	H 	0.8137	0.1426	0.7094	0.075
Mof_H 	H 	0.7619	0.2097	0.7219	0.074
Mof_C 	C 	0.7326	0.1153	0.754	-0.055
Mof_H 	H 	0.6982	0.0977	0.7316	0.054
Mof_H 	H 	0.7586	0.0725	0.766	0.069
Mof_Cd	Cd	0.18097	0.3318	0.4375	0.342
Mof_Cd	Cd	0.35047	0.82706	0.43163	0.374
Mof_O 	O 	0.33496	0.69644	0.43603	-0.27
Mof_N 	N 	0.4786	0.995	0.67191	-0.117
Mof_N 	N 	0.2989	0.8412	0.57473	-0.115
Mof_O 	O 	0.2549	0.4353	0.43424	-0.28
Mof_O 	O 	0.4546	0.7238	0.43174	-0.268
Mof_N 	N 	0.59047	0.9472	0.67723	-0.148
Mof_C 	C 	0.3818	0.4677	0.43857	-0.026
Mof_N 	N 	0.3401	0.82558	0.50646	-0.146
Mof_C 	C 	0.4949	0.5733	0.43629	-0.087
Mof_H 	H 	0.5332	0.6081	0.4362	0.088
Mof_O 	O 	0.3354	0.3445	0.44466	-0.272
Mof_C 	C 	0.5104	0.4981	0.43647	0.103
Mof_C 	C 	0.4209	0.5961	0.43621	-0.021
Mof_N 	N 	0.3395	0.8172	0.35708	-0.149
Mof_N 	N 	0.0268	0.5186	0.45083	-0.119
Mof_N 	N 	0.0856	0.41253	0.44612	-0.149
Mof_C 	C 	0.3653	0.5431	0.43771	-0.031
Mof_H 	H 	0.3158	0.5583	0.4382	0.067
Mof_C 	C 	0.254	0.8689	0.61254	-0.058
Mof_H 	H 	0.2523	0.8309	0.6354	0.061
Mof_H 	H 	0.2035	0.878	0.6026	0.055
Mof_C 	C 	0.3199	0.4103	0.43927	0.295
Mof_C 	C 	0.0897	0.485	0.43933	0.092
Mof_H 	H 	0.1312	0.5093	0.428	0.014
Mof_C 	C 	0.9802	0.4656	0.46581	-0.002
Mof_H 	H 	0.9321	0.4726	0.4763	0.04
Mof_C 	C 	0.3661	0.9318	0.64568	-0.106
Mof_H 	H 	0.3704	0.8893	0.6653	0.062
Mof_H 	H 	0.3956	0.9215	0.6195	0.073
Mof_C 	C 	0.4552	0.4448	0.43852	-0.088
Mof_H 	H 	0.4672	0.3945	0.4398	0.088
Mof_C 	C 	0.5189	0.9331	0.67663	0.092
Mof_H 	H 	0.4986	0.8857	0.6792	-0.007
Mof_N 	N 	0.3096	0.8483	0.28961	-0.116
Mof_C 	C 	0.4032	0.6787	0.43453	0.287
Mof_C 	C 	0.1259	0.7557	0.50373	-0.054
Mof_H 	H 	0.1134	0.8064	0.5118	0.046
Mof_H 	H 	0.1627	0.7578	0.4803	0.051
Mof_O 	O 	0.6373	0.5194	0.4345	-0.137
Mof_O 	O 	0.6013	0.4078	0.4348	-0.135
Mof_C 	C 	0.397	0.9988	0.66839	-0.049
Mof_H 	H 	0.3832	0.0431	0.652	0.054
Mof_H 	H 	0.3757	0.0027	0.6978	0.051
Mof_C 	C 	0.0164	0.4013	0.46262	0.007
Mof_H 	H 	0.997	0.3552	0.4706	0.022
Mof_C 	C 	0.2857	0.9403	0.63217	-0.094
Mof_H 	H 	0.2817	0.98	0.6105	0.056
Mof_H 	H 	0.2565	0.9544	0.6578	0.064
Mof_C 	C 	0.3819	0.7834	0.53516	0.01
Mof_H 	H 	0.4216	0.7532	0.527	0.051
Mof_C 	C 	0.3702	0.7678	0.3288	0.017
Mof_H 	H 	0.3994	0.7274	0.337	0.031
Mof_C 	C 	0.3569	0.7921	0.57662	-0.001
Mof_H 	H 	0.3755	0.7691	0.6019	0.039
Mof_C 	C 	0.5962	0.0217	0.67274	0.014
Mof_H 	H 	0.6408	0.048	0.6717	0.032
Mof_N 	N 	0.5885	0.4735	0.43525	-0.007
Mof_C 	C 	0.3523	0.7858	0.28665	-0.019
Mof_H 	H 	0.3661	0.7608	0.261	0.035
Mof_C 	C 	0.0711	0.6375	0.4778	-0.114
Mof_H 	H 	0.119	0.6323	0.4632	0.072
Mof_H 	H 	0.0746	0.6122	0.5061	0.075
Mof_C 	C 	0.2908	0.8593	0.53168	0.088
Mof_H 	H 	0.2547	0.8918	0.5211	-0.005
Mof_C 	C 	0.0157	0.5998	0.4512	-0.044
Mof_H 	H 	0.018	0.6184	0.4211	0.052
Mof_H 	H 	0.9666	0.6108	0.4628	0.053
Mof_C 	C 	0.0581	0.7184	0.48653	-0.09
Mof_H 	H 	0.0427	0.7425	0.4593	0.054
Mof_H 	H 	0.0181	0.7237	0.5079	0.056
Mof_C 	C 	0.5282	0.0521	0.67005	-0.009
Mof_H 	H 	0.5171	0.1024	0.6674	0.037
Mof_C 	C 	0.3026	0.8634	0.3328	0.089
Mof_H 	H 	0.2745	0.9026	0.344	0.006
Mof_N 	N 	0.1592	0.7178	0.54288	-0.115
Mof_N 	N 	0.17692	0.68315	0.61158	-0.146
Mof_C 	C 	0.2215	0.6746	0.54327	-0.002
Mof_H 	H 	0.2511	0.6621	0.5191	0.051
Mof_C 	C 	0.1334	0.7213	0.5845	0.087
Mof_H 	H 	0.0909	0.747	0.5931	0.011
Mof_C 	C 	0.2317	0.6535	0.58564	0.005
Mof_H 	H 	0.2701	0.6233	0.5957	0.036
Mof_C 	C 	0.2122	0.833	0.23309	-0.104
Mof_H 	H 	0.1863	0.8574	0.2094	0.075
Mof_H 	H 	0.2381	0.7903	0.2219	0.074
Mof_C 	C 	0.2674	0.8847	0.254	-0.055
Mof_H 	H 	0.3018	0.9023	0.2316	0.054
Mof_H 	H 	0.2414	0.9275	0.266	0.069
Mof_Cd	Cd	0.1682	0.68097	0.68749	0.342
Mof_Cd	Cd	0.67294	0.85047	0.68163	0.374
Mof_O 	O 	0.80356	0.83496	0.68603	-0.271
Mof_N 	N 	0.505	0.9786	0.92191	-0.116
Mof_N 	N 	0.6588	0.7989	0.82473	-0.115
Mof_O 	O 	0.0647	0.7549	0.68424	-0.28
Mof_O 	O 	0.7762	0.9546	0.68174	-0.268
Mof_N 	N 	0.5528	0.09047	0.92723	-0.148
Mof_C 	C 	0.0323	0.8818	0.68857	-0.026
Mof_N 	N 	0.67442	0.8401	0.75646	-0.146
Mof_C 	C 	0.9267	0.9949	0.68629	-0.086
Mof_H 	H 	0.8919	0.0332	0.6862	0.088
Mof_O 	O 	0.1555	0.8354	0.69466	-0.272
Mof_C 	C 	0.0019	0.0104	0.68647	0.103
Mof_C 	C 	0.9039	0.9209	0.68621	-0.021
Mof_N 	N 	0.6828	0.8395	0.60708	-0.149
Mof_N 	N 	0.9814	0.5268	0.70083	-0.119
Mof_N 	N 	0.08747	0.5856	0.69612	-0.149
Mof_C 	C 	0.9569	0.8653	0.68771	-0.031
Mof_H 	H 	0.9417	0.8158	0.6882	0.067
Mof_C 	C 	0.6311	0.754	0.86254	-0.057
Mof_H 	H 	0.6691	0.7523	0.8854	0.061
Mof_H 	H 	0.622	0.7035	0.8526	0.055
Mof_C 	C 	0.0897	0.8199	0.68927	0.295
Mof_C 	C 	0.015	0.5897	0.68933	0.092
Mof_H 	H 	0.9907	0.6312	0.678	0.014
Mof_C 	C 	0.0344	0.4802	0.71581	-0.002
Mof_H 	H 	0.0274	0.4321	0.7263	0.04
Mof_C 	C 	0.5682	0.8661	0.89568	-0.106
Mof_H 	H 	0.6107	0.8704	0.9153	0.062
Mof_H 	H 	0.5785	0.8956	0.8695	0.073
Mof_C 	C 	0.0552	0.9552	0.68852	-0.087
Mof_H 	H 	0.1055	0.9672	0.6898	0.088
Mof_C 	C 	0.5669	0.0189	0.92663	0.091
Mof_H 	H 	0.6143	0.9986	0.9292	-0.007
Mof_N 	N 	0.6517	0.8096	0.53961	-0.116
Mof_C 	C 	0.8213	0.9032	0.68453	0.287
Mof_C 	C 	0.7443	0.6259	0.75373	-0.054
Mof_H 	H 	0.6936	0.6134	0.7618	0.046
Mof_H 	H 	0.7422	0.6627	0.7303	0.051
Mof_O 	O 	0.9806	0.1373	0.6845	-0.137
Mof_O 	O 	0.0922	0.1013	0.6848	-0.135
Mof_C 	C 	0.5012	0.897	0.91839	-0.05
Mof_H 	H 	0.4569	0.8832	0.902	0.054
Mof_H 	H 	0.4973	0.8757	0.9478	0.051
Mof_C 	C 	0.0987	0.5164	0.71262	0.007
Mof_H 	H 	0.1448	0.497	0.7206	0.022
Mof_C 	C 	0.5597	0.7857	0.88217	-0.094
Mof_H 	H 	0.52	0.7817	0.8605	0.056
Mof_H 	H 	0.5456	0.7565	0.9078	0.064
Mof_C 	C 	0.7166	0.8819	0.78516	0.01
Mof_H 	H 	0.7468	0.9216	0.777	0.051
Mof_C 	C 	0.7322	0.8702	0.5788	0.017
Mof_H 	H 	0.7726	0.8994	0.587	0.031
Mof_C 	C 	0.7079	0.8569	0.82662	-0.001
Mof_H 	H 	0.7309	0.8755	0.8519	0.039
Mof_C 	C 	0.4783	0.0962	0.92274	0.014
Mof_H 	H 	0.452	0.1408	0.9217	0.032
Mof_N 	N 	0.0265	0.0885	0.68525	-0.007
Mof_C 	C 	0.7142	0.8523	0.53665	-0.019
Mof_H 	H 	0.7392	0.8661	0.511	0.035
Mof_C 	C 	0.8625	0.5711	0.7278	-0.114
Mof_H 	H 	0.8677	0.619	0.7132	0.072
Mof_H 	H 	0.8878	0.5746	0.7561	0.075
Mof_C 	C 	0.6407	0.7908	0.78168	0.088
Mof_H 	H 	0.6082	0.7547	0.7711	-0.005
Mof_C 	C 	0.9002	0.5157	0.7012	-0.043
Mof_H 	H 	0.8816	0.518	0.6711	0.052
Mof_H 	H 	0.8892	0.4666	0.7128	0.053
Mof_C 	C 	0.7816	0.5581	0.73653	-0.09
Mof_H 	H 	0.7575	0.5427	0.7093	0.054
Mof_H 	H 	0.7763	0.5181	0.7579	0.056
Mof_C 	C 	0.4479	0.0282	0.92005	-0.009
Mof_H 	H 	0.3976	0.0171	0.9174	0.037
Mof_C 	C 	0.6366	0.8026	0.5828	0.089
Mof_H 	H 	0.5974	0.7745	0.594	0.006
Mof_N 	N 	0.7822	0.6592	0.79288	-0.115
Mof_N 	N 	0.81685	0.67692	0.86158	-0.146
Mof_C 	C 	0.8254	0.7215	0.79327	-0.002
Mof_H 	H 	0.8379	0.7511	0.7691	0.051
Mof_C 	C 	0.7787	0.6334	0.8345	0.087
Mof_H 	H 	0.753	0.5909	0.8431	0.011
Mof_C 	C 	0.8465	0.7317	0.83564	0.005
Mof_H 	H 	0.8767	0.7701	0.8457	0.036
Mof_C 	C 	0.667	0.7122	0.48309	-0.104
Mof_H 	H 	0.6426	0.6863	0.4594	0.075
Mof_H 	H 	0.7097	0.7381	0.4719	0.074
Mof_C 	C 	0.6153	0.7674	0.504	-0.055
Mof_H 	H 	0.5977	0.8018	0.4816	0.054
Mof_H 	H 	0.5725	0.7414	0.516	0.069
Mof_Cd	Cd	0.8318	0.31903	0.18749	0.342
Mof_Cd	Cd	0.32706	0.14953	0.18163	0.374
Mof_O 	O 	0.19644	0.16504	0.18603	-0.271
Mof_N 	N 	0.495	0.0214	0.42191	-0.117
Mof_N 	N 	0.3412	0.2011	0.32473	-0.115
Mof_O 	O 	0.9353	0.2451	0.18424	-0.28
Mof_O 	O 	0.2238	0.0454	0.18174	-0.268
Mof_N 	N 	0.4472	0.90953	0.42723	-0.148
Mof_C 	C 	0.9677	0.1182	0.18857	-0.026
Mof_N 	N 	0.32558	0.1599	0.25646	-0.146
Mof_C 	C 	0.0733	0.0051	0.18629	-0.086
Mof_H 	H 	0.1081	0.9668	0.1862	0.088
Mof_O 	O 	0.8445	0.1646	0.19466	-0.272
Mof_C 	C 	0.9981	0.9896	0.18647	0.103
Mof_C 	C 	0.0961	0.0791	0.18621	-0.021
Mof_N 	N 	0.3172	0.1605	0.10708	-0.149
Mof_N 	N 	0.0186	0.4732	0.20083	-0.119
Mof_N 	N 	0.91253	0.4144	0.19612	-0.149
Mof_C 	C 	0.0431	0.1347	0.18771	-0.031
Mof_H 	H 	0.0583	0.1842	0.1882	0.067
Mof_C 	C 	0.3689	0.246	0.36254	-0.058
Mof_H 	H 	0.3309	0.2477	0.3854	0.061
Mof_H 	H 	0.378	0.2965	0.3526	0.055
Mof_C 	C 	0.9103	0.1801	0.18927	0.295
Mof_C 	C 	0.985	0.4103	0.18933	0.093
Mof_H 	H 	0.0093	0.3688	0.178	0.014
Mof_C 	C 	0.9656	0.5198	0.21581	-0.001
Mof_H 	H 	0.9726	0.5679	0.2263	0.04
Mof_C 	C 	0.4318	0.1339	0.39568	-0.106
Mof_H 	H 	0.3893	0.1296	0.4153	0.062
Mof_H 	H 	0.4215	0.1044	0.3695	0.073
Mof_C 	C 	0.9448	0.0448	0.18852	-0.087
Mof_H 	H 	0.8945	0.0328	0.1898	0.088
Mof_C 	C 	0.4331	0.9811	0.42663	0.091
Mof_H 	H 	0.3857	0.0014	0.4292	-0.007
Mof_N 	N 	0.3483	0.1904	0.03961	-0.116
Mof_C 	C 	0.1787	0.0968	0.18453	0.287
Mof_C 	C 	0.2557	0.3741	0.25373	-0.054
Mof_H 	H 	0.3064	0.3866	0.2618	0.046
Mof_H 	H 	0.2578	0.3373	0.2303	0.051
Mof_O 	O 	0.0194	0.8627	0.1845	-0.137
Mof_O 	O 	0.9078	0.8987	0.1848	-0.135
Mof_C 	C 	0.4988	0.103	0.41839	-0.05
Mof_H 	H 	0.5431	0.1168	0.402	0.054
Mof_H 	H 	0.5027	0.1243	0.4478	0.051
Mof_C 	C 	0.9013	0.4836	0.21262	0.007
Mof_H 	H 	0.8552	0.503	0.2206	0.022
Mof_C 	C 	0.4403	0.2143	0.38217	-0.094
Mof_H 	H 	0.48	0.2183	0.3605	0.056
Mof_H 	H 	0.4544	0.2435	0.4078	0.064
Mof_C 	C 	0.2834	0.1181	0.28516	0.01
Mof_H 	H 	0.2532	0.0784	0.277	0.051
Mof_C 	C 	0.2678	0.1298	0.0788	0.017
Mof_H 	H 	0.2274	0.1006	0.087	0.031
Mof_C 	C 	0.2921	0.1431	0.32662	-0.001
Mof_H 	H 	0.2691	0.1245	0.3519	0.039
Mof_C 	C 	0.5217	0.9038	0.42274	0.014
Mof_H 	H 	0.548	0.8592	0.4217	0.032
Mof_N 	N 	0.9735	0.9115	0.18525	-0.007
Mof_C 	C 	0.2858	0.1477	0.03665	-0.019
Mof_H 	H 	0.2608	0.1339	0.011	0.035
Mof_C 	C 	0.1375	0.4289	0.2278	-0.114
Mof_H 	H 	0.1323	0.381	0.2132	0.072
Mof_H 	H 	0.1122	0.4254	0.2561	0.075
Mof_C 	C 	0.3593	0.2092	0.28168	0.088
Mof_H 	H 	0.3918	0.2453	0.2711	-0.005
Mof_C 	C 	0.0998	0.4843	0.2012	-0.043
Mof_H 	H 	0.1184	0.482	0.1711	0.052
Mof_H 	H 	0.1108	0.5334	0.2128	0.053
Mof_C 	C 	0.2184	0.4419	0.23653	-0.09
Mof_H 	H 	0.2425	0.4573	0.2093	0.054
Mof_H 	H 	0.2237	0.4819	0.2579	0.056
Mof_C 	C 	0.5521	0.9718	0.42005	-0.009
Mof_H 	H 	0.6024	0.9829	0.4174	0.037
Mof_C 	C 	0.3634	0.1974	0.0828	0.089
Mof_H 	H 	0.4026	0.2255	0.094	0.006
Mof_N 	N 	0.2178	0.3408	0.29288	-0.115
Mof_N 	N 	0.18315	0.32308	0.36158	-0.146
Mof_C 	C 	0.1746	0.2785	0.29327	-0.002
Mof_H 	H 	0.1621	0.2489	0.2691	0.051
Mof_C 	C 	0.2213	0.3666	0.3345	0.087
Mof_H 	H 	0.247	0.4091	0.3431	0.011
Mof_C 	C 	0.1535	0.2683	0.33564	0.005
Mof_H 	H 	0.1233	0.2299	0.3457	0.036
Mof_C 	C 	0.333	0.2878	0.98309	-0.104
Mof_H 	H 	0.3574	0.3137	0.9594	0.075
Mof_H 	H 	0.2903	0.2619	0.9719	0.074
Mof_C 	C 	0.3847	0.2326	0.004	-0.055
Mof_H 	H 	0.4023	0.1982	0.9816	0.054
Mof_H 	H 	0.4275	0.2586	0.016	0.069
_end
