data_functionalizedCrystal
_audit_creation_method	'EQeq! by Chris Wilmer'
_symmetry_space_group_name_H-M	'P1'
_symmetry_Int_Tables_number	1
_symmetry_cell_setting	triclinic
loop_
_symmetry_equiv_pos_as_xyz
  x,y,z
_cell_length_a	15.4128
_cell_length_b	15.4128
_cell_length_c	15.4128
_cell_angle_alpha	76.3412
_cell_angle_beta	76.3412
_cell_angle_gamma	76.3412
loop_
_atom_site_label
_atom_site_type_symbol
_atom_site_fract_x
_atom_site_fract_y
_atom_site_fract_z
_atom_site_charge
Mof_Zn	Zn	0.08821	0.51326	0.51326	1.195
Mof_Zn	Zn	0.51326	0.08821	0.51326	1.195
Mof_Zn	Zn	0.51326	0.51326	0.08821	1.195
Mof_Zn	Zn	0.48674	0.91179	0.48674	1.195
Mof_Zn	Zn	0.91179	0.48674	0.48674	1.195
Mof_Zn	Zn	0.48674	0.48674	0.91179	1.195
Mof_H 	H 	0.9868	0.1969	0.5064	0.045
Mof_H 	H 	0.5064	0.9868	0.1969	0.045
Mof_H 	H 	0.1969	0.5064	0.9868	0.045
Mof_H 	H 	0.8031	0.0132	0.4936	0.045
Mof_H 	H 	0.0132	0.4936	0.8031	0.045
Mof_H 	H 	0.4936	0.8031	0.0132	0.045
Mof_H 	H 	0.0132	0.8031	0.4936	0.045
Mof_H 	H 	0.4936	0.0132	0.8031	0.045
Mof_H 	H 	0.8031	0.4936	0.0132	0.045
Mof_H 	H 	0.1969	0.9868	0.5064	0.045
Mof_H 	H 	0.9868	0.5064	0.1969	0.045
Mof_H 	H 	0.5064	0.1969	0.9868	0.045
Mof_H 	H 	0.2325	0.2325	0.523	0.033
Mof_H 	H 	0.523	0.2325	0.2325	0.033
Mof_H 	H 	0.2325	0.523	0.2325	0.033
Mof_H 	H 	0.7675	0.7675	0.477	0.033
Mof_H 	H 	0.7675	0.477	0.7675	0.033
Mof_H 	H 	0.477	0.7675	0.7675	0.033
Mof_C 	C 	0.0655	0.32924	0.51427	0.421
Mof_C 	C 	0.10383	0.23005	0.51534	-0.117
Mof_C 	C 	0.04762	0.17342	0.50962	-0.005
Mof_C 	C 	0.51427	0.0655	0.32924	0.421
Mof_C 	C 	0.51534	0.10383	0.23005	-0.117
Mof_C 	C 	0.50962	0.04762	0.17342	-0.005
Mof_C 	C 	0.32924	0.51427	0.0655	0.421
Mof_C 	C 	0.23005	0.51534	0.10383	-0.117
Mof_C 	C 	0.17342	0.50962	0.04762	-0.005
Mof_C 	C 	0.67076	0.9345	0.48573	0.421
Mof_C 	C 	0.76995	0.89617	0.48466	-0.117
Mof_C 	C 	0.82658	0.95238	0.49038	-0.005
Mof_C 	C 	0.9345	0.48573	0.67076	0.421
Mof_C 	C 	0.89617	0.48466	0.76995	-0.117
Mof_C 	C 	0.95238	0.49038	0.82658	-0.005
Mof_C 	C 	0.48573	0.67076	0.9345	0.421
Mof_C 	C 	0.48466	0.76995	0.89617	-0.117
Mof_C 	C 	0.49038	0.82658	0.95238	-0.005
Mof_C 	C 	0.9345	0.67076	0.48573	0.421
Mof_C 	C 	0.89617	0.76995	0.48466	-0.117
Mof_C 	C 	0.95238	0.82658	0.49038	-0.005
Mof_C 	C 	0.48573	0.9345	0.67076	0.421
Mof_C 	C 	0.48466	0.89617	0.76995	-0.117
Mof_C 	C 	0.49038	0.95238	0.82658	-0.005
Mof_C 	C 	0.67076	0.48573	0.9345	0.421
Mof_C 	C 	0.76995	0.48466	0.89617	-0.117
Mof_C 	C 	0.82658	0.49038	0.95238	-0.005
Mof_C 	C 	0.32924	0.0655	0.51427	0.421
Mof_C 	C 	0.23005	0.10383	0.51534	-0.117
Mof_C 	C 	0.17342	0.04762	0.50962	-0.005
Mof_C 	C 	0.0655	0.51427	0.32924	0.421
Mof_C 	C 	0.10383	0.51534	0.23005	-0.117
Mof_C 	C 	0.04762	0.50962	0.17342	-0.005
Mof_C 	C 	0.51427	0.32924	0.0655	0.421
Mof_C 	C 	0.51534	0.23005	0.10383	-0.117
Mof_C 	C 	0.50962	0.17342	0.04762	-0.005
Mof_C 	C 	0.08242	0.08242	0.50867	-0.002
Mof_C 	C 	0.02317	0.02317	0.50237	-0.015
Mof_C 	C 	0.19501	0.19501	0.51866	0.057
Mof_C 	C 	0.50867	0.08242	0.08242	-0.002
Mof_C 	C 	0.50237	0.02317	0.02317	-0.015
Mof_C 	C 	0.51866	0.19501	0.19501	0.057
Mof_C 	C 	0.08242	0.50867	0.08242	-0.002
Mof_C 	C 	0.02317	0.50237	0.02317	-0.015
Mof_C 	C 	0.19501	0.51866	0.19501	0.057
Mof_C 	C 	0.91758	0.91758	0.49133	-0.002
Mof_C 	C 	0.97683	0.97683	0.49763	-0.015
Mof_C 	C 	0.80499	0.80499	0.48134	0.057
Mof_C 	C 	0.91758	0.49133	0.91758	-0.002
Mof_C 	C 	0.97683	0.49763	0.97683	-0.015
Mof_C 	C 	0.80499	0.48134	0.80499	0.057
Mof_C 	C 	0.49133	0.91758	0.91758	-0.002
Mof_C 	C 	0.49763	0.97683	0.97683	-0.015
Mof_C 	C 	0.48134	0.80499	0.80499	0.057
Mof_O 	O 	0.98579	0.35733	0.50559	-0.496
Mof_O 	O 	0.11925	0.37579	0.52149	-0.482
Mof_O 	O 	0.50559	0.98579	0.35733	-0.496
Mof_O 	O 	0.52149	0.11925	0.37579	-0.482
Mof_O 	O 	0.35733	0.50559	0.98579	-0.496
Mof_O 	O 	0.37579	0.52149	0.11925	-0.482
Mof_O 	O 	0.64267	0.01421	0.49441	-0.496
Mof_O 	O 	0.62421	0.88075	0.47851	-0.482
Mof_O 	O 	0.01421	0.49441	0.64267	-0.496
Mof_O 	O 	0.88075	0.47851	0.62421	-0.482
Mof_O 	O 	0.49441	0.64267	0.01421	-0.496
Mof_O 	O 	0.47851	0.62421	0.88075	-0.482
Mof_O 	O 	0.01421	0.64267	0.49441	-0.496
Mof_O 	O 	0.88075	0.62421	0.47851	-0.482
Mof_O 	O 	0.49441	0.01421	0.64267	-0.496
Mof_O 	O 	0.47851	0.88075	0.62421	-0.482
Mof_O 	O 	0.64267	0.49441	0.01421	-0.496
Mof_O 	O 	0.62421	0.47851	0.88075	-0.482
Mof_O 	O 	0.35733	0.98579	0.50559	-0.496
Mof_O 	O 	0.37579	0.11925	0.52149	-0.482
Mof_O 	O 	0.98579	0.50559	0.35733	-0.496
Mof_O 	O 	0.11925	0.52149	0.37579	-0.482
Mof_O 	O 	0.50559	0.35733	0.98579	-0.496
Mof_O 	O 	0.52149	0.37579	0.11925	-0.482
_end
