data_functionalizedCrystal
_audit_creation_method	'EQeq! by Chris Wilmer'
_symmetry_space_group_name_H-M	'P1'
_symmetry_Int_Tables_number	1
_symmetry_cell_setting	triclinic
loop_
_symmetry_equiv_pos_as_xyz
  x,y,z
_cell_length_a	9.341
_cell_length_b	9.865
_cell_length_c	11.415
_cell_angle_alpha	94.033
_cell_angle_beta	98.332
_cell_angle_gamma	110.809
loop_
_atom_site_label
_atom_site_type_symbol
_atom_site_fract_x
_atom_site_fract_y
_atom_site_fract_z
_atom_site_charge
Mof_Sm	Sm	0.78261	0.54565	0.48497	2.215
Mof_Sm	Sm	0.21739	0.45435	0.51503	2.215
Mof_H 	H 	0.4345	0.3945	0.0771	-0.027
Mof_H 	H 	0.3463	0.2734	0.8843	0.154
Mof_H 	H 	0.6765	0.1017	0.9311	0.144
Mof_H 	H 	0.7673	0.2244	0.1195	-0.034
Mof_H 	H 	0.6957	0.2864	0.7213	0.03
Mof_H 	H 	0.8181	0.9974	0.5358	0.014
Mof_H 	H 	0.4195	0.8621	0.6649	0.061
Mof_H 	H 	0.5655	0.6055	0.9229	-0.027
Mof_H 	H 	0.6537	0.7266	0.1157	0.154
Mof_H 	H 	0.3235	0.8983	0.0689	0.144
Mof_H 	H 	0.2327	0.7756	0.8805	-0.034
Mof_H 	H 	0.3043	0.7136	0.2787	0.03
Mof_H 	H 	0.1819	0.0026	0.4642	0.014
Mof_H 	H 	0.5805	0.1379	0.3351	0.061
Mof_C 	C 	0.6767	0.412	0.2391	0.382
Mof_C 	C 	0.6165	0.328	0.1195	-0.225
Mof_C 	C 	0.4853	0.3378	0.0471	0.171
Mof_C 	C 	0.4311	0.2641	0.9319	-0.305
Mof_C 	C 	0.5033	0.1779	0.8892	0.308
Mof_C 	C 	0.6294	0.1624	0.9603	-0.315
Mof_C 	C 	0.6833	0.236	0.0726	0.192
Mof_C 	C 	0.5473	0.0779	0.7079	0.131
Mof_C 	C 	0.6768	0.1907	0.6901	-0.055
Mof_C 	C 	0.7776	0.1609	0.626	-0.132
Mof_C 	C 	0.7477	0.0181	0.5769	0.063
Mof_C 	C 	0.6114	0.9067	0.5901	-0.153
Mof_C 	C 	0.5107	0.9363	0.6558	-0.051
Mof_C 	C 	0.9198	0.2802	0.6026	0.422
Mof_C 	C 	0.5764	0.7538	0.5325	0.527
Mof_C 	C 	0.3233	0.588	0.7609	0.382
Mof_C 	C 	0.3835	0.672	0.8805	-0.225
Mof_C 	C 	0.5147	0.6622	0.9529	0.171
Mof_C 	C 	0.5689	0.7359	0.0681	-0.305
Mof_C 	C 	0.4967	0.8221	0.1108	0.308
Mof_C 	C 	0.3706	0.8376	0.0397	-0.315
Mof_C 	C 	0.3167	0.764	0.9274	0.192
Mof_C 	C 	0.4527	0.9221	0.2921	0.131
Mof_C 	C 	0.3232	0.8093	0.3099	-0.055
Mof_C 	C 	0.2224	0.8391	0.374	-0.132
Mof_C 	C 	0.2523	0.9819	0.4231	0.063
Mof_C 	C 	0.3886	0.0933	0.4099	-0.153
Mof_C 	C 	0.4893	0.0637	0.3442	-0.051
Mof_C 	C 	0.0802	0.7198	0.3974	0.422
Mof_C 	C 	0.4236	0.2462	0.4675	0.527
Mof_O 	O 	0.7848	0.3902	0.3064	-0.477
Mof_O 	O 	0.622	0.5034	0.2763	-0.438
Mof_O 	O 	0.0473	0.2589	0.6115	-0.483
Mof_O 	O 	0.9114	0.3981	0.5743	-0.637
Mof_O 	O 	0.6818	0.7298	0.4889	-0.597
Mof_O 	O 	0.4447	0.6597	0.5325	-0.609
Mof_O 	O 	0.4427	0.1048	0.7741	-0.276
Mof_O 	O 	0.2152	0.6098	0.6936	-0.477
Mof_O 	O 	0.378	0.4966	0.7237	-0.438
Mof_O 	O 	0.9527	0.7411	0.3885	-0.483
Mof_O 	O 	0.0886	0.6019	0.4257	-0.637
Mof_O 	O 	0.3182	0.2702	0.5111	-0.597
Mof_O 	O 	0.5553	0.3403	0.4675	-0.609
Mof_O 	O 	0.5573	0.8952	0.2259	-0.276
_end
