data_functionalizedCrystal
_audit_creation_method	'EQeq! by Chris Wilmer'
_symmetry_space_group_name_H-M	'P1'
_symmetry_Int_Tables_number	1
_symmetry_cell_setting	triclinic
loop_
_symmetry_equiv_pos_as_xyz
  x,y,z
_cell_length_a	22.0611
_cell_length_b	22.0611
_cell_length_c	22.0611
_cell_angle_alpha	109.471
_cell_angle_beta	109.471
_cell_angle_gamma	109.471
loop_
_atom_site_label
_atom_site_type_symbol
_atom_site_fract_x
_atom_site_fract_y
_atom_site_fract_z
_atom_site_charge
Mof_Fe	Fe	0.40922	0.5	0.90922	0.696
Mof_Fe	Fe	0.59078	0.5	0.09078	0.688
Mof_Fe	Fe	0.90922	0.40922	0.5	0.696
Mof_Fe	Fe	0.09078	0.59078	0.5	0.688
Mof_Fe	Fe	0.5	0.09078	0.59078	0.688
Mof_Fe	Fe	0.5	0.90922	0.40922	0.696
Mof_Fe	Fe	0.5	0.59078	0.09078	0.688
Mof_Fe	Fe	0.5	0.40922	0.90922	0.696
Mof_Fe	Fe	0.59078	0.09078	0.5	0.688
Mof_Fe	Fe	0.40922	0.90922	0.5	0.696
Mof_Fe	Fe	0.90922	0.5	0.40922	0.696
Mof_Fe	Fe	0.09078	0.5	0.59078	0.688
Mof_H 	H 	0.4398	0.6874	0.887	0.051
Mof_H 	H 	0.4701	0.7999	0.8884	0.067
Mof_H 	H 	0.8004	0.5528	0.113	0.053
Mof_H 	H 	0.9115	0.5817	0.1116	0.07
Mof_H 	H 	0.1996	0.3126	0.7524	0.052
Mof_H 	H 	0.0885	0.2001	0.6702	0.068
Mof_H 	H 	0.5602	0.4472	0.2476	0.052
Mof_H 	H 	0.5299	0.4183	0.3298	0.069
Mof_H 	H 	0.7524	0.1996	0.3126	0.052
Mof_H 	H 	0.6702	0.0885	0.2001	0.068
Mof_H 	H 	0.2476	0.5602	0.4472	0.052
Mof_H 	H 	0.3298	0.5299	0.4183	0.069
Mof_H 	H 	0.887	0.4398	0.6874	0.05
Mof_H 	H 	0.8884	0.4701	0.7999	0.066
Mof_H 	H 	0.113	0.8004	0.5528	0.052
Mof_H 	H 	0.1116	0.9115	0.5817	0.069
Mof_H 	H 	0.5528	0.113	0.8004	0.052
Mof_H 	H 	0.5817	0.1116	0.9115	0.069
Mof_H 	H 	0.6874	0.887	0.4398	0.05
Mof_H 	H 	0.7999	0.8884	0.4701	0.066
Mof_H 	H 	0.4472	0.2476	0.5602	0.051
Mof_H 	H 	0.4183	0.3298	0.5299	0.068
Mof_H 	H 	0.3126	0.7524	0.1996	0.051
Mof_H 	H 	0.2001	0.6702	0.0885	0.067
Mof_H 	H 	0.3126	0.5602	0.113	0.051
Mof_H 	H 	0.2001	0.5299	0.1116	0.067
Mof_H 	H 	0.4472	0.1996	0.887	0.049
Mof_H 	H 	0.4183	0.0885	0.8884	0.065
Mof_H 	H 	0.6874	0.8004	0.2476	0.052
Mof_H 	H 	0.7999	0.9115	0.3298	0.069
Mof_H 	H 	0.5528	0.4398	0.7524	0.051
Mof_H 	H 	0.5817	0.4701	0.6702	0.068
Mof_H 	H 	0.8004	0.2476	0.6874	0.052
Mof_H 	H 	0.9115	0.3298	0.7999	0.069
Mof_H 	H 	0.4398	0.7524	0.5528	0.051
Mof_H 	H 	0.4701	0.6702	0.5817	0.068
Mof_H 	H 	0.5602	0.113	0.3126	0.051
Mof_H 	H 	0.5299	0.1116	0.2001	0.067
Mof_H 	H 	0.1996	0.887	0.4472	0.049
Mof_H 	H 	0.0885	0.8884	0.4183	0.065
Mof_H 	H 	0.887	0.4472	0.1996	0.049
Mof_H 	H 	0.8884	0.4183	0.0885	0.065
Mof_H 	H 	0.113	0.3126	0.5602	0.051
Mof_H 	H 	0.1116	0.2001	0.5299	0.067
Mof_H 	H 	0.7524	0.5528	0.4398	0.051
Mof_H 	H 	0.6702	0.5817	0.4701	0.068
Mof_H 	H 	0.2476	0.6874	0.8004	0.052
Mof_H 	H 	0.3298	0.7999	0.9115	0.069
Mof_H 	H 	0.5602	0.3126	0.113	0.051
Mof_H 	H 	0.5299	0.2001	0.1116	0.067
Mof_H 	H 	0.1996	0.4472	0.887	0.049
Mof_H 	H 	0.0885	0.4183	0.8884	0.065
Mof_H 	H 	0.8004	0.6874	0.2476	0.052
Mof_H 	H 	0.9115	0.7999	0.3298	0.069
Mof_H 	H 	0.4398	0.5528	0.7524	0.051
Mof_H 	H 	0.4701	0.5817	0.6702	0.068
Mof_H 	H 	0.2476	0.8004	0.6874	0.052
Mof_H 	H 	0.3298	0.9115	0.7999	0.069
Mof_H 	H 	0.7524	0.4398	0.5528	0.051
Mof_H 	H 	0.6702	0.4701	0.5817	0.068
Mof_H 	H 	0.113	0.5602	0.3126	0.051
Mof_H 	H 	0.1116	0.5299	0.2001	0.067
Mof_H 	H 	0.887	0.1996	0.4472	0.049
Mof_H 	H 	0.8884	0.0885	0.4183	0.065
Mof_H 	H 	0.4472	0.887	0.1996	0.049
Mof_H 	H 	0.4183	0.8884	0.0885	0.065
Mof_H 	H 	0.3126	0.113	0.5602	0.051
Mof_H 	H 	0.2001	0.1116	0.5299	0.067
Mof_H 	H 	0.5528	0.7524	0.4398	0.051
Mof_H 	H 	0.5817	0.6702	0.4701	0.068
Mof_H 	H 	0.6874	0.2476	0.8004	0.052
Mof_H 	H 	0.7999	0.3298	0.9115	0.069
Mof_H 	H 	0.6874	0.4398	0.887	0.05
Mof_H 	H 	0.7999	0.4701	0.8884	0.066
Mof_H 	H 	0.5528	0.8004	0.113	0.052
Mof_H 	H 	0.5817	0.9115	0.1116	0.069
Mof_H 	H 	0.3126	0.1996	0.7524	0.051
Mof_H 	H 	0.2001	0.0885	0.6702	0.067
Mof_H 	H 	0.4472	0.5602	0.2476	0.051
Mof_H 	H 	0.4183	0.5299	0.3298	0.068
Mof_H 	H 	0.1996	0.7524	0.3126	0.051
Mof_H 	H 	0.0885	0.6702	0.2001	0.067
Mof_H 	H 	0.5602	0.2476	0.4472	0.051
Mof_H 	H 	0.5299	0.3298	0.4183	0.068
Mof_H 	H 	0.4398	0.887	0.6874	0.05
Mof_H 	H 	0.4701	0.8884	0.7999	0.066
Mof_H 	H 	0.8004	0.113	0.5528	0.052
Mof_H 	H 	0.9115	0.1116	0.5817	0.069
Mof_H 	H 	0.113	0.5528	0.8004	0.052
Mof_H 	H 	0.1116	0.5817	0.9115	0.069
Mof_H 	H 	0.887	0.6874	0.4398	0.05
Mof_H 	H 	0.8884	0.7999	0.4701	0.066
Mof_H 	H 	0.2476	0.4472	0.5602	0.051
Mof_H 	H 	0.3298	0.4183	0.5299	0.068
Mof_H 	H 	0.7524	0.3126	0.1996	0.051
Mof_H 	H 	0.6702	0.2001	0.0885	0.067
Mof_C 	C 	0.4706	0.7329	0.9329	0.013
Mof_C 	C 	0.4897	0.8003	0.934	-0.06
Mof_C 	C 	0.8	0.5377	0.0671	0.006
Mof_C 	C 	0.8663	0.5557	0.066	-0.067
Mof_C 	C 	0.2	0.2671	0.7377	0.006
Mof_C 	C 	0.1337	0.1997	0.6894	-0.07
Mof_C 	C 	0.5294	0.4623	0.2623	0.006
Mof_C 	C 	0.5103	0.4443	0.3106	-0.07
Mof_C 	C 	0.7377	0.2	0.2671	0.006
Mof_C 	C 	0.6894	0.1337	0.1997	-0.07
Mof_C 	C 	0.2623	0.5294	0.4623	0.006
Mof_C 	C 	0.3106	0.5103	0.4443	-0.07
Mof_C 	C 	0.9329	0.4706	0.7329	0.013
Mof_C 	C 	0.934	0.4897	0.8003	-0.06
Mof_C 	C 	0.0671	0.8	0.5377	0.006
Mof_C 	C 	0.066	0.8663	0.5557	-0.067
Mof_C 	C 	0.5377	0.0671	0.8	0.006
Mof_C 	C 	0.5557	0.066	0.8663	-0.067
Mof_C 	C 	0.7329	0.9329	0.4706	0.013
Mof_C 	C 	0.8003	0.934	0.4897	-0.06
Mof_C 	C 	0.4623	0.2623	0.5294	0.006
Mof_C 	C 	0.4443	0.3106	0.5103	-0.07
Mof_C 	C 	0.2671	0.7377	0.2	0.006
Mof_C 	C 	0.1997	0.6894	0.1337	-0.07
Mof_C 	C 	0.2671	0.5294	0.0671	0.007
Mof_C 	C 	0.1997	0.5103	0.066	-0.069
Mof_C 	C 	0.4623	0.2	0.9329	0.013
Mof_C 	C 	0.4443	0.1337	0.934	-0.061
Mof_C 	C 	0.7329	0.8	0.2623	0.005
Mof_C 	C 	0.8003	0.8663	0.3106	-0.066
Mof_C 	C 	0.5377	0.4706	0.7377	0.007
Mof_C 	C 	0.5557	0.4897	0.6894	-0.07
Mof_C 	C 	0.8	0.2623	0.7329	0.005
Mof_C 	C 	0.8663	0.3106	0.8003	-0.066
Mof_C 	C 	0.4706	0.7377	0.5377	0.007
Mof_C 	C 	0.4897	0.6894	0.5557	-0.07
Mof_C 	C 	0.5294	0.0671	0.2671	0.007
Mof_C 	C 	0.5103	0.066	0.1997	-0.069
Mof_C 	C 	0.2	0.9329	0.4623	0.013
Mof_C 	C 	0.1337	0.934	0.4443	-0.061
Mof_C 	C 	0.9329	0.4623	0.2	0.013
Mof_C 	C 	0.934	0.4443	0.1337	-0.061
Mof_C 	C 	0.0671	0.2671	0.5294	0.007
Mof_C 	C 	0.066	0.1997	0.5103	-0.069
Mof_C 	C 	0.7377	0.5377	0.4706	0.007
Mof_C 	C 	0.6894	0.5557	0.4897	-0.07
Mof_C 	C 	0.2623	0.7329	0.8	0.005
Mof_C 	C 	0.3106	0.8003	0.8663	-0.066
Mof_C 	C 	0.5294	0.2671	0.0671	0.007
Mof_C 	C 	0.5103	0.1997	0.066	-0.069
Mof_C 	C 	0.2	0.4623	0.9329	0.013
Mof_C 	C 	0.1337	0.4443	0.934	-0.061
Mof_C 	C 	0.8	0.7329	0.2623	0.005
Mof_C 	C 	0.8663	0.8003	0.3106	-0.066
Mof_C 	C 	0.4706	0.5377	0.7377	0.007
Mof_C 	C 	0.4897	0.5557	0.6894	-0.07
Mof_C 	C 	0.2623	0.8	0.7329	0.005
Mof_C 	C 	0.3106	0.8663	0.8003	-0.066
Mof_C 	C 	0.7377	0.4706	0.5377	0.007
Mof_C 	C 	0.6894	0.4897	0.5557	-0.07
Mof_C 	C 	0.0671	0.5294	0.2671	0.007
Mof_C 	C 	0.066	0.5103	0.1997	-0.069
Mof_C 	C 	0.9329	0.2	0.4623	0.013
Mof_C 	C 	0.934	0.1337	0.4443	-0.061
Mof_C 	C 	0.4623	0.9329	0.2	0.013
Mof_C 	C 	0.4443	0.934	0.1337	-0.061
Mof_C 	C 	0.2671	0.0671	0.5294	0.007
Mof_C 	C 	0.1997	0.066	0.5103	-0.069
Mof_C 	C 	0.5377	0.7377	0.4706	0.007
Mof_C 	C 	0.5557	0.6894	0.4897	-0.07
Mof_C 	C 	0.7329	0.2623	0.8	0.005
Mof_C 	C 	0.8003	0.3106	0.8663	-0.066
Mof_C 	C 	0.7329	0.4706	0.9329	0.013
Mof_C 	C 	0.8003	0.4897	0.934	-0.06
Mof_C 	C 	0.5377	0.8	0.0671	0.006
Mof_C 	C 	0.5557	0.8663	0.066	-0.067
Mof_C 	C 	0.2671	0.2	0.7377	0.006
Mof_C 	C 	0.1997	0.1337	0.6894	-0.07
Mof_C 	C 	0.4623	0.5294	0.2623	0.006
Mof_C 	C 	0.4443	0.5103	0.3106	-0.07
Mof_C 	C 	0.2	0.7377	0.2671	0.006
Mof_C 	C 	0.1337	0.6894	0.1997	-0.07
Mof_C 	C 	0.5294	0.2623	0.4623	0.006
Mof_C 	C 	0.5103	0.3106	0.4443	-0.07
Mof_C 	C 	0.4706	0.9329	0.7329	0.013
Mof_C 	C 	0.4897	0.934	0.8003	-0.06
Mof_C 	C 	0.8	0.0671	0.5377	0.006
Mof_C 	C 	0.8663	0.066	0.5557	-0.067
Mof_C 	C 	0.0671	0.5377	0.8	0.006
Mof_C 	C 	0.066	0.5557	0.8663	-0.067
Mof_C 	C 	0.9329	0.7329	0.4706	0.013
Mof_C 	C 	0.934	0.8003	0.4897	-0.06
Mof_C 	C 	0.2623	0.4623	0.5294	0.006
Mof_C 	C 	0.3106	0.4443	0.5103	-0.07
Mof_C 	C 	0.7377	0.2671	0.2	0.006
Mof_C 	C 	0.6894	0.1997	0.1337	-0.07
Mof_C 	C 	0.4767	0.6693	-0	0.225
Mof_C 	C 	0.4971	0.7327	-0	-0.084
Mof_C 	C 	0.53669	0.86831	-0	0.01
Mof_C 	C 	0.5571	0.9355	-0	0.105
Mof_C 	C 	0.6693	0.4767	-0	0.225
Mof_C 	C 	0.7327	0.4971	-0	-0.084
Mof_C 	C 	0.86831	0.53669	-0	0.01
Mof_C 	C 	0.9355	0.5571	-0	0.105
Mof_C 	C 	0.3307	0.3307	0.8074	0.231
Mof_C 	C 	0.2673	0.2673	0.7644	-0.078
Mof_C 	C 	0.13169	0.13169	0.66838	0.019
Mof_C 	C 	0.0645	0.0645	0.6216	0.099
Mof_C 	C 	0.5233	0.5233	0.1926	0.23
Mof_C 	C 	0.5029	0.5029	0.2356	-0.078
Mof_C 	C 	0.46331	0.46331	0.33162	0.019
Mof_C 	C 	0.4429	0.4429	0.3784	0.101
Mof_C 	C 	0.8074	0.3307	0.3307	0.231
Mof_C 	C 	0.7644	0.2673	0.2673	-0.078
Mof_C 	C 	0.66838	0.13169	0.13169	0.019
Mof_C 	C 	0.6216	0.0645	0.0645	0.099
Mof_C 	C 	0.1926	0.5233	0.5233	0.23
Mof_C 	C 	0.2356	0.5029	0.5029	-0.078
Mof_C 	C 	0.33162	0.46331	0.46331	0.019
Mof_C 	C 	0.3784	0.4429	0.4429	0.101
Mof_C 	C 	1.37546e-17	0.4767	0.6693	0.225
Mof_C 	C 	5.50183e-17	0.4971	0.7327	-0.084
Mof_C 	C 	-2.75091e-17	0.53669	0.86831	0.01
Mof_C 	C 	-8.25274e-17	0.5571	0.9355	0.105
Mof_C 	C 	-2.75091e-17	0.6693	0.4767	0.225
Mof_C 	C 	-1.37546e-17	0.7327	0.4971	-0.084
Mof_C 	C 	4.12637e-17	0.86831	0.53669	0.01
Mof_C 	C 	-6.87729e-17	0.9355	0.5571	0.105
Mof_C 	C 	0.4767	-5.50183e-17	0.6693	0.225
Mof_C 	C 	0.4971	0	0.7327	-0.084
Mof_C 	C 	0.53669	-5.50183e-17	0.86831	0.01
Mof_C 	C 	0.5571	-1.10037e-16	0.9355	0.105
Mof_C 	C 	0.6693	-5.50183e-17	0.4767	0.225
Mof_C 	C 	0.7327	-5.50183e-17	0.4971	-0.084
Mof_C 	C 	0.86831	0	0.53669	0.01
Mof_C 	C 	0.9355	-5.50183e-17	0.5571	0.105
Mof_C 	C 	0.5233	0.1926	0.5233	0.23
Mof_C 	C 	0.5029	0.2356	0.5029	-0.078
Mof_C 	C 	0.46331	0.33162	0.46331	0.019
Mof_C 	C 	0.4429	0.3784	0.4429	0.101
Mof_C 	C 	0.3307	0.8074	0.3307	0.231
Mof_C 	C 	0.2673	0.7644	0.2673	-0.078
Mof_C 	C 	0.13169	0.66838	0.13169	0.019
Mof_C 	C 	0.0645	0.6216	0.0645	0.099
Mof_C 	C 	0.3307	0.5233	-0	0.225
Mof_C 	C 	0.2673	0.5029	-0	-0.085
Mof_C 	C 	0.13169	0.46331	-0	0.011
Mof_C 	C 	0.0645	0.4429	-0	0.096
Mof_C 	C 	0.5233	0.3307	-0	0.225
Mof_C 	C 	0.5029	0.2673	-0	-0.085
Mof_C 	C 	0.46331	0.13169	-0	0.011
Mof_C 	C 	0.4429	0.0645	-0	0.096
Mof_C 	C 	0.6693	0.6693	0.1926	0.23
Mof_C 	C 	0.7327	0.7327	0.2356	-0.076
Mof_C 	C 	0.86831	0.86831	0.33162	0.016
Mof_C 	C 	0.9355	0.9355	0.3784	0.116
Mof_C 	C 	0.4767	0.4767	0.8074	0.232
Mof_C 	C 	0.4971	0.4971	0.7644	-0.078
Mof_C 	C 	0.53669	0.53669	0.66838	0.02
Mof_C 	C 	0.5571	0.5571	0.6216	0.102
Mof_C 	C 	0.6693	0.1926	0.6693	0.23
Mof_C 	C 	0.7327	0.2356	0.7327	-0.076
Mof_C 	C 	0.86831	0.33162	0.86831	0.016
Mof_C 	C 	0.9355	0.3784	0.9355	0.116
Mof_C 	C 	0.4767	0.8074	0.4767	0.232
Mof_C 	C 	0.4971	0.7644	0.4971	-0.078
Mof_C 	C 	0.53669	0.66838	0.53669	0.02
Mof_C 	C 	0.5571	0.6216	0.5571	0.102
Mof_C 	C 	0.5233	-2.75091e-17	0.3307	0.225
Mof_C 	C 	0.5029	0	0.2673	-0.085
Mof_C 	C 	0.46331	0	0.13169	0.011
Mof_C 	C 	0.4429	0	0.0645	0.096
Mof_C 	C 	0.3307	0	0.5233	0.225
Mof_C 	C 	0.2673	0	0.5029	-0.085
Mof_C 	C 	0.13169	-2.75091e-17	0.46331	0.011
Mof_C 	C 	0.0645	-2.75091e-17	0.4429	0.096
Mof_C 	C 	-3.43864e-17	0.5233	0.3307	0.225
Mof_C 	C 	-4.8141e-17	0.5029	0.2673	-0.085
Mof_C 	C 	1.37546e-17	0.46331	0.13169	0.011
Mof_C 	C 	-1.71932e-17	0.4429	0.0645	0.096
Mof_C 	C 	-1.37546e-17	0.3307	0.5233	0.225
Mof_C 	C 	-0	0.2673	0.5029	-0.085
Mof_C 	C 	-2.75091e-17	0.13169	0.46331	0.011
Mof_C 	C 	-2.75091e-17	0.0645	0.4429	0.096
Mof_C 	C 	0.8074	0.4767	0.4767	0.232
Mof_C 	C 	0.7644	0.4971	0.4971	-0.078
Mof_C 	C 	0.66838	0.53669	0.53669	0.02
Mof_C 	C 	0.6216	0.5571	0.5571	0.102
Mof_C 	C 	0.1926	0.6693	0.6693	0.23
Mof_C 	C 	0.2356	0.7327	0.7327	-0.076
Mof_C 	C 	0.33162	0.86831	0.86831	0.016
Mof_C 	C 	0.3784	0.9355	0.9355	0.116
Mof_N 	N 	0.6035	0	0.0687	-0.137
Mof_N 	N 	0.9313	0.5348	0.9313	-0.126
Mof_N 	N 	0.0687	0	0.6035	-0.137
Mof_N 	N 	0.3965	0.4652	0.3965	-0.132
Mof_N 	N 	0.6035	0.0687	-0	-0.137
Mof_N 	N 	0.3965	0.3965	0.4652	-0.132
Mof_N 	N 	0.0687	0.6035	-0	-0.137
Mof_N 	N 	0.9313	0.9313	0.5348	-0.126
Mof_N 	N 	0.5348	0.9313	0.9313	-0.126
Mof_N 	N 	-0	0.0687	0.6035	-0.137
Mof_N 	N 	0.4652	0.3965	0.3965	-0.132
Mof_N 	N 	-8.59661e-18	0.6035	0.0687	-0.137
Mof_N 	N 	-8.25274e-17	0.3965	0.9313	-0.134
Mof_N 	N 	0.4652	0.0687	0.0687	-0.132
Mof_N 	N 	-6.87729e-17	0.9313	0.3965	-0.134
Mof_N 	N 	0.5348	0.6035	0.6035	-0.131
Mof_N 	N 	0.9313	0.3965	-0	-0.134
Mof_N 	N 	0.6035	0.6035	0.5348	-0.131
Mof_N 	N 	0.3965	0.9313	-0	-0.134
Mof_N 	N 	0.0687	0.0687	0.4652	-0.132
Mof_N 	N 	0.0687	0.4652	0.0687	-0.132
Mof_N 	N 	0.9313	-2.75091e-17	0.3965	-0.134
Mof_N 	N 	0.6035	0.5348	0.6035	-0.131
Mof_N 	N 	0.3965	-5.50183e-17	0.9313	-0.134
Mof_O 	O 	0.4273	0.6008	0.9317	-0.294
Mof_O 	O 	0.6691	0.4956	0.0683	-0.299
Mof_O 	O 	0.3309	0.3992	0.8265	-0.3
Mof_O 	O 	0.5727	0.5044	0.1735	-0.299
Mof_O 	O 	0.8265	0.3309	0.3992	-0.3
Mof_O 	O 	0.1735	0.5727	0.5044	-0.299
Mof_O 	O 	0.9317	0.4273	0.6008	-0.294
Mof_O 	O 	0.0683	0.6691	0.4956	-0.299
Mof_O 	O 	0.4956	0.0683	0.6691	-0.299
Mof_O 	O 	0.6008	0.9317	0.4273	-0.294
Mof_O 	O 	0.5044	0.1735	0.5727	-0.299
Mof_O 	O 	0.3992	0.8265	0.3309	-0.3
Mof_O 	O 	0.3992	0.5727	0.0683	-0.3
Mof_O 	O 	0.5044	0.3309	0.9317	-0.295
Mof_O 	O 	0.6008	0.6691	0.1735	-0.299
Mof_O 	O 	0.4956	0.4273	0.8265	-0.3
Mof_O 	O 	0.6691	0.1735	0.6008	-0.299
Mof_O 	O 	0.4273	0.8265	0.4956	-0.3
Mof_O 	O 	0.5727	0.0683	0.3992	-0.3
Mof_O 	O 	0.3309	0.9317	0.5044	-0.295
Mof_O 	O 	0.9317	0.5044	0.3309	-0.295
Mof_O 	O 	0.0683	0.3992	0.5727	-0.3
Mof_O 	O 	0.8265	0.4956	0.4273	-0.3
Mof_O 	O 	0.1735	0.6008	0.6691	-0.299
Mof_O 	O 	0.5727	0.3992	0.0683	-0.3
Mof_O 	O 	0.3309	0.5044	0.9317	-0.295
Mof_O 	O 	0.6691	0.6008	0.1735	-0.299
Mof_O 	O 	0.4273	0.4956	0.8265	-0.3
Mof_O 	O 	0.1735	0.6691	0.6008	-0.299
Mof_O 	O 	0.8265	0.4273	0.4956	-0.3
Mof_O 	O 	0.0683	0.5727	0.3992	-0.3
Mof_O 	O 	0.9317	0.3309	0.5044	-0.295
Mof_O 	O 	0.5044	0.9317	0.3309	-0.295
Mof_O 	O 	0.3992	0.0683	0.5727	-0.3
Mof_O 	O 	0.4956	0.8265	0.4273	-0.3
Mof_O 	O 	0.6008	0.1735	0.6691	-0.299
Mof_O 	O 	0.6008	0.4273	0.9317	-0.294
Mof_O 	O 	0.4956	0.6691	0.0683	-0.299
Mof_O 	O 	0.3992	0.3309	0.8265	-0.3
Mof_O 	O 	0.5044	0.5727	0.1735	-0.299
Mof_O 	O 	0.3309	0.8265	0.3992	-0.3
Mof_O 	O 	0.5727	0.1735	0.5044	-0.299
Mof_O 	O 	0.4273	0.9317	0.6008	-0.294
Mof_O 	O 	0.6691	0.0683	0.4956	-0.299
Mof_O 	O 	0.0683	0.4956	0.6691	-0.299
Mof_O 	O 	0.9317	0.6008	0.4273	-0.294
Mof_O 	O 	0.1735	0.5044	0.5727	-0.299
Mof_O 	O 	0.8265	0.3992	0.3309	-0.3
_end
