data_functionalizedCrystal
_audit_creation_method	'EQeq! by Chris Wilmer'
_symmetry_space_group_name_H-M	'P1'
_symmetry_Int_Tables_number	1
_symmetry_cell_setting	triclinic
loop_
_symmetry_equiv_pos_as_xyz
  x,y,z
_cell_length_a	15.444
_cell_length_b	17.895
_cell_length_c	8.979
_cell_angle_alpha	90
_cell_angle_beta	90
_cell_angle_gamma	90
loop_
_atom_site_label
_atom_site_type_symbol
_atom_site_fract_x
_atom_site_fract_y
_atom_site_fract_z
_atom_site_charge
Mof_Zn	Zn	0.08578	0.39508	0.05717	1.229
Mof_P 	P 	0.98674	0.51468	0.23076	0.458
Mof_O 	O 	0.0738	0.48	0.1954	-0.419
Mof_O 	O 	0.9645	0.5807	0.1351	-0.428
Mof_O 	O 	0.9809	0.5375	0.3934	-0.194
Mof_O 	O 	0.7087	0.3921	0.497	-0.44
Mof_O 	O 	0.7282	0.3595	0.2627	-0.303
Mof_N 	N 	0.9081	0.3781	0.2901	-0.059
Mof_N 	N 	0.0041	0.3163	0.1368	-0.295
Mof_C 	C 	0.9051	0.444	0.1932	-0.263
Mof_H 	H 	0.8485	0.4669	0.2024	0.136
Mof_H 	H 	0.9115	0.4276	0.0908	0.092
Mof_C 	C 	0.8521	0.3801	0.4189	-0.297
Mof_H 	H 	0.8635	0.4259	0.4733	0.167
Mof_H 	H 	0.8672	0.3387	0.4836	0.155
Mof_C 	C 	0.7566	0.376	0.386	0.399
Mof_C 	C 	0.9437	0.3129	0.2447	0.192
Mof_Zn	Zn	0.41422	0.60492	0.55717	1.229
Mof_P 	P 	0.51326	0.48532	0.73076	0.455
Mof_O 	O 	0.4262	0.52	0.6954	-0.417
Mof_O 	O 	0.5355	0.4193	0.6351	-0.43
Mof_O 	O 	0.5191	0.4625	0.8934	-0.193
Mof_O 	O 	0.7913	0.6079	0.997	-0.442
Mof_O 	O 	0.7718	0.6405	0.7627	-0.304
Mof_N 	N 	0.5919	0.6219	0.7901	-0.059
Mof_N 	N 	0.4959	0.6837	0.6368	-0.293
Mof_C 	C 	0.5949	0.556	0.6932	-0.263
Mof_H 	H 	0.6515	0.5331	0.7024	0.135
Mof_H 	H 	0.5885	0.5724	0.5908	0.09
Mof_C 	C 	0.6479	0.6199	0.9189	-0.298
Mof_H 	H 	0.6365	0.5741	0.9733	0.167
Mof_H 	H 	0.6328	0.6613	0.9836	0.155
Mof_C 	C 	0.7434	0.624	0.886	0.399
Mof_C 	C 	0.5563	0.6871	0.7447	0.189
Mof_Zn	Zn	0.91422	0.89508	0.94283	1.227
Mof_P 	P 	0.01326	0.01468	0.76924	0.459
Mof_O 	O 	0.9262	0.98	0.8046	-0.42
Mof_O 	O 	0.0355	0.0807	0.8649	-0.428
Mof_O 	O 	0.0191	0.0375	0.6066	-0.194
Mof_O 	O 	0.2913	0.8921	0.503	-0.44
Mof_O 	O 	0.2718	0.8595	0.7373	-0.303
Mof_N 	N 	0.0919	0.8781	0.7099	-0.059
Mof_N 	N 	0.9959	0.8163	0.8632	-0.295
Mof_C 	C 	0.0949	0.944	0.8068	-0.264
Mof_H 	H 	0.1515	0.9669	0.7976	0.136
Mof_H 	H 	0.0885	0.9276	0.9092	0.091
Mof_C 	C 	0.1479	0.8801	0.5811	-0.297
Mof_H 	H 	0.1365	0.9259	0.5267	0.167
Mof_H 	H 	0.1328	0.8387	0.5164	0.155
Mof_C 	C 	0.2434	0.876	0.614	0.399
Mof_C 	C 	0.0563	0.8129	0.7553	0.191
Mof_Zn	Zn	0.58578	0.10492	0.44283	1.229
Mof_P 	P 	0.48674	0.98532	0.26924	0.457
Mof_O 	O 	0.5738	0.02	0.3046	-0.418
Mof_O 	O 	0.4645	0.9193	0.3649	-0.43
Mof_O 	O 	0.4809	0.9625	0.1066	-0.192
Mof_O 	O 	0.2087	0.1079	0.003	-0.442
Mof_O 	O 	0.2282	0.1405	0.2373	-0.304
Mof_N 	N 	0.4081	0.1219	0.2099	-0.059
Mof_N 	N 	0.5041	0.1837	0.3632	-0.293
Mof_C 	C 	0.4051	0.056	0.3068	-0.264
Mof_H 	H 	0.3485	0.0331	0.2976	0.136
Mof_H 	H 	0.4115	0.0724	0.4092	0.091
Mof_C 	C 	0.3521	0.1199	0.0811	-0.297
Mof_H 	H 	0.3635	0.0741	0.0267	0.166
Mof_H 	H 	0.3672	0.1613	0.0164	0.154
Mof_C 	C 	0.2566	0.124	0.114	0.399
Mof_C 	C 	0.4437	0.1871	0.2553	0.189
Mof_Zn	Zn	0.91422	0.60492	0.94283	1.228
Mof_P 	P 	0.01326	0.48532	0.76924	0.457
Mof_O 	O 	0.9262	0.52	0.8046	-0.419
Mof_O 	O 	0.0355	0.4193	0.8649	-0.428
Mof_O 	O 	0.0191	0.4625	0.6066	-0.194
Mof_O 	O 	0.2913	0.6079	0.503	-0.44
Mof_O 	O 	0.2718	0.6405	0.7373	-0.303
Mof_N 	N 	0.0919	0.6219	0.7099	-0.059
Mof_N 	N 	0.9959	0.6837	0.8632	-0.295
Mof_C 	C 	0.0949	0.556	0.8068	-0.263
Mof_H 	H 	0.1515	0.5331	0.7976	0.136
Mof_H 	H 	0.0885	0.5724	0.9092	0.092
Mof_C 	C 	0.1479	0.6199	0.5811	-0.297
Mof_H 	H 	0.1365	0.5741	0.5267	0.167
Mof_H 	H 	0.1328	0.6613	0.5164	0.155
Mof_C 	C 	0.2434	0.624	0.614	0.399
Mof_C 	C 	0.0563	0.6871	0.7553	0.192
Mof_Zn	Zn	0.58578	0.39508	0.44283	1.229
Mof_P 	P 	0.48674	0.51468	0.26924	0.455
Mof_O 	O 	0.5738	0.48	0.3046	-0.417
Mof_O 	O 	0.4645	0.5807	0.3649	-0.43
Mof_O 	O 	0.4809	0.5375	0.1066	-0.193
Mof_O 	O 	0.2087	0.3921	0.003	-0.442
Mof_O 	O 	0.2282	0.3595	0.2373	-0.304
Mof_N 	N 	0.4081	0.3781	0.2099	-0.059
Mof_N 	N 	0.5041	0.3163	0.3632	-0.293
Mof_C 	C 	0.4051	0.444	0.3068	-0.263
Mof_H 	H 	0.3485	0.4669	0.2976	0.135
Mof_H 	H 	0.4115	0.4276	0.4092	0.09
Mof_C 	C 	0.3521	0.3801	0.0811	-0.298
Mof_H 	H 	0.3635	0.4259	0.0267	0.167
Mof_H 	H 	0.3672	0.3387	0.0164	0.155
Mof_C 	C 	0.2566	0.376	0.114	0.399
Mof_C 	C 	0.4437	0.3129	0.2553	0.189
Mof_Zn	Zn	0.08578	0.10492	0.05717	1.227
Mof_P 	P 	0.98674	0.98532	0.23076	0.459
Mof_O 	O 	0.0738	0.02	0.1954	-0.42
Mof_O 	O 	0.9645	0.9193	0.1351	-0.428
Mof_O 	O 	0.9809	0.9625	0.3934	-0.194
Mof_O 	O 	0.7087	0.1079	0.497	-0.44
Mof_O 	O 	0.7282	0.1405	0.2627	-0.303
Mof_N 	N 	0.9081	0.1219	0.2901	-0.059
Mof_N 	N 	0.0041	0.1837	0.1368	-0.295
Mof_C 	C 	0.9051	0.056	0.1932	-0.264
Mof_H 	H 	0.8485	0.0331	0.2024	0.136
Mof_H 	H 	0.9115	0.0724	0.0908	0.091
Mof_C 	C 	0.8521	0.1199	0.4189	-0.297
Mof_H 	H 	0.8635	0.0741	0.4733	0.167
Mof_H 	H 	0.8672	0.1613	0.4836	0.155
Mof_C 	C 	0.7566	0.124	0.386	0.399
Mof_C 	C 	0.9437	0.1871	0.2447	0.191
Mof_Zn	Zn	0.41422	0.89508	0.55717	1.229
Mof_P 	P 	0.51326	0.01468	0.73076	0.457
Mof_O 	O 	0.4262	0.98	0.6954	-0.418
Mof_O 	O 	0.5355	0.0807	0.6351	-0.43
Mof_O 	O 	0.5191	0.0375	0.8934	-0.192
Mof_O 	O 	0.7913	0.8921	0.997	-0.442
Mof_O 	O 	0.7718	0.8595	0.7627	-0.304
Mof_N 	N 	0.5919	0.8781	0.7901	-0.059
Mof_N 	N 	0.4959	0.8163	0.6368	-0.293
Mof_C 	C 	0.5949	0.944	0.6932	-0.264
Mof_H 	H 	0.6515	0.9669	0.7024	0.136
Mof_H 	H 	0.5885	0.9276	0.5908	0.091
Mof_C 	C 	0.6479	0.8801	0.9189	-0.297
Mof_H 	H 	0.6365	0.9259	0.9733	0.166
Mof_H 	H 	0.6328	0.8387	0.9836	0.154
Mof_C 	C 	0.7434	0.876	0.886	0.399
Mof_C 	C 	0.5563	0.8129	0.7447	0.189
Mof_O 	O 	0.0954	0.25	0.9951	-0.327
Mof_N 	N 	0.9152	0.25	0.305	-0.156
Mof_C 	C 	0.0366	0.25	0.0871	0.235
Mof_O 	O 	0.4046	0.75	0.4951	-0.334
Mof_N 	N 	0.5848	0.75	0.805	-0.156
Mof_C 	C 	0.4634	0.75	0.5871	0.242
Mof_O 	O 	0.9046	0.75	0.0049	-0.327
Mof_N 	N 	0.0848	0.75	0.695	-0.156
Mof_C 	C 	0.9634	0.75	0.9129	0.235
Mof_O 	O 	0.5954	0.25	0.5049	-0.334
Mof_N 	N 	0.4152	0.25	0.195	-0.156
Mof_C 	C 	0.5366	0.25	0.4129	0.242
_end
