# CIF file generated by openbabel 3.1.0, see https://openbabel.org
data_I
_chemical_name_common 'NAGQET_clean'
_cell_length_a 9.1985
_cell_length_b 15.9576
_cell_length_c 16.0966
_cell_angle_alpha 73.171
_cell_angle_beta 74.44
_cell_angle_gamma 76.392
_space_group_name_H-M_alt 'P 1'
_space_group_name_Hall 'P 1'
loop_
    _symmetry_equiv_pos_as_xyz
    x,y,z
loop_
    _atom_site_label
    _atom_site_type_symbol
    _atom_site_fract_x
    _atom_site_fract_y
    _atom_site_fract_z
    _atom_site_occupancy
    Co1      Co       0.50000    0.50000    0.00000    1.000
    Co2      Co       0.00000    0.00000    0.50000    1.000
    Co3      Co       0.00000    0.50000    0.50000    1.000
    H1       H        0.97390    0.67590    0.02980    1.000
    H2       H        0.96280    0.73110    0.15130    1.000
    H3       H        0.17240    0.69150    0.21560    1.000
    H4       H        0.38650    0.60180    0.16030    1.000
    H5       H        0.18270    0.38880    0.64220    1.000
    H6       H        0.25960    0.39780    0.76230    1.000
    H7       H        0.98250    0.63120    0.75590    1.000
    H8       H        0.91580    0.61770    0.63390    1.000
    H9       H        0.95140    0.01080    0.81220    1.000
    H10      H        0.10150    0.11710    0.78910    1.000
    H11      H        0.21430    0.18370    0.64350    1.000
    H12      H        0.17500    0.14160    0.52900    1.000
    H13      H        0.63290    0.65770    0.99400    1.000
    H14      H        0.73210    0.77770    0.90420    1.000
    H15      H        0.65200    0.72030    0.69860    1.000
    H16      H        0.55270    0.60030    0.79380    1.000
    H17      H        0.49130    0.41590    0.64860    1.000
    H18      H        0.56070    0.26240    0.68210    1.000
    H19      H        0.81740    0.20080    0.64220    1.000
    H20      H        0.99200    0.29230    0.57010    1.000
    H21      H        0.36200    0.95850    0.45880    1.000
    H22      H        0.56260    0.84580    0.47370    1.000
    H23      H        0.26870    0.67950    0.59790    1.000
    H24      H        0.07510    0.79710    0.58040    1.000
    H25      H        0.02610    0.32410    0.97020    1.000
    H26      H        0.03720    0.26890    0.84870    1.000
    H27      H        0.82760    0.30850    0.78440    1.000
    H28      H        0.61350    0.39820    0.83970    1.000
    H29      H        0.81730    0.61120    0.35780    1.000
    H30      H        0.74040    0.60220    0.23770    1.000
    H31      H        0.01750    0.36880    0.24410    1.000
    H32      H        0.08420    0.38230    0.36610    1.000
    H33      H        0.04860    0.98920    0.18780    1.000
    H34      H        0.89850    0.88290    0.21090    1.000
    H35      H        0.78570    0.81630    0.35650    1.000
    H36      H        0.82500    0.85840    0.47100    1.000
    H37      H        0.36710    0.34230    0.00600    1.000
    H38      H        0.26790    0.22230    0.09580    1.000
    H39      H        0.34800    0.27970    0.30140    1.000
    H40      H        0.44730    0.39970    0.20620    1.000
    H41      H        0.50870    0.58410    0.35140    1.000
    H42      H        0.43930    0.73760    0.31790    1.000
    H43      H        0.18260    0.79920    0.35780    1.000
    H44      H        0.00800    0.70770    0.42990    1.000
    H45      H        0.63800    0.04150    0.54120    1.000
    H46      H        0.43740    0.15420    0.52630    1.000
    H47      H        0.73130    0.32050    0.40210    1.000
    H48      H        0.92490    0.20290    0.41960    1.000
    C1       C        0.18780    0.52600    0.84590    1.000
    C2       C        0.20770    0.56750    0.95230    1.000
    C3       C        0.18870    0.60700    0.02610    1.000
    C4       C        0.05690    0.66140    0.05700    1.000
    C5       C        0.05010    0.69410    0.12920    1.000
    C6       C        0.17470    0.67070    0.16690    1.000
    C7       C        0.30300    0.61680    0.13350    1.000
    C8       C        0.14320    0.43910    0.66460    1.000
    C9       C        0.18980    0.44390    0.73690    1.000
    C10      C        0.13300    0.51690    0.77170    1.000
    C11      C        0.02690    0.58170    0.73290    1.000
    C12      C        0.98660    0.57280    0.65980    1.000
    C13      C        0.77610    0.83920    0.73170    1.000
    C14      C        0.89320    0.94650    0.69010    1.000
    C15      C        0.98020    0.01370    0.68310    1.000
    C16      C        0.99850    0.03740    0.75490    1.000
    C17      C        0.08700    0.10090    0.74120    1.000
    C18      C        0.15440    0.14050    0.65470    1.000
    C19      C        0.13060    0.11450    0.58680    1.000
    C20      C        0.63650    0.67020    0.93340    1.000
    C21      C        0.69650    0.74240    0.87980    1.000
    C22      C        0.70510    0.76370    0.79010    1.000
    C23      C        0.64940    0.70870    0.75900    1.000
    C24      C        0.58960    0.63650    0.81650    1.000
    C25      C        0.56480    0.67050    0.54290    1.000
    C26      C        0.67140    0.53820    0.56790    1.000
    C27      C        0.70430    0.44130    0.59180    1.000
    C28      C        0.59320    0.38960    0.63360    1.000
    C29      C        0.63410    0.29860    0.65330    1.000
    C30      C        0.78620    0.26210    0.62940    1.000
    C31      C        0.88980    0.31730    0.58670    1.000
    C32      C        0.34220    0.90140    0.48690    1.000
    C33      C        0.46350    0.83360    0.49550    1.000
    C34      C        0.44190    0.74830    0.53560    1.000
    C35      C        0.29120    0.73590    0.56860    1.000
    C36      C        0.17520    0.80740    0.55760    1.000
    C37      C        0.81220    0.47400    0.15410    1.000
    C38      C        0.79230    0.43250    0.04770    1.000
    C39      C        0.81130    0.39300    0.97390    1.000
    C40      C        0.94310    0.33860    0.94300    1.000
    C41      C        0.94990    0.30590    0.87080    1.000
    C42      C        0.82530    0.32930    0.83310    1.000
    C43      C        0.69700    0.38320    0.86650    1.000
    C44      C        0.85680    0.56090    0.33540    1.000
    C45      C        0.81020    0.55610    0.26310    1.000
    C46      C        0.86700    0.48310    0.22830    1.000
    C47      C        0.97310    0.41830    0.26710    1.000
    C48      C        0.01340    0.42720    0.34020    1.000
    C49      C        0.22390    0.16080    0.26830    1.000
    C50      C        0.10680    0.05350    0.30990    1.000
    C51      C        0.01980    0.98630    0.31690    1.000
    C52      C        0.00150    0.96260    0.24510    1.000
    C53      C        0.91300    0.89910    0.25880    1.000
    C54      C        0.84560    0.85950    0.34530    1.000
    C55      C        0.86940    0.88550    0.41320    1.000
    C56      C        0.36350    0.32980    0.06660    1.000
    C57      C        0.30350    0.25760    0.12020    1.000
    C58      C        0.29490    0.23630    0.20990    1.000
    C59      C        0.35060    0.29130    0.24100    1.000
    C60      C        0.41040    0.36350    0.18350    1.000
    C61      C        0.43520    0.32950    0.45710    1.000
    C62      C        0.32860    0.46180    0.43210    1.000
    C63      C        0.29570    0.55870    0.40820    1.000
    C64      C        0.40680    0.61040    0.36640    1.000
    C65      C        0.36590    0.70140    0.34670    1.000
    C66      C        0.21380    0.73790    0.37060    1.000
    C67      C        0.11020    0.68270    0.41330    1.000
    C68      C        0.65780    0.09860    0.51310    1.000
    C69      C        0.53650    0.16640    0.50450    1.000
    C70      C        0.55810    0.25170    0.46440    1.000
    C71      C        0.70880    0.26410    0.43140    1.000
    C72      C        0.82480    0.19260    0.44240    1.000
    N1       N        0.33580    0.51160    0.93150    1.000
    N2       N        0.32500    0.48320    0.86220    1.000
    N3       N        0.11070    0.58050    0.89910    1.000
    N4       N        0.31250    0.58490    0.06340    1.000
    N5       N        0.04410    0.50300    0.62460    1.000
    N6       N        0.87300    0.93180    0.61640    1.000
    N7       N        0.79590    0.86130    0.64320    1.000
    N8       N        0.83430    0.89050    0.76460    1.000
    N9       N        0.04670    0.05180    0.59820    1.000
    N10      N        0.58270    0.61640    0.90400    1.000
    N11      N        0.78310    0.58540    0.52570    1.000
    N12      N        0.71450    0.67240    0.50920    1.000
    N13      N        0.53170    0.58740    0.58000    1.000
    N14      N        0.85200    0.40570    0.56760    1.000
    N15      N        0.19590    0.88970    0.51700    1.000
    N16      N        0.66420    0.48840    0.06850    1.000
    N17      N        0.67500    0.51680    0.13780    1.000
    N18      N        0.88930    0.41950    0.10090    1.000
    N19      N        0.68750    0.41510    0.93660    1.000
    N20      N        0.95590    0.49700    0.37540    1.000
    N21      N        0.12700    0.06820    0.38360    1.000
    N22      N        0.20410    0.13870    0.35680    1.000
    N23      N        0.16570    0.10950    0.23540    1.000
    N24      N        0.95330    0.94820    0.40180    1.000
    N25      N        0.41730    0.38360    0.09600    1.000
    N26      N        0.21690    0.41460    0.47430    1.000
    N27      N        0.28550    0.32760    0.49080    1.000
    N28      N        0.46830    0.41260    0.42000    1.000
    N29      N        0.14800    0.59430    0.43240    1.000
    N30      N        0.80410    0.11030    0.48300    1.000
