# CIF file generated by openbabel 3.1.0, see https://openbabel.org
data_I
_chemical_name_common 'image0'
_cell_length_a 24.8606
_cell_length_b 24.8606
_cell_length_c 4.8016
_cell_angle_alpha 90
_cell_angle_beta 90
_cell_angle_gamma 90
_space_group_name_H-M_alt 'P 1'
_space_group_name_Hall 'P 1'
loop_
    _symmetry_equiv_pos_as_xyz
    x,y,z
loop_
    _atom_site_label
    _atom_site_type_symbol
    _atom_site_fract_x
    _atom_site_fract_y
    _atom_site_fract_z
    _atom_site_occupancy
    N1       N        0.03180    0.93180    0.76880    1.000
    C1       C        0.03680    0.85600    0.13350    1.000
    C2       C        0.08530    0.83540    0.23200    1.000
    H1       H        0.11840    0.85020    0.16980    1.000
    C3       C        0.08510    0.79390    0.41880    1.000
    H2       H        0.11850    0.77940    0.47800    1.000
    C4       C        0.03870    0.77240    0.52370    1.000
    C5       C        0.99130    0.79440    0.42350    1.000
    H3       H        0.95810    0.78080    0.49280    1.000
    C6       C        0.98980    0.83440    0.23100    1.000
    H4       H        0.95630    0.84730    0.16420    1.000
    C7       C        0.03500    0.89810    0.93230    1.000
    N2       N        0.53180    0.43180    0.26880    1.000
    C8       C        0.53680    0.35600    0.63350    1.000
    C9       C        0.58530    0.33540    0.73200    1.000
    H5       H        0.61840    0.35020    0.66980    1.000
    C10      C        0.58510    0.29390    0.91880    1.000
    H6       H        0.61850    0.27940    0.97800    1.000
    C11      C        0.53870    0.27240    0.02370    1.000
    C12      C        0.49130    0.29440    0.92350    1.000
    H7       H        0.45810    0.28080    0.99280    1.000
    C13      C        0.48980    0.33440    0.73100    1.000
    H8       H        0.45630    0.34730    0.66420    1.000
    C14      C        0.53500    0.39810    0.43230    1.000
    N3       N        0.96820    0.06820    0.76880    1.000
    C15      C        0.96320    0.14400    0.13350    1.000
    C16      C        0.91470    0.16460    0.23200    1.000
    H9       H        0.88160    0.14980    0.16980    1.000
    C17      C        0.91490    0.20610    0.41880    1.000
    H10      H        0.88150    0.22060    0.47800    1.000
    C18      C        0.96130    0.22760    0.52370    1.000
    C19      C        0.00870    0.20560    0.42350    1.000
    H11      H        0.04190    0.21920    0.49280    1.000
    C20      C        0.01020    0.16560    0.23100    1.000
    H12      H        0.04370    0.15270    0.16420    1.000
    C21      C        0.96500    0.10190    0.93230    1.000
    N4       N        0.46820    0.56820    0.26880    1.000
    C22      C        0.46320    0.64400    0.63350    1.000
    C23      C        0.41470    0.66460    0.73200    1.000
    H13      H        0.38160    0.64980    0.66980    1.000
    C24      C        0.41490    0.70610    0.91880    1.000
    H14      H        0.38150    0.72060    0.97800    1.000
    C25      C        0.46130    0.72760    0.02370    1.000
    C26      C        0.50870    0.70560    0.92350    1.000
    H15      H        0.54190    0.71920    0.99280    1.000
    C27      C        0.51020    0.66560    0.73100    1.000
    H16      H        0.54370    0.65270    0.66420    1.000
    C28      C        0.46500    0.60190    0.43230    1.000
    N5       N        0.93180    0.96820    0.23120    1.000
    C29      C        0.85600    0.96320    0.86650    1.000
    C30      C        0.83540    0.91470    0.76800    1.000
    H17      H        0.85020    0.88160    0.83020    1.000
    C31      C        0.79390    0.91490    0.58120    1.000
    H18      H        0.77940    0.88150    0.52200    1.000
    C32      C        0.77240    0.96130    0.47630    1.000
    C33      C        0.79440    0.00870    0.57650    1.000
    H19      H        0.78080    0.04190    0.50720    1.000
    C34      C        0.83440    0.01020    0.76900    1.000
    H20      H        0.84730    0.04370    0.83580    1.000
    C35      C        0.89810    0.96500    0.06770    1.000
    N6       N        0.43180    0.46820    0.73120    1.000
    C36      C        0.35600    0.46320    0.36650    1.000
    C37      C        0.33540    0.41470    0.26800    1.000
    H21      H        0.35020    0.38160    0.33020    1.000
    C38      C        0.29390    0.41490    0.08120    1.000
    H22      H        0.27940    0.38150    0.02200    1.000
    C39      C        0.27240    0.46130    0.97630    1.000
    C40      C        0.29440    0.50870    0.07650    1.000
    H23      H        0.28080    0.54190    0.00720    1.000
    C41      C        0.33440    0.51020    0.26900    1.000
    H24      H        0.34730    0.54370    0.33580    1.000
    C42      C        0.39810    0.46500    0.56770    1.000
    N7       N        0.06820    0.03180    0.23120    1.000
    C43      C        0.14400    0.03680    0.86650    1.000
    C44      C        0.16460    0.08530    0.76800    1.000
    H25      H        0.14980    0.11840    0.83020    1.000
    C45      C        0.20610    0.08510    0.58120    1.000
    H26      H        0.22060    0.11850    0.52200    1.000
    C46      C        0.22760    0.03870    0.47630    1.000
    C47      C        0.20560    0.99130    0.57650    1.000
    H27      H        0.21920    0.95810    0.50720    1.000
    C48      C        0.16560    0.98980    0.76900    1.000
    H28      H        0.15270    0.95630    0.83580    1.000
    C49      C        0.10190    0.03500    0.06770    1.000
    N8       N        0.56820    0.53180    0.73120    1.000
    C50      C        0.64400    0.53680    0.36650    1.000
    C51      C        0.66460    0.58530    0.26800    1.000
    H29      H        0.64980    0.61840    0.33020    1.000
    C52      C        0.70610    0.58510    0.08120    1.000
    H30      H        0.72060    0.61850    0.02200    1.000
    C53      C        0.72760    0.53870    0.97630    1.000
    C54      C        0.70560    0.49130    0.07650    1.000
    H31      H        0.71920    0.45810    0.00720    1.000
    C55      C        0.66560    0.48980    0.26900    1.000
    H32      H        0.65270    0.45630    0.33580    1.000
    C56      C        0.60190    0.53500    0.56770    1.000
    N9       N        0.46820    0.93180    0.98120    1.000
    C57      C        0.46320    0.85600    0.61650    1.000
    C58      C        0.41470    0.83540    0.51800    1.000
    H33      H        0.38160    0.85020    0.58020    1.000
    C59      C        0.41490    0.79390    0.33120    1.000
    H34      H        0.38150    0.77940    0.27200    1.000
    C60      C        0.46130    0.77240    0.22630    1.000
    C61      C        0.50870    0.79440    0.32650    1.000
    H35      H        0.54190    0.78080    0.25720    1.000
    C62      C        0.51020    0.83440    0.51900    1.000
    H36      H        0.54370    0.84730    0.58580    1.000
    C63      C        0.46500    0.89810    0.81770    1.000
    N10      N        0.96820    0.43180    0.48120    1.000
    C64      C        0.96320    0.35600    0.11650    1.000
    C65      C        0.91470    0.33540    0.01800    1.000
    H37      H        0.88160    0.35020    0.08020    1.000
    C66      C        0.91490    0.29390    0.83120    1.000
    H38      H        0.88150    0.27940    0.77200    1.000
    C67      C        0.96130    0.27240    0.72630    1.000
    C68      C        0.00870    0.29440    0.82650    1.000
    H39      H        0.04190    0.28080    0.75720    1.000
    C69      C        0.01020    0.33440    0.01900    1.000
    H40      H        0.04370    0.34730    0.08580    1.000
    C70      C        0.96500    0.39810    0.31770    1.000
    N11      N        0.53180    0.06820    0.98120    1.000
    C71      C        0.53680    0.14400    0.61650    1.000
    C72      C        0.58530    0.16460    0.51800    1.000
    H41      H        0.61840    0.14980    0.58020    1.000
    C73      C        0.58510    0.20610    0.33120    1.000
    H42      H        0.61850    0.22060    0.27200    1.000
    C74      C        0.53870    0.22760    0.22630    1.000
    C75      C        0.49130    0.20560    0.32650    1.000
    H43      H        0.45810    0.21920    0.25720    1.000
    C76      C        0.48980    0.16560    0.51900    1.000
    H44      H        0.45630    0.15270    0.58580    1.000
    C77      C        0.53500    0.10190    0.81770    1.000
    N12      N        0.03180    0.56820    0.48120    1.000
    C78      C        0.03680    0.64400    0.11650    1.000
    C79      C        0.08530    0.66460    0.01800    1.000
    H45      H        0.11840    0.64980    0.08020    1.000
    C80      C        0.08510    0.70610    0.83120    1.000
    H46      H        0.11850    0.72060    0.77200    1.000
    C81      C        0.03870    0.72760    0.72630    1.000
    C82      C        0.99130    0.70560    0.82650    1.000
    H47      H        0.95810    0.71920    0.75720    1.000
    C83      C        0.98980    0.66560    0.01900    1.000
    H48      H        0.95630    0.65270    0.08580    1.000
    C84      C        0.03500    0.60190    0.31770    1.000
    N13      N        0.56820    0.96820    0.51880    1.000
    C85      C        0.64400    0.96320    0.88350    1.000
    C86      C        0.66460    0.91470    0.98200    1.000
    H49      H        0.64980    0.88160    0.91980    1.000
    C87      C        0.70610    0.91490    0.16880    1.000
    H50      H        0.72060    0.88150    0.22800    1.000
    C88      C        0.72760    0.96130    0.27370    1.000
    C89      C        0.70560    0.00870    0.17350    1.000
    H51      H        0.71920    0.04190    0.24280    1.000
    C90      C        0.66560    0.01020    0.98100    1.000
    H52      H        0.65270    0.04370    0.91420    1.000
    C91      C        0.60190    0.96500    0.68230    1.000
    N14      N        0.06820    0.46820    0.01880    1.000
    C92      C        0.14400    0.46320    0.38350    1.000
    C93      C        0.16460    0.41470    0.48200    1.000
    H53      H        0.14980    0.38160    0.41980    1.000
    C94      C        0.20610    0.41490    0.66880    1.000
    H54      H        0.22060    0.38150    0.72800    1.000
    C95      C        0.22760    0.46130    0.77370    1.000
    C96      C        0.20560    0.50870    0.67350    1.000
    H55      H        0.21920    0.54190    0.74280    1.000
    C97      C        0.16560    0.51020    0.48100    1.000
    H56      H        0.15270    0.54370    0.41420    1.000
    C98      C        0.10190    0.46500    0.18230    1.000
    N15      N        0.43180    0.03180    0.51880    1.000
    C99      C        0.35600    0.03680    0.88350    1.000
    C100     C        0.33540    0.08530    0.98200    1.000
    H57      H        0.35020    0.11840    0.91980    1.000
    C101     C        0.29390    0.08510    0.16880    1.000
    H58      H        0.27940    0.11850    0.22800    1.000
    C102     C        0.27240    0.03870    0.27370    1.000
    C103     C        0.29440    0.99130    0.17350    1.000
    H59      H        0.28080    0.95810    0.24280    1.000
    C104     C        0.33440    0.98980    0.98100    1.000
    H60      H        0.34730    0.95630    0.91420    1.000
    C105     C        0.39810    0.03500    0.68230    1.000
    N16      N        0.93180    0.53180    0.01880    1.000
    C106     C        0.85600    0.53680    0.38350    1.000
    C107     C        0.83540    0.58530    0.48200    1.000
    H61      H        0.85020    0.61840    0.41980    1.000
    C108     C        0.79390    0.58510    0.66880    1.000
    H62      H        0.77940    0.61850    0.72800    1.000
    C109     C        0.77240    0.53870    0.77370    1.000
    C110     C        0.79440    0.49130    0.67350    1.000
    H63      H        0.78080    0.45810    0.74280    1.000
    C111     C        0.83440    0.48980    0.48100    1.000
    H64      H        0.84730    0.45630    0.41420    1.000
    C112     C        0.89810    0.53500    0.18230    1.000
    Ag1      Ag       0.00000    0.00000    0.50000    1.000
    Ag2      Ag       0.50000    0.50000    0.00000    1.000
    Ag3      Ag       0.50000    0.00000    0.25000    1.000
    Ag4      Ag       0.00000    0.50000    0.75000    1.000
