data_functionalizedCrystal
_audit_creation_method	'EQeq! by Chris Wilmer'
_symmetry_space_group_name_H-M	'P1'
_symmetry_Int_Tables_number	1
_symmetry_cell_setting	triclinic
loop_
_symmetry_equiv_pos_as_xyz
  x,y,z
_cell_length_a	12.6835
_cell_length_b	12.6835
_cell_length_c	12.6835
_cell_angle_alpha	83.9769
_cell_angle_beta	83.9769
_cell_angle_gamma	83.9769
loop_
_atom_site_label
_atom_site_type_symbol
_atom_site_fract_x
_atom_site_fract_y
_atom_site_fract_z
_atom_site_charge
Mof_Cd	Cd	0.48795	0.01205	0.75	0.506
Mof_Cd	Cd	0.75	0.48795	0.01205	0.506
Mof_Cd	Cd	0.01205	0.75	0.48795	0.506
Mof_Cd	Cd	0.51205	0.98795	0.25	0.506
Mof_Cd	Cd	0.25	0.51205	0.98795	0.506
Mof_Cd	Cd	0.98795	0.25	0.51205	0.506
Mof_Ni	Ni	0.47069	0.75	0.02931	1.095
Mof_Ni	Ni	0.02931	0.47069	0.75	1.095
Mof_Ni	Ni	0.75	0.02931	0.47069	1.095
Mof_Ni	Ni	0.52931	0.25	0.97069	1.095
Mof_Ni	Ni	0.97069	0.52931	0.25	1.095
Mof_Ni	Ni	0.25	0.97069	0.52931	1.095
Mof_H 	H 	0.5652	0.6366	0.8084	0.258
Mof_H 	H 	0.4856	0.6535	0.7202	0.253
Mof_H 	H 	0.8084	0.5652	0.6366	0.258
Mof_H 	H 	0.7202	0.4856	0.6535	0.253
Mof_H 	H 	0.6366	0.8084	0.5652	0.258
Mof_H 	H 	0.6535	0.7202	0.4856	0.253
Mof_H 	H 	0.8634	0.9348	0.6916	0.257
Mof_H 	H 	0.8465	0.0144	0.7798	0.253
Mof_H 	H 	0.9348	0.6916	0.8634	0.257
Mof_H 	H 	0.0144	0.7798	0.8465	0.253
Mof_H 	H 	0.6916	0.8634	0.9348	0.257
Mof_H 	H 	0.7798	0.8465	0.0144	0.253
Mof_H 	H 	0.4348	0.3634	0.1916	0.258
Mof_H 	H 	0.5144	0.3465	0.2798	0.253
Mof_H 	H 	0.1916	0.4348	0.3634	0.258
Mof_H 	H 	0.2798	0.5144	0.3465	0.253
Mof_H 	H 	0.3634	0.1916	0.4348	0.258
Mof_H 	H 	0.3465	0.2798	0.5144	0.253
Mof_H 	H 	0.1366	0.0652	0.3084	0.257
Mof_H 	H 	0.1535	0.9856	0.2202	0.253
Mof_H 	H 	0.0652	0.3084	0.1366	0.257
Mof_H 	H 	0.9856	0.2202	0.1535	0.253
Mof_H 	H 	0.3084	0.1366	0.0652	0.257
Mof_H 	H 	0.2202	0.1535	0.9856	0.253
Mof_C 	C 	0.49237	0.78827	0.79367	0.508
Mof_C 	C 	0.4953	0.6688	0.7918	-0.718
Mof_C 	C 	0.41182	0.61762	0.86892	0.525
Mof_C 	C 	0.79367	0.49237	0.78827	0.508
Mof_C 	C 	0.7918	0.4953	0.6688	-0.718
Mof_C 	C 	0.86892	0.41182	0.61762	0.525
Mof_C 	C 	0.78827	0.79367	0.49237	0.508
Mof_C 	C 	0.6688	0.7918	0.4953	-0.718
Mof_C 	C 	0.61762	0.86892	0.41182	0.525
Mof_C 	C 	0.71173	0.00763	0.70633	0.507
Mof_C 	C 	0.8312	0.0047	0.7082	-0.716
Mof_C 	C 	0.88238	0.08818	0.63108	0.525
Mof_C 	C 	0.00763	0.70633	0.71173	0.507
Mof_C 	C 	0.0047	0.7082	0.8312	-0.716
Mof_C 	C 	0.08818	0.63108	0.88238	0.525
Mof_C 	C 	0.70633	0.71173	0.00763	0.507
Mof_C 	C 	0.7082	0.8312	0.0047	-0.716
Mof_C 	C 	0.63108	0.88238	0.08818	0.525
Mof_C 	C 	0.50763	0.21173	0.20633	0.508
Mof_C 	C 	0.5047	0.3312	0.2082	-0.718
Mof_C 	C 	0.58818	0.38238	0.13108	0.525
Mof_C 	C 	0.20633	0.50763	0.21173	0.508
Mof_C 	C 	0.2082	0.5047	0.3312	-0.718
Mof_C 	C 	0.13108	0.58818	0.38238	0.525
Mof_C 	C 	0.21173	0.20633	0.50763	0.508
Mof_C 	C 	0.3312	0.2082	0.5047	-0.718
Mof_C 	C 	0.38238	0.13108	0.58818	0.525
Mof_C 	C 	0.28827	0.99237	0.29367	0.507
Mof_C 	C 	0.1688	0.9953	0.2918	-0.716
Mof_C 	C 	0.11762	0.91182	0.36892	0.525
Mof_C 	C 	0.99237	0.29367	0.28827	0.507
Mof_C 	C 	0.9953	0.2918	0.1688	-0.716
Mof_C 	C 	0.91182	0.36892	0.11762	0.525
Mof_C 	C 	0.29367	0.28827	0.99237	0.507
Mof_C 	C 	0.2918	0.1688	0.9953	-0.716
Mof_C 	C 	0.36892	0.11762	0.91182	0.525
Mof_O 	O 	0.49343	0.84459	0.70515	-0.357
Mof_O 	O 	0.49174	0.83015	0.87905	-0.455
Mof_O 	O 	0.35752	0.55352	0.83492	-0.347
Mof_O 	O 	0.39905	0.63791	0.96457	-0.469
Mof_O 	O 	0.70515	0.49343	0.84459	-0.357
Mof_O 	O 	0.87905	0.49174	0.83015	-0.455
Mof_O 	O 	0.83492	0.35752	0.55352	-0.347
Mof_O 	O 	0.96457	0.39905	0.63791	-0.469
Mof_O 	O 	0.84459	0.70515	0.49343	-0.357
Mof_O 	O 	0.83015	0.87905	0.49174	-0.455
Mof_O 	O 	0.55352	0.83492	0.35752	-0.347
Mof_O 	O 	0.63791	0.96457	0.39905	-0.469
Mof_O 	O 	0.65541	0.00657	0.79485	-0.357
Mof_O 	O 	0.66985	0.00826	0.62095	-0.454
Mof_O 	O 	0.94648	0.14248	0.66508	-0.346
Mof_O 	O 	0.86209	0.10095	0.53543	-0.468
Mof_O 	O 	0.00657	0.79485	0.65541	-0.357
Mof_O 	O 	0.00826	0.62095	0.66985	-0.454
Mof_O 	O 	0.14248	0.66508	0.94648	-0.346
Mof_O 	O 	0.10095	0.53543	0.86209	-0.468
Mof_O 	O 	0.79485	0.65541	0.00657	-0.357
Mof_O 	O 	0.62095	0.66985	0.00826	-0.454
Mof_O 	O 	0.66508	0.94648	0.14248	-0.346
Mof_O 	O 	0.53543	0.86209	0.10095	-0.468
Mof_O 	O 	0.50657	0.15541	0.29485	-0.357
Mof_O 	O 	0.50826	0.16985	0.12095	-0.455
Mof_O 	O 	0.64248	0.44648	0.16508	-0.347
Mof_O 	O 	0.60095	0.36209	0.03543	-0.469
Mof_O 	O 	0.29485	0.50657	0.15541	-0.357
Mof_O 	O 	0.12095	0.50826	0.16985	-0.455
Mof_O 	O 	0.16508	0.64248	0.44648	-0.347
Mof_O 	O 	0.03543	0.60095	0.36209	-0.469
Mof_O 	O 	0.15541	0.29485	0.50657	-0.357
Mof_O 	O 	0.16985	0.12095	0.50826	-0.455
Mof_O 	O 	0.44648	0.16508	0.64248	-0.347
Mof_O 	O 	0.36209	0.03543	0.60095	-0.469
Mof_O 	O 	0.34459	0.99343	0.20515	-0.357
Mof_O 	O 	0.33015	0.99174	0.37905	-0.454
Mof_O 	O 	0.05352	0.85752	0.33492	-0.346
Mof_O 	O 	0.13791	0.89905	0.46457	-0.468
Mof_O 	O 	0.99343	0.20515	0.34459	-0.357
Mof_O 	O 	0.99174	0.37905	0.33015	-0.454
Mof_O 	O 	0.85752	0.33492	0.05352	-0.346
Mof_O 	O 	0.89905	0.46457	0.13791	-0.468
Mof_O 	O 	0.20515	0.34459	0.99343	-0.357
Mof_O 	O 	0.37905	0.33015	0.99174	-0.454
Mof_O 	O 	0.33492	0.05352	0.85752	-0.346
Mof_O 	O 	0.46457	0.13791	0.89905	-0.468
_end
