data_functionalizedCrystal
_audit_creation_method	'EQeq! by Chris Wilmer'
_symmetry_space_group_name_H-M	'P1'
_symmetry_Int_Tables_number	1
_symmetry_cell_setting	triclinic
loop_
_symmetry_equiv_pos_as_xyz
  x,y,z
_cell_length_a	10.195
_cell_length_b	21.342
_cell_length_c	18.533
_cell_angle_alpha	90
_cell_angle_beta	102.96
_cell_angle_gamma	90
loop_
_atom_site_label
_atom_site_type_symbol
_atom_site_fract_x
_atom_site_fract_y
_atom_site_fract_z
_atom_site_charge
Mof_Zn	Zn	0.34843	0.65082	0.78606	1.245
Mof_O 	O 	0.3568	0.529	0.8837	-0.266
Mof_O 	O 	0.2387	0.61577	0.8498	-0.43
Mof_O 	O 	0.1306	0.7304	0.2948	-0.26
Mof_O 	O 	0.23	0.78911	0.2222	-0.423
Mof_O 	O 	0.2275	0.5591	0.6601	-0.268
Mof_O 	O 	0.4247	0.6008	0.71744	-0.422
Mof_O 	O 	0.6162	0.72447	0.7815	-0.265
Mof_O 	O 	0.4987	0.68466	0.8594	-0.43
Mof_C 	C 	0.2635	0.5657	0.8868	0.334
Mof_C 	C 	0.1006	0.6	0.9635	0.004
Mof_H 	H 	0.1225	0.6413	0.9556	0.051
Mof_C 	C 	0.1667	0.5502	0.935	-0.054
Mof_C 	C 	0.1348	0.4897	0.9468	-0.043
Mof_H 	H 	0.1806	0.4574	0.9295	0.065
Mof_C 	C 	0.0324	0.4752	0.9855	0.031
Mof_C 	C 	0.0048	0.5871	0.0025	-0.075
Mof_H 	H 	0.9632	0.62	0.0216	0.068
Mof_C 	C 	0.1342	0.7545	0.2341	0.329
Mof_C 	C 	0.3505	0.5681	0.6667	0.32
Mof_C 	C 	0.3637	0.5376	0.5386	-0.046
Mof_H 	H 	0.2769	0.5531	0.522	0.066
Mof_C 	C 	0.4228	0.539	0.6127	-0.05
Mof_C 	C 	0.5532	0.5147	0.6388	0.007
Mof_H 	H 	0.5926	0.5162	0.6892	0.052
Mof_C 	C 	0.6232	0.4885	0.5905	-0.08
Mof_H 	H 	0.7082	0.4714	0.6083	0.073
Mof_C 	C 	0.4349	0.5122	0.486	0.034
Mof_C 	C 	0.6024	0.7097	0.8442	0.328
Mof_C 	C 	0.7169	0.7219	0.9107	-0.049
Mof_C 	C 	0.7058	0.7028	0.9799	-0.052
Mof_H 	H 	0.6289	0.6816	0.9854	0.074
Mof_C 	C 	0.8112	0.715	0.0437	0.033
Mof_C 	C 	0.8037	0.6956	0.1154	-0.085
Mof_H 	H 	0.7279	0.674	0.1218	0.076
Mof_C 	C 	0.9052	0.7077	0.1756	0.007
Mof_H 	H 	0.8983	0.6943	0.2224	0.051
Mof_C 	C 	0.0216	0.7409	0.1667	-0.055
Mof_C 	C 	0.0312	0.7603	0.0983	-0.043
Mof_H 	H 	0.1073	0.7823	0.0931	0.07
Mof_C 	C 	0.9271	0.7478	0.0339	0.025
Mof_C 	C 	0.9362	0.7674	0.9618	-0.076
Mof_H 	H 	0.0119	0.789	0.9553	0.073
Mof_C 	C 	0.8337	0.7544	0.9021	0
Mof_H 	H 	0.8408	0.7671	0.8551	0.056
Mof_Zn	Zn	0.65157	0.15082	0.71394	1.244
Mof_O 	O 	0.6432	0.029	0.6163	-0.267
Mof_O 	O 	0.7613	0.11577	0.6502	-0.43
Mof_O 	O 	0.8694	0.2304	0.2052	-0.26
Mof_O 	O 	0.77	0.28911	0.2778	-0.423
Mof_O 	O 	0.7725	0.0591	0.8399	-0.268
Mof_O 	O 	0.5753	0.1008	0.78256	-0.422
Mof_O 	O 	0.3838	0.22447	0.7185	-0.265
Mof_O 	O 	0.5013	0.18466	0.6406	-0.43
Mof_C 	C 	0.7365	0.0657	0.6132	0.335
Mof_C 	C 	0.8994	0.1	0.5365	0.007
Mof_H 	H 	0.8775	0.1413	0.5444	0.051
Mof_C 	C 	0.8333	0.0502	0.565	-0.054
Mof_C 	C 	0.8652	0.9897	0.5532	-0.044
Mof_H 	H 	0.8194	0.9574	0.5705	0.066
Mof_C 	C 	0.9676	0.9752	0.5145	0.033
Mof_C 	C 	0.9952	0.0871	0.4975	-0.079
Mof_H 	H 	0.0368	0.12	0.4784	0.07
Mof_C 	C 	0.8658	0.2545	0.2659	0.329
Mof_C 	C 	0.6495	0.0681	0.8333	0.32
Mof_C 	C 	0.6363	0.0376	0.9614	-0.046
Mof_H 	H 	0.7231	0.0531	0.978	0.066
Mof_C 	C 	0.5772	0.039	0.8873	-0.05
Mof_C 	C 	0.4468	0.0147	0.8612	0.007
Mof_H 	H 	0.4074	0.0162	0.8108	0.052
Mof_C 	C 	0.3768	0.9885	0.9095	-0.08
Mof_H 	H 	0.2918	0.9714	0.8917	0.073
Mof_C 	C 	0.5651	0.0122	0.014	0.034
Mof_C 	C 	0.3976	0.2097	0.6558	0.328
Mof_C 	C 	0.2831	0.2219	0.5893	-0.051
Mof_C 	C 	0.2942	0.2028	0.5201	-0.051
Mof_H 	H 	0.3711	0.1816	0.5146	0.074
Mof_C 	C 	0.1888	0.215	0.4563	0.032
Mof_C 	C 	0.1963	0.1956	0.3846	-0.084
Mof_H 	H 	0.2721	0.174	0.3782	0.076
Mof_C 	C 	0.0948	0.2077	0.3244	0.007
Mof_H 	H 	0.1017	0.1943	0.2776	0.051
Mof_C 	C 	0.9784	0.2409	0.3333	-0.055
Mof_C 	C 	0.9688	0.2603	0.4017	-0.045
Mof_H 	H 	0.8927	0.2823	0.4069	0.07
Mof_C 	C 	0.0729	0.2478	0.4661	0.028
Mof_C 	C 	0.0638	0.2674	0.5382	-0.081
Mof_H 	H 	0.9881	0.289	0.5447	0.075
Mof_C 	C 	0.1663	0.2544	0.5979	0.003
Mof_H 	H 	0.1592	0.2671	0.6449	0.055
Mof_Zn	Zn	0.65157	0.34918	0.21394	1.244
Mof_O 	O 	0.6432	0.471	0.1163	-0.267
Mof_O 	O 	0.7613	0.38423	0.1502	-0.43
Mof_O 	O 	0.8694	0.2696	0.7052	-0.26
Mof_O 	O 	0.77	0.21089	0.7778	-0.423
Mof_O 	O 	0.7725	0.4409	0.3399	-0.268
Mof_O 	O 	0.5753	0.3992	0.28256	-0.422
Mof_O 	O 	0.3838	0.27553	0.2185	-0.265
Mof_O 	O 	0.5013	0.31534	0.1406	-0.43
Mof_C 	C 	0.7365	0.4343	0.1132	0.334
Mof_C 	C 	0.8994	0.4	0.0365	0.004
Mof_H 	H 	0.8775	0.3587	0.0444	0.051
Mof_C 	C 	0.8333	0.4498	0.065	-0.054
Mof_C 	C 	0.8652	0.5103	0.0532	-0.043
Mof_H 	H 	0.8194	0.5426	0.0705	0.065
Mof_C 	C 	0.9676	0.5248	0.0145	0.031
Mof_C 	C 	0.9952	0.4129	0.9975	-0.075
Mof_H 	H 	0.0368	0.38	0.9784	0.068
Mof_C 	C 	0.8658	0.2455	0.7659	0.329
Mof_C 	C 	0.6495	0.4319	0.3333	0.32
Mof_C 	C 	0.6363	0.4624	0.4614	-0.046
Mof_H 	H 	0.7231	0.4469	0.478	0.066
Mof_C 	C 	0.5772	0.461	0.3873	-0.05
Mof_C 	C 	0.4468	0.4853	0.3612	0.007
Mof_H 	H 	0.4074	0.4838	0.3108	0.052
Mof_C 	C 	0.3768	0.5115	0.4095	-0.08
Mof_H 	H 	0.2918	0.5286	0.3917	0.073
Mof_C 	C 	0.5651	0.4878	0.514	0.034
Mof_C 	C 	0.3976	0.2903	0.1558	0.328
Mof_C 	C 	0.2831	0.2781	0.0893	-0.049
Mof_C 	C 	0.2942	0.2972	0.0201	-0.052
Mof_H 	H 	0.3711	0.3184	0.0146	0.074
Mof_C 	C 	0.1888	0.285	0.9563	0.033
Mof_C 	C 	0.1963	0.3044	0.8846	-0.085
Mof_H 	H 	0.2721	0.326	0.8782	0.076
Mof_C 	C 	0.0948	0.2923	0.8244	0.007
Mof_H 	H 	0.1017	0.3057	0.7776	0.051
Mof_C 	C 	0.9784	0.2591	0.8333	-0.055
Mof_C 	C 	0.9688	0.2397	0.9017	-0.043
Mof_H 	H 	0.8927	0.2177	0.9069	0.07
Mof_C 	C 	0.0729	0.2522	0.9661	0.025
Mof_C 	C 	0.0638	0.2326	0.0382	-0.076
Mof_H 	H 	0.9881	0.211	0.0447	0.073
Mof_C 	C 	0.1663	0.2456	0.0979	0
Mof_H 	H 	0.1592	0.2329	0.1449	0.056
Mof_Zn	Zn	0.34843	0.84918	0.28606	1.244
Mof_O 	O 	0.3568	0.971	0.3837	-0.267
Mof_O 	O 	0.2387	0.88423	0.3498	-0.43
Mof_O 	O 	0.1306	0.7696	0.7948	-0.26
Mof_O 	O 	0.23	0.71089	0.7222	-0.423
Mof_O 	O 	0.2275	0.9409	0.1601	-0.268
Mof_O 	O 	0.4247	0.8992	0.21744	-0.422
Mof_O 	O 	0.6162	0.77553	0.2815	-0.265
Mof_O 	O 	0.4987	0.81534	0.3594	-0.43
Mof_C 	C 	0.2635	0.9343	0.3868	0.335
Mof_C 	C 	0.1006	0.9	0.4635	0.007
Mof_H 	H 	0.1225	0.8587	0.4556	0.051
Mof_C 	C 	0.1667	0.9498	0.435	-0.054
Mof_C 	C 	0.1348	0.0103	0.4468	-0.044
Mof_H 	H 	0.1806	0.0426	0.4295	0.066
Mof_C 	C 	0.0324	0.0248	0.4855	0.033
Mof_C 	C 	0.0048	0.9129	0.5025	-0.079
Mof_H 	H 	0.9632	0.88	0.5216	0.07
Mof_C 	C 	0.1342	0.7455	0.7341	0.329
Mof_C 	C 	0.3505	0.9319	0.1667	0.32
Mof_C 	C 	0.3637	0.9624	0.0386	-0.046
Mof_H 	H 	0.2769	0.9469	0.022	0.066
Mof_C 	C 	0.4228	0.961	0.1127	-0.05
Mof_C 	C 	0.5532	0.9853	0.1388	0.007
Mof_H 	H 	0.5926	0.9838	0.1892	0.052
Mof_C 	C 	0.6232	0.0115	0.0905	-0.08
Mof_H 	H 	0.7082	0.0286	0.1083	0.073
Mof_C 	C 	0.4349	0.9878	0.986	0.034
Mof_C 	C 	0.6024	0.7903	0.3442	0.328
Mof_C 	C 	0.7169	0.7781	0.4107	-0.051
Mof_C 	C 	0.7058	0.7972	0.4799	-0.051
Mof_H 	H 	0.6289	0.8184	0.4854	0.074
Mof_C 	C 	0.8112	0.785	0.5437	0.032
Mof_C 	C 	0.8037	0.8044	0.6154	-0.084
Mof_H 	H 	0.7279	0.826	0.6218	0.076
Mof_C 	C 	0.9052	0.7923	0.6756	0.007
Mof_H 	H 	0.8983	0.8057	0.7224	0.051
Mof_C 	C 	0.0216	0.7591	0.6667	-0.055
Mof_C 	C 	0.0312	0.7397	0.5983	-0.045
Mof_H 	H 	0.1073	0.7177	0.5931	0.07
Mof_C 	C 	0.9271	0.7522	0.5339	0.028
Mof_C 	C 	0.9362	0.7326	0.4618	-0.081
Mof_H 	H 	0.0119	0.711	0.4553	0.075
Mof_C 	C 	0.8337	0.7456	0.4021	0.003
Mof_H 	H 	0.8408	0.7329	0.3551	0.055
_end
