# CIF file generated by openbabel 3.1.0, see https://openbabel.org
data_I
_chemical_name_common 'image0'
_cell_length_a 25.9051
_cell_length_b 25.9051
_cell_length_c 20.4603
_cell_angle_alpha 90
_cell_angle_beta 90
_cell_angle_gamma 120
_space_group_name_H-M_alt 'P 1'
_space_group_name_Hall 'P 1'
loop_
    _symmetry_equiv_pos_as_xyz
    x,y,z
loop_
    _atom_site_label
    _atom_site_type_symbol
    _atom_site_fract_x
    _atom_site_fract_y
    _atom_site_fract_z
    _atom_site_occupancy
    Cu1      Cu       0.01751    0.39113    0.41815    1.000
    Cu2      Cu       0.95443    0.26587    0.41165    1.000
    Cu3      Cu       0.01120    0.34140    0.19442    1.000
    I1       I        0.03851    0.33048    0.32382    1.000
    I2       I        0.99982    0.22443    0.49807    1.000
    I3       I        0.91053    0.33911    0.17750    1.000
    I4       I        0.90704    0.32682    0.46815    1.000
    C1       C        0.87310    0.21260    0.30010    1.000
    H1       H        0.85970    0.24050    0.30780    1.000
    H2       H        0.91010    0.23290    0.27650    1.000
    C2       C        0.82770    0.16390    0.25920    1.000
    H3       H        0.84720    0.15790    0.22250    1.000
    H4       H        0.79930    0.17420    0.24280    1.000
    C3       C        0.89870    0.14810    0.34710    1.000
    H5       H        0.93290    0.16360    0.31900    1.000
    H6       H        0.90790    0.13500    0.38710    1.000
    C4       C        0.84370    0.09650    0.31350    1.000
    H7       H        0.82640    0.06270    0.34240    1.000
    H8       H        0.85660    0.08530    0.27460    1.000
    C5       C        0.82960    0.16550    0.39830    1.000
    H9       H        0.83510    0.14540    0.43470    1.000
    H10      H        0.82050    0.19470    0.41520    1.000
    C6       C        0.77870    0.12110    0.35690    1.000
    H11      H        0.75150    0.13540    0.34930    1.000
    H12      H        0.75770    0.08390    0.37990    1.000
    N1       N        0.88430    0.19520    0.36140    1.000
    N2       N        0.79780    0.11060    0.29570    1.000
    Cu4      Cu       0.68418    0.72446    0.75148    1.000
    Cu5      Cu       0.62110    0.59920    0.74498    1.000
    Cu6      Cu       0.67787    0.67473    0.52775    1.000
    I5       I        0.70518    0.66381    0.65715    1.000
    I6       I        0.66649    0.55776    0.83140    1.000
    I7       I        0.57720    0.67244    0.51083    1.000
    I8       I        0.57371    0.66015    0.80148    1.000
    C7       C        0.53977    0.54593    0.63343    1.000
    H13      H        0.52637    0.57383    0.64113    1.000
    H14      H        0.57677    0.56623    0.60983    1.000
    C8       C        0.49437    0.49723    0.59253    1.000
    H15      H        0.51387    0.49123    0.55583    1.000
    H16      H        0.46597    0.50753    0.57613    1.000
    C9       C        0.56537    0.48143    0.68043    1.000
    H17      H        0.59957    0.49693    0.65233    1.000
    H18      H        0.57457    0.46833    0.72043    1.000
    C10      C        0.51037    0.42983    0.64683    1.000
    H19      H        0.49307    0.39603    0.67573    1.000
    H20      H        0.52327    0.41863    0.60793    1.000
    C11      C        0.49627    0.49883    0.73163    1.000
    H21      H        0.50177    0.47873    0.76803    1.000
    H22      H        0.48717    0.52803    0.74853    1.000
    C12      C        0.44537    0.45443    0.69023    1.000
    H23      H        0.41817    0.46873    0.68263    1.000
    H24      H        0.42437    0.41723    0.71323    1.000
    N3       N        0.55097    0.52853    0.69473    1.000
    N4       N        0.46447    0.44393    0.62903    1.000
    Cu7      Cu       0.35084    0.05780    0.08482    1.000
    Cu8      Cu       0.28776    0.93254    0.07832    1.000
    Cu9      Cu       0.34453    0.00807    0.86109    1.000
    I9       I        0.37184    0.99715    0.99049    1.000
    I10      I        0.33315    0.89110    0.16474    1.000
    I11      I        0.24386    0.00578    0.84417    1.000
    I12      I        0.24037    0.99349    0.13482    1.000
    C13      C        0.20643    0.87927    0.96677    1.000
    H25      H        0.19303    0.90717    0.97447    1.000
    H26      H        0.24343    0.89957    0.94317    1.000
    C14      C        0.16103    0.83057    0.92587    1.000
    H27      H        0.18053    0.82457    0.88917    1.000
    H28      H        0.13263    0.84087    0.90947    1.000
    C15      C        0.23203    0.81477    0.01377    1.000
    H29      H        0.26623    0.83027    0.98567    1.000
    H30      H        0.24123    0.80167    0.05377    1.000
    C16      C        0.17703    0.76317    0.98017    1.000
    H31      H        0.15973    0.72937    0.00907    1.000
    H32      H        0.18993    0.75197    0.94127    1.000
    C17      C        0.16293    0.83217    0.06497    1.000
    H33      H        0.16843    0.81207    0.10137    1.000
    H34      H        0.15383    0.86137    0.08187    1.000
    C18      C        0.11203    0.78777    0.02357    1.000
    H35      H        0.08483    0.80207    0.01597    1.000
    H36      H        0.09103    0.75057    0.04657    1.000
    N5       N        0.21763    0.86187    0.02807    1.000
    N6       N        0.13113    0.77727    0.96237    1.000
    Cu10     Cu       0.60887    0.62638    0.41815    1.000
    Cu11     Cu       0.73413    0.68856    0.41165    1.000
    Cu12     Cu       0.65860    0.66980    0.19442    1.000
    I13      I        0.66952    0.70803    0.32382    1.000
    I14      I        0.77557    0.77539    0.49807    1.000
    I15      I        0.66089    0.57142    0.17750    1.000
    I16      I        0.67318    0.58022    0.46815    1.000
    C19      C        0.78740    0.66050    0.30010    1.000
    H37      H        0.75950    0.61920    0.30780    1.000
    H38      H        0.76710    0.67720    0.27650    1.000
    C20      C        0.83610    0.66380    0.25920    1.000
    H39      H        0.84210    0.68930    0.22250    1.000
    H40      H        0.82580    0.62510    0.24280    1.000
    C21      C        0.85190    0.75060    0.34710    1.000
    H41      H        0.83640    0.76930    0.31900    1.000
    H42      H        0.86500    0.77290    0.38710    1.000
    C22      C        0.90350    0.74720    0.31350    1.000
    H43      H        0.93730    0.76370    0.34240    1.000
    H44      H        0.91470    0.77130    0.27460    1.000
    C23      C        0.83450    0.66410    0.39830    1.000
    H45      H        0.85460    0.68970    0.43470    1.000
    H46      H        0.80530    0.62580    0.41520    1.000
    C24      C        0.87890    0.65760    0.35690    1.000
    H47      H        0.86460    0.61610    0.34930    1.000
    H48      H        0.91610    0.67380    0.37990    1.000
    N7       N        0.80480    0.68910    0.36140    1.000
    N8       N        0.88940    0.68720    0.29570    1.000
    Cu13     Cu       0.27554    0.95971    0.75148    1.000
    Cu14     Cu       0.40080    0.02189    0.74498    1.000
    Cu15     Cu       0.32527    0.00313    0.52775    1.000
    I17      I        0.33619    0.04136    0.65715    1.000
    I18      I        0.44224    0.10872    0.83140    1.000
    I19      I        0.32756    0.90475    0.51083    1.000
    I20      I        0.33985    0.91355    0.80148    1.000
    C25      C        0.45407    0.99383    0.63343    1.000
    H49      H        0.42617    0.95253    0.64113    1.000
    H50      H        0.43377    0.01053    0.60983    1.000
    C26      C        0.50277    0.99713    0.59253    1.000
    H51      H        0.50877    0.02263    0.55583    1.000
    H52      H        0.49247    0.95843    0.57613    1.000
    C27      C        0.51857    0.08393    0.68043    1.000
    H53      H        0.50307    0.10263    0.65233    1.000
    H54      H        0.53167    0.10623    0.72043    1.000
    C28      C        0.57017    0.08053    0.64683    1.000
    H55      H        0.60397    0.09703    0.67573    1.000
    H56      H        0.58137    0.10463    0.60793    1.000
    C29      C        0.50117    0.99743    0.73163    1.000
    H57      H        0.52127    0.02303    0.76803    1.000
    H58      H        0.47197    0.95913    0.74853    1.000
    C30      C        0.54557    0.99093    0.69023    1.000
    H59      H        0.53127    0.94943    0.68263    1.000
    H60      H        0.58277    0.00713    0.71323    1.000
    N9       N        0.47147    0.02243    0.69473    1.000
    N10      N        0.55607    0.02053    0.62903    1.000
    Cu16     Cu       0.94220    0.29305    0.08482    1.000
    Cu17     Cu       0.06746    0.35523    0.07832    1.000
    Cu18     Cu       0.99193    0.33647    0.86109    1.000
    I21      I        0.00285    0.37470    0.99049    1.000
    I22      I        0.10890    0.44206    0.16474    1.000
    I23      I        0.99422    0.23809    0.84417    1.000
    I24      I        0.00651    0.24689    0.13482    1.000
    C31      C        0.12073    0.32717    0.96677    1.000
    H61      H        0.09283    0.28587    0.97447    1.000
    H62      H        0.10043    0.34387    0.94317    1.000
    C32      C        0.16943    0.33047    0.92587    1.000
    H63      H        0.17543    0.35597    0.88917    1.000
    H64      H        0.15913    0.29177    0.90947    1.000
    C33      C        0.18523    0.41727    0.01377    1.000
    H65      H        0.16973    0.43597    0.98567    1.000
    H66      H        0.19833    0.43957    0.05377    1.000
    C34      C        0.23683    0.41387    0.98017    1.000
    H67      H        0.27063    0.43037    0.00907    1.000
    H68      H        0.24803    0.43797    0.94127    1.000
    C35      C        0.16783    0.33077    0.06497    1.000
    H69      H        0.18793    0.35637    0.10137    1.000
    H70      H        0.13863    0.29247    0.08187    1.000
    C36      C        0.21223    0.32427    0.02357    1.000
    H71      H        0.19793    0.28277    0.01597    1.000
    H72      H        0.24943    0.34047    0.04657    1.000
    N11      N        0.13813    0.35577    0.02807    1.000
    N12      N        0.22273    0.35387    0.96237    1.000
    Cu19     Cu       0.37362    0.98249    0.41815    1.000
    Cu20     Cu       0.31144    0.04557    0.41165    1.000
    Cu21     Cu       0.33020    0.98880    0.19442    1.000
    I25      I        0.29197    0.96149    0.32382    1.000
    I26      I        0.22461    0.00018    0.49807    1.000
    I27      I        0.42858    0.08947    0.17750    1.000
    I28      I        0.41978    0.09296    0.46815    1.000
    C37      C        0.33950    0.12690    0.30010    1.000
    H73      H        0.38080    0.14030    0.30780    1.000
    H74      H        0.32280    0.08990    0.27650    1.000
    C38      C        0.33620    0.17230    0.25920    1.000
    H75      H        0.31070    0.15280    0.22250    1.000
    H76      H        0.37490    0.20070    0.24280    1.000
    C39      C        0.24940    0.10130    0.34710    1.000
    H77      H        0.23070    0.06710    0.31900    1.000
    H78      H        0.22710    0.09210    0.38710    1.000
    C40      C        0.25280    0.15630    0.31350    1.000
    H79      H        0.23630    0.17360    0.34240    1.000
    H80      H        0.22870    0.14340    0.27460    1.000
    C41      C        0.33590    0.17040    0.39830    1.000
    H81      H        0.31030    0.16490    0.43470    1.000
    H82      H        0.37420    0.17950    0.41520    1.000
    C42      C        0.34240    0.22130    0.35690    1.000
    H83      H        0.38390    0.24850    0.34930    1.000
    H84      H        0.32620    0.24230    0.37990    1.000
    N13      N        0.31090    0.11570    0.36140    1.000
    N14      N        0.31280    0.20220    0.29570    1.000
    Cu22     Cu       0.04029    0.31582    0.75148    1.000
    Cu23     Cu       0.97811    0.37890    0.74498    1.000
    Cu24     Cu       0.99687    0.32213    0.52775    1.000
    I29      I        0.95864    0.29482    0.65715    1.000
    I30      I        0.89128    0.33351    0.83140    1.000
    I31      I        0.09525    0.42280    0.51083    1.000
    I32      I        0.08645    0.42629    0.80148    1.000
    C43      C        0.00617    0.46023    0.63343    1.000
    H85      H        0.04747    0.47363    0.64113    1.000
    H86      H        0.98947    0.42323    0.60983    1.000
    C44      C        0.00287    0.50563    0.59253    1.000
    H87      H        0.97737    0.48613    0.55583    1.000
    H88      H        0.04157    0.53403    0.57613    1.000
    C45      C        0.91607    0.43463    0.68043    1.000
    H89      H        0.89737    0.40043    0.65233    1.000
    H90      H        0.89377    0.42543    0.72043    1.000
    C46      C        0.91947    0.48963    0.64683    1.000
    H91      H        0.90297    0.50693    0.67573    1.000
    H92      H        0.89537    0.47673    0.60793    1.000
    C47      C        0.00257    0.50373    0.73163    1.000
    H93      H        0.97697    0.49823    0.76803    1.000
    H94      H        0.04087    0.51283    0.74853    1.000
    C48      C        0.00907    0.55463    0.69023    1.000
    H95      H        0.05057    0.58183    0.68263    1.000
    H96      H        0.99287    0.57563    0.71323    1.000
    N15      N        0.97757    0.44903    0.69473    1.000
    N16      N        0.97947    0.53553    0.62903    1.000
    Cu25     Cu       0.70695    0.64916    0.08482    1.000
    Cu26     Cu       0.64477    0.71224    0.07832    1.000
    Cu27     Cu       0.66353    0.65547    0.86109    1.000
    I33      I        0.62530    0.62816    0.99049    1.000
    I34      I        0.55794    0.66685    0.16474    1.000
    I35      I        0.76191    0.75614    0.84417    1.000
    I36      I        0.75311    0.75963    0.13482    1.000
    C49      C        0.67283    0.79357    0.96677    1.000
    H97      H        0.71413    0.80697    0.97447    1.000
    H98      H        0.65613    0.75657    0.94317    1.000
    C50      C        0.66953    0.83897    0.92587    1.000
    H99      H        0.64403    0.81947    0.88917    1.000
    H100     H        0.70823    0.86737    0.90947    1.000
    C51      C        0.58273    0.76797    0.01377    1.000
    H101     H        0.56403    0.73377    0.98567    1.000
    H102     H        0.56043    0.75877    0.05377    1.000
    C52      C        0.58613    0.82297    0.98017    1.000
    H103     H        0.56963    0.84027    0.00907    1.000
    H104     H        0.56203    0.81007    0.94127    1.000
    C53      C        0.66923    0.83707    0.06497    1.000
    H105     H        0.64363    0.83157    0.10137    1.000
    H106     H        0.70753    0.84617    0.08187    1.000
    C54      C        0.67573    0.88797    0.02357    1.000
    H107     H        0.71723    0.91517    0.01597    1.000
    H108     H        0.65953    0.90897    0.04657    1.000
    N17      N        0.64423    0.78237    0.02807    1.000
    N18      N        0.64613    0.86887    0.96237    1.000
    Cu28     Cu       0.98249    0.60887    0.58185    1.000
    Cu29     Cu       0.04557    0.73413    0.58835    1.000
    Cu30     Cu       0.98880    0.65860    0.80558    1.000
    I37      I        0.96149    0.66952    0.67618    1.000
    I38      I        0.00018    0.77557    0.50193    1.000
    I39      I        0.08947    0.66089    0.82250    1.000
    I40      I        0.09296    0.67318    0.53185    1.000
    C55      C        0.12690    0.78740    0.69990    1.000
    H109     H        0.14030    0.75950    0.69220    1.000
    H110     H        0.08990    0.76710    0.72350    1.000
    C56      C        0.17230    0.83610    0.74080    1.000
    H111     H        0.15280    0.84210    0.77750    1.000
    H112     H        0.20070    0.82580    0.75720    1.000
    C57      C        0.10130    0.85190    0.65290    1.000
    H113     H        0.06710    0.83640    0.68100    1.000
    H114     H        0.09210    0.86500    0.61290    1.000
    C58      C        0.15630    0.90350    0.68650    1.000
    H115     H        0.17360    0.93730    0.65760    1.000
    H116     H        0.14340    0.91470    0.72540    1.000
    C59      C        0.17040    0.83450    0.60170    1.000
    H117     H        0.16490    0.85460    0.56530    1.000
    H118     H        0.17950    0.80530    0.58480    1.000
    C60      C        0.22130    0.87890    0.64310    1.000
    H119     H        0.24850    0.86460    0.65070    1.000
    H120     H        0.24230    0.91610    0.62010    1.000
    N19      N        0.11570    0.80480    0.63860    1.000
    N20      N        0.20220    0.88940    0.70430    1.000
    Cu31     Cu       0.64916    0.94220    0.91518    1.000
    Cu32     Cu       0.71224    0.06746    0.92168    1.000
    Cu33     Cu       0.65547    0.99193    0.13891    1.000
    I41      I        0.62816    0.00285    0.00951    1.000
    I42      I        0.66685    0.10890    0.83526    1.000
    I43      I        0.75614    0.99422    0.15583    1.000
    I44      I        0.75963    0.00651    0.86518    1.000
    C61      C        0.79357    0.12073    0.03323    1.000
    H121     H        0.80697    0.09283    0.02553    1.000
    H122     H        0.75657    0.10043    0.05683    1.000
    C62      C        0.83897    0.16943    0.07413    1.000
    H123     H        0.81947    0.17543    0.11083    1.000
    H124     H        0.86737    0.15913    0.09053    1.000
    C63      C        0.76797    0.18523    0.98623    1.000
    H125     H        0.73377    0.16973    0.01433    1.000
    H126     H        0.75877    0.19833    0.94623    1.000
    C64      C        0.82297    0.23683    0.01983    1.000
    H127     H        0.84027    0.27063    0.99093    1.000
    H128     H        0.81007    0.24803    0.05873    1.000
    C65      C        0.83707    0.16783    0.93503    1.000
    H129     H        0.83157    0.18793    0.89863    1.000
    H130     H        0.84617    0.13863    0.91813    1.000
    C66      C        0.88797    0.21223    0.97643    1.000
    H131     H        0.91517    0.19793    0.98403    1.000
    H132     H        0.90897    0.24943    0.95343    1.000
    N21      N        0.78237    0.13813    0.97193    1.000
    N22      N        0.86887    0.22273    0.03763    1.000
    Cu34     Cu       0.31582    0.27554    0.24852    1.000
    Cu35     Cu       0.37890    0.40080    0.25502    1.000
    Cu36     Cu       0.32213    0.32527    0.47225    1.000
    I45      I        0.29482    0.33619    0.34285    1.000
    I46      I        0.33351    0.44224    0.16860    1.000
    I47      I        0.42280    0.32756    0.48917    1.000
    I48      I        0.42629    0.33985    0.19852    1.000
    C67      C        0.46023    0.45407    0.36657    1.000
    H133     H        0.47363    0.42617    0.35887    1.000
    H134     H        0.42323    0.43377    0.39017    1.000
    C68      C        0.50563    0.50277    0.40747    1.000
    H135     H        0.48613    0.50877    0.44417    1.000
    H136     H        0.53403    0.49247    0.42387    1.000
    C69      C        0.43463    0.51857    0.31957    1.000
    H137     H        0.40043    0.50307    0.34767    1.000
    H138     H        0.42543    0.53167    0.27957    1.000
    C70      C        0.48963    0.57017    0.35317    1.000
    H139     H        0.50693    0.60397    0.32427    1.000
    H140     H        0.47673    0.58137    0.39207    1.000
    C71      C        0.50373    0.50117    0.26837    1.000
    H141     H        0.49823    0.52127    0.23197    1.000
    H142     H        0.51283    0.47197    0.25147    1.000
    C72      C        0.55463    0.54557    0.30977    1.000
    H143     H        0.58183    0.53127    0.31737    1.000
    H144     H        0.57563    0.58277    0.28677    1.000
    N23      N        0.44903    0.47147    0.30527    1.000
    N24      N        0.53553    0.55607    0.37097    1.000
    Cu37     Cu       0.39113    0.37362    0.58185    1.000
    Cu38     Cu       0.26587    0.31144    0.58835    1.000
    Cu39     Cu       0.34140    0.33020    0.80558    1.000
    I49      I        0.33048    0.29197    0.67618    1.000
    I50      I        0.22443    0.22461    0.50193    1.000
    I51      I        0.33911    0.42858    0.82250    1.000
    I52      I        0.32682    0.41978    0.53185    1.000
    C73      C        0.21260    0.33950    0.69990    1.000
    H145     H        0.24050    0.38080    0.69220    1.000
    H146     H        0.23290    0.32280    0.72350    1.000
    C74      C        0.16390    0.33620    0.74080    1.000
    H147     H        0.15790    0.31070    0.77750    1.000
    H148     H        0.17420    0.37490    0.75720    1.000
    C75      C        0.14810    0.24940    0.65290    1.000
    H149     H        0.16360    0.23070    0.68100    1.000
    H150     H        0.13500    0.22710    0.61290    1.000
    C76      C        0.09650    0.25280    0.68650    1.000
    H151     H        0.06270    0.23630    0.65760    1.000
    H152     H        0.08530    0.22870    0.72540    1.000
    C77      C        0.16550    0.33590    0.60170    1.000
    H153     H        0.14540    0.31030    0.56530    1.000
    H154     H        0.19470    0.37420    0.58480    1.000
    C78      C        0.12110    0.34240    0.64310    1.000
    H155     H        0.13540    0.38390    0.65070    1.000
    H156     H        0.08390    0.32620    0.62010    1.000
    N25      N        0.19520    0.31090    0.63860    1.000
    N26      N        0.11060    0.31280    0.70430    1.000
    Cu40     Cu       0.05780    0.70695    0.91518    1.000
    Cu41     Cu       0.93254    0.64477    0.92168    1.000
    Cu42     Cu       0.00807    0.66353    0.13891    1.000
    I53      I        0.99715    0.62530    0.00951    1.000
    I54      I        0.89110    0.55794    0.83526    1.000
    I55      I        0.00578    0.76191    0.15583    1.000
    I56      I        0.99349    0.75311    0.86518    1.000
    C79      C        0.87927    0.67283    0.03323    1.000
    H157     H        0.90717    0.71413    0.02553    1.000
    H158     H        0.89957    0.65613    0.05683    1.000
    C80      C        0.83057    0.66953    0.07413    1.000
    H159     H        0.82457    0.64403    0.11083    1.000
    H160     H        0.84087    0.70823    0.09053    1.000
    C81      C        0.81477    0.58273    0.98623    1.000
    H161     H        0.83027    0.56403    0.01433    1.000
    H162     H        0.80167    0.56043    0.94623    1.000
    C82      C        0.76317    0.58613    0.01983    1.000
    H163     H        0.72937    0.56963    0.99093    1.000
    H164     H        0.75197    0.56203    0.05873    1.000
    C83      C        0.83217    0.66923    0.93503    1.000
    H165     H        0.81207    0.64363    0.89863    1.000
    H166     H        0.86137    0.70753    0.91813    1.000
    C84      C        0.78777    0.67573    0.97643    1.000
    H167     H        0.80207    0.71723    0.98403    1.000
    H168     H        0.75057    0.65953    0.95343    1.000
    N27      N        0.86187    0.64423    0.97193    1.000
    N28      N        0.77727    0.64613    0.03763    1.000
    Cu43     Cu       0.72446    0.04029    0.24852    1.000
    Cu44     Cu       0.59920    0.97811    0.25502    1.000
    Cu45     Cu       0.67473    0.99687    0.47225    1.000
    I57      I        0.66381    0.95864    0.34285    1.000
    I58      I        0.55776    0.89128    0.16860    1.000
    I59      I        0.67244    0.09525    0.48917    1.000
    I60      I        0.66015    0.08645    0.19852    1.000
    C85      C        0.54593    0.00617    0.36657    1.000
    H169     H        0.57383    0.04747    0.35887    1.000
    H170     H        0.56623    0.98947    0.39017    1.000
    C86      C        0.49723    0.00287    0.40747    1.000
    H171     H        0.49123    0.97737    0.44417    1.000
    H172     H        0.50753    0.04157    0.42387    1.000
    C87      C        0.48143    0.91607    0.31957    1.000
    H173     H        0.49693    0.89737    0.34767    1.000
    H174     H        0.46833    0.89377    0.27957    1.000
    C88      C        0.42983    0.91947    0.35317    1.000
    H175     H        0.39603    0.90297    0.32427    1.000
    H176     H        0.41863    0.89537    0.39207    1.000
    C89      C        0.49883    0.00257    0.26837    1.000
    H177     H        0.47873    0.97697    0.23197    1.000
    H178     H        0.52803    0.04087    0.25147    1.000
    C90      C        0.45443    0.00907    0.30977    1.000
    H179     H        0.46873    0.05057    0.31737    1.000
    H180     H        0.41723    0.99287    0.28677    1.000
    N29      N        0.52853    0.97757    0.30527    1.000
    N30      N        0.44393    0.97947    0.37097    1.000
    Cu46     Cu       0.62638    0.01751    0.58185    1.000
    Cu47     Cu       0.68856    0.95443    0.58835    1.000
    Cu48     Cu       0.66980    0.01120    0.80558    1.000
    I61      I        0.70803    0.03851    0.67618    1.000
    I62      I        0.77539    0.99982    0.50193    1.000
    I63      I        0.57142    0.91053    0.82250    1.000
    I64      I        0.58022    0.90704    0.53185    1.000
    C91      C        0.66050    0.87310    0.69990    1.000
    H181     H        0.61920    0.85970    0.69220    1.000
    H182     H        0.67720    0.91010    0.72350    1.000
    C92      C        0.66380    0.82770    0.74080    1.000
    H183     H        0.68930    0.84720    0.77750    1.000
    H184     H        0.62510    0.79930    0.75720    1.000
    C93      C        0.75060    0.89870    0.65290    1.000
    H185     H        0.76930    0.93290    0.68100    1.000
    H186     H        0.77290    0.90790    0.61290    1.000
    C94      C        0.74720    0.84370    0.68650    1.000
    H187     H        0.76370    0.82640    0.65760    1.000
    H188     H        0.77130    0.85660    0.72540    1.000
    C95      C        0.66410    0.82960    0.60170    1.000
    H189     H        0.68970    0.83510    0.56530    1.000
    H190     H        0.62580    0.82050    0.58480    1.000
    C96      C        0.65760    0.77870    0.64310    1.000
    H191     H        0.61610    0.75150    0.65070    1.000
    H192     H        0.67380    0.75770    0.62010    1.000
    N31      N        0.68910    0.88430    0.63860    1.000
    N32      N        0.68720    0.79780    0.70430    1.000
    Cu49     Cu       0.29305    0.35084    0.91518    1.000
    Cu50     Cu       0.35523    0.28776    0.92168    1.000
    Cu51     Cu       0.33647    0.34453    0.13891    1.000
    I65      I        0.37470    0.37184    0.00951    1.000
    I66      I        0.44206    0.33315    0.83526    1.000
    I67      I        0.23809    0.24386    0.15583    1.000
    I68      I        0.24689    0.24037    0.86518    1.000
    C97      C        0.32717    0.20643    0.03323    1.000
    H193     H        0.28587    0.19303    0.02553    1.000
    H194     H        0.34387    0.24343    0.05683    1.000
    C98      C        0.33047    0.16103    0.07413    1.000
    H195     H        0.35597    0.18053    0.11083    1.000
    H196     H        0.29177    0.13263    0.09053    1.000
    C99      C        0.41727    0.23203    0.98623    1.000
    H197     H        0.43597    0.26623    0.01433    1.000
    H198     H        0.43957    0.24123    0.94623    1.000
    C100     C        0.41387    0.17703    0.01983    1.000
    H199     H        0.43037    0.15973    0.99093    1.000
    H200     H        0.43797    0.18993    0.05873    1.000
    C101     C        0.33077    0.16293    0.93503    1.000
    H201     H        0.35637    0.16843    0.89863    1.000
    H202     H        0.29247    0.15383    0.91813    1.000
    C102     C        0.32427    0.11203    0.97643    1.000
    H203     H        0.28277    0.08483    0.98403    1.000
    H204     H        0.34047    0.09103    0.95343    1.000
    N33      N        0.35577    0.21763    0.97193    1.000
    N34      N        0.35387    0.13113    0.03763    1.000
    Cu52     Cu       0.95971    0.68418    0.24852    1.000
    Cu53     Cu       0.02189    0.62110    0.25502    1.000
    Cu54     Cu       0.00313    0.67787    0.47225    1.000
    I69      I        0.04136    0.70518    0.34285    1.000
    I70      I        0.10872    0.66649    0.16860    1.000
    I71      I        0.90475    0.57720    0.48917    1.000
    I72      I        0.91355    0.57371    0.19852    1.000
    C103     C        0.99383    0.53977    0.36657    1.000
    H205     H        0.95253    0.52637    0.35887    1.000
    H206     H        0.01053    0.57677    0.39017    1.000
    C104     C        0.99713    0.49437    0.40747    1.000
    H207     H        0.02263    0.51387    0.44417    1.000
    H208     H        0.95843    0.46597    0.42387    1.000
    C105     C        0.08393    0.56537    0.31957    1.000
    H209     H        0.10263    0.59957    0.34767    1.000
    H210     H        0.10623    0.57457    0.27957    1.000
    C106     C        0.08053    0.51037    0.35317    1.000
    H211     H        0.09703    0.49307    0.32427    1.000
    H212     H        0.10463    0.52327    0.39207    1.000
    C107     C        0.99743    0.49627    0.26837    1.000
    H213     H        0.02303    0.50177    0.23197    1.000
    H214     H        0.95913    0.48717    0.25147    1.000
    C108     C        0.99093    0.44537    0.30977    1.000
    H215     H        0.94943    0.41817    0.31737    1.000
    H216     H        0.00713    0.42437    0.28677    1.000
    N35      N        0.02243    0.55097    0.30527    1.000
    N36      N        0.02053    0.46447    0.37097    1.000
