# CIF file generated by openbabel 3.1.0, see https://openbabel.org
data_I
_chemical_name_common 'image0'
_cell_length_a 19.0913
_cell_length_b 19.0913
_cell_length_c 11.7929
_cell_angle_alpha 90
_cell_angle_beta 90
_cell_angle_gamma 120
_space_group_name_H-M_alt 'P 1'
_space_group_name_Hall 'P 1'
loop_
    _symmetry_equiv_pos_as_xyz
    x,y,z
loop_
    _atom_site_label
    _atom_site_type_symbol
    _atom_site_fract_x
    _atom_site_fract_y
    _atom_site_fract_z
    _atom_site_occupancy
    C1       C        0.36960    0.78470    0.30560    1.000
    C2       C        0.38140    0.73640    0.21600    1.000
    H1       H        0.37040    0.75170    0.14250    1.000
    H2       H        0.34280    0.67950    0.22760    1.000
    C3       C        0.46570    0.74830    0.21520    1.000
    H3       H        0.47440    0.73070    0.28840    1.000
    H4       H        0.46660    0.71170    0.15900    1.000
    C4       C        0.53560    0.82880    0.19300    1.000
    C5       C        0.44230    0.56270    0.05040    1.000
    C6       C        0.41210    0.52040    0.15440    1.000
    H5       H        0.37850    0.46360    0.13550    1.000
    H6       H        0.37640    0.53790    0.18590    1.000
    C7       C        0.47090    0.52570    0.25360    1.000
    H7       H        0.49180    0.57770    0.29060    1.000
    H8       H        0.43920    0.48440    0.30920    1.000
    C8       C        0.54160    0.51590    0.22020    1.000
    C9       C        0.75500    0.28630    0.30590    1.000
    C10      C        0.71410    0.27220    0.19480    1.000
    H9       H        0.74610    0.26260    0.13960    1.000
    H10      H        0.71550    0.32180    0.17280    1.000
    C11      C        0.62610    0.20280    0.18440    1.000
    H11      H        0.59330    0.20080    0.24840    1.000
    H12      H        0.60100    0.20550    0.11420    1.000
    C12      C        0.64340    0.13300    0.18520    1.000
    C13      C        0.79600    0.54650    0.34490    1.000
    C14      C        0.86470    0.56840    0.42150    1.000
    H13      H        0.91540    0.60710    0.38610    1.000
    H14      H        0.86760    0.52100    0.44380    1.000
    C15      C        0.84600    0.60500    0.52110    1.000
    H15      H        0.88670    0.61830    0.57920    1.000
    H16      H        0.79400    0.56570    0.55260    1.000
    C16      C        0.84370    0.68420    0.48730    1.000
    C17      C        0.89460    0.90540    0.26860    1.000
    C18      C        0.91230    0.94890    0.15320    1.000
    H17      H        0.87390    0.91060    0.09930    1.000
    H18      H        0.96550    0.95990    0.12960    1.000
    C19      C        0.91050    0.03140    0.13890    1.000
    H19      H        0.94600    0.07090    0.19410    1.000
    H20      H        0.92880    0.05350    0.06360    1.000
    C20      C        0.82850    0.01360    0.15600    1.000
    C21      C        0.78100    0.87930    0.64520    1.000
    C22      C        0.75790    0.91510    0.73700    1.000
    H21      H        0.71190    0.91860    0.70970    1.000
    H22      H        0.80200    0.97020    0.74530    1.000
    C23      C        0.73640    0.88000    0.85560    1.000
    H23      H        0.77420    0.86350    0.88140    1.000
    H24      H        0.73750    0.91950    0.90830    1.000
    C24      C        0.65290    0.80850    0.84690    1.000
    O1       O        0.41010    0.81430    0.39040    1.000
    O2       O        0.30660    0.79860    0.31980    1.000
    O3       O        0.60830    0.84530    0.20260    1.000
    O4       O        0.51720    0.88070    0.15590    1.000
    H25      H        0.48080    0.88670    0.20710    1.000
    O5       O        0.41160    0.55530    0.96100    1.000
    O6       O        0.51210    0.62910    0.04180    1.000
    H26      H        0.55710    0.62030    0.05690    1.000
    O7       O        0.55090    0.49430    0.11590    1.000
    O8       O        0.59010    0.53340    0.29900    1.000
    O9       O        0.81840    0.35190    0.31210    1.000
    O10      O        0.71890    0.23900    0.39610    1.000
    O11      O        0.70780    0.13500    0.17230    1.000
    O12      O        0.58480    0.06170    0.16600    1.000
    O13      O        0.73540    0.54660    0.36990    1.000
    O14      O        0.80810    0.51900    0.25010    1.000
    O15      O        0.81510    0.70270    0.56900    1.000
    O16      O        0.86770    0.72360    0.40310    1.000
    H27      H        0.83660    0.69410    0.33710    1.000
    O17      O        0.87390    0.83580    0.27090    1.000
    O18      O        0.88160    0.94300    0.35310    1.000
    O19      O        0.76560    0.94620    0.18190    1.000
    O20      O        0.81610    0.07300    0.15490    1.000
    O21      O        0.78990    0.91610    0.55800    1.000
    O22      O        0.79390    0.82020    0.67230    1.000
    O23      O        0.61640    0.78970    0.76270    1.000
    O24      O        0.64490    0.76340    0.93570    1.000
    U1       U        0.51180    0.66758    0.85105    1.000
    U2       U        0.67882    0.50607    0.18216    1.000
    U3       U        0.83508    0.82871    0.46676    1.000
    U4       U        0.66754    0.98966    0.17476    1.000
    H28      H        0.80850    0.46840    0.25320    1.000
    C25      C        0.21530    0.58490    0.97227    1.000
    C26      C        0.26360    0.64500    0.88267    1.000
    H29      H        0.24830    0.61870    0.80917    1.000
    H30      H        0.32050    0.66330    0.89427    1.000
    C27      C        0.25170    0.71740    0.88187    1.000
    H31      H        0.26930    0.74370    0.95507    1.000
    H32      H        0.28830    0.75490    0.82567    1.000
    C28      C        0.17120    0.70680    0.85967    1.000
    C29      C        0.43730    0.87960    0.71707    1.000
    C30      C        0.47960    0.89170    0.82107    1.000
    H33      H        0.53640    0.91490    0.80217    1.000
    H34      H        0.46210    0.83850    0.85257    1.000
    C31      C        0.47430    0.94520    0.92027    1.000
    H35      H        0.42230    0.91410    0.95727    1.000
    H36      H        0.51560    0.95480    0.97587    1.000
    C32      C        0.48410    0.02570    0.88687    1.000
    C33      C        0.71370    0.46870    0.97257    1.000
    C34      C        0.72780    0.44190    0.86147    1.000
    H37      H        0.73740    0.48350    0.80627    1.000
    H38      H        0.67820    0.39370    0.83947    1.000
    C35      C        0.79720    0.42330    0.85107    1.000
    H39      H        0.79920    0.39250    0.91507    1.000
    H40      H        0.79450    0.39550    0.78087    1.000
    C36      C        0.86700    0.51040    0.85187    1.000
    C37      C        0.45350    0.24950    0.01157    1.000
    C38      C        0.43160    0.29630    0.08817    1.000
    H41      H        0.39290    0.30830    0.05277    1.000
    H42      H        0.47900    0.34660    0.11047    1.000
    C39      C        0.39500    0.24100    0.18777    1.000
    H43      H        0.38170    0.26840    0.24587    1.000
    H44      H        0.43430    0.22830    0.21927    1.000
    C40      C        0.31580    0.15950    0.15397    1.000
    C41      C        0.09460    0.98920    0.93527    1.000
    C42      C        0.05110    0.96340    0.81987    1.000
    H45      H        0.08940    0.96330    0.76597    1.000
    H46      H        0.04010    0.00560    0.79627    1.000
    C43      C        0.96860    0.87910    0.80557    1.000
    H47      H        0.92910    0.87510    0.86077    1.000
    H48      H        0.94650    0.87530    0.73027    1.000
    C44      C        0.98640    0.81490    0.82267    1.000
    C45      C        0.12070    0.90170    0.31187    1.000
    C46      C        0.08490    0.84280    0.40367    1.000
    H49      H        0.08140    0.79330    0.37637    1.000
    H50      H        0.02980    0.83180    0.41197    1.000
    C47      C        0.12000    0.85640    0.52227    1.000
    H51      H        0.13650    0.91070    0.54807    1.000
    H52      H        0.08050    0.81800    0.57497    1.000
    C48      C        0.19150    0.84440    0.51357    1.000
    O25      O        0.18570    0.59580    0.05707    1.000
    O26      O        0.20140    0.50800    0.98647    1.000
    O27      O        0.15470    0.76300    0.86927    1.000
    O28      O        0.11930    0.63650    0.82257    1.000
    H53      H        0.11330    0.59410    0.87377    1.000
    O29      O        0.44470    0.85630    0.62767    1.000
    O30      O        0.37090    0.88300    0.70847    1.000
    H54      H        0.37970    0.93680    0.72357    1.000
    O31      O        0.50570    0.05660    0.78257    1.000
    O32      O        0.46660    0.05670    0.96567    1.000
    O33      O        0.64810    0.46650    0.97877    1.000
    O34      O        0.76100    0.47990    0.06277    1.000
    O35      O        0.86500    0.57280    0.83897    1.000
    O36      O        0.93830    0.52310    0.83267    1.000
    O37      O        0.45340    0.18880    0.03657    1.000
    O38      O        0.48100    0.28910    0.91677    1.000
    O39      O        0.29730    0.11240    0.23567    1.000
    O40      O        0.27640    0.14410    0.06977    1.000
    H55      H        0.30590    0.14250    0.00377    1.000
    O41      O        0.16420    0.03810    0.93757    1.000
    O42      O        0.05700    0.93860    0.01977    1.000
    O43      O        0.05380    0.81940    0.84857    1.000
    O44      O        0.92700    0.74310    0.82157    1.000
    O45      O        0.08390    0.87380    0.22467    1.000
    O46      O        0.17980    0.97370    0.33897    1.000
    O47      O        0.21030    0.82670    0.42937    1.000
    O48      O        0.23660    0.88150    0.60237    1.000
    U5       U        0.33242    0.84422    0.51772    1.000
    U6       U        0.49393    0.17275    0.84883    1.000
    U7       U        0.17129    0.00637    0.13343    1.000
    U8       U        0.01034    0.67788    0.84143    1.000
    H56      H        0.53160    0.34010    0.91987    1.000
    C49      C        0.41510    0.63040    0.63893    1.000
    C50      C        0.35500    0.61860    0.54933    1.000
    H57      H        0.38130    0.62960    0.47583    1.000
    H58      H        0.33670    0.65720    0.56093    1.000
    C51      C        0.28260    0.53430    0.54853    1.000
    H59      H        0.25630    0.52560    0.62173    1.000
    H60      H        0.24510    0.53340    0.49233    1.000
    C52      C        0.29320    0.46440    0.52633    1.000
    C53      C        0.12040    0.55770    0.38373    1.000
    C54      C        0.10830    0.58790    0.48773    1.000
    H61      H        0.08510    0.62150    0.46883    1.000
    H62      H        0.16150    0.62360    0.51923    1.000
    C55      C        0.05480    0.52910    0.58693    1.000
    H63      H        0.08590    0.50820    0.62393    1.000
    H64      H        0.04520    0.56080    0.64253    1.000
    C56      C        0.97430    0.45840    0.55353    1.000
    C57      C        0.53130    0.24500    0.63923    1.000
    C58      C        0.55810    0.28590    0.52813    1.000
    H65      H        0.51650    0.25390    0.47293    1.000
    H66      H        0.60630    0.28450    0.50613    1.000
    C59      C        0.57670    0.37390    0.51773    1.000
    H67      H        0.60750    0.40670    0.58173    1.000
    H68      H        0.60450    0.39900    0.44753    1.000
    C60      C        0.48960    0.35660    0.51853    1.000
    C61      C        0.75050    0.20400    0.67823    1.000
    C62      C        0.70370    0.13530    0.75483    1.000
    H69      H        0.69170    0.08460    0.71943    1.000
    H70      H        0.65340    0.13240    0.77713    1.000
    C63      C        0.75900    0.15400    0.85443    1.000
    H71      H        0.73160    0.11330    0.91253    1.000
    H72      H        0.77170    0.20600    0.88593    1.000
    C64      C        0.84050    0.15630    0.82063    1.000
    C65      C        0.01080    0.10540    0.60193    1.000
    C66      C        0.03660    0.08770    0.48653    1.000
    H73      H        0.03670    0.12610    0.43263    1.000
    H74      H        0.99440    0.03450    0.46293    1.000
    C67      C        0.12090    0.08950    0.47223    1.000
    H75      H        0.12490    0.05400    0.52743    1.000
    H76      H        0.12470    0.07120    0.39693    1.000
    C68      C        0.18510    0.17150    0.48933    1.000
    C69      C        0.09830    0.21900    0.97853    1.000
    C70      C        0.15720    0.24210    0.07033    1.000
    H77      H        0.20670    0.28810    0.04303    1.000
    H78      H        0.16820    0.19800    0.07863    1.000
    C71      C        0.14360    0.26360    0.18893    1.000
    H79      H        0.08930    0.22580    0.21473    1.000
    H80      H        0.18200    0.26250    0.24163    1.000
    C72      C        0.15560    0.34710    0.18023    1.000
    O49      O        0.40420    0.58990    0.72373    1.000
    O50      O        0.49200    0.69340    0.65313    1.000
    O51      O        0.23700    0.39170    0.53593    1.000
    O52      O        0.36350    0.48280    0.48923    1.000
    H81      H        0.40590    0.51920    0.54043    1.000
    O53      O        0.14370    0.58840    0.29433    1.000
    O54      O        0.11700    0.48790    0.37513    1.000
    H82      H        0.06320    0.44290    0.39023    1.000
    O55      O        0.94340    0.44910    0.44923    1.000
    O56      O        0.94330    0.40990    0.63233    1.000
    O57      O        0.53350    0.18160    0.64543    1.000
    O58      O        0.52010    0.28110    0.72943    1.000
    O59      O        0.42720    0.29220    0.50563    1.000
    O60      O        0.47690    0.41520    0.49933    1.000
    O61      O        0.81120    0.26460    0.70323    1.000
    O62      O        0.71090    0.19190    0.58343    1.000
    O63      O        0.88760    0.18490    0.90233    1.000
    O64      O        0.85590    0.13230    0.73643    1.000
    H83      H        0.85750    0.16340    0.67043    1.000
    O65      O        0.96190    0.12610    0.60423    1.000
    O66      O        0.06140    0.11840    0.68643    1.000
    O67      O        0.18060    0.23440    0.51523    1.000
    O68      O        0.25690    0.18390    0.48823    1.000
    O69      O        0.12620    0.21010    0.89133    1.000
    O70      O        0.02630    0.20610    0.00563    1.000
    O71      O        0.17330    0.38360    0.09603    1.000
    O72      O        0.11850    0.35510    0.26903    1.000
    U9       U        0.15578    0.48820    0.18438    1.000
    U10      U        0.82725    0.32118    0.51549    1.000
    U11      U        0.99363    0.16492    0.80009    1.000
    U12      U        0.32212    0.33246    0.50809    1.000
    H84      H        0.65990    0.19150    0.58653    1.000
