data_functionalizedCrystal
_audit_creation_method	'EQeq! by Chris Wilmer'
_symmetry_space_group_name_H-M	'P1'
_symmetry_Int_Tables_number	1
_symmetry_cell_setting	triclinic
loop_
_symmetry_equiv_pos_as_xyz
  x,y,z
_cell_length_a	15.9293
_cell_length_b	10.9222
_cell_length_c	15.8803
_cell_angle_alpha	90
_cell_angle_beta	115.246
_cell_angle_gamma	90
loop_
_atom_site_label
_atom_site_type_symbol
_atom_site_fract_x
_atom_site_fract_y
_atom_site_fract_z
_atom_site_charge
Mof_Zn	Zn	0.29577	0.41718	0.28847	1.235
Mof_O 	O 	0.27302	0.5316	0.36995	-0.462
Mof_O 	O 	0.16233	0.6686	0.32703	-0.264
Mof_O 	O 	0.1803	0.95	0.59125	-0.264
Mof_O 	O 	0.32167	0.9967	0.69629	-0.443
Mof_O 	O 	0.5915	0.7699	0.72239	-0.29
Mof_O 	O 	0.58244	0.63516	0.61594	-0.419
Mof_N 	N 	0.19506	0.29317	0.23822	-0.18
Mof_N 	N 	0.14321	0.2589	0.28	-0.042
Mof_N 	N 	0.08273	0.1755	0.22665	-0.072
Mof_N 	N 	0.17076	0.23315	0.15724	-0.088
Mof_C 	C 	0.23907	0.6295	0.37944	0.399
Mof_C 	C 	0.29666	0.7011	0.4664	-0.118
Mof_C 	C 	0.25566	0.7871	0.50152	0.054
Mof_H 	H 	0.192	0.8007	0.4714	0.05
Mof_C 	C 	0.30943	0.8532	0.58179	-0.099
Mof_C 	C 	0.40403	0.8327	0.62561	0.045
Mof_H 	H 	0.4403	0.8785	0.6779	0.054
Mof_C 	C 	0.44583	0.745	0.59282	-0.095
Mof_C 	C 	0.3917	0.6796	0.51263	0.054
Mof_H 	H 	0.4192	0.6213	0.4898	0.047
Mof_C 	C 	0.26476	0.9396	0.62486	0.359
Mof_C 	C 	0.54697	0.7165	0.64738	0.332
Mof_C 	C 	0.10102	0.1622	0.15229	0.127
Mof_C 	C 	0.04975	0.0777	0.0744	0.009
Mof_C 	C 	0.9611	0.0404	0.05783	-0.033
Mof_H 	H 	0.9343	0.0672	0.0963	0.077
Mof_C 	C 	0.91209	0.9628	0.98371	-0.038
Mof_H 	H 	0.8526	0.9379	0.9732	0.068
Mof_Zn	Zn	0.70423	0.91718	0.21153	1.234
Mof_O 	O 	0.72698	0.0316	0.13005	-0.458
Mof_O 	O 	0.83767	0.1686	0.17297	-0.262
Mof_O 	O 	0.8197	0.45	0.90875	-0.264
Mof_O 	O 	0.67833	0.4967	0.80371	-0.444
Mof_O 	O 	0.4085	0.2699	0.77761	-0.29
Mof_O 	O 	0.41756	0.13516	0.88406	-0.42
Mof_N 	N 	0.80494	0.79317	0.26178	-0.181
Mof_N 	N 	0.85679	0.7589	0.22	-0.043
Mof_N 	N 	0.91727	0.6755	0.27335	-0.072
Mof_N 	N 	0.82924	0.73315	0.34276	-0.089
Mof_C 	C 	0.76093	0.1295	0.12056	0.394
Mof_C 	C 	0.70334	0.2011	0.0336	-0.105
Mof_C 	C 	0.74434	0.2871	0.99848	0.042
Mof_H 	H 	0.808	0.3007	0.0286	0.055
Mof_C 	C 	0.69057	0.3532	0.91821	-0.093
Mof_C 	C 	0.59597	0.3327	0.87439	0.039
Mof_H 	H 	0.5597	0.3785	0.8221	0.056
Mof_C 	C 	0.55417	0.245	0.90718	-0.088
Mof_C 	C 	0.6083	0.1796	0.98737	0.038
Mof_H 	H 	0.5808	0.1213	0.0102	0.054
Mof_C 	C 	0.73524	0.4396	0.87514	0.357
Mof_C 	C 	0.45303	0.2165	0.85262	0.33
Mof_C 	C 	0.89898	0.6622	0.34771	0.126
Mof_C 	C 	0.95025	0.5777	0.4256	0.012
Mof_C 	C 	0.0389	0.5404	0.44217	-0.042
Mof_H 	H 	0.0657	0.5672	0.4037	0.079
Mof_C 	C 	0.08791	0.4628	0.51629	-0.034
Mof_H 	H 	0.1474	0.4379	0.5268	0.066
Mof_Zn	Zn	0.70423	0.58282	0.71153	1.235
Mof_O 	O 	0.72698	0.4684	0.63005	-0.462
Mof_O 	O 	0.83767	0.3314	0.67297	-0.264
Mof_O 	O 	0.8197	0.05	0.40875	-0.264
Mof_O 	O 	0.67833	0.0033	0.30371	-0.443
Mof_O 	O 	0.4085	0.2301	0.27761	-0.29
Mof_O 	O 	0.41756	0.36484	0.38406	-0.419
Mof_N 	N 	0.80494	0.70683	0.76178	-0.18
Mof_N 	N 	0.85679	0.7411	0.72	-0.042
Mof_N 	N 	0.91727	0.8245	0.77335	-0.072
Mof_N 	N 	0.82924	0.76685	0.84276	-0.088
Mof_C 	C 	0.76093	0.3705	0.62056	0.399
Mof_C 	C 	0.70334	0.2989	0.5336	-0.118
Mof_C 	C 	0.74434	0.2129	0.49848	0.054
Mof_H 	H 	0.808	0.1993	0.5286	0.05
Mof_C 	C 	0.69057	0.1468	0.41821	-0.099
Mof_C 	C 	0.59597	0.1673	0.37439	0.045
Mof_H 	H 	0.5597	0.1215	0.3221	0.054
Mof_C 	C 	0.55417	0.255	0.40718	-0.095
Mof_C 	C 	0.6083	0.3204	0.48737	0.054
Mof_H 	H 	0.5808	0.3787	0.5102	0.047
Mof_C 	C 	0.73524	0.0604	0.37514	0.359
Mof_C 	C 	0.45303	0.2835	0.35262	0.332
Mof_C 	C 	0.89898	0.8378	0.84771	0.127
Mof_C 	C 	0.95025	0.9223	0.9256	0.009
Mof_C 	C 	0.0389	0.9596	0.94217	-0.033
Mof_H 	H 	0.0657	0.9328	0.9037	0.077
Mof_C 	C 	0.08791	0.0372	0.01629	-0.038
Mof_H 	H 	0.1474	0.0621	0.0268	0.068
Mof_Zn	Zn	0.29577	0.08282	0.78847	1.234
Mof_O 	O 	0.27302	0.9684	0.86995	-0.458
Mof_O 	O 	0.16233	0.8314	0.82703	-0.262
Mof_O 	O 	0.1803	0.55	0.09125	-0.264
Mof_O 	O 	0.32167	0.5033	0.19629	-0.444
Mof_O 	O 	0.5915	0.7301	0.22239	-0.29
Mof_O 	O 	0.58244	0.86484	0.11594	-0.42
Mof_N 	N 	0.19506	0.20683	0.73822	-0.181
Mof_N 	N 	0.14321	0.2411	0.78	-0.043
Mof_N 	N 	0.08273	0.3245	0.72665	-0.072
Mof_N 	N 	0.17076	0.26685	0.65724	-0.089
Mof_C 	C 	0.23907	0.8705	0.87944	0.394
Mof_C 	C 	0.29666	0.7989	0.9664	-0.105
Mof_C 	C 	0.25566	0.7129	0.00152	0.042
Mof_H 	H 	0.192	0.6993	0.9714	0.055
Mof_C 	C 	0.30943	0.6468	0.08179	-0.093
Mof_C 	C 	0.40403	0.6673	0.12561	0.039
Mof_H 	H 	0.4403	0.6215	0.1779	0.056
Mof_C 	C 	0.44583	0.755	0.09282	-0.088
Mof_C 	C 	0.3917	0.8204	0.01263	0.038
Mof_H 	H 	0.4192	0.8787	0.9898	0.054
Mof_C 	C 	0.26476	0.5604	0.12486	0.357
Mof_C 	C 	0.54697	0.7835	0.14738	0.33
Mof_C 	C 	0.10102	0.3378	0.65229	0.126
Mof_C 	C 	0.04975	0.4223	0.5744	0.012
Mof_C 	C 	0.9611	0.4596	0.55783	-0.042
Mof_H 	H 	0.9343	0.4328	0.5963	0.079
Mof_C 	C 	0.91209	0.5372	0.48371	-0.034
Mof_H 	H 	0.8526	0.5621	0.4732	0.066
_end
