data_functionalizedCrystal
_audit_creation_method	'EQeq! by Chris Wilmer'
_symmetry_space_group_name_H-M	'P1'
_symmetry_Int_Tables_number	1
_symmetry_cell_setting	triclinic
loop_
_symmetry_equiv_pos_as_xyz
  x,y,z
_cell_length_a	14.0024
_cell_length_b	16.7039
_cell_length_c	26.8224
_cell_angle_alpha	91.165
_cell_angle_beta	90
_cell_angle_gamma	90
loop_
_atom_site_label
_atom_site_type_symbol
_atom_site_fract_x
_atom_site_fract_y
_atom_site_fract_z
_atom_site_charge
Mof_Cd	Cd	0.44763	0.55984	0.25491	0.509
Mof_Cd	Cd	0.69048	0.25028	0.4987	0.439
Mof_Cd	Cd	0.44921	0.94248	0.75294	0.444
Mof_Cd	Cd	0.19826	0.25118	0.99758	0.5
Mof_H 	H 	0.9004	0.2791	0.3287	0.153
Mof_H 	H 	0.1375	0.559	0.3193	0.08
Mof_H 	H 	0.9854	0.5224	0.3448	0.027
Mof_H 	H 	0.0226	0.3019	0.2835	0.048
Mof_H 	H 	0.1813	0.3355	0.2645	0.069
Mof_H 	H 	0.7171	0.3403	0.3329	0.042
Mof_H 	H 	0.7387	0.2258	0.2817	0.176
Mof_H 	H 	0.6687	0.2029	0.3263	0.182
Mof_H 	H 	0.7784	0.1762	0.3277	0.171
Mof_H 	H 	0.9956	0.2111	0.8271	0.139
Mof_H 	H 	0.7181	0.1505	0.7657	0.064
Mof_H 	H 	0.8746	0.1866	0.7854	0.068
Mof_H 	H 	0.9307	0.9595	0.8257	0.062
Mof_H 	H 	0.7755	0.9217	0.8033	0.046
Mof_H 	H 	0.183	0.1593	0.8299	0.032
Mof_H 	H 	0.1433	0.2766	0.7851	0.21
Mof_H 	H 	0.2236	0.2945	0.8263	0.194
Mof_H 	H 	0.1153	0.3207	0.8365	0.195
Mof_H 	H 	0.9841	0.2831	0.1671	0.136
Mof_H 	H 	0.7667	0.5765	0.1933	0.043
Mof_H 	H 	0.9175	0.5356	0.1666	0.067
Mof_H 	H 	0.8566	0.3082	0.2052	0.059
Mof_H 	H 	0.7039	0.3481	0.2294	0.05
Mof_H 	H 	0.1696	0.3388	0.1663	0.035
Mof_H 	H 	0.1319	0.2184	0.2083	0.201
Mof_H 	H 	0.2151	0.2047	0.1681	0.193
Mof_H 	H 	0.1086	0.176	0.1556	0.193
Mof_H 	H 	0.4486	0.7489	0.423	0.127
Mof_H 	H 	0.7505	0.9853	0.4431	0.043
Mof_H 	H 	0.7315	0.8506	0.4207	0.068
Mof_H 	H 	0.45	0.866	0.4528	0.038
Mof_H 	H 	0.4673	0.0012	0.4728	0.053
Mof_H 	H 	0.5526	0.6086	0.4188	0.039
Mof_H 	H 	0.4105	0.6146	0.4687	0.185
Mof_H 	H 	0.4092	0.5415	0.4292	0.19
Mof_H 	H 	0.3489	0.6207	0.4187	0.184
Mof_H 	H 	0.4468	0.7494	0.5794	0.147
Mof_H 	H 	0.7506	0.5173	0.5479	0.046
Mof_H 	H 	0.7311	0.6493	0.5753	0.074
Mof_H 	H 	0.4451	0.6266	0.5628	0.061
Mof_H 	H 	0.4641	0.4925	0.5384	0.055
Mof_H 	H 	0.5517	0.8868	0.5893	0.037
Mof_H 	H 	0.408	0.883	0.54	0.179
Mof_H 	H 	0.409	0.956	0.5796	0.178
Mof_H 	H 	0.3473	0.8776	0.5903	0.178
Mof_H 	H 	0.4394	0.7586	0.0857	0.146
Mof_H 	H 	0.4258	0.0148	0.0457	0.057
Mof_H 	H 	0.4444	0.8827	0.0724	0.062
Mof_H 	H 	0.1564	0.8606	0.0794	0.078
Mof_H 	H 	0.1388	0.9893	0.0495	0.049
Mof_H 	H 	0.3303	0.6243	0.0975	0.043
Mof_H 	H 	0.4673	0.6255	0.0419	0.187
Mof_H 	H 	0.464	0.5504	0.078	0.186
Mof_H 	H 	0.534	0.6239	0.0903	0.181
Mof_H 	H 	0.4374	0.7452	0.9113	0.147
Mof_H 	H 	0.4188	0.495	0.9694	0.056
Mof_H 	H 	0.4397	0.6307	0.9505	0.064
Mof_H 	H 	0.1568	0.6484	0.9207	0.076
Mof_H 	H 	0.1369	0.5136	0.9379	0.047
Mof_H 	H 	0.3319	0.8855	0.9123	0.043
Mof_H 	H 	0.4622	0.889	0.9694	0.188
Mof_H 	H 	0.471	0.9579	0.929	0.186
Mof_H 	H 	0.5349	0.8787	0.9237	0.184
Mof_C 	C 	0.2736	0.4762	0.27541	0.277
Mof_C 	C 	0.174	0.4516	0.28936	-0.009
Mof_C 	C 	0.1152	0.5061	0.3128	-0.069
Mof_C 	C 	0.024	0.4848	0.327	0.062
Mof_C 	C 	0.9882	0.4093	0.3156	-0.102
Mof_C 	C 	0.0464	0.3538	0.29166	0.024
Mof_C 	C 	0.1403	0.3743	0.27953	-0.048
Mof_C 	C 	0.8868	0.393	0.33096	0.232
Mof_C 	C 	0.7598	0.297	0.3452	0.083
Mof_C 	C 	0.734	0.2183	0.31774	-0.469
Mof_C 	C 	0.7406	0.2861	0.40081	0.245
Mof_C 	C 	0.6291	0.0089	0.7726	0.292
Mof_C 	C 	0.7306	0.0324	0.78329	-0.054
Mof_C 	C 	0.7611	0.1114	0.77776	-0.007
Mof_C 	C 	0.8541	0.133	0.78982	-0.037
Mof_C 	C 	0.9173	0.077	0.80825	-0.042
Mof_C 	C 	0.8876	0.9982	0.81336	-0.034
Mof_C 	C 	0.7949	0.9759	0.8004	-0.009
Mof_C 	C 	0.0164	0.0971	0.82559	0.229
Mof_C 	C 	0.1369	0.1995	0.84398	0.109
Mof_C 	C 	0.1565	0.2799	0.82093	-0.513
Mof_C 	C 	0.1548	0.2095	0.90001	0.233
Mof_C 	C 	0.6227	0.4946	0.23074	0.293
Mof_C 	C 	0.7203	0.4666	0.21449	-0.054
Mof_C 	C 	0.7845	0.5218	0.1954	-0.005
Mof_C 	C 	0.874	0.4975	0.1795	-0.038
Mof_C 	C 	0.9006	0.4178	0.18218	-0.035
Mof_C 	C 	0.8377	0.3625	0.20201	-0.045
Mof_C 	C 	0.7476	0.3865	0.21712	-0.003
Mof_C 	C 	0.0005	0.3973	0.1646	0.225
Mof_C 	C 	0.1258	0.298	0.15079	0.101
Mof_C 	C 	0.1473	0.2171	0.17263	-0.505
Mof_C 	C 	0.1465	0.2917	0.09509	0.24
Mof_C 	C 	0.6255	0.094	0.47347	0.291
Mof_C 	C 	0.6114	0.0068	0.46041	-0.056
Mof_C 	C 	0.6892	0.9612	0.44492	-0.008
Mof_C 	C 	0.6781	0.881	0.43205	-0.038
Mof_C 	C 	0.5888	0.8447	0.43571	-0.031
Mof_C 	C 	0.5112	0.8903	0.45076	-0.035
Mof_C 	C 	0.5214	0.9705	0.46285	-0.016
Mof_C 	C 	0.5847	0.7577	0.42138	0.221
Mof_C 	C 	0.4935	0.6355	0.40658	0.095
Mof_C 	C 	0.4079	0.5999	0.43317	-0.49
Mof_C 	C 	0.4837	0.6176	0.35051	0.247
Mof_C 	C 	0.624	0.4053	0.52556	0.294
Mof_C 	C 	0.6092	0.4919	0.54061	-0.059
Mof_C 	C 	0.6882	0.539	0.55154	-0.002
Mof_C 	C 	0.6765	0.6175	0.56766	-0.044
Mof_C 	C 	0.5857	0.6505	0.57277	-0.019
Mof_C 	C 	0.5073	0.6041	0.56068	-0.052
Mof_C 	C 	0.5186	0.5245	0.54547	-0.009
Mof_C 	C 	0.5808	0.7351	0.59263	0.207
Mof_C 	C 	0.4925	0.8603	0.60178	0.083
Mof_C 	C 	0.4064	0.8976	0.57554	-0.471
Mof_C 	C 	0.4836	0.8794	0.65774	0.251
Mof_C 	C 	0.2656	0.0985	0.02713	0.289
Mof_C 	C 	0.2805	0.0147	0.04456	-0.057
Mof_C 	C 	0.371	0.983	0.05199	-0.01
Mof_C 	C 	0.3822	0.9046	0.06871	-0.051
Mof_C 	C 	0.3025	0.8591	0.0798	-0.017
Mof_C 	C 	0.2115	0.8916	0.07229	-0.042
Mof_C 	C 	0.201	0.9682	0.05469	-0.002
Mof_C 	C 	0.3062	0.7762	0.09976	0.205
Mof_C 	C 	0.3924	0.6496	0.10731	0.086
Mof_C 	C 	0.4716	0.6087	0.07662	-0.478
Mof_C 	C 	0.41	0.6322	0.16226	0.247
Mof_C 	C 	0.2579	0.4063	0.97113	0.289
Mof_C 	C 	0.2748	0.492	0.957	-0.057
Mof_C 	C 	0.3655	0.5264	0.95992	-0.006
Mof_C 	C 	0.3779	0.6073	0.94896	-0.053
Mof_C 	C 	0.2999	0.6532	0.93579	-0.016
Mof_C 	C 	0.2099	0.6175	0.93109	-0.045
Mof_C 	C 	0.1981	0.5376	0.94146	-0
Mof_C 	C 	0.3045	0.7415	0.92675	0.205
Mof_C 	C 	0.3938	0.8596	0.90278	0.084
Mof_C 	C 	0.4726	0.8999	0.93404	-0.477
Mof_C 	C 	0.4104	0.8746	0.84724	0.245
Mof_N 	N 	0.8585	0.31772	0.33382	-0.233
Mof_N 	N 	0.0399	0.17438	0.83123	-0.219
Mof_N 	N 	0.0268	0.3207	0.16202	-0.22
Mof_N 	N 	0.5012	0.72096	0.41809	-0.223
Mof_N 	N 	0.4986	0.77508	0.58933	-0.225
Mof_N 	N 	0.3873	0.7342	0.09572	-0.224
Mof_N 	N 	0.3859	0.77521	0.9136	-0.226
Mof_O 	O 	0.28822	0.54973	0.2692	-0.247
Mof_O 	O 	0.33808	0.42447	0.27098	-0.218
Mof_O 	O 	0.8327	0.45074	0.34097	-0.21
Mof_O 	O 	0.65362	0.28078	0.41446	-0.226
Mof_O 	O 	0.80703	0.27919	0.43153	-0.263
Mof_O 	O 	0.56516	0.06206	0.7702	-0.236
Mof_O 	O 	0.61085	0.93567	0.76682	-0.266
Mof_O 	O 	0.07383	0.04316	0.83559	-0.209
Mof_O 	O 	0.24131	0.217	0.91407	-0.227
Mof_O 	O 	0.08651	0.21619	0.92999	-0.248
Mof_O 	O 	0.55543	0.44458	0.2342	-0.232
Mof_O 	O 	0.61165	0.56734	0.24	-0.265
Mof_O 	O 	0.05574	0.4517	0.15257	-0.201
Mof_O 	O 	0.23381	0.29004	0.08211	-0.226
Mof_O 	O 	0.08059	0.28175	0.06418	-0.248
Mof_O 	O 	0.7089	0.11639	0.48462	-0.285
Mof_O 	O 	0.5557	0.1409	0.47355	-0.236
Mof_O 	O 	0.6585	0.7206	0.4117	-0.209
Mof_O 	O 	0.47063	0.67045	0.31969	-0.23
Mof_O 	O 	0.4848	0.54385	0.33792	-0.234
Mof_O 	O 	0.7065	0.38427	0.51234	-0.276
Mof_O 	O 	0.5552	0.3573	0.52682	-0.24
Mof_O 	O 	0.65353	0.76734	0.61104	-0.205
Mof_O 	O 	0.4641	0.82686	0.68819	-0.264
Mof_O 	O 	0.49164	0.95278	0.67034	-0.252
Mof_O 	O 	0.18327	0.11874	0.01403	-0.267
Mof_O 	O 	0.33545	0.14644	0.02632	-0.226
Mof_O 	O 	0.2332	0.74614	0.11894	-0.195
Mof_O 	O 	0.4057	0.55847	0.1735	-0.24
Mof_O 	O 	0.4296	0.68529	0.19354	-0.249
Mof_O 	O 	0.32662	0.35813	0.97235	-0.229
Mof_O 	O 	0.17404	0.3861	0.9821	-0.262
Mof_O 	O 	0.2299	0.78266	0.93268	-0.2
Mof_O 	O 	0.4174	0.94747	0.83524	-0.254
Mof_O 	O 	0.41882	0.81929	0.81595	-0.263
Mof_Cd	Cd	0.94763	0.44016	0.74509	0.5
Mof_Cd	Cd	0.19048	0.74972	0.5013	0.44
Mof_Cd	Cd	0.94921	0.05752	0.24706	0.434
Mof_Cd	Cd	0.69826	0.74882	0.00242	0.497
Mof_H 	H 	0.4004	0.7209	0.6713	0.151
Mof_H 	H 	0.6375	0.441	0.6807	0.056
Mof_H 	H 	0.4854	0.4776	0.6552	0.071
Mof_H 	H 	0.5226	0.6981	0.7165	0.064
Mof_H 	H 	0.6813	0.6645	0.7355	0.051
Mof_H 	H 	0.2171	0.6597	0.6671	0.044
Mof_H 	H 	0.2387	0.7742	0.7183	0.178
Mof_H 	H 	0.1687	0.7971	0.6737	0.185
Mof_H 	H 	0.2784	0.8238	0.6723	0.172
Mof_H 	H 	0.4956	0.7889	0.1729	0.152
Mof_H 	H 	0.2181	0.8495	0.2343	0.063
Mof_H 	H 	0.3746	0.8134	0.2146	0.074
Mof_H 	H 	0.4307	0.0405	0.1743	0.071
Mof_H 	H 	0.2755	0.0783	0.1967	0.044
Mof_H 	H 	0.683	0.8407	0.1701	0.032
Mof_H 	H 	0.6433	0.7234	0.2149	0.205
Mof_H 	H 	0.7236	0.7055	0.1737	0.191
Mof_H 	H 	0.6153	0.6793	0.1635	0.19
Mof_H 	H 	0.4841	0.7169	0.8329	0.149
Mof_H 	H 	0.2667	0.4235	0.8067	0.042
Mof_H 	H 	0.4175	0.4644	0.8334	0.075
Mof_H 	H 	0.3566	0.6918	0.7948	0.064
Mof_H 	H 	0.2039	0.6519	0.7706	0.049
Mof_H 	H 	0.6696	0.6612	0.8337	0.036
Mof_H 	H 	0.6319	0.7816	0.7917	0.197
Mof_H 	H 	0.7151	0.7953	0.8319	0.19
Mof_H 	H 	0.6086	0.824	0.8444	0.189
Mof_H 	H 	0.9486	0.2511	0.577	0.112
Mof_H 	H 	0.2505	0.0147	0.5569	0.043
Mof_H 	H 	0.2315	0.1494	0.5793	0.07
Mof_H 	H 	0.95	0.134	0.5472	0.023
Mof_H 	H 	0.9673	0.9988	0.5272	0.036
Mof_H 	H 	0.0526	0.3914	0.5812	0.063
Mof_H 	H 	0.9105	0.3854	0.5313	0.171
Mof_H 	H 	0.9092	0.4585	0.5708	0.176
Mof_H 	H 	0.8489	0.3793	0.5813	0.173
Mof_H 	H 	0.9468	0.2506	0.4206	0.147
Mof_H 	H 	0.2506	0.4827	0.4521	0.046
Mof_H 	H 	0.2311	0.3507	0.4247	0.074
Mof_H 	H 	0.9451	0.3734	0.4372	0.045
Mof_H 	H 	0.9641	0.5075	0.4616	0.039
Mof_H 	H 	0.0517	0.1132	0.4107	0.057
Mof_H 	H 	0.908	0.117	0.46	0.169
Mof_H 	H 	0.909	0.044	0.4204	0.167
Mof_H 	H 	0.8473	0.1224	0.4097	0.171
Mof_H 	H 	0.9394	0.2414	0.9143	0.142
Mof_H 	H 	0.9258	0.9852	0.9543	0.055
Mof_H 	H 	0.9444	0.1173	0.9276	0.057
Mof_H 	H 	0.6564	0.1394	0.9206	0.075
Mof_H 	H 	0.6388	0.0107	0.9505	0.047
Mof_H 	H 	0.8303	0.3757	0.9025	0.038
Mof_H 	H 	0.9673	0.3745	0.9581	0.199
Mof_H 	H 	0.964	0.4496	0.922	0.197
Mof_H 	H 	0.034	0.3761	0.9097	0.207
Mof_H 	H 	0.9374	0.2548	0.0887	0.143
Mof_H 	H 	0.9188	0.505	0.0306	0.052
Mof_H 	H 	0.9397	0.3693	0.0495	0.059
Mof_H 	H 	0.6568	0.3516	0.0793	0.073
Mof_H 	H 	0.6369	0.4864	0.0621	0.045
Mof_H 	H 	0.8319	0.1145	0.0877	0.038
Mof_H 	H 	0.9622	0.111	0.0306	0.2
Mof_H 	H 	0.971	0.0421	0.071	0.197
Mof_H 	H 	0.0349	0.1213	0.0763	0.211
Mof_C 	C 	0.7736	0.5238	0.72459	0.292
Mof_C 	C 	0.674	0.5484	0.71064	-0.052
Mof_C 	C 	0.6152	0.4939	0.6872	-0.004
Mof_C 	C 	0.524	0.5152	0.673	-0.042
Mof_C 	C 	0.4882	0.5907	0.6844	-0.019
Mof_C 	C 	0.5464	0.6462	0.70834	-0.047
Mof_C 	C 	0.6403	0.6257	0.72047	0.001
Mof_C 	C 	0.3868	0.607	0.66904	0.208
Mof_C 	C 	0.2598	0.703	0.6548	0.083
Mof_C 	C 	0.234	0.7817	0.68226	-0.471
Mof_C 	C 	0.2406	0.7139	0.59919	0.245
Mof_C 	C 	0.1291	0.9911	0.2274	0.293
Mof_C 	C 	0.2306	0.9676	0.21671	-0.058
Mof_C 	C 	0.2611	0.8886	0.22224	0.001
Mof_C 	C 	0.3541	0.867	0.21018	-0.048
Mof_C 	C 	0.4173	0.923	0.19175	-0.02
Mof_C 	C 	0.3876	0.0018	0.18664	-0.046
Mof_C 	C 	0.2949	0.0241	0.1996	-0.001
Mof_C 	C 	0.5164	0.9029	0.17441	0.21
Mof_C 	C 	0.6369	0.8005	0.15602	0.106
Mof_C 	C 	0.6565	0.7201	0.17907	-0.507
Mof_C 	C 	0.6548	0.7905	0.09999	0.235
Mof_C 	C 	0.1227	0.5054	0.76926	0.294
Mof_C 	C 	0.2203	0.5334	0.78551	-0.057
Mof_C 	C 	0.2845	0.4782	0.8046	0.003
Mof_C 	C 	0.374	0.5025	0.8205	-0.049
Mof_C 	C 	0.4006	0.5822	0.81782	-0.014
Mof_C 	C 	0.3377	0.6375	0.79799	-0.056
Mof_C 	C 	0.2476	0.6135	0.78288	0.004
Mof_C 	C 	0.5005	0.6027	0.8354	0.207
Mof_C 	C 	0.6258	0.702	0.84921	0.097
Mof_C 	C 	0.6473	0.7829	0.82737	-0.499
Mof_C 	C 	0.6465	0.7083	0.90491	0.241
Mof_C 	C 	0.1255	0.906	0.52653	0.294
Mof_C 	C 	0.1114	0.9932	0.53959	-0.061
Mof_C 	C 	0.1892	0.0388	0.55508	-0.005
Mof_C 	C 	0.1781	0.119	0.56795	-0.038
Mof_C 	C 	0.0888	0.1553	0.56429	-0.032
Mof_C 	C 	0.0112	0.1097	0.54924	-0.016
Mof_C 	C 	0.0214	0.0295	0.53715	0.004
Mof_C 	C 	0.0847	0.2423	0.57862	0.221
Mof_C 	C 	0.9935	0.3645	0.59342	0.046
Mof_C 	C 	0.9079	0.4001	0.56683	-0.451
Mof_C 	C 	0.9837	0.3824	0.64949	0.259
Mof_C 	C 	0.124	0.5947	0.47444	0.297
Mof_C 	C 	0.1092	0.5081	0.45939	-0.063
Mof_C 	C 	0.1882	0.461	0.44846	-0.001
Mof_C 	C 	0.1765	0.3825	0.43234	-0.04
Mof_C 	C 	0.0857	0.3495	0.42723	-0.027
Mof_C 	C 	0.0073	0.3959	0.43932	-0.028
Mof_C 	C 	0.0186	0.4755	0.45453	0.011
Mof_C 	C 	0.0808	0.2649	0.40737	0.224
Mof_C 	C 	0.9925	0.1397	0.39822	0.052
Mof_C 	C 	0.9064	0.1024	0.42446	-0.447
Mof_C 	C 	0.9836	0.1206	0.34226	0.257
Mof_C 	C 	0.7656	0.9015	0.97287	0.289
Mof_C 	C 	0.7805	0.9853	0.95544	-0.057
Mof_C 	C 	0.871	0.017	0.94801	-0.014
Mof_C 	C 	0.8822	0.0954	0.93129	-0.049
Mof_C 	C 	0.8025	0.1409	0.9202	-0.019
Mof_C 	C 	0.7115	0.1084	0.92771	-0.041
Mof_C 	C 	0.701	0.0318	0.94531	-0.004
Mof_C 	C 	0.8062	0.2238	0.90024	0.205
Mof_C 	C 	0.8924	0.3504	0.89269	0.101
Mof_C 	C 	0.9716	0.3913	0.92338	-0.533
Mof_C 	C 	0.91	0.3678	0.83774	0.24
Mof_C 	C 	0.7579	0.5937	0.02887	0.29
Mof_C 	C 	0.7748	0.508	0.043	-0.059
Mof_C 	C 	0.8655	0.4736	0.04008	-0.007
Mof_C 	C 	0.8779	0.3927	0.05104	-0.053
Mof_C 	C 	0.7999	0.3468	0.06421	-0.018
Mof_C 	C 	0.7099	0.3825	0.06891	-0.045
Mof_C 	C 	0.6981	0.4624	0.05854	-0.001
Mof_C 	C 	0.8045	0.2585	0.07325	0.205
Mof_C 	C 	0.8938	0.1404	0.09722	0.099
Mof_C 	C 	0.9726	0.1001	0.06596	-0.533
Mof_C 	C 	0.9104	0.1254	0.15276	0.238
Mof_N 	N 	0.3585	0.68228	0.66618	-0.227
Mof_N 	N 	0.5399	0.82562	0.16877	-0.228
Mof_N 	N 	0.5268	0.6793	0.83798	-0.229
Mof_N 	N 	0.0012	0.27904	0.58191	-0.198
Mof_N 	N 	0.9986	0.22492	0.41067	-0.232
Mof_N 	N 	0.8873	0.2658	0.90428	-0.226
Mof_N 	N 	0.8859	0.22479	0.0864	-0.228
Mof_O 	O 	0.78822	0.45027	0.7308	-0.251
Mof_O 	O 	0.83808	0.57553	0.72902	-0.225
Mof_O 	O 	0.3327	0.54926	0.65903	-0.201
Mof_O 	O 	0.15362	0.71922	0.58554	-0.224
Mof_O 	O 	0.30703	0.72081	0.56847	-0.263
Mof_O 	O 	0.06516	0.93794	0.2298	-0.229
Mof_O 	O 	0.11085	0.06433	0.23318	-0.259
Mof_O 	O 	0.57383	0.95684	0.16441	-0.21
Mof_O 	O 	0.74131	0.783	0.08593	-0.229
Mof_O 	O 	0.58651	0.78381	0.07001	-0.255
Mof_O 	O 	0.05543	0.55542	0.7658	-0.224
Mof_O 	O 	0.11165	0.43266	0.76	-0.259
Mof_O 	O 	0.55574	0.5483	0.84743	-0.203
Mof_O 	O 	0.73381	0.70996	0.91789	-0.228
Mof_O 	O 	0.58059	0.71825	0.93582	-0.255
Mof_O 	O 	0.2089	0.88361	0.51538	-0.285
Mof_O 	O 	0.0557	0.8591	0.52645	-0.232
Mof_O 	O 	0.1585	0.2794	0.5883	-0.205
Mof_O 	O 	0.97063	0.32955	0.68031	-0.238
Mof_O 	O 	0.9848	0.45615	0.66208	-0.243
Mof_O 	O 	0.2065	0.61573	0.48766	-0.276
Mof_O 	O 	0.0552	0.6427	0.47318	-0.234
Mof_O 	O 	0.15353	0.23266	0.38896	-0.205
Mof_O 	O 	0.9641	0.17314	0.31181	-0.27
Mof_O 	O 	0.99164	0.04722	0.32966	-0.26
Mof_O 	O 	0.68327	0.88126	0.98597	-0.269
Mof_O 	O 	0.83545	0.85356	0.97368	-0.229
Mof_O 	O 	0.7332	0.25386	0.88106	-0.198
Mof_O 	O 	0.9057	0.44153	0.8265	-0.242
Mof_O 	O 	0.9296	0.31471	0.80646	-0.25
Mof_O 	O 	0.82662	0.64187	0.02765	-0.232
Mof_O 	O 	0.67404	0.6139	0.0179	-0.265
Mof_O 	O 	0.7299	0.21734	0.06732	-0.202
Mof_O 	O 	0.9174	0.05253	0.16476	-0.257
Mof_O 	O 	0.91882	0.18071	0.18405	-0.264
_end
