data_functionalizedCrystal
_audit_creation_method	'EQeq! by Chris Wilmer'
_symmetry_space_group_name_H-M	'P1'
_symmetry_Int_Tables_number	1
_symmetry_cell_setting	triclinic
loop_
_symmetry_equiv_pos_as_xyz
  x,y,z
_cell_length_a	7.569
_cell_length_b	7.821
_cell_length_c	18.033
_cell_angle_alpha	90
_cell_angle_beta	98.8
_cell_angle_gamma	90
loop_
_atom_site_label
_atom_site_type_symbol
_atom_site_fract_x
_atom_site_fract_y
_atom_site_fract_z
_atom_site_charge
Mof_Fe	Fe	0.3659	0.0565	0.6352	0.88
Mof_Fe	Fe	0.7122	0.798	0.6901	0.885
Mof_P 	P 	0.554	0.4171	0.6909	0.546
Mof_O 	O 	0.422	0.3065	0.6399	-0.331
Mof_O 	O 	0.1951	0.8484	0.6169	-0.29
Mof_O 	O 	0.5847	0.9465	0.5926	-0.37
Mof_O 	O 	0.5059	0.9339	0.7322	-0.416
Mof_O 	O 	0.2982	0.0977	0.5124	-0.273
Mof_O 	O 	0.1391	0.1299	0.6974	-0.317
Mof_O 	O 	0.5788	0.5888	0.656	-0.335
Mof_O 	O 	0.9434	0.7358	0.6428	-0.268
Mof_O 	O 	0.8818	0.0119	0.7212	-0.275
Mof_O 	O 	0.7451	0.3307	0.7003	-0.209
Mof_C 	C 	0.0577	0.8525	0.6469	0.259
Mof_C 	C 	0.0242	0.0132	0.6935	0.251
Mof_C 	C 	0.5838	0.9556	0.5222	0.266
Mof_Fe	Fe	0.6341	0.5565	0.8648	0.88
Mof_Fe	Fe	0.2878	0.298	0.8099	0.884
Mof_P 	P 	0.446	0.9171	0.8091	0.546
Mof_O 	O 	0.578	0.8065	0.8601	-0.333
Mof_O 	O 	0.8049	0.3484	0.8831	-0.29
Mof_O 	O 	0.4153	0.4465	0.9074	-0.37
Mof_O 	O 	0.4941	0.4339	0.7678	-0.416
Mof_O 	O 	0.7018	0.5977	0.9876	-0.273
Mof_O 	O 	0.8609	0.6299	0.8026	-0.318
Mof_O 	O 	0.4212	0.0888	0.844	-0.335
Mof_O 	O 	0.0566	0.2358	0.8572	-0.267
Mof_O 	O 	0.1182	0.5119	0.7788	-0.278
Mof_O 	O 	0.2549	0.8307	0.7997	-0.208
Mof_C 	C 	0.9423	0.3525	0.8531	0.256
Mof_C 	C 	0.9758	0.5132	0.8065	0.255
Mof_C 	C 	0.4162	0.4556	0.9778	0.266
Mof_Fe	Fe	0.6341	0.9435	0.3648	0.879
Mof_Fe	Fe	0.2878	0.202	0.3099	0.884
Mof_P 	P 	0.446	0.5829	0.3091	0.545
Mof_O 	O 	0.578	0.6935	0.3601	-0.332
Mof_O 	O 	0.8049	0.1516	0.3831	-0.29
Mof_O 	O 	0.4153	0.0535	0.4074	-0.37
Mof_O 	O 	0.4941	0.0661	0.2678	-0.416
Mof_O 	O 	0.7018	0.9023	0.4876	-0.273
Mof_O 	O 	0.8609	0.8701	0.3026	-0.317
Mof_O 	O 	0.4212	0.4112	0.344	-0.335
Mof_O 	O 	0.0566	0.2642	0.3572	-0.268
Mof_O 	O 	0.1182	0.9881	0.2788	-0.275
Mof_O 	O 	0.2549	0.6693	0.2997	-0.209
Mof_C 	C 	0.9423	0.1475	0.3531	0.259
Mof_C 	C 	0.9758	0.9868	0.3065	0.251
Mof_C 	C 	0.4162	0.0444	0.4778	0.266
Mof_Fe	Fe	0.3659	0.4435	0.1352	0.88
Mof_Fe	Fe	0.7122	0.702	0.1901	0.884
Mof_P 	P 	0.554	0.0829	0.1909	0.546
Mof_O 	O 	0.422	0.1935	0.1399	-0.333
Mof_O 	O 	0.1951	0.6516	0.1169	-0.29
Mof_O 	O 	0.5847	0.5535	0.0926	-0.37
Mof_O 	O 	0.5059	0.5661	0.2322	-0.416
Mof_O 	O 	0.2982	0.4023	0.0124	-0.273
Mof_O 	O 	0.1391	0.3701	0.1974	-0.318
Mof_O 	O 	0.5788	0.9112	0.156	-0.335
Mof_O 	O 	0.9434	0.7642	0.1428	-0.267
Mof_O 	O 	0.8818	0.4881	0.2212	-0.278
Mof_O 	O 	0.7451	0.1693	0.2003	-0.208
Mof_C 	C 	0.0577	0.6475	0.1469	0.256
Mof_C 	C 	0.0242	0.4868	0.1935	0.255
Mof_C 	C 	0.5838	0.5444	0.0222	0.266
_end
