# CIF file generated by openbabel 3.1.0, see https://openbabel.org
data_I
_chemical_name_common 'image0'
_cell_length_a 14.691
_cell_length_b 14.818
_cell_length_c 17.713
_cell_angle_alpha 98.13
_cell_angle_beta 93.1
_cell_angle_gamma 115.29
_space_group_name_H-M_alt 'P 1'
_space_group_name_Hall 'P 1'
loop_
    _symmetry_equiv_pos_as_xyz
    x,y,z
loop_
    _atom_site_label
    _atom_site_type_symbol
    _atom_site_fract_x
    _atom_site_fract_y
    _atom_site_fract_z
    _atom_site_occupancy
    Mn1      Mn       0.96982    0.00857    0.21754    1.000
    Mn2      Mn       0.75557    0.76153    0.25770    1.000
    Mn3      Mn       0.51390    0.54040    0.28340    1.000
    C1       C        0.07610    0.43430    0.12040    1.000
    O1       O        0.86670    0.91500    0.30130    1.000
    O2       O        0.64260    0.56040    0.35760    1.000
    O3       O        0.95920    0.46090    0.19700    1.000
    O4       O        0.10080    0.11970    0.08270    1.000
    O5       O        0.36340    0.19640    0.70760    1.000
    O6       O        0.86440    0.75080    0.18280    1.000
    O7       O        0.56280    0.87640    0.86640    1.000
    O8       O        0.60640    0.88610    0.62930    1.000
    C2       C        0.03010    0.58210    0.11380    1.000
    O9       O        0.47620    0.31530    0.64970    1.000
    O10      O        0.33900    0.83920    0.10490    1.000
    O11      O        0.22340    0.60180    0.99300    1.000
    O12      O        0.04170    0.15860    0.19410    1.000
    O13      O        0.67260    0.18990    0.46620    1.000
    C3       C        0.09350    0.61290    0.06150    1.000
    O14      O        0.79120    0.68190    0.33760    1.000
    C4       C        0.50660    0.85730    0.91940    1.000
    C5       C        0.69190    0.97330    0.52890    1.000
    C6       C        0.10230    0.69750    0.03040    1.000
    H1       H        0.14550    0.71640    0.99170    1.000
    C7       C        0.05720    0.33920    0.14080    1.000
    H2       H        0.00760    0.31100    0.17380    1.000
    C8       C        0.45910    0.79210    0.03990    1.000
    O15      O        0.10920    0.64340    0.41530    1.000
    C9       C        0.36920    0.89220    0.98490    1.000
    C10      C        0.99230    0.73020    0.11150    1.000
    C11      C        0.66000    0.12600    0.50430    1.000
    C12      C        0.59550    0.11120    0.56780    1.000
    C13      C        0.05150    0.75610    0.05290    1.000
    H3       H        0.05750    0.81150    0.02890    1.000
    C14      C        0.48850    0.15930    0.64680    1.000
    C15      C        0.73250    0.90160    0.50880    1.000
    H4       H        0.71600    0.84630    0.53530    1.000
    O16      O        0.92360    0.08620    0.32070    1.000
    C16      C        0.70980    0.05090    0.48680    1.000
    C17      C        0.55100    0.17550    0.58630    1.000
    H5       H        0.56180    0.22950    0.55930    1.000
    O17      O        0.97160    0.88100    0.13280    1.000
    C18      C        0.78890    0.44840    0.49760    1.000
    H6       H        0.75430    0.40560    0.53210    1.000
    C19      C        0.02210    0.49290    0.15440    1.000
    C20      C        0.62290    0.95480    0.59150    1.000
    C21      C        0.08480    0.18120    0.13310    1.000
    C22      C        0.42260    0.89180    0.91920    1.000
    C23      C        0.20780    0.42000    0.03950    1.000
    H7       H        0.25850    0.44910    0.00740    1.000
    C24      C        0.40560    0.94070    0.85830    1.000
    H8       H        0.44610    0.95140    0.81740    1.000
    C25      C        0.14340    0.46960    0.07170    1.000
    C26      C        0.57270    0.02560    0.60890    1.000
    C27      C        0.81030    0.99060    0.40570    1.000
    C28      C        0.11150    0.28740    0.11230    1.000
    O18      O        0.46760    0.58840    0.18650    1.000
    O19      O        0.62800    0.64140    0.17710    1.000
    C29      C        0.43300    0.22980    0.66680    1.000
    C30      C        0.18340    0.32160    0.06320    1.000
    H9       H        0.21710    0.28210    0.04480    1.000
    C31      C        0.94730    0.54410    0.45490    1.000
    C32      C        0.79230    0.91090    0.45400    1.000
    H10      H        0.82390    0.86680    0.44550    1.000
    C33      C        0.51150    0.01070    0.66460    1.000
    H11      H        0.49710    0.95490    0.69030    1.000
    C34      C        0.05220    0.57270    0.45280    1.000
    C35      C        0.54570    0.63760    0.15290    1.000
    C36      C        0.96940    0.63670    0.14090    1.000
    H12      H        0.91980    0.61240    0.17480    1.000
    C37      C        0.51700    0.80810    0.97940    1.000
    C38      C        0.79530    0.56370    0.41680    1.000
    C39      C        0.87160    0.00430    0.34040    1.000
    C40      C        0.77160    0.06550    0.42810    1.000
    H13      H        0.78820    0.12240    0.40350    1.000
    C41      C        0.53890    0.70040    0.09730    1.000
    C42      C        0.59310    0.70680    0.04230    1.000
    H14      H        0.63200    0.66950    0.03720    1.000
    C43      C        0.73830    0.61030    0.36400    1.000
    C44      C        0.38040    0.83700    0.04990    1.000
    C45      C        0.59430    0.77540    0.98460    1.000
    H15      H        0.64670    0.79580    0.95260    1.000
    C46      C        0.16050    0.56360    0.03390    1.000
    C47      C        0.88490    0.46420    0.49110    1.000
    C48      C        0.28950    0.91850    0.98140    1.000
    H16      H        0.24660    0.90680    0.02090    1.000
    C49      C        0.32990    0.97140    0.86090    1.000
    H17      H        0.31680    0.00060    0.81970    1.000
    C50      C        0.89750    0.58800    0.41270    1.000
    H18      H        0.93420    0.63460    0.38110    1.000
    C51      C        0.46860    0.07990    0.68450    1.000
    H19      H        0.42610    0.07050    0.72410    1.000
    C52      C        0.93470    0.79430    0.14840    1.000
    C53      C        0.46670    0.73840    0.09510    1.000
    H20      H        0.42160    0.72670    0.13300    1.000
    C54      C        0.73380    0.49080    0.45640    1.000
    H21      H        0.66320    0.47110    0.45650    1.000
    C55      C        0.27110    0.96170    0.92150    1.000
    O20      O        0.16620    0.02230    0.85460    1.000
    O21      O        0.12200    0.97050    0.96740    1.000
    C56      C        0.17870    0.99050    0.91650    1.000
    Mn4      Mn       0.03018    0.99143    0.78246    1.000
    Mn5      Mn       0.24443    0.23847    0.74230    1.000
    Mn6      Mn       0.48610    0.45960    0.71660    1.000
    C57      C        0.92390    0.56570    0.87960    1.000
    O22      O        0.13330    0.08500    0.69870    1.000
    O23      O        0.35740    0.43960    0.64240    1.000
    O24      O        0.04080    0.53910    0.80300    1.000
    O25      O        0.89920    0.88030    0.91730    1.000
    O26      O        0.63660    0.80360    0.29240    1.000
    O27      O        0.13560    0.24920    0.81720    1.000
    O28      O        0.43720    0.12360    0.13360    1.000
    O29      O        0.39360    0.11390    0.37070    1.000
    C58      C        0.96990    0.41790    0.88620    1.000
    O30      O        0.52380    0.68470    0.35030    1.000
    O31      O        0.66100    0.16080    0.89510    1.000
    O32      O        0.77660    0.39820    0.00700    1.000
    O33      O        0.95830    0.84140    0.80590    1.000
    O34      O        0.32740    0.81010    0.53380    1.000
    C59      C        0.90650    0.38710    0.93850    1.000
    O35      O        0.20880    0.31810    0.66240    1.000
    C60      C        0.49340    0.14270    0.08060    1.000
    C61      C        0.30810    0.02670    0.47110    1.000
    C62      C        0.89770    0.30250    0.96960    1.000
    H22      H        0.85450    0.28360    0.00830    1.000
    C63      C        0.94280    0.66080    0.85920    1.000
    H23      H        0.99240    0.68900    0.82620    1.000
    C64      C        0.54090    0.20790    0.96010    1.000
    O36      O        0.89080    0.35660    0.58470    1.000
    C65      C        0.63080    0.10780    0.01510    1.000
    C66      C        0.00770    0.26980    0.88850    1.000
    C67      C        0.34000    0.87400    0.49570    1.000
    C68      C        0.40450    0.88880    0.43220    1.000
    C69      C        0.94850    0.24390    0.94710    1.000
    H24      H        0.94250    0.18850    0.97110    1.000
    C70      C        0.51150    0.84070    0.35320    1.000
    C71      C        0.26750    0.09840    0.49120    1.000
    H25      H        0.28400    0.15370    0.46470    1.000
    O37      O        0.07640    0.91380    0.67930    1.000
    C72      C        0.29020    0.94910    0.51320    1.000
    C73      C        0.44900    0.82450    0.41370    1.000
    H26      H        0.43820    0.77050    0.44070    1.000
    O38      O        0.02840    0.11900    0.86720    1.000
    C74      C        0.21110    0.55160    0.50240    1.000
    H27      H        0.24570    0.59440    0.46790    1.000
    C75      C        0.97790    0.50710    0.84560    1.000
    C76      C        0.37710    0.04520    0.40850    1.000
    C77      C        0.91520    0.81880    0.86690    1.000
    C78      C        0.57740    0.10820    0.08080    1.000
    C79      C        0.79220    0.58000    0.96050    1.000
    H28      H        0.74150    0.55090    0.99260    1.000
    C80      C        0.59440    0.05930    0.14170    1.000
    H29      H        0.55390    0.04860    0.18260    1.000
    C81      C        0.85660    0.53040    0.92830    1.000
    C82      C        0.42730    0.97440    0.39110    1.000
    C83      C        0.18970    0.00940    0.59430    1.000
    C84      C        0.88850    0.71260    0.88770    1.000
    O39      O        0.53240    0.41160    0.81350    1.000
    O40      O        0.37200    0.35860    0.82290    1.000
    C85      C        0.56700    0.77020    0.33320    1.000
    C86      C        0.81660    0.67840    0.93680    1.000
    H30      H        0.78290    0.71790    0.95520    1.000
    C87      C        0.05270    0.45590    0.54510    1.000
    C88      C        0.20770    0.08910    0.54600    1.000
    H31      H        0.17610    0.13320    0.55450    1.000
    C89      C        0.48850    0.98930    0.33540    1.000
    H32      H        0.50290    0.04510    0.30970    1.000
    C90      C        0.94780    0.42730    0.54720    1.000
    C91      C        0.45430    0.36240    0.84710    1.000
    C92      C        0.03060    0.36330    0.85910    1.000
    H33      H        0.08020    0.38760    0.82520    1.000
    C93      C        0.48300    0.19190    0.02060    1.000
    C94      C        0.20470    0.43630    0.58320    1.000
    C95      C        0.12840    0.99570    0.65960    1.000
    C96      C        0.22840    0.93450    0.57190    1.000
    H34      H        0.21180    0.87760    0.59650    1.000
    C97      C        0.46110    0.29960    0.90270    1.000
    C98      C        0.40690    0.29320    0.95770    1.000
    H35      H        0.36800    0.33050    0.96280    1.000
    C99      C        0.26170    0.38970    0.63600    1.000
    C100     C        0.61960    0.16300    0.95010    1.000
    C101     C        0.40570    0.22460    0.01540    1.000
    H36      H        0.35330    0.20420    0.04740    1.000
    C102     C        0.83950    0.43640    0.96610    1.000
    C103     C        0.11510    0.53580    0.50890    1.000
    C104     C        0.71050    0.08150    0.01860    1.000
    H37      H        0.75340    0.09320    0.97910    1.000
    C105     C        0.67010    0.02860    0.13910    1.000
    H38      H        0.68320    0.99940    0.18030    1.000
    C106     C        0.10250    0.41200    0.58730    1.000
    H39      H        0.06580    0.36540    0.61890    1.000
    C107     C        0.53140    0.92010    0.31550    1.000
    H40      H        0.57390    0.92950    0.27590    1.000
    C108     C        0.06530    0.20570    0.85160    1.000
    C109     C        0.53330    0.26160    0.90490    1.000
    H41      H        0.57840    0.27330    0.86700    1.000
    C110     C        0.26620    0.50920    0.54360    1.000
    H42      H        0.33680    0.52890    0.54350    1.000
    C111     C        0.72890    0.03830    0.07850    1.000
    O41      O        0.83380    0.97770    0.14540    1.000
    O42      O        0.87800    0.02950    0.03260    1.000
    C112     C        0.82130    0.00950    0.08350    1.000
    Mn7      Mn       0.00000    0.00000    0.00000    1.000
