data_functionalizedCrystal
_audit_creation_method	'EQeq! by Chris Wilmer'
_symmetry_space_group_name_H-M	'P1'
_symmetry_Int_Tables_number	1
_symmetry_cell_setting	triclinic
loop_
_symmetry_equiv_pos_as_xyz
  x,y,z
_cell_length_a	30.0913
_cell_length_b	30.0913
_cell_length_c	30.0913
_cell_angle_alpha	80.2844
_cell_angle_beta	80.2844
_cell_angle_gamma	80.2844
loop_
_atom_site_label
_atom_site_type_symbol
_atom_site_fract_x
_atom_site_fract_y
_atom_site_fract_z
_atom_site_charge
Mof_Zn	Zn	0.80536	0.3025	0.81472	1.198
Mof_Zn	Zn	0.80569	0.41925	0.78591	1.246
Mof_Zn	Zn	0.25103	0.15797	0.48129	1.184
Mof_Zn	Zn	0.81472	0.80536	0.3025	1.198
Mof_Zn	Zn	0.78591	0.80569	0.41925	1.246
Mof_Zn	Zn	0.48129	0.25103	0.15797	1.184
Mof_Zn	Zn	0.3025	0.81472	0.80536	1.198
Mof_Zn	Zn	0.41925	0.7859	0.80569	1.246
Mof_Zn	Zn	0.15797	0.48129	0.25103	1.184
Mof_Zn	Zn	0.1975	0.69464	0.68528	1.198
Mof_Zn	Zn	0.08075	0.69431	0.71409	1.246
Mof_Zn	Zn	0.34203	0.24897	0.01871	1.183
Mof_Zn	Zn	0.69464	0.68528	0.1975	1.197
Mof_Zn	Zn	0.69431	0.71409	0.08075	1.245
Mof_Zn	Zn	0.24897	0.01871	0.34203	1.182
Mof_Zn	Zn	0.68528	0.1975	0.69464	1.197
Mof_Zn	Zn	0.7141	0.08075	0.69431	1.245
Mof_Zn	Zn	0.01871	0.34203	0.24897	1.182
Mof_Zn	Zn	0.19464	0.6975	0.18528	1.197
Mof_Zn	Zn	0.19431	0.58075	0.21409	1.245
Mof_Zn	Zn	0.74897	0.84203	0.51871	1.183
Mof_Zn	Zn	0.18528	0.19464	0.6975	1.197
Mof_Zn	Zn	0.21409	0.19431	0.58075	1.245
Mof_Zn	Zn	0.51871	0.74897	0.84203	1.183
Mof_Zn	Zn	0.6975	0.18528	0.19464	1.197
Mof_Zn	Zn	0.58075	0.21409	0.19431	1.245
Mof_Zn	Zn	0.84203	0.51871	0.74897	1.183
Mof_Zn	Zn	0.8025	0.30536	0.31472	1.197
Mof_Zn	Zn	0.91925	0.30569	0.28591	1.245
Mof_Zn	Zn	0.65797	0.75103	0.98129	1.182
Mof_Zn	Zn	0.30536	0.31472	0.8025	1.197
Mof_Zn	Zn	0.30569	0.28591	0.91925	1.245
Mof_Zn	Zn	0.75103	0.98129	0.65797	1.182
Mof_Zn	Zn	0.31472	0.8025	0.30536	1.197
Mof_Zn	Zn	0.28591	0.91925	0.30569	1.245
Mof_Zn	Zn	0.98129	0.65797	0.75103	1.182
Mof_H 	H 	0.9243	0.2801	0.882	0.072
Mof_H 	H 	0.9849	0.2804	0.9198	-0.002
Mof_H 	H 	0.0038	0.3486	0.9308	0.109
Mof_H 	H 	0.8987	0.4166	0.8701	0.105
Mof_H 	H 	0.9419	0.4775	0.8659	-0.039
Mof_H 	H 	0.9081	0.4694	0.9114	-0.048
Mof_H 	H 	0.9247	0.4689	0.0186	0.325
Mof_H 	H 	0.883	0.5044	0.0047	0.326
Mof_H 	H 	0.9017	0.4638	0.9771	0.318
Mof_H 	H 	0.9956	0.5393	0.82	0.288
Mof_H 	H 	0.0423	0.5203	0.8376	0.306
Mof_H 	H 	0.0057	0.488	0.8414	0.311
Mof_H 	H 	0.0253	0.6051	0.9843	0.3
Mof_H 	H 	0.0092	0.638	0.942	0.307
Mof_H 	H 	0.9749	0.6298	0.9869	0.309
Mof_H 	H 	0.0293	0.6261	0.8783	-0.042
Mof_H 	H 	0.0415	0.5889	0.8454	-0.041
Mof_H 	H 	0.0968	0.6354	0.8189	0.108
Mof_H 	H 	0.1544	0.5597	0.9228	0.098
Mof_H 	H 	0.9657	0.5687	0.0383	-0.018
Mof_H 	H 	0.9409	0.5254	0.0464	-0.024
Mof_H 	H 	0.8244	0.6301	0.0543	0.113
Mof_H 	H 	0.8234	0.6159	0.1895	0.064
Mof_H 	H 	0.8913	0.5687	0.1826	-0.005
Mof_H 	H 	0.9291	0.5545	0.1116	0.11
Mof_H 	H 	0.8451	0.0832	0.7231	0.105
Mof_H 	H 	0.96	0.0112	0.7624	0.115
Mof_H 	H 	0.9332	0.9446	0.7613	-0.003
Mof_H 	H 	0.8626	0.9471	0.7394	0.073
Mof_H 	H 	0.8789	0.1442	0.7351	-0.037
Mof_H 	H 	0.9004	0.1261	0.6891	-0.038
Mof_H 	H 	0.9109	0.213	0.8011	0.283
Mof_H 	H 	0.8933	0.1712	0.7885	0.289
Mof_H 	H 	0.8715	0.2209	0.7714	0.274
Mof_H 	H 	0.9994	0.3063	0.6775	0.336
Mof_H 	H 	0.0178	0.2865	0.6318	0.34
Mof_H 	H 	0.0462	0.2741	0.6725	0.328
Mof_H 	H 	0.9922	0.1339	0.615	0.309
Mof_H 	H 	0.9602	0.1078	0.6536	0.316
Mof_H 	H 	0.0122	0.1039	0.6568	0.315
Mof_H 	H 	0.0071	0.2959	0.5212	0.106
Mof_H 	H 	0.052	0.3202	0.4571	-0.006
Mof_H 	H 	0.1282	0.2903	0.4441	0.071
Mof_H 	H 	0.1111	0.2018	0.559	0.104
Mof_H 	H 	0.9385	0.3089	0.7172	-0.036
Mof_H 	H 	0.9181	0.2819	0.7634	-0.033
Mof_H 	H 	0.9187	0.3643	0.7518	0.103
Mof_H 	H 	0.988	0.4561	0.7767	0.064
Mof_H 	H 	0.0481	0.3998	0.7897	0.001
Mof_H 	H 	0.0457	0.3238	0.7826	0.102
Mof_H 	H 	0.0661	0.2097	0.6267	-0.036
Mof_H 	H 	0.0478	0.1698	0.6111	-0.038
Mof_H 	H 	0.2277	0.6383	0.8279	0.068
Mof_H 	H 	0.2228	0.5847	0.8924	0.011
Mof_H 	H 	0.882	0.9243	0.2801	0.072
Mof_H 	H 	0.9198	0.9849	0.2804	-0.002
Mof_H 	H 	0.9308	0.0038	0.3486	0.109
Mof_H 	H 	0.8701	0.8987	0.4166	0.105
Mof_H 	H 	0.8659	0.9419	0.4775	-0.039
Mof_H 	H 	0.9114	0.9081	0.4694	-0.048
Mof_H 	H 	0.0186	0.9247	0.4689	0.325
Mof_H 	H 	0.0047	0.883	0.5044	0.326
Mof_H 	H 	0.9771	0.9017	0.4638	0.318
Mof_H 	H 	0.82	0.9956	0.5393	0.288
Mof_H 	H 	0.8376	0.0423	0.5203	0.306
Mof_H 	H 	0.8414	0.0057	0.488	0.311
Mof_H 	H 	0.9843	0.0253	0.6051	0.3
Mof_H 	H 	0.942	0.0092	0.638	0.307
Mof_H 	H 	0.9869	0.9749	0.6298	0.309
Mof_H 	H 	0.8783	0.0293	0.6261	-0.042
Mof_H 	H 	0.8454	0.0415	0.5889	-0.041
Mof_H 	H 	0.8189	0.0968	0.6354	0.108
Mof_H 	H 	0.9228	0.1544	0.5597	0.098
Mof_H 	H 	0.0383	0.9657	0.5687	-0.018
Mof_H 	H 	0.0464	0.9409	0.5254	-0.024
Mof_H 	H 	0.0543	0.8244	0.6301	0.113
Mof_H 	H 	0.1895	0.8234	0.6159	0.064
Mof_H 	H 	0.1826	0.8913	0.5687	-0.005
Mof_H 	H 	0.1116	0.9291	0.5545	0.11
Mof_H 	H 	0.7231	0.8451	0.0832	0.105
Mof_H 	H 	0.7624	0.96	0.0112	0.115
Mof_H 	H 	0.7613	0.9332	0.9446	-0.003
Mof_H 	H 	0.7394	0.8626	0.9471	0.073
Mof_H 	H 	0.7351	0.8789	0.1442	-0.037
Mof_H 	H 	0.6891	0.9004	0.1261	-0.038
Mof_H 	H 	0.8011	0.9109	0.213	0.283
Mof_H 	H 	0.7885	0.8933	0.1712	0.289
Mof_H 	H 	0.7714	0.8715	0.2209	0.274
Mof_H 	H 	0.6775	0.9994	0.3063	0.336
Mof_H 	H 	0.6318	0.0178	0.2865	0.34
Mof_H 	H 	0.6725	0.0462	0.2741	0.328
Mof_H 	H 	0.615	0.9922	0.1339	0.309
Mof_H 	H 	0.6536	0.9602	0.1078	0.316
Mof_H 	H 	0.6568	0.0122	0.1039	0.315
Mof_H 	H 	0.5212	0.0071	0.2959	0.106
Mof_H 	H 	0.4571	0.052	0.3202	-0.006
Mof_H 	H 	0.4441	0.1282	0.2903	0.071
Mof_H 	H 	0.559	0.1111	0.2018	0.104
Mof_H 	H 	0.7172	0.9385	0.3089	-0.036
Mof_H 	H 	0.7634	0.9181	0.2819	-0.033
Mof_H 	H 	0.7518	0.9187	0.3643	0.103
Mof_H 	H 	0.7767	0.988	0.4561	0.064
Mof_H 	H 	0.7897	0.0481	0.3998	0.001
Mof_H 	H 	0.7826	0.0457	0.3238	0.102
Mof_H 	H 	0.6267	0.0661	0.2097	-0.036
Mof_H 	H 	0.6111	0.0478	0.1698	-0.038
Mof_H 	H 	0.8279	0.2277	0.6383	0.068
Mof_H 	H 	0.8924	0.2228	0.5847	0.011
Mof_H 	H 	0.2801	0.882	0.9243	0.072
Mof_H 	H 	0.2804	0.9198	0.9849	-0.002
Mof_H 	H 	0.3486	0.9308	0.0038	0.109
Mof_H 	H 	0.4166	0.8701	0.8987	0.105
Mof_H 	H 	0.4775	0.8659	0.9419	-0.039
Mof_H 	H 	0.4694	0.9114	0.9081	-0.048
Mof_H 	H 	0.4689	0.0186	0.9247	0.325
Mof_H 	H 	0.5044	0.0047	0.883	0.326
Mof_H 	H 	0.4638	0.9771	0.9017	0.318
Mof_H 	H 	0.5393	0.82	0.9956	0.288
Mof_H 	H 	0.5203	0.8376	0.0423	0.306
Mof_H 	H 	0.488	0.8414	0.0057	0.311
Mof_H 	H 	0.6051	0.9843	0.0253	0.3
Mof_H 	H 	0.638	0.942	0.0092	0.307
Mof_H 	H 	0.6298	0.9869	0.9749	0.309
Mof_H 	H 	0.6261	0.8783	0.0293	-0.042
Mof_H 	H 	0.5889	0.8454	0.0415	-0.041
Mof_H 	H 	0.6354	0.8189	0.0968	0.108
Mof_H 	H 	0.5597	0.9228	0.1544	0.098
Mof_H 	H 	0.5687	0.0383	0.9657	-0.018
Mof_H 	H 	0.5254	0.0464	0.9409	-0.024
Mof_H 	H 	0.6301	0.0543	0.8244	0.113
Mof_H 	H 	0.6159	0.1895	0.8234	0.064
Mof_H 	H 	0.5687	0.1826	0.8913	-0.005
Mof_H 	H 	0.5545	0.1116	0.9291	0.11
Mof_H 	H 	0.0832	0.7231	0.8451	0.105
Mof_H 	H 	0.0112	0.7624	0.96	0.115
Mof_H 	H 	0.9446	0.7613	0.9332	-0.003
Mof_H 	H 	0.9471	0.7394	0.8626	0.073
Mof_H 	H 	0.1442	0.7351	0.8789	-0.037
Mof_H 	H 	0.1261	0.6891	0.9004	-0.038
Mof_H 	H 	0.213	0.8011	0.9109	0.283
Mof_H 	H 	0.1712	0.7885	0.8933	0.289
Mof_H 	H 	0.2209	0.7714	0.8715	0.274
Mof_H 	H 	0.3063	0.6775	0.9994	0.336
Mof_H 	H 	0.2865	0.6318	0.0178	0.34
Mof_H 	H 	0.2741	0.6725	0.0462	0.328
Mof_H 	H 	0.1339	0.615	0.9922	0.309
Mof_H 	H 	0.1078	0.6536	0.9602	0.316
Mof_H 	H 	0.1039	0.6568	0.0122	0.315
Mof_H 	H 	0.2959	0.5212	0.0071	0.106
Mof_H 	H 	0.3202	0.4571	0.052	-0.006
Mof_H 	H 	0.2903	0.4441	0.1282	0.071
Mof_H 	H 	0.2018	0.559	0.1111	0.104
Mof_H 	H 	0.3089	0.7172	0.9385	-0.036
Mof_H 	H 	0.2819	0.7634	0.9181	-0.033
Mof_H 	H 	0.3643	0.7518	0.9187	0.103
Mof_H 	H 	0.4561	0.7767	0.988	0.064
Mof_H 	H 	0.3998	0.7897	0.0481	0.001
Mof_H 	H 	0.3238	0.7826	0.0457	0.102
Mof_H 	H 	0.2097	0.6267	0.0661	-0.036
Mof_H 	H 	0.1698	0.6111	0.0478	-0.038
Mof_H 	H 	0.6383	0.8279	0.2277	0.068
Mof_H 	H 	0.5847	0.8924	0.2228	0.011
Mof_H 	H 	0.2199	0.5757	0.618	0.071
Mof_H 	H 	0.2196	0.5151	0.5802	-0.002
Mof_H 	H 	0.1514	0.4962	0.5692	0.108
Mof_H 	H 	0.0834	0.6013	0.6299	0.105
Mof_H 	H 	0.0225	0.5581	0.6341	-0.039
Mof_H 	H 	0.0306	0.5919	0.5886	-0.049
Mof_H 	H 	0.0311	0.5753	0.4814	0.323
Mof_H 	H 	0.9956	0.617	0.4953	0.324
Mof_H 	H 	0.0362	0.5983	0.5229	0.316
Mof_H 	H 	0.9607	0.5044	0.68	0.291
Mof_H 	H 	0.9797	0.4577	0.6624	0.308
Mof_H 	H 	0.012	0.4943	0.6586	0.313
Mof_H 	H 	0.8949	0.4747	0.5157	0.302
Mof_H 	H 	0.862	0.4908	0.558	0.309
Mof_H 	H 	0.8702	0.5251	0.5131	0.312
Mof_H 	H 	0.8739	0.4707	0.6217	-0.043
Mof_H 	H 	0.9111	0.4585	0.6546	-0.042
Mof_H 	H 	0.8646	0.4032	0.6811	0.108
Mof_H 	H 	0.9403	0.3456	0.5772	0.099
Mof_H 	H 	0.9313	0.5343	0.4617	-0.018
Mof_H 	H 	0.9746	0.5591	0.4536	-0.024
Mof_H 	H 	0.8699	0.6756	0.4457	0.113
Mof_H 	H 	0.8841	0.6766	0.3105	0.064
Mof_H 	H 	0.9313	0.6087	0.3174	-0.005
Mof_H 	H 	0.9455	0.5709	0.3884	0.11
Mof_H 	H 	0.4168	0.6549	0.7769	0.106
Mof_H 	H 	0.4888	0.54	0.7376	0.115
Mof_H 	H 	0.5554	0.5668	0.7387	-0.003
Mof_H 	H 	0.5529	0.6374	0.7606	0.073
Mof_H 	H 	0.3558	0.6211	0.7649	-0.037
Mof_H 	H 	0.3739	0.5996	0.8109	-0.038
Mof_H 	H 	0.287	0.5891	0.6989	0.283
Mof_H 	H 	0.3288	0.6067	0.7115	0.289
Mof_H 	H 	0.2791	0.6285	0.7286	0.274
Mof_H 	H 	0.1937	0.5006	0.8225	0.336
Mof_H 	H 	0.2135	0.4822	0.8682	0.34
Mof_H 	H 	0.2259	0.4538	0.8275	0.328
Mof_H 	H 	0.3661	0.5078	0.885	0.309
Mof_H 	H 	0.3922	0.5398	0.8464	0.316
Mof_H 	H 	0.3961	0.4878	0.8432	0.315
Mof_H 	H 	0.2041	0.4929	0.9788	0.105
Mof_H 	H 	0.1798	0.448	0.0429	-0.006
Mof_H 	H 	0.2097	0.3718	0.0559	0.07
Mof_H 	H 	0.2982	0.3889	0.941	0.104
Mof_H 	H 	0.1911	0.5615	0.7828	-0.036
Mof_H 	H 	0.2181	0.5819	0.7366	-0.033
Mof_H 	H 	0.1357	0.5813	0.7482	0.103
Mof_H 	H 	0.0439	0.512	0.7233	0.064
Mof_H 	H 	0.1002	0.4519	0.7103	0.001
Mof_H 	H 	0.1762	0.4543	0.7174	0.102
Mof_H 	H 	0.2903	0.4339	0.8733	-0.036
Mof_H 	H 	0.3302	0.4522	0.8889	-0.038
Mof_H 	H 	0.8617	0.2723	0.6721	0.068
Mof_H 	H 	0.9153	0.2772	0.6076	0.011
Mof_H 	H 	0.5757	0.618	0.2199	0.071
Mof_H 	H 	0.5151	0.5802	0.2196	-0.002
Mof_H 	H 	0.4962	0.5692	0.1514	0.108
Mof_H 	H 	0.6013	0.6299	0.0834	0.105
Mof_H 	H 	0.5581	0.6341	0.0225	-0.039
Mof_H 	H 	0.5919	0.5886	0.0306	-0.049
Mof_H 	H 	0.5753	0.4814	0.0311	0.323
Mof_H 	H 	0.617	0.4953	0.9956	0.324
Mof_H 	H 	0.5983	0.5229	0.0362	0.316
Mof_H 	H 	0.5044	0.68	0.9607	0.291
Mof_H 	H 	0.4577	0.6624	0.9797	0.308
Mof_H 	H 	0.4943	0.6586	0.012	0.313
Mof_H 	H 	0.4747	0.5157	0.8949	0.302
Mof_H 	H 	0.4908	0.558	0.862	0.309
Mof_H 	H 	0.5251	0.5131	0.8702	0.312
Mof_H 	H 	0.4707	0.6217	0.8739	-0.043
Mof_H 	H 	0.4585	0.6546	0.9111	-0.042
Mof_H 	H 	0.4032	0.6811	0.8646	0.108
Mof_H 	H 	0.3456	0.5772	0.9403	0.099
Mof_H 	H 	0.5343	0.4617	0.9313	-0.018
Mof_H 	H 	0.5591	0.4536	0.9746	-0.024
Mof_H 	H 	0.6756	0.4457	0.8699	0.113
Mof_H 	H 	0.6766	0.3105	0.8841	0.064
Mof_H 	H 	0.6087	0.3174	0.9313	-0.005
Mof_H 	H 	0.5709	0.3884	0.9455	0.11
Mof_H 	H 	0.6549	0.7769	0.4168	0.106
Mof_H 	H 	0.54	0.7376	0.4888	0.115
Mof_H 	H 	0.5668	0.7387	0.5554	-0.003
Mof_H 	H 	0.6374	0.7606	0.5529	0.073
Mof_H 	H 	0.6211	0.7649	0.3558	-0.037
Mof_H 	H 	0.5996	0.8109	0.3739	-0.038
Mof_H 	H 	0.5891	0.6989	0.287	0.283
Mof_H 	H 	0.6067	0.7115	0.3288	0.289
Mof_H 	H 	0.6285	0.7286	0.2791	0.274
Mof_H 	H 	0.5006	0.8225	0.1937	0.336
Mof_H 	H 	0.4822	0.8682	0.2135	0.34
Mof_H 	H 	0.4538	0.8275	0.2259	0.328
Mof_H 	H 	0.5078	0.885	0.3661	0.309
Mof_H 	H 	0.5398	0.8464	0.3922	0.316
Mof_H 	H 	0.4878	0.8432	0.3961	0.315
Mof_H 	H 	0.4929	0.9788	0.2041	0.105
Mof_H 	H 	0.448	0.0429	0.1798	-0.006
Mof_H 	H 	0.3718	0.0559	0.2097	0.07
Mof_H 	H 	0.3889	0.941	0.2982	0.104
Mof_H 	H 	0.5615	0.7828	0.1911	-0.036
Mof_H 	H 	0.5819	0.7366	0.2181	-0.033
Mof_H 	H 	0.5813	0.7482	0.1357	0.103
Mof_H 	H 	0.512	0.7233	0.0439	0.064
Mof_H 	H 	0.4519	0.7103	0.1002	0.001
Mof_H 	H 	0.4543	0.7174	0.1762	0.102
Mof_H 	H 	0.4339	0.8733	0.2903	-0.036
Mof_H 	H 	0.4522	0.8889	0.3302	-0.038
Mof_H 	H 	0.2723	0.6721	0.8617	0.068
Mof_H 	H 	0.2772	0.6076	0.9153	0.011
Mof_H 	H 	0.618	0.2199	0.5757	0.071
Mof_H 	H 	0.5802	0.2196	0.5151	-0.002
Mof_H 	H 	0.5692	0.1514	0.4962	0.108
Mof_H 	H 	0.6299	0.0834	0.6013	0.105
Mof_H 	H 	0.6341	0.0225	0.5581	-0.039
Mof_H 	H 	0.5886	0.0306	0.5919	-0.049
Mof_H 	H 	0.4814	0.0311	0.5753	0.323
Mof_H 	H 	0.4953	0.9956	0.617	0.324
Mof_H 	H 	0.5229	0.0362	0.5983	0.316
Mof_H 	H 	0.68	0.9607	0.5044	0.291
Mof_H 	H 	0.6624	0.9797	0.4577	0.308
Mof_H 	H 	0.6586	0.012	0.4943	0.313
Mof_H 	H 	0.5157	0.8949	0.4747	0.302
Mof_H 	H 	0.558	0.862	0.4908	0.309
Mof_H 	H 	0.5131	0.8702	0.5251	0.312
Mof_H 	H 	0.6217	0.8739	0.4707	-0.043
Mof_H 	H 	0.6546	0.9111	0.4585	-0.042
Mof_H 	H 	0.6811	0.8646	0.4032	0.108
Mof_H 	H 	0.5772	0.9403	0.3456	0.099
Mof_H 	H 	0.4617	0.9313	0.5343	-0.018
Mof_H 	H 	0.4536	0.9746	0.5591	-0.024
Mof_H 	H 	0.4457	0.8699	0.6756	0.113
Mof_H 	H 	0.3105	0.8841	0.6766	0.064
Mof_H 	H 	0.3174	0.9313	0.6087	-0.005
Mof_H 	H 	0.3884	0.9455	0.5709	0.11
Mof_H 	H 	0.7769	0.4168	0.6549	0.106
Mof_H 	H 	0.7376	0.4888	0.54	0.115
Mof_H 	H 	0.7387	0.5554	0.5668	-0.003
Mof_H 	H 	0.7606	0.5529	0.6374	0.073
Mof_H 	H 	0.7649	0.3558	0.6211	-0.037
Mof_H 	H 	0.8109	0.3739	0.5996	-0.038
Mof_H 	H 	0.6989	0.287	0.5891	0.283
Mof_H 	H 	0.7115	0.3288	0.6067	0.289
Mof_H 	H 	0.7286	0.2791	0.6285	0.274
Mof_H 	H 	0.8225	0.1937	0.5006	0.336
Mof_H 	H 	0.8682	0.2135	0.4822	0.34
Mof_H 	H 	0.8275	0.2259	0.4538	0.328
Mof_H 	H 	0.885	0.3661	0.5078	0.309
Mof_H 	H 	0.8464	0.3922	0.5398	0.316
Mof_H 	H 	0.8432	0.3961	0.4878	0.315
Mof_H 	H 	0.9788	0.2041	0.4929	0.105
Mof_H 	H 	0.0429	0.1798	0.448	-0.006
Mof_H 	H 	0.0559	0.2097	0.3718	0.07
Mof_H 	H 	0.941	0.2982	0.3889	0.104
Mof_H 	H 	0.7828	0.1911	0.5615	-0.036
Mof_H 	H 	0.7366	0.2181	0.5819	-0.033
Mof_H 	H 	0.7482	0.1357	0.5813	0.103
Mof_H 	H 	0.7233	0.0439	0.512	0.064
Mof_H 	H 	0.7103	0.1002	0.4519	0.001
Mof_H 	H 	0.7174	0.1762	0.4543	0.102
Mof_H 	H 	0.8733	0.2903	0.4339	-0.036
Mof_H 	H 	0.8889	0.3302	0.4522	-0.038
Mof_H 	H 	0.6721	0.8617	0.2723	0.068
Mof_H 	H 	0.6076	0.9153	0.2772	0.011
Mof_H 	H 	0.0757	0.7199	0.118	0.072
Mof_H 	H 	0.0151	0.7196	0.0802	-0.002
Mof_H 	H 	0.9962	0.6514	0.0692	0.109
Mof_H 	H 	0.1013	0.5834	0.1299	0.105
Mof_H 	H 	0.0581	0.5225	0.1341	-0.039
Mof_H 	H 	0.0919	0.5306	0.0886	-0.048
Mof_H 	H 	0.0753	0.5311	0.9814	0.325
Mof_H 	H 	0.117	0.4956	0.9953	0.326
Mof_H 	H 	0.0983	0.5362	0.0229	0.318
Mof_H 	H 	0.0044	0.4607	0.18	0.288
Mof_H 	H 	0.9577	0.4797	0.1624	0.306
Mof_H 	H 	0.9943	0.512	0.1586	0.311
Mof_H 	H 	0.9747	0.3949	0.0157	0.3
Mof_H 	H 	0.9908	0.362	0.058	0.307
Mof_H 	H 	0.0251	0.3702	0.0131	0.309
Mof_H 	H 	0.9707	0.3739	0.1217	-0.042
Mof_H 	H 	0.9585	0.4111	0.1546	-0.041
Mof_H 	H 	0.9032	0.3646	0.1811	0.108
Mof_H 	H 	0.8456	0.4403	0.0772	0.098
Mof_H 	H 	0.0343	0.4313	0.9617	-0.018
Mof_H 	H 	0.0591	0.4746	0.9536	-0.024
Mof_H 	H 	0.1756	0.3699	0.9457	0.113
Mof_H 	H 	0.1766	0.3841	0.8105	0.064
Mof_H 	H 	0.1087	0.4313	0.8174	-0.005
Mof_H 	H 	0.0709	0.4455	0.8884	0.11
Mof_H 	H 	0.1549	0.9168	0.2769	0.105
Mof_H 	H 	0.04	0.9888	0.2376	0.115
Mof_H 	H 	0.0668	0.0554	0.2387	-0.003
Mof_H 	H 	0.1374	0.0529	0.2606	0.073
Mof_H 	H 	0.1211	0.8558	0.2649	-0.037
Mof_H 	H 	0.0996	0.8739	0.3109	-0.038
Mof_H 	H 	0.0891	0.787	0.1989	0.283
Mof_H 	H 	0.1067	0.8288	0.2115	0.289
Mof_H 	H 	0.1285	0.7791	0.2286	0.274
Mof_H 	H 	0.0006	0.6937	0.3225	0.336
Mof_H 	H 	0.9822	0.7135	0.3682	0.34
Mof_H 	H 	0.9538	0.7259	0.3275	0.328
Mof_H 	H 	0.0078	0.8661	0.385	0.309
Mof_H 	H 	0.0398	0.8922	0.3464	0.316
Mof_H 	H 	0.9878	0.8961	0.3432	0.315
Mof_H 	H 	0.9929	0.7041	0.4788	0.106
Mof_H 	H 	0.948	0.6798	0.5429	-0.006
Mof_H 	H 	0.8718	0.7097	0.5559	0.071
Mof_H 	H 	0.8889	0.7982	0.441	0.104
Mof_H 	H 	0.0615	0.6911	0.2828	-0.036
Mof_H 	H 	0.0819	0.7181	0.2366	-0.033
Mof_H 	H 	0.0813	0.6357	0.2482	0.103
Mof_H 	H 	0.012	0.5439	0.2233	0.064
Mof_H 	H 	0.9519	0.6002	0.2103	0.001
Mof_H 	H 	0.9543	0.6762	0.2174	0.102
Mof_H 	H 	0.9339	0.7903	0.3733	-0.036
Mof_H 	H 	0.9522	0.8302	0.3889	-0.038
Mof_H 	H 	0.7723	0.3617	0.1721	0.068
Mof_H 	H 	0.7772	0.4153	0.1076	0.011
Mof_H 	H 	0.118	0.0757	0.7199	0.072
Mof_H 	H 	0.0802	0.0151	0.7196	-0.002
Mof_H 	H 	0.0692	0.9962	0.6514	0.109
Mof_H 	H 	0.1299	0.1013	0.5834	0.105
Mof_H 	H 	0.1341	0.0581	0.5225	-0.039
Mof_H 	H 	0.0886	0.0919	0.5306	-0.048
Mof_H 	H 	0.9814	0.0753	0.5311	0.325
Mof_H 	H 	0.9953	0.117	0.4956	0.326
Mof_H 	H 	0.0229	0.0983	0.5362	0.318
Mof_H 	H 	0.18	0.0044	0.4607	0.288
Mof_H 	H 	0.1624	0.9577	0.4797	0.306
Mof_H 	H 	0.1586	0.9943	0.512	0.311
Mof_H 	H 	0.0157	0.9747	0.3949	0.3
Mof_H 	H 	0.058	0.9908	0.362	0.307
Mof_H 	H 	0.0131	0.0251	0.3702	0.309
Mof_H 	H 	0.1217	0.9707	0.3739	-0.042
Mof_H 	H 	0.1546	0.9585	0.4111	-0.041
Mof_H 	H 	0.1811	0.9032	0.3646	0.108
Mof_H 	H 	0.0772	0.8456	0.4403	0.098
Mof_H 	H 	0.9617	0.0343	0.4313	-0.018
Mof_H 	H 	0.9536	0.0591	0.4746	-0.024
Mof_H 	H 	0.9457	0.1756	0.3699	0.113
Mof_H 	H 	0.8105	0.1766	0.3841	0.064
Mof_H 	H 	0.8174	0.1087	0.4313	-0.005
Mof_H 	H 	0.8884	0.0709	0.4455	0.11
Mof_H 	H 	0.2769	0.1549	0.9168	0.105
Mof_H 	H 	0.2376	0.04	0.9888	0.115
Mof_H 	H 	0.2387	0.0668	0.0554	-0.003
Mof_H 	H 	0.2606	0.1374	0.0529	0.073
Mof_H 	H 	0.2649	0.1211	0.8558	-0.037
Mof_H 	H 	0.3109	0.0996	0.8739	-0.038
Mof_H 	H 	0.1989	0.0891	0.787	0.283
Mof_H 	H 	0.2115	0.1067	0.8288	0.289
Mof_H 	H 	0.2286	0.1285	0.7791	0.274
Mof_H 	H 	0.3225	0.0006	0.6937	0.336
Mof_H 	H 	0.3682	0.9822	0.7135	0.34
Mof_H 	H 	0.3275	0.9538	0.7259	0.328
Mof_H 	H 	0.385	0.0078	0.8661	0.309
Mof_H 	H 	0.3464	0.0398	0.8922	0.316
Mof_H 	H 	0.3432	0.9878	0.8961	0.315
Mof_H 	H 	0.4788	0.9929	0.7041	0.106
Mof_H 	H 	0.5429	0.948	0.6798	-0.006
Mof_H 	H 	0.5559	0.8718	0.7097	0.071
Mof_H 	H 	0.441	0.8889	0.7982	0.104
Mof_H 	H 	0.2828	0.0615	0.6911	-0.036
Mof_H 	H 	0.2366	0.0819	0.7181	-0.033
Mof_H 	H 	0.2482	0.0813	0.6357	0.103
Mof_H 	H 	0.2233	0.012	0.5439	0.064
Mof_H 	H 	0.2103	0.9519	0.6002	0.001
Mof_H 	H 	0.2174	0.9543	0.6762	0.102
Mof_H 	H 	0.3733	0.9339	0.7903	-0.036
Mof_H 	H 	0.3889	0.9522	0.8302	-0.038
Mof_H 	H 	0.1721	0.7723	0.3617	0.068
Mof_H 	H 	0.1076	0.7772	0.4153	0.011
Mof_H 	H 	0.7199	0.118	0.0757	0.072
Mof_H 	H 	0.7196	0.0802	0.0151	-0.002
Mof_H 	H 	0.6514	0.0692	0.9962	0.109
Mof_H 	H 	0.5834	0.1299	0.1013	0.105
Mof_H 	H 	0.5225	0.1341	0.0581	-0.039
Mof_H 	H 	0.5306	0.0886	0.0919	-0.048
Mof_H 	H 	0.5311	0.9814	0.0753	0.325
Mof_H 	H 	0.4956	0.9953	0.117	0.326
Mof_H 	H 	0.5362	0.0229	0.0983	0.318
Mof_H 	H 	0.4607	0.18	0.0044	0.288
Mof_H 	H 	0.4797	0.1624	0.9577	0.306
Mof_H 	H 	0.512	0.1586	0.9943	0.311
Mof_H 	H 	0.3949	0.0157	0.9747	0.3
Mof_H 	H 	0.362	0.058	0.9908	0.307
Mof_H 	H 	0.3702	0.0131	0.0251	0.309
Mof_H 	H 	0.3739	0.1217	0.9707	-0.042
Mof_H 	H 	0.4111	0.1546	0.9585	-0.041
Mof_H 	H 	0.3646	0.1811	0.9032	0.108
Mof_H 	H 	0.4403	0.0772	0.8456	0.098
Mof_H 	H 	0.4313	0.9617	0.0343	-0.018
Mof_H 	H 	0.4746	0.9536	0.0591	-0.024
Mof_H 	H 	0.3699	0.9457	0.1756	0.113
Mof_H 	H 	0.3841	0.8105	0.1766	0.064
Mof_H 	H 	0.4313	0.8174	0.1087	-0.005
Mof_H 	H 	0.4455	0.8884	0.0709	0.11
Mof_H 	H 	0.9168	0.2769	0.1549	0.105
Mof_H 	H 	0.9888	0.2376	0.04	0.115
Mof_H 	H 	0.0554	0.2387	0.0668	-0.003
Mof_H 	H 	0.0529	0.2606	0.1374	0.073
Mof_H 	H 	0.8558	0.2649	0.1211	-0.037
Mof_H 	H 	0.8739	0.3109	0.0996	-0.038
Mof_H 	H 	0.787	0.1989	0.0891	0.283
Mof_H 	H 	0.8288	0.2115	0.1067	0.289
Mof_H 	H 	0.7791	0.2286	0.1285	0.274
Mof_H 	H 	0.6937	0.3225	0.0006	0.336
Mof_H 	H 	0.7135	0.3682	0.9822	0.34
Mof_H 	H 	0.7259	0.3275	0.9538	0.328
Mof_H 	H 	0.8661	0.385	0.0078	0.309
Mof_H 	H 	0.8922	0.3464	0.0398	0.316
Mof_H 	H 	0.8961	0.3432	0.9878	0.315
Mof_H 	H 	0.7041	0.4788	0.9929	0.106
Mof_H 	H 	0.6798	0.5429	0.948	-0.006
Mof_H 	H 	0.7097	0.5559	0.8718	0.071
Mof_H 	H 	0.7982	0.441	0.8889	0.104
Mof_H 	H 	0.6911	0.2828	0.0615	-0.036
Mof_H 	H 	0.7181	0.2366	0.0819	-0.033
Mof_H 	H 	0.6357	0.2482	0.0813	0.103
Mof_H 	H 	0.5439	0.2233	0.012	0.064
Mof_H 	H 	0.6002	0.2103	0.9519	0.001
Mof_H 	H 	0.6762	0.2174	0.9543	0.102
Mof_H 	H 	0.7903	0.3733	0.9339	-0.036
Mof_H 	H 	0.8302	0.3889	0.9522	-0.038
Mof_H 	H 	0.3617	0.1721	0.7723	0.068
Mof_H 	H 	0.4153	0.1076	0.7772	0.011
Mof_H 	H 	0.7801	0.4243	0.382	0.071
Mof_H 	H 	0.7804	0.4849	0.4198	-0.002
Mof_H 	H 	0.8486	0.5038	0.4308	0.108
Mof_H 	H 	0.9166	0.3987	0.3701	0.105
Mof_H 	H 	0.9775	0.4419	0.3659	-0.039
Mof_H 	H 	0.9694	0.4081	0.4114	-0.049
Mof_H 	H 	0.9689	0.4247	0.5186	0.323
Mof_H 	H 	0.0044	0.383	0.5047	0.324
Mof_H 	H 	0.9638	0.4017	0.4771	0.316
Mof_H 	H 	0.0393	0.4956	0.32	0.291
Mof_H 	H 	0.0203	0.5423	0.3376	0.308
Mof_H 	H 	0.988	0.5057	0.3414	0.313
Mof_H 	H 	0.1051	0.5253	0.4843	0.302
Mof_H 	H 	0.138	0.5092	0.442	0.309
Mof_H 	H 	0.1298	0.4749	0.4869	0.312
Mof_H 	H 	0.1261	0.5293	0.3783	-0.043
Mof_H 	H 	0.0889	0.5415	0.3454	-0.042
Mof_H 	H 	0.1354	0.5968	0.3189	0.108
Mof_H 	H 	0.0597	0.6544	0.4228	0.099
Mof_H 	H 	0.0687	0.4657	0.5383	-0.018
Mof_H 	H 	0.0254	0.4409	0.5464	-0.024
Mof_H 	H 	0.1301	0.3244	0.5543	0.113
Mof_H 	H 	0.1159	0.3234	0.6895	0.064
Mof_H 	H 	0.0687	0.3913	0.6826	-0.005
Mof_H 	H 	0.0545	0.4291	0.6116	0.11
Mof_H 	H 	0.5832	0.3451	0.2231	0.106
Mof_H 	H 	0.5112	0.46	0.2624	0.115
Mof_H 	H 	0.4446	0.4332	0.2613	-0.003
Mof_H 	H 	0.4471	0.3626	0.2394	0.073
Mof_H 	H 	0.6442	0.3789	0.2351	-0.037
Mof_H 	H 	0.6261	0.4004	0.1891	-0.038
Mof_H 	H 	0.713	0.4109	0.3011	0.283
Mof_H 	H 	0.6712	0.3933	0.2885	0.289
Mof_H 	H 	0.7209	0.3715	0.2714	0.274
Mof_H 	H 	0.8063	0.4994	0.1775	0.336
Mof_H 	H 	0.7865	0.5178	0.1318	0.34
Mof_H 	H 	0.7741	0.5462	0.1725	0.328
Mof_H 	H 	0.6339	0.4922	0.115	0.309
Mof_H 	H 	0.6078	0.4602	0.1536	0.316
Mof_H 	H 	0.6039	0.5122	0.1568	0.315
Mof_H 	H 	0.7959	0.5071	0.0212	0.105
Mof_H 	H 	0.8202	0.552	0.9571	-0.006
Mof_H 	H 	0.7903	0.6282	0.9441	0.07
Mof_H 	H 	0.7018	0.6111	0.059	0.104
Mof_H 	H 	0.8089	0.4385	0.2172	-0.036
Mof_H 	H 	0.7819	0.4181	0.2634	-0.033
Mof_H 	H 	0.8643	0.4187	0.2518	0.103
Mof_H 	H 	0.9561	0.488	0.2767	0.064
Mof_H 	H 	0.8998	0.5481	0.2897	0.001
Mof_H 	H 	0.8238	0.5457	0.2826	0.102
Mof_H 	H 	0.7097	0.5661	0.1267	-0.036
Mof_H 	H 	0.6698	0.5478	0.1111	-0.038
Mof_H 	H 	0.1383	0.7277	0.3279	0.068
Mof_H 	H 	0.0847	0.7228	0.3924	0.011
Mof_H 	H 	0.4243	0.382	0.7801	0.071
Mof_H 	H 	0.4849	0.4198	0.7804	-0.002
Mof_H 	H 	0.5038	0.4308	0.8486	0.108
Mof_H 	H 	0.3987	0.3701	0.9166	0.105
Mof_H 	H 	0.4419	0.3659	0.9775	-0.039
Mof_H 	H 	0.4081	0.4114	0.9694	-0.049
Mof_H 	H 	0.4247	0.5186	0.9689	0.323
Mof_H 	H 	0.383	0.5047	0.0044	0.324
Mof_H 	H 	0.4017	0.4771	0.9638	0.316
Mof_H 	H 	0.4956	0.32	0.0393	0.291
Mof_H 	H 	0.5423	0.3376	0.0203	0.308
Mof_H 	H 	0.5057	0.3414	0.988	0.313
Mof_H 	H 	0.5253	0.4843	0.1051	0.302
Mof_H 	H 	0.5092	0.442	0.138	0.309
Mof_H 	H 	0.4749	0.4869	0.1298	0.312
Mof_H 	H 	0.5293	0.3783	0.1261	-0.043
Mof_H 	H 	0.5415	0.3454	0.0889	-0.042
Mof_H 	H 	0.5968	0.3189	0.1354	0.108
Mof_H 	H 	0.6544	0.4228	0.0597	0.099
Mof_H 	H 	0.4657	0.5383	0.0687	-0.018
Mof_H 	H 	0.4409	0.5464	0.0254	-0.024
Mof_H 	H 	0.3244	0.5543	0.1301	0.113
Mof_H 	H 	0.3234	0.6895	0.1159	0.064
Mof_H 	H 	0.3913	0.6826	0.0687	-0.005
Mof_H 	H 	0.4291	0.6116	0.0545	0.11
Mof_H 	H 	0.3451	0.2231	0.5832	0.106
Mof_H 	H 	0.46	0.2624	0.5112	0.115
Mof_H 	H 	0.4332	0.2613	0.4446	-0.003
Mof_H 	H 	0.3626	0.2394	0.4471	0.073
Mof_H 	H 	0.3789	0.2351	0.6442	-0.037
Mof_H 	H 	0.4004	0.1891	0.6261	-0.038
Mof_H 	H 	0.4109	0.3011	0.713	0.283
Mof_H 	H 	0.3933	0.2885	0.6712	0.289
Mof_H 	H 	0.3715	0.2714	0.7209	0.274
Mof_H 	H 	0.4994	0.1775	0.8063	0.336
Mof_H 	H 	0.5178	0.1318	0.7865	0.34
Mof_H 	H 	0.5462	0.1725	0.7741	0.328
Mof_H 	H 	0.4922	0.115	0.6339	0.309
Mof_H 	H 	0.4602	0.1536	0.6078	0.316
Mof_H 	H 	0.5122	0.1568	0.6039	0.315
Mof_H 	H 	0.5071	0.0212	0.7959	0.105
Mof_H 	H 	0.552	0.9571	0.8202	-0.006
Mof_H 	H 	0.6282	0.9441	0.7903	0.07
Mof_H 	H 	0.6111	0.059	0.7018	0.104
Mof_H 	H 	0.4385	0.2172	0.8089	-0.036
Mof_H 	H 	0.4181	0.2634	0.7819	-0.033
Mof_H 	H 	0.4187	0.2518	0.8643	0.103
Mof_H 	H 	0.488	0.2767	0.9561	0.064
Mof_H 	H 	0.5481	0.2897	0.8998	0.001
Mof_H 	H 	0.5457	0.2826	0.8238	0.102
Mof_H 	H 	0.5661	0.1267	0.7097	-0.036
Mof_H 	H 	0.5478	0.1111	0.6698	-0.038
Mof_H 	H 	0.7277	0.3279	0.1383	0.068
Mof_H 	H 	0.7228	0.3924	0.0847	0.011
Mof_H 	H 	0.382	0.7801	0.4243	0.071
Mof_H 	H 	0.4198	0.7804	0.4849	-0.002
Mof_H 	H 	0.4308	0.8486	0.5038	0.108
Mof_H 	H 	0.3701	0.9166	0.3987	0.105
Mof_H 	H 	0.3659	0.9775	0.4419	-0.039
Mof_H 	H 	0.4114	0.9694	0.4081	-0.049
Mof_H 	H 	0.5186	0.9689	0.4247	0.323
Mof_H 	H 	0.5047	0.0044	0.383	0.324
Mof_H 	H 	0.4771	0.9638	0.4017	0.316
Mof_H 	H 	0.32	0.0393	0.4956	0.291
Mof_H 	H 	0.3376	0.0203	0.5423	0.308
Mof_H 	H 	0.3414	0.988	0.5057	0.313
Mof_H 	H 	0.4843	0.1051	0.5253	0.302
Mof_H 	H 	0.442	0.138	0.5092	0.309
Mof_H 	H 	0.4869	0.1298	0.4749	0.312
Mof_H 	H 	0.3783	0.1261	0.5293	-0.043
Mof_H 	H 	0.3454	0.0889	0.5415	-0.042
Mof_H 	H 	0.3189	0.1354	0.5968	0.108
Mof_H 	H 	0.4228	0.0597	0.6544	0.099
Mof_H 	H 	0.5383	0.0687	0.4657	-0.018
Mof_H 	H 	0.5464	0.0254	0.4409	-0.024
Mof_H 	H 	0.5543	0.1301	0.3244	0.113
Mof_H 	H 	0.6895	0.1159	0.3234	0.064
Mof_H 	H 	0.6826	0.0687	0.3913	-0.005
Mof_H 	H 	0.6116	0.0545	0.4291	0.11
Mof_H 	H 	0.2231	0.5832	0.3451	0.106
Mof_H 	H 	0.2624	0.5112	0.46	0.115
Mof_H 	H 	0.2613	0.4446	0.4332	-0.003
Mof_H 	H 	0.2394	0.4471	0.3626	0.073
Mof_H 	H 	0.2351	0.6442	0.3789	-0.037
Mof_H 	H 	0.1891	0.6261	0.4004	-0.038
Mof_H 	H 	0.3011	0.713	0.4109	0.283
Mof_H 	H 	0.2885	0.6712	0.3933	0.289
Mof_H 	H 	0.2714	0.7209	0.3715	0.274
Mof_H 	H 	0.1775	0.8063	0.4994	0.336
Mof_H 	H 	0.1318	0.7865	0.5178	0.34
Mof_H 	H 	0.1725	0.7741	0.5462	0.328
Mof_H 	H 	0.115	0.6339	0.4922	0.309
Mof_H 	H 	0.1536	0.6078	0.4602	0.316
Mof_H 	H 	0.1568	0.6039	0.5122	0.315
Mof_H 	H 	0.0212	0.7959	0.5071	0.105
Mof_H 	H 	0.9571	0.8202	0.552	-0.006
Mof_H 	H 	0.9441	0.7903	0.6282	0.07
Mof_H 	H 	0.059	0.7018	0.6111	0.104
Mof_H 	H 	0.2172	0.8089	0.4385	-0.036
Mof_H 	H 	0.2634	0.7819	0.4181	-0.033
Mof_H 	H 	0.2518	0.8643	0.4187	0.103
Mof_H 	H 	0.2767	0.9561	0.488	0.064
Mof_H 	H 	0.2897	0.8998	0.5481	0.001
Mof_H 	H 	0.2826	0.8238	0.5457	0.102
Mof_H 	H 	0.1267	0.7097	0.5661	-0.036
Mof_H 	H 	0.1111	0.6698	0.5478	-0.038
Mof_H 	H 	0.3279	0.1383	0.7277	0.068
Mof_H 	H 	0.3924	0.0847	0.7228	0.011
Mof_C 	C 	0.90505	0.34768	0.87315	-0.005
Mof_C 	C 	0.93121	0.30749	0.88736	-0.105
Mof_C 	C 	0.96774	0.30761	0.90948	0.073
Mof_C 	C 	0.97883	0.34841	0.91633	-0.226
Mof_C 	C 	0.95303	0.38893	0.90179	0.228
Mof_C 	C 	0.91602	0.38915	0.87999	-0.179
Mof_C 	C 	0.86501	0.34851	0.84882	0.368
Mof_C 	C 	0.98992	0.53085	0.88981	0.403
Mof_C 	C 	0.00412	0.56661	0.90624	-0.342
Mof_C 	C 	0.98655	0.57633	0.95054	0.416
Mof_C 	C 	0.95742	0.5489	0.97845	-0.343
Mof_C 	C 	0.9398	0.47039	0.89881	0.217
Mof_C 	C 	0.90989	0.48507	0.99348	-0.974
Mof_C 	C 	0.01026	0.5184	0.84289	-0.914
Mof_C 	C 	0.00023	0.6158	0.96747	-0.923
Mof_C 	C 	0.03839	0.59377	0.87688	0.209
Mof_C 	C 	0.9422	0.51402	0.96195	0.433
Mof_C 	C 	0.16337	0.64086	0.81584	-0.027
Mof_C 	C 	0.12205	0.62554	0.83393	-0.174
Mof_C 	C 	0.15654	0.58031	0.89609	-0.217
Mof_C 	C 	0.16849	0.66761	0.76978	0.381
Mof_C 	C 	0.94319	0.55474	0.02791	0.19
Mof_C 	C 	0.88027	0.59091	0.07572	0.228
Mof_C 	C 	0.83835	0.61825	0.08001	-0.17
Mof_C 	C 	0.81715	0.62815	0.12245	-0.014
Mof_C 	C 	0.83755	0.60942	0.16092	-0.115
Mof_C 	C 	0.87825	0.58169	0.15662	0.074
Mof_C 	C 	0.90078	0.57256	0.11427	-0.223
Mof_C 	C 	0.77161	0.65825	0.12694	0.368
Mof_C 	C 	0.80173	0.01618	0.71454	0.377
Mof_C 	C 	0.84686	0.01471	0.72998	-0.004
Mof_C 	C 	0.86293	0.05534	0.73034	-0.182
Mof_C 	C 	0.90598	0.05349	0.74161	0.233
Mof_C 	C 	0.93159	0.01212	0.75371	-0.228
Mof_C 	C 	0.91566	0.97246	0.75326	0.079
Mof_C 	C 	0.87322	0.97404	0.7406	-0.112
Mof_C 	C 	0.1186	0.59591	0.87427	0.229
Mof_C 	C 	0.9072	0.13195	0.71776	0.212
Mof_C 	C 	0.94054	0.1669	0.70842	-0.33
Mof_C 	C 	0.93426	0.20262	0.73499	0.394
Mof_C 	C 	0.89929	0.20186	0.77792	-0.875
Mof_C 	C 	0.95868	0.23955	0.72092	-0.336
Mof_C 	C 	0.99184	0.24001	0.68211	0.439
Mof_C 	C 	0.01598	0.28028	0.66438	-0.99
Mof_C 	C 	0.9765	0.1645	0.67219	0.43
Mof_C 	C 	0.98615	0.12389	0.64711	-0.95
Mof_C 	C 	0.05405	0.24451	0.54589	0.231
Mof_C 	C 	0.03701	0.28181	0.51531	-0.219
Mof_C 	C 	0.064	0.2967	0.4779	0.086
Mof_C 	C 	0.10939	0.27809	0.46939	-0.099
Mof_C 	C 	0.1261	0.24158	0.49882	-0.024
Mof_C 	C 	0.09905	0.22534	0.53806	-0.173
Mof_C 	C 	0.94519	0.28378	0.74106	0.205
Mof_C 	C 	0.98138	0.33568	0.76619	0.225
Mof_C 	C 	0.94517	0.37102	0.75971	-0.178
Mof_C 	C 	0.98579	0.42609	0.77469	-0.111
Mof_C 	C 	0.02209	0.39219	0.78189	0.063
Mof_C 	C 	0.94732	0.41582	0.76469	0.007
Mof_C 	C 	0.02091	0.34621	0.77781	-0.201
Mof_C 	C 	0.00199	0.20035	0.65948	-0.349
Mof_C 	C 	0.90605	0.45125	0.75745	0.308
Mof_C 	C 	0.03938	0.20025	0.61916	0.218
Mof_C 	C 	0.95747	0.50628	0.91716	-0.354
Mof_C 	C 	0.20049	0.62671	0.83886	-0.089
Mof_C 	C 	0.19727	0.59538	0.87806	0.065
Mof_C 	C 	0.1731	0.2181	0.4885	0.392
Mof_C 	C 	0.87315	0.90505	0.34768	-0.005
Mof_C 	C 	0.88736	0.93121	0.30749	-0.105
Mof_C 	C 	0.90948	0.96774	0.30761	0.073
Mof_C 	C 	0.91633	0.97883	0.34841	-0.226
Mof_C 	C 	0.90179	0.95303	0.38893	0.228
Mof_C 	C 	0.87999	0.91602	0.38915	-0.179
Mof_C 	C 	0.84882	0.86501	0.34851	0.368
Mof_C 	C 	0.88981	0.98992	0.53085	0.403
Mof_C 	C 	0.90624	0.00412	0.56661	-0.342
Mof_C 	C 	0.95054	0.98655	0.57633	0.416
Mof_C 	C 	0.97845	0.95742	0.5489	-0.343
Mof_C 	C 	0.89881	0.9398	0.47039	0.217
Mof_C 	C 	0.99348	0.90989	0.48507	-0.974
Mof_C 	C 	0.84289	0.01026	0.5184	-0.914
Mof_C 	C 	0.96747	0.00023	0.6158	-0.923
Mof_C 	C 	0.87688	0.03839	0.59377	0.209
Mof_C 	C 	0.96195	0.9422	0.51402	0.433
Mof_C 	C 	0.81584	0.16337	0.64086	-0.027
Mof_C 	C 	0.83393	0.12205	0.62554	-0.174
Mof_C 	C 	0.89609	0.15654	0.58031	-0.217
Mof_C 	C 	0.76978	0.16849	0.66761	0.381
Mof_C 	C 	0.02791	0.94319	0.55474	0.19
Mof_C 	C 	0.07572	0.88027	0.59091	0.228
Mof_C 	C 	0.08001	0.83835	0.61825	-0.17
Mof_C 	C 	0.12245	0.81715	0.62815	-0.014
Mof_C 	C 	0.16092	0.83755	0.60942	-0.115
Mof_C 	C 	0.15662	0.87825	0.58169	0.074
Mof_C 	C 	0.11427	0.90078	0.57256	-0.223
Mof_C 	C 	0.12694	0.77161	0.65825	0.368
Mof_C 	C 	0.71454	0.80173	0.01618	0.377
Mof_C 	C 	0.72998	0.84686	0.01471	-0.004
Mof_C 	C 	0.73034	0.86293	0.05534	-0.182
Mof_C 	C 	0.74161	0.90598	0.05349	0.233
Mof_C 	C 	0.75371	0.93159	0.01212	-0.228
Mof_C 	C 	0.75326	0.91566	0.97246	0.079
Mof_C 	C 	0.7406	0.87322	0.97404	-0.112
Mof_C 	C 	0.87427	0.1186	0.59591	0.228
Mof_C 	C 	0.71776	0.9072	0.13195	0.212
Mof_C 	C 	0.70842	0.94054	0.1669	-0.33
Mof_C 	C 	0.73499	0.93426	0.20262	0.394
Mof_C 	C 	0.77792	0.89929	0.20186	-0.875
Mof_C 	C 	0.72092	0.95868	0.23955	-0.336
Mof_C 	C 	0.68211	0.99184	0.24001	0.439
Mof_C 	C 	0.66438	0.01598	0.28028	-0.99
Mof_C 	C 	0.67219	0.9765	0.1645	0.43
Mof_C 	C 	0.64711	0.98615	0.12389	-0.95
Mof_C 	C 	0.54589	0.05405	0.24451	0.231
Mof_C 	C 	0.51531	0.03701	0.28181	-0.219
Mof_C 	C 	0.4779	0.064	0.2967	0.086
Mof_C 	C 	0.46939	0.10939	0.27809	-0.099
Mof_C 	C 	0.49882	0.1261	0.24158	-0.024
Mof_C 	C 	0.53806	0.09905	0.22534	-0.173
Mof_C 	C 	0.74106	0.94519	0.28378	0.205
Mof_C 	C 	0.76619	0.98138	0.33568	0.225
Mof_C 	C 	0.75971	0.94517	0.37102	-0.178
Mof_C 	C 	0.77469	0.98579	0.42609	-0.111
Mof_C 	C 	0.78189	0.02209	0.39219	0.063
Mof_C 	C 	0.76469	0.94732	0.41582	0.007
Mof_C 	C 	0.77781	0.02091	0.34621	-0.201
Mof_C 	C 	0.65948	0.00199	0.20035	-0.349
Mof_C 	C 	0.75745	0.90605	0.45125	0.308
Mof_C 	C 	0.61916	0.03938	0.20025	0.218
Mof_C 	C 	0.91716	0.95747	0.50628	-0.354
Mof_C 	C 	0.83886	0.20049	0.62671	-0.089
Mof_C 	C 	0.87806	0.19727	0.59538	0.065
Mof_C 	C 	0.4885	0.1731	0.2181	0.392
Mof_C 	C 	0.34768	0.87315	0.90505	-0.005
Mof_C 	C 	0.30749	0.88736	0.93121	-0.105
Mof_C 	C 	0.30761	0.90948	0.96774	0.073
Mof_C 	C 	0.34841	0.91633	0.97883	-0.226
Mof_C 	C 	0.38893	0.90179	0.95303	0.228
Mof_C 	C 	0.38915	0.87999	0.91602	-0.179
Mof_C 	C 	0.34851	0.84882	0.86501	0.368
Mof_C 	C 	0.53085	0.88981	0.98992	0.403
Mof_C 	C 	0.56661	0.90624	0.00412	-0.342
Mof_C 	C 	0.57633	0.95054	0.98655	0.416
Mof_C 	C 	0.5489	0.97845	0.95742	-0.343
Mof_C 	C 	0.47039	0.89881	0.9398	0.217
Mof_C 	C 	0.48507	0.99348	0.90989	-0.974
Mof_C 	C 	0.5184	0.84289	0.01026	-0.914
Mof_C 	C 	0.6158	0.96747	0.00023	-0.923
Mof_C 	C 	0.59377	0.87688	0.03839	0.209
Mof_C 	C 	0.51402	0.96195	0.9422	0.433
Mof_C 	C 	0.64086	0.81584	0.16337	-0.027
Mof_C 	C 	0.62554	0.83393	0.12205	-0.174
Mof_C 	C 	0.58031	0.89609	0.15654	-0.217
Mof_C 	C 	0.66761	0.76978	0.16849	0.381
Mof_C 	C 	0.55474	0.02791	0.94319	0.19
Mof_C 	C 	0.59091	0.07572	0.88027	0.228
Mof_C 	C 	0.61825	0.08001	0.83835	-0.17
Mof_C 	C 	0.62815	0.12245	0.81715	-0.014
Mof_C 	C 	0.60942	0.16092	0.83755	-0.115
Mof_C 	C 	0.58169	0.15662	0.87825	0.074
Mof_C 	C 	0.57256	0.11427	0.90078	-0.223
Mof_C 	C 	0.65825	0.12694	0.77161	0.368
Mof_C 	C 	0.01618	0.71454	0.80173	0.377
Mof_C 	C 	0.01471	0.72998	0.84686	-0.004
Mof_C 	C 	0.05534	0.73034	0.86293	-0.182
Mof_C 	C 	0.05349	0.74161	0.90598	0.233
Mof_C 	C 	0.01212	0.75371	0.93159	-0.228
Mof_C 	C 	0.97246	0.75326	0.91566	0.079
Mof_C 	C 	0.97404	0.7406	0.87322	-0.112
Mof_C 	C 	0.59591	0.87427	0.1186	0.229
Mof_C 	C 	0.13195	0.71776	0.9072	0.212
Mof_C 	C 	0.1669	0.70842	0.94054	-0.33
Mof_C 	C 	0.20262	0.73499	0.93426	0.394
Mof_C 	C 	0.20186	0.77792	0.89929	-0.875
Mof_C 	C 	0.23955	0.72092	0.95868	-0.336
Mof_C 	C 	0.24001	0.68211	0.99184	0.439
Mof_C 	C 	0.28028	0.66438	0.01598	-0.99
Mof_C 	C 	0.1645	0.67219	0.9765	0.43
Mof_C 	C 	0.12389	0.64711	0.98615	-0.95
Mof_C 	C 	0.24451	0.54589	0.05405	0.231
Mof_C 	C 	0.28181	0.51531	0.03701	-0.219
Mof_C 	C 	0.2967	0.4779	0.064	0.086
Mof_C 	C 	0.27809	0.46939	0.10939	-0.099
Mof_C 	C 	0.24158	0.49882	0.1261	-0.024
Mof_C 	C 	0.22534	0.53806	0.09905	-0.173
Mof_C 	C 	0.28378	0.74106	0.94519	0.205
Mof_C 	C 	0.33568	0.76619	0.98138	0.225
Mof_C 	C 	0.37102	0.75971	0.94517	-0.178
Mof_C 	C 	0.42609	0.77469	0.98579	-0.111
Mof_C 	C 	0.39219	0.78189	0.02209	0.063
Mof_C 	C 	0.41582	0.76469	0.94732	0.007
Mof_C 	C 	0.34621	0.77781	0.02091	-0.2
Mof_C 	C 	0.20035	0.65948	0.00199	-0.349
Mof_C 	C 	0.45125	0.75745	0.90605	0.308
Mof_C 	C 	0.20025	0.61916	0.03938	0.218
Mof_C 	C 	0.50628	0.91716	0.95747	-0.354
Mof_C 	C 	0.62671	0.83886	0.20049	-0.089
Mof_C 	C 	0.59538	0.87806	0.19727	0.065
Mof_C 	C 	0.2181	0.4885	0.1731	0.392
Mof_C 	C 	0.15232	0.59495	0.62685	-0.005
Mof_C 	C 	0.19251	0.56879	0.61264	-0.105
Mof_C 	C 	0.19239	0.53226	0.59052	0.072
Mof_C 	C 	0.15159	0.52117	0.58367	-0.224
Mof_C 	C 	0.11107	0.54697	0.59821	0.228
Mof_C 	C 	0.11085	0.58398	0.62001	-0.178
Mof_C 	C 	0.15149	0.63499	0.65118	0.368
Mof_C 	C 	0.96915	0.51008	0.61019	0.407
Mof_C 	C 	0.93339	0.49588	0.59376	-0.346
Mof_C 	C 	0.92367	0.51345	0.54946	0.421
Mof_C 	C 	0.9511	0.54258	0.52155	-0.344
Mof_C 	C 	0.02961	0.5602	0.60119	0.217
Mof_C 	C 	0.01493	0.59011	0.50652	-0.969
Mof_C 	C 	0.9816	0.48974	0.65711	-0.921
Mof_C 	C 	0.8842	0.49977	0.53253	-0.932
Mof_C 	C 	0.90623	0.46161	0.62312	0.212
Mof_C 	C 	0.98598	0.5578	0.53805	0.433
Mof_C 	C 	0.85914	0.33663	0.68416	-0.027
Mof_C 	C 	0.87446	0.37795	0.66607	-0.174
Mof_C 	C 	0.91969	0.34346	0.60391	-0.217
Mof_C 	C 	0.83239	0.33151	0.73022	0.381
Mof_C 	C 	0.94526	0.55681	0.47209	0.19
Mof_C 	C 	0.90909	0.61973	0.42428	0.228
Mof_C 	C 	0.88175	0.66165	0.41999	-0.17
Mof_C 	C 	0.87185	0.68285	0.37755	-0.014
Mof_C 	C 	0.89058	0.66245	0.33908	-0.115
Mof_C 	C 	0.91831	0.62175	0.34338	0.074
Mof_C 	C 	0.92744	0.59922	0.38573	-0.223
Mof_C 	C 	0.84175	0.72839	0.37306	0.368
Mof_C 	C 	0.48382	0.69827	0.78546	0.377
Mof_C 	C 	0.48529	0.65314	0.77002	-0.005
Mof_C 	C 	0.44466	0.63707	0.76966	-0.183
Mof_C 	C 	0.44651	0.59402	0.75839	0.233
Mof_C 	C 	0.48788	0.56841	0.74629	-0.23
Mof_C 	C 	0.52754	0.58434	0.74674	0.081
Mof_C 	C 	0.52596	0.62678	0.7594	-0.112
Mof_C 	C 	0.90409	0.3814	0.62573	0.229
Mof_C 	C 	0.36805	0.5928	0.78224	0.212
Mof_C 	C 	0.3331	0.55946	0.79158	-0.33
Mof_C 	C 	0.29738	0.56574	0.76501	0.394
Mof_C 	C 	0.29814	0.60071	0.72208	-0.875
Mof_C 	C 	0.26045	0.54132	0.77908	-0.336
Mof_C 	C 	0.25999	0.50816	0.81789	0.438
Mof_C 	C 	0.21972	0.48402	0.83562	-0.99
Mof_C 	C 	0.3355	0.5235	0.82781	0.43
Mof_C 	C 	0.37611	0.51385	0.85289	-0.951
Mof_C 	C 	0.25549	0.44595	0.95411	0.23
Mof_C 	C 	0.21819	0.46299	0.98469	-0.217
Mof_C 	C 	0.2033	0.436	0.0221	0.083
Mof_C 	C 	0.22191	0.39061	0.03061	-0.097
Mof_C 	C 	0.25842	0.3739	0.00118	-0.025
Mof_C 	C 	0.27466	0.40095	0.96194	-0.171
Mof_C 	C 	0.21622	0.55481	0.75894	0.205
Mof_C 	C 	0.16432	0.51862	0.73381	0.225
Mof_C 	C 	0.12898	0.55483	0.74029	-0.178
Mof_C 	C 	0.07391	0.51421	0.72531	-0.11
Mof_C 	C 	0.10781	0.47791	0.71811	0.063
Mof_C 	C 	0.08418	0.55268	0.73531	0.007
Mof_C 	C 	0.15379	0.47909	0.72219	-0.2
Mof_C 	C 	0.29965	0.49801	0.84052	-0.348
Mof_C 	C 	0.04875	0.59395	0.74255	0.308
Mof_C 	C 	0.29975	0.46062	0.88084	0.218
Mof_C 	C 	0.99372	0.54253	0.58284	-0.355
Mof_C 	C 	0.87329	0.29951	0.66114	-0.089
Mof_C 	C 	0.90462	0.30273	0.62194	0.065
Mof_C 	C 	0.2819	0.3269	0.0115	0.392
Mof_C 	C 	0.59495	0.62685	0.15232	-0.005
Mof_C 	C 	0.56879	0.61264	0.19251	-0.105
Mof_C 	C 	0.53226	0.59052	0.19239	0.072
Mof_C 	C 	0.52117	0.58367	0.15159	-0.224
Mof_C 	C 	0.54697	0.59821	0.11107	0.228
Mof_C 	C 	0.58398	0.62001	0.11085	-0.178
Mof_C 	C 	0.63499	0.65118	0.15149	0.368
Mof_C 	C 	0.51008	0.61019	0.96915	0.407
Mof_C 	C 	0.49588	0.59376	0.93339	-0.346
Mof_C 	C 	0.51345	0.54946	0.92367	0.421
Mof_C 	C 	0.54258	0.52155	0.9511	-0.344
Mof_C 	C 	0.5602	0.60119	0.02961	0.217
Mof_C 	C 	0.59011	0.50652	0.01493	-0.969
Mof_C 	C 	0.48974	0.65711	0.9816	-0.921
Mof_C 	C 	0.49977	0.53253	0.8842	-0.932
Mof_C 	C 	0.46161	0.62312	0.90623	0.212
Mof_C 	C 	0.5578	0.53805	0.98598	0.433
Mof_C 	C 	0.33663	0.68416	0.85914	-0.027
Mof_C 	C 	0.37795	0.66607	0.87446	-0.174
Mof_C 	C 	0.34346	0.60391	0.91969	-0.217
Mof_C 	C 	0.33151	0.73022	0.83239	0.381
Mof_C 	C 	0.55681	0.47209	0.94526	0.19
Mof_C 	C 	0.61973	0.42428	0.90909	0.228
Mof_C 	C 	0.66165	0.41999	0.88175	-0.17
Mof_C 	C 	0.68285	0.37755	0.87185	-0.014
Mof_C 	C 	0.66245	0.33908	0.89058	-0.115
Mof_C 	C 	0.62175	0.34338	0.91831	0.074
Mof_C 	C 	0.59922	0.38573	0.92744	-0.223
Mof_C 	C 	0.72839	0.37306	0.84175	0.368
Mof_C 	C 	0.69827	0.78546	0.48382	0.377
Mof_C 	C 	0.65314	0.77002	0.48529	-0.005
Mof_C 	C 	0.63707	0.76966	0.44466	-0.183
Mof_C 	C 	0.59402	0.75839	0.44651	0.233
Mof_C 	C 	0.56841	0.74629	0.48788	-0.23
Mof_C 	C 	0.58434	0.74674	0.52754	0.081
Mof_C 	C 	0.62678	0.7594	0.52596	-0.112
Mof_C 	C 	0.3814	0.62573	0.90409	0.229
Mof_C 	C 	0.5928	0.78224	0.36805	0.212
Mof_C 	C 	0.55946	0.79158	0.3331	-0.33
Mof_C 	C 	0.56574	0.76501	0.29738	0.394
Mof_C 	C 	0.60071	0.72208	0.29814	-0.875
Mof_C 	C 	0.54132	0.77908	0.26045	-0.336
Mof_C 	C 	0.50816	0.81789	0.25999	0.438
Mof_C 	C 	0.48402	0.83562	0.21972	-0.99
Mof_C 	C 	0.5235	0.82781	0.3355	0.43
Mof_C 	C 	0.51385	0.85289	0.37611	-0.951
Mof_C 	C 	0.44595	0.95411	0.25549	0.23
Mof_C 	C 	0.46299	0.98469	0.21819	-0.217
Mof_C 	C 	0.436	0.0221	0.2033	0.083
Mof_C 	C 	0.39061	0.03061	0.22191	-0.097
Mof_C 	C 	0.3739	0.00118	0.25842	-0.025
Mof_C 	C 	0.40095	0.96194	0.27466	-0.171
Mof_C 	C 	0.55481	0.75894	0.21622	0.205
Mof_C 	C 	0.51862	0.73381	0.16432	0.225
Mof_C 	C 	0.55483	0.74029	0.12898	-0.178
Mof_C 	C 	0.51421	0.72531	0.07391	-0.11
Mof_C 	C 	0.47791	0.71811	0.10781	0.063
Mof_C 	C 	0.55268	0.73531	0.08418	0.007
Mof_C 	C 	0.47909	0.72219	0.15379	-0.2
Mof_C 	C 	0.49801	0.84052	0.29965	-0.348
Mof_C 	C 	0.59395	0.74255	0.04875	0.308
Mof_C 	C 	0.46062	0.88084	0.29975	0.218
Mof_C 	C 	0.54253	0.58284	0.99372	-0.355
Mof_C 	C 	0.29951	0.66114	0.87329	-0.089
Mof_C 	C 	0.30273	0.62194	0.90462	0.065
Mof_C 	C 	0.3269	0.0115	0.2819	0.392
Mof_C 	C 	0.62685	0.15232	0.59495	-0.005
Mof_C 	C 	0.61264	0.19251	0.56879	-0.105
Mof_C 	C 	0.59052	0.19239	0.53226	0.072
Mof_C 	C 	0.58367	0.15159	0.52117	-0.224
Mof_C 	C 	0.59821	0.11107	0.54697	0.228
Mof_C 	C 	0.62001	0.11085	0.58398	-0.178
Mof_C 	C 	0.65118	0.15149	0.63499	0.368
Mof_C 	C 	0.61019	0.96915	0.51008	0.407
Mof_C 	C 	0.59376	0.93339	0.49588	-0.346
Mof_C 	C 	0.54946	0.92367	0.51345	0.421
Mof_C 	C 	0.52155	0.9511	0.54258	-0.344
Mof_C 	C 	0.60119	0.02961	0.5602	0.217
Mof_C 	C 	0.50652	0.01493	0.59011	-0.969
Mof_C 	C 	0.65711	0.9816	0.48974	-0.921
Mof_C 	C 	0.53253	0.8842	0.49977	-0.932
Mof_C 	C 	0.62312	0.90623	0.46161	0.212
Mof_C 	C 	0.53805	0.98598	0.5578	0.433
Mof_C 	C 	0.68416	0.85914	0.33663	-0.027
Mof_C 	C 	0.66607	0.87446	0.37795	-0.174
Mof_C 	C 	0.60391	0.91969	0.34346	-0.217
Mof_C 	C 	0.73022	0.83239	0.33151	0.381
Mof_C 	C 	0.47209	0.94526	0.55681	0.19
Mof_C 	C 	0.42428	0.90909	0.61973	0.228
Mof_C 	C 	0.41999	0.88175	0.66165	-0.17
Mof_C 	C 	0.37755	0.87185	0.68285	-0.014
Mof_C 	C 	0.33908	0.89058	0.66245	-0.115
Mof_C 	C 	0.34338	0.91831	0.62175	0.074
Mof_C 	C 	0.38573	0.92744	0.59922	-0.223
Mof_C 	C 	0.37306	0.84175	0.72839	0.368
Mof_C 	C 	0.78546	0.48382	0.69827	0.377
Mof_C 	C 	0.77002	0.48529	0.65314	-0.005
Mof_C 	C 	0.76966	0.44466	0.63707	-0.183
Mof_C 	C 	0.75839	0.44651	0.59402	0.233
Mof_C 	C 	0.74629	0.48788	0.56841	-0.23
Mof_C 	C 	0.74674	0.52754	0.58434	0.081
Mof_C 	C 	0.7594	0.52596	0.62678	-0.112
Mof_C 	C 	0.62573	0.90409	0.3814	0.229
Mof_C 	C 	0.78224	0.36805	0.5928	0.212
Mof_C 	C 	0.79158	0.3331	0.55946	-0.33
Mof_C 	C 	0.76501	0.29738	0.56574	0.394
Mof_C 	C 	0.72208	0.29814	0.60071	-0.875
Mof_C 	C 	0.77908	0.26045	0.54132	-0.336
Mof_C 	C 	0.81789	0.25999	0.50816	0.438
Mof_C 	C 	0.83562	0.21972	0.48402	-0.99
Mof_C 	C 	0.82781	0.3355	0.5235	0.43
Mof_C 	C 	0.85289	0.37611	0.51385	-0.951
Mof_C 	C 	0.95411	0.25549	0.44595	0.23
Mof_C 	C 	0.98469	0.21819	0.46299	-0.217
Mof_C 	C 	0.0221	0.2033	0.436	0.083
Mof_C 	C 	0.03061	0.22191	0.39061	-0.097
Mof_C 	C 	0.00118	0.25842	0.3739	-0.025
Mof_C 	C 	0.96194	0.27466	0.40095	-0.171
Mof_C 	C 	0.75894	0.21622	0.55481	0.205
Mof_C 	C 	0.73381	0.16432	0.51862	0.225
Mof_C 	C 	0.74029	0.12898	0.55483	-0.178
Mof_C 	C 	0.72531	0.07391	0.51421	-0.11
Mof_C 	C 	0.71811	0.10781	0.47791	0.063
Mof_C 	C 	0.73531	0.08418	0.55268	0.007
Mof_C 	C 	0.72219	0.15379	0.47909	-0.2
Mof_C 	C 	0.84052	0.29965	0.49801	-0.348
Mof_C 	C 	0.74255	0.04875	0.59395	0.308
Mof_C 	C 	0.88084	0.29975	0.46062	0.218
Mof_C 	C 	0.58284	0.99372	0.54253	-0.355
Mof_C 	C 	0.66114	0.87329	0.29951	-0.089
Mof_C 	C 	0.62194	0.90462	0.30273	0.065
Mof_C 	C 	0.0115	0.2819	0.3269	0.392
Mof_C 	C 	0.09495	0.65232	0.12685	-0.005
Mof_C 	C 	0.06879	0.69251	0.11264	-0.105
Mof_C 	C 	0.03226	0.69239	0.09052	0.073
Mof_C 	C 	0.02117	0.65159	0.08367	-0.226
Mof_C 	C 	0.04697	0.61107	0.09821	0.228
Mof_C 	C 	0.08398	0.61085	0.12001	-0.179
Mof_C 	C 	0.13499	0.65149	0.15118	0.368
Mof_C 	C 	0.01008	0.46915	0.11019	0.403
Mof_C 	C 	0.99588	0.43339	0.09376	-0.342
Mof_C 	C 	0.01345	0.42367	0.04946	0.416
Mof_C 	C 	0.04258	0.4511	0.02155	-0.343
Mof_C 	C 	0.0602	0.52961	0.10119	0.217
Mof_C 	C 	0.09011	0.51493	0.00652	-0.974
Mof_C 	C 	0.98974	0.4816	0.15711	-0.914
Mof_C 	C 	0.99977	0.3842	0.03253	-0.923
Mof_C 	C 	0.96161	0.40623	0.12312	0.209
Mof_C 	C 	0.0578	0.48598	0.03805	0.433
Mof_C 	C 	0.83663	0.35914	0.18416	-0.027
Mof_C 	C 	0.87795	0.37446	0.16607	-0.174
Mof_C 	C 	0.84346	0.41969	0.10391	-0.217
Mof_C 	C 	0.83151	0.33239	0.23022	0.381
Mof_C 	C 	0.05681	0.44526	0.97209	0.19
Mof_C 	C 	0.11973	0.40909	0.92428	0.228
Mof_C 	C 	0.16165	0.38175	0.91999	-0.17
Mof_C 	C 	0.18285	0.37185	0.87755	-0.014
Mof_C 	C 	0.16245	0.39058	0.83908	-0.115
Mof_C 	C 	0.12175	0.41831	0.84338	0.074
Mof_C 	C 	0.09922	0.42744	0.88573	-0.223
Mof_C 	C 	0.22839	0.34175	0.87306	0.368
Mof_C 	C 	0.19827	0.98382	0.28546	0.377
Mof_C 	C 	0.15314	0.98529	0.27002	-0.004
Mof_C 	C 	0.13707	0.94466	0.26966	-0.182
Mof_C 	C 	0.09402	0.94651	0.25839	0.233
Mof_C 	C 	0.06841	0.98788	0.24629	-0.228
Mof_C 	C 	0.08434	0.02754	0.24674	0.079
Mof_C 	C 	0.12678	0.02596	0.2594	-0.112
Mof_C 	C 	0.8814	0.40409	0.12573	0.229
Mof_C 	C 	0.0928	0.86805	0.28224	0.212
Mof_C 	C 	0.05946	0.8331	0.29158	-0.33
Mof_C 	C 	0.06574	0.79738	0.26501	0.394
Mof_C 	C 	0.10071	0.79814	0.22208	-0.875
Mof_C 	C 	0.04132	0.76045	0.27908	-0.336
Mof_C 	C 	0.00816	0.75999	0.31789	0.439
Mof_C 	C 	0.98402	0.71972	0.33562	-0.99
Mof_C 	C 	0.0235	0.8355	0.32781	0.43
Mof_C 	C 	0.01385	0.87611	0.35289	-0.95
Mof_C 	C 	0.94595	0.75549	0.45411	0.231
Mof_C 	C 	0.96299	0.71819	0.48469	-0.219
Mof_C 	C 	0.936	0.7033	0.5221	0.086
Mof_C 	C 	0.89061	0.72191	0.53061	-0.099
Mof_C 	C 	0.8739	0.75842	0.50118	-0.024
Mof_C 	C 	0.90095	0.77466	0.46194	-0.173
Mof_C 	C 	0.05481	0.71622	0.25894	0.205
Mof_C 	C 	0.01862	0.66432	0.23381	0.225
Mof_C 	C 	0.05483	0.62898	0.24029	-0.178
Mof_C 	C 	0.01421	0.57391	0.22531	-0.111
Mof_C 	C 	0.97791	0.60781	0.21811	0.063
Mof_C 	C 	0.05268	0.58418	0.23531	0.007
Mof_C 	C 	0.97909	0.65379	0.22219	-0.201
Mof_C 	C 	0.99801	0.79965	0.34052	-0.349
Mof_C 	C 	0.09395	0.54875	0.24255	0.308
Mof_C 	C 	0.96062	0.79975	0.38084	0.218
Mof_C 	C 	0.04253	0.49372	0.08284	-0.354
Mof_C 	C 	0.79951	0.37329	0.16114	-0.089
Mof_C 	C 	0.80273	0.40462	0.12194	0.065
Mof_C 	C 	0.8269	0.7819	0.5115	0.392
Mof_C 	C 	0.12685	0.09495	0.65232	-0.005
Mof_C 	C 	0.11264	0.06879	0.69251	-0.105
Mof_C 	C 	0.09052	0.03226	0.69239	0.073
Mof_C 	C 	0.08367	0.02117	0.65159	-0.226
Mof_C 	C 	0.09821	0.04697	0.61107	0.228
Mof_C 	C 	0.12001	0.08398	0.61085	-0.179
Mof_C 	C 	0.15118	0.13499	0.65149	0.368
Mof_C 	C 	0.11019	0.01008	0.46915	0.403
Mof_C 	C 	0.09376	0.99588	0.43339	-0.342
Mof_C 	C 	0.04946	0.01345	0.42367	0.416
Mof_C 	C 	0.02155	0.04258	0.4511	-0.343
Mof_C 	C 	0.10119	0.0602	0.52961	0.217
Mof_C 	C 	0.00652	0.09011	0.51493	-0.974
Mof_C 	C 	0.15711	0.98974	0.4816	-0.914
Mof_C 	C 	0.03253	0.99977	0.3842	-0.923
Mof_C 	C 	0.12312	0.96161	0.40623	0.209
Mof_C 	C 	0.03805	0.0578	0.48598	0.433
Mof_C 	C 	0.18416	0.83663	0.35914	-0.027
Mof_C 	C 	0.16607	0.87795	0.37446	-0.174
Mof_C 	C 	0.10391	0.84346	0.41969	-0.217
Mof_C 	C 	0.23022	0.83151	0.33239	0.381
Mof_C 	C 	0.97209	0.05681	0.44526	0.19
Mof_C 	C 	0.92428	0.11973	0.40909	0.228
Mof_C 	C 	0.91999	0.16165	0.38175	-0.17
Mof_C 	C 	0.87755	0.18285	0.37185	-0.014
Mof_C 	C 	0.83908	0.16245	0.39058	-0.115
Mof_C 	C 	0.84338	0.12175	0.41831	0.074
Mof_C 	C 	0.88573	0.09922	0.42744	-0.223
Mof_C 	C 	0.87306	0.22839	0.34175	0.368
Mof_C 	C 	0.28546	0.19827	0.98382	0.377
Mof_C 	C 	0.27002	0.15314	0.98529	-0.004
Mof_C 	C 	0.26966	0.13707	0.94466	-0.182
Mof_C 	C 	0.25839	0.09402	0.94651	0.233
Mof_C 	C 	0.24629	0.06841	0.98788	-0.228
Mof_C 	C 	0.24674	0.08434	0.02754	0.079
Mof_C 	C 	0.2594	0.12678	0.02596	-0.112
Mof_C 	C 	0.12573	0.8814	0.40409	0.229
Mof_C 	C 	0.28224	0.0928	0.86805	0.212
Mof_C 	C 	0.29158	0.05946	0.8331	-0.33
Mof_C 	C 	0.26501	0.06574	0.79738	0.394
Mof_C 	C 	0.22208	0.10071	0.79814	-0.875
Mof_C 	C 	0.27908	0.04132	0.76045	-0.336
Mof_C 	C 	0.31789	0.00816	0.75999	0.439
Mof_C 	C 	0.33562	0.98402	0.71972	-0.99
Mof_C 	C 	0.32781	0.0235	0.8355	0.43
Mof_C 	C 	0.35289	0.01385	0.87611	-0.95
Mof_C 	C 	0.45411	0.94595	0.75549	0.231
Mof_C 	C 	0.48469	0.96299	0.71819	-0.219
Mof_C 	C 	0.5221	0.936	0.7033	0.086
Mof_C 	C 	0.53061	0.89061	0.72191	-0.099
Mof_C 	C 	0.50118	0.8739	0.75842	-0.024
Mof_C 	C 	0.46194	0.90095	0.77466	-0.173
Mof_C 	C 	0.25894	0.05481	0.71622	0.205
Mof_C 	C 	0.23381	0.01862	0.66432	0.225
Mof_C 	C 	0.24029	0.05483	0.62898	-0.178
Mof_C 	C 	0.22531	0.01421	0.57391	-0.111
Mof_C 	C 	0.21811	0.97791	0.60781	0.063
Mof_C 	C 	0.23531	0.05268	0.58418	0.007
Mof_C 	C 	0.22219	0.97909	0.65379	-0.201
Mof_C 	C 	0.34052	0.99801	0.79965	-0.349
Mof_C 	C 	0.24255	0.09395	0.54875	0.308
Mof_C 	C 	0.38084	0.96062	0.79975	0.218
Mof_C 	C 	0.08284	0.04253	0.49372	-0.354
Mof_C 	C 	0.16114	0.79951	0.37329	-0.089
Mof_C 	C 	0.12194	0.80273	0.40462	0.065
Mof_C 	C 	0.5115	0.8269	0.7819	0.392
Mof_C 	C 	0.65232	0.12685	0.09495	-0.005
Mof_C 	C 	0.69251	0.11264	0.06879	-0.105
Mof_C 	C 	0.69239	0.09052	0.03226	0.073
Mof_C 	C 	0.65159	0.08367	0.02117	-0.226
Mof_C 	C 	0.61107	0.09821	0.04697	0.228
Mof_C 	C 	0.61085	0.12001	0.08398	-0.179
Mof_C 	C 	0.65149	0.15118	0.13499	0.368
Mof_C 	C 	0.46915	0.11019	0.01008	0.403
Mof_C 	C 	0.43339	0.09376	0.99588	-0.342
Mof_C 	C 	0.42367	0.04946	0.01345	0.416
Mof_C 	C 	0.4511	0.02155	0.04258	-0.343
Mof_C 	C 	0.52961	0.10119	0.0602	0.217
Mof_C 	C 	0.51493	0.00652	0.09011	-0.974
Mof_C 	C 	0.4816	0.15711	0.98974	-0.914
Mof_C 	C 	0.3842	0.03253	0.99977	-0.923
Mof_C 	C 	0.40623	0.12312	0.96161	0.209
Mof_C 	C 	0.48598	0.03805	0.0578	0.433
Mof_C 	C 	0.35914	0.18416	0.83663	-0.027
Mof_C 	C 	0.37446	0.16607	0.87795	-0.174
Mof_C 	C 	0.41969	0.10391	0.84346	-0.217
Mof_C 	C 	0.33239	0.23022	0.83151	0.381
Mof_C 	C 	0.44526	0.97209	0.05681	0.19
Mof_C 	C 	0.40909	0.92428	0.11973	0.228
Mof_C 	C 	0.38175	0.91999	0.16165	-0.17
Mof_C 	C 	0.37185	0.87755	0.18285	-0.014
Mof_C 	C 	0.39058	0.83908	0.16245	-0.115
Mof_C 	C 	0.41831	0.84338	0.12175	0.074
Mof_C 	C 	0.42744	0.88573	0.09922	-0.223
Mof_C 	C 	0.34175	0.87306	0.22839	0.368
Mof_C 	C 	0.98382	0.28546	0.19827	0.377
Mof_C 	C 	0.98529	0.27002	0.15314	-0.004
Mof_C 	C 	0.94466	0.26966	0.13707	-0.182
Mof_C 	C 	0.94651	0.25839	0.09402	0.233
Mof_C 	C 	0.98788	0.24629	0.06841	-0.228
Mof_C 	C 	0.02754	0.24674	0.08434	0.079
Mof_C 	C 	0.02596	0.2594	0.12678	-0.112
Mof_C 	C 	0.40409	0.12573	0.8814	0.229
Mof_C 	C 	0.86805	0.28224	0.0928	0.212
Mof_C 	C 	0.8331	0.29158	0.05946	-0.33
Mof_C 	C 	0.79738	0.26501	0.06574	0.394
Mof_C 	C 	0.79814	0.22208	0.10071	-0.875
Mof_C 	C 	0.76045	0.27908	0.04132	-0.336
Mof_C 	C 	0.75999	0.31789	0.00816	0.439
Mof_C 	C 	0.71972	0.33562	0.98402	-0.99
Mof_C 	C 	0.8355	0.32781	0.0235	0.43
Mof_C 	C 	0.87611	0.35289	0.01385	-0.95
Mof_C 	C 	0.75549	0.45411	0.94595	0.231
Mof_C 	C 	0.71819	0.48469	0.96299	-0.219
Mof_C 	C 	0.7033	0.5221	0.936	0.086
Mof_C 	C 	0.72191	0.53061	0.89061	-0.099
Mof_C 	C 	0.75842	0.50118	0.8739	-0.024
Mof_C 	C 	0.77466	0.46194	0.90095	-0.173
Mof_C 	C 	0.71622	0.25894	0.05481	0.205
Mof_C 	C 	0.66432	0.23381	0.01862	0.225
Mof_C 	C 	0.62898	0.24029	0.05483	-0.178
Mof_C 	C 	0.57391	0.22531	0.01421	-0.111
Mof_C 	C 	0.60781	0.21811	0.97791	0.063
Mof_C 	C 	0.58418	0.23531	0.05268	0.007
Mof_C 	C 	0.65379	0.22219	0.97909	-0.201
Mof_C 	C 	0.79965	0.34052	0.99801	-0.349
Mof_C 	C 	0.54875	0.24255	0.09395	0.308
Mof_C 	C 	0.79975	0.38084	0.96062	0.218
Mof_C 	C 	0.49372	0.08284	0.04253	-0.354
Mof_C 	C 	0.37329	0.16114	0.79951	-0.089
Mof_C 	C 	0.40462	0.12194	0.80273	0.065
Mof_C 	C 	0.7819	0.5115	0.8269	0.392
Mof_C 	C 	0.84768	0.40505	0.37315	-0.005
Mof_C 	C 	0.80749	0.43121	0.38736	-0.105
Mof_C 	C 	0.80761	0.46774	0.40948	0.072
Mof_C 	C 	0.84841	0.47883	0.41633	-0.224
Mof_C 	C 	0.88893	0.45303	0.40179	0.228
Mof_C 	C 	0.88915	0.41602	0.37999	-0.178
Mof_C 	C 	0.84851	0.36501	0.34882	0.368
Mof_C 	C 	0.03085	0.48992	0.38981	0.407
Mof_C 	C 	0.06661	0.50412	0.40624	-0.346
Mof_C 	C 	0.07633	0.48655	0.45054	0.421
Mof_C 	C 	0.0489	0.45742	0.47845	-0.344
Mof_C 	C 	0.97039	0.4398	0.39881	0.217
Mof_C 	C 	0.98507	0.40989	0.49348	-0.969
Mof_C 	C 	0.0184	0.51026	0.34289	-0.921
Mof_C 	C 	0.1158	0.50023	0.46747	-0.932
Mof_C 	C 	0.09377	0.53839	0.37688	0.212
Mof_C 	C 	0.01402	0.4422	0.46195	0.433
Mof_C 	C 	0.14086	0.66337	0.31584	-0.027
Mof_C 	C 	0.12554	0.62205	0.33393	-0.174
Mof_C 	C 	0.08031	0.65654	0.39609	-0.217
Mof_C 	C 	0.16761	0.66849	0.26978	0.381
Mof_C 	C 	0.05474	0.44319	0.52791	0.19
Mof_C 	C 	0.09091	0.38027	0.57572	0.228
Mof_C 	C 	0.11825	0.33835	0.58001	-0.17
Mof_C 	C 	0.12815	0.31715	0.62245	-0.014
Mof_C 	C 	0.10942	0.33755	0.66092	-0.115
Mof_C 	C 	0.08169	0.37825	0.65662	0.074
Mof_C 	C 	0.07256	0.40078	0.61427	-0.223
Mof_C 	C 	0.15825	0.27161	0.62694	0.368
Mof_C 	C 	0.51618	0.30173	0.21454	0.377
Mof_C 	C 	0.51471	0.34686	0.22998	-0.005
Mof_C 	C 	0.55534	0.36293	0.23034	-0.183
Mof_C 	C 	0.55349	0.40598	0.24161	0.233
Mof_C 	C 	0.51212	0.43159	0.25371	-0.23
Mof_C 	C 	0.47246	0.41566	0.25326	0.081
Mof_C 	C 	0.47404	0.37322	0.2406	-0.112
Mof_C 	C 	0.09591	0.6186	0.37427	0.229
Mof_C 	C 	0.63195	0.4072	0.21776	0.212
Mof_C 	C 	0.6669	0.44054	0.20842	-0.33
Mof_C 	C 	0.70262	0.43426	0.23499	0.394
Mof_C 	C 	0.70186	0.39929	0.27792	-0.875
Mof_C 	C 	0.73955	0.45868	0.22092	-0.336
Mof_C 	C 	0.74001	0.49184	0.18211	0.438
Mof_C 	C 	0.78028	0.51598	0.16438	-0.99
Mof_C 	C 	0.6645	0.4765	0.17219	0.43
Mof_C 	C 	0.62389	0.48615	0.14711	-0.951
Mof_C 	C 	0.74451	0.55405	0.04589	0.23
Mof_C 	C 	0.78181	0.53701	0.01531	-0.217
Mof_C 	C 	0.7967	0.564	0.9779	0.083
Mof_C 	C 	0.77809	0.60939	0.96939	-0.097
Mof_C 	C 	0.74158	0.6261	0.99882	-0.025
Mof_C 	C 	0.72534	0.59905	0.03806	-0.171
Mof_C 	C 	0.78378	0.44519	0.24106	0.205
Mof_C 	C 	0.83568	0.48138	0.26619	0.225
Mof_C 	C 	0.87102	0.44517	0.25971	-0.178
Mof_C 	C 	0.92609	0.48579	0.27469	-0.11
Mof_C 	C 	0.89219	0.52209	0.28189	0.063
Mof_C 	C 	0.91582	0.44732	0.26469	0.007
Mof_C 	C 	0.84621	0.52091	0.27781	-0.2
Mof_C 	C 	0.70035	0.50199	0.15948	-0.348
Mof_C 	C 	0.95125	0.40605	0.25745	0.308
Mof_C 	C 	0.70025	0.53938	0.11916	0.218
Mof_C 	C 	0.00628	0.45747	0.41716	-0.355
Mof_C 	C 	0.12671	0.70049	0.33886	-0.089
Mof_C 	C 	0.09538	0.69727	0.37806	0.065
Mof_C 	C 	0.7181	0.6731	0.9885	0.392
Mof_C 	C 	0.40505	0.37315	0.84768	-0.005
Mof_C 	C 	0.43121	0.38736	0.80749	-0.105
Mof_C 	C 	0.46774	0.40948	0.80761	0.072
Mof_C 	C 	0.47883	0.41633	0.84841	-0.224
Mof_C 	C 	0.45303	0.40179	0.88893	0.228
Mof_C 	C 	0.41602	0.37999	0.88915	-0.178
Mof_C 	C 	0.36501	0.34882	0.84851	0.368
Mof_C 	C 	0.48992	0.38981	0.03085	0.407
Mof_C 	C 	0.50412	0.40624	0.06661	-0.346
Mof_C 	C 	0.48655	0.45054	0.07633	0.421
Mof_C 	C 	0.45742	0.47845	0.0489	-0.344
Mof_C 	C 	0.4398	0.39881	0.97039	0.217
Mof_C 	C 	0.40989	0.49348	0.98507	-0.969
Mof_C 	C 	0.51026	0.34289	0.0184	-0.921
Mof_C 	C 	0.50023	0.46747	0.1158	-0.932
Mof_C 	C 	0.53839	0.37688	0.09377	0.212
Mof_C 	C 	0.4422	0.46195	0.01402	0.433
Mof_C 	C 	0.66337	0.31584	0.14086	-0.027
Mof_C 	C 	0.62205	0.33393	0.12554	-0.174
Mof_C 	C 	0.65654	0.39609	0.08031	-0.217
Mof_C 	C 	0.66849	0.26978	0.16761	0.381
Mof_C 	C 	0.44319	0.52791	0.05474	0.19
Mof_C 	C 	0.38027	0.57572	0.09091	0.228
Mof_C 	C 	0.33835	0.58001	0.11825	-0.17
Mof_C 	C 	0.31715	0.62245	0.12815	-0.014
Mof_C 	C 	0.33755	0.66092	0.10942	-0.115
Mof_C 	C 	0.37825	0.65662	0.08169	0.074
Mof_C 	C 	0.40078	0.61427	0.07256	-0.223
Mof_C 	C 	0.27161	0.62694	0.15825	0.368
Mof_C 	C 	0.30173	0.21454	0.51618	0.377
Mof_C 	C 	0.34686	0.22998	0.51471	-0.005
Mof_C 	C 	0.36293	0.23034	0.55534	-0.183
Mof_C 	C 	0.40598	0.24161	0.55349	0.233
Mof_C 	C 	0.43159	0.25371	0.51212	-0.23
Mof_C 	C 	0.41566	0.25326	0.47246	0.081
Mof_C 	C 	0.37322	0.2406	0.47404	-0.112
Mof_C 	C 	0.6186	0.37427	0.09591	0.229
Mof_C 	C 	0.4072	0.21776	0.63195	0.212
Mof_C 	C 	0.44054	0.20842	0.6669	-0.33
Mof_C 	C 	0.43426	0.23499	0.70262	0.394
Mof_C 	C 	0.39929	0.27792	0.70186	-0.875
Mof_C 	C 	0.45868	0.22092	0.73955	-0.336
Mof_C 	C 	0.49184	0.18211	0.74001	0.438
Mof_C 	C 	0.51598	0.16438	0.78028	-0.99
Mof_C 	C 	0.4765	0.17219	0.6645	0.43
Mof_C 	C 	0.48615	0.14711	0.62389	-0.951
Mof_C 	C 	0.55405	0.04589	0.74451	0.23
Mof_C 	C 	0.53701	0.01531	0.78181	-0.217
Mof_C 	C 	0.564	0.9779	0.7967	0.083
Mof_C 	C 	0.60939	0.96939	0.77809	-0.097
Mof_C 	C 	0.6261	0.99882	0.74158	-0.025
Mof_C 	C 	0.59905	0.03806	0.72534	-0.171
Mof_C 	C 	0.44519	0.24106	0.78378	0.205
Mof_C 	C 	0.48138	0.26619	0.83568	0.225
Mof_C 	C 	0.44517	0.25971	0.87102	-0.178
Mof_C 	C 	0.48579	0.27469	0.92609	-0.11
Mof_C 	C 	0.52209	0.28189	0.89219	0.063
Mof_C 	C 	0.44732	0.26469	0.91582	0.007
Mof_C 	C 	0.52091	0.27781	0.84621	-0.2
Mof_C 	C 	0.50199	0.15948	0.70035	-0.348
Mof_C 	C 	0.40605	0.25745	0.95125	0.308
Mof_C 	C 	0.53938	0.11916	0.70025	0.218
Mof_C 	C 	0.45747	0.41716	0.00628	-0.355
Mof_C 	C 	0.70049	0.33886	0.12671	-0.089
Mof_C 	C 	0.69727	0.37806	0.09538	0.065
Mof_C 	C 	0.6731	0.9885	0.7181	0.392
Mof_C 	C 	0.37315	0.84768	0.40505	-0.005
Mof_C 	C 	0.38736	0.80749	0.43121	-0.105
Mof_C 	C 	0.40948	0.80761	0.46774	0.072
Mof_C 	C 	0.41633	0.84841	0.47883	-0.224
Mof_C 	C 	0.40179	0.88893	0.45303	0.228
Mof_C 	C 	0.37999	0.88915	0.41602	-0.178
Mof_C 	C 	0.34882	0.84851	0.36501	0.368
Mof_C 	C 	0.38981	0.03085	0.48992	0.407
Mof_C 	C 	0.40624	0.06661	0.50412	-0.346
Mof_C 	C 	0.45054	0.07633	0.48655	0.421
Mof_C 	C 	0.47845	0.0489	0.45742	-0.344
Mof_C 	C 	0.39881	0.97039	0.4398	0.217
Mof_C 	C 	0.49348	0.98507	0.40989	-0.969
Mof_C 	C 	0.34289	0.0184	0.51026	-0.921
Mof_C 	C 	0.46747	0.1158	0.50023	-0.932
Mof_C 	C 	0.37688	0.09377	0.53839	0.212
Mof_C 	C 	0.46195	0.01402	0.4422	0.433
Mof_C 	C 	0.31584	0.14086	0.66337	-0.027
Mof_C 	C 	0.33393	0.12554	0.62205	-0.174
Mof_C 	C 	0.39609	0.08031	0.65654	-0.217
Mof_C 	C 	0.26978	0.16761	0.66849	0.381
Mof_C 	C 	0.52791	0.05474	0.44319	0.19
Mof_C 	C 	0.57572	0.09091	0.38027	0.228
Mof_C 	C 	0.58001	0.11825	0.33835	-0.17
Mof_C 	C 	0.62245	0.12815	0.31715	-0.014
Mof_C 	C 	0.66092	0.10942	0.33755	-0.115
Mof_C 	C 	0.65662	0.08169	0.37825	0.074
Mof_C 	C 	0.61427	0.07256	0.40078	-0.223
Mof_C 	C 	0.62694	0.15825	0.27161	0.368
Mof_C 	C 	0.21454	0.51618	0.30173	0.377
Mof_C 	C 	0.22998	0.51471	0.34686	-0.005
Mof_C 	C 	0.23034	0.55534	0.36293	-0.183
Mof_C 	C 	0.24161	0.55349	0.40598	0.233
Mof_C 	C 	0.25371	0.51212	0.43159	-0.23
Mof_C 	C 	0.25326	0.47246	0.41566	0.081
Mof_C 	C 	0.2406	0.47404	0.37322	-0.112
Mof_C 	C 	0.37427	0.09591	0.6186	0.229
Mof_C 	C 	0.21776	0.63195	0.4072	0.212
Mof_C 	C 	0.20842	0.6669	0.44054	-0.33
Mof_C 	C 	0.23499	0.70262	0.43426	0.394
Mof_C 	C 	0.27792	0.70186	0.39929	-0.875
Mof_C 	C 	0.22092	0.73955	0.45868	-0.336
Mof_C 	C 	0.18211	0.74001	0.49184	0.438
Mof_C 	C 	0.16438	0.78028	0.51598	-0.99
Mof_C 	C 	0.17219	0.6645	0.4765	0.43
Mof_C 	C 	0.14711	0.62389	0.48615	-0.951
Mof_C 	C 	0.04589	0.74451	0.55405	0.23
Mof_C 	C 	0.01531	0.78181	0.53701	-0.217
Mof_C 	C 	0.9779	0.7967	0.564	0.083
Mof_C 	C 	0.96939	0.77809	0.60939	-0.097
Mof_C 	C 	0.99882	0.74158	0.6261	-0.025
Mof_C 	C 	0.03806	0.72534	0.59905	-0.171
Mof_C 	C 	0.24106	0.78378	0.44519	0.205
Mof_C 	C 	0.26619	0.83568	0.48138	0.225
Mof_C 	C 	0.25971	0.87102	0.44517	-0.178
Mof_C 	C 	0.27469	0.92609	0.48579	-0.11
Mof_C 	C 	0.28189	0.89219	0.52209	0.063
Mof_C 	C 	0.26469	0.91582	0.44732	0.007
Mof_C 	C 	0.27781	0.84621	0.52091	-0.2
Mof_C 	C 	0.15948	0.70035	0.50199	-0.348
Mof_C 	C 	0.25745	0.95125	0.40605	0.308
Mof_C 	C 	0.11916	0.70025	0.53938	0.218
Mof_C 	C 	0.41716	0.00628	0.45747	-0.355
Mof_C 	C 	0.33886	0.12671	0.70049	-0.089
Mof_C 	C 	0.37806	0.09538	0.69727	0.065
Mof_C 	C 	0.9885	0.7181	0.6731	0.392
Mof_O 	O 	0.87167	0.44034	0.74562	-0.462
Mof_O 	O 	0.90806	0.48973	0.76514	-0.459
Mof_O 	O 	0.98161	0.29172	0.76204	-0.284
Mof_O 	O 	0.02316	0.23084	0.58208	-0.291
Mof_O 	O 	0.18942	0.19446	0.51979	-0.56
Mof_O 	O 	0.8428	0.38627	0.83702	-0.455
Mof_O 	O 	0.85686	0.31049	0.84252	-0.504
Mof_O 	O 	0.92576	0.09142	0.74195	-0.288
Mof_O 	O 	0.77163	0.04909	0.72181	-0.44
Mof_O 	O 	0.79769	0.9841	0.69468	-0.507
Mof_O 	O 	0.96663	0.42723	0.91112	-0.29
Mof_O 	O 	0.08072	0.57775	0.89494	-0.294
Mof_O 	O 	0.89949	0.5835	0.03238	-0.274
Mof_O 	O 	0.75309	0.66183	0.16768	-0.525
Mof_O 	O 	0.75535	0.6773	0.09187	-0.448
Mof_O 	O 	0.13646	0.67737	0.74828	-0.52
Mof_O 	O 	0.20705	0.6774	0.75074	-0.489
Mof_O 	O 	0.19587	0.22359	0.45085	-0.398
Mof_O 	O 	0.74562	0.87167	0.44034	-0.462
Mof_O 	O 	0.76514	0.90806	0.48973	-0.459
Mof_O 	O 	0.76204	0.98161	0.29172	-0.284
Mof_O 	O 	0.58208	0.02316	0.23084	-0.291
Mof_O 	O 	0.51979	0.18942	0.19446	-0.56
Mof_O 	O 	0.83702	0.8428	0.38627	-0.455
Mof_O 	O 	0.84252	0.85686	0.31049	-0.504
Mof_O 	O 	0.74195	0.92576	0.09142	-0.288
Mof_O 	O 	0.72181	0.77163	0.04909	-0.44
Mof_O 	O 	0.69468	0.79769	0.9841	-0.507
Mof_O 	O 	0.91112	0.96663	0.42723	-0.29
Mof_O 	O 	0.89494	0.08072	0.57775	-0.294
Mof_O 	O 	0.03238	0.89949	0.5835	-0.274
Mof_O 	O 	0.16768	0.75309	0.66183	-0.525
Mof_O 	O 	0.09187	0.75535	0.6773	-0.448
Mof_O 	O 	0.74828	0.13646	0.67737	-0.52
Mof_O 	O 	0.75074	0.20705	0.6774	-0.489
Mof_O 	O 	0.45085	0.19587	0.22359	-0.398
Mof_O 	O 	0.44034	0.74562	0.87167	-0.463
Mof_O 	O 	0.48973	0.76514	0.90806	-0.459
Mof_O 	O 	0.29172	0.76204	0.98161	-0.284
Mof_O 	O 	0.23084	0.58208	0.02316	-0.291
Mof_O 	O 	0.19446	0.51979	0.18942	-0.56
Mof_O 	O 	0.38627	0.83702	0.8428	-0.455
Mof_O 	O 	0.31049	0.84252	0.85686	-0.503
Mof_O 	O 	0.09142	0.74195	0.92576	-0.288
Mof_O 	O 	0.04909	0.72181	0.77163	-0.44
Mof_O 	O 	0.9841	0.69468	0.79769	-0.507
Mof_O 	O 	0.42723	0.91112	0.96663	-0.29
Mof_O 	O 	0.57775	0.89494	0.08072	-0.294
Mof_O 	O 	0.5835	0.03238	0.89949	-0.274
Mof_O 	O 	0.66183	0.16768	0.75309	-0.525
Mof_O 	O 	0.6773	0.09187	0.75535	-0.448
Mof_O 	O 	0.67737	0.74828	0.13646	-0.52
Mof_O 	O 	0.6774	0.75074	0.20705	-0.489
Mof_O 	O 	0.22359	0.45085	0.19587	-0.398
Mof_O 	O 	0.05966	0.62833	0.75438	-0.462
Mof_O 	O 	0.01027	0.59194	0.73486	-0.458
Mof_O 	O 	0.20828	0.51839	0.73796	-0.284
Mof_O 	O 	0.26916	0.47684	0.91792	-0.291
Mof_O 	O 	0.30554	0.31058	0.98021	-0.56
Mof_O 	O 	0.11373	0.6572	0.66298	-0.455
Mof_O 	O 	0.18951	0.64314	0.65748	-0.504
Mof_O 	O 	0.40858	0.57424	0.75805	-0.289
Mof_O 	O 	0.45091	0.72837	0.77819	-0.44
Mof_O 	O 	0.5159	0.70231	0.80532	-0.506
Mof_O 	O 	0.07277	0.53337	0.58888	-0.29
Mof_O 	O 	0.92225	0.41928	0.60506	-0.294
Mof_O 	O 	0.9165	0.60051	0.46762	-0.274
Mof_O 	O 	0.83817	0.74691	0.33232	-0.525
Mof_O 	O 	0.8227	0.74465	0.40813	-0.448
Mof_O 	O 	0.82263	0.36354	0.75172	-0.52
Mof_O 	O 	0.8226	0.29295	0.74926	-0.489
Mof_O 	O 	0.27641	0.30413	0.04915	-0.398
Mof_O 	O 	0.62833	0.75438	0.05966	-0.462
Mof_O 	O 	0.59194	0.73486	0.01027	-0.458
Mof_O 	O 	0.51839	0.73796	0.20828	-0.284
Mof_O 	O 	0.47684	0.91792	0.26916	-0.291
Mof_O 	O 	0.31058	0.98021	0.30554	-0.56
Mof_O 	O 	0.6572	0.66298	0.11373	-0.455
Mof_O 	O 	0.64314	0.65748	0.18951	-0.504
Mof_O 	O 	0.57424	0.75805	0.40858	-0.289
Mof_O 	O 	0.72837	0.77819	0.45091	-0.44
Mof_O 	O 	0.70231	0.80532	0.5159	-0.506
Mof_O 	O 	0.53337	0.58888	0.07277	-0.29
Mof_O 	O 	0.41928	0.60506	0.92225	-0.294
Mof_O 	O 	0.60051	0.46762	0.9165	-0.274
Mof_O 	O 	0.74691	0.33232	0.83817	-0.525
Mof_O 	O 	0.74465	0.40813	0.8227	-0.448
Mof_O 	O 	0.36354	0.75172	0.82263	-0.52
Mof_O 	O 	0.29295	0.74926	0.8226	-0.489
Mof_O 	O 	0.30413	0.04915	0.27641	-0.398
Mof_O 	O 	0.75438	0.05966	0.62833	-0.462
Mof_O 	O 	0.73486	0.01027	0.59194	-0.458
Mof_O 	O 	0.73796	0.20828	0.51839	-0.284
Mof_O 	O 	0.91792	0.26916	0.47684	-0.291
Mof_O 	O 	0.98021	0.30554	0.31058	-0.56
Mof_O 	O 	0.66298	0.11373	0.6572	-0.455
Mof_O 	O 	0.65748	0.18951	0.64314	-0.504
Mof_O 	O 	0.75805	0.40858	0.57424	-0.289
Mof_O 	O 	0.77819	0.45091	0.72837	-0.44
Mof_O 	O 	0.80532	0.5159	0.70231	-0.506
Mof_O 	O 	0.58888	0.07277	0.53337	-0.29
Mof_O 	O 	0.60506	0.92225	0.41928	-0.294
Mof_O 	O 	0.46762	0.9165	0.60051	-0.274
Mof_O 	O 	0.33232	0.83817	0.74691	-0.525
Mof_O 	O 	0.40813	0.8227	0.74465	-0.448
Mof_O 	O 	0.75172	0.82263	0.36354	-0.52
Mof_O 	O 	0.74926	0.8226	0.29295	-0.489
Mof_O 	O 	0.04915	0.27641	0.30413	-0.398
Mof_O 	O 	0.12833	0.55966	0.25438	-0.462
Mof_O 	O 	0.09194	0.51027	0.23486	-0.459
Mof_O 	O 	0.01839	0.70828	0.23796	-0.284
Mof_O 	O 	0.97684	0.76916	0.41792	-0.291
Mof_O 	O 	0.81058	0.80554	0.48021	-0.56
Mof_O 	O 	0.1572	0.61373	0.16298	-0.455
Mof_O 	O 	0.14314	0.68951	0.15748	-0.504
Mof_O 	O 	0.07424	0.90858	0.25805	-0.288
Mof_O 	O 	0.22837	0.95091	0.27819	-0.44
Mof_O 	O 	0.20231	0.0159	0.30532	-0.507
Mof_O 	O 	0.03337	0.57277	0.08888	-0.29
Mof_O 	O 	0.91928	0.42225	0.10506	-0.294
Mof_O 	O 	0.10051	0.4165	0.96762	-0.274
Mof_O 	O 	0.24691	0.33817	0.83232	-0.525
Mof_O 	O 	0.24465	0.3227	0.90813	-0.448
Mof_O 	O 	0.86354	0.32263	0.25172	-0.52
Mof_O 	O 	0.79295	0.3226	0.24926	-0.489
Mof_O 	O 	0.80413	0.77641	0.54915	-0.398
Mof_O 	O 	0.25438	0.12833	0.55966	-0.462
Mof_O 	O 	0.23486	0.09194	0.51027	-0.459
Mof_O 	O 	0.23796	0.01839	0.70828	-0.284
Mof_O 	O 	0.41792	0.97684	0.76916	-0.291
Mof_O 	O 	0.48021	0.81058	0.80554	-0.56
Mof_O 	O 	0.16298	0.1572	0.61373	-0.455
Mof_O 	O 	0.15748	0.14314	0.68951	-0.504
Mof_O 	O 	0.25805	0.07424	0.90858	-0.288
Mof_O 	O 	0.27819	0.22837	0.95091	-0.44
Mof_O 	O 	0.30532	0.20231	0.0159	-0.507
Mof_O 	O 	0.08888	0.03337	0.57277	-0.29
Mof_O 	O 	0.10506	0.91928	0.42225	-0.294
Mof_O 	O 	0.96762	0.10051	0.4165	-0.274
Mof_O 	O 	0.83232	0.24691	0.33817	-0.525
Mof_O 	O 	0.90813	0.24465	0.3227	-0.448
Mof_O 	O 	0.25172	0.86354	0.32263	-0.52
Mof_O 	O 	0.24926	0.79295	0.3226	-0.489
Mof_O 	O 	0.54915	0.80413	0.77641	-0.398
Mof_O 	O 	0.55966	0.25438	0.12833	-0.462
Mof_O 	O 	0.51027	0.23486	0.09194	-0.459
Mof_O 	O 	0.70828	0.23796	0.01839	-0.284
Mof_O 	O 	0.76916	0.41792	0.97684	-0.291
Mof_O 	O 	0.80554	0.48021	0.81058	-0.56
Mof_O 	O 	0.61373	0.16298	0.1572	-0.455
Mof_O 	O 	0.68951	0.15748	0.14314	-0.504
Mof_O 	O 	0.90858	0.25805	0.07424	-0.288
Mof_O 	O 	0.95091	0.27819	0.22837	-0.44
Mof_O 	O 	0.0159	0.30532	0.20231	-0.507
Mof_O 	O 	0.57277	0.08888	0.03337	-0.29
Mof_O 	O 	0.42225	0.10506	0.91928	-0.294
Mof_O 	O 	0.4165	0.96762	0.10051	-0.274
Mof_O 	O 	0.33817	0.83232	0.24691	-0.525
Mof_O 	O 	0.3227	0.90813	0.24465	-0.448
Mof_O 	O 	0.32263	0.25172	0.86354	-0.52
Mof_O 	O 	0.3226	0.24926	0.79295	-0.489
Mof_O 	O 	0.77641	0.54915	0.80413	-0.398
Mof_O 	O 	0.94034	0.37167	0.24562	-0.462
Mof_O 	O 	0.98973	0.40806	0.26514	-0.458
Mof_O 	O 	0.79172	0.48161	0.26204	-0.284
Mof_O 	O 	0.73084	0.52316	0.08208	-0.291
Mof_O 	O 	0.69446	0.68942	0.01979	-0.56
Mof_O 	O 	0.88627	0.3428	0.33702	-0.455
Mof_O 	O 	0.81049	0.35686	0.34252	-0.504
Mof_O 	O 	0.59142	0.42576	0.24195	-0.289
Mof_O 	O 	0.54909	0.27163	0.22181	-0.44
Mof_O 	O 	0.4841	0.29769	0.19468	-0.506
Mof_O 	O 	0.92723	0.46663	0.41112	-0.29
Mof_O 	O 	0.07775	0.58072	0.39494	-0.294
Mof_O 	O 	0.0835	0.39949	0.53238	-0.274
Mof_O 	O 	0.16183	0.25309	0.66768	-0.525
Mof_O 	O 	0.1773	0.25535	0.59187	-0.448
Mof_O 	O 	0.17737	0.63646	0.24828	-0.52
Mof_O 	O 	0.1774	0.70705	0.25074	-0.489
Mof_O 	O 	0.72359	0.69587	0.95085	-0.398
Mof_O 	O 	0.37167	0.24562	0.94034	-0.462
Mof_O 	O 	0.40806	0.26514	0.98973	-0.458
Mof_O 	O 	0.48161	0.26204	0.79172	-0.284
Mof_O 	O 	0.52316	0.08208	0.73084	-0.291
Mof_O 	O 	0.68942	0.01979	0.69446	-0.56
Mof_O 	O 	0.3428	0.33702	0.88627	-0.455
Mof_O 	O 	0.35686	0.34252	0.81049	-0.504
Mof_O 	O 	0.42576	0.24195	0.59142	-0.289
Mof_O 	O 	0.27163	0.22181	0.54909	-0.44
Mof_O 	O 	0.29769	0.19468	0.4841	-0.506
Mof_O 	O 	0.46663	0.41112	0.92723	-0.29
Mof_O 	O 	0.58072	0.39494	0.07775	-0.294
Mof_O 	O 	0.39949	0.53238	0.0835	-0.274
Mof_O 	O 	0.25309	0.66768	0.16183	-0.525
Mof_O 	O 	0.25535	0.59187	0.1773	-0.448
Mof_O 	O 	0.63646	0.24828	0.17737	-0.52
Mof_O 	O 	0.70705	0.25074	0.1774	-0.489
Mof_O 	O 	0.69587	0.95085	0.72359	-0.398
Mof_O 	O 	0.24562	0.94034	0.37167	-0.462
Mof_O 	O 	0.26514	0.98973	0.40806	-0.458
Mof_O 	O 	0.26204	0.79172	0.48161	-0.284
Mof_O 	O 	0.08208	0.73084	0.52316	-0.291
Mof_O 	O 	0.01979	0.69446	0.68942	-0.56
Mof_O 	O 	0.33702	0.88627	0.3428	-0.455
Mof_O 	O 	0.34252	0.81049	0.35686	-0.504
Mof_O 	O 	0.24195	0.59142	0.42576	-0.289
Mof_O 	O 	0.22181	0.54909	0.27163	-0.44
Mof_O 	O 	0.19468	0.4841	0.29769	-0.506
Mof_O 	O 	0.41112	0.92723	0.46663	-0.29
Mof_O 	O 	0.39494	0.07775	0.58072	-0.294
Mof_O 	O 	0.53238	0.0835	0.39949	-0.274
Mof_O 	O 	0.66768	0.16183	0.25309	-0.525
Mof_O 	O 	0.59187	0.1773	0.25535	-0.448
Mof_O 	O 	0.24828	0.17737	0.63646	-0.52
Mof_O 	O 	0.25074	0.1774	0.70705	-0.489
Mof_O 	O 	0.95085	0.72359	0.69587	-0.398
_end
