data_functionalizedCrystal
_audit_creation_method	'EQeq! by Chris Wilmer'
_symmetry_space_group_name_H-M	'P1'
_symmetry_Int_Tables_number	1
_symmetry_cell_setting	triclinic
loop_
_symmetry_equiv_pos_as_xyz
  x,y,z
_cell_length_a	23.567
_cell_length_b	23.567
_cell_length_c	46.997
_cell_angle_alpha	90
_cell_angle_beta	90
_cell_angle_gamma	90
loop_
_atom_site_label
_atom_site_type_symbol
_atom_site_fract_x
_atom_site_fract_y
_atom_site_fract_z
_atom_site_charge
Mof_Cu	Cu	0.68459	0.96064	0.15905	0.908
Mof_Cu	Cu	0.76273	0.96961	0.11889	0.907
Mof_Cu	Cu	0.31541	0.03936	0.15905	0.908
Mof_Cu	Cu	0.23727	0.03039	0.11889	0.907
Mof_Cu	Cu	0.03936	0.68459	0.15905	0.908
Mof_Cu	Cu	0.03039	0.76273	0.11889	0.907
Mof_Cu	Cu	0.96064	0.31541	0.15905	0.908
Mof_Cu	Cu	0.96961	0.23727	0.11889	0.907
Mof_Cu	Cu	0.31541	0.96064	0.34095	0.908
Mof_Cu	Cu	0.23727	0.96961	0.38111	0.907
Mof_Cu	Cu	0.68459	0.03936	0.34095	0.908
Mof_Cu	Cu	0.76273	0.03039	0.38111	0.907
Mof_Cu	Cu	0.96064	0.68459	0.34095	0.908
Mof_Cu	Cu	0.96961	0.76273	0.38111	0.907
Mof_Cu	Cu	0.03936	0.31541	0.34095	0.908
Mof_Cu	Cu	0.03039	0.23727	0.38111	0.907
Mof_Cu	Cu	0.31541	0.03936	0.84095	0.908
Mof_Cu	Cu	0.23727	0.03039	0.88111	0.907
Mof_Cu	Cu	0.68459	0.96064	0.84095	0.908
Mof_Cu	Cu	0.76273	0.96961	0.88111	0.907
Mof_Cu	Cu	0.96064	0.31541	0.84095	0.908
Mof_Cu	Cu	0.96961	0.23727	0.88111	0.907
Mof_Cu	Cu	0.03936	0.68459	0.84095	0.908
Mof_Cu	Cu	0.03039	0.76273	0.88111	0.907
Mof_Cu	Cu	0.68459	0.03936	0.65905	0.908
Mof_Cu	Cu	0.76273	0.03039	0.61889	0.907
Mof_Cu	Cu	0.31541	0.96064	0.65905	0.908
Mof_Cu	Cu	0.23727	0.96961	0.61889	0.907
Mof_Cu	Cu	0.03936	0.31541	0.65905	0.908
Mof_Cu	Cu	0.03039	0.23727	0.61889	0.907
Mof_Cu	Cu	0.96064	0.68459	0.65905	0.908
Mof_Cu	Cu	0.96961	0.76273	0.61889	0.907
Mof_Cu	Cu	0.78673	0.73627	-0	0.905
Mof_Cu	Cu	0.71693	0.64881	-0	0.905
Mof_Cu	Cu	0.21327	0.26373	-0	0.905
Mof_Cu	Cu	0.28307	0.35119	-0	0.905
Mof_Cu	Cu	0.26373	0.78673	-0	0.905
Mof_Cu	Cu	0.35119	0.71693	-0	0.905
Mof_Cu	Cu	0.73627	0.21327	-0	0.905
Mof_Cu	Cu	0.64881	0.28307	-0	0.905
Mof_Cu	Cu	0.21327	0.73627	0.5	0.907
Mof_Cu	Cu	0.28307	0.64881	0.5	0.907
Mof_Cu	Cu	0.78673	0.26373	0.5	0.907
Mof_Cu	Cu	0.71693	0.35119	0.5	0.907
Mof_Cu	Cu	0.73627	0.78673	0.5	0.906
Mof_Cu	Cu	0.64881	0.71693	0.5	0.906
Mof_Cu	Cu	0.26373	0.21327	0.5	0.906
Mof_Cu	Cu	0.35119	0.28307	0.5	0.906
Mof_H 	H 	0.7143	0.8287	0.0684	0.078
Mof_H 	H 	0.5898	0.7149	0.0582	0.114
Mof_H 	H 	0.5789	0.8317	0.1203	0.125
Mof_H 	H 	0.5197	0.755	0.1364	-0.015
Mof_H 	H 	0.461	0.7403	0.1227	-0.014
Mof_H 	H 	0.4212	0.9044	0.1325	0.122
Mof_H 	H 	0.4355	0.7815	0.074	0.128
Mof_H 	H 	0.3142	0.9008	0.0666	0.081
Mof_H 	H 	0.9015	0.7338	0.2121	0.118
Mof_H 	H 	0.7627	0.8315	0.2102	0.125
Mof_H 	H 	0.8822	0.8489	0.1502	0.079
Mof_H 	H 	0.7514	0.731	0.265	-0.008
Mof_H 	H 	0.2857	0.1713	0.0684	0.078
Mof_H 	H 	0.4102	0.2851	0.0582	0.114
Mof_H 	H 	0.4211	0.1683	0.1203	0.125
Mof_H 	H 	0.4803	0.245	0.1364	-0.015
Mof_H 	H 	0.539	0.2597	0.1227	-0.014
Mof_H 	H 	0.5788	0.0956	0.1325	0.122
Mof_H 	H 	0.5645	0.2185	0.074	0.128
Mof_H 	H 	0.6858	0.0992	0.0666	0.081
Mof_H 	H 	0.0985	0.2662	0.2121	0.118
Mof_H 	H 	0.2373	0.1685	0.2102	0.125
Mof_H 	H 	0.1178	0.1511	0.1502	0.079
Mof_H 	H 	0.2486	0.269	0.265	-0.008
Mof_H 	H 	0.1713	0.7143	0.0684	0.078
Mof_H 	H 	0.2851	0.5898	0.0582	0.114
Mof_H 	H 	0.1683	0.5789	0.1203	0.125
Mof_H 	H 	0.245	0.5197	0.1364	-0.015
Mof_H 	H 	0.2597	0.461	0.1227	-0.014
Mof_H 	H 	0.0956	0.4212	0.1325	0.122
Mof_H 	H 	0.2185	0.4355	0.074	0.128
Mof_H 	H 	0.0992	0.3142	0.0666	0.081
Mof_H 	H 	0.2662	0.9015	0.2121	0.118
Mof_H 	H 	0.1685	0.7627	0.2102	0.125
Mof_H 	H 	0.1511	0.8822	0.1502	0.079
Mof_H 	H 	0.269	0.7514	0.265	-0.008
Mof_H 	H 	0.8287	0.2857	0.0684	0.078
Mof_H 	H 	0.7149	0.4102	0.0582	0.114
Mof_H 	H 	0.8317	0.4211	0.1203	0.125
Mof_H 	H 	0.755	0.4803	0.1364	-0.015
Mof_H 	H 	0.7403	0.539	0.1227	-0.014
Mof_H 	H 	0.9044	0.5788	0.1325	0.122
Mof_H 	H 	0.7815	0.5645	0.074	0.128
Mof_H 	H 	0.9008	0.6858	0.0666	0.081
Mof_H 	H 	0.7338	0.0985	0.2121	0.118
Mof_H 	H 	0.8315	0.2373	0.2102	0.125
Mof_H 	H 	0.8489	0.1178	0.1502	0.079
Mof_H 	H 	0.731	0.2486	0.265	-0.008
Mof_H 	H 	0.2857	0.8287	0.4316	0.079
Mof_H 	H 	0.4102	0.7149	0.4418	0.115
Mof_H 	H 	0.4211	0.8317	0.3797	0.125
Mof_H 	H 	0.4803	0.755	0.3636	-0.015
Mof_H 	H 	0.539	0.7403	0.3773	-0.014
Mof_H 	H 	0.5788	0.9044	0.3675	0.122
Mof_H 	H 	0.5645	0.7815	0.426	0.128
Mof_H 	H 	0.6858	0.9008	0.4334	0.082
Mof_H 	H 	0.0985	0.7338	0.2879	0.118
Mof_H 	H 	0.2373	0.8315	0.2898	0.125
Mof_H 	H 	0.1178	0.8489	0.3498	0.079
Mof_H 	H 	0.2486	0.731	0.235	-0.008
Mof_H 	H 	0.7143	0.1713	0.4316	0.079
Mof_H 	H 	0.5898	0.2851	0.4418	0.115
Mof_H 	H 	0.5789	0.1683	0.3797	0.125
Mof_H 	H 	0.5197	0.245	0.3636	-0.015
Mof_H 	H 	0.461	0.2597	0.3773	-0.014
Mof_H 	H 	0.4212	0.0956	0.3675	0.122
Mof_H 	H 	0.4355	0.2185	0.426	0.128
Mof_H 	H 	0.3142	0.0992	0.4334	0.082
Mof_H 	H 	0.9015	0.2662	0.2879	0.118
Mof_H 	H 	0.7627	0.1685	0.2898	0.125
Mof_H 	H 	0.8822	0.1511	0.3498	0.079
Mof_H 	H 	0.7514	0.269	0.235	-0.008
Mof_H 	H 	0.8287	0.7143	0.4316	0.079
Mof_H 	H 	0.7149	0.5898	0.4418	0.115
Mof_H 	H 	0.8317	0.5789	0.3797	0.125
Mof_H 	H 	0.755	0.5197	0.3636	-0.015
Mof_H 	H 	0.7403	0.461	0.3773	-0.014
Mof_H 	H 	0.9044	0.4212	0.3675	0.122
Mof_H 	H 	0.7815	0.4355	0.426	0.128
Mof_H 	H 	0.9008	0.3142	0.4334	0.082
Mof_H 	H 	0.7338	0.9015	0.2879	0.118
Mof_H 	H 	0.8315	0.7627	0.2898	0.125
Mof_H 	H 	0.8489	0.8822	0.3498	0.079
Mof_H 	H 	0.731	0.7514	0.235	-0.008
Mof_H 	H 	0.1713	0.2857	0.4316	0.079
Mof_H 	H 	0.2851	0.4102	0.4418	0.115
Mof_H 	H 	0.1683	0.4211	0.3797	0.125
Mof_H 	H 	0.245	0.4803	0.3636	-0.015
Mof_H 	H 	0.2597	0.539	0.3773	-0.014
Mof_H 	H 	0.0956	0.5788	0.3675	0.122
Mof_H 	H 	0.2185	0.5645	0.426	0.128
Mof_H 	H 	0.0992	0.6858	0.4334	0.082
Mof_H 	H 	0.2662	0.0985	0.2879	0.118
Mof_H 	H 	0.1685	0.2373	0.2898	0.125
Mof_H 	H 	0.1511	0.1178	0.3498	0.079
Mof_H 	H 	0.269	0.2486	0.235	-0.008
Mof_H 	H 	0.2857	0.1713	0.9316	0.079
Mof_H 	H 	0.4102	0.2851	0.9418	0.115
Mof_H 	H 	0.4211	0.1683	0.8797	0.125
Mof_H 	H 	0.4803	0.245	0.8636	-0.015
Mof_H 	H 	0.539	0.2597	0.8773	-0.014
Mof_H 	H 	0.5788	0.0956	0.8675	0.122
Mof_H 	H 	0.5645	0.2185	0.926	0.128
Mof_H 	H 	0.6858	0.0992	0.9334	0.082
Mof_H 	H 	0.0985	0.2662	0.7879	0.118
Mof_H 	H 	0.2373	0.1685	0.7898	0.125
Mof_H 	H 	0.1178	0.1511	0.8498	0.079
Mof_H 	H 	0.2486	0.269	0.735	-0.008
Mof_H 	H 	0.7143	0.8287	0.9316	0.079
Mof_H 	H 	0.5898	0.7149	0.9418	0.115
Mof_H 	H 	0.5789	0.8317	0.8797	0.125
Mof_H 	H 	0.5197	0.755	0.8636	-0.015
Mof_H 	H 	0.461	0.7403	0.8773	-0.014
Mof_H 	H 	0.4212	0.9044	0.8675	0.122
Mof_H 	H 	0.4355	0.7815	0.926	0.128
Mof_H 	H 	0.3142	0.9008	0.9334	0.082
Mof_H 	H 	0.9015	0.7338	0.7879	0.118
Mof_H 	H 	0.7627	0.8315	0.7898	0.125
Mof_H 	H 	0.8822	0.8489	0.8498	0.079
Mof_H 	H 	0.7514	0.731	0.735	-0.008
Mof_H 	H 	0.8287	0.2857	0.9316	0.079
Mof_H 	H 	0.7149	0.4102	0.9418	0.115
Mof_H 	H 	0.8317	0.4211	0.8797	0.125
Mof_H 	H 	0.755	0.4803	0.8636	-0.015
Mof_H 	H 	0.7403	0.539	0.8773	-0.014
Mof_H 	H 	0.9044	0.5788	0.8675	0.122
Mof_H 	H 	0.7815	0.5645	0.926	0.128
Mof_H 	H 	0.9008	0.6858	0.9334	0.082
Mof_H 	H 	0.7338	0.0985	0.7879	0.118
Mof_H 	H 	0.8315	0.2373	0.7898	0.125
Mof_H 	H 	0.8489	0.1178	0.8498	0.079
Mof_H 	H 	0.731	0.2486	0.735	-0.008
Mof_H 	H 	0.1713	0.7143	0.9316	0.079
Mof_H 	H 	0.2851	0.5898	0.9418	0.115
Mof_H 	H 	0.1683	0.5789	0.8797	0.125
Mof_H 	H 	0.245	0.5197	0.8636	-0.015
Mof_H 	H 	0.2597	0.461	0.8773	-0.014
Mof_H 	H 	0.0956	0.4212	0.8675	0.122
Mof_H 	H 	0.2185	0.4355	0.926	0.128
Mof_H 	H 	0.0992	0.3142	0.9334	0.082
Mof_H 	H 	0.2662	0.9015	0.7879	0.118
Mof_H 	H 	0.1685	0.7627	0.7898	0.125
Mof_H 	H 	0.1511	0.8822	0.8498	0.079
Mof_H 	H 	0.269	0.7514	0.735	-0.008
Mof_H 	H 	0.7143	0.1713	0.5684	0.078
Mof_H 	H 	0.5898	0.2851	0.5582	0.115
Mof_H 	H 	0.5789	0.1683	0.6203	0.125
Mof_H 	H 	0.5197	0.245	0.6364	-0.015
Mof_H 	H 	0.461	0.2597	0.6227	-0.014
Mof_H 	H 	0.4212	0.0956	0.6325	0.122
Mof_H 	H 	0.4355	0.2185	0.574	0.128
Mof_H 	H 	0.3142	0.0992	0.5666	0.082
Mof_H 	H 	0.9015	0.2662	0.7121	0.118
Mof_H 	H 	0.7627	0.1685	0.7102	0.125
Mof_H 	H 	0.8822	0.1511	0.6502	0.079
Mof_H 	H 	0.7514	0.269	0.765	-0.008
Mof_H 	H 	0.2857	0.8287	0.5684	0.078
Mof_H 	H 	0.4102	0.7149	0.5582	0.115
Mof_H 	H 	0.4211	0.8317	0.6203	0.125
Mof_H 	H 	0.4803	0.755	0.6364	-0.015
Mof_H 	H 	0.539	0.7403	0.6227	-0.014
Mof_H 	H 	0.5788	0.9044	0.6325	0.122
Mof_H 	H 	0.5645	0.7815	0.574	0.128
Mof_H 	H 	0.6858	0.9008	0.5666	0.082
Mof_H 	H 	0.0985	0.7338	0.7121	0.118
Mof_H 	H 	0.2373	0.8315	0.7102	0.125
Mof_H 	H 	0.1178	0.8489	0.6502	0.079
Mof_H 	H 	0.2486	0.731	0.765	-0.008
Mof_H 	H 	0.1713	0.2857	0.5684	0.078
Mof_H 	H 	0.2851	0.4102	0.5582	0.115
Mof_H 	H 	0.1683	0.4211	0.6203	0.125
Mof_H 	H 	0.245	0.4803	0.6364	-0.015
Mof_H 	H 	0.2597	0.539	0.6227	-0.014
Mof_H 	H 	0.0956	0.5788	0.6325	0.122
Mof_H 	H 	0.2185	0.5645	0.574	0.128
Mof_H 	H 	0.0992	0.6858	0.5666	0.082
Mof_H 	H 	0.2662	0.0985	0.7121	0.118
Mof_H 	H 	0.1685	0.2373	0.7102	0.125
Mof_H 	H 	0.1511	0.1178	0.6502	0.079
Mof_H 	H 	0.269	0.2486	0.765	-0.008
Mof_H 	H 	0.8287	0.7143	0.5684	0.078
Mof_H 	H 	0.7149	0.5898	0.5582	0.115
Mof_H 	H 	0.8317	0.5789	0.6203	0.125
Mof_H 	H 	0.755	0.5197	0.6364	-0.015
Mof_H 	H 	0.7403	0.461	0.6227	-0.014
Mof_H 	H 	0.9044	0.4212	0.6325	0.122
Mof_H 	H 	0.7815	0.4355	0.574	0.128
Mof_H 	H 	0.9008	0.3142	0.5666	0.082
Mof_H 	H 	0.7338	0.9015	0.7121	0.118
Mof_H 	H 	0.8315	0.7627	0.7102	0.125
Mof_H 	H 	0.8489	0.8822	0.6502	0.079
Mof_H 	H 	0.731	0.7514	0.765	-0.008
Mof_C 	C 	0.67628	0.88577	0.11264	0.339
Mof_C 	C 	0.65134	0.837	0.09673	-0.004
Mof_C 	C 	0.67989	0.81328	0.0743	-0.046
Mof_C 	C 	0.65768	0.76641	0.06032	-0.005
Mof_C 	C 	0.69176	0.73762	0.0376	0.335
Mof_C 	C 	0.60517	0.74581	0.06787	-0.148
Mof_C 	C 	0.57488	0.7713	0.09001	0.229
Mof_C 	C 	0.59816	0.81582	0.10495	-0.16
Mof_C 	C 	0.4946	0.7636	0.12064	0.234
Mof_C 	C 	0.33227	0.95982	0.11393	0.33
Mof_C 	C 	0.36301	0.90983	0.10122	0.007
Mof_C 	C 	0.40851	0.88704	0.1159	-0.168
Mof_C 	C 	0.43482	0.83914	0.10617	0.243
Mof_C 	C 	0.41713	0.81352	0.08093	-0.168
Mof_C 	C 	0.37127	0.83713	0.06639	0.004
Mof_C 	C 	0.34967	0.80815	0.03979	0.347
Mof_C 	C 	0.34454	0.88518	0.07649	-0.055
Mof_C 	C 	0.95335	0.7674	0.16502	0.338
Mof_C 	C 	0.89994	0.78796	0.17894	-0.002
Mof_C 	C 	0.8802	0.76227	0.20346	-0.157
Mof_C 	C 	0.82938	0.77861	0.21506	0.235
Mof_C 	C 	0.79732	0.82076	0.20242	-0.165
Mof_C 	C 	0.8686	0.83084	0.16646	-0.05
Mof_C 	C 	0.81744	0.84684	0.17793	0.002
Mof_C 	C 	0.78286	0.8923	0.16403	0.334
Mof_C 	C 	0.32372	0.11423	0.11264	0.339
Mof_C 	C 	0.34866	0.163	0.09673	-0.004
Mof_C 	C 	0.32011	0.18672	0.0743	-0.046
Mof_C 	C 	0.34232	0.23359	0.06032	-0.005
Mof_C 	C 	0.30824	0.26238	0.0376	0.335
Mof_C 	C 	0.39483	0.25419	0.06787	-0.148
Mof_C 	C 	0.42512	0.2287	0.09001	0.229
Mof_C 	C 	0.40184	0.18418	0.10495	-0.16
Mof_C 	C 	0.5054	0.2364	0.12064	0.234
Mof_C 	C 	0.66773	0.04018	0.11393	0.33
Mof_C 	C 	0.63699	0.09017	0.10122	0.007
Mof_C 	C 	0.59149	0.11296	0.1159	-0.168
Mof_C 	C 	0.56518	0.16086	0.10617	0.243
Mof_C 	C 	0.58287	0.18648	0.08093	-0.168
Mof_C 	C 	0.62873	0.16287	0.06639	0.004
Mof_C 	C 	0.65033	0.19185	0.03979	0.347
Mof_C 	C 	0.65546	0.11482	0.07649	-0.055
Mof_C 	C 	0.04665	0.2326	0.16502	0.338
Mof_C 	C 	0.10006	0.21204	0.17894	-0.002
Mof_C 	C 	0.1198	0.23773	0.20346	-0.157
Mof_C 	C 	0.17062	0.22139	0.21506	0.235
Mof_C 	C 	0.20268	0.17924	0.20242	-0.165
Mof_C 	C 	0.1314	0.16916	0.16646	-0.05
Mof_C 	C 	0.18256	0.15316	0.17793	0.002
Mof_C 	C 	0.21714	0.1077	0.16403	0.334
Mof_C 	C 	0.11423	0.67628	0.11264	0.339
Mof_C 	C 	0.163	0.65134	0.09673	-0.004
Mof_C 	C 	0.18672	0.67989	0.0743	-0.046
Mof_C 	C 	0.23359	0.65768	0.06032	-0.005
Mof_C 	C 	0.26238	0.69176	0.0376	0.335
Mof_C 	C 	0.25419	0.60517	0.06787	-0.148
Mof_C 	C 	0.2287	0.57488	0.09001	0.229
Mof_C 	C 	0.18418	0.59816	0.10495	-0.16
Mof_C 	C 	0.2364	0.4946	0.12064	0.234
Mof_C 	C 	0.04018	0.33227	0.11393	0.33
Mof_C 	C 	0.09017	0.36301	0.10122	0.007
Mof_C 	C 	0.11296	0.40851	0.1159	-0.168
Mof_C 	C 	0.16086	0.43482	0.10617	0.243
Mof_C 	C 	0.18648	0.41713	0.08093	-0.168
Mof_C 	C 	0.16287	0.37127	0.06639	0.004
Mof_C 	C 	0.19185	0.34967	0.03979	0.347
Mof_C 	C 	0.11482	0.34454	0.07649	-0.055
Mof_C 	C 	0.2326	0.95335	0.16502	0.338
Mof_C 	C 	0.21204	0.89994	0.17894	-0.002
Mof_C 	C 	0.23773	0.8802	0.20346	-0.157
Mof_C 	C 	0.22139	0.82938	0.21506	0.235
Mof_C 	C 	0.17924	0.79732	0.20242	-0.165
Mof_C 	C 	0.16916	0.8686	0.16646	-0.05
Mof_C 	C 	0.15316	0.81744	0.17793	0.002
Mof_C 	C 	0.1077	0.78286	0.16403	0.334
Mof_C 	C 	0.88577	0.32372	0.11264	0.339
Mof_C 	C 	0.837	0.34866	0.09673	-0.004
Mof_C 	C 	0.81328	0.32011	0.0743	-0.046
Mof_C 	C 	0.76641	0.34232	0.06032	-0.005
Mof_C 	C 	0.73762	0.30824	0.0376	0.335
Mof_C 	C 	0.74581	0.39483	0.06787	-0.148
Mof_C 	C 	0.7713	0.42512	0.09001	0.229
Mof_C 	C 	0.81582	0.40184	0.10495	-0.16
Mof_C 	C 	0.7636	0.5054	0.12064	0.234
Mof_C 	C 	0.95982	0.66773	0.11393	0.33
Mof_C 	C 	0.90983	0.63699	0.10122	0.007
Mof_C 	C 	0.88704	0.59149	0.1159	-0.168
Mof_C 	C 	0.83914	0.56518	0.10617	0.243
Mof_C 	C 	0.81352	0.58287	0.08093	-0.168
Mof_C 	C 	0.83713	0.62873	0.06639	0.004
Mof_C 	C 	0.80815	0.65033	0.03979	0.347
Mof_C 	C 	0.88518	0.65546	0.07649	-0.055
Mof_C 	C 	0.7674	0.04665	0.16502	0.338
Mof_C 	C 	0.78796	0.10006	0.17894	-0.002
Mof_C 	C 	0.76227	0.1198	0.20346	-0.157
Mof_C 	C 	0.77861	0.17062	0.21506	0.235
Mof_C 	C 	0.82076	0.20268	0.20242	-0.165
Mof_C 	C 	0.83084	0.1314	0.16646	-0.05
Mof_C 	C 	0.84684	0.18256	0.17793	0.002
Mof_C 	C 	0.8923	0.21714	0.16403	0.334
Mof_C 	C 	0.32372	0.88577	0.38736	0.339
Mof_C 	C 	0.34866	0.837	0.40327	-0.003
Mof_C 	C 	0.32011	0.81328	0.4257	-0.046
Mof_C 	C 	0.34232	0.76641	0.43968	-0.005
Mof_C 	C 	0.30824	0.73762	0.4624	0.335
Mof_C 	C 	0.39483	0.74581	0.43213	-0.148
Mof_C 	C 	0.42512	0.7713	0.40999	0.229
Mof_C 	C 	0.40184	0.81582	0.39505	-0.161
Mof_C 	C 	0.5054	0.7636	0.37936	0.234
Mof_C 	C 	0.66773	0.95982	0.38607	0.33
Mof_C 	C 	0.63699	0.90983	0.39878	0.007
Mof_C 	C 	0.59149	0.88704	0.3841	-0.168
Mof_C 	C 	0.56518	0.83914	0.39383	0.243
Mof_C 	C 	0.58287	0.81352	0.41907	-0.168
Mof_C 	C 	0.62873	0.83713	0.43361	0.004
Mof_C 	C 	0.65033	0.80815	0.46021	0.347
Mof_C 	C 	0.65546	0.88518	0.42351	-0.056
Mof_C 	C 	0.04665	0.7674	0.33498	0.338
Mof_C 	C 	0.10006	0.78796	0.32106	-0.002
Mof_C 	C 	0.1198	0.76227	0.29654	-0.158
Mof_C 	C 	0.17062	0.77861	0.28494	0.235
Mof_C 	C 	0.20268	0.82076	0.29758	-0.165
Mof_C 	C 	0.1314	0.83084	0.33354	-0.05
Mof_C 	C 	0.18256	0.84684	0.32207	0.002
Mof_C 	C 	0.21714	0.8923	0.33597	0.334
Mof_C 	C 	0.67628	0.11423	0.38736	0.339
Mof_C 	C 	0.65134	0.163	0.40327	-0.003
Mof_C 	C 	0.67989	0.18672	0.4257	-0.046
Mof_C 	C 	0.65768	0.23359	0.43968	-0.005
Mof_C 	C 	0.69176	0.26238	0.4624	0.335
Mof_C 	C 	0.60517	0.25419	0.43213	-0.148
Mof_C 	C 	0.57488	0.2287	0.40999	0.229
Mof_C 	C 	0.59816	0.18418	0.39505	-0.161
Mof_C 	C 	0.4946	0.2364	0.37936	0.234
Mof_C 	C 	0.33227	0.04018	0.38607	0.33
Mof_C 	C 	0.36301	0.09017	0.39878	0.007
Mof_C 	C 	0.40851	0.11296	0.3841	-0.168
Mof_C 	C 	0.43482	0.16086	0.39383	0.243
Mof_C 	C 	0.41713	0.18648	0.41907	-0.168
Mof_C 	C 	0.37127	0.16287	0.43361	0.004
Mof_C 	C 	0.34967	0.19185	0.46021	0.347
Mof_C 	C 	0.34454	0.11482	0.42351	-0.056
Mof_C 	C 	0.95335	0.2326	0.33498	0.338
Mof_C 	C 	0.89994	0.21204	0.32106	-0.002
Mof_C 	C 	0.8802	0.23773	0.29654	-0.158
Mof_C 	C 	0.82938	0.22139	0.28494	0.235
Mof_C 	C 	0.79732	0.17924	0.29758	-0.165
Mof_C 	C 	0.8686	0.16916	0.33354	-0.05
Mof_C 	C 	0.81744	0.15316	0.32207	0.002
Mof_C 	C 	0.78286	0.1077	0.33597	0.334
Mof_C 	C 	0.88577	0.67628	0.38736	0.339
Mof_C 	C 	0.837	0.65134	0.40327	-0.003
Mof_C 	C 	0.81328	0.67989	0.4257	-0.046
Mof_C 	C 	0.76641	0.65768	0.43968	-0.005
Mof_C 	C 	0.73762	0.69176	0.4624	0.335
Mof_C 	C 	0.74581	0.60517	0.43213	-0.148
Mof_C 	C 	0.7713	0.57488	0.40999	0.229
Mof_C 	C 	0.81582	0.59816	0.39505	-0.161
Mof_C 	C 	0.7636	0.4946	0.37936	0.234
Mof_C 	C 	0.95982	0.33227	0.38607	0.33
Mof_C 	C 	0.90983	0.36301	0.39878	0.007
Mof_C 	C 	0.88704	0.40851	0.3841	-0.168
Mof_C 	C 	0.83914	0.43482	0.39383	0.243
Mof_C 	C 	0.81352	0.41713	0.41907	-0.168
Mof_C 	C 	0.83713	0.37127	0.43361	0.004
Mof_C 	C 	0.80815	0.34967	0.46021	0.347
Mof_C 	C 	0.88518	0.34454	0.42351	-0.056
Mof_C 	C 	0.7674	0.95335	0.33498	0.338
Mof_C 	C 	0.78796	0.89994	0.32106	-0.002
Mof_C 	C 	0.76227	0.8802	0.29654	-0.158
Mof_C 	C 	0.77861	0.82938	0.28494	0.235
Mof_C 	C 	0.82076	0.79732	0.29758	-0.165
Mof_C 	C 	0.83084	0.8686	0.33354	-0.05
Mof_C 	C 	0.84684	0.81744	0.32207	0.002
Mof_C 	C 	0.8923	0.78286	0.33597	0.334
Mof_C 	C 	0.11423	0.32372	0.38736	0.339
Mof_C 	C 	0.163	0.34866	0.40327	-0.003
Mof_C 	C 	0.18672	0.32011	0.4257	-0.046
Mof_C 	C 	0.23359	0.34232	0.43968	-0.005
Mof_C 	C 	0.26238	0.30824	0.4624	0.335
Mof_C 	C 	0.25419	0.39483	0.43213	-0.148
Mof_C 	C 	0.2287	0.42512	0.40999	0.229
Mof_C 	C 	0.18418	0.40184	0.39505	-0.161
Mof_C 	C 	0.2364	0.5054	0.37936	0.234
Mof_C 	C 	0.04018	0.66773	0.38607	0.33
Mof_C 	C 	0.09017	0.63699	0.39878	0.007
Mof_C 	C 	0.11296	0.59149	0.3841	-0.168
Mof_C 	C 	0.16086	0.56518	0.39383	0.243
Mof_C 	C 	0.18648	0.58287	0.41907	-0.168
Mof_C 	C 	0.16287	0.62873	0.43361	0.004
Mof_C 	C 	0.19185	0.65033	0.46021	0.347
Mof_C 	C 	0.11482	0.65546	0.42351	-0.056
Mof_C 	C 	0.2326	0.04665	0.33498	0.338
Mof_C 	C 	0.21204	0.10006	0.32106	-0.002
Mof_C 	C 	0.23773	0.1198	0.29654	-0.158
Mof_C 	C 	0.22139	0.17062	0.28494	0.235
Mof_C 	C 	0.17924	0.20268	0.29758	-0.165
Mof_C 	C 	0.16916	0.1314	0.33354	-0.05
Mof_C 	C 	0.15316	0.18256	0.32207	0.002
Mof_C 	C 	0.1077	0.21714	0.33597	0.334
Mof_C 	C 	0.32372	0.11423	0.88736	0.339
Mof_C 	C 	0.34866	0.163	0.90327	-0.003
Mof_C 	C 	0.32011	0.18672	0.9257	-0.046
Mof_C 	C 	0.34232	0.23359	0.93968	-0.004
Mof_C 	C 	0.30824	0.26238	0.9624	0.334
Mof_C 	C 	0.39483	0.25419	0.93213	-0.148
Mof_C 	C 	0.42512	0.2287	0.90999	0.23
Mof_C 	C 	0.40184	0.18418	0.89505	-0.161
Mof_C 	C 	0.5054	0.2364	0.87936	0.234
Mof_C 	C 	0.66773	0.04018	0.88607	0.33
Mof_C 	C 	0.63699	0.09017	0.89878	0.008
Mof_C 	C 	0.59149	0.11296	0.8841	-0.169
Mof_C 	C 	0.56518	0.16086	0.89383	0.243
Mof_C 	C 	0.58287	0.18648	0.91907	-0.169
Mof_C 	C 	0.62873	0.16287	0.93361	0.005
Mof_C 	C 	0.65033	0.19185	0.96021	0.346
Mof_C 	C 	0.65546	0.11482	0.92351	-0.056
Mof_C 	C 	0.04665	0.2326	0.83498	0.338
Mof_C 	C 	0.10006	0.21204	0.82106	-0.002
Mof_C 	C 	0.1198	0.23773	0.79654	-0.158
Mof_C 	C 	0.17062	0.22139	0.78494	0.235
Mof_C 	C 	0.20268	0.17924	0.79758	-0.165
Mof_C 	C 	0.1314	0.16916	0.83354	-0.05
Mof_C 	C 	0.18256	0.15316	0.82207	0.002
Mof_C 	C 	0.21714	0.1077	0.83597	0.334
Mof_C 	C 	0.67628	0.88577	0.88736	0.339
Mof_C 	C 	0.65134	0.837	0.90327	-0.003
Mof_C 	C 	0.67989	0.81328	0.9257	-0.046
Mof_C 	C 	0.65768	0.76641	0.93968	-0.004
Mof_C 	C 	0.69176	0.73762	0.9624	0.334
Mof_C 	C 	0.60517	0.74581	0.93213	-0.148
Mof_C 	C 	0.57488	0.7713	0.90999	0.23
Mof_C 	C 	0.59816	0.81582	0.89505	-0.161
Mof_C 	C 	0.4946	0.7636	0.87936	0.234
Mof_C 	C 	0.33227	0.95982	0.88607	0.33
Mof_C 	C 	0.36301	0.90983	0.89878	0.008
Mof_C 	C 	0.40851	0.88704	0.8841	-0.169
Mof_C 	C 	0.43482	0.83914	0.89383	0.243
Mof_C 	C 	0.41713	0.81352	0.91907	-0.169
Mof_C 	C 	0.37127	0.83713	0.93361	0.005
Mof_C 	C 	0.34967	0.80815	0.96021	0.346
Mof_C 	C 	0.34454	0.88518	0.92351	-0.056
Mof_C 	C 	0.95335	0.7674	0.83498	0.338
Mof_C 	C 	0.89994	0.78796	0.82106	-0.002
Mof_C 	C 	0.8802	0.76227	0.79654	-0.158
Mof_C 	C 	0.82938	0.77861	0.78494	0.235
Mof_C 	C 	0.79732	0.82076	0.79758	-0.165
Mof_C 	C 	0.8686	0.83084	0.83354	-0.05
Mof_C 	C 	0.81744	0.84684	0.82207	0.002
Mof_C 	C 	0.78286	0.8923	0.83597	0.334
Mof_C 	C 	0.88577	0.32372	0.88736	0.339
Mof_C 	C 	0.837	0.34866	0.90327	-0.003
Mof_C 	C 	0.81328	0.32011	0.9257	-0.046
Mof_C 	C 	0.76641	0.34232	0.93968	-0.004
Mof_C 	C 	0.73762	0.30824	0.9624	0.334
Mof_C 	C 	0.74581	0.39483	0.93213	-0.148
Mof_C 	C 	0.7713	0.42512	0.90999	0.23
Mof_C 	C 	0.81582	0.40184	0.89505	-0.161
Mof_C 	C 	0.7636	0.5054	0.87936	0.234
Mof_C 	C 	0.95982	0.66773	0.88607	0.33
Mof_C 	C 	0.90983	0.63699	0.89878	0.008
Mof_C 	C 	0.88704	0.59149	0.8841	-0.169
Mof_C 	C 	0.83914	0.56518	0.89383	0.243
Mof_C 	C 	0.81352	0.58287	0.91907	-0.169
Mof_C 	C 	0.83713	0.62873	0.93361	0.005
Mof_C 	C 	0.80815	0.65033	0.96021	0.346
Mof_C 	C 	0.88518	0.65546	0.92351	-0.056
Mof_C 	C 	0.7674	0.04665	0.83498	0.338
Mof_C 	C 	0.78796	0.10006	0.82106	-0.002
Mof_C 	C 	0.76227	0.1198	0.79654	-0.158
Mof_C 	C 	0.77861	0.17062	0.78494	0.235
Mof_C 	C 	0.82076	0.20268	0.79758	-0.165
Mof_C 	C 	0.83084	0.1314	0.83354	-0.05
Mof_C 	C 	0.84684	0.18256	0.82207	0.002
Mof_C 	C 	0.8923	0.21714	0.83597	0.334
Mof_C 	C 	0.11423	0.67628	0.88736	0.339
Mof_C 	C 	0.163	0.65134	0.90327	-0.003
Mof_C 	C 	0.18672	0.67989	0.9257	-0.046
Mof_C 	C 	0.23359	0.65768	0.93968	-0.004
Mof_C 	C 	0.26238	0.69176	0.9624	0.334
Mof_C 	C 	0.25419	0.60517	0.93213	-0.148
Mof_C 	C 	0.2287	0.57488	0.90999	0.23
Mof_C 	C 	0.18418	0.59816	0.89505	-0.161
Mof_C 	C 	0.2364	0.4946	0.87936	0.234
Mof_C 	C 	0.04018	0.33227	0.88607	0.33
Mof_C 	C 	0.09017	0.36301	0.89878	0.008
Mof_C 	C 	0.11296	0.40851	0.8841	-0.169
Mof_C 	C 	0.16086	0.43482	0.89383	0.243
Mof_C 	C 	0.18648	0.41713	0.91907	-0.169
Mof_C 	C 	0.16287	0.37127	0.93361	0.005
Mof_C 	C 	0.19185	0.34967	0.96021	0.346
Mof_C 	C 	0.11482	0.34454	0.92351	-0.056
Mof_C 	C 	0.2326	0.95335	0.83498	0.338
Mof_C 	C 	0.21204	0.89994	0.82106	-0.002
Mof_C 	C 	0.23773	0.8802	0.79654	-0.158
Mof_C 	C 	0.22139	0.82938	0.78494	0.235
Mof_C 	C 	0.17924	0.79732	0.79758	-0.165
Mof_C 	C 	0.16916	0.8686	0.83354	-0.05
Mof_C 	C 	0.15316	0.81744	0.82207	0.002
Mof_C 	C 	0.1077	0.78286	0.83597	0.334
Mof_C 	C 	0.67628	0.11423	0.61264	0.339
Mof_C 	C 	0.65134	0.163	0.59673	-0.003
Mof_C 	C 	0.67989	0.18672	0.5743	-0.046
Mof_C 	C 	0.65768	0.23359	0.56032	-0.005
Mof_C 	C 	0.69176	0.26238	0.5376	0.335
Mof_C 	C 	0.60517	0.25419	0.56787	-0.148
Mof_C 	C 	0.57488	0.2287	0.59001	0.229
Mof_C 	C 	0.59816	0.18418	0.60495	-0.161
Mof_C 	C 	0.4946	0.2364	0.62064	0.234
Mof_C 	C 	0.33227	0.04018	0.61393	0.33
Mof_C 	C 	0.36301	0.09017	0.60122	0.007
Mof_C 	C 	0.40851	0.11296	0.6159	-0.168
Mof_C 	C 	0.43482	0.16086	0.60617	0.243
Mof_C 	C 	0.41713	0.18648	0.58093	-0.168
Mof_C 	C 	0.37127	0.16287	0.56639	0.004
Mof_C 	C 	0.34967	0.19185	0.53979	0.347
Mof_C 	C 	0.34454	0.11482	0.57649	-0.056
Mof_C 	C 	0.95335	0.2326	0.66502	0.338
Mof_C 	C 	0.89994	0.21204	0.67894	-0.002
Mof_C 	C 	0.8802	0.23773	0.70346	-0.158
Mof_C 	C 	0.82938	0.22139	0.71506	0.235
Mof_C 	C 	0.79732	0.17924	0.70242	-0.165
Mof_C 	C 	0.8686	0.16916	0.66646	-0.05
Mof_C 	C 	0.81744	0.15316	0.67793	0.002
Mof_C 	C 	0.78286	0.1077	0.66403	0.334
Mof_C 	C 	0.32372	0.88577	0.61264	0.339
Mof_C 	C 	0.34866	0.837	0.59673	-0.003
Mof_C 	C 	0.32011	0.81328	0.5743	-0.046
Mof_C 	C 	0.34232	0.76641	0.56032	-0.005
Mof_C 	C 	0.30824	0.73762	0.5376	0.335
Mof_C 	C 	0.39483	0.74581	0.56787	-0.148
Mof_C 	C 	0.42512	0.7713	0.59001	0.229
Mof_C 	C 	0.40184	0.81582	0.60495	-0.161
Mof_C 	C 	0.5054	0.7636	0.62064	0.234
Mof_C 	C 	0.66773	0.95982	0.61393	0.33
Mof_C 	C 	0.63699	0.90983	0.60122	0.007
Mof_C 	C 	0.59149	0.88704	0.6159	-0.168
Mof_C 	C 	0.56518	0.83914	0.60617	0.243
Mof_C 	C 	0.58287	0.81352	0.58093	-0.168
Mof_C 	C 	0.62873	0.83713	0.56639	0.004
Mof_C 	C 	0.65033	0.80815	0.53979	0.347
Mof_C 	C 	0.65546	0.88518	0.57649	-0.056
Mof_C 	C 	0.04665	0.7674	0.66502	0.338
Mof_C 	C 	0.10006	0.78796	0.67894	-0.002
Mof_C 	C 	0.1198	0.76227	0.70346	-0.158
Mof_C 	C 	0.17062	0.77861	0.71506	0.235
Mof_C 	C 	0.20268	0.82076	0.70242	-0.165
Mof_C 	C 	0.1314	0.83084	0.66646	-0.05
Mof_C 	C 	0.18256	0.84684	0.67793	0.002
Mof_C 	C 	0.21714	0.8923	0.66403	0.334
Mof_C 	C 	0.11423	0.32372	0.61264	0.339
Mof_C 	C 	0.163	0.34866	0.59673	-0.003
Mof_C 	C 	0.18672	0.32011	0.5743	-0.046
Mof_C 	C 	0.23359	0.34232	0.56032	-0.005
Mof_C 	C 	0.26238	0.30824	0.5376	0.335
Mof_C 	C 	0.25419	0.39483	0.56787	-0.148
Mof_C 	C 	0.2287	0.42512	0.59001	0.229
Mof_C 	C 	0.18418	0.40184	0.60495	-0.161
Mof_C 	C 	0.2364	0.5054	0.62064	0.234
Mof_C 	C 	0.04018	0.66773	0.61393	0.33
Mof_C 	C 	0.09017	0.63699	0.60122	0.007
Mof_C 	C 	0.11296	0.59149	0.6159	-0.168
Mof_C 	C 	0.16086	0.56518	0.60617	0.243
Mof_C 	C 	0.18648	0.58287	0.58093	-0.168
Mof_C 	C 	0.16287	0.62873	0.56639	0.004
Mof_C 	C 	0.19185	0.65033	0.53979	0.347
Mof_C 	C 	0.11482	0.65546	0.57649	-0.056
Mof_C 	C 	0.2326	0.04665	0.66502	0.338
Mof_C 	C 	0.21204	0.10006	0.67894	-0.002
Mof_C 	C 	0.23773	0.1198	0.70346	-0.158
Mof_C 	C 	0.22139	0.17062	0.71506	0.235
Mof_C 	C 	0.17924	0.20268	0.70242	-0.165
Mof_C 	C 	0.16916	0.1314	0.66646	-0.05
Mof_C 	C 	0.15316	0.18256	0.67793	0.002
Mof_C 	C 	0.1077	0.21714	0.66403	0.334
Mof_C 	C 	0.88577	0.67628	0.61264	0.339
Mof_C 	C 	0.837	0.65134	0.59673	-0.003
Mof_C 	C 	0.81328	0.67989	0.5743	-0.046
Mof_C 	C 	0.76641	0.65768	0.56032	-0.005
Mof_C 	C 	0.73762	0.69176	0.5376	0.335
Mof_C 	C 	0.74581	0.60517	0.56787	-0.148
Mof_C 	C 	0.7713	0.57488	0.59001	0.229
Mof_C 	C 	0.81582	0.59816	0.60495	-0.161
Mof_C 	C 	0.7636	0.4946	0.62064	0.234
Mof_C 	C 	0.95982	0.33227	0.61393	0.33
Mof_C 	C 	0.90983	0.36301	0.60122	0.007
Mof_C 	C 	0.88704	0.40851	0.6159	-0.168
Mof_C 	C 	0.83914	0.43482	0.60617	0.243
Mof_C 	C 	0.81352	0.41713	0.58093	-0.168
Mof_C 	C 	0.83713	0.37127	0.56639	0.004
Mof_C 	C 	0.80815	0.34967	0.53979	0.347
Mof_C 	C 	0.88518	0.34454	0.57649	-0.056
Mof_C 	C 	0.7674	0.95335	0.66502	0.338
Mof_C 	C 	0.78796	0.89994	0.67894	-0.002
Mof_C 	C 	0.76227	0.8802	0.70346	-0.158
Mof_C 	C 	0.77861	0.82938	0.71506	0.235
Mof_C 	C 	0.82076	0.79732	0.70242	-0.165
Mof_C 	C 	0.83084	0.8686	0.66646	-0.05
Mof_C 	C 	0.84684	0.81744	0.67793	0.002
Mof_C 	C 	0.8923	0.78286	0.66403	0.334
Mof_C 	C 	0.7584	0.7584	0.25	0.208
Mof_C 	C 	0.2416	0.2416	0.25	0.208
Mof_C 	C 	0.2416	0.7584	0.25	0.208
Mof_C 	C 	0.7584	0.2416	0.25	0.208
Mof_C 	C 	0.2416	0.2416	0.75	0.208
Mof_C 	C 	0.7584	0.7584	0.75	0.208
Mof_C 	C 	0.7584	0.2416	0.75	0.208
Mof_C 	C 	0.2416	0.7584	0.75	0.208
Mof_O 	O 	0.65076	0.90258	0.13419	-0.396
Mof_O 	O 	0.72201	0.90524	0.10286	-0.404
Mof_O 	O 	0.73507	0.76375	0.02921	-0.404
Mof_O 	O 	0.67457	0.69065	0.02853	-0.398
Mof_O 	O 	0.3512	0.97965	0.13676	-0.402
Mof_O 	O 	0.29007	0.97797	0.10041	-0.396
Mof_O 	O 	0.37796	0.76759	0.03066	-0.403
Mof_O 	O 	0.30519	0.82752	0.02984	-0.407
Mof_O 	O 	0.52244	0.74839	0.09478	-0.266
Mof_O 	O 	0.47907	0.81972	0.12222	-0.276
Mof_O 	O 	0.98048	0.72909	0.17752	-0.401
Mof_O 	O 	0.9665	0.78957	0.1418	-0.402
Mof_O 	O 	0.73471	0.90225	0.17456	-0.394
Mof_O 	O 	0.80433	0.9166	0.14305	-0.402
Mof_O 	O 	0.81385	0.74937	0.23897	-0.263
Mof_O 	O 	0.34924	0.09742	0.13419	-0.396
Mof_O 	O 	0.27799	0.09476	0.10286	-0.404
Mof_O 	O 	0.26493	0.23625	0.02921	-0.404
Mof_O 	O 	0.32543	0.30935	0.02853	-0.398
Mof_O 	O 	0.6488	0.02035	0.13676	-0.402
Mof_O 	O 	0.70993	0.02203	0.10041	-0.396
Mof_O 	O 	0.62204	0.23241	0.03066	-0.403
Mof_O 	O 	0.69481	0.17248	0.02984	-0.407
Mof_O 	O 	0.47756	0.25161	0.09478	-0.266
Mof_O 	O 	0.52093	0.18028	0.12222	-0.276
Mof_O 	O 	0.01952	0.27091	0.17752	-0.401
Mof_O 	O 	0.0335	0.21043	0.1418	-0.402
Mof_O 	O 	0.26529	0.09775	0.17456	-0.394
Mof_O 	O 	0.19567	0.0834	0.14305	-0.402
Mof_O 	O 	0.18615	0.25063	0.23897	-0.263
Mof_O 	O 	0.09742	0.65076	0.13419	-0.396
Mof_O 	O 	0.09476	0.72201	0.10286	-0.404
Mof_O 	O 	0.23625	0.73507	0.02921	-0.404
Mof_O 	O 	0.30935	0.67457	0.02853	-0.398
Mof_O 	O 	0.02035	0.3512	0.13676	-0.402
Mof_O 	O 	0.02203	0.29007	0.10041	-0.396
Mof_O 	O 	0.23241	0.37796	0.03066	-0.403
Mof_O 	O 	0.17248	0.30519	0.02984	-0.407
Mof_O 	O 	0.25161	0.52244	0.09478	-0.266
Mof_O 	O 	0.18028	0.47907	0.12222	-0.276
Mof_O 	O 	0.27091	0.98048	0.17752	-0.401
Mof_O 	O 	0.21043	0.9665	0.1418	-0.402
Mof_O 	O 	0.09775	0.73471	0.17456	-0.394
Mof_O 	O 	0.0834	0.80433	0.14305	-0.402
Mof_O 	O 	0.25063	0.81385	0.23897	-0.263
Mof_O 	O 	0.90258	0.34924	0.13419	-0.396
Mof_O 	O 	0.90524	0.27799	0.10286	-0.404
Mof_O 	O 	0.76375	0.26493	0.02921	-0.404
Mof_O 	O 	0.69065	0.32543	0.02853	-0.398
Mof_O 	O 	0.97965	0.6488	0.13676	-0.402
Mof_O 	O 	0.97797	0.70993	0.10041	-0.396
Mof_O 	O 	0.76759	0.62204	0.03066	-0.403
Mof_O 	O 	0.82752	0.69481	0.02984	-0.407
Mof_O 	O 	0.74839	0.47756	0.09478	-0.266
Mof_O 	O 	0.81972	0.52093	0.12222	-0.276
Mof_O 	O 	0.72909	0.01952	0.17752	-0.401
Mof_O 	O 	0.78957	0.0335	0.1418	-0.402
Mof_O 	O 	0.90225	0.26529	0.17456	-0.394
Mof_O 	O 	0.9166	0.19567	0.14305	-0.402
Mof_O 	O 	0.74937	0.18615	0.23897	-0.263
Mof_O 	O 	0.34924	0.90258	0.36581	-0.396
Mof_O 	O 	0.27799	0.90524	0.39714	-0.403
Mof_O 	O 	0.26493	0.76375	0.47079	-0.403
Mof_O 	O 	0.32543	0.69065	0.47147	-0.397
Mof_O 	O 	0.6488	0.97965	0.36324	-0.402
Mof_O 	O 	0.70993	0.97797	0.39959	-0.395
Mof_O 	O 	0.62204	0.76759	0.46934	-0.402
Mof_O 	O 	0.69481	0.82752	0.47016	-0.406
Mof_O 	O 	0.47756	0.74839	0.40522	-0.266
Mof_O 	O 	0.52093	0.81972	0.37778	-0.276
Mof_O 	O 	0.01952	0.72909	0.32248	-0.401
Mof_O 	O 	0.0335	0.78957	0.3582	-0.402
Mof_O 	O 	0.26529	0.90225	0.32544	-0.394
Mof_O 	O 	0.19567	0.9166	0.35695	-0.402
Mof_O 	O 	0.18615	0.74937	0.26103	-0.263
Mof_O 	O 	0.65076	0.09742	0.36581	-0.396
Mof_O 	O 	0.72201	0.09476	0.39714	-0.403
Mof_O 	O 	0.73507	0.23625	0.47079	-0.403
Mof_O 	O 	0.67457	0.30935	0.47147	-0.397
Mof_O 	O 	0.3512	0.02035	0.36324	-0.402
Mof_O 	O 	0.29007	0.02203	0.39959	-0.395
Mof_O 	O 	0.37796	0.23241	0.46934	-0.402
Mof_O 	O 	0.30519	0.17248	0.47016	-0.406
Mof_O 	O 	0.52244	0.25161	0.40522	-0.266
Mof_O 	O 	0.47907	0.18028	0.37778	-0.276
Mof_O 	O 	0.98048	0.27091	0.32248	-0.401
Mof_O 	O 	0.9665	0.21043	0.3582	-0.402
Mof_O 	O 	0.73471	0.09775	0.32544	-0.394
Mof_O 	O 	0.80433	0.0834	0.35695	-0.402
Mof_O 	O 	0.81385	0.25063	0.26103	-0.263
Mof_O 	O 	0.90258	0.65076	0.36581	-0.396
Mof_O 	O 	0.90524	0.72201	0.39714	-0.403
Mof_O 	O 	0.76375	0.73507	0.47079	-0.403
Mof_O 	O 	0.69065	0.67457	0.47147	-0.397
Mof_O 	O 	0.97965	0.3512	0.36324	-0.402
Mof_O 	O 	0.97797	0.29007	0.39959	-0.395
Mof_O 	O 	0.76759	0.37796	0.46934	-0.402
Mof_O 	O 	0.82752	0.30519	0.47016	-0.406
Mof_O 	O 	0.74839	0.52244	0.40522	-0.266
Mof_O 	O 	0.81972	0.47907	0.37778	-0.276
Mof_O 	O 	0.72909	0.98048	0.32248	-0.401
Mof_O 	O 	0.78957	0.9665	0.3582	-0.402
Mof_O 	O 	0.90225	0.73471	0.32544	-0.394
Mof_O 	O 	0.9166	0.80433	0.35695	-0.402
Mof_O 	O 	0.74937	0.81385	0.26103	-0.263
Mof_O 	O 	0.09742	0.34924	0.36581	-0.396
Mof_O 	O 	0.09476	0.27799	0.39714	-0.403
Mof_O 	O 	0.23625	0.26493	0.47079	-0.403
Mof_O 	O 	0.30935	0.32543	0.47147	-0.397
Mof_O 	O 	0.02035	0.6488	0.36324	-0.402
Mof_O 	O 	0.02203	0.70993	0.39959	-0.395
Mof_O 	O 	0.23241	0.62204	0.46934	-0.402
Mof_O 	O 	0.17248	0.69481	0.47016	-0.406
Mof_O 	O 	0.25161	0.47756	0.40522	-0.266
Mof_O 	O 	0.18028	0.52093	0.37778	-0.276
Mof_O 	O 	0.27091	0.01952	0.32248	-0.401
Mof_O 	O 	0.21043	0.0335	0.3582	-0.402
Mof_O 	O 	0.09775	0.26529	0.32544	-0.394
Mof_O 	O 	0.0834	0.19567	0.35695	-0.402
Mof_O 	O 	0.25063	0.18615	0.26103	-0.263
Mof_O 	O 	0.34924	0.09742	0.86581	-0.396
Mof_O 	O 	0.27799	0.09476	0.89714	-0.403
Mof_O 	O 	0.26493	0.23625	0.97079	-0.401
Mof_O 	O 	0.32543	0.30935	0.97147	-0.395
Mof_O 	O 	0.6488	0.02035	0.86324	-0.402
Mof_O 	O 	0.70993	0.02203	0.89959	-0.395
Mof_O 	O 	0.62204	0.23241	0.96934	-0.4
Mof_O 	O 	0.69481	0.17248	0.97016	-0.404
Mof_O 	O 	0.47756	0.25161	0.90522	-0.266
Mof_O 	O 	0.52093	0.18028	0.87778	-0.276
Mof_O 	O 	0.01952	0.27091	0.82248	-0.401
Mof_O 	O 	0.0335	0.21043	0.8582	-0.401
Mof_O 	O 	0.26529	0.09775	0.82544	-0.394
Mof_O 	O 	0.19567	0.0834	0.85695	-0.402
Mof_O 	O 	0.18615	0.25063	0.76103	-0.263
Mof_O 	O 	0.65076	0.90258	0.86581	-0.396
Mof_O 	O 	0.72201	0.90524	0.89714	-0.403
Mof_O 	O 	0.73507	0.76375	0.97079	-0.401
Mof_O 	O 	0.67457	0.69065	0.97147	-0.395
Mof_O 	O 	0.3512	0.97965	0.86324	-0.402
Mof_O 	O 	0.29007	0.97797	0.89959	-0.395
Mof_O 	O 	0.37796	0.76759	0.96934	-0.4
Mof_O 	O 	0.30519	0.82752	0.97016	-0.404
Mof_O 	O 	0.52244	0.74839	0.90522	-0.266
Mof_O 	O 	0.47907	0.81972	0.87778	-0.276
Mof_O 	O 	0.98048	0.72909	0.82248	-0.401
Mof_O 	O 	0.9665	0.78957	0.8582	-0.401
Mof_O 	O 	0.73471	0.90225	0.82544	-0.394
Mof_O 	O 	0.80433	0.9166	0.85695	-0.402
Mof_O 	O 	0.81385	0.74937	0.76103	-0.263
Mof_O 	O 	0.90258	0.34924	0.86581	-0.396
Mof_O 	O 	0.90524	0.27799	0.89714	-0.403
Mof_O 	O 	0.76375	0.26493	0.97079	-0.401
Mof_O 	O 	0.69065	0.32543	0.97147	-0.395
Mof_O 	O 	0.97965	0.6488	0.86324	-0.402
Mof_O 	O 	0.97797	0.70993	0.89959	-0.395
Mof_O 	O 	0.76759	0.62204	0.96934	-0.4
Mof_O 	O 	0.82752	0.69481	0.97016	-0.404
Mof_O 	O 	0.74839	0.47756	0.90522	-0.266
Mof_O 	O 	0.81972	0.52093	0.87778	-0.276
Mof_O 	O 	0.72909	0.01952	0.82248	-0.401
Mof_O 	O 	0.78957	0.0335	0.8582	-0.401
Mof_O 	O 	0.90225	0.26529	0.82544	-0.394
Mof_O 	O 	0.9166	0.19567	0.85695	-0.402
Mof_O 	O 	0.74937	0.18615	0.76103	-0.263
Mof_O 	O 	0.09742	0.65076	0.86581	-0.396
Mof_O 	O 	0.09476	0.72201	0.89714	-0.403
Mof_O 	O 	0.23625	0.73507	0.97079	-0.401
Mof_O 	O 	0.30935	0.67457	0.97147	-0.395
Mof_O 	O 	0.02035	0.3512	0.86324	-0.402
Mof_O 	O 	0.02203	0.29007	0.89959	-0.395
Mof_O 	O 	0.23241	0.37796	0.96934	-0.4
Mof_O 	O 	0.17248	0.30519	0.97016	-0.404
Mof_O 	O 	0.25161	0.52244	0.90522	-0.266
Mof_O 	O 	0.18028	0.47907	0.87778	-0.276
Mof_O 	O 	0.27091	0.98048	0.82248	-0.401
Mof_O 	O 	0.21043	0.9665	0.8582	-0.401
Mof_O 	O 	0.09775	0.73471	0.82544	-0.394
Mof_O 	O 	0.0834	0.80433	0.85695	-0.402
Mof_O 	O 	0.25063	0.81385	0.76103	-0.263
Mof_O 	O 	0.65076	0.09742	0.63419	-0.396
Mof_O 	O 	0.72201	0.09476	0.60286	-0.403
Mof_O 	O 	0.73507	0.23625	0.52921	-0.403
Mof_O 	O 	0.67457	0.30935	0.52853	-0.397
Mof_O 	O 	0.3512	0.02035	0.63676	-0.402
Mof_O 	O 	0.29007	0.02203	0.60041	-0.395
Mof_O 	O 	0.37796	0.23241	0.53066	-0.402
Mof_O 	O 	0.30519	0.17248	0.52984	-0.406
Mof_O 	O 	0.52244	0.25161	0.59478	-0.266
Mof_O 	O 	0.47907	0.18028	0.62222	-0.276
Mof_O 	O 	0.98048	0.27091	0.67752	-0.401
Mof_O 	O 	0.9665	0.21043	0.6418	-0.402
Mof_O 	O 	0.73471	0.09775	0.67456	-0.394
Mof_O 	O 	0.80433	0.0834	0.64305	-0.402
Mof_O 	O 	0.81385	0.25063	0.73897	-0.263
Mof_O 	O 	0.34924	0.90258	0.63419	-0.396
Mof_O 	O 	0.27799	0.90524	0.60286	-0.403
Mof_O 	O 	0.26493	0.76375	0.52921	-0.403
Mof_O 	O 	0.32543	0.69065	0.52853	-0.397
Mof_O 	O 	0.6488	0.97965	0.63676	-0.402
Mof_O 	O 	0.70993	0.97797	0.60041	-0.395
Mof_O 	O 	0.62204	0.76759	0.53066	-0.402
Mof_O 	O 	0.69481	0.82752	0.52984	-0.406
Mof_O 	O 	0.47756	0.74839	0.59478	-0.266
Mof_O 	O 	0.52093	0.81972	0.62222	-0.276
Mof_O 	O 	0.01952	0.72909	0.67752	-0.401
Mof_O 	O 	0.0335	0.78957	0.6418	-0.402
Mof_O 	O 	0.26529	0.90225	0.67456	-0.394
Mof_O 	O 	0.19567	0.9166	0.64305	-0.402
Mof_O 	O 	0.18615	0.74937	0.73897	-0.263
Mof_O 	O 	0.09742	0.34924	0.63419	-0.396
Mof_O 	O 	0.09476	0.27799	0.60286	-0.403
Mof_O 	O 	0.23625	0.26493	0.52921	-0.403
Mof_O 	O 	0.30935	0.32543	0.52853	-0.397
Mof_O 	O 	0.02035	0.6488	0.63676	-0.402
Mof_O 	O 	0.02203	0.70993	0.60041	-0.395
Mof_O 	O 	0.23241	0.62204	0.53066	-0.402
Mof_O 	O 	0.17248	0.69481	0.52984	-0.406
Mof_O 	O 	0.25161	0.47756	0.59478	-0.266
Mof_O 	O 	0.18028	0.52093	0.62222	-0.276
Mof_O 	O 	0.27091	0.01952	0.67752	-0.401
Mof_O 	O 	0.21043	0.0335	0.6418	-0.402
Mof_O 	O 	0.09775	0.26529	0.67456	-0.394
Mof_O 	O 	0.0834	0.19567	0.64305	-0.402
Mof_O 	O 	0.25063	0.18615	0.73897	-0.263
Mof_O 	O 	0.90258	0.65076	0.63419	-0.396
Mof_O 	O 	0.90524	0.72201	0.60286	-0.403
Mof_O 	O 	0.76375	0.73507	0.52921	-0.403
Mof_O 	O 	0.69065	0.67457	0.52853	-0.397
Mof_O 	O 	0.97965	0.3512	0.63676	-0.402
Mof_O 	O 	0.97797	0.29007	0.60041	-0.395
Mof_O 	O 	0.76759	0.37796	0.53066	-0.402
Mof_O 	O 	0.82752	0.30519	0.52984	-0.406
Mof_O 	O 	0.74839	0.52244	0.59478	-0.266
Mof_O 	O 	0.81972	0.47907	0.62222	-0.276
Mof_O 	O 	0.72909	0.98048	0.67752	-0.401
Mof_O 	O 	0.78957	0.9665	0.6418	-0.402
Mof_O 	O 	0.90225	0.73471	0.67456	-0.394
Mof_O 	O 	0.9166	0.80433	0.64305	-0.402
Mof_O 	O 	0.74937	0.81385	0.73897	-0.263
_end
