data_functionalizedCrystal
_audit_creation_method	'EQeq! by Chris Wilmer'
_symmetry_space_group_name_H-M	'P1'
_symmetry_Int_Tables_number	1
_symmetry_cell_setting	triclinic
loop_
_symmetry_equiv_pos_as_xyz
  x,y,z
_cell_length_a	26.63
_cell_length_b	35.928
_cell_length_c	13.001
_cell_angle_alpha	90
_cell_angle_beta	90
_cell_angle_gamma	90
loop_
_atom_site_label
_atom_site_type_symbol
_atom_site_fract_x
_atom_site_fract_y
_atom_site_fract_z
_atom_site_charge
Mof_Zn	Zn	0.35469	0.11894	0.58537	1.222
Mof_Zn	Zn	0.22689	0.0611	0.49499	1.17
Mof_O 	O 	0.30114	0.09629	0.49685	-0.545
Mof_O 	O 	0.37826	0.14921	0.46058	-0.448
Mof_O 	O 	0.39705	0.15815	0.2971	-0.276
Mof_O 	O 	0.40217	0.13996	0.68827	-0.499
Mof_O 	O 	0.3253	0.08368	0.69962	-0.447
Mof_O 	O 	0.29174	0.07871	0.85503	-0.271
Mof_N 	N 	0.26304	0.07377	0.36042	-0.315
Mof_N 	N 	0.44053	0.15164	0.83678	-0.302
Mof_N 	N 	0.16909	0.0248	0.46108	-0.275
Mof_N 	N 	0.95347	0.91329	0.37346	-0.212
Mof_C 	C 	0.3001	0.09592	0.3981	0.271
Mof_C 	C 	0.33173	0.11612	0.3305	-0.262
Mof_C 	C 	0.32413	0.11094	0.2252	0.135
Mof_H 	H 	0.3445	0.1242	0.1778	-0.009
Mof_C 	C 	0.28759	0.08688	0.1881	-0.203
Mof_H 	H 	0.2834	0.0829	0.1164	0.098
Mof_C 	C 	0.25756	0.06897	0.2591	0.12
Mof_H 	H 	0.2321	0.0526	0.2351	-0.023
Mof_C 	C 	0.37204	0.14289	0.3664	0.391
Mof_C 	C 	0.40286	0.13381	0.7847	0.281
Mof_C 	C 	0.36831	0.11155	0.8422	-0.237
Mof_C 	C 	0.37529	0.10817	0.9475	0.096
Mof_H 	H 	0.3518	0.0943	0.9868	0.019
Mof_C 	C 	0.41587	0.12457	0.9966	-0.105
Mof_H 	H 	0.4218	0.1209	0.0679	0.058
Mof_C 	C 	0.44731	0.14643	0.9377	0.069
Mof_H 	H 	0.475	0.1583	0.9702	0.009
Mof_C 	C 	0.32525	0.09005	0.7958	0.378
Mof_C 	C 	0.14435	0.02642	0.371	0.064
Mof_H 	H 	0.1562	0.043	0.3194	-0.006
Mof_C 	C 	0.10254	0.00505	0.3507	-0.115
Mof_H 	H 	0.0867	0.0064	0.2853	0.068
Mof_C 	C 	0.08351	0.98138	0.4263	0.052
Mof_C 	C 	0.10924	0.97982	0.5192	-0.123
Mof_H 	H 	0.0977	0.9641	0.5729	0.069
Mof_C 	C 	0.15181	0.00136	0.5329	0.07
Mof_H 	H 	0.1695	0.9994	0.5961	-0.032
Mof_C 	C 	0.98422	0.92333	0.2967	0.059
Mof_H 	H 	0.977	0.9146	0.2294	-0.002
Mof_C 	C 	0.02584	0.94574	0.3102	-0.114
Mof_H 	H 	0.0463	0.9522	0.2531	0.057
Mof_C 	C 	0.03752	0.95875	0.408	0.049
Mof_C 	C 	0.00512	0.94922	0.4881	-0.119
Mof_H 	H 	0.0112	0.9579	0.5559	0.069
Mof_C 	C 	0.96389	0.9268	0.4671	0.074
Mof_H 	H 	0.9419	0.9207	0.5221	0.002
Mof_Zn	Zn	0.85469	0.11894	0.08537	1.214
Mof_Zn	Zn	0.72689	0.0611	0.99499	1.175
Mof_O 	O 	0.80114	0.09629	0.99685	-0.531
Mof_O 	O 	0.87826	0.14921	0.96058	-0.434
Mof_O 	O 	0.89705	0.15815	0.7971	-0.269
Mof_O 	O 	0.90217	0.13996	0.18827	-0.506
Mof_O 	O 	0.8253	0.08368	0.19962	-0.456
Mof_O 	O 	0.79174	0.07871	0.35503	-0.28
Mof_N 	N 	0.76304	0.07377	0.86042	-0.312
Mof_N 	N 	0.94053	0.15164	0.33678	-0.311
Mof_N 	N 	0.66909	0.0248	0.96108	-0.264
Mof_N 	N 	0.45347	0.91329	0.87346	-0.212
Mof_C 	C 	0.8001	0.09592	0.8981	0.27
Mof_C 	C 	0.83173	0.11612	0.8305	-0.256
Mof_C 	C 	0.82413	0.11094	0.7252	0.135
Mof_H 	H 	0.8445	0.1242	0.6778	-0.003
Mof_C 	C 	0.78759	0.08688	0.6881	-0.2
Mof_H 	H 	0.7834	0.0829	0.6164	0.105
Mof_C 	C 	0.75756	0.06897	0.7591	0.122
Mof_H 	H 	0.7321	0.0526	0.7351	-0.021
Mof_C 	C 	0.87204	0.14289	0.8664	0.388
Mof_C 	C 	0.90286	0.13381	0.2847	0.29
Mof_C 	C 	0.86831	0.11155	0.3422	-0.258
Mof_C 	C 	0.87529	0.10817	0.4475	0.139
Mof_H 	H 	0.8518	0.0943	0.4868	-0.005
Mof_C 	C 	0.91587	0.12457	0.4966	-0.186
Mof_H 	H 	0.9218	0.1209	0.5679	0.103
Mof_C 	C 	0.94731	0.14643	0.4377	0.106
Mof_H 	H 	0.975	0.1583	0.4702	-0.011
Mof_C 	C 	0.82525	0.09005	0.2958	0.386
Mof_C 	C 	0.64435	0.02642	0.871	0.079
Mof_H 	H 	0.6562	0.043	0.8194	-0.01
Mof_C 	C 	0.60254	0.00505	0.8507	-0.136
Mof_H 	H 	0.5867	0.0064	0.7853	0.077
Mof_C 	C 	0.58351	0.98138	0.9263	0.098
Mof_C 	C 	0.60924	0.97982	0.0192	-0.168
Mof_H 	H 	0.5977	0.9641	0.0729	0.078
Mof_C 	C 	0.65181	0.00136	0.0329	0.059
Mof_H 	H 	0.6695	0.9994	0.0961	-0.034
Mof_C 	C 	0.48422	0.92333	0.7967	0.051
Mof_H 	H 	0.477	0.9146	0.7294	0.003
Mof_C 	C 	0.52584	0.94574	0.8102	-0.098
Mof_H 	H 	0.5463	0.9522	0.7531	0.053
Mof_C 	C 	0.53752	0.95875	0.908	0.021
Mof_C 	C 	0.50512	0.94922	0.9881	-0.072
Mof_H 	H 	0.5112	0.9579	0.0559	0.037
Mof_C 	C 	0.46389	0.9268	0.9671	0.095
Mof_H 	H 	0.4419	0.9207	0.0221	-0.022
Mof_Zn	Zn	0.60469	0.13106	0.83537	1.221
Mof_Zn	Zn	0.47689	0.1889	0.74499	1.17
Mof_O 	O 	0.55114	0.15371	0.74685	-0.545
Mof_O 	O 	0.62826	0.10079	0.71058	-0.448
Mof_O 	O 	0.64705	0.09185	0.5471	-0.274
Mof_O 	O 	0.65217	0.11004	0.93827	-0.476
Mof_O 	O 	0.5753	0.16632	0.94962	-0.422
Mof_O 	O 	0.54174	0.17129	0.10503	-0.278
Mof_N 	N 	0.51304	0.17623	0.61042	-0.315
Mof_N 	N 	0.69053	0.09836	0.08678	-0.311
Mof_N 	N 	0.41909	0.2252	0.71108	-0.275
Mof_N 	N 	0.20347	0.33671	0.62346	-0.212
Mof_C 	C 	0.5501	0.15408	0.6481	0.272
Mof_C 	C 	0.58173	0.13388	0.5805	-0.261
Mof_C 	C 	0.57413	0.13906	0.4752	0.136
Mof_H 	H 	0.5945	0.1258	0.4278	-0.005
Mof_C 	C 	0.53759	0.16312	0.4381	-0.202
Mof_H 	H 	0.5334	0.1671	0.3664	0.104
Mof_C 	C 	0.50756	0.18103	0.5091	0.121
Mof_H 	H 	0.4821	0.1974	0.4851	-0.022
Mof_C 	C 	0.62204	0.10711	0.6164	0.39
Mof_C 	C 	0.65286	0.11619	0.0347	0.253
Mof_C 	C 	0.61831	0.13845	0.0922	-0.238
Mof_C 	C 	0.62529	0.14183	0.1975	0.125
Mof_H 	H 	0.6018	0.1557	0.2368	-0.001
Mof_C 	C 	0.66587	0.12543	0.2466	-0.177
Mof_H 	H 	0.6718	0.1291	0.3179	0.099
Mof_C 	C 	0.69731	0.10357	0.1877	0.1
Mof_H 	H 	0.725	0.0917	0.2202	-0.011
Mof_C 	C 	0.57525	0.15995	0.0458	0.348
Mof_C 	C 	0.39435	0.22358	0.621	0.065
Mof_H 	H 	0.4062	0.207	0.5694	-0.006
Mof_C 	C 	0.35254	0.24495	0.6007	-0.115
Mof_H 	H 	0.3367	0.2436	0.5353	0.069
Mof_C 	C 	0.33351	0.26862	0.6763	0.052
Mof_C 	C 	0.35924	0.27018	0.7692	-0.123
Mof_H 	H 	0.3477	0.2859	0.8229	0.071
Mof_C 	C 	0.40181	0.24864	0.7829	0.07
Mof_H 	H 	0.4195	0.2506	0.8461	-0.03
Mof_C 	C 	0.23422	0.32667	0.5467	0.059
Mof_H 	H 	0.227	0.3354	0.4794	-0.001
Mof_C 	C 	0.27584	0.30426	0.5602	-0.114
Mof_H 	H 	0.2963	0.2978	0.5031	0.058
Mof_C 	C 	0.28752	0.29125	0.658	0.049
Mof_C 	C 	0.25512	0.30078	0.7381	-0.12
Mof_H 	H 	0.2612	0.2921	0.8059	0.071
Mof_C 	C 	0.21389	0.3232	0.7171	0.074
Mof_H 	H 	0.1919	0.3293	0.7721	0.002
Mof_Zn	Zn	0.10469	0.13106	0.33537	1.221
Mof_Zn	Zn	0.97689	0.1889	0.24499	1.168
Mof_O 	O 	0.05114	0.15371	0.24685	-0.547
Mof_O 	O 	0.12826	0.10079	0.21058	-0.451
Mof_O 	O 	0.14705	0.09185	0.0471	-0.287
Mof_O 	O 	0.15217	0.11004	0.43827	-0.502
Mof_O 	O 	0.0753	0.16632	0.44962	-0.45
Mof_O 	O 	0.04174	0.17129	0.60503	-0.278
Mof_N 	N 	0.01304	0.17623	0.11042	-0.302
Mof_N 	N 	0.19053	0.09836	0.58678	-0.31
Mof_N 	N 	0.91909	0.2252	0.21108	-0.277
Mof_N 	N 	0.70347	0.33671	0.12346	-0.204
Mof_C 	C 	0.0501	0.15408	0.1481	0.27
Mof_C 	C 	0.08173	0.13388	0.0805	-0.28
Mof_C 	C 	0.07413	0.13906	0.9752	0.143
Mof_H 	H 	0.0945	0.1258	0.9278	-0
Mof_C 	C 	0.03759	0.16312	0.9381	-0.137
Mof_H 	H 	0.0334	0.1671	0.8664	0.085
Mof_C 	C 	0.00756	0.18103	0.0091	0.026
Mof_H 	H 	0.9821	0.1974	0.9851	0.028
Mof_C 	C 	0.12204	0.10711	0.1164	0.394
Mof_C 	C 	0.15286	0.11619	0.5347	0.289
Mof_C 	C 	0.11831	0.13845	0.5922	-0.257
Mof_C 	C 	0.12529	0.14183	0.6975	0.139
Mof_H 	H 	0.1018	0.1557	0.7368	-0.004
Mof_C 	C 	0.16587	0.12543	0.7466	-0.186
Mof_H 	H 	0.1718	0.1291	0.8179	0.106
Mof_C 	C 	0.19731	0.10357	0.6877	0.107
Mof_H 	H 	0.225	0.0917	0.7202	-0.01
Mof_C 	C 	0.07525	0.15995	0.5458	0.385
Mof_C 	C 	0.89435	0.22358	0.121	0.066
Mof_H 	H 	0.9062	0.207	0.0694	-0.014
Mof_C 	C 	0.85254	0.24495	0.1007	-0.121
Mof_H 	H 	0.8367	0.2436	0.0353	0.067
Mof_C 	C 	0.83351	0.26862	0.1763	0.059
Mof_C 	C 	0.85924	0.27018	0.2692	-0.128
Mof_H 	H 	0.8477	0.2859	0.3229	0.07
Mof_C 	C 	0.90181	0.24864	0.2829	0.071
Mof_H 	H 	0.9195	0.2506	0.3461	-0.034
Mof_C 	C 	0.73422	0.32667	0.0467	-0
Mof_H 	H 	0.727	0.3354	0.9794	0.037
Mof_C 	C 	0.77584	0.30426	0.0602	-0.082
Mof_H 	H 	0.7963	0.2978	0.0031	0.04
Mof_C 	C 	0.78752	0.29125	0.158	0.033
Mof_C 	C 	0.75512	0.30078	0.2381	-0.108
Mof_H 	H 	0.7612	0.2921	0.3059	0.065
Mof_C 	C 	0.71389	0.3232	0.2171	0.067
Mof_H 	H 	0.6919	0.3293	0.2721	0.003
Mof_Zn	Zn	0.35469	0.61894	0.08537	1.214
Mof_Zn	Zn	0.22689	0.5611	0.99499	1.175
Mof_O 	O 	0.30114	0.59629	0.99685	-0.531
Mof_O 	O 	0.37826	0.64921	0.96058	-0.434
Mof_O 	O 	0.39705	0.65815	0.7971	-0.269
Mof_O 	O 	0.40217	0.63996	0.18827	-0.506
Mof_O 	O 	0.3253	0.58368	0.19962	-0.456
Mof_O 	O 	0.29174	0.57871	0.35503	-0.28
Mof_N 	N 	0.26304	0.57377	0.86042	-0.312
Mof_N 	N 	0.44053	0.65164	0.33678	-0.311
Mof_N 	N 	0.16909	0.5248	0.96108	-0.264
Mof_N 	N 	0.95347	0.41329	0.87346	-0.212
Mof_C 	C 	0.3001	0.59592	0.8981	0.27
Mof_C 	C 	0.33173	0.61612	0.8305	-0.256
Mof_C 	C 	0.32413	0.61094	0.7252	0.135
Mof_H 	H 	0.3445	0.6242	0.6778	-0.003
Mof_C 	C 	0.28759	0.58688	0.6881	-0.2
Mof_H 	H 	0.2834	0.5829	0.6164	0.105
Mof_C 	C 	0.25756	0.56897	0.7591	0.122
Mof_H 	H 	0.2321	0.5526	0.7351	-0.021
Mof_C 	C 	0.37204	0.64289	0.8664	0.388
Mof_C 	C 	0.40286	0.63381	0.2847	0.29
Mof_C 	C 	0.36831	0.61155	0.3422	-0.258
Mof_C 	C 	0.37529	0.60817	0.4475	0.139
Mof_H 	H 	0.3518	0.5943	0.4868	-0.005
Mof_C 	C 	0.41587	0.62457	0.4966	-0.186
Mof_H 	H 	0.4218	0.6209	0.5679	0.103
Mof_C 	C 	0.44731	0.64643	0.4377	0.106
Mof_H 	H 	0.475	0.6583	0.4702	-0.011
Mof_C 	C 	0.32525	0.59005	0.2958	0.386
Mof_C 	C 	0.14435	0.52642	0.871	0.079
Mof_H 	H 	0.1562	0.543	0.8194	-0.01
Mof_C 	C 	0.10254	0.50505	0.8507	-0.136
Mof_H 	H 	0.0867	0.5064	0.7853	0.077
Mof_C 	C 	0.08351	0.48138	0.9263	0.098
Mof_C 	C 	0.10924	0.47982	0.0192	-0.168
Mof_H 	H 	0.0977	0.4641	0.0729	0.078
Mof_C 	C 	0.15181	0.50136	0.0329	0.059
Mof_H 	H 	0.1695	0.4994	0.0961	-0.034
Mof_C 	C 	0.98422	0.42333	0.7967	0.051
Mof_H 	H 	0.977	0.4146	0.7294	0.003
Mof_C 	C 	0.02584	0.44574	0.8102	-0.098
Mof_H 	H 	0.0463	0.4522	0.7531	0.053
Mof_C 	C 	0.03752	0.45875	0.908	0.021
Mof_C 	C 	0.00512	0.44922	0.9881	-0.072
Mof_H 	H 	0.0112	0.4579	0.0559	0.037
Mof_C 	C 	0.96389	0.4268	0.9671	0.095
Mof_H 	H 	0.9419	0.4207	0.0221	-0.022
Mof_Zn	Zn	0.85469	0.61894	0.58537	1.221
Mof_Zn	Zn	0.72689	0.5611	0.49499	1.169
Mof_O 	O 	0.80114	0.59629	0.49685	-0.546
Mof_O 	O 	0.87826	0.64921	0.46058	-0.449
Mof_O 	O 	0.89705	0.65815	0.2971	-0.277
Mof_O 	O 	0.90217	0.63996	0.68827	-0.5
Mof_O 	O 	0.8253	0.58368	0.69962	-0.447
Mof_O 	O 	0.79174	0.57871	0.85503	-0.271
Mof_N 	N 	0.76304	0.57377	0.36042	-0.315
Mof_N 	N 	0.94053	0.65164	0.83678	-0.302
Mof_N 	N 	0.66909	0.5248	0.46108	-0.275
Mof_N 	N 	0.45347	0.41329	0.37346	-0.212
Mof_C 	C 	0.8001	0.59592	0.3981	0.271
Mof_C 	C 	0.83173	0.61612	0.3305	-0.262
Mof_C 	C 	0.82413	0.61094	0.2252	0.135
Mof_H 	H 	0.8445	0.6242	0.1778	-0.009
Mof_C 	C 	0.78759	0.58688	0.1881	-0.203
Mof_H 	H 	0.7834	0.5829	0.1164	0.098
Mof_C 	C 	0.75756	0.56897	0.2591	0.12
Mof_H 	H 	0.7321	0.5526	0.2351	-0.023
Mof_C 	C 	0.87204	0.64289	0.3664	0.391
Mof_C 	C 	0.90286	0.63381	0.7847	0.281
Mof_C 	C 	0.86831	0.61155	0.8422	-0.237
Mof_C 	C 	0.87529	0.60817	0.9475	0.096
Mof_H 	H 	0.8518	0.5943	0.9868	0.019
Mof_C 	C 	0.91587	0.62457	0.9966	-0.106
Mof_H 	H 	0.9218	0.6209	0.0679	0.058
Mof_C 	C 	0.94731	0.64643	0.9377	0.069
Mof_H 	H 	0.975	0.6583	0.9702	0.009
Mof_C 	C 	0.82525	0.59005	0.7958	0.378
Mof_C 	C 	0.64435	0.52642	0.371	0.064
Mof_H 	H 	0.6562	0.543	0.3194	-0.006
Mof_C 	C 	0.60254	0.50505	0.3507	-0.115
Mof_H 	H 	0.5867	0.5064	0.2853	0.068
Mof_C 	C 	0.58351	0.48138	0.4263	0.052
Mof_C 	C 	0.60924	0.47982	0.5192	-0.123
Mof_H 	H 	0.5977	0.4641	0.5729	0.069
Mof_C 	C 	0.65181	0.50136	0.5329	0.07
Mof_H 	H 	0.6695	0.4994	0.5961	-0.032
Mof_C 	C 	0.48422	0.42333	0.2967	0.058
Mof_H 	H 	0.477	0.4146	0.2294	-0.002
Mof_C 	C 	0.52584	0.44574	0.3102	-0.114
Mof_H 	H 	0.5463	0.4522	0.2531	0.057
Mof_C 	C 	0.53752	0.45875	0.408	0.049
Mof_C 	C 	0.50512	0.44922	0.4881	-0.119
Mof_H 	H 	0.5112	0.4579	0.5559	0.069
Mof_C 	C 	0.46389	0.4268	0.4671	0.074
Mof_H 	H 	0.4419	0.4207	0.5221	0.002
Mof_Zn	Zn	0.60469	0.63106	0.33537	1.221
Mof_Zn	Zn	0.47689	0.6889	0.24499	1.168
Mof_O 	O 	0.55114	0.65371	0.24685	-0.547
Mof_O 	O 	0.62826	0.60079	0.21058	-0.451
Mof_O 	O 	0.64705	0.59185	0.0471	-0.287
Mof_O 	O 	0.65217	0.61004	0.43827	-0.502
Mof_O 	O 	0.5753	0.66632	0.44962	-0.45
Mof_O 	O 	0.54174	0.67129	0.60503	-0.278
Mof_N 	N 	0.51304	0.67623	0.11042	-0.302
Mof_N 	N 	0.69053	0.59836	0.58678	-0.31
Mof_N 	N 	0.41909	0.7252	0.21108	-0.277
Mof_N 	N 	0.20347	0.83671	0.12346	-0.204
Mof_C 	C 	0.5501	0.65408	0.1481	0.27
Mof_C 	C 	0.58173	0.63388	0.0805	-0.28
Mof_C 	C 	0.57413	0.63906	0.9752	0.143
Mof_H 	H 	0.5945	0.6258	0.9278	-0
Mof_C 	C 	0.53759	0.66312	0.9381	-0.136
Mof_H 	H 	0.5334	0.6671	0.8664	0.085
Mof_C 	C 	0.50756	0.68103	0.0091	0.025
Mof_H 	H 	0.4821	0.6974	0.9851	0.028
Mof_C 	C 	0.62204	0.60711	0.1164	0.394
Mof_C 	C 	0.65286	0.61619	0.5347	0.289
Mof_C 	C 	0.61831	0.63845	0.5922	-0.257
Mof_C 	C 	0.62529	0.64183	0.6975	0.139
Mof_H 	H 	0.6018	0.6557	0.7368	-0.004
Mof_C 	C 	0.66587	0.62543	0.7466	-0.186
Mof_H 	H 	0.6718	0.6291	0.8179	0.106
Mof_C 	C 	0.69731	0.60357	0.6877	0.107
Mof_H 	H 	0.725	0.5917	0.7202	-0.01
Mof_C 	C 	0.57525	0.65995	0.5458	0.385
Mof_C 	C 	0.39435	0.72358	0.121	0.066
Mof_H 	H 	0.4062	0.707	0.0694	-0.014
Mof_C 	C 	0.35254	0.74495	0.1007	-0.121
Mof_H 	H 	0.3367	0.7436	0.0353	0.067
Mof_C 	C 	0.33351	0.76862	0.1763	0.059
Mof_C 	C 	0.35924	0.77018	0.2692	-0.128
Mof_H 	H 	0.3477	0.7859	0.3229	0.07
Mof_C 	C 	0.40181	0.74864	0.2829	0.071
Mof_H 	H 	0.4195	0.7506	0.3461	-0.034
Mof_C 	C 	0.23422	0.82667	0.0467	-0
Mof_H 	H 	0.227	0.8354	0.9794	0.037
Mof_C 	C 	0.27584	0.80426	0.0602	-0.082
Mof_H 	H 	0.2963	0.7978	0.0031	0.04
Mof_C 	C 	0.28752	0.79125	0.158	0.033
Mof_C 	C 	0.25512	0.80078	0.2381	-0.108
Mof_H 	H 	0.2612	0.7921	0.3059	0.065
Mof_C 	C 	0.21389	0.8232	0.2171	0.067
Mof_H 	H 	0.1919	0.8293	0.2721	0.003
Mof_Zn	Zn	0.10469	0.63106	0.83537	1.221
Mof_Zn	Zn	0.97689	0.6889	0.74499	1.17
Mof_O 	O 	0.05114	0.65371	0.74685	-0.545
Mof_O 	O 	0.12826	0.60079	0.71058	-0.448
Mof_O 	O 	0.14705	0.59185	0.5471	-0.274
Mof_O 	O 	0.15217	0.61004	0.93827	-0.476
Mof_O 	O 	0.0753	0.66632	0.94962	-0.423
Mof_O 	O 	0.04174	0.67129	0.10503	-0.278
Mof_N 	N 	0.01304	0.67623	0.61042	-0.315
Mof_N 	N 	0.19053	0.59836	0.08678	-0.311
Mof_N 	N 	0.91909	0.7252	0.71108	-0.275
Mof_N 	N 	0.70347	0.83671	0.62346	-0.212
Mof_C 	C 	0.0501	0.65408	0.6481	0.272
Mof_C 	C 	0.08173	0.63388	0.5805	-0.261
Mof_C 	C 	0.07413	0.63906	0.4752	0.136
Mof_H 	H 	0.0945	0.6258	0.4278	-0.005
Mof_C 	C 	0.03759	0.66312	0.4381	-0.202
Mof_H 	H 	0.0334	0.6671	0.3664	0.104
Mof_C 	C 	0.00756	0.68103	0.5091	0.121
Mof_H 	H 	0.9821	0.6974	0.4851	-0.022
Mof_C 	C 	0.12204	0.60711	0.6164	0.39
Mof_C 	C 	0.15286	0.61619	0.0347	0.253
Mof_C 	C 	0.11831	0.63845	0.0922	-0.238
Mof_C 	C 	0.12529	0.64183	0.1975	0.125
Mof_H 	H 	0.1018	0.6557	0.2368	-0.001
Mof_C 	C 	0.16587	0.62543	0.2466	-0.177
Mof_H 	H 	0.1718	0.6291	0.3179	0.099
Mof_C 	C 	0.19731	0.60357	0.1877	0.1
Mof_H 	H 	0.225	0.5917	0.2202	-0.011
Mof_C 	C 	0.07525	0.65995	0.0458	0.348
Mof_C 	C 	0.89435	0.72358	0.621	0.065
Mof_H 	H 	0.9062	0.707	0.5694	-0.006
Mof_C 	C 	0.85254	0.74495	0.6007	-0.115
Mof_H 	H 	0.8367	0.7436	0.5353	0.069
Mof_C 	C 	0.83351	0.76862	0.6763	0.052
Mof_C 	C 	0.85924	0.77018	0.7692	-0.123
Mof_H 	H 	0.8477	0.7859	0.8229	0.071
Mof_C 	C 	0.90181	0.74864	0.7829	0.07
Mof_H 	H 	0.9195	0.7506	0.8461	-0.03
Mof_C 	C 	0.73422	0.82667	0.5467	0.059
Mof_H 	H 	0.727	0.8354	0.4794	-0.001
Mof_C 	C 	0.77584	0.80426	0.5602	-0.114
Mof_H 	H 	0.7963	0.7978	0.5031	0.058
Mof_C 	C 	0.78752	0.79125	0.658	0.049
Mof_C 	C 	0.75512	0.80078	0.7381	-0.12
Mof_H 	H 	0.7612	0.7921	0.8059	0.071
Mof_C 	C 	0.71389	0.8232	0.7171	0.074
Mof_H 	H 	0.6919	0.8293	0.7721	0.002
Mof_Zn	Zn	0.64531	0.88106	0.58537	1.221
Mof_Zn	Zn	0.77311	0.9389	0.49499	1.169
Mof_O 	O 	0.69886	0.90371	0.49685	-0.546
Mof_O 	O 	0.62174	0.85079	0.46058	-0.449
Mof_O 	O 	0.60295	0.84185	0.2971	-0.277
Mof_O 	O 	0.59783	0.86004	0.68827	-0.5
Mof_O 	O 	0.6747	0.91632	0.69962	-0.447
Mof_O 	O 	0.70826	0.92129	0.85503	-0.271
Mof_N 	N 	0.73696	0.92623	0.36042	-0.315
Mof_N 	N 	0.55947	0.84836	0.83678	-0.302
Mof_N 	N 	0.83091	0.9752	0.46108	-0.275
Mof_N 	N 	0.04653	0.08671	0.37346	-0.212
Mof_C 	C 	0.6999	0.90408	0.3981	0.271
Mof_C 	C 	0.66827	0.88388	0.3305	-0.262
Mof_C 	C 	0.67587	0.88906	0.2252	0.135
Mof_H 	H 	0.6555	0.8758	0.1778	-0.009
Mof_C 	C 	0.71241	0.91312	0.1881	-0.203
Mof_H 	H 	0.7166	0.9171	0.1164	0.098
Mof_C 	C 	0.74244	0.93103	0.2591	0.12
Mof_H 	H 	0.7679	0.9474	0.2351	-0.023
Mof_C 	C 	0.62796	0.85711	0.3664	0.391
Mof_C 	C 	0.59714	0.86619	0.7847	0.281
Mof_C 	C 	0.63169	0.88845	0.8422	-0.237
Mof_C 	C 	0.62471	0.89183	0.9475	0.096
Mof_H 	H 	0.6482	0.9057	0.9868	0.019
Mof_C 	C 	0.58413	0.87543	0.9966	-0.105
Mof_H 	H 	0.5782	0.8791	0.0679	0.058
Mof_C 	C 	0.55269	0.85357	0.9377	0.069
Mof_H 	H 	0.525	0.8417	0.9702	0.009
Mof_C 	C 	0.67475	0.90995	0.7958	0.378
Mof_C 	C 	0.85565	0.97358	0.371	0.064
Mof_H 	H 	0.8438	0.957	0.3194	-0.006
Mof_C 	C 	0.89746	0.99495	0.3507	-0.115
Mof_H 	H 	0.9133	0.9936	0.2853	0.068
Mof_C 	C 	0.91649	0.01862	0.4263	0.052
Mof_C 	C 	0.89076	0.02018	0.5192	-0.123
Mof_H 	H 	0.9023	0.0359	0.5729	0.069
Mof_C 	C 	0.84819	0.99864	0.5329	0.07
Mof_H 	H 	0.8305	0.0006	0.5961	-0.032
Mof_C 	C 	0.01578	0.07667	0.2967	0.059
Mof_H 	H 	0.023	0.0854	0.2294	-0.002
Mof_C 	C 	0.97416	0.05426	0.3102	-0.114
Mof_H 	H 	0.9537	0.0478	0.2531	0.057
Mof_C 	C 	0.96248	0.04125	0.408	0.049
Mof_C 	C 	0.99488	0.05078	0.4881	-0.119
Mof_H 	H 	0.9888	0.0421	0.5559	0.069
Mof_C 	C 	0.03611	0.0732	0.4671	0.074
Mof_H 	H 	0.0581	0.0793	0.5221	0.002
Mof_Zn	Zn	0.14531	0.88106	0.08537	1.214
Mof_Zn	Zn	0.27311	0.9389	0.99499	1.175
Mof_O 	O 	0.19886	0.90371	0.99685	-0.531
Mof_O 	O 	0.12174	0.85079	0.96058	-0.434
Mof_O 	O 	0.10295	0.84185	0.7971	-0.269
Mof_O 	O 	0.09783	0.86004	0.18827	-0.506
Mof_O 	O 	0.1747	0.91632	0.19962	-0.456
Mof_O 	O 	0.20826	0.92129	0.35503	-0.28
Mof_N 	N 	0.23696	0.92623	0.86042	-0.312
Mof_N 	N 	0.05947	0.84836	0.33678	-0.311
Mof_N 	N 	0.33091	0.9752	0.96108	-0.264
Mof_N 	N 	0.54653	0.08671	0.87346	-0.212
Mof_C 	C 	0.1999	0.90408	0.8981	0.27
Mof_C 	C 	0.16827	0.88388	0.8305	-0.256
Mof_C 	C 	0.17587	0.88906	0.7252	0.135
Mof_H 	H 	0.1555	0.8758	0.6778	-0.003
Mof_C 	C 	0.21241	0.91312	0.6881	-0.2
Mof_H 	H 	0.2166	0.9171	0.6164	0.105
Mof_C 	C 	0.24244	0.93103	0.7591	0.122
Mof_H 	H 	0.2679	0.9474	0.7351	-0.021
Mof_C 	C 	0.12796	0.85711	0.8664	0.388
Mof_C 	C 	0.09714	0.86619	0.2847	0.29
Mof_C 	C 	0.13169	0.88845	0.3422	-0.258
Mof_C 	C 	0.12471	0.89183	0.4475	0.139
Mof_H 	H 	0.1482	0.9057	0.4868	-0.005
Mof_C 	C 	0.08413	0.87543	0.4966	-0.186
Mof_H 	H 	0.0782	0.8791	0.5679	0.103
Mof_C 	C 	0.05269	0.85357	0.4377	0.106
Mof_H 	H 	0.025	0.8417	0.4702	-0.011
Mof_C 	C 	0.17475	0.90995	0.2958	0.386
Mof_C 	C 	0.35565	0.97358	0.871	0.079
Mof_H 	H 	0.3438	0.957	0.8194	-0.01
Mof_C 	C 	0.39746	0.99495	0.8507	-0.136
Mof_H 	H 	0.4133	0.9936	0.7853	0.077
Mof_C 	C 	0.41649	0.01862	0.9263	0.098
Mof_C 	C 	0.39076	0.02018	0.0192	-0.168
Mof_H 	H 	0.4023	0.0359	0.0729	0.078
Mof_C 	C 	0.34819	0.99864	0.0329	0.059
Mof_H 	H 	0.3305	0.0006	0.0961	-0.034
Mof_C 	C 	0.51578	0.07667	0.7967	0.051
Mof_H 	H 	0.523	0.0854	0.7294	0.003
Mof_C 	C 	0.47416	0.05426	0.8102	-0.098
Mof_H 	H 	0.4537	0.0478	0.7531	0.053
Mof_C 	C 	0.46248	0.04125	0.908	0.021
Mof_C 	C 	0.49488	0.05078	0.9881	-0.072
Mof_H 	H 	0.4888	0.0421	0.0559	0.037
Mof_C 	C 	0.53611	0.0732	0.9671	0.095
Mof_H 	H 	0.5581	0.0793	0.0221	-0.022
Mof_Zn	Zn	0.89531	0.86894	0.33537	1.221
Mof_Zn	Zn	0.02311	0.8111	0.24499	1.168
Mof_O 	O 	0.94886	0.84629	0.24685	-0.547
Mof_O 	O 	0.87174	0.89921	0.21058	-0.451
Mof_O 	O 	0.85295	0.90815	0.0471	-0.287
Mof_O 	O 	0.84783	0.88996	0.43827	-0.502
Mof_O 	O 	0.9247	0.83368	0.44962	-0.45
Mof_O 	O 	0.95826	0.82871	0.60503	-0.278
Mof_N 	N 	0.98696	0.82377	0.11042	-0.302
Mof_N 	N 	0.80947	0.90164	0.58678	-0.31
Mof_N 	N 	0.08091	0.7748	0.21108	-0.277
Mof_N 	N 	0.29653	0.66329	0.12346	-0.204
Mof_C 	C 	0.9499	0.84592	0.1481	0.27
Mof_C 	C 	0.91827	0.86612	0.0805	-0.28
Mof_C 	C 	0.92587	0.86094	0.9752	0.143
Mof_H 	H 	0.9055	0.8742	0.9278	-0
Mof_C 	C 	0.96241	0.83688	0.9381	-0.137
Mof_H 	H 	0.9666	0.8329	0.8664	0.085
Mof_C 	C 	0.99244	0.81897	0.0091	0.026
Mof_H 	H 	0.0179	0.8026	0.9851	0.028
Mof_C 	C 	0.87796	0.89289	0.1164	0.394
Mof_C 	C 	0.84714	0.88381	0.5347	0.289
Mof_C 	C 	0.88169	0.86155	0.5922	-0.257
Mof_C 	C 	0.87471	0.85817	0.6975	0.139
Mof_H 	H 	0.8982	0.8443	0.7368	-0.004
Mof_C 	C 	0.83413	0.87457	0.7466	-0.186
Mof_H 	H 	0.8282	0.8709	0.8179	0.106
Mof_C 	C 	0.80269	0.89643	0.6877	0.107
Mof_H 	H 	0.775	0.9083	0.7202	-0.01
Mof_C 	C 	0.92475	0.84005	0.5458	0.385
Mof_C 	C 	0.10565	0.77642	0.121	0.066
Mof_H 	H 	0.0938	0.793	0.0694	-0.014
Mof_C 	C 	0.14746	0.75505	0.1007	-0.121
Mof_H 	H 	0.1633	0.7564	0.0353	0.067
Mof_C 	C 	0.16649	0.73138	0.1763	0.059
Mof_C 	C 	0.14076	0.72982	0.2692	-0.128
Mof_H 	H 	0.1523	0.7141	0.3229	0.07
Mof_C 	C 	0.09819	0.75136	0.2829	0.071
Mof_H 	H 	0.0805	0.7494	0.3461	-0.034
Mof_C 	C 	0.26578	0.67333	0.0467	-0
Mof_H 	H 	0.273	0.6646	0.9794	0.037
Mof_C 	C 	0.22416	0.69574	0.0602	-0.082
Mof_H 	H 	0.2037	0.7022	0.0031	0.04
Mof_C 	C 	0.21248	0.70875	0.158	0.033
Mof_C 	C 	0.24488	0.69922	0.2381	-0.108
Mof_H 	H 	0.2388	0.7079	0.3059	0.065
Mof_C 	C 	0.28611	0.6768	0.2171	0.067
Mof_H 	H 	0.3081	0.6707	0.2721	0.003
Mof_Zn	Zn	0.39531	0.86894	0.83537	1.221
Mof_Zn	Zn	0.52311	0.8111	0.74499	1.17
Mof_O 	O 	0.44886	0.84629	0.74685	-0.545
Mof_O 	O 	0.37174	0.89921	0.71058	-0.448
Mof_O 	O 	0.35295	0.90815	0.5471	-0.274
Mof_O 	O 	0.34783	0.88996	0.93827	-0.476
Mof_O 	O 	0.4247	0.83368	0.94962	-0.422
Mof_O 	O 	0.45826	0.82871	0.10503	-0.278
Mof_N 	N 	0.48696	0.82377	0.61042	-0.315
Mof_N 	N 	0.30947	0.90164	0.08678	-0.311
Mof_N 	N 	0.58091	0.7748	0.71108	-0.275
Mof_N 	N 	0.79653	0.66329	0.62346	-0.212
Mof_C 	C 	0.4499	0.84592	0.6481	0.272
Mof_C 	C 	0.41827	0.86612	0.5805	-0.261
Mof_C 	C 	0.42587	0.86094	0.4752	0.136
Mof_H 	H 	0.4055	0.8742	0.4278	-0.005
Mof_C 	C 	0.46241	0.83688	0.4381	-0.202
Mof_H 	H 	0.4666	0.8329	0.3664	0.104
Mof_C 	C 	0.49244	0.81897	0.5091	0.121
Mof_H 	H 	0.5179	0.8026	0.4851	-0.022
Mof_C 	C 	0.37796	0.89289	0.6164	0.39
Mof_C 	C 	0.34714	0.88381	0.0347	0.253
Mof_C 	C 	0.38169	0.86155	0.0922	-0.238
Mof_C 	C 	0.37471	0.85817	0.1975	0.125
Mof_H 	H 	0.3982	0.8443	0.2368	-0.001
Mof_C 	C 	0.33413	0.87457	0.2466	-0.177
Mof_H 	H 	0.3282	0.8709	0.3179	0.099
Mof_C 	C 	0.30269	0.89643	0.1877	0.1
Mof_H 	H 	0.275	0.9083	0.2202	-0.011
Mof_C 	C 	0.42475	0.84005	0.0458	0.348
Mof_C 	C 	0.60565	0.77642	0.621	0.065
Mof_H 	H 	0.5938	0.793	0.5694	-0.006
Mof_C 	C 	0.64746	0.75505	0.6007	-0.115
Mof_H 	H 	0.6633	0.7564	0.5353	0.069
Mof_C 	C 	0.66649	0.73138	0.6763	0.052
Mof_C 	C 	0.64076	0.72982	0.7692	-0.123
Mof_H 	H 	0.6523	0.7141	0.8229	0.071
Mof_C 	C 	0.59819	0.75136	0.7829	0.07
Mof_H 	H 	0.5805	0.7494	0.8461	-0.03
Mof_C 	C 	0.76578	0.67333	0.5467	0.059
Mof_H 	H 	0.773	0.6646	0.4794	-0.001
Mof_C 	C 	0.72416	0.69574	0.5602	-0.114
Mof_H 	H 	0.7037	0.7022	0.5031	0.058
Mof_C 	C 	0.71248	0.70875	0.658	0.049
Mof_C 	C 	0.74488	0.69922	0.7381	-0.12
Mof_H 	H 	0.7388	0.7079	0.8059	0.071
Mof_C 	C 	0.78611	0.6768	0.7171	0.074
Mof_H 	H 	0.8081	0.6707	0.7721	0.002
Mof_Zn	Zn	0.64531	0.38106	0.08537	1.214
Mof_Zn	Zn	0.77311	0.4389	0.99499	1.175
Mof_O 	O 	0.69886	0.40371	0.99685	-0.531
Mof_O 	O 	0.62174	0.35079	0.96058	-0.434
Mof_O 	O 	0.60295	0.34185	0.7971	-0.269
Mof_O 	O 	0.59783	0.36004	0.18827	-0.506
Mof_O 	O 	0.6747	0.41632	0.19962	-0.456
Mof_O 	O 	0.70826	0.42129	0.35503	-0.28
Mof_N 	N 	0.73696	0.42623	0.86042	-0.312
Mof_N 	N 	0.55947	0.34836	0.33678	-0.311
Mof_N 	N 	0.83091	0.4752	0.96108	-0.264
Mof_N 	N 	0.04653	0.58671	0.87346	-0.212
Mof_C 	C 	0.6999	0.40408	0.8981	0.27
Mof_C 	C 	0.66827	0.38388	0.8305	-0.256
Mof_C 	C 	0.67587	0.38906	0.7252	0.135
Mof_H 	H 	0.6555	0.3758	0.6778	-0.003
Mof_C 	C 	0.71241	0.41312	0.6881	-0.2
Mof_H 	H 	0.7166	0.4171	0.6164	0.105
Mof_C 	C 	0.74244	0.43103	0.7591	0.122
Mof_H 	H 	0.7679	0.4474	0.7351	-0.021
Mof_C 	C 	0.62796	0.35711	0.8664	0.388
Mof_C 	C 	0.59714	0.36619	0.2847	0.29
Mof_C 	C 	0.63169	0.38845	0.3422	-0.258
Mof_C 	C 	0.62471	0.39183	0.4475	0.139
Mof_H 	H 	0.6482	0.4057	0.4868	-0.005
Mof_C 	C 	0.58413	0.37543	0.4966	-0.186
Mof_H 	H 	0.5782	0.3791	0.5679	0.103
Mof_C 	C 	0.55269	0.35357	0.4377	0.106
Mof_H 	H 	0.525	0.3417	0.4702	-0.011
Mof_C 	C 	0.67475	0.40995	0.2958	0.386
Mof_C 	C 	0.85565	0.47358	0.871	0.079
Mof_H 	H 	0.8438	0.457	0.8194	-0.01
Mof_C 	C 	0.89746	0.49495	0.8507	-0.136
Mof_H 	H 	0.9133	0.4936	0.7853	0.077
Mof_C 	C 	0.91649	0.51862	0.9263	0.098
Mof_C 	C 	0.89076	0.52018	0.0192	-0.168
Mof_H 	H 	0.9023	0.5359	0.0729	0.078
Mof_C 	C 	0.84819	0.49864	0.0329	0.059
Mof_H 	H 	0.8305	0.5006	0.0961	-0.034
Mof_C 	C 	0.01578	0.57667	0.7967	0.051
Mof_H 	H 	0.023	0.5854	0.7294	0.003
Mof_C 	C 	0.97416	0.55426	0.8102	-0.098
Mof_H 	H 	0.9537	0.5478	0.7531	0.053
Mof_C 	C 	0.96248	0.54125	0.908	0.021
Mof_C 	C 	0.99488	0.55078	0.9881	-0.072
Mof_H 	H 	0.9888	0.5421	0.0559	0.037
Mof_C 	C 	0.03611	0.5732	0.9671	0.095
Mof_H 	H 	0.0581	0.5793	0.0221	-0.022
Mof_Zn	Zn	0.14531	0.38106	0.58537	1.221
Mof_Zn	Zn	0.27311	0.4389	0.49499	1.169
Mof_O 	O 	0.19886	0.40371	0.49685	-0.546
Mof_O 	O 	0.12174	0.35079	0.46058	-0.449
Mof_O 	O 	0.10295	0.34185	0.2971	-0.277
Mof_O 	O 	0.09783	0.36004	0.68827	-0.5
Mof_O 	O 	0.1747	0.41632	0.69962	-0.447
Mof_O 	O 	0.20826	0.42129	0.85503	-0.271
Mof_N 	N 	0.23696	0.42623	0.36042	-0.315
Mof_N 	N 	0.05947	0.34836	0.83678	-0.302
Mof_N 	N 	0.33091	0.4752	0.46108	-0.275
Mof_N 	N 	0.54653	0.58671	0.37346	-0.212
Mof_C 	C 	0.1999	0.40408	0.3981	0.271
Mof_C 	C 	0.16827	0.38388	0.3305	-0.262
Mof_C 	C 	0.17587	0.38906	0.2252	0.135
Mof_H 	H 	0.1555	0.3758	0.1778	-0.009
Mof_C 	C 	0.21241	0.41312	0.1881	-0.203
Mof_H 	H 	0.2166	0.4171	0.1164	0.098
Mof_C 	C 	0.24244	0.43103	0.2591	0.12
Mof_H 	H 	0.2679	0.4474	0.2351	-0.023
Mof_C 	C 	0.12796	0.35711	0.3664	0.391
Mof_C 	C 	0.09714	0.36619	0.7847	0.281
Mof_C 	C 	0.13169	0.38845	0.8422	-0.237
Mof_C 	C 	0.12471	0.39183	0.9475	0.096
Mof_H 	H 	0.1482	0.4057	0.9868	0.019
Mof_C 	C 	0.08413	0.37543	0.9966	-0.106
Mof_H 	H 	0.0782	0.3791	0.0679	0.058
Mof_C 	C 	0.05269	0.35357	0.9377	0.069
Mof_H 	H 	0.025	0.3417	0.9702	0.009
Mof_C 	C 	0.17475	0.40995	0.7958	0.378
Mof_C 	C 	0.35565	0.47358	0.371	0.064
Mof_H 	H 	0.3438	0.457	0.3194	-0.006
Mof_C 	C 	0.39746	0.49495	0.3507	-0.115
Mof_H 	H 	0.4133	0.4936	0.2853	0.068
Mof_C 	C 	0.41649	0.51862	0.4263	0.052
Mof_C 	C 	0.39076	0.52018	0.5192	-0.123
Mof_H 	H 	0.4023	0.5359	0.5729	0.069
Mof_C 	C 	0.34819	0.49864	0.5329	0.07
Mof_H 	H 	0.3305	0.5006	0.5961	-0.032
Mof_C 	C 	0.51578	0.57667	0.2967	0.058
Mof_H 	H 	0.523	0.5854	0.2294	-0.002
Mof_C 	C 	0.47416	0.55426	0.3102	-0.114
Mof_H 	H 	0.4537	0.5478	0.2531	0.057
Mof_C 	C 	0.46248	0.54125	0.408	0.049
Mof_C 	C 	0.49488	0.55078	0.4881	-0.119
Mof_H 	H 	0.4888	0.5421	0.5559	0.069
Mof_C 	C 	0.53611	0.5732	0.4671	0.074
Mof_H 	H 	0.5581	0.5793	0.5221	0.002
Mof_Zn	Zn	0.89531	0.36894	0.83537	1.221
Mof_Zn	Zn	0.02311	0.3111	0.74499	1.17
Mof_O 	O 	0.94886	0.34629	0.74685	-0.545
Mof_O 	O 	0.87174	0.39921	0.71058	-0.448
Mof_O 	O 	0.85295	0.40815	0.5471	-0.274
Mof_O 	O 	0.84783	0.38996	0.93827	-0.476
Mof_O 	O 	0.9247	0.33368	0.94962	-0.423
Mof_O 	O 	0.95826	0.32871	0.10503	-0.278
Mof_N 	N 	0.98696	0.32377	0.61042	-0.315
Mof_N 	N 	0.80947	0.40164	0.08678	-0.311
Mof_N 	N 	0.08091	0.2748	0.71108	-0.275
Mof_N 	N 	0.29653	0.16329	0.62346	-0.212
Mof_C 	C 	0.9499	0.34592	0.6481	0.272
Mof_C 	C 	0.91827	0.36612	0.5805	-0.261
Mof_C 	C 	0.92587	0.36094	0.4752	0.136
Mof_H 	H 	0.9055	0.3742	0.4278	-0.005
Mof_C 	C 	0.96241	0.33688	0.4381	-0.202
Mof_H 	H 	0.9666	0.3329	0.3664	0.104
Mof_C 	C 	0.99244	0.31897	0.5091	0.121
Mof_H 	H 	0.0179	0.3026	0.4851	-0.022
Mof_C 	C 	0.87796	0.39289	0.6164	0.39
Mof_C 	C 	0.84714	0.38381	0.0347	0.253
Mof_C 	C 	0.88169	0.36155	0.0922	-0.238
Mof_C 	C 	0.87471	0.35817	0.1975	0.125
Mof_H 	H 	0.8982	0.3443	0.2368	-0.001
Mof_C 	C 	0.83413	0.37457	0.2466	-0.177
Mof_H 	H 	0.8282	0.3709	0.3179	0.099
Mof_C 	C 	0.80269	0.39643	0.1877	0.1
Mof_H 	H 	0.775	0.4083	0.2202	-0.011
Mof_C 	C 	0.92475	0.34005	0.0458	0.348
Mof_C 	C 	0.10565	0.27642	0.621	0.065
Mof_H 	H 	0.0938	0.293	0.5694	-0.006
Mof_C 	C 	0.14746	0.25505	0.6007	-0.115
Mof_H 	H 	0.1633	0.2564	0.5353	0.069
Mof_C 	C 	0.16649	0.23138	0.6763	0.052
Mof_C 	C 	0.14076	0.22982	0.7692	-0.123
Mof_H 	H 	0.1523	0.2141	0.8229	0.071
Mof_C 	C 	0.09819	0.25136	0.7829	0.07
Mof_H 	H 	0.0805	0.2494	0.8461	-0.03
Mof_C 	C 	0.26578	0.17333	0.5467	0.059
Mof_H 	H 	0.273	0.1646	0.4794	-0.001
Mof_C 	C 	0.22416	0.19574	0.5602	-0.114
Mof_H 	H 	0.2037	0.2022	0.5031	0.058
Mof_C 	C 	0.21248	0.20875	0.658	0.049
Mof_C 	C 	0.24488	0.19922	0.7381	-0.12
Mof_H 	H 	0.2388	0.2079	0.8059	0.071
Mof_C 	C 	0.28611	0.1768	0.7171	0.074
Mof_H 	H 	0.3081	0.1707	0.7721	0.002
Mof_Zn	Zn	0.39531	0.36894	0.33537	1.221
Mof_Zn	Zn	0.52311	0.3111	0.24499	1.168
Mof_O 	O 	0.44886	0.34629	0.24685	-0.547
Mof_O 	O 	0.37174	0.39921	0.21058	-0.451
Mof_O 	O 	0.35295	0.40815	0.0471	-0.287
Mof_O 	O 	0.34783	0.38996	0.43827	-0.502
Mof_O 	O 	0.4247	0.33368	0.44962	-0.45
Mof_O 	O 	0.45826	0.32871	0.60503	-0.278
Mof_N 	N 	0.48696	0.32377	0.11042	-0.302
Mof_N 	N 	0.30947	0.40164	0.58678	-0.31
Mof_N 	N 	0.58091	0.2748	0.21108	-0.277
Mof_N 	N 	0.79653	0.16329	0.12346	-0.204
Mof_C 	C 	0.4499	0.34592	0.1481	0.27
Mof_C 	C 	0.41827	0.36612	0.0805	-0.28
Mof_C 	C 	0.42587	0.36094	0.9752	0.143
Mof_H 	H 	0.4055	0.3742	0.9278	-0
Mof_C 	C 	0.46241	0.33688	0.9381	-0.136
Mof_H 	H 	0.4666	0.3329	0.8664	0.085
Mof_C 	C 	0.49244	0.31897	0.0091	0.025
Mof_H 	H 	0.5179	0.3026	0.9851	0.028
Mof_C 	C 	0.37796	0.39289	0.1164	0.394
Mof_C 	C 	0.34714	0.38381	0.5347	0.289
Mof_C 	C 	0.38169	0.36155	0.5922	-0.257
Mof_C 	C 	0.37471	0.35817	0.6975	0.139
Mof_H 	H 	0.3982	0.3443	0.7368	-0.004
Mof_C 	C 	0.33413	0.37457	0.7466	-0.186
Mof_H 	H 	0.3282	0.3709	0.8179	0.106
Mof_C 	C 	0.30269	0.39643	0.6877	0.107
Mof_H 	H 	0.275	0.4083	0.7202	-0.01
Mof_C 	C 	0.42475	0.34005	0.5458	0.385
Mof_C 	C 	0.60565	0.27642	0.121	0.066
Mof_H 	H 	0.5938	0.293	0.0694	-0.014
Mof_C 	C 	0.64746	0.25505	0.1007	-0.121
Mof_H 	H 	0.6633	0.2564	0.0353	0.067
Mof_C 	C 	0.66649	0.23138	0.1763	0.059
Mof_C 	C 	0.64076	0.22982	0.2692	-0.128
Mof_H 	H 	0.6523	0.2141	0.3229	0.07
Mof_C 	C 	0.59819	0.25136	0.2829	0.071
Mof_H 	H 	0.5805	0.2494	0.3461	-0.034
Mof_C 	C 	0.76578	0.17333	0.0467	-0
Mof_H 	H 	0.773	0.1646	0.9794	0.037
Mof_C 	C 	0.72416	0.19574	0.0602	-0.082
Mof_H 	H 	0.7037	0.2022	0.0031	0.04
Mof_C 	C 	0.71248	0.20875	0.158	0.033
Mof_C 	C 	0.74488	0.19922	0.2381	-0.108
Mof_H 	H 	0.7388	0.2079	0.3059	0.065
Mof_C 	C 	0.78611	0.1768	0.2171	0.067
Mof_H 	H 	0.8081	0.1707	0.2721	0.003
_end
