data_functionalizedCrystal
_audit_creation_method	'EQeq! by Chris Wilmer'
_symmetry_space_group_name_H-M	'P1'
_symmetry_Int_Tables_number	1
_symmetry_cell_setting	triclinic
loop_
_symmetry_equiv_pos_as_xyz
  x,y,z
_cell_length_a	6.4232
_cell_length_b	15.4953
_cell_length_c	23.7594
_cell_angle_alpha	90
_cell_angle_beta	90
_cell_angle_gamma	99.749
loop_
_atom_site_label
_atom_site_type_symbol
_atom_site_fract_x
_atom_site_fract_y
_atom_site_fract_z
_atom_site_charge
Mof_Cd	Cd	0.73437	0.96983	0.46594	0.488
Mof_Cd	Cd	0.26563	0.53017	0.96594	0.489
Mof_Cd	Cd	0.26563	0.03017	0.53406	0.488
Mof_Cd	Cd	0.73437	0.46983	0.03406	0.489
Mof_H 	H 	0.1595	0.0946	0.3273	0.142
Mof_H 	H 	0.054	0.3675	0.2669	0.08
Mof_H 	H 	0.5904	0.3004	0.4093	0.028
Mof_H 	H 	0.6407	0.3973	0.2726	0.01
Mof_H 	H 	0.6664	0.5476	0.2577	0.225
Mof_H 	H 	0.9907	0.5937	0.4013	0.206
Mof_H 	H 	0.984	0.4444	0.4121	-0.003
Mof_H 	H 	0.297	0.4368	0.2229	0.075
Mof_H 	H 	0.1704	0.3917	0.1712	0.093
Mof_H 	H 	0.4354	0.4996	0.1375	0.064
Mof_H 	H 	0.6069	0.4605	0.1715	0.057
Mof_H 	H 	0.6898	0.3185	0.1433	0.089
Mof_H 	H 	0.5791	0.2719	0.0899	0.079
Mof_H 	H 	0.2552	0.2489	0.1369	0.106
Mof_H 	H 	0.4209	0.2058	0.1707	0.138
Mof_H 	H 	0.5063	0.4076	0.0673	0.104
Mof_H 	H 	0.8405	0.4054	0.8273	0.141
Mof_H 	H 	0.946	0.1325	0.7669	0.078
Mof_H 	H 	0.4096	0.1996	0.9093	0.027
Mof_H 	H 	0.3593	0.1027	0.7726	0.011
Mof_H 	H 	0.3336	0.9524	0.7577	0.223
Mof_H 	H 	0.0093	0.9063	0.9013	0.204
Mof_H 	H 	0.016	0.0556	0.9121	-0.001
Mof_H 	H 	0.703	0.0632	0.7229	0.075
Mof_H 	H 	0.8296	0.1083	0.6712	0.093
Mof_H 	H 	0.5646	0.0004	0.6375	0.064
Mof_H 	H 	0.3931	0.0395	0.6715	0.057
Mof_H 	H 	0.3102	0.1815	0.6433	0.088
Mof_H 	H 	0.4209	0.2281	0.5899	0.079
Mof_H 	H 	0.7448	0.2511	0.6369	0.106
Mof_H 	H 	0.5791	0.2942	0.6707	0.138
Mof_H 	H 	0.4937	0.0924	0.5673	0.104
Mof_H 	H 	0.8405	0.9054	0.6727	0.141
Mof_H 	H 	0.946	0.6325	0.7331	0.079
Mof_H 	H 	0.4096	0.6996	0.5907	0.028
Mof_H 	H 	0.3593	0.6027	0.7274	0.01
Mof_H 	H 	0.3336	0.4524	0.7423	0.225
Mof_H 	H 	0.0093	0.4063	0.5987	0.206
Mof_H 	H 	0.016	0.5556	0.5879	-0.003
Mof_H 	H 	0.703	0.5632	0.7771	0.075
Mof_H 	H 	0.8296	0.6083	0.8288	0.093
Mof_H 	H 	0.5646	0.5004	0.8625	0.064
Mof_H 	H 	0.3931	0.5395	0.8285	0.057
Mof_H 	H 	0.3102	0.6815	0.8567	0.089
Mof_H 	H 	0.4209	0.7281	0.9101	0.079
Mof_H 	H 	0.7448	0.7511	0.8631	0.106
Mof_H 	H 	0.5791	0.7942	0.8293	0.138
Mof_H 	H 	0.4937	0.5924	0.9327	0.104
Mof_H 	H 	0.1595	0.5946	0.1727	0.141
Mof_H 	H 	0.054	0.8675	0.2331	0.078
Mof_H 	H 	0.5904	0.8004	0.0907	0.027
Mof_H 	H 	0.6407	0.8973	0.2274	0.011
Mof_H 	H 	0.6664	0.0476	0.2423	0.223
Mof_H 	H 	0.9907	0.0937	0.0987	0.204
Mof_H 	H 	0.984	0.9444	0.0879	-0.001
Mof_H 	H 	0.297	0.9368	0.2771	0.075
Mof_H 	H 	0.1704	0.8917	0.3288	0.093
Mof_H 	H 	0.4354	0.9996	0.3625	0.064
Mof_H 	H 	0.6069	0.9605	0.3285	0.057
Mof_H 	H 	0.6898	0.8185	0.3567	0.088
Mof_H 	H 	0.5791	0.7719	0.4101	0.079
Mof_H 	H 	0.2552	0.7489	0.3631	0.106
Mof_H 	H 	0.4209	0.7058	0.3293	0.138
Mof_H 	H 	0.5063	0.9076	0.4327	0.104
Mof_C 	C 	0.5343	0.1519	0.45373	0.347
Mof_C 	C 	0.6882	0.18607	0.40818	-0.154
Mof_C 	C 	0.8418	0.13972	0.38352	0.205
Mof_C 	C 	0.9771	0.1874	0.34083	0.002
Mof_C 	C 	0.1371	0.1497	0.31583	-0.195
Mof_C 	C 	0.2603	0.1934	0.27483	0.337
Mof_C 	C 	0.2286	0.2744	0.2526	0.002
Mof_C 	C 	0.077	0.3128	0.27907	-0.08
Mof_C 	C 	0.9561	0.27189	0.32381	0.1
Mof_C 	C 	0.6856	0.2705	0.3915	0.102
Mof_C 	C 	0.8113	0.40671	0.34374	-0.054
Mof_C 	C 	0.8251	0.5814	0.33	0.55
Mof_C 	C 	0.7141	0.4369	0.298	0.136
Mof_C 	C 	0.7248	0.5261	0.2895	-0.379
Mof_C 	C 	0.922	0.5541	0.3752	-0.397
Mof_C 	C 	0.9159	0.465	0.3816	0.151
Mof_C 	C 	0.306	0.4001	0.19017	-0.093
Mof_C 	C 	0.4757	0.4455	0.1507	-0.019
Mof_C 	C 	0.5591	0.3084	0.12199	-0.025
Mof_C 	C 	0.3851	0.2611	0.15848	-0.102
Mof_C 	C 	0.4657	0.3481	0.95373	0.347
Mof_C 	C 	0.3118	0.31393	0.90818	-0.154
Mof_C 	C 	0.1582	0.36028	0.88352	0.206
Mof_C 	C 	0.0229	0.3126	0.84083	-0
Mof_C 	C 	0.8629	0.3503	0.81583	-0.192
Mof_C 	C 	0.7397	0.3066	0.77483	0.337
Mof_C 	C 	0.7714	0.2256	0.7526	0.002
Mof_C 	C 	0.923	0.1872	0.77907	-0.078
Mof_C 	C 	0.0439	0.22811	0.82381	0.099
Mof_C 	C 	0.3144	0.2295	0.8915	0.102
Mof_C 	C 	0.1887	0.09329	0.84374	-0.05
Mof_C 	C 	0.1749	0.9186	0.83	0.546
Mof_C 	C 	0.2859	0.0631	0.798	0.13
Mof_C 	C 	0.2752	0.9739	0.7895	-0.373
Mof_C 	C 	0.078	0.9459	0.8752	-0.39
Mof_C 	C 	0.0841	0.035	0.8816	0.144
Mof_C 	C 	0.694	0.0999	0.69017	-0.093
Mof_C 	C 	0.5243	0.0545	0.6507	-0.019
Mof_C 	C 	0.4409	0.1916	0.62199	-0.025
Mof_C 	C 	0.6149	0.2389	0.65848	-0.102
Mof_C 	C 	0.4657	0.8481	0.54627	0.347
Mof_C 	C 	0.3118	0.81393	0.59182	-0.154
Mof_C 	C 	0.1582	0.86028	0.61648	0.205
Mof_C 	C 	0.0229	0.8126	0.65917	0.002
Mof_C 	C 	0.8629	0.8503	0.68417	-0.195
Mof_C 	C 	0.7397	0.8066	0.72517	0.337
Mof_C 	C 	0.7714	0.7256	0.7474	0.002
Mof_C 	C 	0.923	0.6872	0.72093	-0.08
Mof_C 	C 	0.0439	0.72811	0.67619	0.1
Mof_C 	C 	0.3144	0.7295	0.6085	0.102
Mof_C 	C 	0.1887	0.59329	0.65626	-0.054
Mof_C 	C 	0.1749	0.4186	0.67	0.55
Mof_C 	C 	0.2859	0.5631	0.702	0.136
Mof_C 	C 	0.2752	0.4739	0.7105	-0.379
Mof_C 	C 	0.078	0.4459	0.6248	-0.397
Mof_C 	C 	0.0841	0.535	0.6184	0.151
Mof_C 	C 	0.694	0.5999	0.80983	-0.093
Mof_C 	C 	0.5243	0.5545	0.8493	-0.019
Mof_C 	C 	0.4409	0.6916	0.87801	-0.025
Mof_C 	C 	0.6149	0.7389	0.84152	-0.102
Mof_C 	C 	0.5343	0.6519	0.04627	0.347
Mof_C 	C 	0.6882	0.68607	0.09182	-0.154
Mof_C 	C 	0.8418	0.63972	0.11648	0.206
Mof_C 	C 	0.9771	0.6874	0.15917	-0
Mof_C 	C 	0.1371	0.6497	0.18417	-0.192
Mof_C 	C 	0.2603	0.6934	0.22517	0.337
Mof_C 	C 	0.2286	0.7744	0.2474	0.002
Mof_C 	C 	0.077	0.8128	0.22093	-0.078
Mof_C 	C 	0.9561	0.77189	0.17619	0.099
Mof_C 	C 	0.6856	0.7705	0.1085	0.102
Mof_C 	C 	0.8113	0.90671	0.15626	-0.05
Mof_C 	C 	0.8251	0.0814	0.17	0.546
Mof_C 	C 	0.7141	0.9369	0.202	0.13
Mof_C 	C 	0.7248	0.0261	0.2105	-0.373
Mof_C 	C 	0.922	0.0541	0.1248	-0.39
Mof_C 	C 	0.9159	0.965	0.1184	0.144
Mof_C 	C 	0.306	0.9001	0.30983	-0.093
Mof_C 	C 	0.4757	0.9455	0.3493	-0.019
Mof_C 	C 	0.5591	0.8084	0.37801	-0.025
Mof_C 	C 	0.3851	0.7611	0.34152	-0.102
Mof_N 	N 	0.5119	0.39215	0.10195	-0.158
Mof_N 	N 	0.3528	0.31489	0.20839	-0.059
Mof_N 	N 	0.8099	0.31345	0.35134	-0.125
Mof_N 	N 	0.4881	0.10785	0.60195	-0.158
Mof_N 	N 	0.6472	0.18511	0.70839	-0.058
Mof_N 	N 	0.1901	0.18655	0.85134	-0.125
Mof_N 	N 	0.4881	0.60785	0.89805	-0.158
Mof_N 	N 	0.6472	0.68511	0.79161	-0.059
Mof_N 	N 	0.1901	0.68655	0.64866	-0.125
Mof_N 	N 	0.5119	0.89215	0.39805	-0.158
Mof_N 	N 	0.3528	0.81489	0.29161	-0.058
Mof_N 	N 	0.8099	0.81345	0.14866	-0.125
Mof_Cl	Cl	0.05606	0.89828	0.46595	-0.348
Mof_Cl	Cl	0.94394	0.60172	0.96595	-0.349
Mof_Cl	Cl	0.94394	0.10172	0.53405	-0.348
Mof_Cl	Cl	0.05606	0.39828	0.03405	-0.349
Mof_O 	O 	0.4885	0.06842	0.46063	-0.291
Mof_O 	O 	0.4588	0.20436	0.48348	-0.247
Mof_O 	O 	0.8671	0.06357	0.39554	-0.236
Mof_O 	O 	0.5115	0.43158	0.96063	-0.291
Mof_O 	O 	0.5412	0.29564	0.98348	-0.247
Mof_O 	O 	0.1329	0.43643	0.89554	-0.237
Mof_O 	O 	0.5115	0.93158	0.53937	-0.291
Mof_O 	O 	0.5412	0.79564	0.51652	-0.247
Mof_O 	O 	0.1329	0.93643	0.60446	-0.236
Mof_O 	O 	0.4885	0.56842	0.03937	-0.291
Mof_O 	O 	0.4588	0.70436	0.01652	-0.247
Mof_O 	O 	0.8671	0.56357	0.10446	-0.237
Mof_F 	F 	0.426	0.15673	0.25626	-0.459
Mof_F 	F 	0.833	0.66844	0.32259	-0.491
Mof_F 	F 	0.574	0.34327	0.75626	-0.459
Mof_F 	F 	0.167	0.83156	0.82259	-0.489
Mof_F 	F 	0.574	0.84327	0.74374	-0.459
Mof_F 	F 	0.167	0.33156	0.67741	-0.491
Mof_F 	F 	0.426	0.65673	0.24374	-0.459
Mof_F 	F 	0.833	0.16844	0.17741	-0.489
_end
