data_functionalizedCrystal
_audit_creation_method	'EQeq! by Chris Wilmer'
_symmetry_space_group_name_H-M	'P1'
_symmetry_Int_Tables_number	1
_symmetry_cell_setting	triclinic
loop_
_symmetry_equiv_pos_as_xyz
  x,y,z
_cell_length_a	26.2621
_cell_length_b	26.2621
_cell_length_c	5.1856
_cell_angle_alpha	90
_cell_angle_beta	90
_cell_angle_gamma	90
loop_
_atom_site_label
_atom_site_type_symbol
_atom_site_fract_x
_atom_site_fract_y
_atom_site_fract_z
_atom_site_charge
Mof_Zn	Zn	0.27158	0.21492	0.8949	1.223
Mof_O 	O 	0.223	0.2598	0.0523	-0.799
Mof_H 	H 	0.2022	0.2708	0.9399	0.294
Mof_N 	N 	0.2461	0.1425	0.901	-0.284
Mof_C 	C 	0.2617	0.1062	0.0535	0.115
Mof_H 	H 	0.2868	0.111	0.1772	-0.02
Mof_N 	N 	0.238	0.0608	0.0165	-0.163
Mof_C 	C 	0.2097	0.122	0.7511	0.063
Mof_O 	O 	0.2732	0.8342	0.4	-0.496
Mof_C 	C 	0.1808	0.144	0.5576	-0.147
Mof_H 	H 	0.1852	0.1779	0.5125	0.049
Mof_O 	O 	0.3111	0.8775	0.724	-0.239
Mof_C 	C 	0.145	0.1135	0.4322	0.053
Mof_C 	C 	0.1155	0.1337	0.2367	-0.097
Mof_H 	H 	0.1197	0.1677	0.1921	0.06
Mof_C 	C 	0.0797	0.1048	0.1047	-0.013
Mof_H 	H 	0.0602	0.1189	0.9732	0.026
Mof_C 	C 	0.0738	0.054	0.1748	-0.037
Mof_H 	H 	0.05	0.0339	0.0897	0.037
Mof_C 	C 	0.1032	0.0328	0.3705	-0.082
Mof_H 	H 	0.0988	0.9988	0.4153	0.058
Mof_C 	C 	0.1394	0.0625	0.501	0.035
Mof_C 	C 	0.1683	0.0405	0.6958	-0.122
Mof_H 	H 	0.164	0.0065	0.7418	0.072
Mof_C 	C 	0.2037	0.0712	0.819	0.064
Mof_C 	C 	0.2519	0.0129	0.1305	0.169
Mof_C 	C 	0.2801	0.9233	0.363	-0.138
Mof_C 	C 	0.2717	0.0129	0.377	0.049
Mof_H 	H 	0.2755	0.0436	0.4642	0.019
Mof_C 	C 	0.2859	0.9684	0.4983	-0.115
Mof_H 	H 	0.299	0.9686	0.665	0.086
Mof_C 	C 	0.26	0.9215	0.117	0.013
Mof_H 	H 	0.2558	0.8907	0.0315	0.034
Mof_C 	C 	0.2464	0.9669	0.0032	-0.068
Mof_H 	H 	0.2333	0.9666	0.8367	0.058
Mof_C 	C 	0.2926	0.8747	0.494	0.391
Mof_O 	O 	0.3442	0.8664	0.556	-0.19
Mof_C 	C 	0.3016	0.0062	0.205	-0.25
Mof_H 	H 	0.3251	0.0321	0.1765	0.126
Mof_C 	C 	0.3173	0.961	0.324	0.174
Mof_H 	H 	0.3509	0.9561	0.375	-0.012
Mof_C 	C 	0.2288	0.9271	0.291	0.05
Mof_H 	H 	0.205	0.9013	0.3172	0.012
Mof_C 	C 	0.2172	0.9739	0.175	-0.137
Mof_H 	H 	0.1836	0.9792	0.1245	0.075
Mof_Zn	Zn	0.77158	0.71492	0.3949	1.226
Mof_O 	O 	0.723	0.7598	0.5523	-0.817
Mof_H 	H 	0.7022	0.7708	0.4399	0.309
Mof_N 	N 	0.7461	0.6425	0.401	-0.276
Mof_C 	C 	0.7617	0.6062	0.5535	0.107
Mof_H 	H 	0.7868	0.611	0.6772	-0.019
Mof_N 	N 	0.738	0.5608	0.5165	-0.165
Mof_C 	C 	0.7097	0.622	0.2511	0.05
Mof_O 	O 	0.7732	0.3342	0.9	-0.495
Mof_C 	C 	0.6808	0.644	0.0576	-0.116
Mof_H 	H 	0.6852	0.6779	0.0125	0.041
Mof_O 	O 	0.8111	0.3775	0.224	-0.245
Mof_C 	C 	0.645	0.6135	0.9322	0.012
Mof_C 	C 	0.6155	0.6337	0.7367	-0.062
Mof_H 	H 	0.6197	0.6677	0.6921	0.045
Mof_C 	C 	0.5797	0.6048	0.6047	-0.051
Mof_H 	H 	0.5602	0.6189	0.4732	0.042
Mof_C 	C 	0.5738	0.554	0.6748	-0.004
Mof_H 	H 	0.55	0.5339	0.5897	0.026
Mof_C 	C 	0.6032	0.5328	0.8705	-0.116
Mof_H 	H 	0.5988	0.4988	0.9153	0.07
Mof_C 	C 	0.6394	0.5625	0.001	0.071
Mof_C 	C 	0.6683	0.5405	0.1958	-0.144
Mof_H 	H 	0.664	0.5065	0.2418	0.08
Mof_C 	C 	0.7037	0.5712	0.319	0.079
Mof_C 	C 	0.7519	0.5129	0.6305	0.167
Mof_C 	C 	0.7801	0.4233	0.863	-0.14
Mof_C 	C 	0.7717	0.5129	0.877	0.008
Mof_H 	H 	0.7755	0.5436	0.9642	0.031
Mof_C 	C 	0.7859	0.4684	0.9983	-0.079
Mof_H 	H 	0.799	0.4686	0.165	0.074
Mof_C 	C 	0.76	0.4215	0.617	0.041
Mof_H 	H 	0.7558	0.3907	0.5315	0.028
Mof_C 	C 	0.7464	0.4669	0.5032	-0.089
Mof_H 	H 	0.7333	0.4666	0.3367	0.063
Mof_C 	C 	0.7926	0.3747	0.994	0.399
Mof_O 	O 	0.8442	0.3664	0.056	-0.194
Mof_C 	C 	0.8016	0.5062	0.705	-0.209
Mof_H 	H 	0.8251	0.5321	0.6765	0.112
Mof_C 	C 	0.8173	0.461	0.824	0.139
Mof_H 	H 	0.8509	0.4561	0.875	0
Mof_C 	C 	0.7288	0.4271	0.791	0.023
Mof_H 	H 	0.705	0.4013	0.8172	0.023
Mof_C 	C 	0.7172	0.4739	0.675	-0.11
Mof_H 	H 	0.6836	0.4792	0.6245	0.066
Mof_Zn	Zn	0.72842	0.78508	0.8949	1.224
Mof_O 	O 	0.777	0.7402	0.0523	-0.798
Mof_H 	H 	0.7978	0.7292	0.9399	0.295
Mof_N 	N 	0.7539	0.8575	0.901	-0.283
Mof_C 	C 	0.7383	0.8938	0.0535	0.115
Mof_H 	H 	0.7132	0.889	0.1772	-0.02
Mof_N 	N 	0.762	0.9392	0.0165	-0.163
Mof_C 	C 	0.7903	0.878	0.7511	0.063
Mof_O 	O 	0.7268	0.1658	0.4	-0.496
Mof_C 	C 	0.8192	0.856	0.5576	-0.147
Mof_H 	H 	0.8148	0.8221	0.5125	0.049
Mof_O 	O 	0.6889	0.1225	0.724	-0.239
Mof_C 	C 	0.855	0.8865	0.4322	0.053
Mof_C 	C 	0.8845	0.8663	0.2367	-0.097
Mof_H 	H 	0.8803	0.8323	0.1921	0.06
Mof_C 	C 	0.9203	0.8952	0.1047	-0.013
Mof_H 	H 	0.9398	0.8811	0.9732	0.026
Mof_C 	C 	0.9262	0.946	0.1748	-0.037
Mof_H 	H 	0.95	0.9661	0.0897	0.037
Mof_C 	C 	0.8968	0.9672	0.3705	-0.082
Mof_H 	H 	0.9012	0.0012	0.4153	0.058
Mof_C 	C 	0.8606	0.9375	0.501	0.035
Mof_C 	C 	0.8317	0.9595	0.6958	-0.122
Mof_H 	H 	0.836	0.9935	0.7418	0.072
Mof_C 	C 	0.7963	0.9288	0.819	0.064
Mof_C 	C 	0.7481	0.9871	0.1305	0.169
Mof_C 	C 	0.7199	0.0767	0.363	-0.138
Mof_C 	C 	0.7283	0.9871	0.377	0.049
Mof_H 	H 	0.7245	0.9564	0.4642	0.019
Mof_C 	C 	0.7141	0.0316	0.4983	-0.115
Mof_H 	H 	0.701	0.0314	0.665	0.086
Mof_C 	C 	0.74	0.0785	0.117	0.013
Mof_H 	H 	0.7442	0.1093	0.0315	0.034
Mof_C 	C 	0.7536	0.0331	0.0032	-0.068
Mof_H 	H 	0.7667	0.0334	0.8367	0.058
Mof_C 	C 	0.7074	0.1253	0.494	0.391
Mof_O 	O 	0.6558	0.1336	0.556	-0.19
Mof_C 	C 	0.6984	0.9938	0.205	-0.25
Mof_H 	H 	0.6749	0.9679	0.1765	0.126
Mof_C 	C 	0.6827	0.039	0.324	0.174
Mof_H 	H 	0.6491	0.0439	0.375	-0.012
Mof_C 	C 	0.7712	0.0729	0.291	0.05
Mof_H 	H 	0.795	0.0987	0.3172	0.012
Mof_C 	C 	0.7828	0.0261	0.175	-0.137
Mof_H 	H 	0.8164	0.0208	0.1245	0.075
Mof_Zn	Zn	0.22842	0.28508	0.3949	1.226
Mof_O 	O 	0.277	0.2402	0.5523	-0.817
Mof_H 	H 	0.2978	0.2292	0.4399	0.309
Mof_N 	N 	0.2539	0.3575	0.401	-0.276
Mof_C 	C 	0.2383	0.3938	0.5535	0.107
Mof_H 	H 	0.2132	0.389	0.6772	-0.019
Mof_N 	N 	0.262	0.4392	0.5165	-0.165
Mof_C 	C 	0.2903	0.378	0.2511	0.05
Mof_O 	O 	0.2268	0.6658	0.9	-0.495
Mof_C 	C 	0.3192	0.356	0.0576	-0.116
Mof_H 	H 	0.3148	0.3221	0.0125	0.041
Mof_O 	O 	0.1889	0.6225	0.224	-0.245
Mof_C 	C 	0.355	0.3865	0.9322	0.012
Mof_C 	C 	0.3845	0.3663	0.7367	-0.062
Mof_H 	H 	0.3803	0.3323	0.6921	0.045
Mof_C 	C 	0.4203	0.3952	0.6047	-0.051
Mof_H 	H 	0.4398	0.3811	0.4732	0.042
Mof_C 	C 	0.4262	0.446	0.6748	-0.004
Mof_H 	H 	0.45	0.4661	0.5897	0.026
Mof_C 	C 	0.3968	0.4672	0.8705	-0.116
Mof_H 	H 	0.4012	0.5012	0.9153	0.07
Mof_C 	C 	0.3606	0.4375	0.001	0.071
Mof_C 	C 	0.3317	0.4595	0.1958	-0.144
Mof_H 	H 	0.336	0.4935	0.2418	0.08
Mof_C 	C 	0.2963	0.4288	0.319	0.079
Mof_C 	C 	0.2481	0.4871	0.6305	0.167
Mof_C 	C 	0.2199	0.5767	0.863	-0.14
Mof_C 	C 	0.2283	0.4871	0.877	0.008
Mof_H 	H 	0.2245	0.4564	0.9642	0.031
Mof_C 	C 	0.2141	0.5316	0.9983	-0.079
Mof_H 	H 	0.201	0.5314	0.165	0.074
Mof_C 	C 	0.24	0.5785	0.617	0.041
Mof_H 	H 	0.2442	0.6093	0.5315	0.028
Mof_C 	C 	0.2536	0.5331	0.5032	-0.089
Mof_H 	H 	0.2667	0.5334	0.3367	0.063
Mof_C 	C 	0.2074	0.6253	0.994	0.399
Mof_O 	O 	0.1558	0.6336	0.056	-0.194
Mof_C 	C 	0.1984	0.4938	0.705	-0.209
Mof_H 	H 	0.1749	0.4679	0.6765	0.112
Mof_C 	C 	0.1827	0.539	0.824	0.139
Mof_H 	H 	0.1491	0.5439	0.875	0
Mof_C 	C 	0.2712	0.5729	0.791	0.023
Mof_H 	H 	0.295	0.5987	0.8172	0.023
Mof_C 	C 	0.2828	0.5261	0.675	-0.11
Mof_H 	H 	0.3164	0.5208	0.6245	0.066
Mof_Zn	Zn	0.21492	0.72842	0.1051	1.224
Mof_O 	O 	0.2598	0.777	0.9477	-0.798
Mof_H 	H 	0.2708	0.7978	0.0601	0.295
Mof_N 	N 	0.1425	0.7539	0.099	-0.283
Mof_C 	C 	0.1062	0.7383	0.9465	0.115
Mof_H 	H 	0.111	0.7132	0.8228	-0.02
Mof_N 	N 	0.0608	0.762	0.9835	-0.163
Mof_C 	C 	0.122	0.7903	0.2489	0.063
Mof_O 	O 	0.8342	0.7268	0.6	-0.496
Mof_C 	C 	0.144	0.8192	0.4424	-0.147
Mof_H 	H 	0.1779	0.8148	0.4875	0.049
Mof_O 	O 	0.8775	0.6889	0.276	-0.239
Mof_C 	C 	0.1135	0.855	0.5678	0.053
Mof_C 	C 	0.1337	0.8845	0.7633	-0.097
Mof_H 	H 	0.1677	0.8803	0.8079	0.06
Mof_C 	C 	0.1048	0.9203	0.8953	-0.013
Mof_H 	H 	0.1189	0.9398	0.0268	0.026
Mof_C 	C 	0.054	0.9262	0.8252	-0.037
Mof_H 	H 	0.0339	0.95	0.9103	0.037
Mof_C 	C 	0.0328	0.8968	0.6295	-0.082
Mof_H 	H 	0.9988	0.9012	0.5847	0.058
Mof_C 	C 	0.0625	0.8606	0.499	0.035
Mof_C 	C 	0.0405	0.8317	0.3042	-0.122
Mof_H 	H 	0.0065	0.836	0.2582	0.072
Mof_C 	C 	0.0712	0.7963	0.181	0.064
Mof_C 	C 	0.0129	0.7481	0.8695	0.169
Mof_C 	C 	0.9233	0.7199	0.637	-0.138
Mof_C 	C 	0.0129	0.7283	0.623	0.049
Mof_H 	H 	0.0436	0.7245	0.5358	0.019
Mof_C 	C 	0.9684	0.7141	0.5017	-0.115
Mof_H 	H 	0.9686	0.701	0.335	0.086
Mof_C 	C 	0.9215	0.74	0.883	0.013
Mof_H 	H 	0.8907	0.7442	0.9685	0.034
Mof_C 	C 	0.9669	0.7536	0.9968	-0.068
Mof_H 	H 	0.9666	0.7667	0.1633	0.058
Mof_C 	C 	0.8747	0.7074	0.506	0.391
Mof_O 	O 	0.8664	0.6558	0.444	-0.19
Mof_C 	C 	0.0062	0.6984	0.795	-0.25
Mof_H 	H 	0.0321	0.6749	0.8235	0.126
Mof_C 	C 	0.961	0.6827	0.676	0.174
Mof_H 	H 	0.9561	0.6491	0.625	-0.012
Mof_C 	C 	0.9271	0.7712	0.709	0.05
Mof_H 	H 	0.9013	0.795	0.6828	0.012
Mof_C 	C 	0.9739	0.7828	0.825	-0.137
Mof_H 	H 	0.9792	0.8164	0.8755	0.075
Mof_Zn	Zn	0.71492	0.22842	0.6051	1.226
Mof_O 	O 	0.7598	0.277	0.4477	-0.817
Mof_H 	H 	0.7708	0.2978	0.5601	0.309
Mof_N 	N 	0.6425	0.2539	0.599	-0.276
Mof_C 	C 	0.6062	0.2383	0.4465	0.107
Mof_H 	H 	0.611	0.2132	0.3228	-0.019
Mof_N 	N 	0.5608	0.262	0.4835	-0.165
Mof_C 	C 	0.622	0.2903	0.7489	0.05
Mof_O 	O 	0.3342	0.2268	0.1	-0.495
Mof_C 	C 	0.644	0.3192	0.9424	-0.116
Mof_H 	H 	0.6779	0.3148	0.9875	0.041
Mof_O 	O 	0.3775	0.1889	0.776	-0.245
Mof_C 	C 	0.6135	0.355	0.0678	0.012
Mof_C 	C 	0.6337	0.3845	0.2633	-0.062
Mof_H 	H 	0.6677	0.3803	0.3079	0.045
Mof_C 	C 	0.6048	0.4203	0.3953	-0.051
Mof_H 	H 	0.6189	0.4398	0.5268	0.042
Mof_C 	C 	0.554	0.4262	0.3252	-0.004
Mof_H 	H 	0.5339	0.45	0.4103	0.026
Mof_C 	C 	0.5328	0.3968	0.1295	-0.116
Mof_H 	H 	0.4988	0.4012	0.0847	0.07
Mof_C 	C 	0.5625	0.3606	0.999	0.071
Mof_C 	C 	0.5405	0.3317	0.8042	-0.144
Mof_H 	H 	0.5065	0.336	0.7582	0.08
Mof_C 	C 	0.5712	0.2963	0.681	0.079
Mof_C 	C 	0.5129	0.2481	0.3695	0.167
Mof_C 	C 	0.4233	0.2199	0.137	-0.14
Mof_C 	C 	0.5129	0.2283	0.123	0.008
Mof_H 	H 	0.5436	0.2245	0.0358	0.031
Mof_C 	C 	0.4684	0.2141	0.0017	-0.079
Mof_H 	H 	0.4686	0.201	0.835	0.074
Mof_C 	C 	0.4215	0.24	0.383	0.041
Mof_H 	H 	0.3907	0.2442	0.4685	0.028
Mof_C 	C 	0.4669	0.2536	0.4968	-0.089
Mof_H 	H 	0.4666	0.2667	0.6633	0.063
Mof_C 	C 	0.3747	0.2074	0.006	0.399
Mof_O 	O 	0.3664	0.1558	0.944	-0.194
Mof_C 	C 	0.5062	0.1984	0.295	-0.209
Mof_H 	H 	0.5321	0.1749	0.3235	0.112
Mof_C 	C 	0.461	0.1827	0.176	0.139
Mof_H 	H 	0.4561	0.1491	0.125	0
Mof_C 	C 	0.4271	0.2712	0.209	0.023
Mof_H 	H 	0.4013	0.295	0.1828	0.023
Mof_C 	C 	0.4739	0.2828	0.325	-0.11
Mof_H 	H 	0.4792	0.3164	0.3755	0.066
Mof_Zn	Zn	0.78508	0.27158	0.1051	1.224
Mof_O 	O 	0.7402	0.223	0.9477	-0.798
Mof_H 	H 	0.7292	0.2022	0.0601	0.295
Mof_N 	N 	0.8575	0.2461	0.099	-0.283
Mof_C 	C 	0.8938	0.2617	0.9465	0.115
Mof_H 	H 	0.889	0.2868	0.8228	-0.02
Mof_N 	N 	0.9392	0.238	0.9835	-0.163
Mof_C 	C 	0.878	0.2097	0.2489	0.063
Mof_O 	O 	0.1658	0.2732	0.6	-0.496
Mof_C 	C 	0.856	0.1808	0.4424	-0.147
Mof_H 	H 	0.8221	0.1852	0.4875	0.049
Mof_O 	O 	0.1225	0.3111	0.276	-0.239
Mof_C 	C 	0.8865	0.145	0.5678	0.053
Mof_C 	C 	0.8663	0.1155	0.7633	-0.097
Mof_H 	H 	0.8323	0.1197	0.8079	0.06
Mof_C 	C 	0.8952	0.0797	0.8953	-0.013
Mof_H 	H 	0.8811	0.0602	0.0268	0.026
Mof_C 	C 	0.946	0.0738	0.8252	-0.037
Mof_H 	H 	0.9661	0.05	0.9103	0.037
Mof_C 	C 	0.9672	0.1032	0.6295	-0.082
Mof_H 	H 	0.0012	0.0988	0.5847	0.058
Mof_C 	C 	0.9375	0.1394	0.499	0.035
Mof_C 	C 	0.9595	0.1683	0.3042	-0.122
Mof_H 	H 	0.9935	0.164	0.2582	0.072
Mof_C 	C 	0.9288	0.2037	0.181	0.064
Mof_C 	C 	0.9871	0.2519	0.8695	0.169
Mof_C 	C 	0.0767	0.2801	0.637	-0.138
Mof_C 	C 	0.9871	0.2717	0.623	0.049
Mof_H 	H 	0.9564	0.2755	0.5358	0.019
Mof_C 	C 	0.0316	0.2859	0.5017	-0.115
Mof_H 	H 	0.0314	0.299	0.335	0.086
Mof_C 	C 	0.0785	0.26	0.883	0.013
Mof_H 	H 	0.1093	0.2558	0.9685	0.034
Mof_C 	C 	0.0331	0.2464	0.9968	-0.068
Mof_H 	H 	0.0334	0.2333	0.1633	0.058
Mof_C 	C 	0.1253	0.2926	0.506	0.391
Mof_O 	O 	0.1336	0.3442	0.444	-0.19
Mof_C 	C 	0.9938	0.3016	0.795	-0.25
Mof_H 	H 	0.9679	0.3251	0.8235	0.126
Mof_C 	C 	0.039	0.3173	0.676	0.174
Mof_H 	H 	0.0439	0.3509	0.625	-0.012
Mof_C 	C 	0.0729	0.2288	0.709	0.05
Mof_H 	H 	0.0987	0.205	0.6828	0.012
Mof_C 	C 	0.0261	0.2172	0.825	-0.137
Mof_H 	H 	0.0208	0.1836	0.8755	0.075
Mof_Zn	Zn	0.28508	0.77158	0.6051	1.226
Mof_O 	O 	0.2402	0.723	0.4477	-0.817
Mof_H 	H 	0.2292	0.7022	0.5601	0.309
Mof_N 	N 	0.3575	0.7461	0.599	-0.276
Mof_C 	C 	0.3938	0.7617	0.4465	0.107
Mof_H 	H 	0.389	0.7868	0.3228	-0.019
Mof_N 	N 	0.4392	0.738	0.4835	-0.165
Mof_C 	C 	0.378	0.7097	0.7489	0.05
Mof_O 	O 	0.6658	0.7732	0.1	-0.495
Mof_C 	C 	0.356	0.6808	0.9424	-0.116
Mof_H 	H 	0.3221	0.6852	0.9875	0.041
Mof_O 	O 	0.6225	0.8111	0.776	-0.245
Mof_C 	C 	0.3865	0.645	0.0678	0.012
Mof_C 	C 	0.3663	0.6155	0.2633	-0.062
Mof_H 	H 	0.3323	0.6197	0.3079	0.045
Mof_C 	C 	0.3952	0.5797	0.3953	-0.051
Mof_H 	H 	0.3811	0.5602	0.5268	0.042
Mof_C 	C 	0.446	0.5738	0.3252	-0.004
Mof_H 	H 	0.4661	0.55	0.4103	0.026
Mof_C 	C 	0.4672	0.6032	0.1295	-0.116
Mof_H 	H 	0.5012	0.5988	0.0847	0.07
Mof_C 	C 	0.4375	0.6394	0.999	0.071
Mof_C 	C 	0.4595	0.6683	0.8042	-0.144
Mof_H 	H 	0.4935	0.664	0.7582	0.08
Mof_C 	C 	0.4288	0.7037	0.681	0.079
Mof_C 	C 	0.4871	0.7519	0.3695	0.167
Mof_C 	C 	0.5767	0.7801	0.137	-0.14
Mof_C 	C 	0.4871	0.7717	0.123	0.008
Mof_H 	H 	0.4564	0.7755	0.0358	0.031
Mof_C 	C 	0.5316	0.7859	0.0017	-0.079
Mof_H 	H 	0.5314	0.799	0.835	0.074
Mof_C 	C 	0.5785	0.76	0.383	0.041
Mof_H 	H 	0.6093	0.7558	0.4685	0.028
Mof_C 	C 	0.5331	0.7464	0.4968	-0.089
Mof_H 	H 	0.5334	0.7333	0.6633	0.063
Mof_C 	C 	0.6253	0.7926	0.006	0.399
Mof_O 	O 	0.6336	0.8442	0.944	-0.194
Mof_C 	C 	0.4938	0.8016	0.295	-0.209
Mof_H 	H 	0.4679	0.8251	0.3235	0.112
Mof_C 	C 	0.539	0.8173	0.176	0.139
Mof_H 	H 	0.5439	0.8509	0.125	0
Mof_C 	C 	0.5729	0.7288	0.209	0.023
Mof_H 	H 	0.5987	0.705	0.1828	0.023
Mof_C 	C 	0.5261	0.7172	0.325	-0.11
Mof_H 	H 	0.5208	0.6836	0.3755	0.066
_end
