data_functionalizedCrystal
_audit_creation_method	'EQeq! by Chris Wilmer'
_symmetry_space_group_name_H-M	'P1'
_symmetry_Int_Tables_number	1
_symmetry_cell_setting	triclinic
loop_
_symmetry_equiv_pos_as_xyz
  x,y,z
_cell_length_a	9.2732
_cell_length_b	17.509
_cell_length_c	18.4285
_cell_angle_alpha	106.031
_cell_angle_beta	90
_cell_angle_gamma	90
loop_
_atom_site_label
_atom_site_type_symbol
_atom_site_fract_x
_atom_site_fract_y
_atom_site_fract_z
_atom_site_charge
Mof_Sr	Sr	0.3371	0.86693	0.67482	1.52
Mof_Sr	Sr	0.84124	0.62233	0.8238	1.52
Mof_Sr	Sr	0.50478	0.58818	0.67343	1.532
Mof_Sr	Sr	0.50248	0.07572	0.66326	1.506
Mof_Sr	Sr	0.8371	0.13307	0.82518	1.514
Mof_Sr	Sr	0.34124	0.37767	0.6762	1.52
Mof_Sr	Sr	0.00478	0.41182	0.82657	1.537
Mof_Sr	Sr	0.00248	0.92428	0.83674	1.501
Mof_Sr	Sr	0.6629	0.13307	0.32518	1.521
Mof_Sr	Sr	0.15876	0.37767	0.1762	1.521
Mof_Sr	Sr	0.49522	0.41182	0.32657	1.532
Mof_Sr	Sr	0.49752	0.92428	0.33674	1.506
Mof_Sr	Sr	0.1629	0.86693	0.17482	1.514
Mof_Sr	Sr	0.65876	0.62233	0.3238	1.52
Mof_Sr	Sr	0.99522	0.58818	0.17343	1.537
Mof_Sr	Sr	0.99752	0.07572	0.16326	1.501
Mof_H 	H 	0.0081	0.9139	0.6654	0.369
Mof_H 	H 	0.0134	0.8433	0.6793	0.567
Mof_H 	H 	0.3334	0.9495	0.8322	0.271
Mof_H 	H 	0.3201	0.8525	0.8346	0.145
Mof_H 	H 	0.4995	0.6572	0.8544	0.331
Mof_H 	H 	0.5488	0.5874	0.8445	0.659
Mof_H 	H 	0.8484	0.5687	0.6504	0.244
Mof_H 	H 	0.8162	0.645	0.6672	0.386
Mof_H 	H 	0.5081	0.0861	0.8346	0.37
Mof_H 	H 	0.5134	0.1567	0.8207	0.567
Mof_H 	H 	0.8334	0.0505	0.6678	0.27
Mof_H 	H 	0.8201	0.1475	0.6654	0.144
Mof_H 	H 	0.9995	0.3428	0.6456	0.329
Mof_H 	H 	0.0488	0.4126	0.6555	0.659
Mof_H 	H 	0.3484	0.4313	0.8496	0.244
Mof_H 	H 	0.3162	0.355	0.8328	0.385
Mof_H 	H 	0.9919	0.0861	0.3346	0.369
Mof_H 	H 	0.9866	0.1567	0.3207	0.567
Mof_H 	H 	0.6666	0.0505	0.1678	0.271
Mof_H 	H 	0.6799	0.1475	0.1654	0.145
Mof_H 	H 	0.5005	0.3428	0.1456	0.331
Mof_H 	H 	0.4512	0.4126	0.1555	0.659
Mof_H 	H 	0.1516	0.4313	0.3496	0.244
Mof_H 	H 	0.1838	0.355	0.3328	0.386
Mof_H 	H 	0.4919	0.9139	0.1654	0.37
Mof_H 	H 	0.4866	0.8433	0.1793	0.567
Mof_H 	H 	0.1666	0.9495	0.3322	0.27
Mof_H 	H 	0.1799	0.8525	0.3346	0.144
Mof_H 	H 	0.0005	0.6572	0.3544	0.329
Mof_H 	H 	0.9512	0.5874	0.3445	0.659
Mof_H 	H 	0.6516	0.5687	0.1504	0.244
Mof_H 	H 	0.6838	0.645	0.1672	0.385
Mof_C 	C 	0.66985	0.85579	0.75888	-0.041
Mof_C 	C 	0.67487	0.93622	0.74414	0.358
Mof_C 	C 	0.17451	0.64569	0.76016	-0.053
Mof_C 	C 	0.18564	0.56504	0.76908	0.373
Mof_C 	C 	0.58344	0.64314	0.50962	-0.026
Mof_C 	C 	0.62661	0.55816	0.48633	0.322
Mof_C 	C 	0.23692	0.84647	0.48718	-0.015
Mof_C 	C 	0.32357	0.92425	0.50958	0.347
Mof_C 	C 	0.16985	0.14421	0.74112	-0.041
Mof_C 	C 	0.17487	0.06378	0.75586	0.358
Mof_C 	C 	0.67451	0.35431	0.73984	-0.054
Mof_C 	C 	0.68564	0.43496	0.73092	0.373
Mof_C 	C 	0.08344	0.35686	0.99038	-0.024
Mof_C 	C 	0.12661	0.44184	0.01367	0.319
Mof_C 	C 	0.73692	0.15353	0.01282	-0.012
Mof_C 	C 	0.82357	0.07575	0.99042	0.342
Mof_C 	C 	0.33015	0.14421	0.24112	-0.041
Mof_C 	C 	0.32513	0.06378	0.25586	0.358
Mof_C 	C 	0.82549	0.35431	0.23984	-0.053
Mof_C 	C 	0.81436	0.43496	0.23092	0.373
Mof_C 	C 	0.41656	0.35686	0.49038	-0.026
Mof_C 	C 	0.37339	0.44184	0.51367	0.322
Mof_C 	C 	0.76308	0.15353	0.51282	-0.015
Mof_C 	C 	0.67643	0.07575	0.49042	0.347
Mof_C 	C 	0.83015	0.85579	0.25888	-0.041
Mof_C 	C 	0.82513	0.93622	0.24414	0.358
Mof_C 	C 	0.32549	0.64569	0.26016	-0.054
Mof_C 	C 	0.31436	0.56504	0.26908	0.373
Mof_C 	C 	0.91656	0.64314	0.00962	-0.024
Mof_C 	C 	0.87339	0.55816	0.98633	0.319
Mof_C 	C 	0.26308	0.84647	0.98718	-0.012
Mof_C 	C 	0.17643	0.92425	0.00958	0.342
Mof_N 	N 	0.55793	0.80639	0.7376	-0.174
Mof_N 	N 	0.59583	0.74178	0.75851	-0.131
Mof_N 	N 	0.72612	0.75408	0.79151	-0.149
Mof_N 	N 	0.77387	0.82648	0.79246	-0.187
Mof_N 	N 	0.26593	0.67541	0.72063	-0.177
Mof_N 	N 	0.21809	0.75007	0.72662	-0.157
Mof_N 	N 	0.10335	0.76295	0.77045	-0.144
Mof_N 	N 	0.07135	0.69827	0.79203	-0.18
Mof_N 	N 	0.5245	0.67896	0.57594	-0.182
Mof_N 	N 	0.50611	0.75437	0.57347	-0.143
Mof_N 	N 	0.55498	0.76268	0.50954	-0.094
Mof_N 	N 	0.6051	0.69223	0.46748	-0.187
Mof_N 	N 	0.2069	0.80687	0.53623	-0.164
Mof_N 	N 	0.12943	0.74353	0.49659	-0.091
Mof_N 	N 	0.11446	0.74803	0.42696	-0.093
Mof_N 	N 	0.1823	0.81337	0.42032	-0.103
Mof_N 	N 	0.05793	0.19361	0.7624	-0.172
Mof_N 	N 	0.09583	0.25822	0.74149	-0.13
Mof_N 	N 	0.22612	0.24592	0.70849	-0.149
Mof_N 	N 	0.27387	0.17352	0.70754	-0.189
Mof_N 	N 	0.76593	0.32459	0.77937	-0.178
Mof_N 	N 	0.71809	0.24993	0.77338	-0.157
Mof_N 	N 	0.60335	0.23705	0.72955	-0.144
Mof_N 	N 	0.57135	0.30173	0.70797	-0.18
Mof_N 	N 	0.0245	0.32104	0.92406	-0.181
Mof_N 	N 	0.00611	0.24563	0.92653	-0.141
Mof_N 	N 	0.05498	0.23732	0.99046	-0.093
Mof_N 	N 	0.1051	0.30777	0.03252	-0.188
Mof_N 	N 	0.7069	0.19313	0.96377	-0.165
Mof_N 	N 	0.62943	0.25647	0.00341	-0.09
Mof_N 	N 	0.61446	0.25197	0.07304	-0.092
Mof_N 	N 	0.6823	0.18663	0.07968	-0.103
Mof_N 	N 	0.44207	0.19361	0.2624	-0.174
Mof_N 	N 	0.40417	0.25822	0.24149	-0.131
Mof_N 	N 	0.27388	0.24592	0.20849	-0.149
Mof_N 	N 	0.22613	0.17352	0.20754	-0.187
Mof_N 	N 	0.73407	0.32459	0.27937	-0.177
Mof_N 	N 	0.78191	0.24993	0.27338	-0.157
Mof_N 	N 	0.89665	0.23705	0.22955	-0.144
Mof_N 	N 	0.92865	0.30173	0.20797	-0.18
Mof_N 	N 	0.4755	0.32104	0.42406	-0.182
Mof_N 	N 	0.49389	0.24563	0.42653	-0.143
Mof_N 	N 	0.44502	0.23732	0.49046	-0.094
Mof_N 	N 	0.3949	0.30777	0.53252	-0.187
Mof_N 	N 	0.7931	0.19313	0.46377	-0.164
Mof_N 	N 	0.87057	0.25647	0.50341	-0.091
Mof_N 	N 	0.88554	0.25197	0.57304	-0.093
Mof_N 	N 	0.8177	0.18663	0.57968	-0.103
Mof_N 	N 	0.94207	0.80639	0.2376	-0.172
Mof_N 	N 	0.90417	0.74178	0.25851	-0.13
Mof_N 	N 	0.77388	0.75408	0.29151	-0.149
Mof_N 	N 	0.72613	0.82648	0.29246	-0.189
Mof_N 	N 	0.23407	0.67541	0.22063	-0.178
Mof_N 	N 	0.28191	0.75007	0.22662	-0.157
Mof_N 	N 	0.39665	0.76295	0.27045	-0.144
Mof_N 	N 	0.42865	0.69827	0.29203	-0.18
Mof_N 	N 	0.9755	0.67896	0.07594	-0.181
Mof_N 	N 	0.99389	0.75437	0.07347	-0.141
Mof_N 	N 	0.94502	0.76268	0.00954	-0.093
Mof_N 	N 	0.8949	0.69223	0.96748	-0.188
Mof_N 	N 	0.2931	0.80687	0.03623	-0.165
Mof_N 	N 	0.37057	0.74353	0.99659	-0.09
Mof_N 	N 	0.38554	0.74803	0.92696	-0.092
Mof_N 	N 	0.3177	0.81337	0.92032	-0.103
Mof_O 	O 	0.5755	0.9527	0.7049	-0.527
Mof_O 	O 	0.7792	0.9802	0.7749	-0.507
Mof_O 	O 	0.2934	0.5246	0.7414	-0.526
Mof_O 	O 	0.082	0.5419	0.8027	-0.541
Mof_O 	O 	0.6363	0.5235	0.5366	-0.402
Mof_O 	O 	0.6512	0.5281	0.4166	-0.499
Mof_O 	O 	0.3714	0.9449	0.5756	-0.517
Mof_O 	O 	0.3378	0.9596	0.4597	-0.432
Mof_O 	O 	0.04789	0.88134	0.68957	-1.188
Mof_O 	O 	0.28822	0.90765	0.81766	-0.669
Mof_O 	O 	0.56116	0.61558	0.82672	-1.247
Mof_O 	O 	0.79527	0.60965	0.68195	-0.904
Mof_O 	O 	0.0755	0.0473	0.7951	-0.523
Mof_O 	O 	0.2792	0.0198	0.7251	-0.509
Mof_O 	O 	0.7934	0.4754	0.7586	-0.527
Mof_O 	O 	0.582	0.4581	0.6973	-0.541
Mof_O 	O 	0.1363	0.4765	0.9634	-0.401
Mof_O 	O 	0.1512	0.4719	0.0834	-0.499
Mof_O 	O 	0.8714	0.0551	0.9244	-0.517
Mof_O 	O 	0.8378	0.0404	0.0403	-0.43
Mof_O 	O 	0.54789	0.11866	0.81043	-1.188
Mof_O 	O 	0.78822	0.09235	0.68234	-0.668
Mof_O 	O 	0.06116	0.38442	0.67328	-1.244
Mof_O 	O 	0.29527	0.39035	0.81805	-0.903
Mof_O 	O 	0.4245	0.0473	0.2951	-0.527
Mof_O 	O 	0.2208	0.0198	0.2251	-0.507
Mof_O 	O 	0.7066	0.4754	0.2586	-0.526
Mof_O 	O 	0.918	0.4581	0.1973	-0.541
Mof_O 	O 	0.3637	0.4765	0.4634	-0.402
Mof_O 	O 	0.3488	0.4719	0.5834	-0.499
Mof_O 	O 	0.6286	0.0551	0.4244	-0.517
Mof_O 	O 	0.6622	0.0404	0.5403	-0.432
Mof_O 	O 	0.95211	0.11866	0.31043	-1.188
Mof_O 	O 	0.71178	0.09235	0.18234	-0.669
Mof_O 	O 	0.43884	0.38442	0.17328	-1.247
Mof_O 	O 	0.20473	0.39035	0.31805	-0.904
Mof_O 	O 	0.9245	0.9527	0.2049	-0.523
Mof_O 	O 	0.7208	0.9802	0.2749	-0.509
Mof_O 	O 	0.2066	0.5246	0.2414	-0.527
Mof_O 	O 	0.418	0.5419	0.3027	-0.541
Mof_O 	O 	0.8637	0.5235	0.0366	-0.401
Mof_O 	O 	0.8488	0.5281	0.9166	-0.499
Mof_O 	O 	0.1286	0.9449	0.0756	-0.517
Mof_O 	O 	0.1622	0.9596	0.9597	-0.43
Mof_O 	O 	0.45211	0.88134	0.18957	-1.188
Mof_O 	O 	0.21178	0.90765	0.31766	-0.668
Mof_O 	O 	0.93884	0.61558	0.32672	-1.244
Mof_O 	O 	0.70473	0.60965	0.18195	-0.903
_end
