data_functionalizedCrystal
_audit_creation_method	'EQeq! by Chris Wilmer'
_symmetry_space_group_name_H-M	'P1'
_symmetry_Int_Tables_number	1
_symmetry_cell_setting	triclinic
loop_
_symmetry_equiv_pos_as_xyz
  x,y,z
_cell_length_a	19.074
_cell_length_b	19.652
_cell_length_c	19.652
_cell_angle_alpha	120
_cell_angle_beta	90
_cell_angle_gamma	90
loop_
_atom_site_label
_atom_site_type_symbol
_atom_site_fract_x
_atom_site_fract_y
_atom_site_fract_z
_atom_site_charge
Mof_Co	Co	0.6014	0.99957	0.66401	1.106
Mof_Co	Co	0.6014	0.66444	0.00043	1.106
Mof_Co	Co	0.6014	0.33599	0.33556	1.122
Mof_Co	Co	0.1014	0.66444	0.66401	1.12
Mof_Co	Co	0.1014	0.33599	0.00043	1.103
Mof_Co	Co	0.1014	0.99957	0.33556	1.103
Mof_H 	H 	0.5668	0.8302	0.6231	0.002
Mof_H 	H 	0.5536	0.7545	0.6803	0.059
Mof_H 	H 	0.5509	0.8158	0.821	0.05
Mof_H 	H 	0.6078	0.0191	0.8292	0.069
Mof_H 	H 	0.0278	0.8639	0.3539	-0.053
Mof_H 	H 	0.9222	0.8246	0.3728	0.106
Mof_H 	H 	0.8263	0.9041	0.3997	-0.007
Mof_H 	H 	0.9466	0.0487	0.3597	-0.012
Mof_H 	H 	0.517	0.1411	0.664	0.015
Mof_H 	H 	0.5324	0.221	0.6102	0.054
Mof_H 	H 	0.6133	0.2077	0.522	0.043
Mof_H 	H 	0.6975	0.0327	0.5509	0.032
Mof_H 	H 	0.68	0.2391	0.3986	0.017
Mof_H 	H 	0.8589	0.2535	0.2546	0.056
Mof_H 	H 	0.8716	0.1586	0.3015	0.057
Mof_H 	H 	0.7572	0.3135	0.257	0.02
Mof_H 	H 	0.5668	0.7929	0.1698	0.01
Mof_H 	H 	0.5536	0.9258	0.2455	0.031
Mof_H 	H 	0.5509	0.0052	0.1842	0.106
Mof_H 	H 	0.6078	0.8101	0.9809	0.074
Mof_H 	H 	0.0278	0.49	0.1361	-0.052
Mof_H 	H 	0.9222	0.5482	0.1754	0.107
Mof_H 	H 	0.8263	0.4956	0.0959	-0.007
Mof_H 	H 	0.9466	0.311	0.9513	-0.012
Mof_H 	H 	0.517	0.5229	0.8589	0.015
Mof_H 	H 	0.5324	0.3892	0.779	0.054
Mof_H 	H 	0.6133	0.3143	0.7923	0.043
Mof_H 	H 	0.6975	0.5182	0.9673	0.032
Mof_H 	H 	0.68	0.1595	0.7609	0.021
Mof_H 	H 	0.8589	0.0011	0.7465	0.043
Mof_H 	H 	0.8716	0.1429	0.8414	0.07
Mof_H 	H 	0.7572	0.9435	0.6865	0.047
Mof_H 	H 	0.5668	0.3769	0.2071	0.007
Mof_H 	H 	0.5536	0.3197	0.0742	0.036
Mof_H 	H 	0.5509	0.179	0.9948	0.102
Mof_H 	H 	0.6078	0.1708	0.1899	0.027
Mof_H 	H 	0.0278	0.6461	0.51	-0.038
Mof_H 	H 	0.9222	0.6272	0.4518	0.086
Mof_H 	H 	0.8263	0.6003	0.5044	0.024
Mof_H 	H 	0.9466	0.6403	0.689	0.019
Mof_H 	H 	0.517	0.336	0.4771	0.013
Mof_H 	H 	0.5324	0.3898	0.6108	0.054
Mof_H 	H 	0.6133	0.478	0.6857	0.042
Mof_H 	H 	0.6975	0.4491	0.4818	0.021
Mof_H 	H 	0.68	0.6014	0.8405	0.02
Mof_H 	H 	0.8589	0.7454	0.9989	0.04
Mof_H 	H 	0.8716	0.6985	0.8571	0.066
Mof_H 	H 	0.7572	0.743	0.0565	0.044
Mof_H 	H 	0.0668	0.7929	0.6231	0.004
Mof_H 	H 	0.0536	0.9258	0.6803	0.033
Mof_H 	H 	0.0509	0.0052	0.821	0.102
Mof_H 	H 	0.1078	0.8101	0.8292	0.027
Mof_H 	H 	0.5278	0.49	0.3539	-0.006
Mof_H 	H 	0.4222	0.5482	0.3728	0.07
Mof_H 	H 	0.3263	0.4956	0.3997	0.031
Mof_H 	H 	0.4466	0.311	0.3597	0.015
Mof_H 	H 	0.017	0.5229	0.664	0.009
Mof_H 	H 	0.0324	0.3892	0.6102	0.051
Mof_H 	H 	0.1133	0.3143	0.522	0.042
Mof_H 	H 	0.1975	0.5182	0.5509	0.021
Mof_H 	H 	0.18	0.1595	0.3986	0.02
Mof_H 	H 	0.3589	0.0011	0.2546	0.035
Mof_H 	H 	0.3716	0.1429	0.3015	0.062
Mof_H 	H 	0.2572	0.9435	0.257	0.044
Mof_H 	H 	0.0668	0.3769	0.1698	-0.001
Mof_H 	H 	0.0536	0.3197	0.2455	0.057
Mof_H 	H 	0.0509	0.179	0.1842	0.049
Mof_H 	H 	0.1078	0.1708	0.9809	0.071
Mof_H 	H 	0.5278	0.6461	0.1361	-0.02
Mof_H 	H 	0.4222	0.6272	0.1754	0.09
Mof_H 	H 	0.3263	0.6003	0.0959	-0.002
Mof_H 	H 	0.4466	0.6403	0.9513	-0.018
Mof_H 	H 	0.017	0.336	0.8589	0.011
Mof_H 	H 	0.0324	0.3898	0.779	0.051
Mof_H 	H 	0.1133	0.478	0.7923	0.042
Mof_H 	H 	0.1975	0.4491	0.9673	0.032
Mof_H 	H 	0.18	0.6014	0.7609	0.017
Mof_H 	H 	0.3589	0.7454	0.7465	0.052
Mof_H 	H 	0.3716	0.6985	0.8414	0.052
Mof_H 	H 	0.2572	0.743	0.6865	0.019
Mof_H 	H 	0.0668	0.8302	0.2071	0.007
Mof_H 	H 	0.0536	0.7545	0.0742	0.027
Mof_H 	H 	0.0509	0.8158	0.9948	0.107
Mof_H 	H 	0.1078	0.0191	0.1899	0.075
Mof_H 	H 	0.5278	0.8639	0.51	-0.02
Mof_H 	H 	0.4222	0.8246	0.4518	0.091
Mof_H 	H 	0.3263	0.9041	0.5044	-0.001
Mof_H 	H 	0.4466	0.0487	0.689	-0.017
Mof_H 	H 	0.017	0.1411	0.4771	0.01
Mof_H 	H 	0.0324	0.221	0.6108	0.051
Mof_H 	H 	0.1133	0.2077	0.6857	0.042
Mof_H 	H 	0.1975	0.0327	0.4818	0.032
Mof_H 	H 	0.18	0.2391	0.8405	0.021
Mof_H 	H 	0.3589	0.2535	0.9989	0.038
Mof_H 	H 	0.3716	0.1586	0.8571	0.067
Mof_H 	H 	0.2572	0.3135	0.0565	0.047
Mof_C 	C 	0.6935	0.8658	0.5253	0.096
Mof_C 	C 	0.5349	0.1507	0.8157	0.093
Mof_C 	C 	0.573	0.8535	0.6783	0.04
Mof_C 	C 	0.5618	0.8093	0.712	-0.076
Mof_C 	C 	0.5624	0.8452	0.7961	-0.025
Mof_C 	C 	0.5798	0.9224	0.8389	-0.006
Mof_C 	C 	0.5954	0.9652	0.7992	-0.044
Mof_C 	C 	0.9879	0.8949	0.3586	0.165
Mof_C 	C 	0.9263	0.8732	0.3735	-0.22
Mof_C 	C 	0.8703	0.9196	0.3894	0.119
Mof_C 	C 	0.8768	0.9901	0.3907	-0.18
Mof_C 	C 	0.942	0.0038	0.3656	0.163
Mof_C 	C 	0.5552	0.1335	0.6298	0.029
Mof_C 	C 	0.5653	0.1795	0.595	-0.069
Mof_C 	C 	0.6131	0.1746	0.5444	-0.005
Mof_C 	C 	0.6639	0.1162	0.5266	-0.037
Mof_C 	C 	0.661	0.0695	0.561	0.024
Mof_C 	C 	0.7197	0.1045	0.4721	0.144
Mof_C 	C 	0.5847	0.9628	0.9236	0.088
Mof_C 	C 	0.8176	0.0482	0.4095	0.198
Mof_C 	C 	0.7677	0.1963	0.3584	-0.037
Mof_C 	C 	0.715	0.2376	0.3635	0.044
Mof_C 	C 	0.7705	0.1406	0.388	0.118
Mof_C 	C 	0.82	0.2449	0.2796	-0.054
Mof_C 	C 	0.8316	0.1907	0.3103	-0.022
Mof_C 	C 	0.7601	0.2841	0.2832	0.008
Mof_C 	C 	0.6935	0.6595	0.1342	0.095
Mof_C 	C 	0.5349	0.665	0.8493	0.094
Mof_C 	C 	0.573	0.8248	0.1465	0.008
Mof_C 	C 	0.5618	0.9027	0.1907	-0.024
Mof_C 	C 	0.5624	0.9509	0.1548	-0.13
Mof_C 	C 	0.5798	0.9165	0.0776	0.04
Mof_C 	C 	0.5954	0.834	0.0348	-0.069
Mof_C 	C 	0.9879	0.4637	0.1051	0.164
Mof_C 	C 	0.9263	0.5003	0.1268	-0.219
Mof_C 	C 	0.8703	0.4698	0.0804	0.12
Mof_C 	C 	0.8768	0.4006	0.0099	-0.18
Mof_C 	C 	0.942	0.3618	0.9962	0.165
Mof_C 	C 	0.5552	0.4963	0.8665	0.029
Mof_C 	C 	0.5653	0.4155	0.8205	-0.069
Mof_C 	C 	0.6131	0.3698	0.8254	-0.005
Mof_C 	C 	0.6639	0.4104	0.8838	-0.037
Mof_C 	C 	0.661	0.4915	0.9305	0.024
Mof_C 	C 	0.7197	0.3676	0.8955	0.144
Mof_C 	C 	0.5847	0.9608	0.0372	0.034
Mof_C 	C 	0.8176	0.3613	0.9518	0.199
Mof_C 	C 	0.7677	0.1621	0.8037	-0.019
Mof_C 	C 	0.715	0.1259	0.7624	0.035
Mof_C 	C 	0.7705	0.2474	0.8594	0.115
Mof_C 	C 	0.82	0.0347	0.7551	0.031
Mof_C 	C 	0.8316	0.1196	0.8093	-0.052
Mof_C 	C 	0.7601	0.9991	0.7159	-0.09
Mof_C 	C 	0.6935	0.4747	0.3405	0.101
Mof_C 	C 	0.5349	0.1843	0.335	0.09
Mof_C 	C 	0.573	0.3217	0.1752	0.02
Mof_C 	C 	0.5618	0.288	0.0973	-0.038
Mof_C 	C 	0.5624	0.2039	0.0491	-0.106
Mof_C 	C 	0.5798	0.1611	0.0835	0.007
Mof_C 	C 	0.5954	0.2008	0.166	0.008
Mof_C 	C 	0.9879	0.6414	0.5363	0.129
Mof_C 	C 	0.9263	0.6265	0.4997	-0.155
Mof_C 	C 	0.8703	0.6106	0.5302	0.045
Mof_C 	C 	0.8768	0.6093	0.5994	-0.063
Mof_C 	C 	0.942	0.6344	0.6382	0.048
Mof_C 	C 	0.5552	0.3702	0.5037	0.026
Mof_C 	C 	0.5653	0.405	0.5845	-0.07
Mof_C 	C 	0.6131	0.4556	0.6302	-0.006
Mof_C 	C 	0.6639	0.4734	0.5896	-0.04
Mof_C 	C 	0.661	0.439	0.5085	0.021
Mof_C 	C 	0.7197	0.5279	0.6324	0.14
Mof_C 	C 	0.5847	0.0764	0.0392	0.083
Mof_C 	C 	0.8176	0.5905	0.6387	0.142
Mof_C 	C 	0.7677	0.6416	0.8379	-0.021
Mof_C 	C 	0.715	0.6365	0.8741	0.034
Mof_C 	C 	0.7705	0.612	0.7526	0.111
Mof_C 	C 	0.82	0.7204	0.9653	0.028
Mof_C 	C 	0.8316	0.6897	0.8804	-0.054
Mof_C 	C 	0.7601	0.7168	0.0009	-0.09
Mof_C 	C 	0.1935	0.6595	0.5253	0.1
Mof_C 	C 	0.0349	0.665	0.8157	0.088
Mof_C 	C 	0.073	0.8248	0.6783	0.017
Mof_C 	C 	0.0618	0.9027	0.712	-0.037
Mof_C 	C 	0.0624	0.9509	0.7961	-0.112
Mof_C 	C 	0.0798	0.9165	0.8389	0.008
Mof_C 	C 	0.0954	0.834	0.7992	0.005
Mof_C 	C 	0.4879	0.4637	0.3586	0.074
Mof_C 	C 	0.4263	0.5003	0.3735	-0.119
Mof_C 	C 	0.3703	0.4698	0.3894	0.021
Mof_C 	C 	0.3768	0.4006	0.3907	-0.054
Mof_C 	C 	0.442	0.3618	0.3656	0.039
Mof_C 	C 	0.0552	0.4963	0.6298	0.024
Mof_C 	C 	0.0653	0.4155	0.595	-0.07
Mof_C 	C 	0.1131	0.3698	0.5444	-0.007
Mof_C 	C 	0.1639	0.4104	0.5266	-0.04
Mof_C 	C 	0.161	0.4915	0.561	0.02
Mof_C 	C 	0.2197	0.3676	0.4721	0.139
Mof_C 	C 	0.0847	0.9608	0.9236	0.079
Mof_C 	C 	0.3176	0.3613	0.4095	0.137
Mof_C 	C 	0.2677	0.1621	0.3584	-0.021
Mof_C 	C 	0.215	0.1259	0.3635	0.033
Mof_C 	C 	0.2705	0.2474	0.388	0.11
Mof_C 	C 	0.32	0.0347	0.2796	0.031
Mof_C 	C 	0.3316	0.1196	0.3103	-0.057
Mof_C 	C 	0.2601	0.9991	0.2832	-0.095
Mof_C 	C 	0.1935	0.4747	0.1342	0.095
Mof_C 	C 	0.0349	0.1843	0.8493	0.091
Mof_C 	C 	0.073	0.3217	0.1465	0.037
Mof_C 	C 	0.0618	0.288	0.1907	-0.077
Mof_C 	C 	0.0624	0.2039	0.1548	-0.028
Mof_C 	C 	0.0798	0.1611	0.0776	-0.005
Mof_C 	C 	0.0954	0.2008	0.0348	-0.049
Mof_C 	C 	0.4879	0.6414	0.1051	0.108
Mof_C 	C 	0.4263	0.6265	0.1268	-0.186
Mof_C 	C 	0.3703	0.6106	0.0804	0.098
Mof_C 	C 	0.3768	0.6093	0.0099	-0.177
Mof_C 	C 	0.442	0.6344	0.9962	0.161
Mof_C 	C 	0.0552	0.3702	0.8665	0.027
Mof_C 	C 	0.0653	0.405	0.8205	-0.069
Mof_C 	C 	0.1131	0.4556	0.8254	-0.007
Mof_C 	C 	0.1639	0.4734	0.8838	-0.037
Mof_C 	C 	0.161	0.439	0.9305	0.023
Mof_C 	C 	0.2197	0.5279	0.8955	0.143
Mof_C 	C 	0.0847	0.0764	0.0372	0.084
Mof_C 	C 	0.3176	0.5905	0.9518	0.196
Mof_C 	C 	0.2677	0.6416	0.8037	-0.038
Mof_C 	C 	0.215	0.6365	0.7624	0.043
Mof_C 	C 	0.2705	0.612	0.8594	0.117
Mof_C 	C 	0.32	0.7204	0.7551	-0.055
Mof_C 	C 	0.3316	0.6897	0.8093	-0.023
Mof_C 	C 	0.2601	0.7168	0.7159	0.007
Mof_C 	C 	0.1935	0.8658	0.3405	0.095
Mof_C 	C 	0.0349	0.1507	0.335	0.092
Mof_C 	C 	0.073	0.8535	0.1752	0.005
Mof_C 	C 	0.0618	0.8093	0.0973	-0.023
Mof_C 	C 	0.0624	0.8452	0.0491	-0.136
Mof_C 	C 	0.0798	0.9224	0.0835	0.041
Mof_C 	C 	0.0954	0.9652	0.166	-0.074
Mof_C 	C 	0.4879	0.8949	0.5363	0.109
Mof_C 	C 	0.4263	0.8732	0.4997	-0.186
Mof_C 	C 	0.3703	0.9196	0.5302	0.099
Mof_C 	C 	0.3768	0.9901	0.5994	-0.177
Mof_C 	C 	0.442	0.0038	0.6382	0.163
Mof_C 	C 	0.0552	0.1335	0.5037	0.027
Mof_C 	C 	0.0653	0.1795	0.5845	-0.069
Mof_C 	C 	0.1131	0.1746	0.6302	-0.007
Mof_C 	C 	0.1639	0.1162	0.5896	-0.037
Mof_C 	C 	0.161	0.0695	0.5085	0.023
Mof_C 	C 	0.2197	0.1045	0.6324	0.143
Mof_C 	C 	0.0847	0.9628	0.0392	0.029
Mof_C 	C 	0.3176	0.0482	0.6387	0.197
Mof_C 	C 	0.2677	0.1963	0.8379	-0.02
Mof_C 	C 	0.215	0.2376	0.8741	0.034
Mof_C 	C 	0.2705	0.1406	0.7526	0.114
Mof_C 	C 	0.32	0.2449	0.9653	0.034
Mof_C 	C 	0.3316	0.1907	0.8804	-0.055
Mof_C 	C 	0.2601	0.2841	0.0009	-0.095
Mof_S 	S 	0.7454	0.802	0.4617	-0.061
Mof_S 	S 	0.5153	0.2362	0.8884	-0.037
Mof_S 	S 	0.7454	0.6597	0.198	-0.063
Mof_S 	S 	0.5153	0.6522	0.7638	-0.052
Mof_S 	S 	0.7454	0.5383	0.3403	-0.058
Mof_S 	S 	0.5153	0.1116	0.3478	-0.041
Mof_S 	S 	0.2454	0.6597	0.4617	-0.062
Mof_S 	S 	0.0153	0.6522	0.8884	-0.051
Mof_S 	S 	0.2454	0.5383	0.198	-0.065
Mof_S 	S 	0.0153	0.1116	0.7638	-0.047
Mof_S 	S 	0.2454	0.802	0.3403	-0.067
Mof_S 	S 	0.0153	0.2362	0.3478	-0.063
Mof_N 	N 	0.6523	0.9079	0.5689	-0.268
Mof_N 	N 	0.5507	0.0902	0.7598	-0.245
Mof_N 	N 	0.5927	0.9303	0.7203	-0.218
Mof_N 	N 	0.9969	0.9571	0.35	-0.272
Mof_N 	N 	0.6055	0.0754	0.6103	-0.204
Mof_N 	N 	0.7135	0.1498	0.4396	-0.144
Mof_N 	N 	0.5891	0.0426	0.9604	-0.098
Mof_N 	N 	0.8267	0.0937	0.3751	-0.149
Mof_N 	N 	0.7664	0.05	0.4524	-0.163
Mof_N 	N 	0.6988	0.28	0.3287	-0.223
Mof_N 	N 	0.6523	0.661	0.0921	-0.268
Mof_N 	N 	0.5507	0.6696	0.9098	-0.247
Mof_N 	N 	0.5927	0.79	0.0697	-0.209
Mof_N 	N 	0.9969	0.3929	0.0429	-0.272
Mof_N 	N 	0.6055	0.5349	0.9246	-0.204
Mof_N 	N 	0.7135	0.2898	0.8502	-0.144
Mof_N 	N 	0.5891	0.9178	0.9574	-0.112
Mof_N 	N 	0.8267	0.2814	0.9063	-0.147
Mof_N 	N 	0.7664	0.4024	0.95	-0.163
Mof_N 	N 	0.6988	0.0487	0.72	-0.192
Mof_N 	N 	0.6523	0.4311	0.339	-0.264
Mof_N 	N 	0.5507	0.2402	0.3304	-0.255
Mof_N 	N 	0.5927	0.2797	0.21	-0.218
Mof_N 	N 	0.9969	0.65	0.6071	-0.229
Mof_N 	N 	0.6055	0.3897	0.4651	-0.211
Mof_N 	N 	0.7135	0.5604	0.7102	-0.143
Mof_N 	N 	0.5891	0.0396	0.0822	-0.111
Mof_N 	N 	0.8267	0.6249	0.7186	-0.143
Mof_N 	N 	0.7664	0.5476	0.5976	-0.16
Mof_N 	N 	0.6988	0.6713	0.9513	-0.193
Mof_N 	N 	0.1523	0.661	0.5689	-0.265
Mof_N 	N 	0.0507	0.6696	0.7598	-0.258
Mof_N 	N 	0.0927	0.79	0.7203	-0.219
Mof_N 	N 	0.4969	0.3929	0.35	-0.226
Mof_N 	N 	0.1055	0.5349	0.6103	-0.213
Mof_N 	N 	0.2135	0.2898	0.4396	-0.143
Mof_N 	N 	0.0891	0.9178	0.9604	-0.11
Mof_N 	N 	0.3267	0.2814	0.3751	-0.144
Mof_N 	N 	0.2664	0.4024	0.4524	-0.159
Mof_N 	N 	0.1988	0.0487	0.3287	-0.192
Mof_N 	N 	0.1523	0.4311	0.0921	-0.27
Mof_N 	N 	0.0507	0.2402	0.9098	-0.248
Mof_N 	N 	0.0927	0.2797	0.0697	-0.218
Mof_N 	N 	0.4969	0.65	0.0429	-0.271
Mof_N 	N 	0.1055	0.3897	0.9246	-0.205
Mof_N 	N 	0.2135	0.5604	0.8502	-0.144
Mof_N 	N 	0.0891	0.0396	0.9574	-0.097
Mof_N 	N 	0.3267	0.6249	0.9063	-0.15
Mof_N 	N 	0.2664	0.5476	0.95	-0.163
Mof_N 	N 	0.1988	0.6713	0.72	-0.223
Mof_N 	N 	0.1523	0.9079	0.339	-0.27
Mof_N 	N 	0.0507	0.0902	0.3304	-0.25
Mof_N 	N 	0.0927	0.9303	0.21	-0.209
Mof_N 	N 	0.4969	0.9571	0.6071	-0.271
Mof_N 	N 	0.1055	0.0754	0.4651	-0.205
Mof_N 	N 	0.2135	0.1498	0.7102	-0.144
Mof_N 	N 	0.0891	0.0426	0.0822	-0.112
Mof_N 	N 	0.3267	0.0937	0.7186	-0.148
Mof_N 	N 	0.2664	0.05	0.5976	-0.163
Mof_N 	N 	0.1988	0.28	0.9513	-0.191
_end
