data_functionalizedCrystal
_audit_creation_method	'EQeq! by Chris Wilmer'
_symmetry_space_group_name_H-M	'P1'
_symmetry_Int_Tables_number	1
_symmetry_cell_setting	triclinic
loop_
_symmetry_equiv_pos_as_xyz
  x,y,z
_cell_length_a	9.8605
_cell_length_b	29.21
_cell_length_c	10.8652
_cell_angle_alpha	90
_cell_angle_beta	92.203
_cell_angle_gamma	90
loop_
_atom_site_label
_atom_site_type_symbol
_atom_site_fract_x
_atom_site_fract_y
_atom_site_fract_z
_atom_site_charge
Mof_C 	C 	0.0749	0.34892	0.9126	-0.079
Mof_C 	C 	0.9828	0.38012	0.8683	-0.032
Mof_H 	H 	0.0133	0.4075	0.8356	0.057
Mof_C 	C 	0.8419	0.37174	0.8708	0.023
Mof_H 	H 	0.781	0.3927	0.8356	0.029
Mof_C 	C 	0.7941	0.33279	0.925	-0.147
Mof_C 	C 	0.8873	0.30112	0.9827	0.068
Mof_C 	C 	0.8431	0.26445	0.0585	-0.083
Mof_C 	C 	0.9354	0.23335	0.1049	-0.035
Mof_H 	H 	0.9063	0.2099	0.1555	0.056
Mof_C 	C 	0.0735	0.23608	0.0774	0.013
Mof_H 	H 	0.133	0.2134	0.1059	0.022
Mof_C 	C 	0.1213	0.27134	0.0099	-0.13
Mof_C 	C 	0.03	0.30705	0.9662	0.046
Mof_C 	C 	0.2183	0.36542	0.9203	0.318
Mof_C 	C 	0.646	0.32248	0.9008	0.469
Mof_C 	C 	0.7025	0.26168	0.1058	0.333
Mof_C 	C 	0.2661	0.26758	0.9712	0.434
Mof_C 	C 	0.0264	0.48603	0.2287	-0.014
Mof_H 	H 	0.0574	0.4824	0.3101	0.048
Mof_C 	C 	0.1173	0.48905	0.1391	-0.105
Mof_C 	C 	0.2627	0.47647	0.1729	0.385
Mof_C 	C 	0.0716	0.49891	0.0143	0.062
Mof_C 	C 	0.1617	0.5063	0.9175	-0.127
Mof_C 	C 	0.3104	0.51416	0.9411	0.413
Mof_C 	C 	0.1135	0.5117	0.7982	-0.004
Mof_H 	H 	0.174	0.5139	0.7349	0.04
Mof_O 	O 	0.2626	0.39038	0.8347	-0.373
Mof_O 	O 	0.2909	0.35843	0.0156	-0.363
Mof_O 	O 	0.5627	0.35445	0.9037	-0.488
Mof_O 	O 	0.6155	0.28236	0.87	-0.442
Mof_O 	O 	0.6455	0.29649	0.1466	-0.373
Mof_O 	O 	0.6444	0.22301	0.1114	-0.358
Mof_O 	O 	0.2872	0.27274	0.8592	-0.447
Mof_O 	O 	0.3553	0.25522	0.0492	-0.472
Mof_O 	O 	0.3135	0.4908	0.2733	-0.27
Mof_O 	O 	0.3223	0.44993	0.1016	-0.433
Mof_O 	O 	0.3415	0.54595	0.0141	-0.448
Mof_O 	O 	0.3931	0.49032	0.8839	-0.435
Mof_Y 	Y 	0.45448	0.41856	0.95841	1.498
Mof_Y 	Y 	0.45957	0.25166	0.23669	1.346
Mof_C 	C 	0.9251	0.84892	0.5874	-0.078
Mof_C 	C 	0.0172	0.88012	0.6317	-0.042
Mof_H 	H 	0.9867	0.9075	0.6644	0.062
Mof_C 	C 	0.1581	0.87174	0.6292	0.027
Mof_H 	H 	0.219	0.8927	0.6644	0.027
Mof_C 	C 	0.2059	0.83279	0.575	-0.147
Mof_C 	C 	0.1127	0.80112	0.5173	0.066
Mof_C 	C 	0.1569	0.76445	0.4415	-0.083
Mof_C 	C 	0.0646	0.73335	0.3951	-0.035
Mof_H 	H 	0.0937	0.7099	0.3445	0.057
Mof_C 	C 	0.9265	0.73608	0.4226	0.016
Mof_H 	H 	0.867	0.7134	0.3941	0.02
Mof_C 	C 	0.8787	0.77134	0.4901	-0.144
Mof_C 	C 	0.97	0.80705	0.5338	0.057
Mof_C 	C 	0.7817	0.86542	0.5797	0.323
Mof_C 	C 	0.354	0.82248	0.5992	0.469
Mof_C 	C 	0.2975	0.76168	0.3942	0.333
Mof_C 	C 	0.7339	0.76758	0.5288	0.449
Mof_C 	C 	0.9736	0.98603	0.2713	-0.019
Mof_H 	H 	0.9426	0.9824	0.1899	0.049
Mof_C 	C 	0.8827	0.98905	0.3609	-0.104
Mof_C 	C 	0.7373	0.97647	0.3271	0.384
Mof_C 	C 	0.9284	0.99891	0.4857	0.06
Mof_C 	C 	0.8383	0.0063	0.5825	-0.126
Mof_C 	C 	0.6896	0.01416	0.5589	0.413
Mof_C 	C 	0.8865	0.0117	0.7018	0.001
Mof_H 	H 	0.826	0.0139	0.7651	0.039
Mof_O 	O 	0.7374	0.89038	0.6653	-0.373
Mof_O 	O 	0.7091	0.85843	0.4844	-0.369
Mof_O 	O 	0.4373	0.85445	0.5963	-0.488
Mof_O 	O 	0.3845	0.78236	0.63	-0.441
Mof_O 	O 	0.3545	0.79649	0.3534	-0.374
Mof_O 	O 	0.3556	0.72301	0.3886	-0.358
Mof_O 	O 	0.7128	0.77274	0.6408	-0.45
Mof_O 	O 	0.6447	0.75522	0.4508	-0.479
Mof_O 	O 	0.6865	0.9908	0.2267	-0.27
Mof_O 	O 	0.6777	0.94993	0.3984	-0.434
Mof_O 	O 	0.6585	0.04595	0.4859	-0.449
Mof_O 	O 	0.6069	0.99032	0.6161	-0.435
Mof_Y 	Y 	0.54552	0.91856	0.54159	1.501
Mof_Y 	Y 	0.54043	0.75166	0.26331	1.344
Mof_C 	C 	0.9251	0.65108	0.0874	-0.08
Mof_C 	C 	0.0172	0.61988	0.1317	-0.033
Mof_H 	H 	0.9867	0.5925	0.1644	0.057
Mof_C 	C 	0.1581	0.62826	0.1292	0.023
Mof_H 	H 	0.219	0.6073	0.1644	0.029
Mof_C 	C 	0.2059	0.66721	0.075	-0.147
Mof_C 	C 	0.1127	0.69888	0.0173	0.068
Mof_C 	C 	0.1569	0.73555	0.9415	-0.083
Mof_C 	C 	0.0646	0.76665	0.8951	-0.035
Mof_H 	H 	0.0937	0.7901	0.8445	0.056
Mof_C 	C 	0.9265	0.76392	0.9226	0.013
Mof_H 	H 	0.867	0.7866	0.8941	0.022
Mof_C 	C 	0.8787	0.72866	0.9901	-0.13
Mof_C 	C 	0.97	0.69295	0.0338	0.046
Mof_C 	C 	0.7817	0.63458	0.0797	0.318
Mof_C 	C 	0.354	0.67752	0.0992	0.469
Mof_C 	C 	0.2975	0.73832	0.8942	0.333
Mof_C 	C 	0.7339	0.73242	0.0288	0.434
Mof_C 	C 	0.9736	0.51397	0.7713	-0.014
Mof_H 	H 	0.9426	0.5176	0.6899	0.048
Mof_C 	C 	0.8827	0.51095	0.8609	-0.105
Mof_C 	C 	0.7373	0.52353	0.8271	0.385
Mof_C 	C 	0.9284	0.50109	0.9857	0.062
Mof_C 	C 	0.8383	0.4937	0.0825	-0.127
Mof_C 	C 	0.6896	0.48584	0.0589	0.413
Mof_C 	C 	0.8865	0.4883	0.2018	-0.004
Mof_H 	H 	0.826	0.4861	0.2651	0.04
Mof_O 	O 	0.7374	0.60962	0.1653	-0.373
Mof_O 	O 	0.7091	0.64157	0.9844	-0.363
Mof_O 	O 	0.4373	0.64555	0.0963	-0.488
Mof_O 	O 	0.3845	0.71764	0.13	-0.442
Mof_O 	O 	0.3545	0.70351	0.8534	-0.373
Mof_O 	O 	0.3556	0.77699	0.8886	-0.358
Mof_O 	O 	0.7128	0.72726	0.1408	-0.447
Mof_O 	O 	0.6447	0.74478	0.9508	-0.472
Mof_O 	O 	0.6865	0.5092	0.7267	-0.27
Mof_O 	O 	0.6777	0.55007	0.8984	-0.433
Mof_O 	O 	0.6585	0.45405	0.9859	-0.448
Mof_O 	O 	0.6069	0.50968	0.1161	-0.435
Mof_Y 	Y 	0.54552	0.58144	0.04159	1.498
Mof_Y 	Y 	0.54043	0.74834	0.76331	1.346
Mof_C 	C 	0.0749	0.15108	0.4126	-0.078
Mof_C 	C 	0.9828	0.11988	0.3683	-0.042
Mof_H 	H 	0.0133	0.0925	0.3356	0.062
Mof_C 	C 	0.8419	0.12826	0.3708	0.027
Mof_H 	H 	0.781	0.1073	0.3356	0.027
Mof_C 	C 	0.7941	0.16721	0.425	-0.147
Mof_C 	C 	0.8873	0.19888	0.4827	0.066
Mof_C 	C 	0.8431	0.23555	0.5585	-0.083
Mof_C 	C 	0.9354	0.26665	0.6049	-0.035
Mof_H 	H 	0.9063	0.2901	0.6555	0.057
Mof_C 	C 	0.0735	0.26392	0.5774	0.016
Mof_H 	H 	0.133	0.2866	0.6059	0.02
Mof_C 	C 	0.1213	0.22866	0.5099	-0.144
Mof_C 	C 	0.03	0.19295	0.4662	0.057
Mof_C 	C 	0.2183	0.13458	0.4203	0.323
Mof_C 	C 	0.646	0.17752	0.4008	0.469
Mof_C 	C 	0.7025	0.23832	0.6058	0.333
Mof_C 	C 	0.2661	0.23242	0.4712	0.449
Mof_C 	C 	0.0264	0.01397	0.7287	-0.019
Mof_H 	H 	0.0574	0.0176	0.8101	0.049
Mof_C 	C 	0.1173	0.01095	0.6391	-0.104
Mof_C 	C 	0.2627	0.02353	0.6729	0.384
Mof_C 	C 	0.0716	0.00109	0.5143	0.06
Mof_C 	C 	0.1617	0.9937	0.4175	-0.126
Mof_C 	C 	0.3104	0.98584	0.4411	0.413
Mof_C 	C 	0.1135	0.9883	0.2982	0.001
Mof_H 	H 	0.174	0.9861	0.2349	0.039
Mof_O 	O 	0.2626	0.10962	0.3347	-0.373
Mof_O 	O 	0.2909	0.14157	0.5156	-0.369
Mof_O 	O 	0.5627	0.14555	0.4037	-0.488
Mof_O 	O 	0.6155	0.21764	0.37	-0.441
Mof_O 	O 	0.6455	0.20351	0.6466	-0.374
Mof_O 	O 	0.6444	0.27699	0.6114	-0.358
Mof_O 	O 	0.2872	0.22726	0.3592	-0.45
Mof_O 	O 	0.3553	0.24478	0.5492	-0.479
Mof_O 	O 	0.3135	0.0092	0.7733	-0.27
Mof_O 	O 	0.3223	0.05007	0.6016	-0.434
Mof_O 	O 	0.3415	0.95405	0.5141	-0.449
Mof_O 	O 	0.3931	0.00968	0.3839	-0.435
Mof_Y 	Y 	0.45448	0.08145	0.45841	1.501
Mof_Y 	Y 	0.45957	0.24834	0.73669	1.344
_end
