data_functionalizedCrystal
_audit_creation_method	'EQeq! by Chris Wilmer'
_symmetry_space_group_name_H-M	'P1'
_symmetry_Int_Tables_number	1
_symmetry_cell_setting	triclinic
loop_
_symmetry_equiv_pos_as_xyz
  x,y,z
_cell_length_a	9.4098
_cell_length_b	9.4098
_cell_length_c	11.742
_cell_angle_alpha	90.3182
_cell_angle_beta	90.3182
_cell_angle_gamma	110.041
loop_
_atom_site_label
_atom_site_type_symbol
_atom_site_fract_x
_atom_site_fract_y
_atom_site_fract_z
_atom_site_charge
Mof_Co	Co	0.11278	0.88722	0.5	1.126
Mof_Co	Co	0.8585	0.8687	0.68848	1.112
Mof_Co	Co	0.88722	0.11278	-0	1.087
Mof_Co	Co	0.8687	0.8585	0.18848	1.105
Mof_H 	H 	0.931	0.4348	0.2346	0.024
Mof_H 	H 	0.8777	0.3309	0.6178	0.053
Mof_H 	H 	0.4348	0.931	0.7346	0.031
Mof_H 	H 	0.3309	0.8777	0.1178	0.088
Mof_C 	C 	0.8616	0.5966	0.5904	0.343
Mof_C 	C 	0.9083	0.6657	0.3298	0.161
Mof_C 	C 	0.9182	0.1578	0.2608	0.366
Mof_C 	C 	0.9344	0.11	0.5201	0.199
Mof_C 	C 	0.891	0.4932	0.504	-0.108
Mof_C 	C 	0.9078	0.5238	0.3873	-0.046
Mof_C 	C 	0.922	0.4142	0.3121	-0.007
Mof_C 	C 	0.923	0.275	0.3504	-0.089
Mof_C 	C 	0.913	0.2454	0.4683	-0.013
Mof_C 	C 	0.8919	0.3533	0.5408	-0.013
Mof_C 	C 	0.5966	0.8616	0.0904	0.346
Mof_C 	C 	0.6657	0.9083	0.8298	0.154
Mof_C 	C 	0.1578	0.9182	0.7608	0.384
Mof_C 	C 	0.11	0.9344	0.0201	0.024
Mof_C 	C 	0.4932	0.891	0.004	-0.143
Mof_C 	C 	0.5238	0.9078	0.8873	0.017
Mof_C 	C 	0.4142	0.922	0.8121	0.005
Mof_C 	C 	0.275	0.923	0.8504	-0.129
Mof_C 	C 	0.2454	0.913	0.9683	0.164
Mof_C 	C 	0.3533	0.8919	0.0408	-0.143
Mof_O 	O 	0.9017	0.7407	0.5651	-0.613
Mof_O 	O 	0.7995	0.5479	0.6776	-0.309
Mof_O 	O 	0.0057	0.7937	0.3458	-0.357
Mof_O 	O 	0.8053	0.6483	0.2531	-0.378
Mof_O 	O 	0.9599	0.2029	0.1629	-0.501
Mof_O 	O 	0.8642	0.0218	0.2914	-0.405
Mof_O 	O 	0.0438	0.071	0.4856	-0.229
Mof_O 	O 	0.847	0.0442	0.5989	-0.344
Mof_O 	O 	0.7407	0.9017	0.0651	-0.634
Mof_O 	O 	0.5479	0.7995	0.1776	-0.325
Mof_O 	O 	0.7937	0.0057	0.8458	-0.328
Mof_O 	O 	0.6483	0.8053	0.7531	-0.36
Mof_O 	O 	0.2029	0.9599	0.6629	-0.484
Mof_O 	O 	0.0218	0.8642	0.7914	-0.394
Mof_O 	O 	0.071	0.0438	0.9856	-0.123
Mof_O 	O 	0.0442	0.847	0.0989	-0.314
_end
