# CIF file generated by openbabel 3.1.0, see https://openbabel.org
data_I
_chemical_name_common 'image0'
_cell_length_a 16.719
_cell_length_b 16.719
_cell_length_c 24.598
_cell_angle_alpha 90
_cell_angle_beta 90
_cell_angle_gamma 120
_space_group_name_H-M_alt 'P 1'
_space_group_name_Hall 'P 1'
loop_
    _symmetry_equiv_pos_as_xyz
    x,y,z
loop_
    _atom_site_label
    _atom_site_type_symbol
    _atom_site_fract_x
    _atom_site_fract_y
    _atom_site_fract_z
    _atom_site_occupancy
    Co1      Co       0.40788    0.68402    0.74945    1.000
    Co2      Co       0.49182    0.25482    0.46862    1.000
    C1       C        0.04560    0.82840    0.55950    1.000
    H1       H        0.09980    0.83170    0.54400    1.000
    H2       H        0.05130    0.83230    0.59840    1.000
    H3       H        0.03880    0.87860    0.54610    1.000
    C2       C        0.96060    0.73660    0.54360    1.000
    H4       H        0.96870    0.68730    0.55940    1.000
    C3       C        0.87210    0.72540    0.56620    1.000
    C4       C        0.86420    0.79150    0.59514    1.000
    H5       H        0.91770    0.84770    0.60120    1.000
    C5       C        0.78210    0.78010    0.61600    1.000
    C6       C        0.70270    0.69530    0.60845    1.000
    C7       C        0.70550    0.62550    0.57830    1.000
    H6       H        0.65190    0.56920    0.57250    1.000
    C8       C        0.78810    0.64160    0.55750    1.000
    C9       C        0.73000    0.52980    0.48710    1.000
    H7       H        0.76200    0.53340    0.45360    1.000
    H8       H        0.69580    0.56200    0.48150    1.000
    C10      C        0.66280    0.42980    0.49970    1.000
    C11      C        0.54350    0.59580    0.63170    1.000
    H9       H        0.55990    0.55040    0.64350    1.000
    H10      H        0.52000    0.58040    0.59480    1.000
    C12      C        0.46890    0.59080    0.66817    1.000
    C13      C        0.77780    0.85840    0.64570    1.000
    H11      H        0.73270    0.83010    0.67510    1.000
    C14      C        0.86780    0.92850    0.67130    1.000
    H12      H        0.85990    0.97510    0.68920    1.000
    H13      H        0.91420    0.95670    0.64360    1.000
    H14      H        0.88670    0.89840    0.69730    1.000
    C15      C        0.74200    0.90670    0.60780    1.000
    C16      C        0.69810    0.95050    0.62930    1.000
    C17      C        0.66810    0.99860    0.59770    1.000
    H15      H        0.64000    0.02870    0.61360    1.000
    C18      C        0.68040    0.00160    0.54220    1.000
    C19      C        0.72410    0.95670    0.51820    1.000
    C20      C        0.75370    0.91110    0.55190    1.000
    H16      H        0.78300    0.88180    0.53640    1.000
    C21      C        0.59810    0.88170    0.70180    1.000
    H17      H        0.58270    0.82370    0.68430    1.000
    H18      H        0.55280    0.89860    0.69080    1.000
    C22      C        0.59650    0.87080    0.76360    1.000
    C23      C        0.60950    0.09200    0.53120    1.000
    H19      H        0.64960    0.13360    0.55920    1.000
    H20      H        0.55190    0.04730    0.54820    1.000
    C24      C        0.59110    0.14590    0.48920    1.000
    O1       O        0.79620    0.57510    0.52905    1.000
    O2       O        0.60350    0.38720    0.46352    1.000
    O3       O        0.67260    0.39880    0.54392    1.000
    O4       O        0.62380    0.68470    0.63200    1.000
    O5       O        0.49070    0.65240    0.70354    1.000
    O6       O        0.39060    0.52270    0.66184    1.000
    O7       O        0.68700    0.95090    0.68565    1.000
    O8       O        0.65580    0.93070    0.79056    1.000
    O9       O        0.52640    0.80080    0.78277    1.000
    O10      O        0.65170    0.04590    0.50711    1.000
    O11      O        0.56900    0.20310    0.50852    1.000
    O12      O        0.59630    0.13400    0.44070    1.000
    Co3      Co       0.31598    0.72386    0.08278    1.000
    Co4      Co       0.74518    0.23700    0.80195    1.000
    C25      C        0.17160    0.21720    0.89283    1.000
    H21      H        0.16830    0.26810    0.87733    1.000
    H22      H        0.16770    0.21900    0.93173    1.000
    H23      H        0.12140    0.16020    0.87943    1.000
    C26      C        0.26340    0.22400    0.87693    1.000
    H24      H        0.31270    0.28140    0.89273    1.000
    C27      C        0.27460    0.14670    0.89953    1.000
    C28      C        0.20850    0.07270    0.92847    1.000
    H25      H        0.15230    0.07000    0.93453    1.000
    C29      C        0.21990    0.00200    0.94933    1.000
    C30      C        0.30470    0.00740    0.94178    1.000
    C31      C        0.37450    0.08000    0.91163    1.000
    H26      H        0.43080    0.08270    0.90583    1.000
    C32      C        0.35840    0.14650    0.89083    1.000
    C33      C        0.47020    0.20020    0.82043    1.000
    H27      H        0.46660    0.22860    0.78693    1.000
    H28      H        0.43800    0.13380    0.81483    1.000
    C34      C        0.57020    0.23300    0.83303    1.000
    C35      C        0.40420    0.94770    0.96503    1.000
    H29      H        0.44960    0.00950    0.97683    1.000
    H30      H        0.41960    0.93960    0.92813    1.000
    C36      C        0.40920    0.87810    0.00150    1.000
    C37      C        0.14160    0.91940    0.97903    1.000
    H31      H        0.16990    0.90260    0.00843    1.000
    C38      C        0.07150    0.93930    0.00463    1.000
    H32      H        0.02490    0.88480    0.02253    1.000
    H33      H        0.04330    0.95750    0.97693    1.000
    H34      H        0.10160    0.98830    0.03063    1.000
    C39      C        0.09330    0.83530    0.94113    1.000
    C40      C        0.04950    0.74760    0.96263    1.000
    C41      C        0.00140    0.66950    0.93103    1.000
    H35      H        0.97130    0.61130    0.94693    1.000
    C42      C        0.99840    0.67880    0.87553    1.000
    C43      C        0.04330    0.76740    0.85153    1.000
    C44      C        0.08890    0.84260    0.88523    1.000
    H36      H        0.11820    0.90120    0.86973    1.000
    C45      C        0.11830    0.71640    0.03513    1.000
    H37      H        0.17630    0.75900    0.01763    1.000
    H38      H        0.10140    0.65420    0.02413    1.000
    C46      C        0.12920    0.72570    0.09693    1.000
    C47      C        0.90800    0.51750    0.86453    1.000
    H39      H        0.86640    0.51600    0.89253    1.000
    H40      H        0.95270    0.50460    0.88153    1.000
    C48      C        0.85410    0.44520    0.82253    1.000
    O13      O        0.42490    0.22110    0.86238    1.000
    O14      O        0.61280    0.21630    0.79685    1.000
    O15      O        0.60120    0.27380    0.87725    1.000
    O16      O        0.31530    0.93910    0.96533    1.000
    O17      O        0.34760    0.83830    0.03687    1.000
    O18      O        0.47730    0.86790    0.99517    1.000
    O19      O        0.04910    0.73610    0.01898    1.000
    O20      O        0.06930    0.72510    0.12389    1.000
    O21      O        0.19920    0.72560    0.11610    1.000
    O22      O        0.95410    0.60580    0.84044    1.000
    O23      O        0.79690    0.36590    0.84185    1.000
    O24      O        0.86600    0.46230    0.77403    1.000
    Co5      Co       0.27614    0.59212    0.41612    1.000
    Co6      Co       0.76300    0.50818    0.13529    1.000
    C49      C        0.78280    0.95440    0.22617    1.000
    H41      H        0.73190    0.90020    0.21067    1.000
    H42      H        0.78100    0.94870    0.26507    1.000
    H43      H        0.83980    0.96120    0.21277    1.000
    C50      C        0.77600    0.03940    0.21027    1.000
    H44      H        0.71860    0.03130    0.22607    1.000
    C51      C        0.85330    0.12790    0.23287    1.000
    C52      C        0.92730    0.13580    0.26181    1.000
    H45      H        0.93000    0.08230    0.26787    1.000
    C53      C        0.99800    0.21790    0.28267    1.000
    C54      C        0.99260    0.29730    0.27512    1.000
    C55      C        0.92000    0.29450    0.24497    1.000
    H46      H        0.91730    0.34810    0.23917    1.000
    C56      C        0.85350    0.21190    0.22417    1.000
    C57      C        0.79980    0.27000    0.15377    1.000
    H47      H        0.77140    0.23800    0.12027    1.000
    H48      H        0.86620    0.30420    0.14817    1.000
    C58      C        0.76700    0.33720    0.16637    1.000
    C59      C        0.05230    0.45650    0.29837    1.000
    H49      H        0.99050    0.44010    0.31017    1.000
    H50      H        0.06040    0.48000    0.26147    1.000
    C60      C        0.12190    0.53110    0.33484    1.000
    C61      C        0.08060    0.22220    0.31237    1.000
    H51      H        0.09740    0.26730    0.34177    1.000
    C62      C        0.06070    0.13220    0.33797    1.000
    H52      H        0.11520    0.14010    0.35587    1.000
    H53      H        0.04250    0.08580    0.31027    1.000
    H54      H        0.01170    0.11330    0.36397    1.000
    C63      C        0.16470    0.25800    0.27447    1.000
    C64      C        0.25240    0.30190    0.29597    1.000
    C65      C        0.33050    0.33190    0.26437    1.000
    H55      H        0.38870    0.36000    0.28027    1.000
    C66      C        0.32120    0.31960    0.20887    1.000
    C67      C        0.23260    0.27590    0.18487    1.000
    C68      C        0.15740    0.24630    0.21857    1.000
    H56      H        0.09880    0.21700    0.20307    1.000
    C69      C        0.28360    0.40190    0.36847    1.000
    H57      H        0.24100    0.41730    0.35097    1.000
    H58      H        0.34580    0.44720    0.35747    1.000
    C70      C        0.27430    0.40350    0.43027    1.000
    C71      C        0.48250    0.39050    0.19787    1.000
    H59      H        0.48400    0.35040    0.22587    1.000
    H60      H        0.49540    0.44810    0.21487    1.000
    C72      C        0.55480    0.40890    0.15587    1.000
    O25      O        0.77890    0.20380    0.19572    1.000
    O26      O        0.78370    0.39650    0.13019    1.000
    O27      O        0.72620    0.32740    0.21059    1.000
    O28      O        0.06090    0.37620    0.29867    1.000
    O29      O        0.16170    0.50930    0.37021    1.000
    O30      O        0.13210    0.60940    0.32851    1.000
    O31      O        0.26390    0.31300    0.35232    1.000
    O32      O        0.27490    0.34420    0.45723    1.000
    O33      O        0.27440    0.47360    0.44944    1.000
    O34      O        0.39420    0.34830    0.17378    1.000
    O35      O        0.63410    0.43100    0.17519    1.000
    O36      O        0.53770    0.40370    0.10737    1.000
    Co7      Co       0.68402    0.40788    0.25055    1.000
    Co8      Co       0.25482    0.49182    0.53138    1.000
    C73      C        0.82840    0.04560    0.44050    1.000
    H61      H        0.83170    0.09980    0.45600    1.000
    H62      H        0.83230    0.05130    0.40160    1.000
    H63      H        0.87860    0.03880    0.45390    1.000
    C74      C        0.73660    0.96060    0.45640    1.000
    H64      H        0.68730    0.96870    0.44060    1.000
    C75      C        0.72540    0.87210    0.43380    1.000
    C76      C        0.79150    0.86420    0.40486    1.000
    H65      H        0.84770    0.91770    0.39880    1.000
    C77      C        0.78010    0.78210    0.38400    1.000
    C78      C        0.69530    0.70270    0.39155    1.000
    C79      C        0.62550    0.70550    0.42170    1.000
    H66      H        0.56920    0.65190    0.42750    1.000
    C80      C        0.64160    0.78810    0.44250    1.000
    C81      C        0.52980    0.73000    0.51290    1.000
    H67      H        0.53340    0.76200    0.54640    1.000
    H68      H        0.56200    0.69580    0.51850    1.000
    C82      C        0.42980    0.66280    0.50030    1.000
    C83      C        0.59580    0.54350    0.36830    1.000
    H69      H        0.55040    0.55990    0.35650    1.000
    H70      H        0.58040    0.52000    0.40520    1.000
    C84      C        0.59080    0.46890    0.33183    1.000
    C85      C        0.85840    0.77780    0.35430    1.000
    H71      H        0.83010    0.73270    0.32490    1.000
    C86      C        0.92850    0.86780    0.32870    1.000
    H72      H        0.97510    0.85990    0.31080    1.000
    H73      H        0.95670    0.91420    0.35640    1.000
    H74      H        0.89840    0.88670    0.30270    1.000
    C87      C        0.90670    0.74200    0.39220    1.000
    C88      C        0.95050    0.69810    0.37070    1.000
    C89      C        0.99860    0.66810    0.40230    1.000
    H75      H        0.02870    0.64000    0.38640    1.000
    C90      C        0.00160    0.68040    0.45780    1.000
    C91      C        0.95670    0.72410    0.48180    1.000
    C92      C        0.91110    0.75370    0.44810    1.000
    H76      H        0.88180    0.78300    0.46360    1.000
    C93      C        0.88170    0.59810    0.29820    1.000
    H77      H        0.82370    0.58270    0.31570    1.000
    H78      H        0.89860    0.55280    0.30920    1.000
    C94      C        0.87080    0.59650    0.23640    1.000
    C95      C        0.09200    0.60950    0.46880    1.000
    H79      H        0.13360    0.64960    0.44080    1.000
    H80      H        0.04730    0.55190    0.45180    1.000
    C96      C        0.14590    0.59110    0.51080    1.000
    O37      O        0.57510    0.79620    0.47095    1.000
    O38      O        0.38720    0.60350    0.53648    1.000
    O39      O        0.39880    0.67260    0.45608    1.000
    O40      O        0.68470    0.62380    0.36800    1.000
    O41      O        0.65240    0.49070    0.29646    1.000
    O42      O        0.52270    0.39060    0.33816    1.000
    O43      O        0.95090    0.68700    0.31435    1.000
    O44      O        0.93070    0.65580    0.20944    1.000
    O45      O        0.80080    0.52640    0.21723    1.000
    O46      O        0.04590    0.65170    0.49289    1.000
    O47      O        0.20310    0.56900    0.49148    1.000
    O48      O        0.13400    0.59630    0.55930    1.000
    Co9      Co       0.72386    0.31598    0.91722    1.000
    Co10     Co       0.23700    0.74518    0.19805    1.000
    C97      C        0.21720    0.17160    0.10717    1.000
    H81      H        0.26810    0.16830    0.12267    1.000
    H82      H        0.21900    0.16770    0.06827    1.000
    H83      H        0.16020    0.12140    0.12057    1.000
    C98      C        0.22400    0.26340    0.12307    1.000
    H84      H        0.28140    0.31270    0.10727    1.000
    C99      C        0.14670    0.27460    0.10047    1.000
    C100     C        0.07270    0.20850    0.07153    1.000
    H85      H        0.07000    0.15230    0.06547    1.000
    C101     C        0.00200    0.21990    0.05067    1.000
    C102     C        0.00740    0.30470    0.05822    1.000
    C103     C        0.08000    0.37450    0.08837    1.000
    H86      H        0.08270    0.43080    0.09417    1.000
    C104     C        0.14650    0.35840    0.10917    1.000
    C105     C        0.20020    0.47020    0.17957    1.000
    H87      H        0.22860    0.46660    0.21307    1.000
    H88      H        0.13380    0.43800    0.18517    1.000
    C106     C        0.23300    0.57020    0.16697    1.000
    C107     C        0.94770    0.40420    0.03497    1.000
    H89      H        0.00950    0.44960    0.02317    1.000
    H90      H        0.93960    0.41960    0.07187    1.000
    C108     C        0.87810    0.40920    0.99850    1.000
    C109     C        0.91940    0.14160    0.02097    1.000
    H91      H        0.90260    0.16990    0.99157    1.000
    C110     C        0.93930    0.07150    0.99537    1.000
    H92      H        0.88480    0.02490    0.97747    1.000
    H93      H        0.95750    0.04330    0.02307    1.000
    H94      H        0.98830    0.10160    0.96937    1.000
    C111     C        0.83530    0.09330    0.05887    1.000
    C112     C        0.74760    0.04950    0.03737    1.000
    C113     C        0.66950    0.00140    0.06897    1.000
    H95      H        0.61130    0.97130    0.05307    1.000
    C114     C        0.67880    0.99840    0.12447    1.000
    C115     C        0.76740    0.04330    0.14847    1.000
    C116     C        0.84260    0.08890    0.11477    1.000
    H96      H        0.90120    0.11820    0.13027    1.000
    C117     C        0.71640    0.11830    0.96487    1.000
    H97      H        0.75900    0.17630    0.98237    1.000
    H98      H        0.65420    0.10140    0.97587    1.000
    C118     C        0.72570    0.12920    0.90307    1.000
    C119     C        0.51750    0.90800    0.13547    1.000
    H99      H        0.51600    0.86640    0.10747    1.000
    H100     H        0.50460    0.95270    0.11847    1.000
    C120     C        0.44520    0.85410    0.17747    1.000
    O49      O        0.22110    0.42490    0.13762    1.000
    O50      O        0.21630    0.61280    0.20315    1.000
    O51      O        0.27380    0.60120    0.12275    1.000
    O52      O        0.93910    0.31530    0.03467    1.000
    O53      O        0.83830    0.34760    0.96313    1.000
    O54      O        0.86790    0.47730    0.00483    1.000
    O55      O        0.73610    0.04910    0.98102    1.000
    O56      O        0.72510    0.06930    0.87611    1.000
    O57      O        0.72560    0.19920    0.88390    1.000
    O58      O        0.60580    0.95410    0.15956    1.000
    O59      O        0.36590    0.79690    0.15815    1.000
    O60      O        0.46230    0.86600    0.22597    1.000
    Co11     Co       0.59212    0.27614    0.58388    1.000
    Co12     Co       0.50818    0.76300    0.86471    1.000
    C121     C        0.95440    0.78280    0.77383    1.000
    H101     H        0.90020    0.73190    0.78933    1.000
    H102     H        0.94870    0.78100    0.73493    1.000
    H103     H        0.96120    0.83980    0.78723    1.000
    C122     C        0.03940    0.77600    0.78973    1.000
    H104     H        0.03130    0.71860    0.77393    1.000
    C123     C        0.12790    0.85330    0.76713    1.000
    C124     C        0.13580    0.92730    0.73819    1.000
    H105     H        0.08230    0.93000    0.73213    1.000
    C125     C        0.21790    0.99800    0.71733    1.000
    C126     C        0.29730    0.99260    0.72488    1.000
    C127     C        0.29450    0.92000    0.75503    1.000
    H106     H        0.34810    0.91730    0.76083    1.000
    C128     C        0.21190    0.85350    0.77583    1.000
    C129     C        0.27000    0.79980    0.84623    1.000
    H107     H        0.23800    0.77140    0.87973    1.000
    H108     H        0.30420    0.86620    0.85183    1.000
    C130     C        0.33720    0.76700    0.83363    1.000
    C131     C        0.45650    0.05230    0.70163    1.000
    H109     H        0.44010    0.99050    0.68983    1.000
    H110     H        0.48000    0.06040    0.73853    1.000
    C132     C        0.53110    0.12190    0.66516    1.000
    C133     C        0.22220    0.08060    0.68763    1.000
    H111     H        0.26730    0.09740    0.65823    1.000
    C134     C        0.13220    0.06070    0.66203    1.000
    H112     H        0.14010    0.11520    0.64413    1.000
    H113     H        0.08580    0.04250    0.68973    1.000
    H114     H        0.11330    0.01170    0.63603    1.000
    C135     C        0.25800    0.16470    0.72553    1.000
    C136     C        0.30190    0.25240    0.70403    1.000
    C137     C        0.33190    0.33050    0.73563    1.000
    H115     H        0.36000    0.38870    0.71973    1.000
    C138     C        0.31960    0.32120    0.79113    1.000
    C139     C        0.27590    0.23260    0.81513    1.000
    C140     C        0.24630    0.15740    0.78143    1.000
    H116     H        0.21700    0.09880    0.79693    1.000
    C141     C        0.40190    0.28360    0.63153    1.000
    H117     H        0.41730    0.24100    0.64903    1.000
    H118     H        0.44720    0.34580    0.64253    1.000
    C142     C        0.40350    0.27430    0.56973    1.000
    C143     C        0.39050    0.48250    0.80213    1.000
    H119     H        0.35040    0.48400    0.77413    1.000
    H120     H        0.44810    0.49540    0.78513    1.000
    C144     C        0.40890    0.55480    0.84413    1.000
    O61      O        0.20380    0.77890    0.80428    1.000
    O62      O        0.39650    0.78370    0.86981    1.000
    O63      O        0.32740    0.72620    0.78941    1.000
    O64      O        0.37620    0.06090    0.70133    1.000
    O65      O        0.50930    0.16170    0.62979    1.000
    O66      O        0.60940    0.13210    0.67149    1.000
    O67      O        0.31300    0.26390    0.64768    1.000
    O68      O        0.34420    0.27490    0.54277    1.000
    O69      O        0.47360    0.27440    0.55056    1.000
    O70      O        0.34830    0.39420    0.82622    1.000
    O71      O        0.43100    0.63410    0.82481    1.000
    O72      O        0.40370    0.53770    0.89263    1.000
