data_functionalizedCrystal
_audit_creation_method	'EQeq! by Chris Wilmer'
_symmetry_space_group_name_H-M	'P1'
_symmetry_Int_Tables_number	1
_symmetry_cell_setting	triclinic
loop_
_symmetry_equiv_pos_as_xyz
  x,y,z
_cell_length_a	7.3053
_cell_length_b	17.5056
_cell_length_c	12.6731
_cell_angle_alpha	90
_cell_angle_beta	90
_cell_angle_gamma	90
loop_
_atom_site_label
_atom_site_type_symbol
_atom_site_fract_x
_atom_site_fract_y
_atom_site_fract_z
_atom_site_charge
Mof_O 	O 	0.344	0.16631	0.64993	-0.491
Mof_O 	O 	0.6508	0.16382	0.65647	-0.492
Mof_C 	C 	0.4975	0.06727	0.5613	-0.133
Mof_C 	C 	0.5591	0.06963	0.4567	0.051
Mof_C 	C 	0.6182	0.13911	0.4079	-0.083
Mof_C 	C 	0.6778	0.1404	0.3073	-0.024
Mof_C 	C 	0.6851	0.073	0.2467	-0.023
Mof_C 	C 	0.6303	0.00628	0.2885	-0.081
Mof_C 	C 	0.5647	0.0012	0.3944	0.051
Mof_C 	C 	0.4978	0.1389	0.6287	0.42
Mof_H 	H 	0.617	0.1841	0.4478	0.059
Mof_H 	H 	0.7154	0.1869	0.2771	0.035
Mof_H 	H 	0.728	0.0749	0.1766	0.045
Mof_H 	H 	0.6348	0.9617	0.2473	0.069
Mof_O 	O 	0.156	0.83369	0.14993	-0.49
Mof_O 	O 	0.8492	0.83618	0.15647	-0.488
Mof_C 	C 	0.0025	0.93273	0.0613	-0.134
Mof_C 	C 	0.9409	0.93037	0.9567	0.052
Mof_C 	C 	0.8818	0.86089	0.9079	-0.084
Mof_C 	C 	0.8222	0.8596	0.8073	-0.023
Mof_C 	C 	0.8149	0.927	0.7467	-0.025
Mof_C 	C 	0.8697	0.99372	0.7885	-0.079
Mof_C 	C 	0.9353	0.9988	0.8944	0.051
Mof_C 	C 	0.0022	0.8611	0.1287	0.417
Mof_H 	H 	0.883	0.8159	0.9478	0.059
Mof_H 	H 	0.7846	0.8131	0.7771	0.034
Mof_H 	H 	0.772	0.9251	0.6766	0.045
Mof_H 	H 	0.8652	0.0383	0.7473	0.068
Mof_O 	O 	0.656	0.66631	0.35007	-0.49
Mof_O 	O 	0.3492	0.66382	0.34353	-0.491
Mof_C 	C 	0.5025	0.56727	0.4387	-0.133
Mof_C 	C 	0.4409	0.56963	0.5433	0.051
Mof_C 	C 	0.3818	0.63911	0.5921	-0.084
Mof_C 	C 	0.3222	0.6404	0.6927	-0.024
Mof_C 	C 	0.3149	0.573	0.7533	-0.024
Mof_C 	C 	0.3697	0.50628	0.7115	-0.08
Mof_C 	C 	0.4353	0.5012	0.6056	0.051
Mof_C 	C 	0.5022	0.6389	0.3713	0.42
Mof_H 	H 	0.383	0.6841	0.5522	0.059
Mof_H 	H 	0.2846	0.6869	0.7229	0.034
Mof_H 	H 	0.272	0.5749	0.8234	0.045
Mof_H 	H 	0.3652	0.4617	0.7527	0.069
Mof_O 	O 	0.844	0.33369	0.85007	-0.49
Mof_O 	O 	0.1508	0.33618	0.84353	-0.488
Mof_C 	C 	0.9975	0.43273	0.9387	-0.134
Mof_C 	C 	0.0591	0.43037	0.0433	0.051
Mof_C 	C 	0.1182	0.36089	0.0921	-0.083
Mof_C 	C 	0.1778	0.3596	0.1927	-0.024
Mof_C 	C 	0.1851	0.427	0.2533	-0.024
Mof_C 	C 	0.1303	0.49372	0.2115	-0.08
Mof_C 	C 	0.0647	0.4988	0.1056	0.051
Mof_C 	C 	0.9978	0.3611	0.8713	0.417
Mof_H 	H 	0.117	0.3159	0.0522	0.059
Mof_H 	H 	0.2154	0.3131	0.2229	0.034
Mof_H 	H 	0.228	0.4251	0.3234	0.045
Mof_H 	H 	0.1348	0.5383	0.2527	0.068
Mof_O 	O 	0.656	0.83369	0.35007	-0.49
Mof_O 	O 	0.3492	0.83618	0.34353	-0.491
Mof_C 	C 	0.5025	0.93273	0.4387	-0.133
Mof_C 	C 	0.4409	0.93037	0.5433	0.051
Mof_C 	C 	0.3818	0.86089	0.5921	-0.083
Mof_C 	C 	0.3222	0.8596	0.6927	-0.024
Mof_C 	C 	0.3149	0.927	0.7533	-0.023
Mof_C 	C 	0.3697	0.99372	0.7115	-0.081
Mof_C 	C 	0.4353	0.9988	0.6056	0.051
Mof_C 	C 	0.5022	0.8611	0.3713	0.42
Mof_H 	H 	0.383	0.8159	0.5522	0.059
Mof_H 	H 	0.2846	0.8131	0.7229	0.035
Mof_H 	H 	0.272	0.9251	0.8234	0.045
Mof_H 	H 	0.3652	0.0383	0.7527	0.069
Mof_O 	O 	0.844	0.16631	0.85007	-0.49
Mof_O 	O 	0.1508	0.16382	0.84353	-0.488
Mof_C 	C 	0.9975	0.06727	0.9387	-0.134
Mof_C 	C 	0.0591	0.06963	0.0433	0.052
Mof_C 	C 	0.1182	0.13911	0.0921	-0.084
Mof_C 	C 	0.1778	0.1404	0.1927	-0.023
Mof_C 	C 	0.1851	0.073	0.2533	-0.025
Mof_C 	C 	0.1303	0.00628	0.2115	-0.079
Mof_C 	C 	0.0647	0.0012	0.1056	0.051
Mof_C 	C 	0.9978	0.1389	0.8713	0.417
Mof_H 	H 	0.117	0.1841	0.0522	0.059
Mof_H 	H 	0.2154	0.1869	0.2229	0.034
Mof_H 	H 	0.228	0.0749	0.3234	0.045
Mof_H 	H 	0.1348	0.9617	0.2527	0.068
Mof_O 	O 	0.344	0.33369	0.64993	-0.49
Mof_O 	O 	0.6508	0.33618	0.65647	-0.491
Mof_C 	C 	0.4975	0.43273	0.5613	-0.133
Mof_C 	C 	0.5591	0.43037	0.4567	0.051
Mof_C 	C 	0.6182	0.36089	0.4079	-0.084
Mof_C 	C 	0.6778	0.3596	0.3073	-0.024
Mof_C 	C 	0.6851	0.427	0.2467	-0.024
Mof_C 	C 	0.6303	0.49372	0.2885	-0.08
Mof_C 	C 	0.5647	0.4988	0.3944	0.051
Mof_C 	C 	0.4978	0.3611	0.6287	0.42
Mof_H 	H 	0.617	0.3159	0.4478	0.059
Mof_H 	H 	0.7154	0.3131	0.2771	0.034
Mof_H 	H 	0.728	0.4251	0.1766	0.045
Mof_H 	H 	0.6348	0.5383	0.2473	0.069
Mof_O 	O 	0.156	0.66631	0.14993	-0.49
Mof_O 	O 	0.8492	0.66382	0.15647	-0.488
Mof_C 	C 	0.0025	0.56727	0.0613	-0.134
Mof_C 	C 	0.9409	0.56963	0.9567	0.051
Mof_C 	C 	0.8818	0.63911	0.9079	-0.083
Mof_C 	C 	0.8222	0.6404	0.8073	-0.024
Mof_C 	C 	0.8149	0.573	0.7467	-0.024
Mof_C 	C 	0.8697	0.50628	0.7885	-0.08
Mof_C 	C 	0.9353	0.5012	0.8944	0.051
Mof_C 	C 	0.0022	0.6389	0.1287	0.417
Mof_H 	H 	0.883	0.6841	0.9478	0.059
Mof_H 	H 	0.7846	0.6869	0.7771	0.034
Mof_H 	H 	0.772	0.5749	0.6766	0.045
Mof_H 	H 	0.8652	0.4617	0.7473	0.068
Mof_Zn	Zn	0.2438	0.25	0.74642	1.194
Mof_Zn	Zn	0.2562	0.75	0.24642	1.194
Mof_Zn	Zn	0.7562	0.75	0.25358	1.194
Mof_Zn	Zn	0.7438	0.25	0.75358	1.194
_end
