data_functionalizedCrystal
_audit_creation_method	'EQeq! by Chris Wilmer'
_symmetry_space_group_name_H-M	'P1'
_symmetry_Int_Tables_number	1
_symmetry_cell_setting	triclinic
loop_
_symmetry_equiv_pos_as_xyz
  x,y,z
_cell_length_a	8.6876
_cell_length_b	14.166
_cell_length_c	15.14
_cell_angle_alpha	115.093
_cell_angle_beta	106.673
_cell_angle_gamma	90
loop_
_atom_site_label
_atom_site_type_symbol
_atom_site_fract_x
_atom_site_fract_y
_atom_site_fract_z
_atom_site_charge
Mof_Sm	Sm	0.50502	0.00549	0.54568	2.436
Mof_Sm	Sm	0.95934	0.99451	0.45432	2.333
Mof_H 	H 	0.4407	0.8022	0.6706	-0.04
Mof_H 	H 	0.4532	0.6451	0.6852	0.079
Mof_H 	H 	0.9797	0.5587	0.5336	0.029
Mof_H 	H 	0.9649	0.7168	0.5208	-0.07
Mof_H 	H 	0.4188	0.5304	0.7444	0.07
Mof_H 	H 	0.4619	0.3635	0.7376	0.014
Mof_H 	H 	0.0674	0.2355	0.4878	-0.034
Mof_H 	H 	0.0415	0.3966	0.4836	0.097
Mof_H 	H 	0.3974	0.7184	0.2226	-0.063
Mof_H 	H 	0.3239	0.5666	0.07	0.134
Mof_H 	H 	0.864	0.5721	0.0598	0.193
Mof_H 	H 	0.936	0.7256	0.21	-0.178
Mof_H 	H 	0.7701	0.1978	0.3294	-0.047
Mof_H 	H 	0.768	0.3549	0.3148	0.076
Mof_H 	H 	0.4461	0.4413	0.4664	0.091
Mof_H 	H 	0.4441	0.2832	0.4792	-0.01
Mof_H 	H 	0.6744	0.4696	0.2556	0.062
Mof_H 	H 	0.7243	0.6365	0.2624	0.013
Mof_H 	H 	0.5796	0.7645	0.5122	-0.049
Mof_H 	H 	0.5579	0.6034	0.5164	0.075
Mof_H 	H 	0.1748	0.2816	0.7774	-0.037
Mof_H 	H 	0.2539	0.4334	0.93	0.098
Mof_H 	H 	0.8042	0.4279	0.9402	0.104
Mof_H 	H 	0.726	0.2744	0.79	-0.039
Mof_C 	C 	0.1979	0.871	0.573	0.609
Mof_C 	C 	0.2053	0.7728	0.5888	-0.271
Mof_C 	C 	0.3479	0.753	0.641	0.145
Mof_C 	C 	0.355	0.658	0.6502	-0.173
Mof_C 	C 	0.2179	0.5832	0.608	0.058
Mof_C 	C 	0.0734	0.6066	0.5604	-0.103
Mof_C 	C 	0.0643	0.7015	0.5514	0.195
Mof_C 	C 	0.2303	0.479	0.6128	0.065
Mof_C 	C 	0.3525	0.4703	0.6902	-0.134
Mof_C 	C 	0.3769	0.37	0.6874	0.064
Mof_C 	C 	0.2718	0.2819	0.6086	-0.16
Mof_C 	C 	0.1431	0.2939	0.5366	0.109
Mof_C 	C 	0.1238	0.391	0.5352	-0.158
Mof_C 	C 	0.3124	0.1736	0.5998	0.429
Mof_C 	C 	0.2219	0.8352	0.333	0.633
Mof_C 	C 	0.1751	0.735	0.2344	-0.434
Mof_C 	C 	0.2889	0.6886	0.1906	0.304
Mof_C 	C 	0.2444	0.597	0.0986	-0.327
Mof_C 	C 	0.0829	0.5495	0.0482	0.266
Mof_C 	C 	0.9731	0.6002	0.0922	-0.535
Mof_C 	C 	0.0161	0.6926	0.1836	0.516
Mof_C 	C 	0.6249	0.129	0.427	0.602
Mof_C 	C 	0.6165	0.2272	0.4112	-0.26
Mof_C 	C 	0.7069	0.247	0.359	0.139
Mof_C 	C 	0.7048	0.342	0.3498	-0.187
Mof_C 	C 	0.6099	0.4168	0.392	0.081
Mof_C 	C 	0.513	0.3934	0.4396	-0.176
Mof_C 	C 	0.5129	0.2985	0.4486	0.127
Mof_C 	C 	0.6175	0.521	0.3872	0.042
Mof_C 	C 	0.6623	0.5297	0.3098	-0.126
Mof_C 	C 	0.6895	0.63	0.3126	0.055
Mof_C 	C 	0.6632	0.7181	0.3914	-0.163
Mof_C 	C 	0.6065	0.7061	0.4634	0.1
Mof_C 	C 	0.5886	0.609	0.4648	-0.152
Mof_C 	C 	0.7126	0.8264	0.4002	0.427
Mof_C 	C 	0.8889	0.1648	0.667	0.597
Mof_C 	C 	0.9407	0.265	0.7656	-0.355
Mof_C 	C 	0.0983	0.3114	0.8094	0.248
Mof_C 	C 	0.1458	0.403	0.9014	-0.214
Mof_C 	C 	0.0347	0.4505	0.9518	0.106
Mof_C 	C 	0.8809	0.3998	0.9078	-0.268
Mof_C 	C 	0.8325	0.3074	0.8164	0.207
Mof_O 	O 	0.3271	0.9164	0.5844	-0.663
Mof_O 	O 	0.0636	0.9014	0.5526	-0.554
Mof_O 	O 	0.228	0.0927	0.5196	-0.635
Mof_O 	O 	0.4333	0.1691	0.6636	-0.512
Mof_O 	O 	0.3694	0.8705	0.3774	-0.602
Mof_O 	O 	0.1075	0.8758	0.3622	-0.616
Mof_O 	O 	0.7427	0.0836	0.4156	-0.665
Mof_O 	O 	0.511	0.0986	0.4474	-0.596
Mof_O 	O 	0.7084	0.9073	0.4804	-0.65
Mof_O 	O 	0.7697	0.8309	0.3364	-0.508
Mof_O 	O 	0.992	0.1295	0.6226	-0.615
Mof_O 	O 	0.7453	0.1242	0.6378	-0.649
_end
