# CIF file generated by openbabel 3.1.0, see https://openbabel.org
data_I
_chemical_name_common 'image0'
_cell_length_a 22.2897
_cell_length_b 16.8927
_cell_length_c 16.4976
_cell_angle_alpha 90
_cell_angle_beta 104.079
_cell_angle_gamma 90
_space_group_name_H-M_alt 'P 1'
_space_group_name_Hall 'P 1'
loop_
    _symmetry_equiv_pos_as_xyz
    x,y,z
loop_
    _atom_site_label
    _atom_site_type_symbol
    _atom_site_fract_x
    _atom_site_fract_y
    _atom_site_fract_z
    _atom_site_occupancy
    O1       O        0.95386    0.91538    0.56764    1.000
    O2       O        0.05665    0.91623    0.60630    1.000
    O3       O        0.64890    0.86603    0.46250    1.000
    C1       C        0.99993    0.66929    0.93365    1.000
    C2       C        0.99991    0.75030    0.95914    1.000
    H1       H        0.99980    0.79460    0.92560    1.000
    C3       C        0.99979    0.64414    0.85224    1.000
    C4       C        0.99867    0.56496    0.82619    1.000
    C5       C        0.99948    0.53940    0.74311    1.000
    H2       H        0.99990    0.57200    0.69780    1.000
    C6       C        0.00064    0.70753    0.78892    1.000
    C7       C        0.94855    0.72980    0.73213    1.000
    H3       H        0.91130    0.70510    0.73220    1.000
    C8       C        0.94969    0.78873    0.67381    1.000
    H4       H        0.91330    0.80290    0.63560    1.000
    C9       C        0.00340    0.82605    0.67190    1.000
    C10      C        0.05649    0.80244    0.72770    1.000
    H5       H        0.09400    0.82570    0.72610    1.000
    C11      C        0.05512    0.74433    0.78660    1.000
    H6       H        0.09150    0.73010    0.82490    1.000
    C12      C        0.00460    0.89093    0.61010    1.000
    C13      C        0.79607    0.01990    0.39970    1.000
    H7       H        0.19060    0.03380    0.64760    1.000
    C14      C        0.73205    0.02190    0.39410    1.000
    H8       H        0.70360    0.03700    0.34550    1.000
    C15      C        0.75687    0.01650    0.53460    1.000
    H9       H        0.25500    0.02890    0.41660    1.000
    C16      C        0.81845    0.01530    0.53430    1.000
    H10      H        0.84760    0.97440    0.58400    1.000
    C17      C        0.62224    0.92632    0.47060    1.000
    C18      C        0.55895    0.92710    0.48567    1.000
    C19      C        0.52951    0.85737    0.49205    1.000
    H11      H        0.54870    0.80960    0.48580    1.000
    O4       O        0.04614    0.91538    0.43236    1.000
    O5       O        0.94335    0.91623    0.39370    1.000
    O6       O        0.35110    0.86603    0.53750    1.000
    C20      C        0.00007    0.66929    0.06635    1.000
    C21      C        0.00009    0.75030    0.04086    1.000
    H12      H        0.00020    0.79460    0.07440    1.000
    C22      C        0.00021    0.64414    0.14776    1.000
    C23      C        0.00133    0.56496    0.17381    1.000
    C24      C        0.00052    0.53940    0.25689    1.000
    H13      H        0.00010    0.57200    0.30220    1.000
    C25      C        0.99936    0.70753    0.21108    1.000
    C26      C        0.05145    0.72980    0.26787    1.000
    H14      H        0.08870    0.70510    0.26780    1.000
    C27      C        0.05031    0.78873    0.32619    1.000
    H15      H        0.08670    0.80290    0.36440    1.000
    C28      C        0.99660    0.82605    0.32810    1.000
    C29      C        0.94351    0.80244    0.27230    1.000
    H16      H        0.90600    0.82570    0.27390    1.000
    C30      C        0.94488    0.74433    0.21340    1.000
    H17      H        0.90850    0.73010    0.17510    1.000
    C31      C        0.99540    0.89093    0.38990    1.000
    C32      C        0.20393    0.01990    0.60030    1.000
    H18      H        0.80940    0.03380    0.35240    1.000
    C33      C        0.26795    0.02190    0.60590    1.000
    H19      H        0.29640    0.03700    0.65450    1.000
    C34      C        0.24313    0.01650    0.46540    1.000
    H20      H        0.74500    0.02890    0.58340    1.000
    C35      C        0.18155    0.01530    0.46570    1.000
    H21      H        0.15240    0.97440    0.41600    1.000
    C36      C        0.37776    0.92632    0.52940    1.000
    C37      C        0.44105    0.92710    0.51433    1.000
    C38      C        0.47049    0.85737    0.50795    1.000
    H22      H        0.45130    0.80960    0.51420    1.000
    O7       O        0.04614    0.08462    0.43236    1.000
    O8       O        0.94335    0.08377    0.39370    1.000
    O9       O        0.35110    0.13397    0.53750    1.000
    C39      C        0.00007    0.33071    0.06635    1.000
    C40      C        0.00009    0.24970    0.04086    1.000
    H23      H        0.00020    0.20540    0.07440    1.000
    C41      C        0.00021    0.35586    0.14776    1.000
    C42      C        0.00133    0.43504    0.17381    1.000
    C43      C        0.00052    0.46060    0.25689    1.000
    H24      H        0.00010    0.42800    0.30220    1.000
    C44      C        0.99936    0.29247    0.21108    1.000
    C45      C        0.05145    0.27020    0.26787    1.000
    H25      H        0.08870    0.29490    0.26780    1.000
    C46      C        0.05031    0.21127    0.32619    1.000
    H26      H        0.08670    0.19710    0.36440    1.000
    C47      C        0.99660    0.17395    0.32810    1.000
    C48      C        0.94351    0.19756    0.27230    1.000
    H27      H        0.90600    0.17430    0.27390    1.000
    C49      C        0.94488    0.25567    0.21340    1.000
    H28      H        0.90850    0.26990    0.17510    1.000
    C50      C        0.99540    0.10907    0.38990    1.000
    C51      C        0.20393    0.98010    0.60030    1.000
    H29      H        0.80940    0.96620    0.35240    1.000
    C52      C        0.26795    0.97810    0.60590    1.000
    H30      H        0.29640    0.96300    0.65450    1.000
    C53      C        0.24313    0.98350    0.46540    1.000
    H31      H        0.74500    0.97110    0.58340    1.000
    C54      C        0.18155    0.98470    0.46570    1.000
    H32      H        0.15240    0.02560    0.41600    1.000
    C55      C        0.37776    0.07368    0.52940    1.000
    C56      C        0.44105    0.07290    0.51433    1.000
    C57      C        0.47049    0.14263    0.50795    1.000
    H33      H        0.45130    0.19040    0.51420    1.000
    O10      O        0.95386    0.08462    0.56764    1.000
    O11      O        0.05665    0.08377    0.60630    1.000
    O12      O        0.64890    0.13397    0.46250    1.000
    C58      C        0.99993    0.33071    0.93365    1.000
    C59      C        0.99991    0.24970    0.95914    1.000
    H34      H        0.99980    0.20540    0.92560    1.000
    C60      C        0.99979    0.35586    0.85224    1.000
    C61      C        0.99867    0.43504    0.82619    1.000
    C62      C        0.99948    0.46060    0.74311    1.000
    H35      H        0.99990    0.42800    0.69780    1.000
    C63      C        0.00064    0.29247    0.78892    1.000
    C64      C        0.94855    0.27020    0.73213    1.000
    H36      H        0.91130    0.29490    0.73220    1.000
    C65      C        0.94969    0.21127    0.67381    1.000
    H37      H        0.91330    0.19710    0.63560    1.000
    C66      C        0.00340    0.17395    0.67190    1.000
    C67      C        0.05649    0.19756    0.72770    1.000
    H38      H        0.09400    0.17430    0.72610    1.000
    C68      C        0.05512    0.25567    0.78660    1.000
    H39      H        0.09150    0.26990    0.82490    1.000
    C69      C        0.00460    0.10907    0.61010    1.000
    C70      C        0.79607    0.98010    0.39970    1.000
    H40      H        0.19060    0.96620    0.64760    1.000
    C71      C        0.73205    0.97810    0.39410    1.000
    H41      H        0.70360    0.96300    0.34550    1.000
    C72      C        0.75687    0.98350    0.53460    1.000
    H42      H        0.25500    0.97110    0.41660    1.000
    C73      C        0.81845    0.98470    0.53430    1.000
    H43      H        0.84760    0.02560    0.58400    1.000
    C74      C        0.62224    0.07368    0.47060    1.000
    C75      C        0.55895    0.07290    0.48567    1.000
    C76      C        0.52951    0.14263    0.49205    1.000
    H44      H        0.54870    0.19040    0.48580    1.000
    Zn1      Zn       0.98348    0.50000    0.99467    1.000
    N1       N        0.99893    0.50000    0.87650    1.000
    Zn2      Zn       0.01652    0.50000    0.00533    1.000
    N2       N        0.00107    0.50000    0.12350    1.000
    Zn3      Zn       0.93155    0.00000    0.47638    1.000
    N3       N        0.83788    0.00000    0.46630    1.000
    N4       N        0.64933    0.00000    0.46695    1.000
    C77      C        0.71431    0.00000    0.46490    1.000
    C78      C        0.52987    0.00000    0.49210    1.000
    Zn4      Zn       0.06845    0.00000    0.52362    1.000
    N5       N        0.16212    0.00000    0.53370    1.000
    N6       N        0.35067    0.00000    0.53305    1.000
    C79      C        0.28569    0.00000    0.53510    1.000
    C80      C        0.47013    0.00000    0.50790    1.000
    N7       N        0.00000    0.62072    0.00000    1.000
    N8       N        0.00000    0.37928    0.00000    1.000
    O13      O        0.45386    0.41538    0.56764    1.000
    O14      O        0.55665    0.41623    0.60630    1.000
    O15      O        0.14890    0.36603    0.46250    1.000
    C81      C        0.49993    0.16929    0.93365    1.000
    C82      C        0.49991    0.25030    0.95914    1.000
    H45      H        0.49980    0.29460    0.92560    1.000
    C83      C        0.49979    0.14414    0.85224    1.000
    C84      C        0.49867    0.06496    0.82619    1.000
    C85      C        0.49948    0.03940    0.74311    1.000
    H46      H        0.49990    0.07200    0.69780    1.000
    C86      C        0.50064    0.20753    0.78892    1.000
    C87      C        0.44855    0.22980    0.73213    1.000
    H47      H        0.41130    0.20510    0.73220    1.000
    C88      C        0.44969    0.28873    0.67381    1.000
    H48      H        0.41330    0.30290    0.63560    1.000
    C89      C        0.50340    0.32605    0.67190    1.000
    C90      C        0.55649    0.30244    0.72770    1.000
    H49      H        0.59400    0.32570    0.72610    1.000
    C91      C        0.55512    0.24433    0.78660    1.000
    H50      H        0.59150    0.23010    0.82490    1.000
    C92      C        0.50460    0.39093    0.61010    1.000
    C93      C        0.29607    0.51990    0.39970    1.000
    H51      H        0.69060    0.53380    0.64760    1.000
    C94      C        0.23205    0.52190    0.39410    1.000
    H52      H        0.20360    0.53700    0.34550    1.000
    C95      C        0.25687    0.51650    0.53460    1.000
    H53      H        0.75500    0.52890    0.41660    1.000
    C96      C        0.31845    0.51530    0.53430    1.000
    H54      H        0.34760    0.47440    0.58400    1.000
    C97      C        0.12224    0.42632    0.47060    1.000
    C98      C        0.05895    0.42710    0.48567    1.000
    C99      C        0.02951    0.35737    0.49205    1.000
    H55      H        0.04870    0.30960    0.48580    1.000
    O16      O        0.54614    0.41538    0.43236    1.000
    O17      O        0.44335    0.41623    0.39370    1.000
    O18      O        0.85110    0.36603    0.53750    1.000
    C100     C        0.50007    0.16929    0.06635    1.000
    C101     C        0.50009    0.25030    0.04086    1.000
    H56      H        0.50020    0.29460    0.07440    1.000
    C102     C        0.50021    0.14414    0.14776    1.000
    C103     C        0.50133    0.06496    0.17381    1.000
    C104     C        0.50052    0.03940    0.25689    1.000
    H57      H        0.50010    0.07200    0.30220    1.000
    C105     C        0.49936    0.20753    0.21108    1.000
    C106     C        0.55145    0.22980    0.26787    1.000
    H58      H        0.58870    0.20510    0.26780    1.000
    C107     C        0.55031    0.28873    0.32619    1.000
    H59      H        0.58670    0.30290    0.36440    1.000
    C108     C        0.49660    0.32605    0.32810    1.000
    C109     C        0.44351    0.30244    0.27230    1.000
    H60      H        0.40600    0.32570    0.27390    1.000
    C110     C        0.44488    0.24433    0.21340    1.000
    H61      H        0.40850    0.23010    0.17510    1.000
    C111     C        0.49540    0.39093    0.38990    1.000
    C112     C        0.70393    0.51990    0.60030    1.000
    H62      H        0.30940    0.53380    0.35240    1.000
    C113     C        0.76795    0.52190    0.60590    1.000
    H63      H        0.79640    0.53700    0.65450    1.000
    C114     C        0.74313    0.51650    0.46540    1.000
    H64      H        0.24500    0.52890    0.58340    1.000
    C115     C        0.68155    0.51530    0.46570    1.000
    H65      H        0.65240    0.47440    0.41600    1.000
    C116     C        0.87776    0.42632    0.52940    1.000
    C117     C        0.94105    0.42710    0.51433    1.000
    C118     C        0.97049    0.35737    0.50795    1.000
    H66      H        0.95130    0.30960    0.51420    1.000
    O19      O        0.54614    0.58462    0.43236    1.000
    O20      O        0.44335    0.58377    0.39370    1.000
    O21      O        0.85110    0.63397    0.53750    1.000
    C119     C        0.50007    0.83071    0.06635    1.000
    C120     C        0.50009    0.74970    0.04086    1.000
    H67      H        0.50020    0.70540    0.07440    1.000
    C121     C        0.50021    0.85586    0.14776    1.000
    C122     C        0.50133    0.93504    0.17381    1.000
    C123     C        0.50052    0.96060    0.25689    1.000
    H68      H        0.50010    0.92800    0.30220    1.000
    C124     C        0.49936    0.79247    0.21108    1.000
    C125     C        0.55145    0.77020    0.26787    1.000
    H69      H        0.58870    0.79490    0.26780    1.000
    C126     C        0.55031    0.71127    0.32619    1.000
    H70      H        0.58670    0.69710    0.36440    1.000
    C127     C        0.49660    0.67395    0.32810    1.000
    C128     C        0.44351    0.69756    0.27230    1.000
    H71      H        0.40600    0.67430    0.27390    1.000
    C129     C        0.44488    0.75567    0.21340    1.000
    H72      H        0.40850    0.76990    0.17510    1.000
    C130     C        0.49540    0.60907    0.38990    1.000
    C131     C        0.70393    0.48010    0.60030    1.000
    H73      H        0.30940    0.46620    0.35240    1.000
    C132     C        0.76795    0.47810    0.60590    1.000
    H74      H        0.79640    0.46300    0.65450    1.000
    C133     C        0.74313    0.48350    0.46540    1.000
    H75      H        0.24500    0.47110    0.58340    1.000
    C134     C        0.68155    0.48470    0.46570    1.000
    H76      H        0.65240    0.52560    0.41600    1.000
    C135     C        0.87776    0.57368    0.52940    1.000
    C136     C        0.94105    0.57290    0.51433    1.000
    C137     C        0.97049    0.64263    0.50795    1.000
    H77      H        0.95130    0.69040    0.51420    1.000
    O22      O        0.45386    0.58462    0.56764    1.000
    O23      O        0.55665    0.58377    0.60630    1.000
    O24      O        0.14890    0.63397    0.46250    1.000
    C138     C        0.49993    0.83071    0.93365    1.000
    C139     C        0.49991    0.74970    0.95914    1.000
    H78      H        0.49980    0.70540    0.92560    1.000
    C140     C        0.49979    0.85586    0.85224    1.000
    C141     C        0.49867    0.93504    0.82619    1.000
    C142     C        0.49948    0.96060    0.74311    1.000
    H79      H        0.49990    0.92800    0.69780    1.000
    C143     C        0.50064    0.79247    0.78892    1.000
    C144     C        0.44855    0.77020    0.73213    1.000
    H80      H        0.41130    0.79490    0.73220    1.000
    C145     C        0.44969    0.71127    0.67381    1.000
    H81      H        0.41330    0.69710    0.63560    1.000
    C146     C        0.50340    0.67395    0.67190    1.000
    C147     C        0.55649    0.69756    0.72770    1.000
    H82      H        0.59400    0.67430    0.72610    1.000
    C148     C        0.55512    0.75567    0.78660    1.000
    H83      H        0.59150    0.76990    0.82490    1.000
    C149     C        0.50460    0.60907    0.61010    1.000
    C150     C        0.29607    0.48010    0.39970    1.000
    H84      H        0.69060    0.46620    0.64760    1.000
    C151     C        0.23205    0.47810    0.39410    1.000
    H85      H        0.20360    0.46300    0.34550    1.000
    C152     C        0.25687    0.48350    0.53460    1.000
    H86      H        0.75500    0.47110    0.41660    1.000
    C153     C        0.31845    0.48470    0.53430    1.000
    H87      H        0.34760    0.52560    0.58400    1.000
    C154     C        0.12224    0.57368    0.47060    1.000
    C155     C        0.05895    0.57290    0.48567    1.000
    C156     C        0.02951    0.64263    0.49205    1.000
    H88      H        0.04870    0.69040    0.48580    1.000
    Zn5      Zn       0.48348    0.00000    0.99467    1.000
    N9       N        0.49893    0.00000    0.87650    1.000
    Zn6      Zn       0.51652    0.00000    0.00533    1.000
    N10      N        0.50107    0.00000    0.12350    1.000
    Zn7      Zn       0.43155    0.50000    0.47638    1.000
    N11      N        0.33788    0.50000    0.46630    1.000
    N12      N        0.14933    0.50000    0.46695    1.000
    C157     C        0.21431    0.50000    0.46490    1.000
    C158     C        0.02987    0.50000    0.49210    1.000
    Zn8      Zn       0.56845    0.50000    0.52362    1.000
    N13      N        0.66212    0.50000    0.53370    1.000
    N14      N        0.85067    0.50000    0.53305    1.000
    C159     C        0.78569    0.50000    0.53510    1.000
    C160     C        0.97013    0.50000    0.50790    1.000
    N15      N        0.50000    0.12072    0.00000    1.000
    N16      N        0.50000    0.87928    0.00000    1.000
