# CIF file generated by openbabel 3.1.0, see https://openbabel.org
data_I
_chemical_name_common 'image0'
_cell_length_a 9.5364
_cell_length_b 21.8015
_cell_length_c 9.1118
_cell_angle_alpha 90
_cell_angle_beta 90
_cell_angle_gamma 90
_space_group_name_H-M_alt 'P 1'
_space_group_name_Hall 'P 1'
loop_
    _symmetry_equiv_pos_as_xyz
    x,y,z
loop_
    _atom_site_label
    _atom_site_type_symbol
    _atom_site_fract_x
    _atom_site_fract_y
    _atom_site_fract_z
    _atom_site_occupancy
    Zn1      Zn       0.56770    0.54838    0.78034    1.000
    P1       P        0.37981    0.66436    0.71081    1.000
    H1       H        0.27740    0.62730    0.75140    1.000
    P2       P        0.29327    0.50047    0.94401    1.000
    H2       H        0.30990    0.55240    0.01650    1.000
    O1       O        0.34660    0.68561    0.55630    1.000
    O2       O        0.38730    0.71441    0.82200    1.000
    O3       O        0.51210    0.62592    0.70220    1.000
    O4       O        0.41340    0.49568    0.83540    1.000
    O5       O        0.14970    0.50284    0.87230    1.000
    O6       O        0.29970    0.44850    0.05670    1.000
    Zn2      Zn       0.93230    0.95162    0.78034    1.000
    P3       P        0.12019    0.83564    0.71081    1.000
    H3       H        0.22260    0.87270    0.75140    1.000
    P4       P        0.20673    0.99953    0.94401    1.000
    H4       H        0.19010    0.94760    0.01650    1.000
    O7       O        0.15340    0.81439    0.55630    1.000
    O8       O        0.11270    0.78559    0.82200    1.000
    O9       O        0.98790    0.87408    0.70220    1.000
    O10      O        0.08660    0.00432    0.83540    1.000
    O11      O        0.35030    0.99716    0.87230    1.000
    O12      O        0.20030    0.05150    0.05670    1.000
    Zn3      Zn       0.43230    0.04838    0.71966    1.000
    P5       P        0.62019    0.16436    0.78919    1.000
    H5       H        0.72260    0.12730    0.74860    1.000
    P6       P        0.70673    0.00047    0.55599    1.000
    H6       H        0.69010    0.05240    0.48350    1.000
    O13      O        0.65340    0.18561    0.94370    1.000
    O14      O        0.61270    0.21441    0.67800    1.000
    O15      O        0.48790    0.12592    0.79780    1.000
    O16      O        0.58660    0.99568    0.66460    1.000
    O17      O        0.85030    0.00284    0.62770    1.000
    O18      O        0.70030    0.94850    0.44330    1.000
    Zn4      Zn       0.06770    0.45162    0.71966    1.000
    P7       P        0.87981    0.33564    0.78919    1.000
    H7       H        0.77740    0.37270    0.74860    1.000
    P8       P        0.79327    0.49953    0.55599    1.000
    H8       H        0.80990    0.44760    0.48350    1.000
    O19      O        0.84660    0.31439    0.94370    1.000
    O20      O        0.88730    0.28559    0.67800    1.000
    O21      O        0.01210    0.37408    0.79780    1.000
    O22      O        0.91340    0.50432    0.66460    1.000
    O23      O        0.64970    0.49716    0.62770    1.000
    O24      O        0.79970    0.55150    0.44330    1.000
    Zn5      Zn       0.43230    0.45162    0.21966    1.000
    P9       P        0.62019    0.33564    0.28919    1.000
    H9       H        0.72260    0.37270    0.24860    1.000
    P10      P        0.70673    0.49953    0.05599    1.000
    H10      H        0.69010    0.44760    0.98350    1.000
    O25      O        0.65340    0.31439    0.44370    1.000
    O26      O        0.61270    0.28559    0.17800    1.000
    O27      O        0.48790    0.37408    0.29780    1.000
    O28      O        0.58660    0.50432    0.16460    1.000
    O29      O        0.85030    0.49716    0.12770    1.000
    O30      O        0.70030    0.55150    0.94330    1.000
    Zn6      Zn       0.06770    0.04838    0.21966    1.000
    P11      P        0.87981    0.16436    0.28919    1.000
    H11      H        0.77740    0.12730    0.24860    1.000
    P12      P        0.79327    0.00047    0.05599    1.000
    H12      H        0.80990    0.05240    0.98350    1.000
    O31      O        0.84660    0.18561    0.44370    1.000
    O32      O        0.88730    0.21441    0.17800    1.000
    O33      O        0.01210    0.12592    0.29780    1.000
    O34      O        0.91340    0.99568    0.16460    1.000
    O35      O        0.64970    0.00284    0.12770    1.000
    O36      O        0.79970    0.94850    0.94330    1.000
    Zn7      Zn       0.56770    0.95162    0.28034    1.000
    P13      P        0.37981    0.83564    0.21081    1.000
    H13      H        0.27740    0.87270    0.25140    1.000
    P14      P        0.29327    0.99953    0.44401    1.000
    H14      H        0.30990    0.94760    0.51650    1.000
    O37      O        0.34660    0.81439    0.05630    1.000
    O38      O        0.38730    0.78559    0.32200    1.000
    O39      O        0.51210    0.87408    0.20220    1.000
    O40      O        0.41340    0.00432    0.33540    1.000
    O41      O        0.14970    0.99716    0.37230    1.000
    O42      O        0.29970    0.05150    0.55670    1.000
    Zn8      Zn       0.93230    0.54838    0.28034    1.000
    P15      P        0.12019    0.66436    0.21081    1.000
    H15      H        0.22260    0.62730    0.25140    1.000
    P16      P        0.20673    0.50047    0.44401    1.000
    H16      H        0.19010    0.55240    0.51650    1.000
    O43      O        0.15340    0.68561    0.05630    1.000
    O44      O        0.11270    0.71441    0.32200    1.000
    O45      O        0.98790    0.62592    0.20220    1.000
    O46      O        0.08660    0.49568    0.33540    1.000
    O47      O        0.35030    0.50284    0.37230    1.000
    O48      O        0.20030    0.44850    0.55670    1.000
    Zn9      Zn       0.25000    0.75000    0.45377    1.000
    Zn10     Zn       0.75000    0.25000    0.04623    1.000
    Zn11     Zn       0.75000    0.25000    0.54623    1.000
    Zn12     Zn       0.25000    0.75000    0.95377    1.000
