# CIF file generated by openbabel 3.1.0, see https://openbabel.org
data_I
_chemical_name_common 'image0'
_cell_length_a 7.813
_cell_length_b 11.88
_cell_length_c 12.994
_cell_angle_alpha 93.092
_cell_angle_beta 93.938
_cell_angle_gamma 108.359
_space_group_name_H-M_alt 'P 1'
_space_group_name_Hall 'P 1'
loop_
    _symmetry_equiv_pos_as_xyz
    x,y,z
loop_
    _atom_site_label
    _atom_site_type_symbol
    _atom_site_fract_x
    _atom_site_fract_y
    _atom_site_fract_z
    _atom_site_occupancy
    Nd1      Nd       0.15004    0.77776    0.03190    1.000
    Nd2      Nd       0.15651    0.78215    0.53207    1.000
    O1       O        0.98470    0.72710    0.35780    1.000
    O2       O        0.98230    0.71880    0.18680    1.000
    O3       O        0.34120    0.82540    0.20360    1.000
    O4       O        0.34460    0.82160    0.37650    1.000
    O5       O        0.21170    0.68020    0.69060    1.000
    O6       O        0.19920    0.66970    0.86150    1.000
    O7       O        0.10850    0.87330    0.70090    1.000
    O8       O        0.08130    0.85850    0.86950    1.000
    O9       O        0.46880    0.84810    0.98970    1.000
    O10      O        0.70110    0.99940    0.94930    1.000
    O11      O        0.88480    0.85200    0.51690    1.000
    O12      O        0.77800    0.00280    0.49200    1.000
    O13      O        0.88820    0.60380    0.97750    1.000
    O14      O        0.79930    0.40870    0.93070    1.000
    O15      O        0.21270    0.59560    0.47780    1.000
    O16      O        0.10950    0.39740    0.46380    1.000
    C1       C        0.05980    0.74560    0.27620    1.000
    C2       C        0.26850    0.80440    0.28620    1.000
    C3       C        0.18180    0.71430    0.77830    1.000
    C4       C        0.11840    0.82610    0.78410    1.000
    C5       C        0.54770    0.95510    0.98270    1.000
    C6       C        0.90260    0.95720    0.50250    1.000
    C7       C        0.90900    0.50360    0.97360    1.000
    C8       C        0.09390    0.49780    0.48320    1.000
    Nd3      Nd       0.84996    0.22224    0.96810    1.000
    Nd4      Nd       0.84349    0.21785    0.46793    1.000
    O17      O        0.01530    0.27290    0.64220    1.000
    O18      O        0.01770    0.28120    0.81320    1.000
    O19      O        0.65880    0.17460    0.79640    1.000
    O20      O        0.65540    0.17840    0.62350    1.000
    O21      O        0.78830    0.31980    0.30940    1.000
    O22      O        0.80080    0.33030    0.13850    1.000
    O23      O        0.89150    0.12670    0.29910    1.000
    O24      O        0.91870    0.14150    0.13050    1.000
    O25      O        0.53120    0.15190    0.01030    1.000
    O26      O        0.29890    0.00060    0.05070    1.000
    O27      O        0.11520    0.14800    0.48310    1.000
    O28      O        0.22200    0.99720    0.50800    1.000
    O29      O        0.11180    0.39620    0.02250    1.000
    O30      O        0.20070    0.59130    0.06930    1.000
    O31      O        0.78730    0.40440    0.52220    1.000
    O32      O        0.89050    0.60260    0.53620    1.000
    C9       C        0.94020    0.25440    0.72380    1.000
    C10      C        0.73150    0.19560    0.71380    1.000
    C11      C        0.81820    0.28570    0.22170    1.000
    C12      C        0.88160    0.17390    0.21590    1.000
    C13      C        0.45230    0.04490    0.01730    1.000
    C14      C        0.09740    0.04280    0.49750    1.000
    C15      C        0.09100    0.49640    0.02640    1.000
    C16      C        0.90610    0.50220    0.51680    1.000
