data_functionalizedCrystal
_audit_creation_method	'EQeq! by Chris Wilmer'
_symmetry_space_group_name_H-M	'P1'
_symmetry_Int_Tables_number	1
_symmetry_cell_setting	triclinic
loop_
_symmetry_equiv_pos_as_xyz
  x,y,z
_cell_length_a	20.096
_cell_length_b	23.088
_cell_length_c	14.616
_cell_angle_alpha	90
_cell_angle_beta	90
_cell_angle_gamma	90
loop_
_atom_site_label
_atom_site_type_symbol
_atom_site_fract_x
_atom_site_fract_y
_atom_site_fract_z
_atom_site_charge
Mof_Co	Co	0.41631	0.09138	0.32661	1.147
Mof_Co	Co	0.41196	0.09195	0.08505	1.156
Mof_O 	O 	0.47085	0.0705	0.8774	-0.291
Mof_O 	O 	0.38163	0.10222	0.95109	-0.415
Mof_O 	O 	0.47555	0.07649	0.5453	-0.295
Mof_O 	O 	0.38797	0.10428	0.46406	-0.412
Mof_O 	O 	0.17282	0.12829	0.78197	-0.43
Mof_O 	O 	0.17454	0.13106	0.62845	-0.432
Mof_O 	O 	0.45632	0.07003	0.20365	-0.449
Mof_N 	N 	0.33817	0.91649	0.3482	-0.154
Mof_N 	N 	0.36568	0.00771	0.3335	-0.221
Mof_N 	N 	0.46357	0.74194	0.4231	-0.151
Mof_N 	N 	0.53789	0.67206	0.426	-0.224
Mof_N 	N 	0.5377	0.24471	0.3281	-0.152
Mof_N 	N 	0.46284	0.17472	0.3223	-0.225
Mof_N 	N 	0.66457	0.41709	0.4119	-0.151
Mof_N 	N 	0.63745	0.50892	0.4225	-0.219
Mof_C 	C 	0.2818	0.76655	0.3954	0.092
Mof_C 	C 	0.28157	0.82536	0.3753	-0.202
Mof_H 	H 	0.2415	0.8441	0.364	0.109
Mof_C 	C 	0.34057	0.85618	0.3719	0.192
Mof_C 	C 	0.40132	0.82958	0.3877	-0.246
Mof_H 	H 	0.4409	0.8504	0.3847	0.135
Mof_C 	C 	0.40134	0.77071	0.4081	0.192
Mof_C 	C 	0.34257	0.73946	0.4128	-0.199
Mof_H 	H 	0.3436	0.7003	0.4277	0.11
Mof_C 	C 	0.71885	0.2674	0.359	0.091
Mof_C 	C 	0.65795	0.24126	0.3388	-0.198
Mof_H 	H 	0.6565	0.2026	0.3209	0.106
Mof_C 	C 	0.59996	0.27291	0.3457	0.192
Mof_C 	C 	0.60041	0.33117	0.3707	-0.243
Mof_H 	H 	0.561	0.3519	0.3767	0.135
Mof_C 	C 	0.66174	0.35721	0.3863	0.189
Mof_C 	C 	0.72043	0.32582	0.3811	-0.199
Mof_H 	H 	0.7609	0.344	0.3924	0.105
Mof_C 	C 	0.37737	0.10107	0.7905	-0.109
Mof_C 	C 	0.41048	0.09363	0.7091	0.05
Mof_H 	H 	0.4549	0.0825	0.7097	0.038
Mof_C 	C 	0.37865	0.10251	0.6256	-0.115
Mof_C 	C 	0.31146	0.11779	0.6246	0.05
Mof_H 	H 	0.2898	0.1241	0.5692	0.042
Mof_C 	C 	0.27679	0.12359	0.7067	-0.119
Mof_C 	C 	0.31015	0.11693	0.7895	0.048
Mof_H 	H 	0.2877	0.123	0.8443	0.045
Mof_C 	C 	0.41264	0.09046	0.881	0.357
Mof_C 	C 	0.41601	0.09357	0.5373	0.348
Mof_C 	C 	0.20171	0.12916	0.7057	0.372
Mof_C 	C 	0.38439	0.95704	0.3627	0.11
Mof_H 	H 	0.4252	0.9499	0.3904	0.005
Mof_C 	C 	0.30287	0.99886	0.2973	0.001
Mof_H 	H 	0.2766	0.0275	0.271	0.031
Mof_C 	C 	0.28544	0.94349	0.3054	0.012
Mof_H 	H 	0.2459	0.9265	0.2862	0.039
Mof_C 	C 	0.47638	0.68538	0.4055	0.101
Mof_H 	H 	0.4455	0.6594	0.3818	0.009
Mof_C 	C 	0.5661	0.72252	0.4584	0.003
Mof_H 	H 	0.6097	0.7261	0.4788	0.04
Mof_C 	C 	0.5212	0.76602	0.4563	0.015
Mof_H 	H 	0.5279	0.8043	0.4737	0.035
Mof_C 	C 	0.52491	0.18735	0.3417	0.105
Mof_H 	H 	0.5562	0.1606	0.3621	-0.012
Mof_C 	C 	0.43435	0.2259	0.2947	0
Mof_H 	H 	0.3904	0.2301	0.276	0.039
Mof_C 	C 	0.47961	0.26938	0.2988	0.017
Mof_H 	H 	0.4726	0.3082	0.2845	0.034
Mof_C 	C 	0.62008	0.45856	0.3909	0.107
Mof_H 	H 	0.5814	0.4519	0.3576	0.011
Mof_C 	C 	0.6974	0.50013	0.4657	0.009
Mof_H 	H 	0.7221	0.5287	0.4951	0.038
Mof_C 	C 	0.7151	0.44423	0.4593	0.012
Mof_H 	H 	0.7536	0.4272	0.4821	0.034
Mof_O 	O 	0.613	0.0699	0.1431	-0.09
Mof_O 	O 	0.5223	0.0504	0.179	-0.092
Mof_O 	O 	0.5951	0.0786	0.1934	-0.067
Mof_Co	Co	0.08369	0.40862	0.32661	1.148
Mof_Co	Co	0.08804	0.40805	0.08505	1.157
Mof_O 	O 	0.02915	0.4295	0.8774	-0.289
Mof_O 	O 	0.11837	0.39778	0.95109	-0.414
Mof_O 	O 	0.02445	0.42351	0.5453	-0.294
Mof_O 	O 	0.11203	0.39572	0.46406	-0.411
Mof_O 	O 	0.32718	0.37171	0.78197	-0.429
Mof_O 	O 	0.32546	0.36894	0.62845	-0.431
Mof_O 	O 	0.04368	0.42997	0.20365	-0.45
Mof_N 	N 	0.16183	0.58351	0.3482	-0.154
Mof_N 	N 	0.13432	0.49229	0.3335	-0.22
Mof_N 	N 	0.03643	0.75806	0.4231	-0.151
Mof_N 	N 	0.96211	0.82794	0.426	-0.224
Mof_N 	N 	0.9623	0.25529	0.3281	-0.151
Mof_N 	N 	0.03716	0.32528	0.3223	-0.226
Mof_N 	N 	0.83543	0.08291	0.4119	-0.151
Mof_N 	N 	0.86255	0.99108	0.4225	-0.219
Mof_C 	C 	0.2182	0.73345	0.3954	0.092
Mof_C 	C 	0.21843	0.67464	0.3753	-0.202
Mof_H 	H 	0.2585	0.6559	0.364	0.109
Mof_C 	C 	0.15943	0.64382	0.3719	0.192
Mof_C 	C 	0.09868	0.67042	0.3877	-0.246
Mof_H 	H 	0.0591	0.6496	0.3847	0.135
Mof_C 	C 	0.09866	0.72929	0.4081	0.192
Mof_C 	C 	0.15743	0.76054	0.4128	-0.199
Mof_H 	H 	0.1564	0.7997	0.4277	0.11
Mof_C 	C 	0.78115	0.2326	0.359	0.091
Mof_C 	C 	0.84205	0.25874	0.3388	-0.198
Mof_H 	H 	0.8435	0.2974	0.3209	0.106
Mof_C 	C 	0.90004	0.22709	0.3457	0.192
Mof_C 	C 	0.89959	0.16883	0.3707	-0.243
Mof_H 	H 	0.939	0.1481	0.3767	0.135
Mof_C 	C 	0.83826	0.14279	0.3863	0.189
Mof_C 	C 	0.77957	0.17418	0.3811	-0.199
Mof_H 	H 	0.7391	0.156	0.3924	0.105
Mof_C 	C 	0.12263	0.39893	0.7905	-0.109
Mof_C 	C 	0.08952	0.40637	0.7091	0.05
Mof_H 	H 	0.0451	0.4175	0.7097	0.038
Mof_C 	C 	0.12135	0.39749	0.6256	-0.115
Mof_C 	C 	0.18854	0.38221	0.6246	0.05
Mof_H 	H 	0.2102	0.3759	0.5692	0.042
Mof_C 	C 	0.22321	0.37641	0.7067	-0.119
Mof_C 	C 	0.18985	0.38307	0.7895	0.048
Mof_H 	H 	0.2123	0.377	0.8443	0.045
Mof_C 	C 	0.08736	0.40954	0.881	0.357
Mof_C 	C 	0.08399	0.40643	0.5373	0.348
Mof_C 	C 	0.29829	0.37084	0.7057	0.372
Mof_C 	C 	0.11561	0.54296	0.3627	0.109
Mof_H 	H 	0.0748	0.5501	0.3904	0.005
Mof_C 	C 	0.19713	0.50114	0.2973	-0.001
Mof_H 	H 	0.2234	0.4725	0.271	0.032
Mof_C 	C 	0.21456	0.55651	0.3054	0.013
Mof_H 	H 	0.2541	0.5735	0.2862	0.039
Mof_C 	C 	0.02362	0.81462	0.4055	0.1
Mof_H 	H 	0.0545	0.8406	0.3818	0.009
Mof_C 	C 	0.9339	0.77748	0.4584	0.002
Mof_H 	H 	0.8903	0.7739	0.4788	0.04
Mof_C 	C 	0.9788	0.73398	0.4563	0.015
Mof_H 	H 	0.9721	0.6957	0.4737	0.035
Mof_C 	C 	0.97509	0.31265	0.3417	0.106
Mof_H 	H 	0.9438	0.3394	0.3621	-0.012
Mof_C 	C 	0.06565	0.2741	0.2947	0.001
Mof_H 	H 	0.1096	0.2699	0.276	0.038
Mof_C 	C 	0.02039	0.23062	0.2988	0.016
Mof_H 	H 	0.0274	0.1918	0.2845	0.034
Mof_C 	C 	0.87992	0.04144	0.3909	0.106
Mof_H 	H 	0.9186	0.0481	0.3576	0.012
Mof_C 	C 	0.8026	0.99987	0.4657	0.009
Mof_H 	H 	0.7779	0.9713	0.4951	0.038
Mof_C 	C 	0.7849	0.05577	0.4593	0.011
Mof_H 	H 	0.7464	0.0728	0.4821	0.034
Mof_O 	O 	0.887	0.4301	0.1431	-0.089
Mof_O 	O 	0.9777	0.4496	0.179	-0.091
Mof_O 	O 	0.9049	0.4214	0.1934	-0.067
Mof_Co	Co	0.58369	0.59138	0.17339	1.148
Mof_Co	Co	0.58804	0.59195	0.41495	1.158
Mof_O 	O 	0.52915	0.5705	0.6226	-0.29
Mof_O 	O 	0.61837	0.60222	0.54891	-0.416
Mof_O 	O 	0.52445	0.57649	0.9547	-0.293
Mof_O 	O 	0.61203	0.60428	0.03594	-0.41
Mof_O 	O 	0.82718	0.62829	0.71803	-0.429
Mof_O 	O 	0.82546	0.63106	0.87155	-0.431
Mof_O 	O 	0.54368	0.57003	0.29635	-0.449
Mof_N 	N 	0.66183	0.41649	0.1518	-0.154
Mof_N 	N 	0.63432	0.50771	0.1665	-0.22
Mof_N 	N 	0.53643	0.24194	0.0769	-0.151
Mof_N 	N 	0.46211	0.17206	0.074	-0.224
Mof_N 	N 	0.4623	0.74471	0.1719	-0.152
Mof_N 	N 	0.53716	0.67472	0.1777	-0.225
Mof_N 	N 	0.33543	0.91709	0.0881	-0.151
Mof_N 	N 	0.36255	0.00892	0.0775	-0.22
Mof_C 	C 	0.7182	0.26655	0.1046	0.092
Mof_C 	C 	0.71843	0.32536	0.1247	-0.202
Mof_H 	H 	0.7585	0.3441	0.136	0.109
Mof_C 	C 	0.65943	0.35618	0.1281	0.193
Mof_C 	C 	0.59868	0.32958	0.1123	-0.246
Mof_H 	H 	0.5591	0.3504	0.1153	0.135
Mof_C 	C 	0.59866	0.27071	0.0919	0.192
Mof_C 	C 	0.65743	0.23946	0.0872	-0.199
Mof_H 	H 	0.6564	0.2003	0.0723	0.11
Mof_C 	C 	0.28115	0.7674	0.141	0.091
Mof_C 	C 	0.34205	0.74126	0.1612	-0.198
Mof_H 	H 	0.3435	0.7026	0.1791	0.106
Mof_C 	C 	0.40004	0.77291	0.1543	0.192
Mof_C 	C 	0.39959	0.83117	0.1293	-0.243
Mof_H 	H 	0.439	0.8519	0.1233	0.135
Mof_C 	C 	0.33826	0.85721	0.1137	0.189
Mof_C 	C 	0.27957	0.82582	0.1189	-0.199
Mof_H 	H 	0.2391	0.844	0.1076	0.105
Mof_C 	C 	0.62263	0.60107	0.7095	-0.109
Mof_C 	C 	0.58952	0.59363	0.7909	0.05
Mof_H 	H 	0.5451	0.5825	0.7903	0.037
Mof_C 	C 	0.62135	0.60251	0.8744	-0.115
Mof_C 	C 	0.68854	0.61779	0.8754	0.05
Mof_H 	H 	0.7102	0.6241	0.9308	0.042
Mof_C 	C 	0.72321	0.62359	0.7933	-0.12
Mof_C 	C 	0.68985	0.61693	0.7105	0.048
Mof_H 	H 	0.7123	0.623	0.6557	0.044
Mof_C 	C 	0.58736	0.59046	0.619	0.357
Mof_C 	C 	0.58399	0.59357	0.9627	0.347
Mof_C 	C 	0.79829	0.62916	0.7943	0.372
Mof_C 	C 	0.61561	0.45704	0.1373	0.109
Mof_H 	H 	0.5748	0.4499	0.1096	0.005
Mof_C 	C 	0.69713	0.49886	0.2027	-0.001
Mof_H 	H 	0.7234	0.5275	0.229	0.032
Mof_C 	C 	0.71456	0.44349	0.1946	0.013
Mof_H 	H 	0.7541	0.4265	0.2138	0.039
Mof_C 	C 	0.52362	0.18538	0.0945	0.101
Mof_H 	H 	0.5545	0.1594	0.1182	0.009
Mof_C 	C 	0.4339	0.22252	0.0416	0.002
Mof_H 	H 	0.3903	0.2261	0.0212	0.04
Mof_C 	C 	0.4788	0.26602	0.0437	0.015
Mof_H 	H 	0.4721	0.3043	0.0263	0.035
Mof_C 	C 	0.47509	0.68735	0.1583	0.106
Mof_H 	H 	0.4438	0.6606	0.1379	-0.012
Mof_C 	C 	0.56565	0.7259	0.2053	0
Mof_H 	H 	0.6096	0.7301	0.224	0.039
Mof_C 	C 	0.52039	0.76938	0.2012	0.017
Mof_H 	H 	0.5274	0.8082	0.2155	0.034
Mof_C 	C 	0.37992	0.95856	0.1091	0.108
Mof_H 	H 	0.4186	0.9519	0.1424	0.011
Mof_C 	C 	0.3026	0.00013	0.0343	0.006
Mof_H 	H 	0.2779	0.0287	0.0049	0.039
Mof_C 	C 	0.2849	0.94423	0.0407	0.015
Mof_H 	H 	0.2464	0.9272	0.0179	0.033
Mof_O 	O 	0.387	0.5699	0.3569	-0.09
Mof_O 	O 	0.4777	0.5504	0.321	-0.092
Mof_O 	O 	0.4049	0.5786	0.3066	-0.067
Mof_Co	Co	0.91631	0.90862	0.17339	1.148
Mof_Co	Co	0.91196	0.90805	0.41495	1.158
Mof_O 	O 	0.97085	0.9295	0.6226	-0.291
Mof_O 	O 	0.88163	0.89778	0.54891	-0.416
Mof_O 	O 	0.97555	0.92351	0.9547	-0.294
Mof_O 	O 	0.88797	0.89572	0.03594	-0.407
Mof_O 	O 	0.67282	0.87171	0.71803	-0.429
Mof_O 	O 	0.67454	0.86894	0.87155	-0.431
Mof_O 	O 	0.95632	0.92997	0.29635	-0.449
Mof_N 	N 	0.83817	0.08351	0.1518	-0.154
Mof_N 	N 	0.86568	0.99229	0.1665	-0.218
Mof_N 	N 	0.96357	0.25806	0.0769	-0.15
Mof_N 	N 	0.03789	0.32794	0.074	-0.226
Mof_N 	N 	0.0377	0.75529	0.1719	-0.152
Mof_N 	N 	0.96284	0.82528	0.1777	-0.224
Mof_N 	N 	0.16457	0.58291	0.0881	-0.151
Mof_N 	N 	0.13745	0.49108	0.0775	-0.219
Mof_C 	C 	0.7818	0.23345	0.1046	0.092
Mof_C 	C 	0.78157	0.17464	0.1247	-0.202
Mof_H 	H 	0.7415	0.1559	0.136	0.109
Mof_C 	C 	0.84057	0.14382	0.1281	0.193
Mof_C 	C 	0.90132	0.17042	0.1123	-0.246
Mof_H 	H 	0.9409	0.1496	0.1153	0.136
Mof_C 	C 	0.90134	0.22929	0.0919	0.192
Mof_C 	C 	0.84257	0.26054	0.0872	-0.199
Mof_H 	H 	0.8436	0.2997	0.0723	0.11
Mof_C 	C 	0.21885	0.7326	0.141	0.091
Mof_C 	C 	0.15795	0.75874	0.1612	-0.198
Mof_H 	H 	0.1565	0.7974	0.1791	0.106
Mof_C 	C 	0.09996	0.72709	0.1543	0.192
Mof_C 	C 	0.10041	0.66883	0.1293	-0.243
Mof_H 	H 	0.061	0.6481	0.1233	0.134
Mof_C 	C 	0.16174	0.64279	0.1137	0.188
Mof_C 	C 	0.22043	0.67418	0.1189	-0.199
Mof_H 	H 	0.2609	0.656	0.1076	0.105
Mof_C 	C 	0.87737	0.89893	0.7095	-0.109
Mof_C 	C 	0.91048	0.90637	0.7909	0.05
Mof_H 	H 	0.9549	0.9175	0.7903	0.037
Mof_C 	C 	0.87865	0.89749	0.8744	-0.115
Mof_C 	C 	0.81146	0.88221	0.8754	0.05
Mof_H 	H 	0.7898	0.8759	0.9308	0.042
Mof_C 	C 	0.77679	0.87641	0.7933	-0.119
Mof_C 	C 	0.81015	0.88307	0.7105	0.048
Mof_H 	H 	0.7877	0.877	0.6557	0.044
Mof_C 	C 	0.91264	0.90954	0.619	0.357
Mof_C 	C 	0.91601	0.90643	0.9627	0.344
Mof_C 	C 	0.70171	0.87084	0.7943	0.372
Mof_C 	C 	0.88439	0.04296	0.1373	0.108
Mof_H 	H 	0.9252	0.0501	0.1096	0.006
Mof_C 	C 	0.80287	0.00114	0.2027	-0.005
Mof_H 	H 	0.7766	0.9725	0.229	0.034
Mof_C 	C 	0.78544	0.05651	0.1946	0.014
Mof_H 	H 	0.7459	0.0735	0.2138	0.038
Mof_C 	C 	0.97638	0.31462	0.0945	0.103
Mof_H 	H 	0.9455	0.3406	0.1182	0.008
Mof_C 	C 	0.0661	0.27748	0.0416	0.003
Mof_H 	H 	0.1097	0.2739	0.0212	0.039
Mof_C 	C 	0.0212	0.23398	0.0437	0.012
Mof_H 	H 	0.0279	0.1957	0.0263	0.035
Mof_C 	C 	0.02491	0.81265	0.1583	0.104
Mof_H 	H 	0.0562	0.8394	0.1379	-0.012
Mof_C 	C 	0.93435	0.7741	0.2053	-0
Mof_H 	H 	0.8904	0.7699	0.224	0.039
Mof_C 	C 	0.97961	0.73062	0.2012	0.019
Mof_H 	H 	0.9726	0.6918	0.2155	0.033
Mof_C 	C 	0.12008	0.54144	0.1091	0.107
Mof_H 	H 	0.0814	0.5481	0.1424	0.011
Mof_C 	C 	0.1974	0.49987	0.0343	0.008
Mof_H 	H 	0.2221	0.4713	0.0049	0.038
Mof_C 	C 	0.2151	0.55577	0.0407	0.012
Mof_H 	H 	0.2536	0.5728	0.0179	0.034
Mof_O 	O 	0.113	0.9301	0.3569	-0.09
Mof_O 	O 	0.0223	0.9496	0.321	-0.093
Mof_O 	O 	0.0951	0.9214	0.3066	-0.067
Mof_Co	Co	0.58369	0.90862	0.67339	1.148
Mof_Co	Co	0.58804	0.90805	0.91495	1.157
Mof_O 	O 	0.52915	0.9295	0.1226	-0.29
Mof_O 	O 	0.61837	0.89778	0.04891	-0.414
Mof_O 	O 	0.52445	0.92351	0.4547	-0.294
Mof_O 	O 	0.61203	0.89572	0.53594	-0.411
Mof_O 	O 	0.82718	0.87171	0.21803	-0.429
Mof_O 	O 	0.82546	0.86894	0.37155	-0.431
Mof_O 	O 	0.54368	0.92997	0.79635	-0.449
Mof_N 	N 	0.66183	0.08351	0.6518	-0.154
Mof_N 	N 	0.63432	0.99229	0.6665	-0.221
Mof_N 	N 	0.53643	0.25806	0.5769	-0.151
Mof_N 	N 	0.46211	0.32794	0.574	-0.224
Mof_N 	N 	0.4623	0.75529	0.6719	-0.152
Mof_N 	N 	0.53716	0.82528	0.6777	-0.225
Mof_N 	N 	0.33543	0.58291	0.5881	-0.151
Mof_N 	N 	0.36255	0.49108	0.5775	-0.219
Mof_C 	C 	0.7182	0.23345	0.6046	0.092
Mof_C 	C 	0.71843	0.17464	0.6247	-0.202
Mof_H 	H 	0.7585	0.1559	0.636	0.109
Mof_C 	C 	0.65943	0.14382	0.6281	0.192
Mof_C 	C 	0.59868	0.17042	0.6123	-0.246
Mof_H 	H 	0.5591	0.1496	0.6153	0.135
Mof_C 	C 	0.59866	0.22929	0.5919	0.192
Mof_C 	C 	0.65743	0.26054	0.5872	-0.199
Mof_H 	H 	0.6564	0.2997	0.5723	0.11
Mof_C 	C 	0.28115	0.7326	0.641	0.091
Mof_C 	C 	0.34205	0.75874	0.6612	-0.198
Mof_H 	H 	0.3435	0.7974	0.6791	0.106
Mof_C 	C 	0.40004	0.72709	0.6543	0.192
Mof_C 	C 	0.39959	0.66883	0.6293	-0.243
Mof_H 	H 	0.439	0.6481	0.6233	0.135
Mof_C 	C 	0.33826	0.64279	0.6137	0.189
Mof_C 	C 	0.27957	0.67418	0.6189	-0.199
Mof_H 	H 	0.2391	0.656	0.6076	0.105
Mof_C 	C 	0.62263	0.89893	0.2095	-0.109
Mof_C 	C 	0.58952	0.90637	0.2909	0.05
Mof_H 	H 	0.5451	0.9175	0.2903	0.038
Mof_C 	C 	0.62135	0.89749	0.3744	-0.115
Mof_C 	C 	0.68854	0.88221	0.3754	0.05
Mof_H 	H 	0.7102	0.8759	0.4308	0.042
Mof_C 	C 	0.72321	0.87641	0.2933	-0.119
Mof_C 	C 	0.68985	0.88307	0.2105	0.048
Mof_H 	H 	0.7123	0.877	0.1557	0.045
Mof_C 	C 	0.58736	0.90954	0.119	0.357
Mof_C 	C 	0.58399	0.90643	0.4627	0.348
Mof_C 	C 	0.79829	0.87084	0.2943	0.372
Mof_C 	C 	0.61561	0.04296	0.6373	0.11
Mof_H 	H 	0.5748	0.0501	0.6096	0.005
Mof_C 	C 	0.69713	0.00114	0.7027	0.001
Mof_H 	H 	0.7234	0.9725	0.729	0.031
Mof_C 	C 	0.71456	0.05651	0.6946	0.012
Mof_H 	H 	0.7541	0.0735	0.7138	0.039
Mof_C 	C 	0.52362	0.31462	0.5945	0.101
Mof_H 	H 	0.5545	0.3406	0.6182	0.009
Mof_C 	C 	0.4339	0.27748	0.5416	0.003
Mof_H 	H 	0.3903	0.2739	0.5212	0.04
Mof_C 	C 	0.4788	0.23398	0.5437	0.015
Mof_H 	H 	0.4721	0.1957	0.5263	0.035
Mof_C 	C 	0.47509	0.81265	0.6583	0.105
Mof_H 	H 	0.4438	0.8394	0.6379	-0.012
Mof_C 	C 	0.56565	0.7741	0.7053	0
Mof_H 	H 	0.6096	0.7699	0.724	0.039
Mof_C 	C 	0.52039	0.73062	0.7012	0.017
Mof_H 	H 	0.5274	0.6918	0.7155	0.034
Mof_C 	C 	0.37992	0.54144	0.6091	0.107
Mof_H 	H 	0.4186	0.5481	0.6424	0.011
Mof_C 	C 	0.3026	0.49987	0.5343	0.009
Mof_H 	H 	0.2779	0.4713	0.5049	0.038
Mof_C 	C 	0.2849	0.55577	0.5407	0.012
Mof_H 	H 	0.2464	0.5728	0.5179	0.034
Mof_O 	O 	0.387	0.9301	0.8569	-0.09
Mof_O 	O 	0.4777	0.9496	0.821	-0.092
Mof_O 	O 	0.4049	0.9214	0.8066	-0.067
Mof_Co	Co	0.91631	0.59138	0.67339	1.148
Mof_Co	Co	0.91196	0.59195	0.91495	1.157
Mof_O 	O 	0.97085	0.5705	0.1226	-0.289
Mof_O 	O 	0.88163	0.60222	0.04891	-0.414
Mof_O 	O 	0.97555	0.57649	0.4547	-0.294
Mof_O 	O 	0.88797	0.60428	0.53594	-0.411
Mof_O 	O 	0.67282	0.62829	0.21803	-0.429
Mof_O 	O 	0.67454	0.63106	0.37155	-0.431
Mof_O 	O 	0.95632	0.57003	0.79635	-0.45
Mof_N 	N 	0.83817	0.41649	0.6518	-0.154
Mof_N 	N 	0.86568	0.50771	0.6665	-0.22
Mof_N 	N 	0.96357	0.24194	0.5769	-0.151
Mof_N 	N 	0.03789	0.17206	0.574	-0.224
Mof_N 	N 	0.0377	0.74471	0.6719	-0.151
Mof_N 	N 	0.96284	0.67472	0.6777	-0.226
Mof_N 	N 	0.16457	0.91709	0.5881	-0.151
Mof_N 	N 	0.13745	0.00892	0.5775	-0.219
Mof_C 	C 	0.7818	0.26655	0.6046	0.092
Mof_C 	C 	0.78157	0.32536	0.6247	-0.202
Mof_H 	H 	0.7415	0.3441	0.636	0.109
Mof_C 	C 	0.84057	0.35618	0.6281	0.192
Mof_C 	C 	0.90132	0.32958	0.6123	-0.246
Mof_H 	H 	0.9409	0.3504	0.6153	0.135
Mof_C 	C 	0.90134	0.27071	0.5919	0.192
Mof_C 	C 	0.84257	0.23946	0.5872	-0.199
Mof_H 	H 	0.8436	0.2003	0.5723	0.11
Mof_C 	C 	0.21885	0.7674	0.641	0.091
Mof_C 	C 	0.15795	0.74126	0.6612	-0.198
Mof_H 	H 	0.1565	0.7026	0.6791	0.106
Mof_C 	C 	0.09996	0.77291	0.6543	0.192
Mof_C 	C 	0.10041	0.83117	0.6293	-0.243
Mof_H 	H 	0.061	0.8519	0.6233	0.135
Mof_C 	C 	0.16174	0.85721	0.6137	0.189
Mof_C 	C 	0.22043	0.82582	0.6189	-0.199
Mof_H 	H 	0.2609	0.844	0.6076	0.105
Mof_C 	C 	0.87737	0.60107	0.2095	-0.109
Mof_C 	C 	0.91048	0.59363	0.2909	0.05
Mof_H 	H 	0.9549	0.5825	0.2903	0.038
Mof_C 	C 	0.87865	0.60251	0.3744	-0.115
Mof_C 	C 	0.81146	0.61779	0.3754	0.05
Mof_H 	H 	0.7898	0.6241	0.4308	0.042
Mof_C 	C 	0.77679	0.62359	0.2933	-0.119
Mof_C 	C 	0.81015	0.61693	0.2105	0.048
Mof_H 	H 	0.7877	0.623	0.1557	0.045
Mof_C 	C 	0.91264	0.59046	0.119	0.357
Mof_C 	C 	0.91601	0.59357	0.4627	0.348
Mof_C 	C 	0.70171	0.62916	0.2943	0.372
Mof_C 	C 	0.88439	0.45704	0.6373	0.109
Mof_H 	H 	0.9252	0.4499	0.6096	0.005
Mof_C 	C 	0.80287	0.49886	0.7027	-0.001
Mof_H 	H 	0.7766	0.5275	0.729	0.032
Mof_C 	C 	0.78544	0.44349	0.6946	0.013
Mof_H 	H 	0.7459	0.4265	0.7138	0.039
Mof_C 	C 	0.97638	0.18538	0.5945	0.1
Mof_H 	H 	0.9455	0.1594	0.6182	0.009
Mof_C 	C 	0.0661	0.22252	0.5416	0.002
Mof_H 	H 	0.1097	0.2261	0.5212	0.04
Mof_C 	C 	0.0212	0.26602	0.5437	0.015
Mof_H 	H 	0.0279	0.3043	0.5263	0.035
Mof_C 	C 	0.02491	0.68735	0.6583	0.106
Mof_H 	H 	0.0562	0.6606	0.6379	-0.012
Mof_C 	C 	0.93435	0.7259	0.7053	0.001
Mof_H 	H 	0.8904	0.7301	0.724	0.038
Mof_C 	C 	0.97961	0.76938	0.7012	0.016
Mof_H 	H 	0.9726	0.8082	0.7155	0.034
Mof_C 	C 	0.12008	0.95856	0.6091	0.106
Mof_H 	H 	0.0814	0.9519	0.6424	0.012
Mof_C 	C 	0.1974	0.00013	0.5343	0.009
Mof_H 	H 	0.2221	0.0287	0.5049	0.038
Mof_C 	C 	0.2151	0.94423	0.5407	0.011
Mof_H 	H 	0.2536	0.9272	0.5179	0.034
Mof_O 	O 	0.113	0.5699	0.8569	-0.089
Mof_O 	O 	0.0223	0.5504	0.821	-0.091
Mof_O 	O 	0.0951	0.5786	0.8066	-0.067
Mof_Co	Co	0.41631	0.40862	0.82661	1.148
Mof_Co	Co	0.41196	0.40805	0.58505	1.158
Mof_O 	O 	0.47085	0.4295	0.3774	-0.29
Mof_O 	O 	0.38163	0.39778	0.45109	-0.416
Mof_O 	O 	0.47555	0.42351	0.0453	-0.293
Mof_O 	O 	0.38797	0.39572	0.96406	-0.41
Mof_O 	O 	0.17282	0.37171	0.28197	-0.429
Mof_O 	O 	0.17454	0.36894	0.12845	-0.431
Mof_O 	O 	0.45632	0.42997	0.70365	-0.449
Mof_N 	N 	0.33817	0.58351	0.8482	-0.154
Mof_N 	N 	0.36568	0.49229	0.8335	-0.22
Mof_N 	N 	0.46357	0.75806	0.9231	-0.151
Mof_N 	N 	0.53789	0.82794	0.926	-0.224
Mof_N 	N 	0.5377	0.25529	0.8281	-0.152
Mof_N 	N 	0.46284	0.32528	0.8223	-0.225
Mof_N 	N 	0.66457	0.08291	0.9119	-0.151
Mof_N 	N 	0.63745	0.99108	0.9225	-0.22
Mof_C 	C 	0.2818	0.73345	0.8954	0.092
Mof_C 	C 	0.28157	0.67464	0.8753	-0.202
Mof_H 	H 	0.2415	0.6559	0.864	0.109
Mof_C 	C 	0.34057	0.64382	0.8719	0.193
Mof_C 	C 	0.40132	0.67042	0.8877	-0.246
Mof_H 	H 	0.4409	0.6496	0.8847	0.135
Mof_C 	C 	0.40134	0.72929	0.9081	0.192
Mof_C 	C 	0.34257	0.76054	0.9128	-0.199
Mof_H 	H 	0.3436	0.7997	0.9277	0.11
Mof_C 	C 	0.71885	0.2326	0.859	0.091
Mof_C 	C 	0.65795	0.25874	0.8388	-0.198
Mof_H 	H 	0.6565	0.2974	0.8209	0.106
Mof_C 	C 	0.59996	0.22709	0.8457	0.192
Mof_C 	C 	0.60041	0.16883	0.8707	-0.243
Mof_H 	H 	0.561	0.1481	0.8767	0.135
Mof_C 	C 	0.66174	0.14279	0.8863	0.189
Mof_C 	C 	0.72043	0.17418	0.8811	-0.199
Mof_H 	H 	0.7609	0.156	0.8924	0.105
Mof_C 	C 	0.37737	0.39893	0.2905	-0.109
Mof_C 	C 	0.41048	0.40637	0.2091	0.05
Mof_H 	H 	0.4549	0.4175	0.2097	0.037
Mof_C 	C 	0.37865	0.39749	0.1256	-0.115
Mof_C 	C 	0.31146	0.38221	0.1246	0.05
Mof_H 	H 	0.2898	0.3759	0.0692	0.042
Mof_C 	C 	0.27679	0.37641	0.2067	-0.12
Mof_C 	C 	0.31015	0.38307	0.2895	0.048
Mof_H 	H 	0.2877	0.377	0.3443	0.044
Mof_C 	C 	0.41264	0.40954	0.381	0.357
Mof_C 	C 	0.41601	0.40643	0.0373	0.347
Mof_C 	C 	0.20171	0.37084	0.2057	0.372
Mof_C 	C 	0.38439	0.54296	0.8627	0.109
Mof_H 	H 	0.4252	0.5501	0.8904	0.005
Mof_C 	C 	0.30287	0.50114	0.7973	-0.001
Mof_H 	H 	0.2766	0.4725	0.771	0.032
Mof_C 	C 	0.28544	0.55651	0.8054	0.013
Mof_H 	H 	0.2459	0.5735	0.7862	0.039
Mof_C 	C 	0.47638	0.81462	0.9055	0.101
Mof_H 	H 	0.4455	0.8406	0.8818	0.009
Mof_C 	C 	0.5661	0.77748	0.9584	0.002
Mof_H 	H 	0.6097	0.7739	0.9788	0.04
Mof_C 	C 	0.5212	0.73398	0.9563	0.015
Mof_H 	H 	0.5279	0.6957	0.9737	0.035
Mof_C 	C 	0.52491	0.31265	0.8417	0.106
Mof_H 	H 	0.5562	0.3394	0.8621	-0.012
Mof_C 	C 	0.43435	0.2741	0.7947	0
Mof_H 	H 	0.3904	0.2699	0.776	0.039
Mof_C 	C 	0.47961	0.23062	0.7988	0.017
Mof_H 	H 	0.4726	0.1918	0.7845	0.034
Mof_C 	C 	0.62008	0.04144	0.8909	0.108
Mof_H 	H 	0.5814	0.0481	0.8576	0.011
Mof_C 	C 	0.6974	0.99987	0.9657	0.006
Mof_H 	H 	0.7221	0.9713	0.9951	0.039
Mof_C 	C 	0.7151	0.05577	0.9593	0.015
Mof_H 	H 	0.7536	0.0728	0.9821	0.033
Mof_O 	O 	0.613	0.4301	0.6431	-0.09
Mof_O 	O 	0.5223	0.4496	0.679	-0.092
Mof_O 	O 	0.5951	0.4214	0.6934	-0.067
Mof_Co	Co	0.08369	0.09138	0.82661	1.148
Mof_Co	Co	0.08804	0.09195	0.58505	1.158
Mof_O 	O 	0.02915	0.0705	0.3774	-0.291
Mof_O 	O 	0.11837	0.10222	0.45109	-0.416
Mof_O 	O 	0.02445	0.07649	0.0453	-0.294
Mof_O 	O 	0.11203	0.10428	0.96406	-0.407
Mof_O 	O 	0.32718	0.12829	0.28197	-0.429
Mof_O 	O 	0.32546	0.13106	0.12845	-0.431
Mof_O 	O 	0.04368	0.07003	0.70365	-0.449
Mof_N 	N 	0.16183	0.91649	0.8482	-0.154
Mof_N 	N 	0.13432	0.00771	0.8335	-0.218
Mof_N 	N 	0.03643	0.74194	0.9231	-0.15
Mof_N 	N 	0.96211	0.67206	0.926	-0.226
Mof_N 	N 	0.9623	0.24471	0.8281	-0.152
Mof_N 	N 	0.03716	0.17472	0.8223	-0.224
Mof_N 	N 	0.83543	0.41709	0.9119	-0.151
Mof_N 	N 	0.86255	0.50892	0.9225	-0.219
Mof_C 	C 	0.2182	0.76655	0.8954	0.092
Mof_C 	C 	0.21843	0.82536	0.8753	-0.202
Mof_H 	H 	0.2585	0.8441	0.864	0.109
Mof_C 	C 	0.15943	0.85618	0.8719	0.193
Mof_C 	C 	0.09868	0.82958	0.8877	-0.246
Mof_H 	H 	0.0591	0.8504	0.8847	0.136
Mof_C 	C 	0.09866	0.77071	0.9081	0.192
Mof_C 	C 	0.15743	0.73946	0.9128	-0.199
Mof_H 	H 	0.1564	0.7003	0.9277	0.11
Mof_C 	C 	0.78115	0.2674	0.859	0.091
Mof_C 	C 	0.84205	0.24126	0.8388	-0.198
Mof_H 	H 	0.8435	0.2026	0.8209	0.106
Mof_C 	C 	0.90004	0.27291	0.8457	0.192
Mof_C 	C 	0.89959	0.33117	0.8707	-0.243
Mof_H 	H 	0.939	0.3519	0.8767	0.134
Mof_C 	C 	0.83826	0.35721	0.8863	0.188
Mof_C 	C 	0.77957	0.32582	0.8811	-0.199
Mof_H 	H 	0.7391	0.344	0.8924	0.105
Mof_C 	C 	0.12263	0.10107	0.2905	-0.109
Mof_C 	C 	0.08952	0.09363	0.2091	0.05
Mof_H 	H 	0.0451	0.0825	0.2097	0.037
Mof_C 	C 	0.12135	0.10251	0.1256	-0.115
Mof_C 	C 	0.18854	0.11779	0.1246	0.05
Mof_H 	H 	0.2102	0.1241	0.0692	0.042
Mof_C 	C 	0.22321	0.12359	0.2067	-0.119
Mof_C 	C 	0.18985	0.11693	0.2895	0.048
Mof_H 	H 	0.2123	0.123	0.3443	0.044
Mof_C 	C 	0.08736	0.09046	0.381	0.357
Mof_C 	C 	0.08399	0.09357	0.0373	0.344
Mof_C 	C 	0.29829	0.12916	0.2057	0.372
Mof_C 	C 	0.11561	0.95704	0.8627	0.108
Mof_H 	H 	0.0748	0.9499	0.8904	0.006
Mof_C 	C 	0.19713	0.99886	0.7973	-0.005
Mof_H 	H 	0.2234	0.0275	0.771	0.034
Mof_C 	C 	0.21456	0.94349	0.8054	0.014
Mof_H 	H 	0.2541	0.9265	0.7862	0.038
Mof_C 	C 	0.02362	0.68538	0.9055	0.103
Mof_H 	H 	0.0545	0.6594	0.8818	0.008
Mof_C 	C 	0.9339	0.72252	0.9584	0.003
Mof_H 	H 	0.8903	0.7261	0.9788	0.039
Mof_C 	C 	0.9788	0.76602	0.9563	0.012
Mof_H 	H 	0.9721	0.8043	0.9737	0.035
Mof_C 	C 	0.97509	0.18735	0.8417	0.104
Mof_H 	H 	0.9438	0.1606	0.8621	-0.012
Mof_C 	C 	0.06565	0.2259	0.7947	-0
Mof_H 	H 	0.1096	0.2301	0.776	0.039
Mof_C 	C 	0.02039	0.26938	0.7988	0.019
Mof_H 	H 	0.0274	0.3082	0.7845	0.033
Mof_C 	C 	0.87992	0.45856	0.8909	0.107
Mof_H 	H 	0.9186	0.4519	0.8576	0.011
Mof_C 	C 	0.8026	0.50013	0.9657	0.008
Mof_H 	H 	0.7779	0.5287	0.9951	0.038
Mof_C 	C 	0.7849	0.44423	0.9593	0.012
Mof_H 	H 	0.7464	0.4272	0.9821	0.034
Mof_O 	O 	0.887	0.0699	0.6431	-0.09
Mof_O 	O 	0.9777	0.0504	0.679	-0.093
Mof_O 	O 	0.9049	0.0786	0.6934	-0.067
_end
