data_functionalizedCrystal
_audit_creation_method	'EQeq! by Chris Wilmer'
_symmetry_space_group_name_H-M	'P1'
_symmetry_Int_Tables_number	1
_symmetry_cell_setting	triclinic
loop_
_symmetry_equiv_pos_as_xyz
  x,y,z
_cell_length_a	12.901
_cell_length_b	17.061
_cell_length_c	24.719
_cell_angle_alpha	90
_cell_angle_beta	90
_cell_angle_gamma	90
loop_
_atom_site_label
_atom_site_type_symbol
_atom_site_fract_x
_atom_site_fract_y
_atom_site_fract_z
_atom_site_charge
Mof_N 	N 	0.26501	0.87581	0.93262	-0.242
Mof_N 	N 	0.16752	0.91181	0.99923	-0.094
Mof_C 	C 	0.18983	0.8222	0.94254	0.089
Mof_H 	H 	0.1823	0.7751	0.9224	-0.013
Mof_N 	N 	0.12818	0.84165	0.98285	-0.105
Mof_C 	C 	0.24832	0.93125	0.9692	0.081
Mof_H 	H 	0.2882	0.9777	0.9732	-0.005
Mof_C 	C 	0.11628	0.95815	0.04131	-0.057
Mof_H 	H 	0.0768	0.9228	0.0655	0.044
Mof_H 	H 	0.1693	0.9853	0.0634	0.042
Mof_C 	C 	0.0431	0.01834	0.01689	-0.04
Mof_H 	H 	0.0117	0.0495	0.0464	0.031
Mof_H 	H 	0.0835	0.0546	0.9938	0.026
Mof_C 	C 	0.2545	0.2299	0.9751	-0.041
Mof_H 	H 	0.2241	0.263	0.9463	0.028
Mof_H 	H 	0.2129	0.1813	0.9772	0.027
Mof_N 	N 	0.26501	0.37581	0.43262	-0.242
Mof_N 	N 	0.16752	0.41181	0.49923	-0.094
Mof_C 	C 	0.18983	0.3222	0.44254	0.089
Mof_H 	H 	0.1823	0.2751	0.4224	-0.013
Mof_N 	N 	0.12818	0.34165	0.48285	-0.105
Mof_C 	C 	0.24832	0.43125	0.4692	0.081
Mof_H 	H 	0.2882	0.4777	0.4732	-0.005
Mof_C 	C 	0.11628	0.45815	0.54131	-0.057
Mof_H 	H 	0.0768	0.4228	0.5655	0.044
Mof_H 	H 	0.1693	0.4853	0.5634	0.042
Mof_C 	C 	0.0431	0.51834	0.51689	-0.04
Mof_H 	H 	0.0117	0.5495	0.5464	0.031
Mof_H 	H 	0.0835	0.5546	0.4938	0.026
Mof_C 	C 	0.2545	0.7299	0.4751	-0.04
Mof_H 	H 	0.2241	0.763	0.4463	0.027
Mof_H 	H 	0.2129	0.6813	0.4772	0.027
Mof_N 	N 	0.76501	0.87581	0.43262	-0.241
Mof_N 	N 	0.66752	0.91181	0.49923	-0.093
Mof_C 	C 	0.68983	0.8222	0.44254	0.09
Mof_H 	H 	0.6823	0.7751	0.4224	-0.012
Mof_N 	N 	0.62818	0.84165	0.48285	-0.104
Mof_C 	C 	0.74832	0.93125	0.4692	0.082
Mof_H 	H 	0.7882	0.9777	0.4732	-0.004
Mof_C 	C 	0.61628	0.95815	0.54131	-0.056
Mof_H 	H 	0.5768	0.9228	0.5655	0.045
Mof_H 	H 	0.6693	0.9853	0.5634	0.043
Mof_C 	C 	0.5431	0.01834	0.51689	-0.038
Mof_H 	H 	0.5117	0.0495	0.5464	0.032
Mof_H 	H 	0.5835	0.0546	0.4938	0.027
Mof_C 	C 	0.7545	0.2299	0.4751	-0.039
Mof_H 	H 	0.7241	0.263	0.4463	0.028
Mof_H 	H 	0.7129	0.1813	0.4772	0.028
Mof_N 	N 	0.76501	0.37581	0.93262	-0.241
Mof_N 	N 	0.66752	0.41181	0.99923	-0.093
Mof_C 	C 	0.68983	0.3222	0.94254	0.09
Mof_H 	H 	0.6823	0.2751	0.9224	-0.012
Mof_N 	N 	0.62818	0.34165	0.98285	-0.104
Mof_C 	C 	0.74832	0.43125	0.9692	0.082
Mof_H 	H 	0.7882	0.4777	0.9732	-0.004
Mof_C 	C 	0.61628	0.45815	0.04131	-0.056
Mof_H 	H 	0.5768	0.4228	0.0655	0.045
Mof_H 	H 	0.6693	0.4853	0.0634	0.043
Mof_C 	C 	0.5431	0.51834	0.01689	-0.038
Mof_H 	H 	0.5117	0.5495	0.0464	0.031
Mof_H 	H 	0.5835	0.5546	0.9938	0.027
Mof_C 	C 	0.7545	0.7299	0.9751	-0.037
Mof_H 	H 	0.7241	0.763	0.9463	0.028
Mof_H 	H 	0.7129	0.6813	0.9772	0.028
Mof_N 	N 	0.48499	0.87419	0.93262	-0.241
Mof_N 	N 	0.58248	0.83819	0.99923	-0.093
Mof_C 	C 	0.56017	0.9278	0.94254	0.09
Mof_H 	H 	0.5677	0.9749	0.9224	-0.012
Mof_N 	N 	0.62182	0.90835	0.98285	-0.104
Mof_C 	C 	0.50168	0.81875	0.9692	0.082
Mof_H 	H 	0.4618	0.7723	0.9732	-0.004
Mof_C 	C 	0.63372	0.79185	0.04131	-0.056
Mof_H 	H 	0.6732	0.8272	0.0655	0.045
Mof_H 	H 	0.5807	0.7647	0.0634	0.043
Mof_C 	C 	0.7069	0.73166	0.01689	-0.038
Mof_H 	H 	0.7383	0.7005	0.0464	0.031
Mof_H 	H 	0.6665	0.6954	0.9938	0.027
Mof_C 	C 	0.4955	0.5201	0.9751	-0.039
Mof_H 	H 	0.5259	0.487	0.9463	0.028
Mof_H 	H 	0.5371	0.5687	0.9772	0.028
Mof_N 	N 	0.48499	0.37419	0.43262	-0.241
Mof_N 	N 	0.58248	0.33819	0.49923	-0.093
Mof_C 	C 	0.56017	0.4278	0.44254	0.09
Mof_H 	H 	0.5677	0.4749	0.4224	-0.012
Mof_N 	N 	0.62182	0.40835	0.48285	-0.104
Mof_C 	C 	0.50168	0.31875	0.4692	0.082
Mof_H 	H 	0.4618	0.2723	0.4732	-0.004
Mof_C 	C 	0.63372	0.29185	0.54131	-0.056
Mof_H 	H 	0.6732	0.3272	0.5655	0.045
Mof_H 	H 	0.5807	0.2647	0.5634	0.043
Mof_C 	C 	0.7069	0.23166	0.51689	-0.038
Mof_H 	H 	0.7383	0.2005	0.5464	0.032
Mof_H 	H 	0.6665	0.1954	0.4938	0.027
Mof_C 	C 	0.4955	0.0201	0.4751	-0.039
Mof_H 	H 	0.5259	0.987	0.4463	0.028
Mof_H 	H 	0.5371	0.0687	0.4772	0.028
Mof_N 	N 	0.98499	0.87419	0.43262	-0.241
Mof_N 	N 	0.08248	0.83819	0.49923	-0.093
Mof_C 	C 	0.06017	0.9278	0.44254	0.09
Mof_H 	H 	0.0677	0.9749	0.4224	-0.012
Mof_N 	N 	0.12182	0.90835	0.48285	-0.104
Mof_C 	C 	0.00168	0.81875	0.4692	0.082
Mof_H 	H 	0.9618	0.7723	0.4732	-0.004
Mof_C 	C 	0.13372	0.79185	0.54131	-0.056
Mof_H 	H 	0.1732	0.8272	0.5655	0.045
Mof_H 	H 	0.0807	0.7647	0.5634	0.043
Mof_C 	C 	0.2069	0.73166	0.51689	-0.038
Mof_H 	H 	0.2383	0.7005	0.5464	0.032
Mof_H 	H 	0.1665	0.6954	0.4938	0.027
Mof_C 	C 	0.9955	0.5201	0.4751	-0.039
Mof_H 	H 	0.0259	0.487	0.4463	0.028
Mof_H 	H 	0.0371	0.5687	0.4772	0.028
Mof_N 	N 	0.98499	0.37419	0.93262	-0.241
Mof_N 	N 	0.08248	0.33819	0.99923	-0.093
Mof_C 	C 	0.06017	0.4278	0.94254	0.089
Mof_H 	H 	0.0677	0.4749	0.9224	-0.012
Mof_N 	N 	0.12182	0.40835	0.98285	-0.104
Mof_C 	C 	0.00168	0.31875	0.9692	0.081
Mof_H 	H 	0.9618	0.2723	0.9732	-0.004
Mof_C 	C 	0.13372	0.29185	0.04131	-0.056
Mof_H 	H 	0.1732	0.3272	0.0655	0.045
Mof_H 	H 	0.0807	0.2647	0.0634	0.043
Mof_C 	C 	0.2069	0.23166	0.01689	-0.039
Mof_H 	H 	0.2383	0.2005	0.0464	0.032
Mof_H 	H 	0.1665	0.1954	0.9938	0.027
Mof_C 	C 	0.9955	0.0201	0.9751	-0.038
Mof_H 	H 	0.0259	0.987	0.9463	0.028
Mof_H 	H 	0.0371	0.0687	0.9772	0.028
Mof_N 	N 	0.48499	0.87581	0.81738	-0.241
Mof_N 	N 	0.58248	0.91181	0.75077	-0.093
Mof_C 	C 	0.56017	0.8222	0.80746	0.09
Mof_H 	H 	0.5677	0.7751	0.8276	-0.012
Mof_N 	N 	0.62182	0.84165	0.76715	-0.104
Mof_C 	C 	0.50168	0.93125	0.7808	0.082
Mof_H 	H 	0.4618	0.9777	0.7768	-0.004
Mof_C 	C 	0.63372	0.95815	0.70869	-0.056
Mof_H 	H 	0.6732	0.9228	0.6845	0.045
Mof_H 	H 	0.5807	0.9853	0.6866	0.043
Mof_C 	C 	0.7069	0.01834	0.73311	-0.038
Mof_H 	H 	0.7383	0.0495	0.7036	0.031
Mof_H 	H 	0.6665	0.0546	0.7562	0.026
Mof_C 	C 	0.4955	0.2299	0.7749	-0.039
Mof_H 	H 	0.5259	0.263	0.8037	0.028
Mof_H 	H 	0.5371	0.1813	0.7728	0.028
Mof_N 	N 	0.48499	0.37581	0.31738	-0.241
Mof_N 	N 	0.58248	0.41181	0.25077	-0.093
Mof_C 	C 	0.56017	0.3222	0.30746	0.09
Mof_H 	H 	0.5677	0.2751	0.3276	-0.012
Mof_N 	N 	0.62182	0.34165	0.26715	-0.104
Mof_C 	C 	0.50168	0.43125	0.2808	0.082
Mof_H 	H 	0.4618	0.4777	0.2768	-0.004
Mof_C 	C 	0.63372	0.45815	0.20869	-0.056
Mof_H 	H 	0.6732	0.4228	0.1845	0.045
Mof_H 	H 	0.5807	0.4853	0.1866	0.043
Mof_C 	C 	0.7069	0.51834	0.23311	-0.038
Mof_H 	H 	0.7383	0.5495	0.2036	0.032
Mof_H 	H 	0.6665	0.5546	0.2562	0.027
Mof_C 	C 	0.4955	0.7299	0.2749	-0.039
Mof_H 	H 	0.5259	0.763	0.3037	0.028
Mof_H 	H 	0.5371	0.6813	0.2728	0.028
Mof_N 	N 	0.98499	0.87581	0.31738	-0.241
Mof_N 	N 	0.08248	0.91181	0.25077	-0.093
Mof_C 	C 	0.06017	0.8222	0.30746	0.09
Mof_H 	H 	0.0677	0.7751	0.3276	-0.012
Mof_N 	N 	0.12182	0.84165	0.26715	-0.104
Mof_C 	C 	0.00168	0.93125	0.2808	0.082
Mof_H 	H 	0.9618	0.9777	0.2768	-0.005
Mof_C 	C 	0.13372	0.95815	0.20869	-0.056
Mof_H 	H 	0.1732	0.9228	0.1845	0.045
Mof_H 	H 	0.0807	0.9853	0.1866	0.043
Mof_C 	C 	0.2069	0.01834	0.23311	-0.039
Mof_H 	H 	0.2383	0.0495	0.2036	0.032
Mof_H 	H 	0.1665	0.0546	0.2562	0.027
Mof_C 	C 	0.9955	0.2299	0.2749	-0.038
Mof_H 	H 	0.0259	0.263	0.3037	0.028
Mof_H 	H 	0.0371	0.1813	0.2728	0.028
Mof_N 	N 	0.98499	0.37581	0.81738	-0.241
Mof_N 	N 	0.08248	0.41181	0.75077	-0.093
Mof_C 	C 	0.06017	0.3222	0.80746	0.09
Mof_H 	H 	0.0677	0.2751	0.8276	-0.012
Mof_N 	N 	0.12182	0.34165	0.76715	-0.104
Mof_C 	C 	0.00168	0.43125	0.7808	0.082
Mof_H 	H 	0.9618	0.4777	0.7768	-0.004
Mof_C 	C 	0.13372	0.45815	0.70869	-0.056
Mof_H 	H 	0.1732	0.4228	0.6845	0.045
Mof_H 	H 	0.0807	0.4853	0.6866	0.043
Mof_C 	C 	0.2069	0.51834	0.73311	-0.038
Mof_H 	H 	0.2383	0.5495	0.7036	0.032
Mof_H 	H 	0.1665	0.5546	0.7562	0.027
Mof_C 	C 	0.9955	0.7299	0.7749	-0.039
Mof_H 	H 	0.0259	0.763	0.8037	0.028
Mof_H 	H 	0.0371	0.6813	0.7728	0.028
Mof_N 	N 	0.26501	0.87419	0.81738	-0.241
Mof_N 	N 	0.16752	0.83819	0.75077	-0.093
Mof_C 	C 	0.18983	0.9278	0.80746	0.09
Mof_H 	H 	0.1823	0.9749	0.8276	-0.012
Mof_N 	N 	0.12818	0.90835	0.76715	-0.104
Mof_C 	C 	0.24832	0.81875	0.7808	0.082
Mof_H 	H 	0.2882	0.7723	0.7768	-0.004
Mof_C 	C 	0.11628	0.79185	0.70869	-0.056
Mof_H 	H 	0.0768	0.8272	0.6845	0.045
Mof_H 	H 	0.1693	0.7647	0.6866	0.043
Mof_C 	C 	0.0431	0.73166	0.73311	-0.039
Mof_H 	H 	0.0117	0.7005	0.7036	0.032
Mof_H 	H 	0.0835	0.6954	0.7562	0.027
Mof_C 	C 	0.2545	0.5201	0.7749	-0.039
Mof_H 	H 	0.2241	0.487	0.8037	0.028
Mof_H 	H 	0.2129	0.5687	0.7728	0.028
Mof_N 	N 	0.26501	0.37419	0.31738	-0.241
Mof_N 	N 	0.16752	0.33819	0.25077	-0.093
Mof_C 	C 	0.18983	0.4278	0.30746	0.09
Mof_H 	H 	0.1823	0.4749	0.3276	-0.012
Mof_N 	N 	0.12818	0.40835	0.26715	-0.104
Mof_C 	C 	0.24832	0.31875	0.2808	0.082
Mof_H 	H 	0.2882	0.2723	0.2768	-0.004
Mof_C 	C 	0.11628	0.29185	0.20869	-0.056
Mof_H 	H 	0.0768	0.3272	0.1845	0.045
Mof_H 	H 	0.1693	0.2647	0.1866	0.043
Mof_C 	C 	0.0431	0.23166	0.23311	-0.038
Mof_H 	H 	0.0117	0.2005	0.2036	0.031
Mof_H 	H 	0.0835	0.1954	0.2562	0.027
Mof_C 	C 	0.2545	0.0201	0.2749	-0.04
Mof_H 	H 	0.2241	0.987	0.3037	0.029
Mof_H 	H 	0.2129	0.0687	0.2728	0.028
Mof_N 	N 	0.76501	0.87419	0.31738	-0.241
Mof_N 	N 	0.66752	0.83819	0.25077	-0.093
Mof_C 	C 	0.68983	0.9278	0.30746	0.09
Mof_H 	H 	0.6823	0.9749	0.3276	-0.012
Mof_N 	N 	0.62818	0.90835	0.26715	-0.104
Mof_C 	C 	0.74832	0.81875	0.2808	0.082
Mof_H 	H 	0.7882	0.7723	0.2768	-0.004
Mof_C 	C 	0.61628	0.79185	0.20869	-0.056
Mof_H 	H 	0.5768	0.8272	0.1845	0.045
Mof_H 	H 	0.6693	0.7647	0.1866	0.043
Mof_C 	C 	0.5431	0.73166	0.23311	-0.038
Mof_H 	H 	0.5117	0.7005	0.2036	0.032
Mof_H 	H 	0.5835	0.6954	0.2562	0.027
Mof_C 	C 	0.7545	0.5201	0.2749	-0.039
Mof_H 	H 	0.7241	0.487	0.3037	0.028
Mof_H 	H 	0.7129	0.5687	0.2728	0.028
Mof_N 	N 	0.76501	0.37419	0.81738	-0.241
Mof_N 	N 	0.66752	0.33819	0.75077	-0.093
Mof_C 	C 	0.68983	0.4278	0.80746	0.09
Mof_H 	H 	0.6823	0.4749	0.8276	-0.012
Mof_N 	N 	0.62818	0.40835	0.76715	-0.104
Mof_C 	C 	0.74832	0.31875	0.7808	0.082
Mof_H 	H 	0.7882	0.2723	0.7768	-0.004
Mof_C 	C 	0.61628	0.29185	0.70869	-0.056
Mof_H 	H 	0.5768	0.3272	0.6845	0.045
Mof_H 	H 	0.6693	0.2647	0.6866	0.043
Mof_C 	C 	0.5431	0.23166	0.73311	-0.038
Mof_H 	H 	0.5117	0.2005	0.7036	0.032
Mof_H 	H 	0.5835	0.1954	0.7562	0.027
Mof_C 	C 	0.7545	0.0201	0.7749	-0.038
Mof_H 	H 	0.7241	0.987	0.8037	0.028
Mof_H 	H 	0.7129	0.0687	0.7728	0.028
Mof_N 	N 	0.73499	0.12419	0.06738	-0.241
Mof_N 	N 	0.83248	0.08819	0.00077	-0.093
Mof_C 	C 	0.81017	0.1778	0.05746	0.09
Mof_H 	H 	0.8177	0.2249	0.0776	-0.012
Mof_N 	N 	0.87182	0.15835	0.01715	-0.104
Mof_C 	C 	0.75168	0.06875	0.0308	0.082
Mof_H 	H 	0.7118	0.0223	0.0268	-0.004
Mof_C 	C 	0.88372	0.04185	0.95869	-0.056
Mof_H 	H 	0.9232	0.0772	0.9345	0.045
Mof_H 	H 	0.8307	0.0147	0.9366	0.043
Mof_C 	C 	0.9569	0.98166	0.98311	-0.039
Mof_H 	H 	0.9883	0.9505	0.9536	0.032
Mof_H 	H 	0.9165	0.9454	0.0062	0.027
Mof_C 	C 	0.7455	0.7701	0.0249	-0.04
Mof_H 	H 	0.7759	0.737	0.0537	0.029
Mof_H 	H 	0.7871	0.8187	0.0228	0.028
Mof_N 	N 	0.73499	0.62419	0.56738	-0.241
Mof_N 	N 	0.83248	0.58819	0.50077	-0.093
Mof_C 	C 	0.81017	0.6778	0.55746	0.09
Mof_H 	H 	0.8177	0.7249	0.5776	-0.012
Mof_N 	N 	0.87182	0.65835	0.51715	-0.104
Mof_C 	C 	0.75168	0.56875	0.5308	0.082
Mof_H 	H 	0.7118	0.5223	0.5268	-0.004
Mof_C 	C 	0.88372	0.54185	0.45869	-0.056
Mof_H 	H 	0.9232	0.5772	0.4345	0.045
Mof_H 	H 	0.8307	0.5147	0.4366	0.043
Mof_C 	C 	0.9569	0.48166	0.48311	-0.039
Mof_H 	H 	0.9883	0.4505	0.4536	0.032
Mof_H 	H 	0.9165	0.4454	0.5062	0.027
Mof_C 	C 	0.7455	0.2701	0.5249	-0.039
Mof_H 	H 	0.7759	0.237	0.5537	0.028
Mof_H 	H 	0.7871	0.3187	0.5228	0.028
Mof_N 	N 	0.23499	0.12419	0.56738	-0.241
Mof_N 	N 	0.33248	0.08819	0.50077	-0.093
Mof_C 	C 	0.31017	0.1778	0.55746	0.09
Mof_H 	H 	0.3177	0.2249	0.5776	-0.012
Mof_N 	N 	0.37182	0.15835	0.51715	-0.104
Mof_C 	C 	0.25168	0.06875	0.5308	0.082
Mof_H 	H 	0.2118	0.0223	0.5268	-0.004
Mof_C 	C 	0.38372	0.04185	0.45869	-0.056
Mof_H 	H 	0.4232	0.0772	0.4345	0.045
Mof_H 	H 	0.3307	0.0147	0.4366	0.043
Mof_C 	C 	0.4569	0.98166	0.48311	-0.038
Mof_H 	H 	0.4883	0.9505	0.4536	0.032
Mof_H 	H 	0.4165	0.9454	0.5062	0.027
Mof_C 	C 	0.2455	0.7701	0.5249	-0.039
Mof_H 	H 	0.2759	0.737	0.5537	0.028
Mof_H 	H 	0.2871	0.8187	0.5228	0.028
Mof_N 	N 	0.23499	0.62419	0.06738	-0.241
Mof_N 	N 	0.33248	0.58819	0.00077	-0.093
Mof_C 	C 	0.31017	0.6778	0.05746	0.09
Mof_H 	H 	0.3177	0.7249	0.0776	-0.012
Mof_N 	N 	0.37182	0.65835	0.01715	-0.104
Mof_C 	C 	0.25168	0.56875	0.0308	0.082
Mof_H 	H 	0.2118	0.5223	0.0268	-0.004
Mof_C 	C 	0.38372	0.54185	0.95869	-0.056
Mof_H 	H 	0.4232	0.5772	0.9345	0.045
Mof_H 	H 	0.3307	0.5147	0.9366	0.043
Mof_C 	C 	0.4569	0.48166	0.98311	-0.038
Mof_H 	H 	0.4883	0.4505	0.9536	0.031
Mof_H 	H 	0.4165	0.4454	0.0062	0.027
Mof_C 	C 	0.2455	0.2701	0.0249	-0.037
Mof_H 	H 	0.2759	0.237	0.0537	0.028
Mof_H 	H 	0.2871	0.3187	0.0228	0.028
Mof_N 	N 	0.51501	0.12581	0.06738	-0.241
Mof_N 	N 	0.41752	0.16181	0.00077	-0.093
Mof_C 	C 	0.43983	0.0722	0.05746	0.09
Mof_H 	H 	0.4323	0.0251	0.0776	-0.012
Mof_N 	N 	0.37818	0.09165	0.01715	-0.104
Mof_C 	C 	0.49832	0.18125	0.0308	0.082
Mof_H 	H 	0.5382	0.2277	0.0268	-0.004
Mof_C 	C 	0.36628	0.20815	0.95869	-0.056
Mof_H 	H 	0.3268	0.1728	0.9345	0.045
Mof_H 	H 	0.4193	0.2353	0.9366	0.043
Mof_C 	C 	0.2931	0.26834	0.98311	-0.038
Mof_H 	H 	0.2617	0.2995	0.9536	0.031
Mof_H 	H 	0.3335	0.3046	0.0062	0.027
Mof_C 	C 	0.5045	0.4799	0.0249	-0.039
Mof_H 	H 	0.4741	0.513	0.0537	0.028
Mof_H 	H 	0.4629	0.4313	0.0228	0.028
Mof_N 	N 	0.51501	0.62581	0.56738	-0.241
Mof_N 	N 	0.41752	0.66181	0.50077	-0.093
Mof_C 	C 	0.43983	0.5722	0.55746	0.09
Mof_H 	H 	0.4323	0.5251	0.5776	-0.012
Mof_N 	N 	0.37818	0.59165	0.51715	-0.104
Mof_C 	C 	0.49832	0.68125	0.5308	0.082
Mof_H 	H 	0.5382	0.7277	0.5268	-0.004
Mof_C 	C 	0.36628	0.70815	0.45869	-0.056
Mof_H 	H 	0.3268	0.6728	0.4345	0.045
Mof_H 	H 	0.4193	0.7353	0.4366	0.043
Mof_C 	C 	0.2931	0.76834	0.48311	-0.038
Mof_H 	H 	0.2617	0.7995	0.4536	0.032
Mof_H 	H 	0.3335	0.8046	0.5062	0.027
Mof_C 	C 	0.5045	0.9799	0.5249	-0.039
Mof_H 	H 	0.4741	0.013	0.5537	0.028
Mof_H 	H 	0.4629	0.9313	0.5228	0.028
Mof_N 	N 	0.01501	0.12581	0.56738	-0.241
Mof_N 	N 	0.91752	0.16181	0.50077	-0.093
Mof_C 	C 	0.93983	0.0722	0.55746	0.09
Mof_H 	H 	0.9323	0.0251	0.5776	-0.012
Mof_N 	N 	0.87818	0.09165	0.51715	-0.104
Mof_C 	C 	0.99832	0.18125	0.5308	0.082
Mof_H 	H 	0.0382	0.2277	0.5268	-0.004
Mof_C 	C 	0.86628	0.20815	0.45869	-0.056
Mof_H 	H 	0.8268	0.1728	0.4345	0.045
Mof_H 	H 	0.9193	0.2353	0.4366	0.043
Mof_C 	C 	0.7931	0.26834	0.48311	-0.038
Mof_H 	H 	0.7617	0.2995	0.4536	0.032
Mof_H 	H 	0.8335	0.3046	0.5062	0.027
Mof_C 	C 	0.0045	0.4799	0.5249	-0.039
Mof_H 	H 	0.9741	0.513	0.5537	0.028
Mof_H 	H 	0.9629	0.4313	0.5228	0.028
Mof_N 	N 	0.01501	0.62581	0.06738	-0.241
Mof_N 	N 	0.91752	0.66181	0.00077	-0.093
Mof_C 	C 	0.93983	0.5722	0.05746	0.089
Mof_H 	H 	0.9323	0.5251	0.0776	-0.012
Mof_N 	N 	0.87818	0.59165	0.01715	-0.104
Mof_C 	C 	0.99832	0.68125	0.0308	0.081
Mof_H 	H 	0.0382	0.7277	0.0268	-0.004
Mof_C 	C 	0.86628	0.70815	0.95869	-0.056
Mof_H 	H 	0.8268	0.6728	0.9345	0.045
Mof_H 	H 	0.9193	0.7353	0.9366	0.043
Mof_C 	C 	0.7931	0.76834	0.98311	-0.039
Mof_H 	H 	0.7617	0.7995	0.9536	0.032
Mof_H 	H 	0.8335	0.8046	0.0062	0.027
Mof_C 	C 	0.0045	0.9799	0.0249	-0.038
Mof_H 	H 	0.9741	0.013	0.0537	0.028
Mof_H 	H 	0.9629	0.9313	0.0228	0.028
Mof_N 	N 	0.51501	0.12419	0.18262	-0.241
Mof_N 	N 	0.41752	0.08819	0.24923	-0.093
Mof_C 	C 	0.43983	0.1778	0.19254	0.09
Mof_H 	H 	0.4323	0.2249	0.1724	-0.012
Mof_N 	N 	0.37818	0.15835	0.23285	-0.104
Mof_C 	C 	0.49832	0.06875	0.2192	0.082
Mof_H 	H 	0.5382	0.0223	0.2232	-0.004
Mof_C 	C 	0.36628	0.04185	0.29131	-0.056
Mof_H 	H 	0.3268	0.0772	0.3155	0.045
Mof_H 	H 	0.4193	0.0147	0.3134	0.043
Mof_C 	C 	0.2931	0.98166	0.26689	-0.038
Mof_H 	H 	0.2617	0.9505	0.2964	0.031
Mof_H 	H 	0.3335	0.9454	0.2438	0.026
Mof_C 	C 	0.5045	0.7701	0.2251	-0.039
Mof_H 	H 	0.4741	0.737	0.1963	0.028
Mof_H 	H 	0.4629	0.8187	0.2272	0.028
Mof_N 	N 	0.51501	0.62419	0.68262	-0.241
Mof_N 	N 	0.41752	0.58819	0.74923	-0.093
Mof_C 	C 	0.43983	0.6778	0.69254	0.09
Mof_H 	H 	0.4323	0.7249	0.6724	-0.012
Mof_N 	N 	0.37818	0.65835	0.73285	-0.104
Mof_C 	C 	0.49832	0.56875	0.7192	0.082
Mof_H 	H 	0.5382	0.5223	0.7232	-0.004
Mof_C 	C 	0.36628	0.54185	0.79131	-0.056
Mof_H 	H 	0.3268	0.5772	0.8155	0.045
Mof_H 	H 	0.4193	0.5147	0.8134	0.043
Mof_C 	C 	0.2931	0.48166	0.76689	-0.038
Mof_H 	H 	0.2617	0.4505	0.7964	0.032
Mof_H 	H 	0.3335	0.4454	0.7438	0.027
Mof_C 	C 	0.5045	0.2701	0.7251	-0.039
Mof_H 	H 	0.4741	0.237	0.6963	0.028
Mof_H 	H 	0.4629	0.3187	0.7272	0.028
Mof_N 	N 	0.01501	0.12419	0.68262	-0.241
Mof_N 	N 	0.91752	0.08819	0.74923	-0.093
Mof_C 	C 	0.93983	0.1778	0.69254	0.09
Mof_H 	H 	0.9323	0.2249	0.6724	-0.012
Mof_N 	N 	0.87818	0.15835	0.73285	-0.104
Mof_C 	C 	0.99832	0.06875	0.7192	0.082
Mof_H 	H 	0.0382	0.0223	0.7232	-0.005
Mof_C 	C 	0.86628	0.04185	0.79131	-0.056
Mof_H 	H 	0.8268	0.0772	0.8155	0.045
Mof_H 	H 	0.9193	0.0147	0.8134	0.043
Mof_C 	C 	0.7931	0.98166	0.76689	-0.039
Mof_H 	H 	0.7617	0.9505	0.7964	0.032
Mof_H 	H 	0.8335	0.9454	0.7438	0.027
Mof_C 	C 	0.0045	0.7701	0.7251	-0.038
Mof_H 	H 	0.9741	0.737	0.6963	0.028
Mof_H 	H 	0.9629	0.8187	0.7272	0.028
Mof_N 	N 	0.01501	0.62419	0.18262	-0.241
Mof_N 	N 	0.91752	0.58819	0.24923	-0.093
Mof_C 	C 	0.93983	0.6778	0.19254	0.09
Mof_H 	H 	0.9323	0.7249	0.1724	-0.012
Mof_N 	N 	0.87818	0.65835	0.23285	-0.104
Mof_C 	C 	0.99832	0.56875	0.2192	0.082
Mof_H 	H 	0.0382	0.5223	0.2232	-0.004
Mof_C 	C 	0.86628	0.54185	0.29131	-0.056
Mof_H 	H 	0.8268	0.5772	0.3155	0.045
Mof_H 	H 	0.9193	0.5147	0.3134	0.043
Mof_C 	C 	0.7931	0.48166	0.26689	-0.038
Mof_H 	H 	0.7617	0.4505	0.2964	0.032
Mof_H 	H 	0.8335	0.4454	0.2438	0.027
Mof_C 	C 	0.0045	0.2701	0.2251	-0.039
Mof_H 	H 	0.9741	0.237	0.1963	0.028
Mof_H 	H 	0.9629	0.3187	0.2272	0.028
Mof_N 	N 	0.73499	0.12581	0.18262	-0.241
Mof_N 	N 	0.83248	0.16181	0.24923	-0.093
Mof_C 	C 	0.81017	0.0722	0.19254	0.09
Mof_H 	H 	0.8177	0.0251	0.1724	-0.012
Mof_N 	N 	0.87182	0.09165	0.23285	-0.104
Mof_C 	C 	0.75168	0.18125	0.2192	0.082
Mof_H 	H 	0.7118	0.2277	0.2232	-0.004
Mof_C 	C 	0.88372	0.20815	0.29131	-0.056
Mof_H 	H 	0.9232	0.1728	0.3155	0.045
Mof_H 	H 	0.8307	0.2353	0.3134	0.043
Mof_C 	C 	0.9569	0.26834	0.26689	-0.039
Mof_H 	H 	0.9883	0.2995	0.2964	0.032
Mof_H 	H 	0.9165	0.3046	0.2438	0.027
Mof_C 	C 	0.7455	0.4799	0.2251	-0.039
Mof_H 	H 	0.7759	0.513	0.1963	0.028
Mof_H 	H 	0.7871	0.4313	0.2272	0.028
Mof_N 	N 	0.73499	0.62581	0.68262	-0.241
Mof_N 	N 	0.83248	0.66181	0.74923	-0.093
Mof_C 	C 	0.81017	0.5722	0.69254	0.09
Mof_H 	H 	0.8177	0.5251	0.6724	-0.012
Mof_N 	N 	0.87182	0.59165	0.73285	-0.104
Mof_C 	C 	0.75168	0.68125	0.7192	0.082
Mof_H 	H 	0.7118	0.7277	0.7232	-0.004
Mof_C 	C 	0.88372	0.70815	0.79131	-0.056
Mof_H 	H 	0.9232	0.6728	0.8155	0.045
Mof_H 	H 	0.8307	0.7353	0.8134	0.043
Mof_C 	C 	0.9569	0.76834	0.76689	-0.038
Mof_H 	H 	0.9883	0.7995	0.7964	0.031
Mof_H 	H 	0.9165	0.8046	0.7438	0.027
Mof_C 	C 	0.7455	0.9799	0.7251	-0.04
Mof_H 	H 	0.7759	0.013	0.6963	0.029
Mof_H 	H 	0.7871	0.9313	0.7272	0.028
Mof_N 	N 	0.23499	0.12581	0.68262	-0.241
Mof_N 	N 	0.33248	0.16181	0.74923	-0.093
Mof_C 	C 	0.31017	0.0722	0.69254	0.09
Mof_H 	H 	0.3177	0.0251	0.6724	-0.012
Mof_N 	N 	0.37182	0.09165	0.73285	-0.104
Mof_C 	C 	0.25168	0.18125	0.7192	0.082
Mof_H 	H 	0.2118	0.2277	0.7232	-0.004
Mof_C 	C 	0.38372	0.20815	0.79131	-0.056
Mof_H 	H 	0.4232	0.1728	0.8155	0.045
Mof_H 	H 	0.3307	0.2353	0.8134	0.043
Mof_C 	C 	0.4569	0.26834	0.76689	-0.038
Mof_H 	H 	0.4883	0.2995	0.7964	0.032
Mof_H 	H 	0.4165	0.3046	0.7438	0.027
Mof_C 	C 	0.2455	0.4799	0.7251	-0.039
Mof_H 	H 	0.2759	0.513	0.6963	0.028
Mof_H 	H 	0.2871	0.4313	0.7272	0.028
Mof_N 	N 	0.23499	0.62581	0.18262	-0.241
Mof_N 	N 	0.33248	0.66181	0.24923	-0.093
Mof_C 	C 	0.31017	0.5722	0.19254	0.09
Mof_H 	H 	0.3177	0.5251	0.1724	-0.012
Mof_N 	N 	0.37182	0.59165	0.23285	-0.104
Mof_C 	C 	0.25168	0.68125	0.2192	0.082
Mof_H 	H 	0.2118	0.7277	0.2232	-0.004
Mof_C 	C 	0.38372	0.70815	0.29131	-0.056
Mof_H 	H 	0.4232	0.6728	0.3155	0.045
Mof_H 	H 	0.3307	0.7353	0.3134	0.043
Mof_C 	C 	0.4569	0.76834	0.26689	-0.038
Mof_H 	H 	0.4883	0.7995	0.2964	0.032
Mof_H 	H 	0.4165	0.8046	0.2438	0.027
Mof_C 	C 	0.2455	0.9799	0.2251	-0.038
Mof_H 	H 	0.2759	0.013	0.1963	0.028
Mof_H 	H 	0.2871	0.9313	0.2272	0.028
Mof_Cu	Cu	0.375	0.875	0.875	0.854
Mof_Cu	Cu	0.375	0.375	0.375	0.854
Mof_Cu	Cu	0.875	0.875	0.375	0.854
Mof_Cu	Cu	0.875	0.375	0.875	0.854
Mof_Cu	Cu	0.625	0.125	0.125	0.854
Mof_Cu	Cu	0.625	0.625	0.625	0.854
Mof_Cu	Cu	0.125	0.125	0.625	0.854
Mof_Cu	Cu	0.125	0.625	0.125	0.854
_end
