data_functionalizedCrystal
_audit_creation_method	'EQeq! by Chris Wilmer'
_symmetry_space_group_name_H-M	'P1'
_symmetry_Int_Tables_number	1
_symmetry_cell_setting	triclinic
loop_
_symmetry_equiv_pos_as_xyz
  x,y,z
_cell_length_a	7.9341
_cell_length_b	11.55
_cell_length_c	18.1157
_cell_angle_alpha	90
_cell_angle_beta	90
_cell_angle_gamma	90
loop_
_atom_site_label
_atom_site_type_symbol
_atom_site_fract_x
_atom_site_fract_y
_atom_site_fract_z
_atom_site_charge
Mof_C 	C 	0.305	0.9275	0.26843	0.158
Mof_C 	C 	0.3874	0.8211	0.264	-0.194
Mof_H 	H 	0.4248	0.7838	0.3078	0.073
Mof_C 	C 	0.4148	0.7696	0.19625	0.059
Mof_H 	H 	0.473	0.6978	0.1937	-0.021
Mof_C 	C 	0.3584	0.8214	0.13208	-0.11
Mof_C 	C 	0.2749	0.9276	0.1366	0.035
Mof_H 	H 	0.2356	0.9641	0.0929	0.035
Mof_C 	C 	0.2491	0.98	0.2041	-0.13
Mof_H 	H 	0.1926	0.0524	0.2065	0.043
Mof_C 	C 	0.3848	0.7707	0.05919	0.188
Mof_N 	N 	0.2735	0.9823	0.33691	-0.441
Mof_H 	H 	0.29	0.05	0.333	0.162
Mof_H 	H 	0.317	0.955	0.368	0.209
Mof_N 	N 	0.4382	0.6696	0.03904	-0.181
Mof_C 	C 	0.695	0.0725	0.26843	0.23
Mof_C 	C 	0.6126	0.1789	0.264	-0.242
Mof_H 	H 	0.5752	0.2162	0.3078	0.094
Mof_C 	C 	0.5852	0.2304	0.19625	0.109
Mof_H 	H 	0.527	0.3022	0.1937	-0.036
Mof_C 	C 	0.6416	0.1786	0.13208	-0.156
Mof_C 	C 	0.7251	0.0724	0.1366	0.123
Mof_H 	H 	0.7644	0.0359	0.0929	0.005
Mof_C 	C 	0.7509	0.02	0.2041	-0.271
Mof_H 	H 	0.8074	0.9476	0.2065	0.132
Mof_C 	C 	0.6152	0.2293	0.05919	0.206
Mof_N 	N 	0.7265	0.0177	0.33691	-0.514
Mof_H 	H 	0.71	0.95	0.333	0.221
Mof_H 	H 	0.683	0.045	0.368	0.232
Mof_N 	N 	0.5618	0.3304	0.03904	-0.184
Mof_C 	C 	0.695	0.0725	0.73157	0.228
Mof_C 	C 	0.6126	0.1789	0.736	-0.239
Mof_H 	H 	0.5752	0.2162	0.6922	0.093
Mof_C 	C 	0.5852	0.2304	0.80375	0.104
Mof_H 	H 	0.527	0.3022	0.8063	-0.034
Mof_C 	C 	0.6416	0.1786	0.86792	-0.151
Mof_C 	C 	0.7251	0.0724	0.8634	0.118
Mof_H 	H 	0.7644	0.0359	0.9071	-0.004
Mof_C 	C 	0.7509	0.02	0.7959	-0.27
Mof_H 	H 	0.8074	0.9476	0.7935	0.13
Mof_C 	C 	0.6152	0.2293	0.94081	0.178
Mof_N 	N 	0.7265	0.0177	0.66309	-0.514
Mof_H 	H 	0.71	0.95	0.667	0.221
Mof_H 	H 	0.683	0.045	0.632	0.232
Mof_N 	N 	0.5618	0.3304	0.96096	-0.202
Mof_C 	C 	0.305	0.9275	0.73157	0.157
Mof_C 	C 	0.3874	0.8211	0.736	-0.19
Mof_H 	H 	0.4248	0.7838	0.6922	0.073
Mof_C 	C 	0.4148	0.7696	0.80375	0.054
Mof_H 	H 	0.473	0.6978	0.8063	-0.018
Mof_C 	C 	0.3584	0.8214	0.86792	-0.106
Mof_C 	C 	0.2749	0.9276	0.8634	0.031
Mof_H 	H 	0.2356	0.9641	0.9071	0.026
Mof_C 	C 	0.2491	0.98	0.7959	-0.129
Mof_H 	H 	0.1926	0.0524	0.7935	0.041
Mof_C 	C 	0.3848	0.7707	0.94081	0.16
Mof_N 	N 	0.2735	0.9823	0.66309	-0.44
Mof_H 	H 	0.29	0.05	0.667	0.162
Mof_H 	H 	0.317	0.955	0.632	0.208
Mof_N 	N 	0.4382	0.6696	0.96096	-0.199
Mof_Ag	Ag	0.5	0.5	0.09898	0.527
Mof_Ag	Ag	0.5	0.5	0.90102	0.493
Mof_O 	O 	0.35	0.839	-0	-0.238
Mof_O 	O 	0.65	0.161	-0	-0.246
Mof_C 	C 	0.195	0.4275	0.23157	0.183
Mof_C 	C 	0.1126	0.3211	0.236	-0.219
Mof_H 	H 	0.0752	0.2838	0.1922	0.073
Mof_C 	C 	0.0852	0.2696	0.30375	0.078
Mof_H 	H 	0.027	0.1978	0.3063	-0.033
Mof_C 	C 	0.1416	0.3214	0.36792	-0.138
Mof_C 	C 	0.2251	0.4276	0.3634	0.077
Mof_H 	H 	0.2644	0.4641	0.4071	0.013
Mof_C 	C 	0.2509	0.48	0.2959	-0.208
Mof_H 	H 	0.3074	0.5524	0.2935	0.085
Mof_C 	C 	0.1152	0.2707	0.44081	0.193
Mof_N 	N 	0.2265	0.4823	0.16309	-0.476
Mof_H 	H 	0.21	0.55	0.167	0.179
Mof_H 	H 	0.183	0.455	0.132	0.205
Mof_N 	N 	0.0618	0.1696	0.46096	-0.191
Mof_C 	C 	0.805	0.5725	0.23157	0.205
Mof_C 	C 	0.8874	0.6789	0.236	-0.215
Mof_H 	H 	0.9248	0.7162	0.1922	0.094
Mof_C 	C 	0.9148	0.7304	0.30375	0.086
Mof_H 	H 	0.973	0.8022	0.3063	-0.01
Mof_C 	C 	0.8584	0.6786	0.36792	-0.126
Mof_C 	C 	0.7749	0.5724	0.3634	0.086
Mof_H 	H 	0.7356	0.5359	0.4071	0.019
Mof_C 	C 	0.7491	0.52	0.2959	-0.206
Mof_H 	H 	0.6926	0.4476	0.2935	0.094
Mof_C 	C 	0.8848	0.7293	0.44081	0.203
Mof_N 	N 	0.7735	0.5177	0.16309	-0.498
Mof_H 	H 	0.79	0.45	0.167	0.203
Mof_H 	H 	0.817	0.545	0.132	0.231
Mof_N 	N 	0.9382	0.8304	0.46096	-0.167
Mof_C 	C 	0.805	0.5725	0.76843	0.201
Mof_C 	C 	0.8874	0.6789	0.764	-0.211
Mof_H 	H 	0.9248	0.7162	0.8078	0.09
Mof_C 	C 	0.9148	0.7304	0.69625	0.084
Mof_H 	H 	0.973	0.8022	0.6937	-0.009
Mof_C 	C 	0.8584	0.6786	0.63208	-0.125
Mof_C 	C 	0.7749	0.5724	0.6366	0.084
Mof_H 	H 	0.7356	0.5359	0.5929	0.019
Mof_C 	C 	0.7491	0.52	0.7041	-0.204
Mof_H 	H 	0.6926	0.4476	0.7065	0.093
Mof_C 	C 	0.8848	0.7293	0.55919	0.202
Mof_N 	N 	0.7735	0.5177	0.83691	-0.491
Mof_H 	H 	0.79	0.45	0.833	0.199
Mof_H 	H 	0.817	0.545	0.868	0.222
Mof_N 	N 	0.9382	0.8304	0.53904	-0.167
Mof_C 	C 	0.195	0.4275	0.76843	0.179
Mof_C 	C 	0.1126	0.3211	0.764	-0.215
Mof_H 	H 	0.0752	0.2838	0.8078	0.069
Mof_C 	C 	0.0852	0.2696	0.69625	0.075
Mof_H 	H 	0.027	0.1978	0.6937	-0.032
Mof_C 	C 	0.1416	0.3214	0.63208	-0.136
Mof_C 	C 	0.2251	0.4276	0.6366	0.075
Mof_H 	H 	0.2644	0.4641	0.5929	0.014
Mof_C 	C 	0.2509	0.48	0.7041	-0.205
Mof_H 	H 	0.3074	0.5524	0.7065	0.085
Mof_C 	C 	0.1152	0.2707	0.55919	0.192
Mof_N 	N 	0.2265	0.4823	0.83691	-0.469
Mof_H 	H 	0.21	0.55	0.833	0.175
Mof_H 	H 	0.183	0.455	0.868	0.196
Mof_N 	N 	0.0618	0.1696	0.53904	-0.19
Mof_Ag	Ag	3.43309e-33	7.60301e-33	0.40102	0.411
Mof_Ag	Ag	5.1278e-33	7.60301e-33	0.59898	0.411
Mof_O 	O 	0.15	0.339	0.5	-0.271
Mof_O 	O 	0.85	0.661	0.5	-0.261
_end
