data_functionalizedCrystal
_audit_creation_method	'EQeq! by Chris Wilmer'
_symmetry_space_group_name_H-M	'P1'
_symmetry_Int_Tables_number	1
_symmetry_cell_setting	triclinic
loop_
_symmetry_equiv_pos_as_xyz
  x,y,z
_cell_length_a	19.959
_cell_length_b	46.019
_cell_length_c	16.271
_cell_angle_alpha	90
_cell_angle_beta	90
_cell_angle_gamma	90
loop_
_atom_site_label
_atom_site_type_symbol
_atom_site_fract_x
_atom_site_fract_y
_atom_site_fract_z
_atom_site_charge
Mof_Mn	Mn	0.23948	0.61869	0.88749	1.052
Mof_O 	O 	0.31522	0.55219	0.90033	-0.323
Mof_O 	O 	0.24155	0.57698	0.82539	-0.367
Mof_O 	O 	0.62521	0.88046	0.889	-0.288
Mof_O 	O 	0.32208	0.63446	0.8159	-0.352
Mof_O 	O 	0.37868	0.6119	0.9123	-0.356
Mof_O 	O 	0.67782	0.85613	0.7939	-0.296
Mof_O 	O 	0.2454	0.66305	0.9389	-0.528
Mof_C 	C 	0.24598	0.52637	0.8108	-0.065
Mof_C 	C 	0.44002	0.65637	0.7465	-0.059
Mof_H 	H 	0.3987	0.6628	0.724	0.071
Mof_C 	C 	0.19899	0.52614	0.7462	-0.051
Mof_H 	H 	0.1842	0.544	0.7231	0.065
Mof_C 	C 	0.44004	0.63662	0.8113	-0.057
Mof_C 	C 	0.55958	0.85068	0.7983	0.001
Mof_C 	C 	0.2697	0.55423	0.8479	0.376
Mof_C 	C 	0.55944	0.82909	0.7419	-0.103
Mof_H 	H 	0.6008	0.8221	0.7209	0.083
Mof_C 	C 	0.3752	0.62657	0.8492	0.369
Mof_C 	C 	0.6253	0.86317	0.8308	0.284
Mof_Mn	Mn	0.73948	0.11869	0.88749	1.053
Mof_O 	O 	0.81522	0.05219	0.90033	-0.324
Mof_O 	O 	0.74155	0.07698	0.82539	-0.367
Mof_O 	O 	0.12521	0.38046	0.889	-0.288
Mof_O 	O 	0.82208	0.13446	0.8159	-0.352
Mof_O 	O 	0.87868	0.1119	0.9123	-0.357
Mof_O 	O 	0.17782	0.35613	0.7939	-0.296
Mof_O 	O 	0.7454	0.16305	0.9389	-0.529
Mof_C 	C 	0.74598	0.02637	0.8108	-0.065
Mof_C 	C 	0.94002	0.15637	0.7465	-0.063
Mof_H 	H 	0.8987	0.1628	0.724	0.071
Mof_C 	C 	0.69899	0.02614	0.7462	-0.051
Mof_H 	H 	0.6842	0.044	0.7231	0.065
Mof_C 	C 	0.94004	0.13662	0.8113	-0.062
Mof_C 	C 	0.05958	0.35068	0.7983	0.001
Mof_C 	C 	0.7697	0.05423	0.8479	0.376
Mof_C 	C 	0.05944	0.32909	0.7419	-0.104
Mof_H 	H 	0.1008	0.3221	0.7209	0.084
Mof_C 	C 	0.8752	0.12657	0.8492	0.37
Mof_C 	C 	0.1253	0.36317	0.8308	0.285
Mof_Mn	Mn	0.76052	0.38131	0.88749	1.052
Mof_O 	O 	0.68478	0.44781	0.90033	-0.323
Mof_O 	O 	0.75845	0.42302	0.82539	-0.367
Mof_O 	O 	0.37479	0.11954	0.889	-0.288
Mof_O 	O 	0.67792	0.36554	0.8159	-0.352
Mof_O 	O 	0.62132	0.3881	0.9123	-0.356
Mof_O 	O 	0.32218	0.14387	0.7939	-0.296
Mof_O 	O 	0.7546	0.33695	0.9389	-0.529
Mof_C 	C 	0.75402	0.47363	0.8108	-0.065
Mof_C 	C 	0.55998	0.34363	0.7465	-0.059
Mof_H 	H 	0.6013	0.3372	0.724	0.07
Mof_C 	C 	0.80101	0.47386	0.7462	-0.051
Mof_H 	H 	0.8158	0.456	0.7231	0.064
Mof_C 	C 	0.55996	0.36338	0.8113	-0.058
Mof_C 	C 	0.44042	0.14932	0.7983	0.001
Mof_C 	C 	0.7303	0.44577	0.8479	0.376
Mof_C 	C 	0.44056	0.17091	0.7419	-0.103
Mof_H 	H 	0.3992	0.1779	0.7209	0.083
Mof_C 	C 	0.6248	0.37343	0.8492	0.369
Mof_C 	C 	0.3747	0.13683	0.8308	0.284
Mof_Mn	Mn	0.26052	0.88131	0.88749	1.053
Mof_O 	O 	0.18478	0.94781	0.90033	-0.323
Mof_O 	O 	0.25845	0.92302	0.82539	-0.367
Mof_O 	O 	0.87479	0.61954	0.889	-0.289
Mof_O 	O 	0.17792	0.86554	0.8159	-0.352
Mof_O 	O 	0.12132	0.8881	0.9123	-0.356
Mof_O 	O 	0.82218	0.64387	0.7939	-0.296
Mof_O 	O 	0.2546	0.83695	0.9389	-0.528
Mof_C 	C 	0.25402	0.97363	0.8108	-0.065
Mof_C 	C 	0.05998	0.84363	0.7465	-0.059
Mof_H 	H 	0.1013	0.8372	0.724	0.071
Mof_C 	C 	0.30101	0.97386	0.7462	-0.052
Mof_H 	H 	0.3158	0.956	0.7231	0.065
Mof_C 	C 	0.05996	0.86338	0.8113	-0.059
Mof_C 	C 	0.94042	0.64932	0.7983	-0.003
Mof_C 	C 	0.2303	0.94577	0.8479	0.376
Mof_C 	C 	0.94056	0.67091	0.7419	-0.108
Mof_H 	H 	0.8992	0.6779	0.7209	0.084
Mof_C 	C 	0.1248	0.87343	0.8492	0.37
Mof_C 	C 	0.8747	0.63683	0.8308	0.285
Mof_Mn	Mn	0.76052	0.61869	0.11251	0.986
Mof_O 	O 	0.68478	0.55219	0.09967	-0.372
Mof_O 	O 	0.75845	0.57698	0.17461	-0.374
Mof_O 	O 	0.37479	0.88046	0.111	-0.328
Mof_O 	O 	0.67792	0.63446	0.1841	-0.356
Mof_O 	O 	0.62132	0.6119	0.0877	-0.411
Mof_O 	O 	0.32218	0.85613	0.2061	-0.299
Mof_O 	O 	0.7546	0.66305	0.0611	-0.606
Mof_C 	C 	0.75402	0.52637	0.1892	-0.087
Mof_C 	C 	0.55998	0.65637	0.2535	-0.049
Mof_H 	H 	0.6013	0.6628	0.276	0.063
Mof_C 	C 	0.80101	0.52614	0.2538	-0.045
Mof_H 	H 	0.8158	0.544	0.2769	0.06
Mof_C 	C 	0.55996	0.63662	0.1887	-0.084
Mof_C 	C 	0.44042	0.85068	0.2017	-0.024
Mof_C 	C 	0.7303	0.55423	0.1521	0.378
Mof_C 	C 	0.44056	0.82909	0.2581	-0.093
Mof_H 	H 	0.3992	0.8221	0.2791	0.075
Mof_C 	C 	0.6248	0.62657	0.1508	0.379
Mof_C 	C 	0.3747	0.86317	0.1692	0.291
Mof_Mn	Mn	0.26052	0.11869	0.11251	0.986
Mof_O 	O 	0.18478	0.05219	0.09967	-0.371
Mof_O 	O 	0.25845	0.07698	0.17461	-0.374
Mof_O 	O 	0.87479	0.38046	0.111	-0.329
Mof_O 	O 	0.17792	0.13446	0.1841	-0.356
Mof_O 	O 	0.12132	0.1119	0.0877	-0.411
Mof_O 	O 	0.82218	0.35613	0.2061	-0.299
Mof_O 	O 	0.2546	0.16305	0.0611	-0.605
Mof_C 	C 	0.25402	0.02637	0.1892	-0.086
Mof_C 	C 	0.05998	0.15637	0.2535	-0.049
Mof_H 	H 	0.1013	0.1628	0.276	0.064
Mof_C 	C 	0.30101	0.02614	0.2538	-0.046
Mof_H 	H 	0.3158	0.044	0.2769	0.06
Mof_C 	C 	0.05996	0.13662	0.1887	-0.085
Mof_C 	C 	0.94042	0.35068	0.2017	-0.027
Mof_C 	C 	0.2303	0.05423	0.1521	0.378
Mof_C 	C 	0.94056	0.32909	0.2581	-0.098
Mof_H 	H 	0.8992	0.3221	0.2791	0.076
Mof_C 	C 	0.1248	0.12657	0.1508	0.379
Mof_C 	C 	0.8747	0.36317	0.1692	0.291
Mof_Mn	Mn	0.23948	0.38131	0.11251	0.986
Mof_O 	O 	0.31522	0.44781	0.09967	-0.372
Mof_O 	O 	0.24155	0.42302	0.17461	-0.374
Mof_O 	O 	0.62521	0.11954	0.111	-0.328
Mof_O 	O 	0.32208	0.36554	0.1841	-0.356
Mof_O 	O 	0.37868	0.3881	0.0877	-0.411
Mof_O 	O 	0.67782	0.14387	0.2061	-0.299
Mof_O 	O 	0.2454	0.33695	0.0611	-0.605
Mof_C 	C 	0.24598	0.47363	0.1892	-0.086
Mof_C 	C 	0.44002	0.34363	0.2535	-0.049
Mof_H 	H 	0.3987	0.3372	0.276	0.063
Mof_C 	C 	0.19899	0.47386	0.2538	-0.045
Mof_H 	H 	0.1842	0.456	0.2769	0.06
Mof_C 	C 	0.44004	0.36338	0.1887	-0.084
Mof_C 	C 	0.55958	0.14932	0.2017	-0.024
Mof_C 	C 	0.2697	0.44577	0.1521	0.378
Mof_C 	C 	0.55944	0.17091	0.2581	-0.093
Mof_H 	H 	0.6008	0.1779	0.2791	0.075
Mof_C 	C 	0.3752	0.37343	0.1508	0.379
Mof_C 	C 	0.6253	0.13683	0.1692	0.291
Mof_Mn	Mn	0.73948	0.88131	0.11251	0.986
Mof_O 	O 	0.81522	0.94781	0.09967	-0.372
Mof_O 	O 	0.74155	0.92302	0.17461	-0.374
Mof_O 	O 	0.12521	0.61954	0.111	-0.328
Mof_O 	O 	0.82208	0.86554	0.1841	-0.357
Mof_O 	O 	0.87868	0.8881	0.0877	-0.412
Mof_O 	O 	0.17782	0.64387	0.2061	-0.299
Mof_O 	O 	0.7454	0.83695	0.0611	-0.606
Mof_C 	C 	0.74598	0.97363	0.1892	-0.087
Mof_C 	C 	0.94002	0.84363	0.2535	-0.053
Mof_H 	H 	0.8987	0.8372	0.276	0.064
Mof_C 	C 	0.69899	0.97386	0.2538	-0.046
Mof_H 	H 	0.6842	0.956	0.2769	0.06
Mof_C 	C 	0.94004	0.86338	0.1887	-0.088
Mof_C 	C 	0.05958	0.64932	0.2017	-0.024
Mof_C 	C 	0.7697	0.94577	0.1521	0.378
Mof_C 	C 	0.05944	0.67091	0.2581	-0.094
Mof_H 	H 	0.1008	0.6779	0.2791	0.076
Mof_C 	C 	0.8752	0.87343	0.1508	0.38
Mof_C 	C 	0.1253	0.63683	0.1692	0.291
Mof_Mn	Mn	0.76052	0.38131	0.11251	0.986
Mof_O 	O 	0.68478	0.44781	0.09967	-0.372
Mof_O 	O 	0.75845	0.42302	0.17461	-0.374
Mof_O 	O 	0.37479	0.11954	0.111	-0.328
Mof_O 	O 	0.67792	0.36554	0.1841	-0.356
Mof_O 	O 	0.62132	0.3881	0.0877	-0.411
Mof_O 	O 	0.32218	0.14387	0.2061	-0.299
Mof_O 	O 	0.7546	0.33695	0.0611	-0.606
Mof_C 	C 	0.75402	0.47363	0.1892	-0.087
Mof_C 	C 	0.55998	0.34363	0.2535	-0.049
Mof_H 	H 	0.6013	0.3372	0.276	0.063
Mof_C 	C 	0.80101	0.47386	0.2538	-0.045
Mof_H 	H 	0.8158	0.456	0.2769	0.06
Mof_C 	C 	0.55996	0.36338	0.1887	-0.084
Mof_C 	C 	0.44042	0.14932	0.2017	-0.024
Mof_C 	C 	0.7303	0.44577	0.1521	0.378
Mof_C 	C 	0.44056	0.17091	0.2581	-0.093
Mof_H 	H 	0.3992	0.1779	0.2791	0.075
Mof_C 	C 	0.6248	0.37343	0.1508	0.379
Mof_C 	C 	0.3747	0.13683	0.1692	0.291
Mof_Mn	Mn	0.26052	0.88131	0.11251	0.986
Mof_O 	O 	0.18478	0.94781	0.09967	-0.372
Mof_O 	O 	0.25845	0.92302	0.17461	-0.374
Mof_O 	O 	0.87479	0.61954	0.111	-0.329
Mof_O 	O 	0.17792	0.86554	0.1841	-0.356
Mof_O 	O 	0.12132	0.8881	0.0877	-0.411
Mof_O 	O 	0.82218	0.64387	0.2061	-0.299
Mof_O 	O 	0.2546	0.83695	0.0611	-0.605
Mof_C 	C 	0.25402	0.97363	0.1892	-0.087
Mof_C 	C 	0.05998	0.84363	0.2535	-0.049
Mof_H 	H 	0.1013	0.8372	0.276	0.064
Mof_C 	C 	0.30101	0.97386	0.2538	-0.046
Mof_H 	H 	0.3158	0.956	0.2769	0.06
Mof_C 	C 	0.05996	0.86338	0.1887	-0.085
Mof_C 	C 	0.94042	0.64932	0.2017	-0.027
Mof_C 	C 	0.2303	0.94577	0.1521	0.378
Mof_C 	C 	0.94056	0.67091	0.2581	-0.098
Mof_H 	H 	0.8992	0.6779	0.2791	0.076
Mof_C 	C 	0.1248	0.87343	0.1508	0.379
Mof_C 	C 	0.8747	0.63683	0.1692	0.291
Mof_Mn	Mn	0.23948	0.61869	0.11251	0.986
Mof_O 	O 	0.31522	0.55219	0.09967	-0.372
Mof_O 	O 	0.24155	0.57698	0.17461	-0.374
Mof_O 	O 	0.62521	0.88046	0.111	-0.328
Mof_O 	O 	0.32208	0.63446	0.1841	-0.356
Mof_O 	O 	0.37868	0.6119	0.0877	-0.411
Mof_O 	O 	0.67782	0.85613	0.2061	-0.299
Mof_O 	O 	0.2454	0.66305	0.0611	-0.605
Mof_C 	C 	0.24598	0.52637	0.1892	-0.086
Mof_C 	C 	0.44002	0.65637	0.2535	-0.049
Mof_H 	H 	0.3987	0.6628	0.276	0.063
Mof_C 	C 	0.19899	0.52614	0.2538	-0.045
Mof_H 	H 	0.1842	0.544	0.2769	0.06
Mof_C 	C 	0.44004	0.63662	0.1887	-0.084
Mof_C 	C 	0.55958	0.85068	0.2017	-0.024
Mof_C 	C 	0.2697	0.55423	0.1521	0.378
Mof_C 	C 	0.55944	0.82909	0.2581	-0.093
Mof_H 	H 	0.6008	0.8221	0.2791	0.075
Mof_C 	C 	0.3752	0.62657	0.1508	0.379
Mof_C 	C 	0.6253	0.86317	0.1692	0.291
Mof_Mn	Mn	0.73948	0.11869	0.11251	0.986
Mof_O 	O 	0.81522	0.05219	0.09967	-0.372
Mof_O 	O 	0.74155	0.07698	0.17461	-0.374
Mof_O 	O 	0.12521	0.38046	0.111	-0.328
Mof_O 	O 	0.82208	0.13446	0.1841	-0.357
Mof_O 	O 	0.87868	0.1119	0.0877	-0.412
Mof_O 	O 	0.17782	0.35613	0.2061	-0.299
Mof_O 	O 	0.7454	0.16305	0.0611	-0.606
Mof_C 	C 	0.74598	0.02637	0.1892	-0.087
Mof_C 	C 	0.94002	0.15637	0.2535	-0.053
Mof_H 	H 	0.8987	0.1628	0.276	0.064
Mof_C 	C 	0.69899	0.02614	0.2538	-0.046
Mof_H 	H 	0.6842	0.044	0.2769	0.06
Mof_C 	C 	0.94004	0.13662	0.1887	-0.088
Mof_C 	C 	0.05958	0.35068	0.2017	-0.024
Mof_C 	C 	0.7697	0.05423	0.1521	0.378
Mof_C 	C 	0.05944	0.32909	0.2581	-0.094
Mof_H 	H 	0.1008	0.3221	0.2791	0.076
Mof_C 	C 	0.8752	0.12657	0.1508	0.38
Mof_C 	C 	0.1253	0.36317	0.1692	0.291
Mof_Mn	Mn	0.23948	0.38131	0.88749	1.053
Mof_O 	O 	0.31522	0.44781	0.90033	-0.323
Mof_O 	O 	0.24155	0.42302	0.82539	-0.367
Mof_O 	O 	0.62521	0.11954	0.889	-0.288
Mof_O 	O 	0.32208	0.36554	0.8159	-0.352
Mof_O 	O 	0.37868	0.3881	0.9123	-0.356
Mof_O 	O 	0.67782	0.14387	0.7939	-0.296
Mof_O 	O 	0.2454	0.33695	0.9389	-0.528
Mof_C 	C 	0.24598	0.47363	0.8108	-0.065
Mof_C 	C 	0.44002	0.34363	0.7465	-0.059
Mof_H 	H 	0.3987	0.3372	0.724	0.071
Mof_C 	C 	0.19899	0.47386	0.7462	-0.051
Mof_H 	H 	0.1842	0.456	0.7231	0.065
Mof_C 	C 	0.44004	0.36338	0.8113	-0.057
Mof_C 	C 	0.55958	0.14932	0.7983	0.001
Mof_C 	C 	0.2697	0.44577	0.8479	0.376
Mof_C 	C 	0.55944	0.17091	0.7419	-0.103
Mof_H 	H 	0.6008	0.1779	0.7209	0.083
Mof_C 	C 	0.3752	0.37343	0.8492	0.369
Mof_C 	C 	0.6253	0.13683	0.8308	0.284
Mof_Mn	Mn	0.73948	0.88131	0.88749	1.052
Mof_O 	O 	0.81522	0.94781	0.90033	-0.324
Mof_O 	O 	0.74155	0.92302	0.82539	-0.367
Mof_O 	O 	0.12521	0.61954	0.889	-0.288
Mof_O 	O 	0.82208	0.86554	0.8159	-0.352
Mof_O 	O 	0.87868	0.8881	0.9123	-0.357
Mof_O 	O 	0.17782	0.64387	0.7939	-0.296
Mof_O 	O 	0.7454	0.83695	0.9389	-0.529
Mof_C 	C 	0.74598	0.97363	0.8108	-0.066
Mof_C 	C 	0.94002	0.84363	0.7465	-0.063
Mof_H 	H 	0.8987	0.8372	0.724	0.071
Mof_C 	C 	0.69899	0.97386	0.7462	-0.052
Mof_H 	H 	0.6842	0.956	0.7231	0.065
Mof_C 	C 	0.94004	0.86338	0.8113	-0.062
Mof_C 	C 	0.05958	0.64932	0.7983	0.001
Mof_C 	C 	0.7697	0.94577	0.8479	0.376
Mof_C 	C 	0.05944	0.67091	0.7419	-0.104
Mof_H 	H 	0.1008	0.6779	0.7209	0.084
Mof_C 	C 	0.8752	0.87343	0.8492	0.37
Mof_C 	C 	0.1253	0.63683	0.8308	0.285
Mof_Mn	Mn	0.76052	0.61869	0.88749	1.052
Mof_O 	O 	0.68478	0.55219	0.90033	-0.323
Mof_O 	O 	0.75845	0.57698	0.82539	-0.367
Mof_O 	O 	0.37479	0.88046	0.889	-0.288
Mof_O 	O 	0.67792	0.63446	0.8159	-0.352
Mof_O 	O 	0.62132	0.6119	0.9123	-0.356
Mof_O 	O 	0.32218	0.85613	0.7939	-0.296
Mof_O 	O 	0.7546	0.66305	0.9389	-0.529
Mof_C 	C 	0.75402	0.52637	0.8108	-0.065
Mof_C 	C 	0.55998	0.65637	0.7465	-0.059
Mof_H 	H 	0.6013	0.6628	0.724	0.07
Mof_C 	C 	0.80101	0.52614	0.7462	-0.051
Mof_H 	H 	0.8158	0.544	0.7231	0.064
Mof_C 	C 	0.55996	0.63662	0.8113	-0.058
Mof_C 	C 	0.44042	0.85068	0.7983	0.001
Mof_C 	C 	0.7303	0.55423	0.8479	0.376
Mof_C 	C 	0.44056	0.82909	0.7419	-0.103
Mof_H 	H 	0.3992	0.8221	0.7209	0.083
Mof_C 	C 	0.6248	0.62657	0.8492	0.369
Mof_C 	C 	0.3747	0.86317	0.8308	0.284
Mof_Mn	Mn	0.26052	0.11869	0.88749	1.053
Mof_O 	O 	0.18478	0.05219	0.90033	-0.323
Mof_O 	O 	0.25845	0.07698	0.82539	-0.367
Mof_O 	O 	0.87479	0.38046	0.889	-0.289
Mof_O 	O 	0.17792	0.13446	0.8159	-0.352
Mof_O 	O 	0.12132	0.1119	0.9123	-0.356
Mof_O 	O 	0.82218	0.35613	0.7939	-0.296
Mof_O 	O 	0.2546	0.16305	0.9389	-0.528
Mof_C 	C 	0.25402	0.02637	0.8108	-0.065
Mof_C 	C 	0.05998	0.15637	0.7465	-0.059
Mof_H 	H 	0.1013	0.1628	0.724	0.071
Mof_C 	C 	0.30101	0.02614	0.7462	-0.051
Mof_H 	H 	0.3158	0.044	0.7231	0.065
Mof_C 	C 	0.05996	0.13662	0.8113	-0.059
Mof_C 	C 	0.94042	0.35068	0.7983	-0.003
Mof_C 	C 	0.2303	0.05423	0.8479	0.376
Mof_C 	C 	0.94056	0.32909	0.7419	-0.108
Mof_H 	H 	0.8992	0.3221	0.7209	0.084
Mof_C 	C 	0.1248	0.12657	0.8492	0.37
Mof_C 	C 	0.8747	0.36317	0.8308	0.285
Mof_Mn	Mn	0.34677	0.57963	-0	0.915
Mof_O 	O 	0.24537	0.59666	-0	-0.512
Mof_O 	O 	0.44384	0.55806	-0	-0.359
Mof_C 	C 	0.2495	0.6718	-0	0.869
Mof_H 	H 	0.2588	0.6921	-0	-0.227
Mof_Mn	Mn	0.84677	0.07963	-0	0.916
Mof_O 	O 	0.74537	0.09666	-0	-0.511
Mof_O 	O 	0.94384	0.05806	-0	-0.363
Mof_C 	C 	0.7495	0.1718	-0	0.87
Mof_H 	H 	0.7588	0.1921	-0	-0.228
Mof_Mn	Mn	0.65323	0.42037	-0	0.915
Mof_O 	O 	0.75463	0.40334	-0	-0.512
Mof_O 	O 	0.55616	0.44194	-0	-0.359
Mof_C 	C 	0.7505	0.3282	-0	0.87
Mof_H 	H 	0.7412	0.3079	-0	-0.228
Mof_Mn	Mn	0.15323	0.92037	-0	0.916
Mof_O 	O 	0.25463	0.90334	-0	-0.512
Mof_O 	O 	0.05616	0.94194	-0	-0.36
Mof_C 	C 	0.2505	0.8282	-0	0.869
Mof_H 	H 	0.2412	0.8079	-0	-0.227
Mof_Mn	Mn	0.65323	0.57963	-0	0.915
Mof_O 	O 	0.75463	0.59666	-0	-0.512
Mof_O 	O 	0.55616	0.55806	-0	-0.359
Mof_C 	C 	0.7505	0.6718	-0	0.87
Mof_H 	H 	0.7412	0.6921	-0	-0.228
Mof_Mn	Mn	0.15323	0.07963	-0	0.916
Mof_O 	O 	0.25463	0.09666	-0	-0.512
Mof_O 	O 	0.05616	0.05806	-0	-0.36
Mof_C 	C 	0.2505	0.1718	-0	0.869
Mof_H 	H 	0.2412	0.1921	-0	-0.227
Mof_Mn	Mn	0.34677	0.42037	-0	0.915
Mof_O 	O 	0.24537	0.40334	-0	-0.512
Mof_O 	O 	0.44384	0.44194	-0	-0.359
Mof_C 	C 	0.2495	0.3282	-0	0.869
Mof_H 	H 	0.2588	0.3079	-0	-0.227
Mof_Mn	Mn	0.84677	0.92037	-0	0.915
Mof_O 	O 	0.74537	0.90334	-0	-0.512
Mof_O 	O 	0.94384	0.94194	-0	-0.363
Mof_C 	C 	0.7495	0.8282	-0	0.87
Mof_H 	H 	0.7588	0.8079	-0	-0.228
Mof_Zn	Zn	1.52829e-33	0.5078	0.5	0.786
Mof_Zn	Zn	0.5	0.0078	0.5	0.786
Mof_Zn	Zn	-1.19847e-32	0.4922	0.5	0.786
Mof_Zn	Zn	0.5	0.9922	0.5	0.785
Mof_Zn	Zn	0.52301	0.74181	0.5	0.874
Mof_Zn	Zn	0.02301	0.24181	0.5	0.875
Mof_Zn	Zn	0.47699	0.25819	0.5	0.874
Mof_Zn	Zn	0.97699	0.75819	0.5	0.871
Mof_Zn	Zn	0.47699	0.74181	0.5	0.874
Mof_Zn	Zn	0.97699	0.24181	0.5	0.871
Mof_Zn	Zn	0.52301	0.25819	0.5	0.874
Mof_Zn	Zn	0.02301	0.75819	0.5	0.875
Mof_N 	N 	1.91251e-33	0.5	0.6257	-0.336
Mof_N 	N 	0.5	0	0.6257	-0.339
Mof_N 	N 	1.14408e-33	0.5	0.3743	-0.336
Mof_N 	N 	0.5	-1.68912e-33	0.3743	-0.338
Mof_N 	N 	0.1027	0.5	0.5	-0.337
Mof_N 	N 	0.6027	0	0.5	-0.337
Mof_N 	N 	0.8973	0.5	0.5	-0.338
Mof_N 	N 	0.3973	0	0.5	-0.337
Mof_N 	N 	0.5	0.69808	0.5	-0.36
Mof_N 	N 	0.5	0.78639	0.5	-0.361
Mof_N 	N 	8.28477e-33	0.19808	0.5	-0.36
Mof_N 	N 	1.52829e-33	0.28639	0.5	-0.36
Mof_N 	N 	0.5	0.30192	0.5	-0.36
Mof_N 	N 	0.5	0.21361	0.5	-0.361
Mof_N 	N 	1.52829e-33	0.80192	0.5	-0.36
Mof_N 	N 	-1.19847e-32	0.71361	0.5	-0.36
Mof_N 	N 	0.5	0.74216	0.6247	-0.364
Mof_C 	C 	0.5	0.80361	0.5681	0.086
Mof_C 	C 	0.5	0.76546	0.6747	0.095
Mof_C 	C 	0.5	0.66669	0.7144	0.067
Mof_C 	C 	0.5	0.79458	0.6472	-0.163
Mof_C 	C 	0.5	0.71789	0.6755	0.072
Mof_C 	C 	0.5	0.64973	0.5411	-0.072
Mof_H 	H 	0.5	0.633	0.5751	0.063
Mof_C 	C 	0.5	0.81709	0.7144	0.098
Mof_C 	C 	0.5	0.68868	0.6502	-0.136
Mof_C 	C 	0.5	0.67933	0.5695	0.07
Mof_C 	C 	0.5	0.62674	0.8432	0.009
Mof_H 	H 	0.5	0.6131	0.8871	0.075
Mof_C 	C 	0.5	0.72686	0.7602	-0.062
Mof_H 	H 	0.5	0.7146	0.8071	0.075
Mof_C 	C 	0.5	0.86243	0.8287	-0.05
Mof_H 	H 	0.5	0.8777	0.8682	0.094
Mof_C 	C 	0.5	0.83448	0.54	-0.076
Mof_H 	H 	0.5	0.8512	0.5743	0.056
Mof_C 	C 	0.5	0.75658	0.7599	-0.08
Mof_H 	H 	0.5	0.769	0.8066	0.081
Mof_N 	N 	1.90945e-33	0.24216	0.6247	-0.364
Mof_C 	C 	-5.02003e-33	0.30361	0.5681	0.088
Mof_C 	C 	2.06228e-33	0.26546	0.6747	0.096
Mof_C 	C 	-1.13293e-32	0.16669	0.7144	0.072
Mof_C 	C 	8.7347e-33	0.29458	0.6472	-0.164
Mof_C 	C 	2.06473e-33	0.21789	0.6755	0.073
Mof_C 	C 	-1.72432e-33	0.14973	0.5411	-0.072
Mof_H 	H 	-4.99863e-33	0.133	0.5751	0.064
Mof_C 	C 	2.18363e-33	0.31709	0.7144	0.103
Mof_C 	C 	8.74387e-33	0.18868	0.6502	-0.137
Mof_C 	C 	5.11897e-33	0.17933	0.5695	0.071
Mof_C 	C 	9.33379e-33	0.12674	0.8432	0.015
Mof_H 	H 	2.7115e-33	0.1131	0.8871	0.074
Mof_C 	C 	2.32362e-33	0.22686	0.7602	-0.062
Mof_H 	H 	2.46697e-33	0.2146	0.8071	0.076
Mof_C 	C 	9.28947e-33	0.36243	0.8287	-0.045
Mof_H 	H 	2.65373e-33	0.3777	0.8682	0.093
Mof_C 	C 	1.65056e-33	0.33448	0.54	-0.076
Mof_H 	H 	5.13364e-33	0.3512	0.5743	0.057
Mof_C 	C 	9.07918e-33	0.25658	0.7599	-0.08
Mof_H 	H 	9.22192e-33	0.269	0.8066	0.081
Mof_N 	N 	0.5	0.25784	0.6247	-0.364
Mof_C 	C 	0.5	0.19639	0.5681	0.086
Mof_C 	C 	0.5	0.23454	0.6747	0.095
Mof_C 	C 	0.5	0.33331	0.7144	0.067
Mof_C 	C 	0.5	0.20542	0.6472	-0.163
Mof_C 	C 	0.5	0.28211	0.6755	0.072
Mof_C 	C 	0.5	0.35027	0.5411	-0.072
Mof_H 	H 	0.5	0.367	0.5751	0.063
Mof_C 	C 	0.5	0.18291	0.7144	0.098
Mof_C 	C 	0.5	0.31132	0.6502	-0.136
Mof_C 	C 	0.5	0.32067	0.5695	0.07
Mof_C 	C 	0.5	0.37326	0.8432	0.009
Mof_H 	H 	0.5	0.3869	0.8871	0.075
Mof_C 	C 	0.5	0.27314	0.7602	-0.062
Mof_H 	H 	0.5	0.2854	0.8071	0.075
Mof_C 	C 	0.5	0.13757	0.8287	-0.05
Mof_H 	H 	0.5	0.1223	0.8682	0.094
Mof_C 	C 	0.5	0.16552	0.54	-0.076
Mof_H 	H 	0.5	0.1488	0.5743	0.056
Mof_C 	C 	0.5	0.24342	0.7599	-0.08
Mof_H 	H 	0.5	0.231	0.8066	0.081
Mof_N 	N 	-1.836e-32	0.75784	0.6247	-0.364
Mof_C 	C 	1.52494e-32	0.69639	0.5681	0.088
Mof_C 	C 	-1.14507e-32	0.73454	0.6747	0.096
Mof_C 	C 	2.18363e-33	0.83331	0.7144	0.072
Mof_C 	C 	-1.15347e-32	0.70542	0.6472	-0.164
Mof_C 	C 	2.06473e-33	0.78211	0.6755	0.073
Mof_C 	C 	5.03216e-33	0.85027	0.5411	-0.072
Mof_H 	H 	8.51432e-33	0.867	0.5751	0.064
Mof_C 	C 	2.18363e-33	0.68291	0.7144	0.103
Mof_C 	C 	8.74387e-33	0.81132	0.6502	-0.137
Mof_C 	C 	-1.63751e-33	0.82067	0.5695	0.071
Mof_C 	C 	1.60903e-32	0.87326	0.8432	0.015
Mof_H 	H 	1.62245e-32	0.8869	0.8871	0.074
Mof_C 	C 	2.32362e-33	0.77314	0.7602	-0.062
Mof_H 	H 	-1.1046e-32	0.7854	0.8071	0.076
Mof_C 	C 	2.533e-33	0.63757	0.8287	-0.045
Mof_H 	H 	-4.10274e-33	0.6223	0.8682	0.093
Mof_C 	C 	-5.10592e-33	0.66552	0.54	-0.076
Mof_H 	H 	5.13364e-33	0.6488	0.5743	0.057
Mof_C 	C 	1.58357e-32	0.74342	0.7599	-0.08
Mof_H 	H 	1.59784e-32	0.731	0.8066	0.081
Mof_N 	N 	0.5	0.74216	0.3753	-0.364
Mof_C 	C 	0.5	0.80361	0.4319	0.084
Mof_C 	C 	0.5	0.76546	0.3253	0.09
Mof_C 	C 	0.5	0.66669	0.2856	0.054
Mof_C 	C 	0.5	0.79458	0.3528	-0.16
Mof_C 	C 	0.5	0.71789	0.3245	0.067
Mof_C 	C 	0.5	0.64973	0.4589	-0.07
Mof_H 	H 	0.5	0.633	0.4249	0.062
Mof_C 	C 	0.5	0.81709	0.2856	0.084
Mof_C 	C 	0.5	0.68868	0.3498	-0.133
Mof_C 	C 	0.5	0.67933	0.4305	0.068
Mof_C 	C 	0.5	0.62674	0.1568	0.023
Mof_H 	H 	0.5	0.6131	0.1129	0.044
Mof_C 	C 	0.5	0.72686	0.2398	-0.067
Mof_H 	H 	0.5	0.7146	0.1929	0.057
Mof_C 	C 	0.5	0.86243	0.1713	-0.04
Mof_H 	H 	0.5	0.8777	0.1318	0.066
Mof_C 	C 	0.5	0.83448	0.46	-0.074
Mof_H 	H 	0.5	0.8512	0.4257	0.056
Mof_C 	C 	0.5	0.75658	0.2401	-0.085
Mof_H 	H 	0.5	0.769	0.1934	0.062
Mof_N 	N 	-5.60934e-33	0.24216	0.3753	-0.363
Mof_C 	C 	4.69838e-33	0.30361	0.4319	0.085
Mof_C 	C 	-2.38393e-33	0.26546	0.3253	0.091
Mof_C 	C 	8.72962e-34	0.16669	0.2856	0.059
Mof_C 	C 	7.83484e-33	0.29458	0.3528	-0.16
Mof_C 	C 	-2.38637e-33	0.21789	0.3245	0.069
Mof_C 	C 	1.40267e-33	0.14973	0.4589	-0.07
Mof_H 	H 	4.67698e-33	0.133	0.4249	0.063
Mof_C 	C 	7.62944e-33	0.31709	0.2856	0.089
Mof_C 	C 	7.82567e-33	0.18868	0.3498	-0.134
Mof_C 	C 	-2.06238e-33	0.17933	0.4305	0.069
Mof_C 	C 	3.85751e-33	0.12674	0.1568	0.028
Mof_H 	H 	3.45089e-34	0.1131	0.1129	0.043
Mof_C 	C 	2.42209e-33	0.22686	0.2398	-0.067
Mof_H 	H 	-1.0995e-33	0.2146	0.1929	0.058
Mof_C 	C 	-6.23288e-33	0.36243	0.1713	-0.035
Mof_H 	H 	-1.28626e-33	0.3777	0.1318	0.066
Mof_C 	C 	-1.21069e-32	0.33448	0.46	-0.074
Mof_H 	H 	-2.07705e-33	0.3512	0.4257	0.057
Mof_C 	C 	-7.71171e-33	0.25658	0.2401	-0.085
Mof_H 	H 	3.96938e-33	0.269	0.1934	0.063
Mof_N 	N 	0.5	0.25784	0.3753	-0.364
Mof_C 	C 	0.5	0.19639	0.4319	0.084
Mof_C 	C 	0.5	0.23454	0.3253	0.09
Mof_C 	C 	0.5	0.33331	0.2856	0.054
Mof_C 	C 	0.5	0.20542	0.3528	-0.16
Mof_C 	C 	0.5	0.28211	0.3245	0.067
Mof_C 	C 	0.5	0.35027	0.4589	-0.07
Mof_H 	H 	0.5	0.367	0.4249	0.062
Mof_C 	C 	0.5	0.18291	0.2856	0.084
Mof_C 	C 	0.5	0.31132	0.3498	-0.133
Mof_C 	C 	0.5	0.32067	0.4305	0.068
Mof_C 	C 	0.5	0.37326	0.1568	0.023
Mof_H 	H 	0.5	0.3869	0.1129	0.044
Mof_C 	C 	0.5	0.27314	0.2398	-0.067
Mof_H 	H 	0.5	0.2854	0.1929	0.057
Mof_C 	C 	0.5	0.13757	0.1713	-0.04
Mof_H 	H 	0.5	0.1223	0.1318	0.067
Mof_C 	C 	0.5	0.16552	0.46	-0.074
Mof_H 	H 	0.5	0.1488	0.4257	0.056
Mof_C 	C 	0.5	0.24342	0.2401	-0.085
Mof_H 	H 	0.5	0.231	0.1934	0.062
Mof_N 	N 	-5.60934e-33	0.75784	0.3753	-0.363
Mof_C 	C 	1.14549e-32	0.69639	0.4319	0.085
Mof_C 	C 	-9.1404e-33	0.73454	0.3253	0.091
Mof_C 	C 	2.11424e-32	0.83331	0.2856	0.059
Mof_C 	C 	-5.67811e-33	0.70542	0.3528	-0.16
Mof_C 	C 	4.3701e-33	0.78211	0.3245	0.069
Mof_C 	C 	2.84286e-32	0.85027	0.4589	-0.07
Mof_H 	H 	2.83246e-32	0.867	0.4249	0.063
Mof_C 	C 	7.62944e-33	0.68291	0.2856	0.089
Mof_C 	C 	-2.30904e-33	0.81132	0.3498	-0.134
Mof_C 	C 	4.6941e-33	0.82067	0.4305	0.069
Mof_C 	C 	-6.2772e-33	0.87326	0.1568	0.028
Mof_H 	H 	1.3858e-32	0.8869	0.1129	0.043
Mof_C 	C 	2.42209e-33	0.77314	0.2398	-0.067
Mof_H 	H 	-1.46125e-32	0.7854	0.1929	0.058
Mof_C 	C 	5.23594e-34	0.63757	0.1713	-0.035
Mof_H 	H 	-1.28626e-33	0.6223	0.1318	0.066
Mof_C 	C 	8.16251e-33	0.66552	0.46	-0.074
Mof_H 	H 	1.14359e-32	0.6488	0.4257	0.057
Mof_C 	C 	1.25577e-32	0.74342	0.2401	-0.085
Mof_H 	H 	-9.54357e-33	0.731	0.1934	0.063
Mof_C 	C 	0.0552	0.5	0.6761	0.082
Mof_C 	C 	0.1435	0.5	0.5683	0.084
Mof_C 	C 	0.1221	0.5	0.6489	-0.135
Mof_C 	C 	0.174	0.5	0.7159	0.058
Mof_C 	C 	0.2692	0.5	0.8414	0.014
Mof_H 	H 	0.3016	0.5	0.8841	0.08
Mof_C 	C 	0.212	0.5	0.5422	-0.076
Mof_H 	H 	0.2503	0.5	0.5768	0.065
Mof_C 	C 	0.034	0.5	0.7604	-0.063
Mof_H 	H 	0.0623	0.5	0.8073	0.074
Mof_C 	C 	0.5552	-1.68912e-33	0.6761	0.084
Mof_C 	C 	0.6435	0	0.5683	0.084
Mof_C 	C 	0.6221	-1.68912e-33	0.6489	-0.136
Mof_C 	C 	0.674	0	0.7159	0.059
Mof_C 	C 	0.7692	0	0.8414	0.015
Mof_H 	H 	0.8016	0	0.8841	0.08
Mof_C 	C 	0.712	-3.37824e-33	0.5422	-0.076
Mof_H 	H 	0.7503	-1.68912e-33	0.5768	0.065
Mof_C 	C 	0.534	0	0.7604	-0.071
Mof_H 	H 	0.5623	-3.37824e-33	0.8073	0.076
Mof_C 	C 	0.9448	0.5	0.6761	0.082
Mof_C 	C 	0.8565	0.5	0.5683	0.083
Mof_C 	C 	0.8779	0.5	0.6489	-0.136
Mof_C 	C 	0.826	0.5	0.7159	0.058
Mof_C 	C 	0.7308	0.5	0.8414	0.014
Mof_H 	H 	0.6984	0.5	0.8841	0.08
Mof_C 	C 	0.788	0.5	0.5422	-0.076
Mof_H 	H 	0.7497	0.5	0.5768	0.065
Mof_C 	C 	0.966	0.5	0.7604	-0.078
Mof_H 	H 	0.9377	0.5	0.8073	0.077
Mof_C 	C 	0.4448	-1.68912e-33	0.6761	0.084
Mof_C 	C 	0.3565	0	0.5683	0.084
Mof_C 	C 	0.3779	-1.68912e-33	0.6489	-0.136
Mof_C 	C 	0.326	0	0.7159	0.059
Mof_C 	C 	0.2308	0	0.8414	0.015
Mof_H 	H 	0.1984	0	0.8841	0.08
Mof_C 	C 	0.288	-3.37824e-33	0.5422	-0.076
Mof_H 	H 	0.2497	-1.68912e-33	0.5768	0.066
Mof_C 	C 	0.466	0	0.7604	-0.071
Mof_H 	H 	0.4377	-3.37824e-33	0.8073	0.076
Mof_C 	C 	0.9448	0.5	0.3239	0.079
Mof_C 	C 	0.8565	0.5	0.4317	0.082
Mof_C 	C 	0.8779	0.5	0.3511	-0.134
Mof_C 	C 	0.826	0.5	0.2841	0.049
Mof_C 	C 	0.7308	0.5	0.1586	0.021
Mof_H 	H 	0.6984	0.5	0.1159	0.051
Mof_C 	C 	0.788	0.5	0.4578	-0.075
Mof_H 	H 	0.7497	0.5	0.4232	0.065
Mof_C 	C 	0.966	0.5	0.2396	-0.081
Mof_H 	H 	0.9377	0.5	0.1927	0.06
Mof_C 	C 	0.4448	-8.44559e-34	0.3239	0.08
Mof_C 	C 	0.3565	-1.68912e-33	0.4317	0.083
Mof_C 	C 	0.3779	-8.44559e-34	0.3511	-0.134
Mof_C 	C 	0.326	-8.44559e-34	0.2841	0.05
Mof_C 	C 	0.2308	0	0.1586	0.022
Mof_H 	H 	0.1984	0	0.1159	0.051
Mof_C 	C 	0.288	0	0.4578	-0.075
Mof_H 	H 	0.2497	-1.68912e-33	0.4232	0.065
Mof_C 	C 	0.466	0	0.2396	-0.074
Mof_H 	H 	0.4377	-8.44559e-34	0.1927	0.058
Mof_C 	C 	0.0552	0.5	0.3239	0.079
Mof_C 	C 	0.1435	0.5	0.4317	0.082
Mof_C 	C 	0.1221	0.5	0.3511	-0.133
Mof_C 	C 	0.174	0.5	0.2841	0.049
Mof_C 	C 	0.2692	0.5	0.1586	0.021
Mof_H 	H 	0.3016	0.5	0.1159	0.051
Mof_C 	C 	0.212	0.5	0.4578	-0.075
Mof_H 	H 	0.2503	0.5	0.4232	0.065
Mof_C 	C 	0.034	0.5	0.2396	-0.067
Mof_H 	H 	0.0623	0.5	0.1927	0.057
Mof_C 	C 	0.5552	-8.44559e-34	0.3239	0.08
Mof_C 	C 	0.6435	-1.68912e-33	0.4317	0.083
Mof_C 	C 	0.6221	-8.44559e-34	0.3511	-0.134
Mof_C 	C 	0.674	-8.44559e-34	0.2841	0.05
Mof_C 	C 	0.7692	0	0.1586	0.022
Mof_H 	H 	0.8016	0	0.1159	0.051
Mof_C 	C 	0.712	0	0.4578	-0.075
Mof_H 	H 	0.7503	-1.68912e-33	0.4232	0.065
Mof_C 	C 	0.534	0	0.2396	-0.074
Mof_H 	H 	0.5623	-8.44559e-34	0.1927	0.058
Mof_C 	C 	0.5	0.57084	-0	0.414
Mof_H 	H 	0.5	0.5915	-0	-0.119
Mof_C 	C 	-0	0.07084	-0	0.421
Mof_H 	H 	-1.68912e-33	0.0915	-0	-0.119
Mof_C 	C 	0.5	0.42916	-0	0.414
Mof_H 	H 	0.5	0.4085	-0	-0.119
Mof_C 	C 	-2.70259e-32	0.92916	-0	0.421
Mof_H 	H 	-0	0.9085	-0	-0.119
_end
