data_functionalizedCrystal
_audit_creation_method	'EQeq! by Chris Wilmer'
_symmetry_space_group_name_H-M	'P1'
_symmetry_Int_Tables_number	1
_symmetry_cell_setting	triclinic
loop_
_symmetry_equiv_pos_as_xyz
  x,y,z
_cell_length_a	9.8339
_cell_length_b	11.279
_cell_length_c	14.766
_cell_angle_alpha	91.565
_cell_angle_beta	90
_cell_angle_gamma	90
loop_
_atom_site_label
_atom_site_type_symbol
_atom_site_fract_x
_atom_site_fract_y
_atom_site_fract_z
_atom_site_charge
Mof_Mg	Mg	0.07498	0.75674	0.13493	1.462
Mof_Mg	Mg	0.88305	0.7398	0.30602	1.485
Mof_Mg	Mg	0.57498	0.74326	0.36507	1.478
Mof_Mg	Mg	0.38305	0.7602	0.19398	1.481
Mof_Mg	Mg	0.92502	0.24326	0.86507	1.491
Mof_Mg	Mg	0.11695	0.2602	0.69398	1.475
Mof_Mg	Mg	0.42502	0.25674	0.63493	1.477
Mof_Mg	Mg	0.61695	0.2398	0.80602	1.48
Mof_Mg	Mg	-0	0.5	-0	1.452
Mof_Mg	Mg	0.5	0	0.5	1.473
Mof_Mg	Mg	-0	0	-0	1.444
Mof_Mg	Mg	0.5	0.5	0.5	1.482
Mof_H 	H 	0.9515	0.4754	0.2586	-0.096
Mof_H 	H 	0.3806	0.5591	0.049	-0.165
Mof_H 	H 	0.2922	0.9987	0.0231	-0.136
Mof_H 	H 	0.2339	0.8581	0.3692	-0.129
Mof_H 	H 	0.8383	0.6957	0.9319	-0.128
Mof_H 	H 	0.7893	0.9762	0.2209	-0.157
Mof_H 	H 	0.4515	0.0246	0.2414	-0.32
Mof_H 	H 	0.8806	0.9409	0.451	-0.042
Mof_H 	H 	0.7922	0.5013	0.4769	-0.086
Mof_H 	H 	0.7339	0.6419	0.1308	-0.163
Mof_H 	H 	0.3383	0.8043	0.5681	-0.107
Mof_H 	H 	0.2893	0.5238	0.2791	-0.172
Mof_H 	H 	0.0485	0.5246	0.7414	-0.146
Mof_H 	H 	0.6194	0.4409	0.951	-0.072
Mof_H 	H 	0.7078	0.0013	0.9769	-0.088
Mof_H 	H 	0.7661	0.1419	0.6308	-0.132
Mof_H 	H 	0.1617	0.3043	0.0681	-0.096
Mof_H 	H 	0.2107	0.0238	0.7791	-0.114
Mof_H 	H 	0.5485	0.9754	0.7586	0.072
Mof_H 	H 	0.1194	0.0591	0.549	-0.196
Mof_H 	H 	0.2078	0.4987	0.5231	-0.139
Mof_H 	H 	0.2661	0.3581	0.8692	-0.095
Mof_H 	H 	0.6617	0.1957	0.4319	-0.128
Mof_H 	H 	0.7107	0.4762	0.7209	-0.11
Mof_C 	C 	0.97637	0.51835	0.20664	0.557
Mof_C 	C 	0.28658	0.57734	0.0547	0.581
Mof_C 	C 	0.27291	0.93529	0.06219	0.562
Mof_C 	C 	0.16426	0.82723	0.33069	0.568
Mof_C 	C 	0.89744	0.74077	0.97033	0.75
Mof_C 	C 	0.85696	0.94925	0.17927	0.712
Mof_C 	C 	0.47637	0.98165	0.29336	0.932
Mof_C 	C 	0.78658	0.92266	0.4453	0.536
Mof_C 	C 	0.77291	0.56471	0.43781	0.527
Mof_C 	C 	0.66426	0.67277	0.16931	0.562
Mof_C 	C 	0.39744	0.75923	0.52967	0.545
Mof_C 	C 	0.35696	0.55075	0.32073	0.571
Mof_C 	C 	0.02363	0.48165	0.79336	0.579
Mof_C 	C 	0.71342	0.42266	0.9453	0.535
Mof_C 	C 	0.72709	0.06471	0.93781	0.52
Mof_C 	C 	0.83574	0.17277	0.66931	0.54
Mof_C 	C 	0.10256	0.25923	0.02967	0.299
Mof_C 	C 	0.14304	0.05075	0.82073	0.4
Mof_C 	C 	0.52363	0.01835	0.70664	0.212
Mof_C 	C 	0.21342	0.07734	0.5547	0.58
Mof_C 	C 	0.22709	0.43529	0.56219	0.556
Mof_C 	C 	0.33574	0.32723	0.83069	0.546
Mof_C 	C 	0.60256	0.24077	0.47033	0.561
Mof_C 	C 	0.64304	0.44925	0.67927	0.564
Mof_O 	O 	0.98834	0.63033	0.21668	-0.608
Mof_O 	O 	0.9942	0.46062	0.13534	-0.456
Mof_O 	O 	0.25289	0.65797	0.11322	-0.723
Mof_O 	O 	0.20675	0.52132	0.005	-0.622
Mof_O 	O 	0.14945	0.90021	0.0659	-0.744
Mof_O 	O 	0.36973	0.89411	0.10491	-0.51
Mof_O 	O 	0.1947	0.80809	0.24768	-0.703
Mof_O 	O 	0.05175	0.80911	0.36567	-0.594
Mof_O 	O 	0.97167	0.68346	0.02565	-0.726
Mof_O 	O 	0.89633	0.84958	0.96283	-0.422
Mof_O 	O 	0.91386	0.84973	0.19476	-0.653
Mof_O 	O 	0.88233	0.01329	0.11489	-0.612
Mof_O 	O 	0.48834	0.86967	0.28332	-0.757
Mof_O 	O 	0.4942	0.03938	0.36466	-0.684
Mof_O 	O 	0.75289	0.84203	0.38678	-0.634
Mof_O 	O 	0.70675	0.97868	0.495	-0.433
Mof_O 	O 	0.64945	0.59979	0.4341	-0.653
Mof_O 	O 	0.86973	0.60589	0.39509	-0.451
Mof_O 	O 	0.6947	0.69191	0.25232	-0.671
Mof_O 	O 	0.55175	0.69089	0.13433	-0.534
Mof_O 	O 	0.47167	0.81654	0.47435	-0.641
Mof_O 	O 	0.39633	0.65042	0.53717	-0.51
Mof_O 	O 	0.41386	0.65027	0.30524	-0.675
Mof_O 	O 	0.38233	0.48671	0.38511	-0.525
Mof_O 	O 	0.01166	0.36967	0.78332	-0.737
Mof_O 	O 	0.0058	0.53938	0.86466	-0.533
Mof_O 	O 	0.74711	0.34203	0.88678	-0.62
Mof_O 	O 	0.79325	0.47868	0.995	-0.386
Mof_O 	O 	0.85055	0.09979	0.9341	-0.577
Mof_O 	O 	0.63027	0.10589	0.89509	-0.491
Mof_O 	O 	0.8053	0.19191	0.75232	-0.637
Mof_O 	O 	0.94825	0.19089	0.63433	-0.422
Mof_O 	O 	0.02833	0.31654	0.97435	-0.546
Mof_O 	O 	0.10367	0.15042	0.03717	-0.59
Mof_O 	O 	0.08614	0.15027	0.80524	-0.678
Mof_O 	O 	0.11767	0.98671	0.88511	-0.363
Mof_O 	O 	0.51166	0.13033	0.71668	-0.596
Mof_O 	O 	0.5058	0.96062	0.63534	-0.327
Mof_O 	O 	0.24711	0.15797	0.61322	-0.704
Mof_O 	O 	0.29325	0.02132	0.505	-0.569
Mof_O 	O 	0.35055	0.40021	0.5659	-0.671
Mof_O 	O 	0.13027	0.39411	0.60491	-0.55
Mof_O 	O 	0.3053	0.30809	0.74768	-0.666
Mof_O 	O 	0.44825	0.30911	0.86567	-0.479
Mof_O 	O 	0.52833	0.18346	0.52565	-0.676
Mof_O 	O 	0.60367	0.34958	0.46283	-0.514
Mof_O 	O 	0.58614	0.34973	0.69476	-0.668
Mof_O 	O 	0.61767	0.51329	0.61489	-0.489
_end
