data_functionalizedCrystal
_audit_creation_method	'EQeq! by Chris Wilmer'
_symmetry_space_group_name_H-M	'P1'
_symmetry_Int_Tables_number	1
_symmetry_cell_setting	triclinic
loop_
_symmetry_equiv_pos_as_xyz
  x,y,z
_cell_length_a	12.6991
_cell_length_b	15.5711
_cell_length_c	16.3313
_cell_angle_alpha	90
_cell_angle_beta	90
_cell_angle_gamma	90
loop_
_atom_site_label
_atom_site_type_symbol
_atom_site_fract_x
_atom_site_fract_y
_atom_site_fract_z
_atom_site_charge
Mof_Mn	Mn	0.60045	0.49529	0.08879	0.9
Mof_Mn	Mn	0.60045	0.00471	0.58879	0.901
Mof_Mn	Mn	0.89955	0.99529	0.08879	0.895
Mof_Mn	Mn	0.10045	0.00471	0.91121	0.895
Mof_Mn	Mn	0.39955	0.50471	0.91121	0.9
Mof_Mn	Mn	0.10045	0.49529	0.41121	0.901
Mof_Mn	Mn	0.89955	0.50471	0.58879	0.901
Mof_Mn	Mn	0.39955	0.99529	0.41121	0.901
Mof_H 	H 	0.7776	0.9678	0.3669	0.088
Mof_H 	H 	0.6686	0.2565	0.525	0.074
Mof_H 	H 	0.3314	0.7565	0.975	0.075
Mof_H 	H 	0.2776	0.5322	0.6331	0.088
Mof_H 	H 	0.4485	0.7578	0.2015	0.076
Mof_H 	H 	0.2224	0.4678	0.1331	0.088
Mof_H 	H 	0.7224	0.0322	0.8669	0.089
Mof_H 	H 	0.4485	0.7422	0.7015	0.077
Mof_H 	H 	0.7776	0.5322	0.8669	0.089
Mof_H 	H 	0.2224	0.0322	0.6331	0.089
Mof_H 	H 	0.1686	0.2565	0.975	0.07
Mof_H 	H 	0.0515	0.2422	0.7015	0.076
Mof_H 	H 	0.0515	0.2578	0.2015	0.076
Mof_H 	H 	0.1686	0.2435	0.475	0.075
Mof_H 	H 	0.6686	0.2435	0.025	0.076
Mof_H 	H 	0.3314	0.7435	0.475	0.075
Mof_H 	H 	0.9485	0.7422	0.7985	0.076
Mof_H 	H 	0.2776	0.9678	0.1331	0.089
Mof_H 	H 	0.7224	0.4678	0.3669	0.089
Mof_H 	H 	0.5515	0.2578	0.2985	0.077
Mof_H 	H 	0.9485	0.7578	0.2985	0.076
Mof_H 	H 	0.8314	0.7435	0.025	0.07
Mof_H 	H 	0.8314	0.7565	0.525	0.075
Mof_H 	H 	0.5515	0.2422	0.7985	0.077
Mof_C 	C 	0.6934	0.0862	0.8759	-0.057
Mof_C 	C 	0.956	0.6489	0.4387	0.307
Mof_C 	C 	0.7266	0.5843	0.0127	0.21
Mof_C 	C 	0.7734	0.4157	0.5127	0.213
Mof_C 	C 	0.204	0.1338	0.5476	0.002
Mof_C 	C 	0.1286	0.4198	0.269	0.224
Mof_C 	C 	0.8714	0.5802	0.731	0.224
Mof_C 	C 	0.8636	0.6296	0.8195	0.005
Mof_C 	C 	0.0952	0.2298	0.0822	-0.057
Mof_C 	C 	0.41	0.7171	0.6594	-0.02
Mof_C 	C 	0.704	0.3662	0.4524	0.002
Mof_C 	C 	0.544	0.1489	0.4387	0.307
Mof_C 	C 	0.8435	0.7788	0.473	-0.017
Mof_C 	C 	0.1364	0.1296	0.6805	0.006
Mof_C 	C 	0.1286	0.0802	0.769	0.221
Mof_C 	C 	0.456	0.6489	0.0613	0.306
Mof_C 	C 	0.544	0.3511	0.9387	0.306
Mof_C 	C 	0.044	0.3511	0.5613	0.307
Mof_C 	C 	0.8636	0.8704	0.3195	0.006
Mof_C 	C 	0.1565	0.2212	0.527	-0.017
Mof_C 	C 	0.704	0.1338	0.9524	0.001
Mof_C 	C 	0.3066	0.9138	0.1241	-0.057
Mof_C 	C 	0.4048	0.7298	0.0822	-0.053
Mof_C 	C 	0.1565	0.2788	0.027	-0.009
Mof_C 	C 	0.3714	0.9198	0.269	0.223
Mof_C 	C 	0.3435	0.7788	0.027	-0.018
Mof_C 	C 	0.5952	0.2702	0.9178	-0.053
Mof_C 	C 	0.204	0.3662	0.0476	0.002
Mof_C 	C 	0.59	0.2171	0.8406	-0.021
Mof_C 	C 	0.6934	0.4138	0.3759	-0.057
Mof_C 	C 	0.2266	0.9157	0.9873	0.216
Mof_C 	C 	0.3636	0.8704	0.1805	0.006
Mof_C 	C 	0.8714	0.9198	0.231	0.221
Mof_C 	C 	0.7734	0.0843	0.0127	0.216
Mof_C 	C 	0.6364	0.1296	0.8195	0.006
Mof_C 	C 	0.1934	0.4138	0.1241	-0.056
Mof_C 	C 	0.91	0.7829	0.3406	-0.021
Mof_C 	C 	0.3714	0.5802	0.769	0.224
Mof_C 	C 	0.3435	0.7212	0.527	-0.017
Mof_C 	C 	0.1934	0.0862	0.6241	-0.057
Mof_C 	C 	0.296	0.6338	0.5476	0.002
Mof_C 	C 	0.91	0.7171	0.8406	-0.019
Mof_C 	C 	0.8435	0.7212	0.973	-0.009
Mof_C 	C 	0.796	0.8662	0.4524	0.002
Mof_C 	C 	0.0952	0.2702	0.5822	-0.054
Mof_C 	C 	0.6565	0.2212	0.973	-0.018
Mof_C 	C 	0.4048	0.7702	0.5822	-0.054
Mof_C 	C 	0.3636	0.6296	0.6805	0.006
Mof_C 	C 	0.1364	0.3704	0.1805	0.005
Mof_C 	C 	0.296	0.8662	0.0476	0.001
Mof_C 	C 	0.8066	0.5862	0.8759	-0.056
Mof_C 	C 	0.456	0.8511	0.5613	0.307
Mof_C 	C 	0.5952	0.2298	0.4178	-0.054
Mof_C 	C 	0.41	0.7829	0.1594	-0.021
Mof_C 	C 	0.6364	0.3704	0.3195	0.006
Mof_C 	C 	0.956	0.8511	0.9387	0.313
Mof_C 	C 	0.796	0.6338	0.9524	0.002
Mof_C 	C 	0.8066	0.9138	0.3759	-0.057
Mof_C 	C 	0.09	0.2829	0.1594	-0.019
Mof_C 	C 	0.2266	0.5843	0.4873	0.213
Mof_C 	C 	0.6286	0.4198	0.231	0.224
Mof_C 	C 	0.6565	0.2788	0.473	-0.017
Mof_C 	C 	0.044	0.1489	0.0613	0.313
Mof_C 	C 	0.6286	0.0802	0.731	0.223
Mof_C 	C 	0.2734	0.0843	0.4873	0.213
Mof_C 	C 	0.7266	0.9157	0.5127	0.213
Mof_C 	C 	0.59	0.2829	0.3406	-0.02
Mof_C 	C 	0.9048	0.7298	0.4178	-0.054
Mof_C 	C 	0.9048	0.7702	0.9178	-0.057
Mof_C 	C 	0.09	0.2171	0.6594	-0.021
Mof_C 	C 	0.3066	0.5862	0.6241	-0.057
Mof_C 	C 	0.2734	0.4157	0.9873	0.21
Mof_O 	O 	0.2019	0.9985	0.0013	-0.339
Mof_O 	O 	0.5015	0.4009	0.8827	-0.32
Mof_O 	O 	0.0866	0.3728	0.3173	-0.274
Mof_O 	O 	0.7981	0.4985	0.4987	-0.34
Mof_O 	O 	0.2981	0.4985	0.0013	-0.338
Mof_O 	O 	0.2019	0.5015	0.5013	-0.34
Mof_O 	O 	0.4134	0.8728	0.3173	-0.274
Mof_O 	O 	0.3401	0.4941	0.779	-0.263
Mof_O 	O 	0.9134	0.8728	0.1827	-0.274
Mof_O 	O 	0.8401	0.4941	0.721	-0.263
Mof_O 	O 	0.2997	0.3584	0.9346	-0.234
Mof_O 	O 	0.0015	0.0991	0.1173	-0.32
Mof_O 	O 	0.6599	0.9941	0.721	-0.261
Mof_O 	O 	0.9643	0.8827	0.0134	-0.318
Mof_O 	O 	0.6599	0.5059	0.221	-0.263
Mof_O 	O 	0.4134	0.6272	0.8173	-0.274
Mof_O 	O 	0.2003	0.6416	0.4346	-0.233
Mof_O 	O 	0.0015	0.4009	0.6173	-0.321
Mof_O 	O 	0.5015	0.0991	0.3827	-0.32
Mof_O 	O 	0.4985	0.9009	0.6173	-0.32
Mof_O 	O 	0.9134	0.6272	0.6827	-0.274
Mof_O 	O 	0.5357	0.3827	0.0134	-0.313
Mof_O 	O 	0.1599	0.5059	0.279	-0.263
Mof_O 	O 	0.9985	0.5991	0.3827	-0.321
Mof_O 	O 	0.7019	0.9985	0.4987	-0.34
Mof_O 	O 	0.5866	0.1272	0.6827	-0.274
Mof_O 	O 	0.8401	0.0059	0.221	-0.259
Mof_O 	O 	0.4643	0.6173	0.9866	-0.313
Mof_O 	O 	0.0866	0.1272	0.8173	-0.274
Mof_O 	O 	0.2003	0.8584	0.9346	-0.234
Mof_O 	O 	0.7003	0.8584	0.5654	-0.234
Mof_O 	O 	0.9643	0.6173	0.5134	-0.313
Mof_O 	O 	0.3401	0.0059	0.279	-0.261
Mof_O 	O 	0.5866	0.3728	0.1827	-0.274
Mof_O 	O 	0.9985	0.9009	0.8827	-0.32
Mof_O 	O 	0.2997	0.1416	0.4346	-0.234
Mof_O 	O 	0.0357	0.1173	0.9866	-0.318
Mof_O 	O 	0.2981	0.0015	0.5013	-0.34
Mof_O 	O 	0.7997	0.3584	0.5654	-0.233
Mof_O 	O 	0.1599	0.9941	0.779	-0.259
Mof_O 	O 	0.7003	0.6416	0.0654	-0.234
Mof_O 	O 	0.5357	0.1173	0.5134	-0.313
Mof_O 	O 	0.7981	0.0015	0.9987	-0.339
Mof_O 	O 	0.7019	0.5015	0.9987	-0.338
Mof_O 	O 	0.0357	0.3827	0.4866	-0.313
Mof_O 	O 	0.4985	0.5991	0.1173	-0.32
Mof_O 	O 	0.7997	0.1416	0.0654	-0.234
Mof_O 	O 	0.4643	0.8827	0.4866	-0.313
_end
