# CIF file generated by openbabel 3.1.0, see https://openbabel.org
data_I
_chemical_name_common 'ZEZQAY_clean'
_cell_length_a 9.964
_cell_length_b 11.57
_cell_length_c 13.32
_cell_angle_alpha 67.7
_cell_angle_beta 87.18
_cell_angle_gamma 76.68
_space_group_name_H-M_alt 'P 1'
_space_group_name_Hall 'P 1'
loop_
    _symmetry_equiv_pos_as_xyz
    x,y,z
loop_
    _atom_site_label
    _atom_site_type_symbol
    _atom_site_fract_x
    _atom_site_fract_y
    _atom_site_fract_z
    _atom_site_occupancy
    Tb1      Tb       0.76337    0.47407    0.99498    1.000
    Tb2      Tb       0.23663    0.52593    0.00502    1.000
    H1       H        0.01220    0.12440    0.44320    1.000
    H2       H        0.05610    0.23540    0.26570    1.000
    H3       H        0.43750    0.00920    0.32030    1.000
    H4       H        0.30470    0.82630    0.65940    1.000
    H5       H        0.68510    0.59960    0.70560    1.000
    H6       H        0.71560    0.69900    0.52300    1.000
    H7       H        0.09110    0.53140    0.33930    1.000
    H8       H        0.76210    0.42930    0.27250    1.000
    H9       H        0.69000    0.40560    0.44480    1.000
    H10      H        0.98780    0.87560    0.55680    1.000
    H11      H        0.94390    0.76460    0.73430    1.000
    H12      H        0.56250    0.99080    0.67970    1.000
    H13      H        0.69530    0.17370    0.34060    1.000
    H14      H        0.31490    0.40040    0.29440    1.000
    H15      H        0.28440    0.30100    0.47700    1.000
    H16      H        0.90890    0.46860    0.66070    1.000
    H17      H        0.23790    0.57070    0.72750    1.000
    H18      H        0.31000    0.59440    0.55520    1.000
    C1       C        0.28810    0.20960    0.15890    1.000
    C2       C        0.09820    0.10040    0.41730    1.000
    C3       C        0.12400    0.16850    0.31090    1.000
    C4       C        0.25230    0.13520    0.27320    1.000
    C5       C        0.34960    0.03320    0.34340    1.000
    C6       C        0.31430    0.96850    0.44690    1.000
    C7       C        0.41610    0.85980    0.52420    1.000
    C8       C        0.38950    0.79980    0.63310    1.000
    C9       C        0.48850    0.70150    0.70150    1.000
    C10      C        0.61490    0.66410    0.66090    1.000
    C11      C        0.63280    0.72610    0.55170    1.000
    C12      C        0.46570    0.63170    0.82010    1.000
    C13      C        0.98640    0.50310    0.17580    1.000
    C14      C        0.96080    0.48990    0.45930    1.000
    C15      C        0.00830    0.50630    0.35870    1.000
    C16      C        0.93450    0.48590    0.28610    1.000
    C17      C        0.81450    0.44580    0.31920    1.000
    C18      C        0.77270    0.43040    0.42390    1.000
    C19      C        0.71190    0.79040    0.84110    1.000
    C20      C        0.90180    0.89960    0.58270    1.000
    C21      C        0.87600    0.83150    0.68910    1.000
    C22      C        0.74770    0.86480    0.72680    1.000
    C23      C        0.65040    0.96680    0.65660    1.000
    C24      C        0.68570    0.03150    0.55310    1.000
    C25      C        0.58390    0.14020    0.47580    1.000
    C26      C        0.61050    0.20020    0.36690    1.000
    C27      C        0.51150    0.29850    0.29850    1.000
    C28      C        0.38510    0.33590    0.33910    1.000
    C29      C        0.36720    0.27390    0.44830    1.000
    C30      C        0.53430    0.36830    0.17990    1.000
    C31      C        0.01360    0.49690    0.82420    1.000
    C32      C        0.03920    0.51010    0.54070    1.000
    C33      C        0.99170    0.49370    0.64130    1.000
    C34      C        0.06550    0.51410    0.71390    1.000
    C35      C        0.18550    0.55420    0.68080    1.000
    C36      C        0.22730    0.56960    0.57610    1.000
    N1       N        0.19120    0.00160    0.48500    1.000
    N2       N        0.53690    0.82360    0.48430    1.000
    N3       N        0.84330    0.44860    0.49450    1.000
    N4       N        0.80880    0.99840    0.51500    1.000
    N5       N        0.46310    0.17640    0.51570    1.000
    N6       N        0.15670    0.55140    0.50550    1.000
    O1       O        0.20420    0.31460    0.10660    1.000
    O2       O        0.39650    0.16430    0.12330    1.000
    O3       O        0.34400    0.64770    0.85050    1.000
    O4       O        0.56930    0.55810    0.87890    1.000
    O5       O        0.10480    0.52570    0.15700    1.000
    O6       O        0.90990    0.49450    0.10960    1.000
    O7       O        0.79580    0.68540    0.89340    1.000
    O8       O        0.60350    0.83570    0.87670    1.000
    O9       O        0.65600    0.35230    0.14950    1.000
    O10      O        0.43070    0.44190    0.12110    1.000
    O11      O        0.89520    0.47430    0.84300    1.000
    O12      O        0.09010    0.50550    0.89040    1.000
