data_functionalizedCrystal
_audit_creation_method	'EQeq! by Chris Wilmer'
_symmetry_space_group_name_H-M	'P1'
_symmetry_Int_Tables_number	1
_symmetry_cell_setting	triclinic
loop_
_symmetry_equiv_pos_as_xyz
  x,y,z
_cell_length_a	10.4297
_cell_length_b	11.219
_cell_length_c	11.219
_cell_angle_alpha	98.5086
_cell_angle_beta	109.592
_cell_angle_gamma	109.592
loop_
_atom_site_label
_atom_site_type_symbol
_atom_site_fract_x
_atom_site_fract_y
_atom_site_fract_z
_atom_site_charge
Mof_Cd	Cd	0.25094	0.97483	0.06675	0.401
Mof_Cd	Cd	0.75094	0.06675	0.97483	0.407
Mof_H 	H 	0.1293	0.2097	0.0401	0.023
Mof_H 	H 	0.178	0.4061	0.9843	0.055
Mof_H 	H 	0.3598	0.4744	0.9008	0.037
Mof_H 	H 	0.4189	0.7835	0.0325	0.007
Mof_H 	H 	0.503	0.6379	0.1265	0.103
Mof_H 	H 	0.2992	0.6688	0.3706	0.1
Mof_H 	H 	0.2345	0.8229	0.2805	0.029
Mof_H 	H 	0.3883	0.488	0.352	0.105
Mof_H 	H 	0.4804	0.4847	0.2631	0.111
Mof_H 	H 	0.6818	0.6856	0.4214	0.014
Mof_H 	H 	0.5908	0.6795	0.5117	0.015
Mof_H 	H 	0.7096	0.4912	0.4576	0.109
Mof_H 	H 	0.6116	0.4784	0.5426	0.114
Mof_H 	H 	0.9492	0.7247	0.5501	0.104
Mof_H 	H 	0.148	0.8741	0.7409	0.019
Mof_H 	H 	0.9564	0.7166	0.9616	0.02
Mof_H 	H 	0.7479	0.5676	0.7768	0.121
Mof_H 	H 	0.6293	0.0401	0.2097	0.031
Mof_H 	H 	0.678	0.9843	0.4061	0.056
Mof_H 	H 	0.8598	0.9008	0.4744	0.047
Mof_H 	H 	0.9189	0.0325	0.7835	0.018
Mof_H 	H 	0.003	0.1265	0.6379	0.075
Mof_H 	H 	0.7992	0.3706	0.6688	0.096
Mof_H 	H 	0.7345	0.2805	0.8229	0.034
Mof_H 	H 	0.8883	0.352	0.488	0.097
Mof_H 	H 	0.9804	0.2631	0.4847	0.105
Mof_H 	H 	0.1818	0.4214	0.6856	0.022
Mof_H 	H 	0.0908	0.5117	0.6795	0.02
Mof_H 	H 	0.2096	0.4576	0.4912	0.1
Mof_H 	H 	0.1116	0.5426	0.4784	0.104
Mof_H 	H 	0.4492	0.5501	0.7247	0.107
Mof_H 	H 	0.648	0.7409	0.8741	0.013
Mof_H 	H 	0.4564	0.9616	0.7166	0.021
Mof_H 	H 	0.2479	0.7768	0.5676	0.116
Mof_C 	C 	0.205	0.23885	0.00865	0.003
Mof_C 	C 	0.2321	0.35484	0.97456	-0.059
Mof_C 	C 	0.34	0.39499	0.92573	-0.006
Mof_C 	C 	0.4199	0.31942	0.91286	-0.052
Mof_C 	C 	0.5342	0.36813	0.85507	0.296
Mof_C 	C 	0.3891	0.20577	0.95439	0.008
Mof_C 	C 	0.4798	0.12346	0.9614	0.284
Mof_C 	C 	0.3972	0.76201	0.10439	0.107
Mof_C 	C 	0.4456	0.67294	0.15846	-0.202
Mof_C 	C 	0.4091	0.63539	0.26029	0.178
Mof_C 	C 	0.328	0.69239	0.30261	-0.198
Mof_C 	C 	0.2881	0.7834	0.2474	0.101
Mof_C 	C 	0.4641	0.54373	0.32587	-0.282
Mof_C 	C 	0.6103	0.62475	0.44805	0.073
Mof_C 	C 	0.6831	0.54204	0.51816	-0.284
Mof_C 	C 	0.8217	0.63084	0.64076	0.176
Mof_C 	C 	0.9465	0.72312	0.63368	-0.175
Mof_C 	C 	0.0653	0.81145	0.74815	0.083
Mof_C 	C 	0.953	0.72026	0.87654	0.134
Mof_C 	C 	0.8285	0.63001	0.76659	-0.209
Mof_C 	C 	0.705	0.00865	0.23885	0.002
Mof_C 	C 	0.7321	0.97456	0.35484	-0.048
Mof_C 	C 	0.84	0.92573	0.39499	-0.02
Mof_C 	C 	0.9199	0.91286	0.31942	-0.019
Mof_C 	C 	0.0342	0.85507	0.36813	0.25
Mof_C 	C 	0.8891	0.95439	0.20577	-0.005
Mof_C 	C 	0.9798	0.9614	0.12346	0.312
Mof_C 	C 	0.8972	0.10439	0.76201	0.088
Mof_C 	C 	0.9456	0.15846	0.67294	-0.153
Mof_C 	C 	0.9091	0.26029	0.63539	0.152
Mof_C 	C 	0.828	0.30261	0.69239	-0.178
Mof_C 	C 	0.7881	0.2474	0.7834	0.095
Mof_C 	C 	0.9641	0.32587	0.54373	-0.241
Mof_C 	C 	0.1103	0.44805	0.62475	0.036
Mof_C 	C 	0.1831	0.51816	0.54204	-0.267
Mof_C 	C 	0.3217	0.64076	0.63084	0.174
Mof_C 	C 	0.4465	0.63368	0.72312	-0.201
Mof_C 	C 	0.5653	0.74815	0.81145	0.112
Mof_C 	C 	0.453	0.87654	0.72026	0.117
Mof_C 	C 	0.3285	0.76659	0.63001	-0.204
Mof_N 	N 	0.2812	0.16534	0.99922	-0.123
Mof_N 	N 	0.3219	0.81866	0.1487	-0.162
Mof_N 	N 	0.0696	0.81307	0.86933	-0.16
Mof_N 	N 	0.7812	0.99922	0.16534	-0.119
Mof_N 	N 	0.8219	0.1487	0.81866	-0.155
Mof_N 	N 	0.5696	0.86933	0.81307	-0.154
Mof_O 	O 	0.43883	0.0182	0.99068	-0.287
Mof_O 	O 	0.59487	0.1707	0.9399	-0.272
Mof_O 	O 	0.65521	0.46324	0.93152	-0.234
Mof_O 	O 	0.4939	0.31668	0.73484	-0.245
Mof_O 	O 	0.93883	0.99068	0.0182	-0.287
Mof_O 	O 	0.09487	0.9399	0.1707	-0.293
Mof_O 	O 	0.15521	0.93152	0.46324	-0.227
Mof_O 	O 	0.9939	0.73484	0.31668	-0.216
_end
