data_functionalizedCrystal
_audit_creation_method	'EQeq! by Chris Wilmer'
_symmetry_space_group_name_H-M	'P1'
_symmetry_Int_Tables_number	1
_symmetry_cell_setting	triclinic
loop_
_symmetry_equiv_pos_as_xyz
  x,y,z
_cell_length_a	6.781
_cell_length_b	15.0901
_cell_length_c	15.0901
_cell_angle_alpha	62.2027
_cell_angle_beta	81.3853
_cell_angle_gamma	98.6147
loop_
_atom_site_label
_atom_site_type_symbol
_atom_site_fract_x
_atom_site_fract_y
_atom_site_fract_z
_atom_site_charge
Mof_Co	Co	0.3944	0.2829	0.4227	1.154
Mof_Co	Co	0.1115	0.2944	0.2829	1.136
Mof_Co	Co	0.8171	0.7056	0.5773	1.166
Mof_Co	Co	0.1115	0.7171	0.7056	1.135
Mof_Co	Co	0.3944	0.5773	0.7171	1.153
Mof_Co	Co	0.8171	0.4227	0.2944	1.166
Mof_H 	H 	0.52295	0.42385	-0	-0.006
Mof_H 	H 	0.0991	0.57615	0.42385	-0.018
Mof_H 	H 	0.2518	0.5164	-0	0.12
Mof_H 	H 	0.52295	0	0.57615	-0.007
Mof_H 	H 	0.7354	0.4836	0.5164	0.129
Mof_H 	H 	0.2518	4.34837e-17	0.4836	0.121
Mof_C 	C 	0.3148	0.4932	0.4129	-0.381
Mof_C 	C 	0.08525	0	0.50325	-0.389
Mof_C 	C 	0.0383	0.5336	0.9047	0.321
Mof_C 	C 	0.8216	0.0939	0.4932	-0.323
Mof_C 	C 	0.68925	-4.34837e-17	0.55725	0.255
Mof_C 	C 	0.8216	0.5068	0.9061	-0.313
Mof_C 	C 	0.2465	0.55725	0.44275	0.253
Mof_C 	C 	0.943	0.4383	0.0953	0.418
Mof_C 	C 	0.5885	0.50325	0.49675	-0.347
Mof_C 	C 	0.943	0.9047	0.5617	0.415
Mof_C 	C 	0.5047	0.4664	0.4383	0.371
Mof_C 	C 	0.68925	0.44275	-0	0.236
Mof_C 	C 	0.7449	0.541	0.8143	0.438
Mof_C 	C 	0.7277	0.9061	0.5871	-0.387
Mof_C 	C 	0.7449	0.1857	0.459	0.441
Mof_C 	C 	0.2039	0.459	0.3553	0.454
Mof_C 	C 	0.5592	0.8143	0.6447	0.461
Mof_C 	C 	0.7277	0.4129	0.0939	-0.374
Mof_C 	C 	0.2039	0.6447	0.541	0.454
Mof_C 	C 	0.0383	0.0953	0.4664	0.324
Mof_C 	C 	0.5047	0.5617	0.5336	0.371
Mof_C 	C 	0.08525	0.49675	-0	-0.395
Mof_C 	C 	0.5592	0.3553	0.1857	0.457
Mof_C 	C 	0.3148	0.5871	0.5068	-0.382
Mof_O 	O 	0.5824	0.4045	0.4145	-0.56
Mof_O 	O 	0.872	0.6114	0.7263	-0.56
Mof_O 	O 	0.0613	0.5013	0.3265	-0.479
Mof_O 	O 	0.9969	0.4145	0.181	-0.548
Mof_O 	O 	0.3878	0.3265	0.1722	-0.46
Mof_O 	O 	0.1779	0.181	0.4045	-0.565
Mof_O 	O 	0.2606	0.6623	0.6114	-0.6
Mof_O 	O 	0.5824	0.5855	0.5955	-0.56
Mof_O 	O 	0.3878	0.8278	0.6735	-0.465
Mof_O 	O 	0.1779	0.5955	0.819	-0.565
Mof_O 	O 	0.56	0.1722	0.5013	-0.449
Mof_O 	O 	0.5983	0.3377	0.2737	-0.589
Mof_O 	O 	0.2606	0.3886	0.3377	-0.6
Mof_O 	O 	0.56	0.4987	0.8278	-0.448
Mof_O 	O 	0.9969	0.819	0.5855	-0.548
Mof_O 	O 	0.5983	0.7263	0.6623	-0.59
Mof_O 	O 	0.0613	0.6735	0.4987	-0.48
Mof_O 	O 	0.872	0.2737	0.3886	-0.561
_end
