# CIF file generated by openbabel 3.1.0, see https://openbabel.org
data_I
_chemical_name_common 'image0'
_cell_length_a 27.2448
_cell_length_b 27.2448
_cell_length_c 19.2254
_cell_angle_alpha 90
_cell_angle_beta 90
_cell_angle_gamma 90
_space_group_name_H-M_alt 'P 1'
_space_group_name_Hall 'P 1'
loop_
    _symmetry_equiv_pos_as_xyz
    x,y,z
loop_
    _atom_site_label
    _atom_site_type_symbol
    _atom_site_fract_x
    _atom_site_fract_y
    _atom_site_fract_z
    _atom_site_occupancy
    C1       C        0.19270    0.15740    0.25080    1.000
    H1       H        0.20300    0.13950    0.28930    1.000
    C2       C        0.32550    0.14460    0.03450    1.000
    H2       H        0.34950    0.15860    0.06250    1.000
    H3       H        0.19560    0.08940    0.95860    1.000
    C3       C        0.36080    0.10170    0.23830    1.000
    H4       H        0.36280    0.06770    0.23930    1.000
    C4       C        0.37040    0.11120    0.21710    1.000
    H5       H        0.38610    0.09150    0.18460    1.000
    C5       C        0.21640    0.02780    0.22750    1.000
    H6       H        0.19900    0.04870    0.25680    1.000
    C6       C        0.20090    0.02440    0.19100    1.000
    H7       H        0.17420    0.04430    0.20090    1.000
    N1       N        0.32316    0.13076    0.21521    1.000
    N2       N        0.24833    0.04064    0.17350    1.000
    N3       N        0.21044    0.15277    0.18500    1.000
    N4       N        0.28516    0.12090    0.05790    1.000
    Zn1      Zn       0.26649    0.11025    0.15652    1.000
    C7       C        0.69270    0.65740    0.75080    1.000
    H8       H        0.70300    0.63950    0.78930    1.000
    C8       C        0.82550    0.64460    0.53450    1.000
    H9       H        0.84950    0.65860    0.56250    1.000
    H10      H        0.69560    0.58940    0.45860    1.000
    C9       C        0.86080    0.60170    0.73830    1.000
    H11      H        0.86280    0.56770    0.73930    1.000
    C10      C        0.87040    0.61120    0.71710    1.000
    H12      H        0.88610    0.59150    0.68460    1.000
    C11      C        0.71640    0.52780    0.72750    1.000
    H13      H        0.69900    0.54870    0.75680    1.000
    C12      C        0.70090    0.52440    0.69100    1.000
    H14      H        0.67420    0.54430    0.70090    1.000
    N5       N        0.82316    0.63076    0.71521    1.000
    N6       N        0.74833    0.54064    0.67350    1.000
    N7       N        0.71044    0.65277    0.68500    1.000
    N8       N        0.78516    0.62090    0.55790    1.000
    Zn2      Zn       0.76649    0.61025    0.65652    1.000
    C13      C        0.80730    0.84260    0.25080    1.000
    H15      H        0.79700    0.86050    0.28930    1.000
    C14      C        0.67450    0.85540    0.03450    1.000
    H16      H        0.65050    0.84140    0.06250    1.000
    H17      H        0.80440    0.91060    0.95860    1.000
    C15      C        0.63920    0.89830    0.23830    1.000
    H18      H        0.63720    0.93230    0.23930    1.000
    C16      C        0.62960    0.88880    0.21710    1.000
    H19      H        0.61390    0.90850    0.18460    1.000
    C17      C        0.78360    0.97220    0.22750    1.000
    H20      H        0.80100    0.95130    0.25680    1.000
    C18      C        0.79910    0.97560    0.19100    1.000
    H21      H        0.82580    0.95570    0.20090    1.000
    N9       N        0.67684    0.86924    0.21521    1.000
    N10      N        0.75167    0.95936    0.17350    1.000
    N11      N        0.78956    0.84723    0.18500    1.000
    N12      N        0.71484    0.87910    0.05790    1.000
    Zn3      Zn       0.73351    0.88975    0.15652    1.000
    C19      C        0.30730    0.34260    0.75080    1.000
    H22      H        0.29700    0.36050    0.78930    1.000
    C20      C        0.17450    0.35540    0.53450    1.000
    H23      H        0.15050    0.34140    0.56250    1.000
    H24      H        0.30440    0.41060    0.45860    1.000
    C21      C        0.13920    0.39830    0.73830    1.000
    H25      H        0.13720    0.43230    0.73930    1.000
    C22      C        0.12960    0.38880    0.71710    1.000
    H26      H        0.11390    0.40850    0.68460    1.000
    C23      C        0.28360    0.47220    0.72750    1.000
    H27      H        0.30100    0.45130    0.75680    1.000
    C24      C        0.29910    0.47560    0.69100    1.000
    H28      H        0.32580    0.45570    0.70090    1.000
    N13      N        0.17684    0.36924    0.71521    1.000
    N14      N        0.25167    0.45936    0.67350    1.000
    N15      N        0.28956    0.34723    0.68500    1.000
    N16      N        0.21484    0.37910    0.55790    1.000
    Zn4      Zn       0.23351    0.38975    0.65652    1.000
    C25      C        0.84260    0.19270    0.25080    1.000
    H29      H        0.86050    0.20300    0.28930    1.000
    C26      C        0.85540    0.32550    0.03450    1.000
    H30      H        0.84140    0.34950    0.06250    1.000
    H31      H        0.91060    0.19560    0.95860    1.000
    C27      C        0.89830    0.36080    0.23830    1.000
    H32      H        0.93230    0.36280    0.23930    1.000
    C28      C        0.88880    0.37040    0.21710    1.000
    H33      H        0.90850    0.38610    0.18460    1.000
    C29      C        0.97220    0.21640    0.22750    1.000
    H34      H        0.95130    0.19900    0.25680    1.000
    C30      C        0.97560    0.20090    0.19100    1.000
    H35      H        0.95570    0.17420    0.20090    1.000
    N17      N        0.86924    0.32316    0.21521    1.000
    N18      N        0.95936    0.24833    0.17350    1.000
    N19      N        0.84723    0.21044    0.18500    1.000
    N20      N        0.87910    0.28516    0.05790    1.000
    Zn5      Zn       0.88975    0.26649    0.15652    1.000
    C31      C        0.34260    0.69270    0.75080    1.000
    H36      H        0.36050    0.70300    0.78930    1.000
    C32      C        0.35540    0.82550    0.53450    1.000
    H37      H        0.34140    0.84950    0.56250    1.000
    H38      H        0.41060    0.69560    0.45860    1.000
    C33      C        0.39830    0.86080    0.73830    1.000
    H39      H        0.43230    0.86280    0.73930    1.000
    C34      C        0.38880    0.87040    0.71710    1.000
    H40      H        0.40850    0.88610    0.68460    1.000
    C35      C        0.47220    0.71640    0.72750    1.000
    H41      H        0.45130    0.69900    0.75680    1.000
    C36      C        0.47560    0.70090    0.69100    1.000
    H42      H        0.45570    0.67420    0.70090    1.000
    N21      N        0.36924    0.82316    0.71521    1.000
    N22      N        0.45936    0.74833    0.67350    1.000
    N23      N        0.34723    0.71044    0.68500    1.000
    N24      N        0.37910    0.78516    0.55790    1.000
    Zn6      Zn       0.38975    0.76649    0.65652    1.000
    C37      C        0.15740    0.80730    0.25080    1.000
    H43      H        0.13950    0.79700    0.28930    1.000
    C38      C        0.14460    0.67450    0.03450    1.000
    H44      H        0.15860    0.65050    0.06250    1.000
    H45      H        0.08940    0.80440    0.95860    1.000
    C39      C        0.10170    0.63920    0.23830    1.000
    H46      H        0.06770    0.63720    0.23930    1.000
    C40      C        0.11120    0.62960    0.21710    1.000
    H47      H        0.09150    0.61390    0.18460    1.000
    C41      C        0.02780    0.78360    0.22750    1.000
    H48      H        0.04870    0.80100    0.25680    1.000
    C42      C        0.02440    0.79910    0.19100    1.000
    H49      H        0.04430    0.82580    0.20090    1.000
    N25      N        0.13076    0.67684    0.21521    1.000
    N26      N        0.04064    0.75167    0.17350    1.000
    N27      N        0.15277    0.78956    0.18500    1.000
    N28      N        0.12090    0.71484    0.05790    1.000
    Zn7      Zn       0.11025    0.73351    0.15652    1.000
    C43      C        0.65740    0.30730    0.75080    1.000
    H50      H        0.63950    0.29700    0.78930    1.000
    C44      C        0.64460    0.17450    0.53450    1.000
    H51      H        0.65860    0.15050    0.56250    1.000
    H52      H        0.58940    0.30440    0.45860    1.000
    C45      C        0.60170    0.13920    0.73830    1.000
    H53      H        0.56770    0.13720    0.73930    1.000
    C46      C        0.61120    0.12960    0.71710    1.000
    H54      H        0.59150    0.11390    0.68460    1.000
    C47      C        0.52780    0.28360    0.72750    1.000
    H55      H        0.54870    0.30100    0.75680    1.000
    C48      C        0.52440    0.29910    0.69100    1.000
    H56      H        0.54430    0.32580    0.70090    1.000
    N29      N        0.63076    0.17684    0.71521    1.000
    N30      N        0.54064    0.25167    0.67350    1.000
    N31      N        0.65277    0.28956    0.68500    1.000
    N32      N        0.62090    0.21484    0.55790    1.000
    Zn8      Zn       0.61025    0.23351    0.65652    1.000
    C49      C        0.80730    0.15740    0.74920    1.000
    H57      H        0.79700    0.13950    0.71070    1.000
    C50      C        0.67450    0.14460    0.96550    1.000
    H58      H        0.65050    0.15860    0.93750    1.000
    H59      H        0.80440    0.08940    0.04140    1.000
    C51      C        0.63920    0.10170    0.76170    1.000
    H60      H        0.63720    0.06770    0.76070    1.000
    C52      C        0.62960    0.11120    0.78290    1.000
    H61      H        0.61390    0.09150    0.81540    1.000
    C53      C        0.78360    0.02780    0.77250    1.000
    H62      H        0.80100    0.04870    0.74320    1.000
    C54      C        0.79910    0.02440    0.80900    1.000
    H63      H        0.82580    0.04430    0.79910    1.000
    N33      N        0.67684    0.13076    0.78479    1.000
    N34      N        0.75167    0.04064    0.82650    1.000
    N35      N        0.78956    0.15277    0.81500    1.000
    N36      N        0.71484    0.12090    0.94210    1.000
    Zn9      Zn       0.73351    0.11025    0.84348    1.000
    C55      C        0.30730    0.65740    0.24920    1.000
    H64      H        0.29700    0.63950    0.21070    1.000
    C56      C        0.17450    0.64460    0.46550    1.000
    H65      H        0.15050    0.65860    0.43750    1.000
    H66      H        0.30440    0.58940    0.54140    1.000
    C57      C        0.13920    0.60170    0.26170    1.000
    H67      H        0.13720    0.56770    0.26070    1.000
    C58      C        0.12960    0.61120    0.28290    1.000
    H68      H        0.11390    0.59150    0.31540    1.000
    C59      C        0.28360    0.52780    0.27250    1.000
    H69      H        0.30100    0.54870    0.24320    1.000
    C60      C        0.29910    0.52440    0.30900    1.000
    H70      H        0.32580    0.54430    0.29910    1.000
    N37      N        0.17684    0.63076    0.28479    1.000
    N38      N        0.25167    0.54064    0.32650    1.000
    N39      N        0.28956    0.65277    0.31500    1.000
    N40      N        0.21484    0.62090    0.44210    1.000
    Zn10     Zn       0.23351    0.61025    0.34348    1.000
    C61      C        0.19270    0.84260    0.74920    1.000
    H71      H        0.20300    0.86050    0.71070    1.000
    C62      C        0.32550    0.85540    0.96550    1.000
    H72      H        0.34950    0.84140    0.93750    1.000
    H73      H        0.19560    0.91060    0.04140    1.000
    C63      C        0.36080    0.89830    0.76170    1.000
    H74      H        0.36280    0.93230    0.76070    1.000
    C64      C        0.37040    0.88880    0.78290    1.000
    H75      H        0.38610    0.90850    0.81540    1.000
    C65      C        0.21640    0.97220    0.77250    1.000
    H76      H        0.19900    0.95130    0.74320    1.000
    C66      C        0.20090    0.97560    0.80900    1.000
    H77      H        0.17420    0.95570    0.79910    1.000
    N41      N        0.32316    0.86924    0.78479    1.000
    N42      N        0.24833    0.95936    0.82650    1.000
    N43      N        0.21044    0.84723    0.81500    1.000
    N44      N        0.28516    0.87910    0.94210    1.000
    Zn11     Zn       0.26649    0.88975    0.84348    1.000
    C67      C        0.69270    0.34260    0.24920    1.000
    H78      H        0.70300    0.36050    0.21070    1.000
    C68      C        0.82550    0.35540    0.46550    1.000
    H79      H        0.84950    0.34140    0.43750    1.000
    H80      H        0.69560    0.41060    0.54140    1.000
    C69      C        0.86080    0.39830    0.26170    1.000
    H81      H        0.86280    0.43230    0.26070    1.000
    C70      C        0.87040    0.38880    0.28290    1.000
    H82      H        0.88610    0.40850    0.31540    1.000
    C71      C        0.71640    0.47220    0.27250    1.000
    H83      H        0.69900    0.45130    0.24320    1.000
    C72      C        0.70090    0.47560    0.30900    1.000
    H84      H        0.67420    0.45570    0.29910    1.000
    N45      N        0.82316    0.36924    0.28479    1.000
    N46      N        0.74833    0.45936    0.32650    1.000
    N47      N        0.71044    0.34723    0.31500    1.000
    N48      N        0.78516    0.37910    0.44210    1.000
    Zn12     Zn       0.76649    0.38975    0.34348    1.000
    C73      C        0.15740    0.19270    0.74920    1.000
    H85      H        0.13950    0.20300    0.71070    1.000
    C74      C        0.14460    0.32550    0.96550    1.000
    H86      H        0.15860    0.34950    0.93750    1.000
    H87      H        0.08940    0.19560    0.04140    1.000
    C75      C        0.10170    0.36080    0.76170    1.000
    H88      H        0.06770    0.36280    0.76070    1.000
    C76      C        0.11120    0.37040    0.78290    1.000
    H89      H        0.09150    0.38610    0.81540    1.000
    C77      C        0.02780    0.21640    0.77250    1.000
    H90      H        0.04870    0.19900    0.74320    1.000
    C78      C        0.02440    0.20090    0.80900    1.000
    H91      H        0.04430    0.17420    0.79910    1.000
    N49      N        0.13076    0.32316    0.78479    1.000
    N50      N        0.04064    0.24833    0.82650    1.000
    N51      N        0.15277    0.21044    0.81500    1.000
    N52      N        0.12090    0.28516    0.94210    1.000
    Zn13     Zn       0.11025    0.26649    0.84348    1.000
    C79      C        0.65740    0.69270    0.24920    1.000
    H92      H        0.63950    0.70300    0.21070    1.000
    C80      C        0.64460    0.82550    0.46550    1.000
    H93      H        0.65860    0.84950    0.43750    1.000
    H94      H        0.58940    0.69560    0.54140    1.000
    C81      C        0.60170    0.86080    0.26170    1.000
    H95      H        0.56770    0.86280    0.26070    1.000
    C82      C        0.61120    0.87040    0.28290    1.000
    H96      H        0.59150    0.88610    0.31540    1.000
    C83      C        0.52780    0.71640    0.27250    1.000
    H97      H        0.54870    0.69900    0.24320    1.000
    C84      C        0.52440    0.70090    0.30900    1.000
    H98      H        0.54430    0.67420    0.29910    1.000
    N53      N        0.63076    0.82316    0.28479    1.000
    N54      N        0.54064    0.74833    0.32650    1.000
    N55      N        0.65277    0.71044    0.31500    1.000
    N56      N        0.62090    0.78516    0.44210    1.000
    Zn14     Zn       0.61025    0.76649    0.34348    1.000
    C85      C        0.84260    0.80730    0.74920    1.000
    H99      H        0.86050    0.79700    0.71070    1.000
    C86      C        0.85540    0.67450    0.96550    1.000
    H100     H        0.84140    0.65050    0.93750    1.000
    H101     H        0.91060    0.80440    0.04140    1.000
    C87      C        0.89830    0.63920    0.76170    1.000
    H102     H        0.93230    0.63720    0.76070    1.000
    C88      C        0.88880    0.62960    0.78290    1.000
    H103     H        0.90850    0.61390    0.81540    1.000
    C89      C        0.97220    0.78360    0.77250    1.000
    H104     H        0.95130    0.80100    0.74320    1.000
    C90      C        0.97560    0.79910    0.80900    1.000
    H105     H        0.95570    0.82580    0.79910    1.000
    N57      N        0.86924    0.67684    0.78479    1.000
    N58      N        0.95936    0.75167    0.82650    1.000
    N59      N        0.84723    0.78956    0.81500    1.000
    N60      N        0.87910    0.71484    0.94210    1.000
    Zn15     Zn       0.88975    0.73351    0.84348    1.000
    C91      C        0.34260    0.30730    0.24920    1.000
    H106     H        0.36050    0.29700    0.21070    1.000
    C92      C        0.35540    0.17450    0.46550    1.000
    H107     H        0.34140    0.15050    0.43750    1.000
    H108     H        0.41060    0.30440    0.54140    1.000
    C93      C        0.39830    0.13920    0.26170    1.000
    H109     H        0.43230    0.13720    0.26070    1.000
    C94      C        0.38880    0.12960    0.28290    1.000
    H110     H        0.40850    0.11390    0.31540    1.000
    C95      C        0.47220    0.28360    0.27250    1.000
    H111     H        0.45130    0.30100    0.24320    1.000
    C96      C        0.47560    0.29910    0.30900    1.000
    H112     H        0.45570    0.32580    0.29910    1.000
    N61      N        0.36924    0.17684    0.28479    1.000
    N62      N        0.45936    0.25167    0.32650    1.000
    N63      N        0.34723    0.28956    0.31500    1.000
    N64      N        0.37910    0.21484    0.44210    1.000
    Zn16     Zn       0.38975    0.23351    0.34348    1.000
    C97      C        0.80730    0.84260    0.74920    1.000
    H113     H        0.79700    0.86050    0.71070    1.000
    C98      C        0.67450    0.85540    0.96550    1.000
    H114     H        0.65050    0.84140    0.93750    1.000
    H115     H        0.80440    0.91060    0.04140    1.000
    C99      C        0.63920    0.89830    0.76170    1.000
    H116     H        0.63720    0.93230    0.76070    1.000
    C100     C        0.62960    0.88880    0.78290    1.000
    H117     H        0.61390    0.90850    0.81540    1.000
    C101     C        0.78360    0.97220    0.77250    1.000
    H118     H        0.80100    0.95130    0.74320    1.000
    C102     C        0.79910    0.97560    0.80900    1.000
    H119     H        0.82580    0.95570    0.79910    1.000
    N65      N        0.67684    0.86924    0.78479    1.000
    N66      N        0.75167    0.95936    0.82650    1.000
    N67      N        0.78956    0.84723    0.81500    1.000
    N68      N        0.71484    0.87910    0.94210    1.000
    Zn17     Zn       0.73351    0.88975    0.84348    1.000
    C103     C        0.30730    0.34260    0.24920    1.000
    H120     H        0.29700    0.36050    0.21070    1.000
    C104     C        0.17450    0.35540    0.46550    1.000
    H121     H        0.15050    0.34140    0.43750    1.000
    H122     H        0.30440    0.41060    0.54140    1.000
    C105     C        0.13920    0.39830    0.26170    1.000
    H123     H        0.13720    0.43230    0.26070    1.000
    C106     C        0.12960    0.38880    0.28290    1.000
    H124     H        0.11390    0.40850    0.31540    1.000
    C107     C        0.28360    0.47220    0.27250    1.000
    H125     H        0.30100    0.45130    0.24320    1.000
    C108     C        0.29910    0.47560    0.30900    1.000
    H126     H        0.32580    0.45570    0.29910    1.000
    N69      N        0.17684    0.36924    0.28479    1.000
    N70      N        0.25167    0.45936    0.32650    1.000
    N71      N        0.28956    0.34723    0.31500    1.000
    N72      N        0.21484    0.37910    0.44210    1.000
    Zn18     Zn       0.23351    0.38975    0.34348    1.000
    C109     C        0.19270    0.15740    0.74920    1.000
    H127     H        0.20300    0.13950    0.71070    1.000
    C110     C        0.32550    0.14460    0.96550    1.000
    H128     H        0.34950    0.15860    0.93750    1.000
    H129     H        0.19560    0.08940    0.04140    1.000
    C111     C        0.36080    0.10170    0.76170    1.000
    H130     H        0.36280    0.06770    0.76070    1.000
    C112     C        0.37040    0.11120    0.78290    1.000
    H131     H        0.38610    0.09150    0.81540    1.000
    C113     C        0.21640    0.02780    0.77250    1.000
    H132     H        0.19900    0.04870    0.74320    1.000
    C114     C        0.20090    0.02440    0.80900    1.000
    H133     H        0.17420    0.04430    0.79910    1.000
    N73      N        0.32316    0.13076    0.78479    1.000
    N74      N        0.24833    0.04064    0.82650    1.000
    N75      N        0.21044    0.15277    0.81500    1.000
    N76      N        0.28516    0.12090    0.94210    1.000
    Zn19     Zn       0.26649    0.11025    0.84348    1.000
    C115     C        0.69270    0.65740    0.24920    1.000
    H134     H        0.70300    0.63950    0.21070    1.000
    C116     C        0.82550    0.64460    0.46550    1.000
    H135     H        0.84950    0.65860    0.43750    1.000
    H136     H        0.69560    0.58940    0.54140    1.000
    C117     C        0.86080    0.60170    0.26170    1.000
    H137     H        0.86280    0.56770    0.26070    1.000
    C118     C        0.87040    0.61120    0.28290    1.000
    H138     H        0.88610    0.59150    0.31540    1.000
    C119     C        0.71640    0.52780    0.27250    1.000
    H139     H        0.69900    0.54870    0.24320    1.000
    C120     C        0.70090    0.52440    0.30900    1.000
    H140     H        0.67420    0.54430    0.29910    1.000
    N77      N        0.82316    0.63076    0.28479    1.000
    N78      N        0.74833    0.54064    0.32650    1.000
    N79      N        0.71044    0.65277    0.31500    1.000
    N80      N        0.78516    0.62090    0.44210    1.000
    Zn20     Zn       0.76649    0.61025    0.34348    1.000
    C121     C        0.15740    0.80730    0.74920    1.000
    H141     H        0.13950    0.79700    0.71070    1.000
    C122     C        0.14460    0.67450    0.96550    1.000
    H142     H        0.15860    0.65050    0.93750    1.000
    H143     H        0.08940    0.80440    0.04140    1.000
    C123     C        0.10170    0.63920    0.76170    1.000
    H144     H        0.06770    0.63720    0.76070    1.000
    C124     C        0.11120    0.62960    0.78290    1.000
    H145     H        0.09150    0.61390    0.81540    1.000
    C125     C        0.02780    0.78360    0.77250    1.000
    H146     H        0.04870    0.80100    0.74320    1.000
    C126     C        0.02440    0.79910    0.80900    1.000
    H147     H        0.04430    0.82580    0.79910    1.000
    N81      N        0.13076    0.67684    0.78479    1.000
    N82      N        0.04064    0.75167    0.82650    1.000
    N83      N        0.15277    0.78956    0.81500    1.000
    N84      N        0.12090    0.71484    0.94210    1.000
    Zn21     Zn       0.11025    0.73351    0.84348    1.000
    C127     C        0.65740    0.30730    0.24920    1.000
    H148     H        0.63950    0.29700    0.21070    1.000
    C128     C        0.64460    0.17450    0.46550    1.000
    H149     H        0.65860    0.15050    0.43750    1.000
    H150     H        0.58940    0.30440    0.54140    1.000
    C129     C        0.60170    0.13920    0.26170    1.000
    H151     H        0.56770    0.13720    0.26070    1.000
    C130     C        0.61120    0.12960    0.28290    1.000
    H152     H        0.59150    0.11390    0.31540    1.000
    C131     C        0.52780    0.28360    0.27250    1.000
    H153     H        0.54870    0.30100    0.24320    1.000
    C132     C        0.52440    0.29910    0.30900    1.000
    H154     H        0.54430    0.32580    0.29910    1.000
    N85      N        0.63076    0.17684    0.28479    1.000
    N86      N        0.54064    0.25167    0.32650    1.000
    N87      N        0.65277    0.28956    0.31500    1.000
    N88      N        0.62090    0.21484    0.44210    1.000
    Zn22     Zn       0.61025    0.23351    0.34348    1.000
    C133     C        0.84260    0.19270    0.74920    1.000
    H155     H        0.86050    0.20300    0.71070    1.000
    C134     C        0.85540    0.32550    0.96550    1.000
    H156     H        0.84140    0.34950    0.93750    1.000
    H157     H        0.91060    0.19560    0.04140    1.000
    C135     C        0.89830    0.36080    0.76170    1.000
    H158     H        0.93230    0.36280    0.76070    1.000
    C136     C        0.88880    0.37040    0.78290    1.000
    H159     H        0.90850    0.38610    0.81540    1.000
    C137     C        0.97220    0.21640    0.77250    1.000
    H160     H        0.95130    0.19900    0.74320    1.000
    C138     C        0.97560    0.20090    0.80900    1.000
    H161     H        0.95570    0.17420    0.79910    1.000
    N89      N        0.86924    0.32316    0.78479    1.000
    N90      N        0.95936    0.24833    0.82650    1.000
    N91      N        0.84723    0.21044    0.81500    1.000
    N92      N        0.87910    0.28516    0.94210    1.000
    Zn23     Zn       0.88975    0.26649    0.84348    1.000
    C139     C        0.34260    0.69270    0.24920    1.000
    H162     H        0.36050    0.70300    0.21070    1.000
    C140     C        0.35540    0.82550    0.46550    1.000
    H163     H        0.34140    0.84950    0.43750    1.000
    H164     H        0.41060    0.69560    0.54140    1.000
    C141     C        0.39830    0.86080    0.26170    1.000
    H165     H        0.43230    0.86280    0.26070    1.000
    C142     C        0.38880    0.87040    0.28290    1.000
    H166     H        0.40850    0.88610    0.31540    1.000
    C143     C        0.47220    0.71640    0.27250    1.000
    H167     H        0.45130    0.69900    0.24320    1.000
    C144     C        0.47560    0.70090    0.30900    1.000
    H168     H        0.45570    0.67420    0.29910    1.000
    N93      N        0.36924    0.82316    0.28479    1.000
    N94      N        0.45936    0.74833    0.32650    1.000
    N95      N        0.34723    0.71044    0.31500    1.000
    N96      N        0.37910    0.78516    0.44210    1.000
    Zn24     Zn       0.38975    0.76649    0.34348    1.000
    C145     C        0.19270    0.84260    0.25080    1.000
    H169     H        0.20300    0.86050    0.28930    1.000
    C146     C        0.32550    0.85540    0.03450    1.000
    H170     H        0.34950    0.84140    0.06250    1.000
    H171     H        0.19560    0.91060    0.95860    1.000
    C147     C        0.36080    0.89830    0.23830    1.000
    H172     H        0.36280    0.93230    0.23930    1.000
    C148     C        0.37040    0.88880    0.21710    1.000
    H173     H        0.38610    0.90850    0.18460    1.000
    C149     C        0.21640    0.97220    0.22750    1.000
    H174     H        0.19900    0.95130    0.25680    1.000
    C150     C        0.20090    0.97560    0.19100    1.000
    H175     H        0.17420    0.95570    0.20090    1.000
    N97      N        0.32316    0.86924    0.21521    1.000
    N98      N        0.24833    0.95936    0.17350    1.000
    N99      N        0.21044    0.84723    0.18500    1.000
    N100     N        0.28516    0.87910    0.05790    1.000
    Zn25     Zn       0.26649    0.88975    0.15652    1.000
    C151     C        0.69270    0.34260    0.75080    1.000
    H176     H        0.70300    0.36050    0.78930    1.000
    C152     C        0.82550    0.35540    0.53450    1.000
    H177     H        0.84950    0.34140    0.56250    1.000
    H178     H        0.69560    0.41060    0.45860    1.000
    C153     C        0.86080    0.39830    0.73830    1.000
    H179     H        0.86280    0.43230    0.73930    1.000
    C154     C        0.87040    0.38880    0.71710    1.000
    H180     H        0.88610    0.40850    0.68460    1.000
    C155     C        0.71640    0.47220    0.72750    1.000
    H181     H        0.69900    0.45130    0.75680    1.000
    C156     C        0.70090    0.47560    0.69100    1.000
    H182     H        0.67420    0.45570    0.70090    1.000
    N101     N        0.82316    0.36924    0.71521    1.000
    N102     N        0.74833    0.45936    0.67350    1.000
    N103     N        0.71044    0.34723    0.68500    1.000
    N104     N        0.78516    0.37910    0.55790    1.000
    Zn26     Zn       0.76649    0.38975    0.65652    1.000
    C157     C        0.80730    0.15740    0.25080    1.000
    H183     H        0.79700    0.13950    0.28930    1.000
    C158     C        0.67450    0.14460    0.03450    1.000
    H184     H        0.65050    0.15860    0.06250    1.000
    H185     H        0.80440    0.08940    0.95860    1.000
    C159     C        0.63920    0.10170    0.23830    1.000
    H186     H        0.63720    0.06770    0.23930    1.000
    C160     C        0.62960    0.11120    0.21710    1.000
    H187     H        0.61390    0.09150    0.18460    1.000
    C161     C        0.78360    0.02780    0.22750    1.000
    H188     H        0.80100    0.04870    0.25680    1.000
    C162     C        0.79910    0.02440    0.19100    1.000
    H189     H        0.82580    0.04430    0.20090    1.000
    N105     N        0.67684    0.13076    0.21521    1.000
    N106     N        0.75167    0.04064    0.17350    1.000
    N107     N        0.78956    0.15277    0.18500    1.000
    N108     N        0.71484    0.12090    0.05790    1.000
    Zn27     Zn       0.73351    0.11025    0.15652    1.000
    C163     C        0.30730    0.65740    0.75080    1.000
    H190     H        0.29700    0.63950    0.78930    1.000
    C164     C        0.17450    0.64460    0.53450    1.000
    H191     H        0.15050    0.65860    0.56250    1.000
    H192     H        0.30440    0.58940    0.45860    1.000
    C165     C        0.13920    0.60170    0.73830    1.000
    H193     H        0.13720    0.56770    0.73930    1.000
    C166     C        0.12960    0.61120    0.71710    1.000
    H194     H        0.11390    0.59150    0.68460    1.000
    C167     C        0.28360    0.52780    0.72750    1.000
    H195     H        0.30100    0.54870    0.75680    1.000
    C168     C        0.29910    0.52440    0.69100    1.000
    H196     H        0.32580    0.54430    0.70090    1.000
    N109     N        0.17684    0.63076    0.71521    1.000
    N110     N        0.25167    0.54064    0.67350    1.000
    N111     N        0.28956    0.65277    0.68500    1.000
    N112     N        0.21484    0.62090    0.55790    1.000
    Zn28     Zn       0.23351    0.61025    0.65652    1.000
    C169     C        0.84260    0.80730    0.25080    1.000
    H197     H        0.86050    0.79700    0.28930    1.000
    C170     C        0.85540    0.67450    0.03450    1.000
    H198     H        0.84140    0.65050    0.06250    1.000
    H199     H        0.91060    0.80440    0.95860    1.000
    C171     C        0.89830    0.63920    0.23830    1.000
    H200     H        0.93230    0.63720    0.23930    1.000
    C172     C        0.88880    0.62960    0.21710    1.000
    H201     H        0.90850    0.61390    0.18460    1.000
    C173     C        0.97220    0.78360    0.22750    1.000
    H202     H        0.95130    0.80100    0.25680    1.000
    C174     C        0.97560    0.79910    0.19100    1.000
    H203     H        0.95570    0.82580    0.20090    1.000
    N113     N        0.86924    0.67684    0.21521    1.000
    N114     N        0.95936    0.75167    0.17350    1.000
    N115     N        0.84723    0.78956    0.18500    1.000
    N116     N        0.87910    0.71484    0.05790    1.000
    Zn29     Zn       0.88975    0.73351    0.15652    1.000
    C175     C        0.34260    0.30730    0.75080    1.000
    H204     H        0.36050    0.29700    0.78930    1.000
    C176     C        0.35540    0.17450    0.53450    1.000
    H205     H        0.34140    0.15050    0.56250    1.000
    H206     H        0.41060    0.30440    0.45860    1.000
    C177     C        0.39830    0.13920    0.73830    1.000
    H207     H        0.43230    0.13720    0.73930    1.000
    C178     C        0.38880    0.12960    0.71710    1.000
    H208     H        0.40850    0.11390    0.68460    1.000
    C179     C        0.47220    0.28360    0.72750    1.000
    H209     H        0.45130    0.30100    0.75680    1.000
    C180     C        0.47560    0.29910    0.69100    1.000
    H210     H        0.45570    0.32580    0.70090    1.000
    N117     N        0.36924    0.17684    0.71521    1.000
    N118     N        0.45936    0.25167    0.67350    1.000
    N119     N        0.34723    0.28956    0.68500    1.000
    N120     N        0.37910    0.21484    0.55790    1.000
    Zn30     Zn       0.38975    0.23351    0.65652    1.000
    C181     C        0.15740    0.19270    0.25080    1.000
    H211     H        0.13950    0.20300    0.28930    1.000
    C182     C        0.14460    0.32550    0.03450    1.000
    H212     H        0.15860    0.34950    0.06250    1.000
    H213     H        0.08940    0.19560    0.95860    1.000
    C183     C        0.10170    0.36080    0.23830    1.000
    H214     H        0.06770    0.36280    0.23930    1.000
    C184     C        0.11120    0.37040    0.21710    1.000
    H215     H        0.09150    0.38610    0.18460    1.000
    C185     C        0.02780    0.21640    0.22750    1.000
    H216     H        0.04870    0.19900    0.25680    1.000
    C186     C        0.02440    0.20090    0.19100    1.000
    H217     H        0.04430    0.17420    0.20090    1.000
    N121     N        0.13076    0.32316    0.21521    1.000
    N122     N        0.04064    0.24833    0.17350    1.000
    N123     N        0.15277    0.21044    0.18500    1.000
    N124     N        0.12090    0.28516    0.05790    1.000
    Zn31     Zn       0.11025    0.26649    0.15652    1.000
    C187     C        0.65740    0.69270    0.75080    1.000
    H218     H        0.63950    0.70300    0.78930    1.000
    C188     C        0.64460    0.82550    0.53450    1.000
    H219     H        0.65860    0.84950    0.56250    1.000
    H220     H        0.58940    0.69560    0.45860    1.000
    C189     C        0.60170    0.86080    0.73830    1.000
    H221     H        0.56770    0.86280    0.73930    1.000
    C190     C        0.61120    0.87040    0.71710    1.000
    H222     H        0.59150    0.88610    0.68460    1.000
    C191     C        0.52780    0.71640    0.72750    1.000
    H223     H        0.54870    0.69900    0.75680    1.000
    C192     C        0.52440    0.70090    0.69100    1.000
    H224     H        0.54430    0.67420    0.70090    1.000
    N125     N        0.63076    0.82316    0.71521    1.000
    N126     N        0.54064    0.74833    0.67350    1.000
    N127     N        0.65277    0.71044    0.68500    1.000
    N128     N        0.62090    0.78516    0.55790    1.000
    Zn32     Zn       0.61025    0.76649    0.65652    1.000
    C193     C        0.32762    0.17238    0.25000    1.000
    H225     H        0.30350    0.19650    0.25000    1.000
    C194     C        0.67238    0.82762    0.25000    1.000
    H226     H        0.69650    0.80350    0.25000    1.000
    C195     C        0.82762    0.32762    0.25000    1.000
    H227     H        0.80350    0.30350    0.25000    1.000
    C196     C        0.17238    0.67238    0.25000    1.000
    H228     H        0.19650    0.69650    0.25000    1.000
    C197     C        0.67238    0.17238    0.75000    1.000
    H229     H        0.69650    0.19650    0.75000    1.000
    C198     C        0.32762    0.82762    0.75000    1.000
    H230     H        0.30350    0.80350    0.75000    1.000
    C199     C        0.17238    0.32762    0.75000    1.000
    H231     H        0.19650    0.30350    0.75000    1.000
    C200     C        0.82762    0.67238    0.75000    1.000
    H232     H        0.80350    0.69650    0.75000    1.000
    C201     C        0.67238    0.82762    0.75000    1.000
    H233     H        0.69650    0.80350    0.75000    1.000
    C202     C        0.17238    0.32762    0.25000    1.000
    H234     H        0.19650    0.30350    0.25000    1.000
    C203     C        0.32762    0.17238    0.75000    1.000
    H235     H        0.30350    0.19650    0.75000    1.000
    C204     C        0.17238    0.67238    0.75000    1.000
    H236     H        0.19650    0.69650    0.75000    1.000
    C205     C        0.82762    0.32762    0.75000    1.000
    H237     H        0.80350    0.30350    0.75000    1.000
    C206     C        0.32762    0.82762    0.25000    1.000
    H238     H        0.30350    0.80350    0.25000    1.000
    C207     C        0.67238    0.17238    0.25000    1.000
    H239     H        0.69650    0.19650    0.25000    1.000
    C208     C        0.82762    0.67238    0.25000    1.000
    H240     H        0.80350    0.69650    0.25000    1.000
    C209     C        0.26800    0.00000    0.15360    1.000
    H241     H        0.29580    0.00000    0.12550    1.000
    C210     C        0.76800    0.50000    0.65360    1.000
    H242     H        0.79580    0.50000    0.62550    1.000
    C211     C        0.73200    0.00000    0.15360    1.000
    H243     H        0.70420    0.00000    0.12550    1.000
    C212     C        0.23200    0.50000    0.65360    1.000
    H244     H        0.20420    0.50000    0.62550    1.000
    C213     C        0.00000    0.26800    0.15360    1.000
    H245     H        0.00000    0.29580    0.12550    1.000
    C214     C        0.50000    0.76800    0.65360    1.000
    H246     H        0.50000    0.79580    0.62550    1.000
    C215     C        0.00000    0.73200    0.15360    1.000
    H247     H        0.00000    0.70420    0.12550    1.000
    C216     C        0.50000    0.23200    0.65360    1.000
    H248     H        0.50000    0.20420    0.62550    1.000
    C217     C        0.73200    0.00000    0.84640    1.000
    H249     H        0.70420    0.00000    0.87450    1.000
    C218     C        0.23200    0.50000    0.34640    1.000
    H250     H        0.20420    0.50000    0.37450    1.000
    C219     C        0.26800    0.00000    0.84640    1.000
    H251     H        0.29580    0.00000    0.87450    1.000
    C220     C        0.76800    0.50000    0.34640    1.000
    H252     H        0.79580    0.50000    0.37450    1.000
    C221     C        0.00000    0.26800    0.84640    1.000
    H253     H        0.00000    0.29580    0.87450    1.000
    C222     C        0.50000    0.76800    0.34640    1.000
    H254     H        0.50000    0.79580    0.37450    1.000
    C223     C        0.00000    0.73200    0.84640    1.000
    H255     H        0.00000    0.70420    0.87450    1.000
    C224     C        0.50000    0.23200    0.34640    1.000
    H256     H        0.50000    0.20420    0.37450    1.000
    C225     C        0.18685    0.18685    0.14900    1.000
    H257     H        0.19360    0.19360    0.10260    1.000
    C226     C        0.68685    0.68685    0.64900    1.000
    H258     H        0.69360    0.69360    0.60260    1.000
    C227     C        0.81315    0.81315    0.14900    1.000
    H259     H        0.80640    0.80640    0.10260    1.000
    C228     C        0.31315    0.31315    0.64900    1.000
    H260     H        0.30640    0.30640    0.60260    1.000
    C229     C        0.81315    0.18685    0.14900    1.000
    H261     H        0.80640    0.19360    0.10260    1.000
    C230     C        0.31315    0.68685    0.64900    1.000
    H262     H        0.30640    0.69360    0.60260    1.000
    C231     C        0.18685    0.81315    0.14900    1.000
    H263     H        0.19360    0.80640    0.10260    1.000
    C232     C        0.68685    0.31315    0.64900    1.000
    H264     H        0.69360    0.30640    0.60260    1.000
    C233     C        0.81315    0.18685    0.85100    1.000
    H265     H        0.80640    0.19360    0.89740    1.000
    C234     C        0.31315    0.68685    0.35100    1.000
    H266     H        0.30640    0.69360    0.39740    1.000
    C235     C        0.18685    0.81315    0.85100    1.000
    H267     H        0.19360    0.80640    0.89740    1.000
    C236     C        0.68685    0.31315    0.35100    1.000
    H268     H        0.69360    0.30640    0.39740    1.000
    C237     C        0.18685    0.18685    0.85100    1.000
    H269     H        0.19360    0.19360    0.89740    1.000
    C238     C        0.68685    0.68685    0.35100    1.000
    H270     H        0.69360    0.69360    0.39740    1.000
    C239     C        0.81315    0.81315    0.85100    1.000
    H271     H        0.80640    0.80640    0.89740    1.000
    C240     C        0.31315    0.31315    0.35100    1.000
    H272     H        0.30640    0.30640    0.39740    1.000
    C241     C        0.26190    0.10700    0.00000    1.000
    C242     C        0.21340    0.08100    0.00000    1.000
    H273     H        0.21880    0.04620    0.00000    1.000
    C243     C        0.76190    0.60700    0.50000    1.000
    C244     C        0.71340    0.58100    0.50000    1.000
    H274     H        0.71880    0.54620    0.50000    1.000
    C245     C        0.73810    0.89300    0.00000    1.000
    C246     C        0.78660    0.91900    0.00000    1.000
    H275     H        0.78120    0.95380    0.00000    1.000
    C247     C        0.23810    0.39300    0.50000    1.000
    C248     C        0.28660    0.41900    0.50000    1.000
    H276     H        0.28120    0.45380    0.50000    1.000
    C249     C        0.89300    0.26190    0.00000    1.000
    C250     C        0.91900    0.21340    0.00000    1.000
    H277     H        0.95380    0.21880    0.00000    1.000
    C251     C        0.39300    0.76190    0.50000    1.000
    C252     C        0.41900    0.71340    0.50000    1.000
    H278     H        0.45380    0.71880    0.50000    1.000
    C253     C        0.10700    0.73810    0.00000    1.000
    C254     C        0.08100    0.78660    0.00000    1.000
    H279     H        0.04620    0.78120    0.00000    1.000
    C255     C        0.60700    0.23810    0.50000    1.000
    C256     C        0.58100    0.28660    0.50000    1.000
    H280     H        0.54620    0.28120    0.50000    1.000
    C257     C        0.73810    0.10700    0.00000    1.000
    C258     C        0.78660    0.08100    0.00000    1.000
    H281     H        0.78120    0.04620    0.00000    1.000
    C259     C        0.23810    0.60700    0.50000    1.000
    C260     C        0.28660    0.58100    0.50000    1.000
    H282     H        0.28120    0.54620    0.50000    1.000
    C261     C        0.26190    0.89300    0.00000    1.000
    C262     C        0.21340    0.91900    0.00000    1.000
    H283     H        0.21880    0.95380    0.00000    1.000
    C263     C        0.76190    0.39300    0.50000    1.000
    C264     C        0.71340    0.41900    0.50000    1.000
    H284     H        0.71880    0.45380    0.50000    1.000
    C265     C        0.10700    0.26190    0.00000    1.000
    C266     C        0.08100    0.21340    0.00000    1.000
    H285     H        0.04620    0.21880    0.00000    1.000
    C267     C        0.60700    0.76190    0.50000    1.000
    C268     C        0.58100    0.71340    0.50000    1.000
    H286     H        0.54620    0.71880    0.50000    1.000
    C269     C        0.89300    0.73810    0.00000    1.000
    C270     C        0.91900    0.78660    0.00000    1.000
    H287     H        0.95380    0.78120    0.00000    1.000
    C271     C        0.39300    0.23810    0.50000    1.000
    C272     C        0.41900    0.28660    0.50000    1.000
    H288     H        0.45380    0.28120    0.50000    1.000
