# CIF file generated by openbabel 3.1.0, see https://openbabel.org
data_I
_chemical_name_common 'image0'
_cell_length_a 18.7769
_cell_length_b 19.8686
_cell_length_c 8.7734
_cell_angle_alpha 90
_cell_angle_beta 100.967
_cell_angle_gamma 90
_space_group_name_H-M_alt 'P 1'
_space_group_name_Hall 'P 1'
loop_
    _symmetry_equiv_pos_as_xyz
    x,y,z
loop_
    _atom_site_label
    _atom_site_type_symbol
    _atom_site_fract_x
    _atom_site_fract_y
    _atom_site_fract_z
    _atom_site_occupancy
    N1       N        0.08740    0.59900    0.28280    1.000
    C1       C        0.20450    0.56330    0.24540    1.000
    H1       H        0.24700    0.57320    0.21000    1.000
    N2       N        0.41870    0.25400    0.22480    1.000
    C2       C        0.31510    0.35550    0.20800    1.000
    C3       C        0.13500    0.49140    0.36580    1.000
    H2       H        0.12740    0.45020    0.41040    1.000
    N3       N        0.99680    0.66770    0.00380    1.000
    C4       C        0.14840    0.60990    0.22840    1.000
    H3       H        0.15340    0.65020    0.17730    1.000
    C5       C        0.37040    0.26470    0.09560    1.000
    H4       H        0.37170    0.23760    0.00980    1.000
    C6       C        0.36800    0.34610    0.33780    1.000
    H5       H        0.37050    0.37480    0.42250    1.000
    N4       N        0.98500    0.62480    0.73900    1.000
    C7       C        0.19700    0.50250    0.31480    1.000
    C8       C        0.08310    0.54020    0.35240    1.000
    H6       H        0.04220    0.53180    0.39470    1.000
    C9       C        0.31840    0.31430    0.08350    1.000
    H7       H        0.28550    0.32010    0.99090    1.000
    C10      C        0.25850    0.40890    0.19610    1.000
    H8       H        0.26420    0.43890    0.11200    1.000
    H9       H        0.21140    0.38750    0.16700    1.000
    C11      C        0.41710    0.29480    0.34290    1.000
    H10      H        0.45090    0.28840    0.43390    1.000
    C12      C        0.99750    0.65220    0.88210    1.000
    C13      C        0.25770    0.44900    0.33120    1.000
    H11      H        0.30410    0.47160    0.35890    1.000
    H12      H        0.25290    0.41920    0.41630    1.000
    N5       N        0.58740    0.09900    0.28280    1.000
    C14      C        0.70450    0.06330    0.24540    1.000
    H13      H        0.74700    0.07320    0.21000    1.000
    N6       N        0.91870    0.75400    0.22480    1.000
    C15      C        0.81510    0.85550    0.20800    1.000
    C16      C        0.63500    0.99140    0.36580    1.000
    H14      H        0.62740    0.95020    0.41040    1.000
    N7       N        0.49680    0.16770    0.00380    1.000
    C17      C        0.64840    0.10990    0.22840    1.000
    H15      H        0.65340    0.15020    0.17730    1.000
    C18      C        0.87040    0.76470    0.09560    1.000
    H16      H        0.87170    0.73760    0.00980    1.000
    C19      C        0.86800    0.84610    0.33780    1.000
    H17      H        0.87050    0.87480    0.42250    1.000
    N8       N        0.48500    0.12480    0.73900    1.000
    C20      C        0.69700    0.00250    0.31480    1.000
    C21      C        0.58310    0.04020    0.35240    1.000
    H18      H        0.54220    0.03180    0.39470    1.000
    C22      C        0.81840    0.81430    0.08350    1.000
    H19      H        0.78550    0.82010    0.99090    1.000
    C23      C        0.75850    0.90890    0.19610    1.000
    H20      H        0.76420    0.93890    0.11200    1.000
    H21      H        0.71140    0.88750    0.16700    1.000
    C24      C        0.91710    0.79480    0.34290    1.000
    H22      H        0.95090    0.78840    0.43390    1.000
    C25      C        0.49750    0.15220    0.88210    1.000
    C26      C        0.75770    0.94900    0.33120    1.000
    H23      H        0.80410    0.97160    0.35890    1.000
    H24      H        0.75290    0.91920    0.41630    1.000
    N9       N        0.91260    0.59900    0.21720    1.000
    C27      C        0.79550    0.56330    0.25460    1.000
    H25      H        0.75300    0.57320    0.29000    1.000
    N10      N        0.58130    0.25400    0.27520    1.000
    C28      C        0.68490    0.35550    0.29200    1.000
    C29      C        0.86500    0.49140    0.13420    1.000
    H26      H        0.87260    0.45020    0.08960    1.000
    N11      N        0.00320    0.66770    0.49620    1.000
    C30      C        0.85160    0.60990    0.27160    1.000
    H27      H        0.84660    0.65020    0.32270    1.000
    C31      C        0.62960    0.26470    0.40440    1.000
    H28      H        0.62830    0.23760    0.49020    1.000
    C32      C        0.63200    0.34610    0.16220    1.000
    H29      H        0.62950    0.37480    0.07750    1.000
    N12      N        0.01500    0.62480    0.76100    1.000
    C33      C        0.80300    0.50250    0.18520    1.000
    C34      C        0.91690    0.54020    0.14760    1.000
    H30      H        0.95780    0.53180    0.10530    1.000
    C35      C        0.68160    0.31430    0.41650    1.000
    H31      H        0.71450    0.32010    0.50910    1.000
    C36      C        0.74150    0.40890    0.30390    1.000
    H32      H        0.73580    0.43890    0.38800    1.000
    H33      H        0.78860    0.38750    0.33300    1.000
    C37      C        0.58290    0.29480    0.15710    1.000
    H34      H        0.54910    0.28840    0.06610    1.000
    C38      C        0.00250    0.65220    0.61790    1.000
    C39      C        0.74230    0.44900    0.16880    1.000
    H35      H        0.69590    0.47160    0.14110    1.000
    H36      H        0.74710    0.41920    0.08370    1.000
    N13      N        0.41260    0.09900    0.21720    1.000
    C40      C        0.29550    0.06330    0.25460    1.000
    H37      H        0.25300    0.07320    0.29000    1.000
    N14      N        0.08130    0.75400    0.27520    1.000
    C41      C        0.18490    0.85550    0.29200    1.000
    C42      C        0.36500    0.99140    0.13420    1.000
    H38      H        0.37260    0.95020    0.08960    1.000
    N15      N        0.50320    0.16770    0.49620    1.000
    C43      C        0.35160    0.10990    0.27160    1.000
    H39      H        0.34660    0.15020    0.32270    1.000
    C44      C        0.12960    0.76470    0.40440    1.000
    H40      H        0.12830    0.73760    0.49020    1.000
    C45      C        0.13200    0.84610    0.16220    1.000
    H41      H        0.12950    0.87480    0.07750    1.000
    N16      N        0.51500    0.12480    0.76100    1.000
    C46      C        0.30300    0.00250    0.18520    1.000
    C47      C        0.41690    0.04020    0.14760    1.000
    H42      H        0.45780    0.03180    0.10530    1.000
    C48      C        0.18160    0.81430    0.41650    1.000
    H43      H        0.21450    0.82010    0.50910    1.000
    C49      C        0.24150    0.90890    0.30390    1.000
    H44      H        0.23580    0.93890    0.38800    1.000
    H45      H        0.28860    0.88750    0.33300    1.000
    C50      C        0.08290    0.79480    0.15710    1.000
    H46      H        0.04910    0.78840    0.06610    1.000
    C51      C        0.50250    0.15220    0.61790    1.000
    C52      C        0.24230    0.94900    0.16880    1.000
    H47      H        0.19590    0.97160    0.14110    1.000
    H48      H        0.24710    0.91920    0.08370    1.000
    Zn1      Zn       0.00000    0.67525    0.25000    1.000
    Zn2      Zn       0.50000    0.17525    0.25000    1.000
    N17      N        0.91260    0.40100    0.71720    1.000
    C53      C        0.79550    0.43670    0.75460    1.000
    H49      H        0.75300    0.42680    0.79000    1.000
    N18      N        0.58130    0.74600    0.77520    1.000
    C54      C        0.68490    0.64450    0.79200    1.000
    C55      C        0.86500    0.50860    0.63420    1.000
    H50      H        0.87260    0.54980    0.58960    1.000
    N19      N        0.00320    0.33230    0.99620    1.000
    C56      C        0.85160    0.39010    0.77160    1.000
    H51      H        0.84660    0.34980    0.82270    1.000
    C57      C        0.62960    0.73530    0.90440    1.000
    H52      H        0.62830    0.76240    0.99020    1.000
    C58      C        0.63200    0.65390    0.66220    1.000
    H53      H        0.62950    0.62520    0.57750    1.000
    N20      N        0.01500    0.37520    0.26100    1.000
    C59      C        0.80300    0.49750    0.68520    1.000
    C60      C        0.91690    0.45980    0.64760    1.000
    H54      H        0.95780    0.46820    0.60530    1.000
    C61      C        0.68160    0.68570    0.91650    1.000
    H55      H        0.71450    0.67990    0.00910    1.000
    C62      C        0.74150    0.59110    0.80390    1.000
    H56      H        0.73580    0.56110    0.88800    1.000
    H57      H        0.78860    0.61250    0.83300    1.000
    C63      C        0.58290    0.70520    0.65710    1.000
    H58      H        0.54910    0.71160    0.56610    1.000
    C64      C        0.00250    0.34780    0.11790    1.000
    C65      C        0.74230    0.55100    0.66880    1.000
    H59      H        0.69590    0.52840    0.64110    1.000
    H60      H        0.74710    0.58080    0.58370    1.000
    N21      N        0.41260    0.90100    0.71720    1.000
    C66      C        0.29550    0.93670    0.75460    1.000
    H61      H        0.25300    0.92680    0.79000    1.000
    N22      N        0.08130    0.24600    0.77520    1.000
    C67      C        0.18490    0.14450    0.79200    1.000
    C68      C        0.36500    0.00860    0.63420    1.000
    H62      H        0.37260    0.04980    0.58960    1.000
    N23      N        0.50320    0.83230    0.99620    1.000
    C69      C        0.35160    0.89010    0.77160    1.000
    H63      H        0.34660    0.84980    0.82270    1.000
    C70      C        0.12960    0.23530    0.90440    1.000
    H64      H        0.12830    0.26240    0.99020    1.000
    C71      C        0.13200    0.15390    0.66220    1.000
    H65      H        0.12950    0.12520    0.57750    1.000
    N24      N        0.51500    0.87520    0.26100    1.000
    C72      C        0.30300    0.99750    0.68520    1.000
    C73      C        0.41690    0.95980    0.64760    1.000
    H66      H        0.45780    0.96820    0.60530    1.000
    C74      C        0.18160    0.18570    0.91650    1.000
    H67      H        0.21450    0.17990    0.00910    1.000
    C75      C        0.24150    0.09110    0.80390    1.000
    H68      H        0.23580    0.06110    0.88800    1.000
    H69      H        0.28860    0.11250    0.83300    1.000
    C76      C        0.08290    0.20520    0.65710    1.000
    H70      H        0.04910    0.21160    0.56610    1.000
    C77      C        0.50250    0.84780    0.11790    1.000
    C78      C        0.24230    0.05100    0.66880    1.000
    H71      H        0.19590    0.02840    0.64110    1.000
    H72      H        0.24710    0.08080    0.58370    1.000
    N25      N        0.08740    0.40100    0.78280    1.000
    C79      C        0.20450    0.43670    0.74540    1.000
    H73      H        0.24700    0.42680    0.71000    1.000
    N26      N        0.41870    0.74600    0.72480    1.000
    C80      C        0.31510    0.64450    0.70800    1.000
    C81      C        0.13500    0.50860    0.86580    1.000
    H74      H        0.12740    0.54980    0.91040    1.000
    N27      N        0.99680    0.33230    0.50380    1.000
    C82      C        0.14840    0.39010    0.72840    1.000
    H75      H        0.15340    0.34980    0.67730    1.000
    C83      C        0.37040    0.73530    0.59560    1.000
    H76      H        0.37170    0.76240    0.50980    1.000
    C84      C        0.36800    0.65390    0.83780    1.000
    H77      H        0.37050    0.62520    0.92250    1.000
    N28      N        0.98500    0.37520    0.23900    1.000
    C85      C        0.19700    0.49750    0.81480    1.000
    C86      C        0.08310    0.45980    0.85240    1.000
    H78      H        0.04220    0.46820    0.89470    1.000
    C87      C        0.31840    0.68570    0.58350    1.000
    H79      H        0.28550    0.67990    0.49090    1.000
    C88      C        0.25850    0.59110    0.69610    1.000
    H80      H        0.26420    0.56110    0.61200    1.000
    H81      H        0.21140    0.61250    0.66700    1.000
    C89      C        0.41710    0.70520    0.84290    1.000
    H82      H        0.45090    0.71160    0.93390    1.000
    C90      C        0.99750    0.34780    0.38210    1.000
    C91      C        0.25770    0.55100    0.83120    1.000
    H83      H        0.30410    0.52840    0.85890    1.000
    H84      H        0.25290    0.58080    0.91630    1.000
    N29      N        0.58740    0.90100    0.78280    1.000
    C92      C        0.70450    0.93670    0.74540    1.000
    H85      H        0.74700    0.92680    0.71000    1.000
    N30      N        0.91870    0.24600    0.72480    1.000
    C93      C        0.81510    0.14450    0.70800    1.000
    C94      C        0.63500    0.00860    0.86580    1.000
    H86      H        0.62740    0.04980    0.91040    1.000
    N31      N        0.49680    0.83230    0.50380    1.000
    C95      C        0.64840    0.89010    0.72840    1.000
    H87      H        0.65340    0.84980    0.67730    1.000
    C96      C        0.87040    0.23530    0.59560    1.000
    H88      H        0.87170    0.26240    0.50980    1.000
    C97      C        0.86800    0.15390    0.83780    1.000
    H89      H        0.87050    0.12520    0.92250    1.000
    N32      N        0.48500    0.87520    0.23900    1.000
    C98      C        0.69700    0.99750    0.81480    1.000
    C99      C        0.58310    0.95980    0.85240    1.000
    H90      H        0.54220    0.96820    0.89470    1.000
    C100     C        0.81840    0.18570    0.58350    1.000
    H91      H        0.78550    0.17990    0.49090    1.000
    C101     C        0.75850    0.09110    0.69610    1.000
    H92      H        0.76420    0.06110    0.61200    1.000
    H93      H        0.71140    0.11250    0.66700    1.000
    C102     C        0.91710    0.20520    0.84290    1.000
    H94      H        0.95090    0.21160    0.93390    1.000
    C103     C        0.49750    0.84780    0.38210    1.000
    C104     C        0.75770    0.05100    0.83120    1.000
    H95      H        0.80410    0.02840    0.85890    1.000
    H96      H        0.75290    0.08080    0.91630    1.000
    Zn3      Zn       0.00000    0.32475    0.75000    1.000
    Zn4      Zn       0.50000    0.82475    0.75000    1.000
