data_functionalizedCrystal
_audit_creation_method	'EQeq! by Chris Wilmer'
_symmetry_space_group_name_H-M	'P1'
_symmetry_Int_Tables_number	1
_symmetry_cell_setting	triclinic
loop_
_symmetry_equiv_pos_as_xyz
  x,y,z
_cell_length_a	14.9
_cell_length_b	21.816
_cell_length_c	34.796
_cell_angle_alpha	90
_cell_angle_beta	90
_cell_angle_gamma	90
loop_
_atom_site_label
_atom_site_type_symbol
_atom_site_fract_x
_atom_site_fract_y
_atom_site_fract_z
_atom_site_charge
Mof_O 	O 	0.3964	0.304	0.1269	-0.505
Mof_O 	O 	0.2604	0.3307	0.1131	-0.506
Mof_O 	O 	0.3919	0.4461	0.0353	-0.569
Mof_O 	O 	0.2562	0.4152	0.0474	-0.501
Mof_C 	C 	0.3123	0.4451	0.0257	0.344
Mof_C 	C 	0.2763	0.4799	0.991	-0.058
Mof_C 	C 	0.19	0.4652	0.9785	0.018
Mof_C 	C 	0.3275	0.5197	0.9699	0.124
Mof_H 	H 	0.1522	0.4389	0.993	0.021
Mof_C 	C 	0.1614	0.4905	0.9439	-0.052
Mof_N 	N 	0.413	0.5424	0.9822	-0.211
Mof_C 	C 	0.295	0.5442	0.9371	-0.051
Mof_H 	H 	0.1037	0.4795	0.9345	0.034
Mof_C 	C 	0.2127	0.5311	0.9225	0.014
Mof_H 	H 	0.4407	0.5706	0.9686	0.116
Mof_H 	H 	0.4376	0.5282	0.0033	0.107
Mof_H 	H 	0.3319	0.5723	0.9235	0.055
Mof_C 	C 	0.1853	0.5528	0.8848	0.313
Mof_N 	N 	0.077	0.256	0.2164	-0.201
Mof_H 	H 	0.0498	0.276	0.1977	0.112
Mof_H 	H 	0.0464	0.2436	0.2365	0.116
Mof_C 	C 	0.2773	0.2689	0.1697	-0.027
Mof_C 	C 	0.1872	0.272	0.18	-0.058
Mof_H 	H 	0.1453	0.2914	0.1634	0.056
Mof_C 	C 	0.1586	0.2467	0.2145	0.041
Mof_C 	C 	0.22	0.2183	0.2388	-0.051
Mof_H 	H 	0.352	0.1957	0.245	0.02
Mof_H 	H 	0.4002	0.2384	0.1869	0.03
Mof_O 	O 	0.3964	0.804	0.6269	-0.505
Mof_O 	O 	0.2604	0.8307	0.6131	-0.506
Mof_O 	O 	0.3919	0.9461	0.5353	-0.569
Mof_O 	O 	0.2562	0.9152	0.5474	-0.501
Mof_C 	C 	0.3123	0.9451	0.5257	0.344
Mof_C 	C 	0.2763	0.9799	0.491	-0.058
Mof_C 	C 	0.19	0.9652	0.4785	0.018
Mof_C 	C 	0.3275	0.0197	0.4699	0.122
Mof_H 	H 	0.1522	0.9389	0.493	0.021
Mof_C 	C 	0.1614	0.9905	0.4439	-0.052
Mof_N 	N 	0.413	0.0424	0.4822	-0.21
Mof_C 	C 	0.295	0.0442	0.4371	-0.052
Mof_H 	H 	0.1037	0.9795	0.4345	0.034
Mof_C 	C 	0.2127	0.0311	0.4225	0.014
Mof_H 	H 	0.4407	0.0706	0.4686	0.116
Mof_H 	H 	0.4376	0.0282	0.5033	0.107
Mof_H 	H 	0.3319	0.0723	0.4235	0.055
Mof_C 	C 	0.1853	0.0528	0.3848	0.313
Mof_N 	N 	0.077	0.756	0.7164	-0.201
Mof_H 	H 	0.0498	0.776	0.6977	0.111
Mof_H 	H 	0.0464	0.7436	0.7365	0.116
Mof_C 	C 	0.2773	0.7689	0.6697	-0.027
Mof_C 	C 	0.1872	0.772	0.68	-0.058
Mof_H 	H 	0.1453	0.7914	0.6634	0.056
Mof_C 	C 	0.1586	0.7467	0.7145	0.041
Mof_C 	C 	0.22	0.7183	0.7388	-0.051
Mof_H 	H 	0.352	0.6957	0.745	0.02
Mof_H 	H 	0.4002	0.7384	0.6869	0.03
Mof_O 	O 	0.8964	0.304	0.6269	-0.505
Mof_O 	O 	0.7604	0.3307	0.6131	-0.506
Mof_O 	O 	0.8919	0.4461	0.5353	-0.57
Mof_O 	O 	0.7562	0.4152	0.5474	-0.502
Mof_C 	C 	0.8123	0.4451	0.5257	0.343
Mof_C 	C 	0.7763	0.4799	0.491	-0.059
Mof_C 	C 	0.69	0.4652	0.4785	0.017
Mof_C 	C 	0.8275	0.5197	0.4699	0.123
Mof_H 	H 	0.6522	0.4389	0.493	0.02
Mof_C 	C 	0.6614	0.4905	0.4439	-0.053
Mof_N 	N 	0.913	0.5424	0.4822	-0.212
Mof_C 	C 	0.795	0.5442	0.4371	-0.052
Mof_H 	H 	0.6037	0.4795	0.4345	0.033
Mof_C 	C 	0.7127	0.5311	0.4225	0.013
Mof_H 	H 	0.9407	0.5706	0.4686	0.115
Mof_H 	H 	0.9376	0.5282	0.5033	0.106
Mof_H 	H 	0.8319	0.5723	0.4235	0.054
Mof_C 	C 	0.6853	0.5528	0.3848	0.312
Mof_N 	N 	0.577	0.256	0.7164	-0.202
Mof_H 	H 	0.5498	0.276	0.6977	0.111
Mof_H 	H 	0.5464	0.2436	0.7365	0.115
Mof_C 	C 	0.7773	0.2689	0.6697	-0.028
Mof_C 	C 	0.6872	0.272	0.68	-0.059
Mof_H 	H 	0.6453	0.2914	0.6634	0.055
Mof_C 	C 	0.6586	0.2467	0.7145	0.04
Mof_C 	C 	0.72	0.2183	0.7388	-0.052
Mof_H 	H 	0.852	0.1957	0.745	0.019
Mof_H 	H 	0.9002	0.2384	0.6869	0.029
Mof_O 	O 	0.8964	0.804	0.1269	-0.506
Mof_O 	O 	0.7604	0.8307	0.1131	-0.507
Mof_O 	O 	0.8919	0.9461	0.0353	-0.57
Mof_O 	O 	0.7562	0.9152	0.0474	-0.502
Mof_C 	C 	0.8123	0.9451	0.0257	0.344
Mof_C 	C 	0.7763	0.9799	0.991	-0.059
Mof_C 	C 	0.69	0.9652	0.9785	0.017
Mof_C 	C 	0.8275	0.0197	0.9699	0.123
Mof_H 	H 	0.6522	0.9389	0.993	0.02
Mof_C 	C 	0.6614	0.9905	0.9439	-0.053
Mof_N 	N 	0.913	0.0424	0.9822	-0.211
Mof_C 	C 	0.795	0.0442	0.9371	-0.052
Mof_H 	H 	0.6037	0.9795	0.9345	0.033
Mof_C 	C 	0.7127	0.0311	0.9225	0.013
Mof_H 	H 	0.9407	0.0706	0.9686	0.115
Mof_H 	H 	0.9376	0.0282	0.0033	0.106
Mof_H 	H 	0.8319	0.0723	0.9235	0.054
Mof_C 	C 	0.6853	0.0528	0.8848	0.312
Mof_N 	N 	0.577	0.756	0.2164	-0.202
Mof_H 	H 	0.5498	0.776	0.1977	0.111
Mof_H 	H 	0.5464	0.7436	0.2365	0.115
Mof_C 	C 	0.7773	0.7689	0.1697	-0.028
Mof_C 	C 	0.6872	0.772	0.18	-0.059
Mof_H 	H 	0.6453	0.7914	0.1634	0.055
Mof_C 	C 	0.6586	0.7467	0.2145	0.04
Mof_C 	C 	0.72	0.7183	0.2388	-0.052
Mof_H 	H 	0.852	0.6957	0.245	0.019
Mof_H 	H 	0.9002	0.7384	0.1869	0.029
Mof_O 	O 	0.3536	0.446	0.1269	-0.506
Mof_O 	O 	0.4896	0.4193	0.1131	-0.507
Mof_O 	O 	0.3581	0.3039	0.0353	-0.57
Mof_O 	O 	0.4938	0.3348	0.0474	-0.502
Mof_C 	C 	0.4377	0.3049	0.0257	0.343
Mof_C 	C 	0.4737	0.2701	0.991	-0.059
Mof_C 	C 	0.56	0.2848	0.9785	0.017
Mof_C 	C 	0.4225	0.2303	0.9699	0.123
Mof_H 	H 	0.5978	0.3111	0.993	0.02
Mof_C 	C 	0.5886	0.2595	0.9439	-0.053
Mof_N 	N 	0.337	0.2076	0.9822	-0.211
Mof_C 	C 	0.455	0.2058	0.9371	-0.052
Mof_H 	H 	0.6463	0.2705	0.9345	0.033
Mof_C 	C 	0.5373	0.2189	0.9225	0.013
Mof_H 	H 	0.3093	0.1794	0.9686	0.115
Mof_H 	H 	0.3124	0.2218	0.0033	0.106
Mof_H 	H 	0.4181	0.1777	0.9235	0.054
Mof_C 	C 	0.5647	0.1972	0.8848	0.312
Mof_N 	N 	0.673	0.494	0.2164	-0.202
Mof_H 	H 	0.7002	0.474	0.1977	0.111
Mof_H 	H 	0.7036	0.5064	0.2365	0.115
Mof_C 	C 	0.4727	0.4811	0.1697	-0.028
Mof_C 	C 	0.5628	0.478	0.18	-0.059
Mof_H 	H 	0.6047	0.4586	0.1634	0.055
Mof_C 	C 	0.5914	0.5033	0.2145	0.04
Mof_C 	C 	0.53	0.5317	0.2388	-0.052
Mof_H 	H 	0.398	0.5543	0.245	0.019
Mof_H 	H 	0.3498	0.5116	0.1869	0.029
Mof_O 	O 	0.3536	0.946	0.6269	-0.506
Mof_O 	O 	0.4896	0.9193	0.6131	-0.507
Mof_O 	O 	0.3581	0.8039	0.5353	-0.57
Mof_O 	O 	0.4938	0.8348	0.5474	-0.502
Mof_C 	C 	0.4377	0.8049	0.5257	0.343
Mof_C 	C 	0.4737	0.7701	0.491	-0.059
Mof_C 	C 	0.56	0.7848	0.4785	0.017
Mof_C 	C 	0.4225	0.7303	0.4699	0.123
Mof_H 	H 	0.5978	0.8111	0.493	0.02
Mof_C 	C 	0.5886	0.7595	0.4439	-0.053
Mof_N 	N 	0.337	0.7076	0.4822	-0.212
Mof_C 	C 	0.455	0.7058	0.4371	-0.052
Mof_H 	H 	0.6463	0.7705	0.4345	0.033
Mof_C 	C 	0.5373	0.7189	0.4225	0.013
Mof_H 	H 	0.3093	0.6794	0.4686	0.115
Mof_H 	H 	0.3124	0.7218	0.5033	0.106
Mof_H 	H 	0.4181	0.6777	0.4235	0.054
Mof_C 	C 	0.5647	0.6972	0.3848	0.312
Mof_N 	N 	0.673	0.994	0.7164	-0.202
Mof_H 	H 	0.7002	0.974	0.6977	0.111
Mof_H 	H 	0.7036	0.0064	0.7365	0.115
Mof_C 	C 	0.4727	0.9811	0.6697	-0.028
Mof_C 	C 	0.5628	0.978	0.68	-0.059
Mof_H 	H 	0.6047	0.9586	0.6634	0.055
Mof_C 	C 	0.5914	0.0033	0.7145	0.04
Mof_C 	C 	0.53	0.0317	0.7388	-0.052
Mof_H 	H 	0.398	0.0543	0.745	0.019
Mof_H 	H 	0.3498	0.0116	0.6869	0.029
Mof_O 	O 	0.8536	0.446	0.6269	-0.506
Mof_O 	O 	0.9896	0.4193	0.6131	-0.507
Mof_O 	O 	0.8581	0.3039	0.5353	-0.57
Mof_O 	O 	0.9938	0.3348	0.5474	-0.502
Mof_C 	C 	0.9377	0.3049	0.5257	0.343
Mof_C 	C 	0.9737	0.2701	0.491	-0.059
Mof_C 	C 	0.06	0.2848	0.4785	0.018
Mof_C 	C 	0.9225	0.2303	0.4699	0.124
Mof_H 	H 	0.0978	0.3111	0.493	0.02
Mof_C 	C 	0.0886	0.2595	0.4439	-0.053
Mof_N 	N 	0.837	0.2076	0.4822	-0.212
Mof_C 	C 	0.955	0.2058	0.4371	-0.052
Mof_H 	H 	0.1463	0.2705	0.4345	0.033
Mof_C 	C 	0.0373	0.2189	0.4225	0.013
Mof_H 	H 	0.8093	0.1794	0.4686	0.115
Mof_H 	H 	0.8124	0.2218	0.5033	0.106
Mof_H 	H 	0.9181	0.1777	0.4235	0.054
Mof_C 	C 	0.0647	0.1972	0.3848	0.312
Mof_N 	N 	0.173	0.494	0.7164	-0.202
Mof_H 	H 	0.2002	0.474	0.6977	0.111
Mof_H 	H 	0.2036	0.5064	0.7365	0.115
Mof_C 	C 	0.9727	0.4811	0.6697	-0.028
Mof_C 	C 	0.0628	0.478	0.68	-0.059
Mof_H 	H 	0.1047	0.4586	0.6634	0.055
Mof_C 	C 	0.0914	0.5033	0.7145	0.04
Mof_C 	C 	0.03	0.5317	0.7388	-0.052
Mof_H 	H 	0.898	0.5543	0.745	0.019
Mof_H 	H 	0.8498	0.5116	0.6869	0.029
Mof_O 	O 	0.8536	0.946	0.1269	-0.506
Mof_O 	O 	0.9896	0.9193	0.1131	-0.507
Mof_O 	O 	0.8581	0.8039	0.0353	-0.57
Mof_O 	O 	0.9938	0.8348	0.0474	-0.502
Mof_C 	C 	0.9377	0.8049	0.0257	0.343
Mof_C 	C 	0.9737	0.7701	0.991	-0.059
Mof_C 	C 	0.06	0.7848	0.9785	0.017
Mof_C 	C 	0.9225	0.7303	0.9699	0.123
Mof_H 	H 	0.0978	0.8111	0.993	0.02
Mof_C 	C 	0.0886	0.7595	0.9439	-0.052
Mof_N 	N 	0.837	0.7076	0.9822	-0.212
Mof_C 	C 	0.955	0.7058	0.9371	-0.052
Mof_H 	H 	0.1463	0.7705	0.9345	0.033
Mof_C 	C 	0.0373	0.7189	0.9225	0.013
Mof_H 	H 	0.8093	0.6794	0.9686	0.115
Mof_H 	H 	0.8124	0.7218	0.0033	0.106
Mof_H 	H 	0.9181	0.6777	0.9235	0.054
Mof_C 	C 	0.0647	0.6972	0.8848	0.312
Mof_N 	N 	0.173	0.994	0.2164	-0.202
Mof_H 	H 	0.2002	0.974	0.1977	0.11
Mof_H 	H 	0.2036	0.0064	0.2365	0.115
Mof_C 	C 	0.9727	0.9811	0.1697	-0.028
Mof_C 	C 	0.0628	0.978	0.18	-0.061
Mof_H 	H 	0.1047	0.9586	0.1634	0.055
Mof_C 	C 	0.0914	0.0033	0.2145	0.037
Mof_C 	C 	0.03	0.0317	0.2388	-0.052
Mof_H 	H 	0.898	0.0543	0.245	0.019
Mof_H 	H 	0.8498	0.0116	0.1869	0.029
Mof_O 	O 	0.6464	0.696	0.3769	-0.506
Mof_O 	O 	0.5104	0.6693	0.3631	-0.507
Mof_O 	O 	0.6419	0.5539	0.2853	-0.57
Mof_O 	O 	0.5062	0.5848	0.2974	-0.502
Mof_C 	C 	0.5623	0.5549	0.2757	0.343
Mof_C 	C 	0.5263	0.5201	0.241	-0.059
Mof_C 	C 	0.44	0.5348	0.2285	0.017
Mof_C 	C 	0.5775	0.4803	0.2199	0.123
Mof_H 	H 	0.4022	0.5611	0.243	0.02
Mof_C 	C 	0.4114	0.5095	0.1939	-0.053
Mof_N 	N 	0.663	0.4576	0.2322	-0.212
Mof_C 	C 	0.545	0.4558	0.1871	-0.052
Mof_H 	H 	0.3537	0.5205	0.1845	0.033
Mof_C 	C 	0.4627	0.4689	0.1725	0.013
Mof_H 	H 	0.6907	0.4294	0.2186	0.115
Mof_H 	H 	0.6876	0.4718	0.2533	0.106
Mof_H 	H 	0.5819	0.4277	0.1735	0.054
Mof_C 	C 	0.4353	0.4472	0.1348	0.312
Mof_N 	N 	0.327	0.744	0.4664	-0.202
Mof_H 	H 	0.2998	0.724	0.4477	0.111
Mof_H 	H 	0.2964	0.7564	0.4865	0.115
Mof_C 	C 	0.5273	0.7311	0.4197	-0.028
Mof_C 	C 	0.4372	0.728	0.43	-0.059
Mof_H 	H 	0.3953	0.7086	0.4134	0.055
Mof_C 	C 	0.4086	0.7533	0.4645	0.04
Mof_C 	C 	0.47	0.7817	0.4888	-0.052
Mof_H 	H 	0.602	0.8043	0.495	0.019
Mof_H 	H 	0.6502	0.7616	0.4369	0.029
Mof_O 	O 	0.6464	0.196	0.8769	-0.506
Mof_O 	O 	0.5104	0.1693	0.8631	-0.507
Mof_O 	O 	0.6419	0.0539	0.7853	-0.57
Mof_O 	O 	0.5062	0.0848	0.7974	-0.502
Mof_C 	C 	0.5623	0.0549	0.7757	0.343
Mof_C 	C 	0.5263	0.0201	0.741	-0.059
Mof_C 	C 	0.44	0.0348	0.7285	0.017
Mof_C 	C 	0.5775	0.9803	0.7199	0.123
Mof_H 	H 	0.4022	0.0611	0.743	0.02
Mof_C 	C 	0.4114	0.0095	0.6939	-0.052
Mof_N 	N 	0.663	0.9576	0.7322	-0.212
Mof_C 	C 	0.545	0.9558	0.6871	-0.052
Mof_H 	H 	0.3537	0.0205	0.6845	0.033
Mof_C 	C 	0.4627	0.9689	0.6725	0.013
Mof_H 	H 	0.6907	0.9294	0.7186	0.115
Mof_H 	H 	0.6876	0.9718	0.7533	0.106
Mof_H 	H 	0.5819	0.9277	0.6735	0.054
Mof_C 	C 	0.4353	0.9472	0.6348	0.312
Mof_N 	N 	0.327	0.244	0.9664	-0.202
Mof_H 	H 	0.2998	0.224	0.9477	0.111
Mof_H 	H 	0.2964	0.2564	0.9865	0.116
Mof_C 	C 	0.5273	0.2311	0.9197	-0.028
Mof_C 	C 	0.4372	0.228	0.93	-0.059
Mof_H 	H 	0.3953	0.2086	0.9134	0.055
Mof_C 	C 	0.4086	0.2533	0.9645	0.04
Mof_C 	C 	0.47	0.2817	0.9888	-0.052
Mof_H 	H 	0.602	0.3043	0.995	0.019
Mof_H 	H 	0.6502	0.2616	0.9369	0.029
Mof_O 	O 	0.1464	0.696	0.8769	-0.506
Mof_O 	O 	0.0104	0.6693	0.8631	-0.507
Mof_O 	O 	0.1419	0.5539	0.7853	-0.57
Mof_O 	O 	0.0062	0.5848	0.7974	-0.502
Mof_C 	C 	0.0623	0.5549	0.7757	0.343
Mof_C 	C 	0.0263	0.5201	0.741	-0.059
Mof_C 	C 	0.94	0.5348	0.7285	0.017
Mof_C 	C 	0.0775	0.4803	0.7199	0.123
Mof_H 	H 	0.9022	0.5611	0.743	0.02
Mof_C 	C 	0.9114	0.5095	0.6939	-0.053
Mof_N 	N 	0.163	0.4576	0.7322	-0.212
Mof_C 	C 	0.045	0.4558	0.6871	-0.052
Mof_H 	H 	0.8537	0.5205	0.6845	0.033
Mof_C 	C 	0.9627	0.4689	0.6725	0.013
Mof_H 	H 	0.1907	0.4294	0.7186	0.115
Mof_H 	H 	0.1876	0.4718	0.7533	0.106
Mof_H 	H 	0.0819	0.4277	0.6735	0.054
Mof_C 	C 	0.9353	0.4472	0.6348	0.312
Mof_N 	N 	0.827	0.744	0.9664	-0.202
Mof_H 	H 	0.7998	0.724	0.9477	0.111
Mof_H 	H 	0.7964	0.7564	0.9865	0.115
Mof_C 	C 	0.0273	0.7311	0.9197	-0.028
Mof_C 	C 	0.9372	0.728	0.93	-0.059
Mof_H 	H 	0.8953	0.7086	0.9134	0.055
Mof_C 	C 	0.9086	0.7533	0.9645	0.04
Mof_C 	C 	0.97	0.7817	0.9888	-0.052
Mof_H 	H 	0.102	0.8043	0.995	0.019
Mof_H 	H 	0.1502	0.7616	0.9369	0.029
Mof_O 	O 	0.1464	0.196	0.3769	-0.506
Mof_O 	O 	0.0104	0.1693	0.3631	-0.507
Mof_O 	O 	0.1419	0.0539	0.2853	-0.57
Mof_O 	O 	0.0062	0.0848	0.2974	-0.502
Mof_C 	C 	0.0623	0.0549	0.2757	0.343
Mof_C 	C 	0.0263	0.0201	0.241	-0.058
Mof_C 	C 	0.94	0.0348	0.2285	0.017
Mof_C 	C 	0.0775	0.9803	0.2199	0.126
Mof_H 	H 	0.9022	0.0611	0.243	0.02
Mof_C 	C 	0.9114	0.0095	0.1939	-0.053
Mof_N 	N 	0.163	0.9576	0.2322	-0.212
Mof_C 	C 	0.045	0.9558	0.1871	-0.051
Mof_H 	H 	0.8537	0.0205	0.1845	0.033
Mof_C 	C 	0.9627	0.9689	0.1725	0.014
Mof_H 	H 	0.1907	0.9294	0.2186	0.115
Mof_H 	H 	0.1876	0.9718	0.2533	0.106
Mof_H 	H 	0.0819	0.9277	0.1735	0.053
Mof_C 	C 	0.9353	0.9472	0.1348	0.312
Mof_N 	N 	0.827	0.244	0.4664	-0.202
Mof_H 	H 	0.7998	0.224	0.4477	0.111
Mof_H 	H 	0.7964	0.2564	0.4865	0.115
Mof_C 	C 	0.0273	0.2311	0.4197	-0.028
Mof_C 	C 	0.9372	0.228	0.43	-0.06
Mof_H 	H 	0.8953	0.2086	0.4134	0.055
Mof_C 	C 	0.9086	0.2533	0.4645	0.04
Mof_C 	C 	0.97	0.2817	0.4888	-0.052
Mof_H 	H 	0.102	0.3043	0.495	0.019
Mof_H 	H 	0.1502	0.2616	0.4369	0.029
Mof_O 	O 	0.6036	0.554	0.3769	-0.506
Mof_O 	O 	0.7396	0.5807	0.3631	-0.507
Mof_O 	O 	0.6081	0.6961	0.2853	-0.57
Mof_O 	O 	0.7438	0.6652	0.2974	-0.502
Mof_C 	C 	0.6877	0.6951	0.2757	0.343
Mof_C 	C 	0.7237	0.7299	0.241	-0.059
Mof_C 	C 	0.81	0.7152	0.2285	0.017
Mof_C 	C 	0.6725	0.7697	0.2199	0.123
Mof_H 	H 	0.8478	0.6889	0.243	0.02
Mof_C 	C 	0.8386	0.7405	0.1939	-0.053
Mof_N 	N 	0.587	0.7924	0.2322	-0.212
Mof_C 	C 	0.705	0.7942	0.1871	-0.052
Mof_H 	H 	0.8963	0.7295	0.1845	0.033
Mof_C 	C 	0.7873	0.7811	0.1725	0.013
Mof_H 	H 	0.5593	0.8206	0.2186	0.115
Mof_H 	H 	0.5624	0.7782	0.2533	0.106
Mof_H 	H 	0.6681	0.8223	0.1735	0.054
Mof_C 	C 	0.8147	0.8028	0.1348	0.312
Mof_N 	N 	0.923	0.506	0.4664	-0.202
Mof_H 	H 	0.9502	0.526	0.4477	0.11
Mof_H 	H 	0.9536	0.4936	0.4865	0.115
Mof_C 	C 	0.7227	0.5189	0.4197	-0.028
Mof_C 	C 	0.8128	0.522	0.43	-0.059
Mof_H 	H 	0.8547	0.5414	0.4134	0.055
Mof_C 	C 	0.8414	0.4967	0.4645	0.04
Mof_C 	C 	0.78	0.4683	0.4888	-0.052
Mof_H 	H 	0.648	0.4457	0.495	0.019
Mof_H 	H 	0.5998	0.4884	0.4369	0.029
Mof_O 	O 	0.6036	0.054	0.8769	-0.506
Mof_O 	O 	0.7396	0.0807	0.8631	-0.507
Mof_O 	O 	0.6081	0.1961	0.7853	-0.57
Mof_O 	O 	0.7438	0.1652	0.7974	-0.502
Mof_C 	C 	0.6877	0.1951	0.7757	0.343
Mof_C 	C 	0.7237	0.2299	0.741	-0.059
Mof_C 	C 	0.81	0.2152	0.7285	0.017
Mof_C 	C 	0.6725	0.2697	0.7199	0.123
Mof_H 	H 	0.8478	0.1889	0.743	0.02
Mof_C 	C 	0.8386	0.2405	0.6939	-0.053
Mof_N 	N 	0.587	0.2924	0.7322	-0.212
Mof_C 	C 	0.705	0.2942	0.6871	-0.052
Mof_H 	H 	0.8963	0.2295	0.6845	0.033
Mof_C 	C 	0.7873	0.2811	0.6725	0.013
Mof_H 	H 	0.5593	0.3206	0.7186	0.115
Mof_H 	H 	0.5624	0.2782	0.7533	0.106
Mof_H 	H 	0.6681	0.3223	0.6735	0.054
Mof_C 	C 	0.8147	0.3028	0.6348	0.312
Mof_N 	N 	0.923	0.006	0.9664	-0.202
Mof_H 	H 	0.9502	0.026	0.9477	0.11
Mof_H 	H 	0.9536	0.9936	0.9865	0.116
Mof_C 	C 	0.7227	0.0189	0.9197	-0.028
Mof_C 	C 	0.8128	0.022	0.93	-0.059
Mof_H 	H 	0.8547	0.0414	0.9134	0.055
Mof_C 	C 	0.8414	0.9967	0.9645	0.04
Mof_C 	C 	0.78	0.9683	0.9888	-0.052
Mof_H 	H 	0.648	0.9457	0.995	0.019
Mof_H 	H 	0.5998	0.9884	0.9369	0.029
Mof_O 	O 	0.1036	0.554	0.8769	-0.506
Mof_O 	O 	0.2396	0.5807	0.8631	-0.507
Mof_O 	O 	0.1081	0.6961	0.7853	-0.57
Mof_O 	O 	0.2438	0.6652	0.7974	-0.502
Mof_C 	C 	0.1877	0.6951	0.7757	0.343
Mof_C 	C 	0.2237	0.7299	0.741	-0.059
Mof_C 	C 	0.31	0.7152	0.7285	0.017
Mof_C 	C 	0.1725	0.7697	0.7199	0.123
Mof_H 	H 	0.3478	0.6889	0.743	0.02
Mof_C 	C 	0.3386	0.7405	0.6939	-0.053
Mof_N 	N 	0.087	0.7924	0.7322	-0.212
Mof_C 	C 	0.205	0.7942	0.6871	-0.052
Mof_H 	H 	0.3963	0.7295	0.6845	0.033
Mof_C 	C 	0.2873	0.7811	0.6725	0.013
Mof_H 	H 	0.0593	0.8206	0.7186	0.115
Mof_H 	H 	0.0624	0.7782	0.7533	0.106
Mof_H 	H 	0.1681	0.8223	0.6735	0.054
Mof_C 	C 	0.3147	0.8028	0.6348	0.312
Mof_N 	N 	0.423	0.506	0.9664	-0.202
Mof_H 	H 	0.4502	0.526	0.9477	0.111
Mof_H 	H 	0.4536	0.4936	0.9865	0.115
Mof_C 	C 	0.2227	0.5189	0.9197	-0.028
Mof_C 	C 	0.3128	0.522	0.93	-0.059
Mof_H 	H 	0.3547	0.5414	0.9134	0.055
Mof_C 	C 	0.3414	0.4967	0.9645	0.04
Mof_C 	C 	0.28	0.4683	0.9888	-0.052
Mof_H 	H 	0.148	0.4457	0.995	0.019
Mof_H 	H 	0.0998	0.4884	0.9369	0.029
Mof_O 	O 	0.1036	0.054	0.3769	-0.506
Mof_O 	O 	0.2396	0.0807	0.3631	-0.507
Mof_O 	O 	0.1081	0.1961	0.2853	-0.57
Mof_O 	O 	0.2438	0.1652	0.2974	-0.502
Mof_C 	C 	0.1877	0.1951	0.2757	0.343
Mof_C 	C 	0.2237	0.2299	0.241	-0.059
Mof_C 	C 	0.31	0.2152	0.2285	0.017
Mof_C 	C 	0.1725	0.2697	0.2199	0.123
Mof_H 	H 	0.3478	0.1889	0.243	0.02
Mof_C 	C 	0.3386	0.2405	0.1939	-0.053
Mof_N 	N 	0.087	0.2924	0.2322	-0.212
Mof_C 	C 	0.205	0.2942	0.1871	-0.052
Mof_H 	H 	0.3963	0.2295	0.1845	0.033
Mof_C 	C 	0.2873	0.2811	0.1725	0.013
Mof_H 	H 	0.0593	0.3206	0.2186	0.115
Mof_H 	H 	0.0624	0.2782	0.2533	0.106
Mof_H 	H 	0.1681	0.3223	0.1735	0.054
Mof_C 	C 	0.3147	0.3028	0.1348	0.312
Mof_N 	N 	0.423	0.006	0.4664	-0.203
Mof_H 	H 	0.4502	0.026	0.4477	0.111
Mof_H 	H 	0.4536	0.9936	0.4865	0.115
Mof_C 	C 	0.2227	0.0189	0.4197	-0.028
Mof_C 	C 	0.3128	0.022	0.43	-0.058
Mof_H 	H 	0.3547	0.0414	0.4134	0.054
Mof_C 	C 	0.3414	0.9967	0.4645	0.042
Mof_C 	C 	0.28	0.9683	0.4888	-0.052
Mof_H 	H 	0.148	0.9457	0.495	0.019
Mof_H 	H 	0.0998	0.9884	0.4369	0.029
Mof_In	In	0.375	0.375	0.08006	2.59
Mof_In	In	0.375	0.875	0.58006	2.59
Mof_In	In	0.875	0.375	0.58006	2.59
Mof_In	In	0.875	0.875	0.08006	2.59
Mof_In	In	0.625	0.625	0.33006	2.59
Mof_In	In	0.625	0.125	0.83006	2.59
Mof_In	In	0.125	0.625	0.83006	2.59
Mof_In	In	0.125	0.125	0.33006	2.59
Mof_O 	O 	0.3536	0.304	0.6231	-0.506
Mof_O 	O 	0.4896	0.3307	0.6369	-0.507
Mof_O 	O 	0.3581	0.4461	0.7147	-0.57
Mof_O 	O 	0.4938	0.4152	0.7026	-0.502
Mof_C 	C 	0.4377	0.4451	0.7243	0.343
Mof_C 	C 	0.4737	0.4799	0.759	-0.059
Mof_C 	C 	0.56	0.4652	0.7715	0.017
Mof_C 	C 	0.4225	0.5197	0.7801	0.123
Mof_H 	H 	0.5978	0.4389	0.757	0.02
Mof_C 	C 	0.5886	0.4905	0.8061	-0.053
Mof_N 	N 	0.337	0.5424	0.7678	-0.212
Mof_C 	C 	0.455	0.5442	0.8129	-0.052
Mof_H 	H 	0.6463	0.4795	0.8155	0.033
Mof_C 	C 	0.5373	0.5311	0.8275	0.013
Mof_H 	H 	0.3093	0.5706	0.7814	0.115
Mof_H 	H 	0.3124	0.5282	0.7467	0.106
Mof_H 	H 	0.4181	0.5723	0.8265	0.054
Mof_C 	C 	0.5647	0.5528	0.8652	0.312
Mof_N 	N 	0.673	0.256	0.5336	-0.202
Mof_H 	H 	0.7002	0.276	0.5523	0.111
Mof_H 	H 	0.7036	0.2436	0.5135	0.115
Mof_C 	C 	0.4727	0.2689	0.5803	-0.028
Mof_C 	C 	0.5628	0.272	0.57	-0.059
Mof_H 	H 	0.6047	0.2914	0.5866	0.055
Mof_C 	C 	0.5914	0.2467	0.5355	0.04
Mof_C 	C 	0.53	0.2183	0.5112	-0.052
Mof_H 	H 	0.398	0.1957	0.505	0.019
Mof_H 	H 	0.3498	0.2384	0.5631	0.029
Mof_O 	O 	0.3536	0.804	0.1231	-0.506
Mof_O 	O 	0.4896	0.8307	0.1369	-0.507
Mof_O 	O 	0.3581	0.9461	0.2147	-0.57
Mof_O 	O 	0.4938	0.9152	0.2026	-0.502
Mof_C 	C 	0.4377	0.9451	0.2243	0.343
Mof_C 	C 	0.4737	0.9799	0.259	-0.059
Mof_C 	C 	0.56	0.9652	0.2715	0.017
Mof_C 	C 	0.4225	0.0197	0.2801	0.123
Mof_H 	H 	0.5978	0.9389	0.257	0.02
Mof_C 	C 	0.5886	0.9905	0.3061	-0.052
Mof_N 	N 	0.337	0.0424	0.2678	-0.212
Mof_C 	C 	0.455	0.0442	0.3129	-0.052
Mof_H 	H 	0.6463	0.9795	0.3155	0.033
Mof_C 	C 	0.5373	0.0311	0.3275	0.013
Mof_H 	H 	0.3093	0.0706	0.2814	0.115
Mof_H 	H 	0.3124	0.0282	0.2467	0.106
Mof_H 	H 	0.4181	0.0723	0.3265	0.054
Mof_C 	C 	0.5647	0.0528	0.3652	0.312
Mof_N 	N 	0.673	0.756	0.0336	-0.202
Mof_H 	H 	0.7002	0.776	0.0523	0.111
Mof_H 	H 	0.7036	0.7436	0.0135	0.116
Mof_C 	C 	0.4727	0.7689	0.0803	-0.028
Mof_C 	C 	0.5628	0.772	0.07	-0.059
Mof_H 	H 	0.6047	0.7914	0.0866	0.055
Mof_C 	C 	0.5914	0.7467	0.0355	0.04
Mof_C 	C 	0.53	0.7183	0.0112	-0.052
Mof_H 	H 	0.398	0.6957	0.005	0.019
Mof_H 	H 	0.3498	0.7384	0.0631	0.029
Mof_O 	O 	0.8536	0.304	0.1231	-0.506
Mof_O 	O 	0.9896	0.3307	0.1369	-0.507
Mof_O 	O 	0.8581	0.4461	0.2147	-0.57
Mof_O 	O 	0.9938	0.4152	0.2026	-0.502
Mof_C 	C 	0.9377	0.4451	0.2243	0.343
Mof_C 	C 	0.9737	0.4799	0.259	-0.059
Mof_C 	C 	0.06	0.4652	0.2715	0.017
Mof_C 	C 	0.9225	0.5197	0.2801	0.123
Mof_H 	H 	0.0978	0.4389	0.257	0.02
Mof_C 	C 	0.0886	0.4905	0.3061	-0.053
Mof_N 	N 	0.837	0.5424	0.2678	-0.212
Mof_C 	C 	0.955	0.5442	0.3129	-0.052
Mof_H 	H 	0.1463	0.4795	0.3155	0.033
Mof_C 	C 	0.0373	0.5311	0.3275	0.013
Mof_H 	H 	0.8093	0.5706	0.2814	0.115
Mof_H 	H 	0.8124	0.5282	0.2467	0.106
Mof_H 	H 	0.9181	0.5723	0.3265	0.054
Mof_C 	C 	0.0647	0.5528	0.3652	0.312
Mof_N 	N 	0.173	0.256	0.0336	-0.202
Mof_H 	H 	0.2002	0.276	0.0523	0.111
Mof_H 	H 	0.2036	0.2436	0.0135	0.115
Mof_C 	C 	0.9727	0.2689	0.0803	-0.028
Mof_C 	C 	0.0628	0.272	0.07	-0.059
Mof_H 	H 	0.1047	0.2914	0.0866	0.055
Mof_C 	C 	0.0914	0.2467	0.0355	0.04
Mof_C 	C 	0.03	0.2183	0.0112	-0.052
Mof_H 	H 	0.898	0.1957	0.005	0.019
Mof_H 	H 	0.8498	0.2384	0.0631	0.029
Mof_O 	O 	0.8536	0.804	0.6231	-0.506
Mof_O 	O 	0.9896	0.8307	0.6369	-0.507
Mof_O 	O 	0.8581	0.9461	0.7147	-0.57
Mof_O 	O 	0.9938	0.9152	0.7026	-0.502
Mof_C 	C 	0.9377	0.9451	0.7243	0.343
Mof_C 	C 	0.9737	0.9799	0.759	-0.058
Mof_C 	C 	0.06	0.9652	0.7715	0.017
Mof_C 	C 	0.9225	0.0197	0.7801	0.126
Mof_H 	H 	0.0978	0.9389	0.757	0.02
Mof_C 	C 	0.0886	0.9905	0.8061	-0.053
Mof_N 	N 	0.837	0.0424	0.7678	-0.212
Mof_C 	C 	0.955	0.0442	0.8129	-0.051
Mof_H 	H 	0.1463	0.9795	0.8155	0.033
Mof_C 	C 	0.0373	0.0311	0.8275	0.014
Mof_H 	H 	0.8093	0.0706	0.7814	0.115
Mof_H 	H 	0.8124	0.0282	0.7467	0.106
Mof_H 	H 	0.9181	0.0723	0.8265	0.053
Mof_C 	C 	0.0647	0.0528	0.8652	0.312
Mof_N 	N 	0.173	0.756	0.5336	-0.202
Mof_H 	H 	0.2002	0.776	0.5523	0.111
Mof_H 	H 	0.2036	0.7436	0.5135	0.115
Mof_C 	C 	0.9727	0.7689	0.5803	-0.028
Mof_C 	C 	0.0628	0.772	0.57	-0.06
Mof_H 	H 	0.1047	0.7914	0.5866	0.055
Mof_C 	C 	0.0914	0.7467	0.5355	0.04
Mof_C 	C 	0.03	0.7183	0.5112	-0.052
Mof_H 	H 	0.898	0.6957	0.505	0.019
Mof_H 	H 	0.8498	0.7384	0.5631	0.029
Mof_O 	O 	0.3964	0.446	0.6231	-0.506
Mof_O 	O 	0.2604	0.4193	0.6369	-0.507
Mof_O 	O 	0.3919	0.3039	0.7147	-0.57
Mof_O 	O 	0.2562	0.3348	0.7026	-0.502
Mof_C 	C 	0.3123	0.3049	0.7243	0.343
Mof_C 	C 	0.2763	0.2701	0.759	-0.059
Mof_C 	C 	0.19	0.2848	0.7715	0.017
Mof_C 	C 	0.3275	0.2303	0.7801	0.123
Mof_H 	H 	0.1522	0.3111	0.757	0.02
Mof_C 	C 	0.1614	0.2595	0.8061	-0.053
Mof_N 	N 	0.413	0.2076	0.7678	-0.212
Mof_C 	C 	0.295	0.2058	0.8129	-0.052
Mof_H 	H 	0.1037	0.2705	0.8155	0.033
Mof_C 	C 	0.2127	0.2189	0.8275	0.013
Mof_H 	H 	0.4407	0.1794	0.7814	0.115
Mof_H 	H 	0.4376	0.2218	0.7467	0.106
Mof_H 	H 	0.3319	0.1777	0.8265	0.054
Mof_C 	C 	0.1853	0.1972	0.8652	0.312
Mof_N 	N 	0.077	0.494	0.5336	-0.202
Mof_H 	H 	0.0498	0.474	0.5523	0.11
Mof_H 	H 	0.0464	0.5064	0.5135	0.115
Mof_C 	C 	0.2773	0.4811	0.5803	-0.028
Mof_C 	C 	0.1872	0.478	0.57	-0.059
Mof_H 	H 	0.1453	0.4586	0.5866	0.055
Mof_C 	C 	0.1586	0.5033	0.5355	0.04
Mof_C 	C 	0.22	0.5317	0.5112	-0.052
Mof_H 	H 	0.352	0.5543	0.505	0.019
Mof_H 	H 	0.4002	0.5116	0.5631	0.029
Mof_O 	O 	0.3964	0.946	0.1231	-0.506
Mof_O 	O 	0.2604	0.9193	0.1369	-0.507
Mof_O 	O 	0.3919	0.8039	0.2147	-0.57
Mof_O 	O 	0.2562	0.8348	0.2026	-0.502
Mof_C 	C 	0.3123	0.8049	0.2243	0.343
Mof_C 	C 	0.2763	0.7701	0.259	-0.059
Mof_C 	C 	0.19	0.7848	0.2715	0.017
Mof_C 	C 	0.3275	0.7303	0.2801	0.123
Mof_H 	H 	0.1522	0.8111	0.257	0.02
Mof_C 	C 	0.1614	0.7595	0.3061	-0.053
Mof_N 	N 	0.413	0.7076	0.2678	-0.212
Mof_C 	C 	0.295	0.7058	0.3129	-0.052
Mof_H 	H 	0.1037	0.7705	0.3155	0.033
Mof_C 	C 	0.2127	0.7189	0.3275	0.013
Mof_H 	H 	0.4407	0.6794	0.2814	0.115
Mof_H 	H 	0.4376	0.7218	0.2467	0.106
Mof_H 	H 	0.3319	0.6777	0.3265	0.054
Mof_C 	C 	0.1853	0.6972	0.3652	0.312
Mof_N 	N 	0.077	0.994	0.0336	-0.202
Mof_H 	H 	0.0498	0.974	0.0523	0.11
Mof_H 	H 	0.0464	0.0064	0.0135	0.116
Mof_C 	C 	0.2773	0.9811	0.0803	-0.028
Mof_C 	C 	0.1872	0.978	0.07	-0.059
Mof_H 	H 	0.1453	0.9586	0.0866	0.055
Mof_C 	C 	0.1586	0.0033	0.0355	0.04
Mof_C 	C 	0.22	0.0317	0.0112	-0.052
Mof_H 	H 	0.352	0.0543	0.005	0.019
Mof_H 	H 	0.4002	0.0116	0.0631	0.029
Mof_O 	O 	0.8964	0.446	0.1231	-0.506
Mof_O 	O 	0.7604	0.4193	0.1369	-0.507
Mof_O 	O 	0.8919	0.3039	0.2147	-0.57
Mof_O 	O 	0.7562	0.3348	0.2026	-0.502
Mof_C 	C 	0.8123	0.3049	0.2243	0.343
Mof_C 	C 	0.7763	0.2701	0.259	-0.059
Mof_C 	C 	0.69	0.2848	0.2715	0.017
Mof_C 	C 	0.8275	0.2303	0.2801	0.123
Mof_H 	H 	0.6522	0.3111	0.257	0.02
Mof_C 	C 	0.6614	0.2595	0.3061	-0.053
Mof_N 	N 	0.913	0.2076	0.2678	-0.212
Mof_C 	C 	0.795	0.2058	0.3129	-0.052
Mof_H 	H 	0.6037	0.2705	0.3155	0.033
Mof_C 	C 	0.7127	0.2189	0.3275	0.013
Mof_H 	H 	0.9407	0.1794	0.2814	0.115
Mof_H 	H 	0.9376	0.2218	0.2467	0.106
Mof_H 	H 	0.8319	0.1777	0.3265	0.054
Mof_C 	C 	0.6853	0.1972	0.3652	0.312
Mof_N 	N 	0.577	0.494	0.0336	-0.202
Mof_H 	H 	0.5498	0.474	0.0523	0.111
Mof_H 	H 	0.5464	0.5064	0.0135	0.115
Mof_C 	C 	0.7773	0.4811	0.0803	-0.028
Mof_C 	C 	0.6872	0.478	0.07	-0.059
Mof_H 	H 	0.6453	0.4586	0.0866	0.055
Mof_C 	C 	0.6586	0.5033	0.0355	0.04
Mof_C 	C 	0.72	0.5317	0.0112	-0.052
Mof_H 	H 	0.852	0.5543	0.005	0.019
Mof_H 	H 	0.9002	0.5116	0.0631	0.029
Mof_O 	O 	0.8964	0.946	0.6231	-0.506
Mof_O 	O 	0.7604	0.9193	0.6369	-0.507
Mof_O 	O 	0.8919	0.8039	0.7147	-0.57
Mof_O 	O 	0.7562	0.8348	0.7026	-0.502
Mof_C 	C 	0.8123	0.8049	0.7243	0.343
Mof_C 	C 	0.7763	0.7701	0.759	-0.059
Mof_C 	C 	0.69	0.7848	0.7715	0.017
Mof_C 	C 	0.8275	0.7303	0.7801	0.123
Mof_H 	H 	0.6522	0.8111	0.757	0.02
Mof_C 	C 	0.6614	0.7595	0.8061	-0.053
Mof_N 	N 	0.913	0.7076	0.7678	-0.212
Mof_C 	C 	0.795	0.7058	0.8129	-0.052
Mof_H 	H 	0.6037	0.7705	0.8155	0.033
Mof_C 	C 	0.7127	0.7189	0.8275	0.013
Mof_H 	H 	0.9407	0.6794	0.7814	0.115
Mof_H 	H 	0.9376	0.7218	0.7467	0.106
Mof_H 	H 	0.8319	0.6777	0.8265	0.054
Mof_C 	C 	0.6853	0.6972	0.8652	0.312
Mof_N 	N 	0.577	0.994	0.5336	-0.203
Mof_H 	H 	0.5498	0.974	0.5523	0.111
Mof_H 	H 	0.5464	0.0064	0.5135	0.115
Mof_C 	C 	0.7773	0.9811	0.5803	-0.028
Mof_C 	C 	0.6872	0.978	0.57	-0.058
Mof_H 	H 	0.6453	0.9586	0.5866	0.054
Mof_C 	C 	0.6586	0.0033	0.5355	0.042
Mof_C 	C 	0.72	0.0317	0.5112	-0.052
Mof_H 	H 	0.852	0.0543	0.505	0.019
Mof_H 	H 	0.9002	0.0116	0.5631	0.029
Mof_O 	O 	0.6036	0.696	0.8731	-0.506
Mof_O 	O 	0.7396	0.6693	0.8869	-0.507
Mof_O 	O 	0.6081	0.5539	0.9647	-0.57
Mof_O 	O 	0.7438	0.5848	0.9526	-0.502
Mof_C 	C 	0.6877	0.5549	0.9743	0.343
Mof_C 	C 	0.7237	0.5201	0.009	-0.059
Mof_C 	C 	0.81	0.5348	0.0215	0.017
Mof_C 	C 	0.6725	0.4803	0.0301	0.123
Mof_H 	H 	0.8478	0.5611	0.007	0.02
Mof_C 	C 	0.8386	0.5095	0.0561	-0.053
Mof_N 	N 	0.587	0.4576	0.0178	-0.212
Mof_C 	C 	0.705	0.4558	0.0629	-0.052
Mof_H 	H 	0.8963	0.5205	0.0655	0.033
Mof_C 	C 	0.7873	0.4689	0.0775	0.013
Mof_H 	H 	0.5593	0.4294	0.0314	0.115
Mof_H 	H 	0.5624	0.4718	0.9967	0.106
Mof_H 	H 	0.6681	0.4277	0.0765	0.054
Mof_C 	C 	0.8147	0.4472	0.1152	0.312
Mof_N 	N 	0.923	0.744	0.7836	-0.202
Mof_H 	H 	0.9502	0.724	0.8023	0.111
Mof_H 	H 	0.9536	0.7564	0.7635	0.115
Mof_C 	C 	0.7227	0.7311	0.8303	-0.028
Mof_C 	C 	0.8128	0.728	0.82	-0.059
Mof_H 	H 	0.8547	0.7086	0.8366	0.055
Mof_C 	C 	0.8414	0.7533	0.7855	0.04
Mof_C 	C 	0.78	0.7817	0.7612	-0.052
Mof_H 	H 	0.648	0.8043	0.755	0.019
Mof_H 	H 	0.5998	0.7616	0.8131	0.029
Mof_O 	O 	0.6036	0.196	0.3731	-0.506
Mof_O 	O 	0.7396	0.1693	0.3869	-0.507
Mof_O 	O 	0.6081	0.0539	0.4647	-0.57
Mof_O 	O 	0.7438	0.0848	0.4526	-0.502
Mof_C 	C 	0.6877	0.0549	0.4743	0.343
Mof_C 	C 	0.7237	0.0201	0.509	-0.059
Mof_C 	C 	0.81	0.0348	0.5215	0.017
Mof_C 	C 	0.6725	0.9803	0.5301	0.121
Mof_H 	H 	0.8478	0.0611	0.507	0.02
Mof_C 	C 	0.8386	0.0095	0.5561	-0.053
Mof_N 	N 	0.587	0.9576	0.5178	-0.211
Mof_C 	C 	0.705	0.9558	0.5629	-0.053
Mof_H 	H 	0.8963	0.0205	0.5655	0.033
Mof_C 	C 	0.7873	0.9689	0.5775	0.013
Mof_H 	H 	0.5593	0.9294	0.5314	0.115
Mof_H 	H 	0.5624	0.9718	0.4967	0.106
Mof_H 	H 	0.6681	0.9277	0.5765	0.054
Mof_C 	C 	0.8147	0.9472	0.6152	0.312
Mof_N 	N 	0.923	0.244	0.2836	-0.202
Mof_H 	H 	0.9502	0.224	0.3023	0.11
Mof_H 	H 	0.9536	0.2564	0.2635	0.115
Mof_C 	C 	0.7227	0.2311	0.3303	-0.028
Mof_C 	C 	0.8128	0.228	0.32	-0.059
Mof_H 	H 	0.8547	0.2086	0.3366	0.055
Mof_C 	C 	0.8414	0.2533	0.2855	0.04
Mof_C 	C 	0.78	0.2817	0.2612	-0.052
Mof_H 	H 	0.648	0.3043	0.255	0.019
Mof_H 	H 	0.5998	0.2616	0.3131	0.029
Mof_O 	O 	0.1036	0.696	0.3731	-0.506
Mof_O 	O 	0.2396	0.6693	0.3869	-0.507
Mof_O 	O 	0.1081	0.5539	0.4647	-0.57
Mof_O 	O 	0.2438	0.5848	0.4526	-0.502
Mof_C 	C 	0.1877	0.5549	0.4743	0.343
Mof_C 	C 	0.2237	0.5201	0.509	-0.059
Mof_C 	C 	0.31	0.5348	0.5215	0.017
Mof_C 	C 	0.1725	0.4803	0.5301	0.123
Mof_H 	H 	0.3478	0.5611	0.507	0.02
Mof_C 	C 	0.3386	0.5095	0.5561	-0.053
Mof_N 	N 	0.087	0.4576	0.5178	-0.212
Mof_C 	C 	0.205	0.4558	0.5629	-0.052
Mof_H 	H 	0.3963	0.5205	0.5655	0.033
Mof_C 	C 	0.2873	0.4689	0.5775	0.013
Mof_H 	H 	0.0593	0.4294	0.5314	0.115
Mof_H 	H 	0.0624	0.4718	0.4967	0.106
Mof_H 	H 	0.1681	0.4277	0.5765	0.054
Mof_C 	C 	0.3147	0.4472	0.6152	0.312
Mof_N 	N 	0.423	0.744	0.2836	-0.202
Mof_H 	H 	0.4502	0.724	0.3023	0.111
Mof_H 	H 	0.4536	0.7564	0.2635	0.115
Mof_C 	C 	0.2227	0.7311	0.3303	-0.028
Mof_C 	C 	0.3128	0.728	0.32	-0.059
Mof_H 	H 	0.3547	0.7086	0.3366	0.055
Mof_C 	C 	0.3414	0.7533	0.2855	0.04
Mof_C 	C 	0.28	0.7817	0.2612	-0.052
Mof_H 	H 	0.148	0.8043	0.255	0.019
Mof_H 	H 	0.0998	0.7616	0.3131	0.029
Mof_O 	O 	0.1036	0.196	0.8731	-0.506
Mof_O 	O 	0.2396	0.1693	0.8869	-0.507
Mof_O 	O 	0.1081	0.0539	0.9647	-0.57
Mof_O 	O 	0.2438	0.0848	0.9526	-0.502
Mof_C 	C 	0.1877	0.0549	0.9743	0.344
Mof_C 	C 	0.2237	0.0201	0.009	-0.059
Mof_C 	C 	0.31	0.0348	0.0215	0.017
Mof_C 	C 	0.1725	0.9803	0.0301	0.123
Mof_H 	H 	0.3478	0.0611	0.007	0.02
Mof_C 	C 	0.3386	0.0095	0.0561	-0.053
Mof_N 	N 	0.087	0.9576	0.0178	-0.211
Mof_C 	C 	0.205	0.9558	0.0629	-0.052
Mof_H 	H 	0.3963	0.0205	0.0655	0.033
Mof_C 	C 	0.2873	0.9689	0.0775	0.013
Mof_H 	H 	0.0593	0.9294	0.0314	0.115
Mof_H 	H 	0.0624	0.9718	0.9967	0.106
Mof_H 	H 	0.1681	0.9277	0.0765	0.054
Mof_C 	C 	0.3147	0.9472	0.1152	0.312
Mof_N 	N 	0.423	0.244	0.7836	-0.202
Mof_H 	H 	0.4502	0.224	0.8023	0.111
Mof_H 	H 	0.4536	0.2564	0.7635	0.115
Mof_C 	C 	0.2227	0.2311	0.8303	-0.028
Mof_C 	C 	0.3128	0.228	0.82	-0.059
Mof_H 	H 	0.3547	0.2086	0.8366	0.055
Mof_C 	C 	0.3414	0.2533	0.7855	0.04
Mof_C 	C 	0.28	0.2817	0.7612	-0.052
Mof_H 	H 	0.148	0.3043	0.755	0.019
Mof_H 	H 	0.0998	0.2616	0.8131	0.029
Mof_O 	O 	0.6464	0.554	0.8731	-0.506
Mof_O 	O 	0.5104	0.5807	0.8869	-0.507
Mof_O 	O 	0.6419	0.6961	0.9647	-0.57
Mof_O 	O 	0.5062	0.6652	0.9526	-0.502
Mof_C 	C 	0.5623	0.6951	0.9743	0.343
Mof_C 	C 	0.5263	0.7299	0.009	-0.059
Mof_C 	C 	0.44	0.7152	0.0215	0.017
Mof_C 	C 	0.5775	0.7697	0.0301	0.123
Mof_H 	H 	0.4022	0.6889	0.007	0.02
Mof_C 	C 	0.4114	0.7405	0.0561	-0.053
Mof_N 	N 	0.663	0.7924	0.0178	-0.211
Mof_C 	C 	0.545	0.7942	0.0629	-0.052
Mof_H 	H 	0.3537	0.7295	0.0655	0.033
Mof_C 	C 	0.4627	0.7811	0.0775	0.013
Mof_H 	H 	0.6907	0.8206	0.0314	0.115
Mof_H 	H 	0.6876	0.7782	0.9967	0.106
Mof_H 	H 	0.5819	0.8223	0.0765	0.054
Mof_C 	C 	0.4353	0.8028	0.1152	0.312
Mof_N 	N 	0.327	0.506	0.7836	-0.202
Mof_H 	H 	0.2998	0.526	0.8023	0.111
Mof_H 	H 	0.2964	0.4936	0.7635	0.115
Mof_C 	C 	0.5273	0.5189	0.8303	-0.028
Mof_C 	C 	0.4372	0.522	0.82	-0.059
Mof_H 	H 	0.3953	0.5414	0.8366	0.055
Mof_C 	C 	0.4086	0.4967	0.7855	0.04
Mof_C 	C 	0.47	0.4683	0.7612	-0.052
Mof_H 	H 	0.602	0.4457	0.755	0.019
Mof_H 	H 	0.6502	0.4884	0.8131	0.029
Mof_O 	O 	0.6464	0.054	0.3731	-0.506
Mof_O 	O 	0.5104	0.0807	0.3869	-0.507
Mof_O 	O 	0.6419	0.1961	0.4647	-0.57
Mof_O 	O 	0.5062	0.1652	0.4526	-0.502
Mof_C 	C 	0.5623	0.1951	0.4743	0.343
Mof_C 	C 	0.5263	0.2299	0.509	-0.059
Mof_C 	C 	0.44	0.2152	0.5215	0.017
Mof_C 	C 	0.5775	0.2697	0.5301	0.123
Mof_H 	H 	0.4022	0.1889	0.507	0.02
Mof_C 	C 	0.4114	0.2405	0.5561	-0.053
Mof_N 	N 	0.663	0.2924	0.5178	-0.212
Mof_C 	C 	0.545	0.2942	0.5629	-0.052
Mof_H 	H 	0.3537	0.2295	0.5655	0.033
Mof_C 	C 	0.4627	0.2811	0.5775	0.013
Mof_H 	H 	0.6907	0.3206	0.5314	0.115
Mof_H 	H 	0.6876	0.2782	0.4967	0.106
Mof_H 	H 	0.5819	0.3223	0.5765	0.054
Mof_C 	C 	0.4353	0.3028	0.6152	0.312
Mof_N 	N 	0.327	0.006	0.2836	-0.202
Mof_H 	H 	0.2998	0.026	0.3023	0.111
Mof_H 	H 	0.2964	0.9936	0.2635	0.115
Mof_C 	C 	0.5273	0.0189	0.3303	-0.028
Mof_C 	C 	0.4372	0.022	0.32	-0.059
Mof_H 	H 	0.3953	0.0414	0.3366	0.055
Mof_C 	C 	0.4086	0.9967	0.2855	0.04
Mof_C 	C 	0.47	0.9683	0.2612	-0.052
Mof_H 	H 	0.602	0.9457	0.255	0.019
Mof_H 	H 	0.6502	0.9884	0.3131	0.029
Mof_O 	O 	0.1464	0.554	0.3731	-0.506
Mof_O 	O 	0.0104	0.5807	0.3869	-0.507
Mof_O 	O 	0.1419	0.6961	0.4647	-0.57
Mof_O 	O 	0.0062	0.6652	0.4526	-0.502
Mof_C 	C 	0.0623	0.6951	0.4743	0.343
Mof_C 	C 	0.0263	0.7299	0.509	-0.059
Mof_C 	C 	0.94	0.7152	0.5215	0.018
Mof_C 	C 	0.0775	0.7697	0.5301	0.124
Mof_H 	H 	0.9022	0.6889	0.507	0.02
Mof_C 	C 	0.9114	0.7405	0.5561	-0.053
Mof_N 	N 	0.163	0.7924	0.5178	-0.212
Mof_C 	C 	0.045	0.7942	0.5629	-0.052
Mof_H 	H 	0.8537	0.7295	0.5655	0.033
Mof_C 	C 	0.9627	0.7811	0.5775	0.013
Mof_H 	H 	0.1907	0.8206	0.5314	0.115
Mof_H 	H 	0.1876	0.7782	0.4967	0.106
Mof_H 	H 	0.0819	0.8223	0.5765	0.054
Mof_C 	C 	0.9353	0.8028	0.6152	0.312
Mof_N 	N 	0.827	0.506	0.2836	-0.202
Mof_H 	H 	0.7998	0.526	0.3023	0.111
Mof_H 	H 	0.7964	0.4936	0.2635	0.115
Mof_C 	C 	0.0273	0.5189	0.3303	-0.028
Mof_C 	C 	0.9372	0.522	0.32	-0.059
Mof_H 	H 	0.8953	0.5414	0.3366	0.055
Mof_C 	C 	0.9086	0.4967	0.2855	0.04
Mof_C 	C 	0.97	0.4683	0.2612	-0.052
Mof_H 	H 	0.102	0.4457	0.255	0.019
Mof_H 	H 	0.1502	0.4884	0.3131	0.029
Mof_O 	O 	0.1464	0.054	0.8731	-0.506
Mof_O 	O 	0.0104	0.0807	0.8869	-0.507
Mof_O 	O 	0.1419	0.1961	0.9647	-0.57
Mof_O 	O 	0.0062	0.1652	0.9526	-0.502
Mof_C 	C 	0.0623	0.1951	0.9743	0.343
Mof_C 	C 	0.0263	0.2299	0.009	-0.059
Mof_C 	C 	0.94	0.2152	0.0215	0.017
Mof_C 	C 	0.0775	0.2697	0.0301	0.123
Mof_H 	H 	0.9022	0.1889	0.007	0.02
Mof_C 	C 	0.9114	0.2405	0.0561	-0.052
Mof_N 	N 	0.163	0.2924	0.0178	-0.212
Mof_C 	C 	0.045	0.2942	0.0629	-0.052
Mof_H 	H 	0.8537	0.2295	0.0655	0.033
Mof_C 	C 	0.9627	0.2811	0.0775	0.013
Mof_H 	H 	0.1907	0.3206	0.0314	0.115
Mof_H 	H 	0.1876	0.2782	0.9967	0.106
Mof_H 	H 	0.0819	0.3223	0.0765	0.054
Mof_C 	C 	0.9353	0.3028	0.1152	0.312
Mof_N 	N 	0.827	0.006	0.7836	-0.202
Mof_H 	H 	0.7998	0.026	0.8023	0.11
Mof_H 	H 	0.7964	0.9936	0.7635	0.115
Mof_C 	C 	0.0273	0.0189	0.8303	-0.028
Mof_C 	C 	0.9372	0.022	0.82	-0.061
Mof_H 	H 	0.8953	0.0414	0.8366	0.055
Mof_C 	C 	0.9086	0.9967	0.7855	0.037
Mof_C 	C 	0.97	0.9683	0.7612	-0.052
Mof_H 	H 	0.102	0.9457	0.755	0.019
Mof_H 	H 	0.1502	0.9884	0.8131	0.029
Mof_In	In	0.375	0.375	0.66994	2.59
Mof_In	In	0.375	0.875	0.16994	2.59
Mof_In	In	0.875	0.375	0.16994	2.59
Mof_In	In	0.875	0.875	0.66994	2.59
Mof_In	In	0.625	0.625	0.91994	2.59
Mof_In	In	0.625	0.125	0.41994	2.59
Mof_In	In	0.125	0.625	0.41994	2.59
Mof_In	In	0.125	0.125	0.91994	2.59
_end
