data_functionalizedCrystal
_audit_creation_method	'EQeq! by Chris Wilmer'
_symmetry_space_group_name_H-M	'P1'
_symmetry_Int_Tables_number	1
_symmetry_cell_setting	triclinic
loop_
_symmetry_equiv_pos_as_xyz
  x,y,z
_cell_length_a	30.846
_cell_length_b	15.773
_cell_length_c	22.189
_cell_angle_alpha	90
_cell_angle_beta	133.134
_cell_angle_gamma	90
loop_
_atom_site_label
_atom_site_type_symbol
_atom_site_fract_x
_atom_site_fract_y
_atom_site_fract_z
_atom_site_charge
Mof_La	La	0.6279	0.36364	0.89285	1.662
Mof_La	La	0.6866	0.62839	0.73405	1.647
Mof_La	La	0.84739	0.12942	0.20544	1.628
Mof_La	La	0.90824	0.13748	0.54918	1.786
Mof_N 	N 	0.6801	0.505	0.9769	-0.163
Mof_N 	N 	0.6504	0.7686	0.7561	-0.17
Mof_N 	N 	0.8831	0.2691	0.1827	-0.17
Mof_N 	N 	0.8578	0.997	0.4632	-0.176
Mof_O 	O 	0.6505	0.476	0.8378	-0.516
Mof_O 	O 	0.6893	0.5962	0.8446	-0.5
Mof_O 	O 	0.644	0.3875	0.0205	-0.54
Mof_O 	O 	0.6761	0.4562	0.1278	-0.554
Mof_O 	O 	0.7644	0.7343	0.8477	-0.512
Mof_O 	O 	0.7915	0.8489	0.9237	-0.457
Mof_O 	O 	0.5772	0.6485	0.6514	-0.494
Mof_O 	O 	0.4977	0.7185	0.6105	-0.516
Mof_O 	O 	0.7702	0.2346	0.0927	-0.501
Mof_O 	O 	0.7401	0.3496	0.013	-0.478
Mof_O 	O 	0.9574	0.1453	0.2882	-0.484
Mof_O 	O 	0.0355	0.2194	0.3317	-0.514
Mof_O 	O 	0.8967	0.115	0.4277	-0.491
Mof_O 	O 	0.8583	0.0459	0.3092	-0.517
Mof_O 	O 	0.8838	0.0257	0.6025	-0.522
Mof_O 	O 	0.8408	0.9012	0.59	-0.478
Mof_O 	O 	0.9852	0.1291	0.7094	-0.741
Mof_H 	H 	0.9812	0.1784	0.7205	0.255
Mof_H 	H 	0.9614	0.0967	0.7057	0.251
Mof_C 	C 	0.6806	0.543	0.8749	0.408
Mof_C 	C 	0.7024	0.5551	0.9599	-0.034
Mof_C 	C 	0.7421	0.6212	0.0129	-0.078
Mof_H 	H 	0.7547	0.66	0.996	0.045
Mof_C 	C 	0.7614	0.6266	0.0897	-0.062
Mof_H 	H 	0.7931	0.6612	0.1308	0.014
Mof_C 	C 	0.7315	0.5784	0.1028	0.002
Mof_H 	H 	0.7366	0.589	0.1485	-0.001
Mof_C 	C 	0.6938	0.514	0.0486	-0.119
Mof_C 	C 	0.6675	0.4474	0.0662	0.475
Mof_C 	C 	0.7539	0.8005	0.866	0.395
Mof_C 	C 	0.689	0.8274	0.8104	-0.083
Mof_C 	C 	0.6719	0.8996	0.8237	-0
Mof_H 	H 	0.7003	0.9383	0.8636	0.019
Mof_C 	C 	0.6119	0.9149	0.7772	-0.097
Mof_H 	H 	0.5993	0.9632	0.7855	0.036
Mof_C 	C 	0.5723	0.8562	0.719	0.006
Mof_H 	H 	0.5317	0.8644	0.6861	0.001
Mof_C 	C 	0.5934	0.782	0.7088	-0.089
Mof_C 	C 	0.5522	0.7121	0.649	0.412
Mof_C 	C 	0.7795	0.304	0.0726	0.378
Mof_C 	C 	0.8434	0.325	0.122	-0.087
Mof_C 	C 	0.8622	0.4007	0.1146	0.001
Mof_H 	H 	0.8354	0.4411	0.0752	0.01
Mof_C 	C 	0.9225	0.4131	0.1681	-0.102
Mof_H 	H 	0.9359	0.4639	0.1644	0.035
Mof_C 	C 	0.9647	0.3549	0.2274	0.017
Mof_H 	H 	0.0053	0.3646	0.2622	-0.009
Mof_C 	C 	0.942	0.2814	0.2309	-0.11
Mof_C 	C 	0.9814	0.2115	0.2873	0.39
Mof_C 	C 	0.8679	0.0523	0.3743	0.361
Mof_C 	C 	0.8422	0.9881	0.3902	-0.088
Mof_C 	C 	0.8035	0.9254	0.3354	0.009
Mof_H 	H 	0.7924	0.9203	0.2846	-0.004
Mof_C 	C 	0.7814	0.8693	0.3582	-0.106
Mof_H 	H 	0.7592	0.8223	0.3257	0.033
Mof_C 	C 	0.7931	0.885	0.4305	0.023
Mof_H 	H 	0.7738	0.8543	0.442	0
Mof_C 	C 	0.8324	0.9447	0.4823	-0.099
Mof_C 	C 	0.8549	0.9582	0.5653	0.383
Mof_La	La	0.1279	0.86364	0.89285	1.655
Mof_La	La	0.1866	0.12839	0.73405	1.644
Mof_La	La	0.34739	0.62942	0.20544	1.628
Mof_La	La	0.40824	0.63748	0.54918	1.784
Mof_N 	N 	0.1801	0.005	0.9769	-0.163
Mof_N 	N 	0.1504	0.2686	0.7561	-0.17
Mof_N 	N 	0.3831	0.7691	0.1827	-0.172
Mof_N 	N 	0.3578	0.497	0.4632	-0.176
Mof_O 	O 	0.1505	0.976	0.8378	-0.517
Mof_O 	O 	0.1893	0.0962	0.8446	-0.5
Mof_O 	O 	0.144	0.8875	0.0205	-0.539
Mof_O 	O 	0.1761	0.9562	0.1278	-0.554
Mof_O 	O 	0.2644	0.2343	0.8477	-0.512
Mof_O 	O 	0.2915	0.3489	0.9237	-0.457
Mof_O 	O 	0.0772	0.1485	0.6514	-0.493
Mof_O 	O 	0.9977	0.2185	0.6105	-0.511
Mof_O 	O 	0.2702	0.7346	0.0927	-0.5
Mof_O 	O 	0.2401	0.8496	0.013	-0.476
Mof_O 	O 	0.4574	0.6453	0.2882	-0.483
Mof_O 	O 	0.5355	0.7194	0.3317	-0.51
Mof_O 	O 	0.3967	0.615	0.4277	-0.492
Mof_O 	O 	0.3583	0.5459	0.3092	-0.518
Mof_O 	O 	0.3838	0.5257	0.6025	-0.522
Mof_O 	O 	0.3408	0.4012	0.59	-0.478
Mof_O 	O 	0.4852	0.6291	0.7094	-0.742
Mof_H 	H 	0.4812	0.6784	0.7205	0.255
Mof_H 	H 	0.4614	0.5967	0.7057	0.251
Mof_C 	C 	0.1806	0.043	0.8749	0.408
Mof_C 	C 	0.2024	0.0551	0.9599	-0.038
Mof_C 	C 	0.2421	0.1212	0.0129	-0.073
Mof_H 	H 	0.2547	0.16	0.996	0.042
Mof_C 	C 	0.2614	0.1266	0.0897	-0.065
Mof_H 	H 	0.2931	0.1612	0.1308	0.015
Mof_C 	C 	0.2315	0.0784	0.1028	0.004
Mof_H 	H 	0.2366	0.089	0.1485	-0.002
Mof_C 	C 	0.1938	0.014	0.0486	-0.12
Mof_C 	C 	0.1675	0.9474	0.0662	0.475
Mof_C 	C 	0.2539	0.3005	0.866	0.395
Mof_C 	C 	0.189	0.3274	0.8104	-0.083
Mof_C 	C 	0.1719	0.3996	0.8237	-0.001
Mof_H 	H 	0.2003	0.4383	0.8636	0.019
Mof_C 	C 	0.1119	0.4149	0.7772	-0.097
Mof_H 	H 	0.0993	0.4632	0.7855	0.035
Mof_C 	C 	0.0723	0.3562	0.719	0.005
Mof_H 	H 	0.0317	0.3644	0.6861	-0
Mof_C 	C 	0.0934	0.282	0.7088	-0.089
Mof_C 	C 	0.0522	0.2121	0.649	0.406
Mof_C 	C 	0.2795	0.804	0.0726	0.377
Mof_C 	C 	0.3434	0.825	0.122	-0.085
Mof_C 	C 	0.3622	0.9007	0.1146	-0.004
Mof_H 	H 	0.3354	0.9411	0.0752	0.012
Mof_C 	C 	0.4225	0.9131	0.1681	-0.094
Mof_H 	H 	0.4359	0.9639	0.1644	0.032
Mof_C 	C 	0.4647	0.8549	0.2274	0.004
Mof_H 	H 	0.5053	0.8646	0.2622	-0.002
Mof_C 	C 	0.442	0.7814	0.2309	-0.105
Mof_C 	C 	0.4814	0.7115	0.2873	0.384
Mof_C 	C 	0.3679	0.5523	0.3743	0.361
Mof_C 	C 	0.3422	0.4881	0.3902	-0.089
Mof_C 	C 	0.3035	0.4254	0.3354	0.01
Mof_H 	H 	0.2924	0.4203	0.2846	-0.005
Mof_C 	C 	0.2814	0.3693	0.3582	-0.106
Mof_H 	H 	0.2592	0.3223	0.3257	0.032
Mof_C 	C 	0.2931	0.385	0.4305	0.022
Mof_H 	H 	0.2738	0.3543	0.442	0
Mof_C 	C 	0.3324	0.4447	0.4823	-0.099
Mof_C 	C 	0.3549	0.4582	0.5653	0.383
Mof_La	La	0.6279	0.63636	0.39285	1.631
Mof_La	La	0.6866	0.37161	0.23405	1.638
Mof_La	La	0.84739	0.87058	0.70544	1.639
Mof_La	La	0.90824	0.86252	0.04918	1.746
Mof_N 	N 	0.6801	0.495	0.4769	-0.162
Mof_N 	N 	0.6504	0.2314	0.2561	-0.169
Mof_N 	N 	0.8831	0.7309	0.6827	-0.17
Mof_N 	N 	0.8578	0.003	0.9632	-0.174
Mof_O 	O 	0.6505	0.524	0.3378	-0.519
Mof_O 	O 	0.6893	0.4038	0.3446	-0.505
Mof_O 	O 	0.644	0.6125	0.5205	-0.529
Mof_O 	O 	0.6761	0.5438	0.6278	-0.552
Mof_O 	O 	0.7644	0.2657	0.3477	-0.516
Mof_O 	O 	0.7915	0.1511	0.4237	-0.467
Mof_O 	O 	0.5772	0.3515	0.1514	-0.495
Mof_O 	O 	0.4977	0.2815	0.1105	-0.515
Mof_O 	O 	0.7702	0.7654	0.5927	-0.497
Mof_O 	O 	0.7401	0.6504	0.513	-0.466
Mof_O 	O 	0.9574	0.8547	0.7882	-0.483
Mof_O 	O 	0.0355	0.7806	0.8317	-0.516
Mof_O 	O 	0.8967	0.885	0.9277	-0.48
Mof_O 	O 	0.8583	0.9541	0.8092	-0.515
Mof_O 	O 	0.8838	0.9743	0.1025	-0.516
Mof_O 	O 	0.8408	0.0988	0.09	-0.477
Mof_O 	O 	0.9852	0.8709	0.2094	-0.738
Mof_H 	H 	0.9812	0.8216	0.2205	0.254
Mof_H 	H 	0.9614	0.9033	0.2057	0.25
Mof_C 	C 	0.6806	0.457	0.3749	0.42
Mof_C 	C 	0.7024	0.4449	0.4599	-0.079
Mof_C 	C 	0.7421	0.3788	0.5129	0.009
Mof_H 	H 	0.7547	0.34	0.496	0.003
Mof_C 	C 	0.7614	0.3734	0.5897	-0.11
Mof_H 	H 	0.7931	0.3388	0.6308	0.035
Mof_C 	C 	0.7315	0.4216	0.6028	0.028
Mof_H 	H 	0.7366	0.411	0.6485	-0.008
Mof_C 	C 	0.6938	0.486	0.5486	-0.115
Mof_C 	C 	0.6675	0.5526	0.5662	0.475
Mof_C 	C 	0.7539	0.1995	0.366	0.397
Mof_C 	C 	0.689	0.1726	0.3104	-0.085
Mof_C 	C 	0.6719	0.1004	0.3237	0
Mof_H 	H 	0.7003	0.0617	0.3636	0.017
Mof_C 	C 	0.6119	0.0851	0.2772	-0.099
Mof_H 	H 	0.5993	0.0368	0.2855	0.034
Mof_C 	C 	0.5723	0.1438	0.219	0.006
Mof_H 	H 	0.5317	0.1356	0.1861	-0.001
Mof_C 	C 	0.5934	0.218	0.2088	-0.091
Mof_C 	C 	0.5522	0.2879	0.149	0.409
Mof_C 	C 	0.7795	0.696	0.5726	0.376
Mof_C 	C 	0.8434	0.675	0.622	-0.084
Mof_C 	C 	0.8622	0.5993	0.6146	0.002
Mof_H 	H 	0.8354	0.5589	0.5752	0.014
Mof_C 	C 	0.9225	0.5869	0.6681	-0.102
Mof_H 	H 	0.9359	0.5361	0.6644	0.038
Mof_C 	C 	0.9647	0.6451	0.7274	0.022
Mof_H 	H 	0.0053	0.6354	0.7622	-0.01
Mof_C 	C 	0.942	0.7186	0.7309	-0.111
Mof_C 	C 	0.9814	0.7885	0.7873	0.395
Mof_C 	C 	0.8679	0.9477	0.8743	0.36
Mof_C 	C 	0.8422	0.0119	0.8902	-0.083
Mof_C 	C 	0.8035	0.0746	0.8354	0.003
Mof_H 	H 	0.7924	0.0797	0.7846	-0
Mof_C 	C 	0.7814	0.1307	0.8582	-0.094
Mof_H 	H 	0.7592	0.1777	0.8257	0.031
Mof_C 	C 	0.7931	0.115	0.9305	0.007
Mof_H 	H 	0.7738	0.1457	0.942	0.011
Mof_C 	C 	0.8324	0.0553	0.9823	-0.072
Mof_C 	C 	0.8549	0.0418	0.0653	0.359
Mof_La	La	0.1279	0.13636	0.39285	1.629
Mof_La	La	0.1866	0.87161	0.23405	1.637
Mof_La	La	0.34739	0.37058	0.70544	1.637
Mof_La	La	0.40824	0.36252	0.04918	1.745
Mof_N 	N 	0.1801	0.995	0.4769	-0.162
Mof_N 	N 	0.1504	0.7314	0.2561	-0.169
Mof_N 	N 	0.3831	0.2309	0.6827	-0.172
Mof_N 	N 	0.3578	0.503	0.9632	-0.174
Mof_O 	O 	0.1505	0.024	0.3378	-0.52
Mof_O 	O 	0.1893	0.9038	0.3446	-0.505
Mof_O 	O 	0.144	0.1125	0.5205	-0.53
Mof_O 	O 	0.1761	0.0438	0.6278	-0.552
Mof_O 	O 	0.2644	0.7657	0.3477	-0.516
Mof_O 	O 	0.2915	0.6511	0.4237	-0.467
Mof_O 	O 	0.0772	0.8515	0.1514	-0.495
Mof_O 	O 	0.9977	0.7815	0.1105	-0.512
Mof_O 	O 	0.2702	0.2654	0.5927	-0.496
Mof_O 	O 	0.2401	0.1504	0.513	-0.465
Mof_O 	O 	0.4574	0.3547	0.7882	-0.482
Mof_O 	O 	0.5355	0.2806	0.8317	-0.509
Mof_O 	O 	0.3967	0.385	0.9277	-0.481
Mof_O 	O 	0.3583	0.4541	0.8092	-0.516
Mof_O 	O 	0.3838	0.4743	0.1025	-0.518
Mof_O 	O 	0.3408	0.5988	0.09	-0.477
Mof_O 	O 	0.4852	0.3709	0.2094	-0.739
Mof_H 	H 	0.4812	0.3216	0.2205	0.253
Mof_H 	H 	0.4614	0.4033	0.2057	0.25
Mof_C 	C 	0.1806	0.957	0.3749	0.42
Mof_C 	C 	0.2024	0.9449	0.4599	-0.08
Mof_C 	C 	0.2421	0.8788	0.5129	0.009
Mof_H 	H 	0.2547	0.84	0.496	0.002
Mof_C 	C 	0.2614	0.8734	0.5897	-0.111
Mof_H 	H 	0.2931	0.8388	0.6308	0.034
Mof_C 	C 	0.2315	0.9216	0.6028	0.028
Mof_H 	H 	0.2366	0.911	0.6485	-0.008
Mof_C 	C 	0.1938	0.986	0.5486	-0.116
Mof_C 	C 	0.1675	0.0526	0.5662	0.474
Mof_C 	C 	0.2539	0.6995	0.366	0.397
Mof_C 	C 	0.189	0.6726	0.3104	-0.085
Mof_C 	C 	0.1719	0.6004	0.3237	-0
Mof_H 	H 	0.2003	0.5617	0.3636	0.017
Mof_C 	C 	0.1119	0.5851	0.2772	-0.099
Mof_H 	H 	0.0993	0.5368	0.2855	0.034
Mof_C 	C 	0.0723	0.6438	0.219	0.005
Mof_H 	H 	0.0317	0.6356	0.1861	-0.002
Mof_C 	C 	0.0934	0.718	0.2088	-0.09
Mof_C 	C 	0.0522	0.7879	0.149	0.405
Mof_C 	C 	0.2795	0.196	0.5726	0.375
Mof_C 	C 	0.3434	0.175	0.622	-0.081
Mof_C 	C 	0.3622	0.0993	0.6146	-0.005
Mof_H 	H 	0.3354	0.0589	0.5752	0.016
Mof_C 	C 	0.4225	0.0869	0.6681	-0.091
Mof_H 	H 	0.4359	0.0361	0.6644	0.033
Mof_C 	C 	0.4647	0.1451	0.7274	0.003
Mof_H 	H 	0.5053	0.1354	0.7622	0
Mof_C 	C 	0.442	0.2186	0.7309	-0.103
Mof_C 	C 	0.4814	0.2885	0.7873	0.385
Mof_C 	C 	0.3679	0.4477	0.8743	0.36
Mof_C 	C 	0.3422	0.5119	0.8902	-0.083
Mof_C 	C 	0.3035	0.5746	0.8354	0.003
Mof_H 	H 	0.2924	0.5797	0.7846	-0.001
Mof_C 	C 	0.2814	0.6307	0.8582	-0.095
Mof_H 	H 	0.2592	0.6777	0.8257	0.031
Mof_C 	C 	0.2931	0.615	0.9305	0.008
Mof_H 	H 	0.2738	0.6457	0.942	0.01
Mof_C 	C 	0.3324	0.5553	0.9823	-0.075
Mof_C 	C 	0.3549	0.5418	0.0653	0.362
_end
