data_functionalizedCrystal
_audit_creation_method	'EQeq! by Chris Wilmer'
_symmetry_space_group_name_H-M	'P1'
_symmetry_Int_Tables_number	1
_symmetry_cell_setting	triclinic
loop_
_symmetry_equiv_pos_as_xyz
  x,y,z
_cell_length_a	16.2122
_cell_length_b	16.2122
_cell_length_c	16.0642
_cell_angle_alpha	90
_cell_angle_beta	90
_cell_angle_gamma	120
loop_
_atom_site_label
_atom_site_type_symbol
_atom_site_fract_x
_atom_site_fract_y
_atom_site_fract_z
_atom_site_charge
Mof_C 	C 	0.03364	0.44307	0.03188	0.182
Mof_O 	O 	0.16931	0.65341	0.15827	-0.53
Mof_O 	O 	0.0633	0.3834	0.0583	-0.324
Mof_H 	H 	0.1068	0.4131	0.0964	0.234
Mof_C 	C 	0.55693	0.59057	0.03188	0.183
Mof_O 	O 	0.34659	0.5159	0.15827	-0.529
Mof_O 	O 	0.6166	0.6799	0.0583	-0.324
Mof_H 	H 	0.5869	0.6937	0.0964	0.234
Mof_C 	C 	0.40943	0.96636	0.03188	0.183
Mof_O 	O 	0.4841	0.83069	0.15827	-0.529
Mof_O 	O 	0.3201	0.9367	0.0583	-0.324
Mof_H 	H 	0.3063	0.8932	0.0964	0.234
Mof_C 	C 	0.96636	0.55693	0.53188	0.183
Mof_O 	O 	0.83069	0.34659	0.65827	-0.529
Mof_O 	O 	0.9367	0.6166	0.5583	-0.324
Mof_H 	H 	0.8932	0.5869	0.5964	0.234
Mof_C 	C 	0.44307	0.40943	0.53188	0.183
Mof_O 	O 	0.65341	0.4841	0.65827	-0.529
Mof_O 	O 	0.3834	0.3201	0.5583	-0.324
Mof_H 	H 	0.4131	0.3063	0.5964	0.234
Mof_C 	C 	0.59057	0.03364	0.53188	0.183
Mof_O 	O 	0.5159	0.16931	0.65827	-0.529
Mof_O 	O 	0.6799	0.0633	0.5583	-0.324
Mof_H 	H 	0.6937	0.1068	0.5964	0.234
Mof_C 	C 	0.44307	0.03364	0.96812	0.183
Mof_O 	O 	0.65341	0.16931	0.84173	-0.529
Mof_O 	O 	0.3834	0.0633	0.9417	-0.324
Mof_H 	H 	0.4131	0.1068	0.9036	0.234
Mof_C 	C 	0.59057	0.55693	0.96812	0.183
Mof_O 	O 	0.5159	0.34659	0.84173	-0.529
Mof_O 	O 	0.6799	0.6166	0.9417	-0.324
Mof_H 	H 	0.6937	0.5869	0.9036	0.234
Mof_C 	C 	0.96636	0.40943	0.96812	0.183
Mof_O 	O 	0.83069	0.4841	0.84173	-0.529
Mof_O 	O 	0.9367	0.3201	0.9417	-0.324
Mof_H 	H 	0.8932	0.3063	0.9036	0.234
Mof_C 	C 	0.55693	0.96636	0.46812	0.183
Mof_O 	O 	0.34659	0.83069	0.34173	-0.529
Mof_O 	O 	0.6166	0.9367	0.4417	-0.324
Mof_H 	H 	0.5869	0.8932	0.4036	0.234
Mof_C 	C 	0.40943	0.44307	0.46812	0.183
Mof_O 	O 	0.4841	0.65341	0.34173	-0.529
Mof_O 	O 	0.3201	0.3834	0.4417	-0.324
Mof_H 	H 	0.3063	0.4131	0.4036	0.234
Mof_C 	C 	0.03364	0.59057	0.46812	0.183
Mof_O 	O 	0.16931	0.5159	0.34173	-0.529
Mof_O 	O 	0.0633	0.6799	0.4417	-0.324
Mof_H 	H 	0.1068	0.6937	0.4036	0.234
Mof_C 	C 	0.96636	0.55693	0.96812	0.183
Mof_O 	O 	0.83069	0.34659	0.84173	-0.529
Mof_O 	O 	0.9367	0.6166	0.9417	-0.324
Mof_H 	H 	0.8932	0.5869	0.9036	0.234
Mof_C 	C 	0.44307	0.40943	0.96812	0.183
Mof_O 	O 	0.65341	0.4841	0.84173	-0.529
Mof_O 	O 	0.3834	0.3201	0.9417	-0.324
Mof_H 	H 	0.4131	0.3063	0.9036	0.234
Mof_C 	C 	0.59057	0.03364	0.96812	0.183
Mof_O 	O 	0.5159	0.16931	0.84173	-0.529
Mof_O 	O 	0.6799	0.0633	0.9417	-0.324
Mof_H 	H 	0.6937	0.1068	0.9036	0.234
Mof_C 	C 	0.03364	0.44307	0.46812	0.183
Mof_O 	O 	0.16931	0.65341	0.34173	-0.529
Mof_O 	O 	0.0633	0.3834	0.4417	-0.324
Mof_H 	H 	0.1068	0.4131	0.4036	0.234
Mof_C 	C 	0.55693	0.59057	0.46812	0.183
Mof_O 	O 	0.34659	0.5159	0.34173	-0.529
Mof_O 	O 	0.6166	0.6799	0.4417	-0.324
Mof_H 	H 	0.5869	0.6937	0.4036	0.234
Mof_C 	C 	0.40943	0.96636	0.46812	0.183
Mof_O 	O 	0.4841	0.83069	0.34173	-0.529
Mof_O 	O 	0.3201	0.9367	0.4417	-0.324
Mof_H 	H 	0.3063	0.8932	0.4036	0.234
Mof_C 	C 	0.55693	0.96636	0.03188	0.183
Mof_O 	O 	0.34659	0.83069	0.15827	-0.529
Mof_O 	O 	0.6166	0.9367	0.0583	-0.324
Mof_H 	H 	0.5869	0.8932	0.0964	0.234
Mof_C 	C 	0.40943	0.44307	0.03188	0.183
Mof_O 	O 	0.4841	0.65341	0.15827	-0.529
Mof_O 	O 	0.3201	0.3834	0.0583	-0.324
Mof_H 	H 	0.3063	0.4131	0.0964	0.234
Mof_C 	C 	0.03364	0.59057	0.03188	0.183
Mof_O 	O 	0.16931	0.5159	0.15827	-0.529
Mof_O 	O 	0.0633	0.6799	0.0583	-0.324
Mof_H 	H 	0.1068	0.6937	0.0964	0.234
Mof_C 	C 	0.44307	0.03364	0.53188	0.183
Mof_O 	O 	0.65341	0.16931	0.65827	-0.529
Mof_O 	O 	0.3834	0.0633	0.5583	-0.324
Mof_H 	H 	0.4131	0.1068	0.5964	0.234
Mof_C 	C 	0.59057	0.55693	0.53188	0.183
Mof_O 	O 	0.5159	0.34659	0.65827	-0.529
Mof_O 	O 	0.6799	0.6166	0.5583	-0.324
Mof_H 	H 	0.6937	0.5869	0.5964	0.234
Mof_C 	C 	0.96636	0.40943	0.53188	0.183
Mof_O 	O 	0.83069	0.4841	0.65827	-0.529
Mof_O 	O 	0.9367	0.3201	0.5583	-0.324
Mof_H 	H 	0.8932	0.3063	0.5964	0.234
Mof_Mg	Mg	0.26181	0.73819	0.25	1.474
Mof_Mg	Mg	0.26181	0.52362	0.25	1.474
Mof_Mg	Mg	0.47638	0.73819	0.25	1.474
Mof_Mg	Mg	0.73819	0.26181	0.75	1.474
Mof_Mg	Mg	0.73819	0.47638	0.75	1.474
Mof_Mg	Mg	0.52362	0.26181	0.75	1.474
Mof_C 	C 	0.0688	0.5344	0.06374	-0.238
Mof_C 	C 	0.142	0.571	0.13133	0.498
Mof_C 	C 	0.4656	0.5344	0.06374	-0.238
Mof_C 	C 	0.429	0.571	0.13133	0.498
Mof_C 	C 	0.4656	0.9312	0.06374	-0.238
Mof_C 	C 	0.429	0.858	0.13133	0.498
Mof_C 	C 	0.9312	0.4656	0.56374	-0.238
Mof_C 	C 	0.858	0.429	0.63133	0.498
Mof_C 	C 	0.5344	0.4656	0.56374	-0.238
Mof_C 	C 	0.571	0.429	0.63133	0.498
Mof_C 	C 	0.5344	0.0688	0.56374	-0.238
Mof_C 	C 	0.571	0.142	0.63133	0.498
Mof_C 	C 	0.5344	0.0688	0.93626	-0.238
Mof_C 	C 	0.571	0.142	0.86867	0.498
Mof_C 	C 	0.5344	0.4656	0.93626	-0.238
Mof_C 	C 	0.571	0.429	0.86867	0.498
Mof_C 	C 	0.9312	0.4656	0.93626	-0.238
Mof_C 	C 	0.858	0.429	0.86867	0.498
Mof_C 	C 	0.4656	0.9312	0.43626	-0.238
Mof_C 	C 	0.429	0.858	0.36867	0.498
Mof_C 	C 	0.4656	0.5344	0.43626	-0.238
Mof_C 	C 	0.429	0.571	0.36867	0.498
Mof_C 	C 	0.0688	0.5344	0.43626	-0.238
Mof_C 	C 	0.142	0.571	0.36867	0.498
Mof_O 	O 	0.33333	0.66667	0.25	-0.749
Mof_O 	O 	0.66667	0.33333	0.75	-0.749
_end
