# CIF file generated by openbabel 3.1.0, see https://openbabel.org
data_I
_chemical_name_common 'image0'
_cell_length_a 16.852
_cell_length_b 17.116
_cell_length_c 9.7103
_cell_angle_alpha 90
_cell_angle_beta 118.683
_cell_angle_gamma 90
_space_group_name_H-M_alt 'P 1'
_space_group_name_Hall 'P 1'
loop_
    _symmetry_equiv_pos_as_xyz
    x,y,z
loop_
    _atom_site_label
    _atom_site_type_symbol
    _atom_site_fract_x
    _atom_site_fract_y
    _atom_site_fract_z
    _atom_site_occupancy
    O1       O        0.14040    0.18910    0.59360    1.000
    C1       C        0.06300    0.16010    0.50280    1.000
    Zn1      Zn       0.73316    0.39211    0.15579    1.000
    N1       N        0.74530    0.47520    0.30960    1.000
    N2       N        0.84320    0.32020    0.26580    1.000
    C2       C        0.92540    0.34570    0.36300    1.000
    H1       H        0.93400    0.39930    0.37860    1.000
    C3       C        0.83090    0.24260    0.24220    1.000
    H2       H        0.77370    0.22370    0.17270    1.000
    C4       C        0.90160    0.19010    0.31900    1.000
    H3       H        0.89140    0.13670    0.30180    1.000
    C5       C        0.70910    0.48880    0.40060    1.000
    N3       N        0.74630    0.55320    0.48550    1.000
    N4       N        0.80690    0.53280    0.33830    1.000
    N5       N        0.80700    0.57940    0.44380    1.000
    C6       C        0.98650    0.21720    0.42010    1.000
    C7       C        0.63860    0.44030    0.40810    1.000
    H4       H        0.58180    0.44850    0.31510    1.000
    H5       H        0.63310    0.45490    0.49860    1.000
    H6       H        0.65510    0.38620    0.41560    1.000
    C8       C        0.99970    0.29740    0.44320    1.000
    H7       H        0.05650    0.31790    0.51010    1.000
    O2       O        0.04830    0.09000    0.47740    1.000
    O3       O        0.64040    0.68910    0.59360    1.000
    C9       C        0.56300    0.66010    0.50280    1.000
    Zn2      Zn       0.23316    0.89211    0.15579    1.000
    N6       N        0.24530    0.97520    0.30960    1.000
    N7       N        0.34320    0.82020    0.26580    1.000
    C10      C        0.42540    0.84570    0.36300    1.000
    H8       H        0.43400    0.89930    0.37860    1.000
    C11      C        0.33090    0.74260    0.24220    1.000
    H9       H        0.27370    0.72370    0.17270    1.000
    C12      C        0.40160    0.69010    0.31900    1.000
    H10      H        0.39140    0.63670    0.30180    1.000
    C13      C        0.20910    0.98880    0.40060    1.000
    N8       N        0.24630    0.05320    0.48550    1.000
    N9       N        0.30690    0.03280    0.33830    1.000
    N10      N        0.30700    0.07940    0.44380    1.000
    C14      C        0.48650    0.71720    0.42010    1.000
    C15      C        0.13860    0.94030    0.40810    1.000
    H11      H        0.08180    0.94850    0.31510    1.000
    H12      H        0.13310    0.95490    0.49860    1.000
    H13      H        0.15510    0.88620    0.41560    1.000
    C16      C        0.49970    0.79740    0.44320    1.000
    H14      H        0.55650    0.81790    0.51010    1.000
    O4       O        0.54830    0.59000    0.47740    1.000
    O5       O        0.14040    0.81090    0.09360    1.000
    C17      C        0.06300    0.83990    0.00280    1.000
    Zn3      Zn       0.73316    0.60789    0.65579    1.000
    N11      N        0.74530    0.52480    0.80960    1.000
    N12      N        0.84320    0.67980    0.76580    1.000
    C18      C        0.92540    0.65430    0.86300    1.000
    H15      H        0.93400    0.60070    0.87860    1.000
    C19      C        0.83090    0.75740    0.74220    1.000
    H16      H        0.77370    0.77630    0.67270    1.000
    C20      C        0.90160    0.80990    0.81900    1.000
    H17      H        0.89140    0.86330    0.80180    1.000
    C21      C        0.70910    0.51120    0.90060    1.000
    N13      N        0.74630    0.44680    0.98550    1.000
    N14      N        0.80690    0.46720    0.83830    1.000
    N15      N        0.80700    0.42060    0.94380    1.000
    C22      C        0.98650    0.78280    0.92010    1.000
    C23      C        0.63860    0.55970    0.90810    1.000
    H18      H        0.58180    0.55150    0.81510    1.000
    H19      H        0.63310    0.54510    0.99860    1.000
    H20      H        0.65510    0.61380    0.91560    1.000
    C24      C        0.99970    0.70260    0.94320    1.000
    H21      H        0.05650    0.68210    0.01010    1.000
    O6       O        0.04830    0.91000    0.97740    1.000
    O7       O        0.64040    0.31090    0.09360    1.000
    C25      C        0.56300    0.33990    0.00280    1.000
    Zn4      Zn       0.23316    0.10789    0.65579    1.000
    N16      N        0.24530    0.02480    0.80960    1.000
    N17      N        0.34320    0.17980    0.76580    1.000
    C26      C        0.42540    0.15430    0.86300    1.000
    H22      H        0.43400    0.10070    0.87860    1.000
    C27      C        0.33090    0.25740    0.74220    1.000
    H23      H        0.27370    0.27630    0.67270    1.000
    C28      C        0.40160    0.30990    0.81900    1.000
    H24      H        0.39140    0.36330    0.80180    1.000
    C29      C        0.20910    0.01120    0.90060    1.000
    N18      N        0.24630    0.94680    0.98550    1.000
    N19      N        0.30690    0.96720    0.83830    1.000
    N20      N        0.30700    0.92060    0.94380    1.000
    C30      C        0.48650    0.28280    0.92010    1.000
    C31      C        0.13860    0.05970    0.90810    1.000
    H25      H        0.08180    0.05150    0.81510    1.000
    H26      H        0.13310    0.04510    0.99860    1.000
    H27      H        0.15510    0.11380    0.91560    1.000
    C32      C        0.49970    0.20260    0.94320    1.000
    H28      H        0.55650    0.18210    0.01010    1.000
    O8       O        0.54830    0.41000    0.97740    1.000
    O9       O        0.85960    0.18910    0.90640    1.000
    C33      C        0.93700    0.16010    0.99720    1.000
    Zn5      Zn       0.26684    0.39211    0.34421    1.000
    N21      N        0.25470    0.47520    0.19040    1.000
    N22      N        0.15680    0.32020    0.23420    1.000
    C34      C        0.07460    0.34570    0.13700    1.000
    H29      H        0.06600    0.39930    0.12140    1.000
    C35      C        0.16910    0.24260    0.25780    1.000
    H30      H        0.22630    0.22370    0.32730    1.000
    C36      C        0.09840    0.19010    0.18100    1.000
    H31      H        0.10860    0.13670    0.19820    1.000
    C37      C        0.29090    0.48880    0.09940    1.000
    N23      N        0.25370    0.55320    0.01450    1.000
    N24      N        0.19310    0.53280    0.16170    1.000
    N25      N        0.19300    0.57940    0.05620    1.000
    C38      C        0.01350    0.21720    0.07990    1.000
    C39      C        0.36140    0.44030    0.09190    1.000
    H32      H        0.41820    0.44850    0.18490    1.000
    H33      H        0.36690    0.45490    0.00140    1.000
    H34      H        0.34490    0.38620    0.08440    1.000
    C40      C        0.00030    0.29740    0.05680    1.000
    H35      H        0.94350    0.31790    0.98990    1.000
    O10      O        0.95170    0.09000    0.02260    1.000
    O11      O        0.35960    0.68910    0.90640    1.000
    C41      C        0.43700    0.66010    0.99720    1.000
    Zn6      Zn       0.76684    0.89211    0.34421    1.000
    N26      N        0.75470    0.97520    0.19040    1.000
    N27      N        0.65680    0.82020    0.23420    1.000
    C42      C        0.57460    0.84570    0.13700    1.000
    H36      H        0.56600    0.89930    0.12140    1.000
    C43      C        0.66910    0.74260    0.25780    1.000
    H37      H        0.72630    0.72370    0.32730    1.000
    C44      C        0.59840    0.69010    0.18100    1.000
    H38      H        0.60860    0.63670    0.19820    1.000
    C45      C        0.79090    0.98880    0.09940    1.000
    N28      N        0.75370    0.05320    0.01450    1.000
    N29      N        0.69310    0.03280    0.16170    1.000
    N30      N        0.69300    0.07940    0.05620    1.000
    C46      C        0.51350    0.71720    0.07990    1.000
    C47      C        0.86140    0.94030    0.09190    1.000
    H39      H        0.91820    0.94850    0.18490    1.000
    H40      H        0.86690    0.95490    0.00140    1.000
    H41      H        0.84490    0.88620    0.08440    1.000
    C48      C        0.50030    0.79740    0.05680    1.000
    H42      H        0.44350    0.81790    0.98990    1.000
    O12      O        0.45170    0.59000    0.02260    1.000
    O13      O        0.85960    0.81090    0.40640    1.000
    C49      C        0.93700    0.83990    0.49720    1.000
    Zn7      Zn       0.26684    0.60789    0.84421    1.000
    N31      N        0.25470    0.52480    0.69040    1.000
    N32      N        0.15680    0.67980    0.73420    1.000
    C50      C        0.07460    0.65430    0.63700    1.000
    H43      H        0.06600    0.60070    0.62140    1.000
    C51      C        0.16910    0.75740    0.75780    1.000
    H44      H        0.22630    0.77630    0.82730    1.000
    C52      C        0.09840    0.80990    0.68100    1.000
    H45      H        0.10860    0.86330    0.69820    1.000
    C53      C        0.29090    0.51120    0.59940    1.000
    N33      N        0.25370    0.44680    0.51450    1.000
    N34      N        0.19310    0.46720    0.66170    1.000
    N35      N        0.19300    0.42060    0.55620    1.000
    C54      C        0.01350    0.78280    0.57990    1.000
    C55      C        0.36140    0.55970    0.59190    1.000
    H46      H        0.41820    0.55150    0.68490    1.000
    H47      H        0.36690    0.54510    0.50140    1.000
    H48      H        0.34490    0.61380    0.58440    1.000
    C56      C        0.00030    0.70260    0.55680    1.000
    H49      H        0.94350    0.68210    0.48990    1.000
    O14      O        0.95170    0.91000    0.52260    1.000
    O15      O        0.35960    0.31090    0.40640    1.000
    C57      C        0.43700    0.33990    0.49720    1.000
    Zn8      Zn       0.76684    0.10789    0.84421    1.000
    N36      N        0.75470    0.02480    0.69040    1.000
    N37      N        0.65680    0.17980    0.73420    1.000
    C58      C        0.57460    0.15430    0.63700    1.000
    H50      H        0.56600    0.10070    0.62140    1.000
    C59      C        0.66910    0.25740    0.75780    1.000
    H51      H        0.72630    0.27630    0.82730    1.000
    C60      C        0.59840    0.30990    0.68100    1.000
    H52      H        0.60860    0.36330    0.69820    1.000
    C61      C        0.79090    0.01120    0.59940    1.000
    N38      N        0.75370    0.94680    0.51450    1.000
    N39      N        0.69310    0.96720    0.66170    1.000
    N40      N        0.69300    0.92060    0.55620    1.000
    C62      C        0.51350    0.28280    0.57990    1.000
    C63      C        0.86140    0.05970    0.59190    1.000
    H53      H        0.91820    0.05150    0.68490    1.000
    H54      H        0.86690    0.04510    0.50140    1.000
    H55      H        0.84490    0.11380    0.58440    1.000
    C64      C        0.50030    0.20260    0.55680    1.000
    H56      H        0.44350    0.18210    0.48990    1.000
    O16      O        0.45170    0.41000    0.52260    1.000
