data_functionalizedCrystal
_audit_creation_method	'EQeq! by Chris Wilmer'
_symmetry_space_group_name_H-M	'P1'
_symmetry_Int_Tables_number	1
_symmetry_cell_setting	triclinic
loop_
_symmetry_equiv_pos_as_xyz
  x,y,z
_cell_length_a	19.1299
_cell_length_b	19.1299
_cell_length_c	19.1299
_cell_angle_alpha	105.852
_cell_angle_beta	105.852
_cell_angle_gamma	116.981
loop_
_atom_site_label
_atom_site_type_symbol
_atom_site_fract_x
_atom_site_fract_y
_atom_site_fract_z
_atom_site_charge
Mof_Cu	Cu	0.51785	0.25815	0.776	0.854
Mof_Cu	Cu	0.48215	0.74185	0.224	0.853
Mof_Cu	Cu	0.74185	0.51785	0.2597	0.853
Mof_Cu	Cu	0.25815	0.48215	0.7403	0.854
Mof_Cu	Cu	0.84166	0.84166	-0	0.853
Mof_Cu	Cu	0.15834	0.15834	-0	0.853
Mof_H 	H 	0.7944	0.9419	0.9061	0.018
Mof_H 	H 	0.4325	0.0504	0.9645	0.007
Mof_H 	H 	0.5349	0.1192	0.0219	0.001
Mof_H 	H 	0.7093	0.0084	0.8671	0.027
Mof_H 	H 	0.7426	0.0817	0.9537	0.018
Mof_H 	H 	0.7347	0.8994	0.0745	-0.012
Mof_H 	H 	0.3271	0.9311	0.7722	0.297
Mof_H 	H 	0.3388	0.9582	0.8618	0.314
Mof_H 	H 	0.3022	0.8606	0.8044	0.305
Mof_H 	H 	0.7238	0.1402	0.0222	0.331
Mof_H 	H 	0.6607	0.1456	0.0579	0.327
Mof_H 	H 	0.6757	0.1838	0.9965	0.326
Mof_H 	H 	0.3914	0.7857	0.6899	-0.002
Mof_H 	H 	0.3246	0.8028	0.7102	-0
Mof_H 	H 	0.3079	0.6204	0.6709	-0.047
Mof_H 	H 	0.5069	0.7848	0.7621	0.268
Mof_H 	H 	0.609	0.8563	0.8171	0.283
Mof_H 	H 	0.5596	0.853	0.7348	0.263
Mof_H 	H 	0.3312	0.6586	0.8814	-0.015
Mof_H 	H 	0.0358	0.8883	0.0939	0.012
Mof_H 	H 	0.0859	0.468	0.0355	0.038
Mof_H 	H 	0.0973	0.513	0.9781	0.067
Mof_H 	H 	0.1413	0.8422	0.1329	0.036
Mof_H 	H 	0.128	0.7889	0.0463	0.022
Mof_H 	H 	0.8249	0.6602	0.9255	-0.021
Mof_H 	H 	0.1589	0.5549	0.2278	0.27
Mof_H 	H 	0.0964	0.477	0.1382	0.281
Mof_H 	H 	0.0562	0.4978	0.1956	0.273
Mof_H 	H 	0.118	0.7016	0.9778	0.242
Mof_H 	H 	0.0877	0.6028	0.9421	0.231
Mof_H 	H 	0.1873	0.6792	0.0035	0.203
Mof_H 	H 	0.0958	0.7015	0.3101	0.006
Mof_H 	H 	0.0926	0.6144	0.2898	0.009
Mof_H 	H 	0.9495	0.637	0.3291	-0.047
Mof_H 	H 	0.0227	0.7448	0.2379	0.252
Mof_H 	H 	0.0392	0.7919	0.1829	0.265
Mof_H 	H 	0.1182	0.8248	0.2652	0.247
Mof_H 	H 	0.7772	0.4498	0.1186	-0.025
Mof_H 	H 	0.8883	0.7944	0.8525	0.018
Mof_H 	H 	0.468	0.4325	0.3821	0.019
Mof_H 	H 	0.513	0.5349	0.4157	0.026
Mof_H 	H 	0.8422	0.7093	0.7009	0.028
Mof_H 	H 	0.7889	0.7426	0.6609	0.017
Mof_H 	H 	0.6602	0.7347	0.8353	-0.015
Mof_H 	H 	0.5549	0.3271	0.396	0.286
Mof_H 	H 	0.477	0.3388	0.3806	0.299
Mof_H 	H 	0.4978	0.3022	0.4416	0.291
Mof_H 	H 	0.7016	0.7238	0.5836	0.299
Mof_H 	H 	0.6028	0.6607	0.5151	0.293
Mof_H 	H 	0.6792	0.6757	0.4919	0.282
Mof_H 	H 	0.7015	0.3914	0.6057	0.001
Mof_H 	H 	0.6144	0.3246	0.5218	0.003
Mof_H 	H 	0.637	0.3079	0.6875	-0.047
Mof_H 	H 	0.7448	0.5069	0.7221	0.263
Mof_H 	H 	0.7919	0.609	0.7527	0.277
Mof_H 	H 	0.8248	0.5596	0.7066	0.257
Mof_H 	H 	0.4498	0.3312	0.6726	-0.021
Mof_H 	H 	0.9419	0.0358	0.1475	0.02
Mof_H 	H 	0.0504	0.0859	0.6179	0.02
Mof_H 	H 	0.1192	0.0973	0.5843	0.026
Mof_H 	H 	0.0084	0.1413	0.2991	0.029
Mof_H 	H 	0.0817	0.128	0.3391	0.018
Mof_H 	H 	0.8994	0.8249	0.1647	-0.019
Mof_H 	H 	0.9311	0.1589	0.604	0.282
Mof_H 	H 	0.9582	0.0964	0.6194	0.294
Mof_H 	H 	0.8606	0.0562	0.5584	0.288
Mof_H 	H 	0.1402	0.118	0.4164	0.299
Mof_H 	H 	0.1456	0.0877	0.4849	0.293
Mof_H 	H 	0.1838	0.1873	0.5081	0.282
Mof_H 	H 	0.7857	0.0958	0.3943	0.001
Mof_H 	H 	0.8028	0.0926	0.4782	0.003
Mof_H 	H 	0.6204	0.9495	0.3125	-0.047
Mof_H 	H 	0.7848	0.0227	0.2779	0.264
Mof_H 	H 	0.8563	0.0392	0.2473	0.278
Mof_H 	H 	0.853	0.1182	0.2934	0.258
Mof_H 	H 	0.6586	0.7772	0.3274	-0.022
Mof_H 	H 	0.2056	0.0581	0.0939	0.018
Mof_H 	H 	0.5675	0.9496	0.0355	0.036
Mof_H 	H 	0.4651	0.8808	0.9781	0.066
Mof_H 	H 	0.2907	0.9916	0.1329	0.039
Mof_H 	H 	0.2574	0.9183	0.0463	0.025
Mof_H 	H 	0.2653	0.1006	0.9255	-0.021
Mof_H 	H 	0.6729	0.0689	0.2278	0.273
Mof_H 	H 	0.6612	0.0418	0.1382	0.285
Mof_H 	H 	0.6978	0.1394	0.1956	0.276
Mof_H 	H 	0.2762	0.8598	0.9778	0.239
Mof_H 	H 	0.3393	0.8544	0.9421	0.227
Mof_H 	H 	0.3243	0.8162	0.0035	0.2
Mof_H 	H 	0.6086	0.2143	0.3101	0.006
Mof_H 	H 	0.6754	0.1972	0.2898	0.008
Mof_H 	H 	0.6921	0.3796	0.3291	-0.047
Mof_H 	H 	0.4931	0.2152	0.2379	0.252
Mof_H 	H 	0.391	0.1437	0.1829	0.266
Mof_H 	H 	0.4404	0.147	0.2652	0.248
Mof_H 	H 	0.6688	0.3414	0.1186	-0.025
Mof_H 	H 	0.9642	0.1117	0.9061	0.006
Mof_H 	H 	0.9141	0.532	0.9645	0.008
Mof_H 	H 	0.9027	0.487	0.0219	0.002
Mof_H 	H 	0.8587	0.1578	0.8671	0.023
Mof_H 	H 	0.872	0.2111	0.9537	0.013
Mof_H 	H 	0.1751	0.3398	0.0745	-0.012
Mof_H 	H 	0.8411	0.4451	0.7722	0.293
Mof_H 	H 	0.9036	0.523	0.8618	0.308
Mof_H 	H 	0.9438	0.5022	0.8044	0.3
Mof_H 	H 	0.882	0.2984	0.0222	0.333
Mof_H 	H 	0.9123	0.3972	0.0579	0.33
Mof_H 	H 	0.8127	0.3208	0.9965	0.328
Mof_H 	H 	0.9042	0.2985	0.6899	-0.001
Mof_H 	H 	0.9074	0.3856	0.7102	0.001
Mof_H 	H 	0.0505	0.363	0.6709	-0.046
Mof_H 	H 	0.9773	0.2552	0.7621	0.266
Mof_H 	H 	0.9608	0.2081	0.8171	0.28
Mof_H 	H 	0.8818	0.1752	0.7348	0.261
Mof_H 	H 	0.2228	0.5502	0.8814	-0.015
Mof_H 	H 	0.1117	0.2056	0.1475	0.015
Mof_H 	H 	0.532	0.5675	0.6179	0.019
Mof_H 	H 	0.487	0.4651	0.5843	0.026
Mof_H 	H 	0.1578	0.2907	0.2991	0.029
Mof_H 	H 	0.2111	0.2574	0.3391	0.018
Mof_H 	H 	0.3398	0.2653	0.1647	-0.019
Mof_H 	H 	0.4451	0.6729	0.604	0.285
Mof_H 	H 	0.523	0.6612	0.6194	0.298
Mof_H 	H 	0.5022	0.6978	0.5584	0.291
Mof_H 	H 	0.2984	0.2762	0.4164	0.299
Mof_H 	H 	0.3972	0.3393	0.4849	0.293
Mof_H 	H 	0.3208	0.3243	0.5081	0.282
Mof_H 	H 	0.2985	0.6086	0.3943	0.001
Mof_H 	H 	0.3856	0.6754	0.4782	0.003
Mof_H 	H 	0.363	0.6921	0.3125	-0.046
Mof_H 	H 	0.2552	0.4931	0.2779	0.263
Mof_H 	H 	0.2081	0.391	0.2473	0.276
Mof_H 	H 	0.1752	0.4404	0.2934	0.257
Mof_H 	H 	0.5502	0.6688	0.3274	-0.022
Mof_H 	H 	0.0581	0.9642	0.8525	0.024
Mof_H 	H 	0.9496	0.9141	0.3821	0.019
Mof_H 	H 	0.8808	0.9027	0.4157	0.026
Mof_H 	H 	0.9916	0.8587	0.7009	0.03
Mof_H 	H 	0.9183	0.872	0.6609	0.02
Mof_H 	H 	0.1006	0.1751	0.8353	-0.015
Mof_H 	H 	0.0689	0.8411	0.396	0.285
Mof_H 	H 	0.0418	0.9036	0.3806	0.298
Mof_H 	H 	0.1394	0.9438	0.4416	0.291
Mof_H 	H 	0.8598	0.882	0.5836	0.297
Mof_H 	H 	0.8544	0.9123	0.5151	0.291
Mof_H 	H 	0.8162	0.8127	0.4919	0.281
Mof_H 	H 	0.2143	0.9042	0.6057	0.001
Mof_H 	H 	0.1972	0.9074	0.5218	0.003
Mof_H 	H 	0.3796	0.0505	0.6875	-0.048
Mof_H 	H 	0.2152	0.9773	0.7221	0.264
Mof_H 	H 	0.1437	0.9608	0.7527	0.278
Mof_H 	H 	0.147	0.8818	0.7066	0.258
Mof_H 	H 	0.3414	0.2228	0.6726	-0.021
Mof_C 	C 	0.59333	0.04893	0.93944	0.401
Mof_C 	C 	0.50581	0.02414	0.91657	-0.319
Mof_C 	C 	0.60846	0.99172	0.89414	-0.265
Mof_C 	C 	0.43471	0.94506	0.84921	0.395
Mof_C 	C 	0.77187	0.93951	0.94336	0.09
Mof_C 	C 	0.4891	0.08477	0.96541	0.096
Mof_C 	C 	0.45081	0.88713	0.80496	-0.277
Mof_C 	C 	0.70196	0.01874	0.91636	0.045
Mof_C 	C 	0.73873	0.91719	0.03436	0.073
Mof_C 	C 	0.50713	0.15653	0.8714	0.073
Mof_C 	C 	0.34244	0.92164	0.8192	-0.936
Mof_C 	C 	0.67038	0.13767	0.01047	-0.999
Mof_C 	C 	0.53628	0.90966	0.82774	0.331
Mof_C 	C 	0.37458	0.79985	0.73247	0.06
Mof_C 	C 	0.31712	0.64705	0.72409	0.144
Mof_C 	C 	0.55472	0.8447	0.78094	-0.805
Mof_C 	C 	0.47925	0.24574	0.91577	0.067
Mof_C 	C 	0.33047	0.66858	0.83631	0.093
Mof_C 	C 	0.10949	0.65389	0.06056	0.247
Mof_C 	C 	0.10757	0.58924	0.08343	-0.216
Mof_C 	C 	0.09758	0.71432	0.10586	-0.204
Mof_C 	C 	0.09585	0.5855	0.15079	0.318
Mof_C 	C 	0.99615	0.82851	0.05664	0.09
Mof_C 	C 	0.11936	0.52369	0.03459	-0.031
Mof_C 	C 	0.08217	0.64585	0.19504	-0.23
Mof_C 	C 	0.10238	0.7856	0.08364	0.017
Mof_C 	C 	0.88283	0.70437	0.96564	0.115
Mof_C 	C 	0.28513	0.63573	0.1286	0.072
Mof_C 	C 	0.10244	0.52324	0.1808	-0.845
Mof_C 	C 	0.1272	0.65991	0.98953	-0.653
Mof_C 	C 	0.08192	0.70854	0.17226	0.281
Mof_C 	C 	0.06738	0.64211	0.26753	0.033
Mof_C 	C 	0.92296	0.59303	0.27591	0.141
Mof_C 	C 	0.06376	0.77378	0.21906	-0.756
Mof_C 	C 	0.32997	0.56348	0.08423	0.059
Mof_C 	C 	0.83227	0.49416	0.16369	0.09
Mof_C 	C 	0.65389	0.59333	0.5444	0.349
Mof_C 	C 	0.58924	0.50581	0.48167	-0.279
Mof_C 	C 	0.71432	0.60846	0.61674	-0.251
Mof_C 	C 	0.5855	0.43471	0.48965	0.363
Mof_C 	C 	0.82851	0.77187	0.83236	0.088
Mof_C 	C 	0.52369	0.4891	0.40433	0.047
Mof_C 	C 	0.64585	0.45081	0.56368	-0.259
Mof_C 	C 	0.7856	0.70196	0.68322	0.043
Mof_C 	C 	0.70437	0.73873	0.82154	0.096
Mof_C 	C 	0.63573	0.50713	0.3506	0.073
Mof_C 	C 	0.52324	0.34244	0.4208	-0.897
Mof_C 	C 	0.65991	0.67038	0.53271	-0.876
Mof_C 	C 	0.70854	0.53628	0.62662	0.314
Mof_C 	C 	0.64211	0.37458	0.57473	0.05
Mof_C 	C 	0.59303	0.31712	0.67007	0.143
Mof_C 	C 	0.77378	0.55472	0.71002	-0.789
Mof_C 	C 	0.56348	0.47925	0.23351	0.06
Mof_C 	C 	0.49416	0.33047	0.66189	0.091
Mof_C 	C 	0.04893	0.10949	0.4556	0.348
Mof_C 	C 	0.02414	0.10757	0.51833	-0.275
Mof_C 	C 	0.99172	0.09758	0.38326	-0.251
Mof_C 	C 	0.94506	0.09585	0.51035	0.357
Mof_C 	C 	0.93951	0.99615	0.16764	0.079
Mof_C 	C 	0.08477	0.11936	0.59567	0.045
Mof_C 	C 	0.88713	0.08217	0.43632	-0.257
Mof_C 	C 	0.01874	0.10238	0.31678	0.042
Mof_C 	C 	0.91719	0.88283	0.17846	0.096
Mof_C 	C 	0.15653	0.28513	0.6494	0.073
Mof_C 	C 	0.92164	0.10244	0.5792	-0.889
Mof_C 	C 	0.13767	0.1272	0.46729	-0.876
Mof_C 	C 	0.90966	0.08192	0.37338	0.314
Mof_C 	C 	0.79985	0.06738	0.42527	0.049
Mof_C 	C 	0.64705	0.92296	0.32993	0.143
Mof_C 	C 	0.8447	0.06376	0.28998	-0.79
Mof_C 	C 	0.24574	0.32997	0.76649	0.067
Mof_C 	C 	0.66858	0.83227	0.33811	0.091
Mof_C 	C 	0.40667	0.95107	0.06056	0.24
Mof_C 	C 	0.49419	0.97586	0.08343	-0.218
Mof_C 	C 	0.39154	0.00828	0.10586	-0.193
Mof_C 	C 	0.56529	0.05494	0.15079	0.324
Mof_C 	C 	0.22813	0.06049	0.05664	0.081
Mof_C 	C 	0.5109	0.91523	0.03459	-0.029
Mof_C 	C 	0.54919	0.11287	0.19504	-0.23
Mof_C 	C 	0.29804	0.98126	0.08364	0.003
Mof_C 	C 	0.26127	0.08281	0.96564	0.115
Mof_C 	C 	0.49287	0.84347	0.1286	0.072
Mof_C 	C 	0.65756	0.07836	0.1808	-0.853
Mof_C 	C 	0.32962	0.86233	0.98953	-0.645
Mof_C 	C 	0.46372	0.09034	0.17226	0.279
Mof_C 	C 	0.62542	0.20015	0.26753	0.035
Mof_C 	C 	0.68288	0.35295	0.27591	0.141
Mof_C 	C 	0.44528	0.1553	0.21906	-0.755
Mof_C 	C 	0.52075	0.75426	0.08423	0.059
Mof_C 	C 	0.66953	0.33142	0.16369	0.09
Mof_C 	C 	0.89051	0.34611	0.93944	0.408
Mof_C 	C 	0.89243	0.41076	0.91657	-0.316
Mof_C 	C 	0.90242	0.28568	0.89414	-0.278
Mof_C 	C 	0.90415	0.4145	0.84921	0.387
Mof_C 	C 	0.00385	0.17149	0.94336	0.11
Mof_C 	C 	0.88064	0.47631	0.96541	0.094
Mof_C 	C 	0.91783	0.35415	0.80496	-0.275
Mof_C 	C 	0.89762	0.2144	0.91636	0.061
Mof_C 	C 	0.11717	0.29563	0.03436	0.073
Mof_C 	C 	0.71487	0.36427	0.8714	0.073
Mof_C 	C 	0.89756	0.47676	0.8192	-0.924
Mof_C 	C 	0.8728	0.34009	0.01047	-1.006
Mof_C 	C 	0.91808	0.29146	0.82774	0.331
Mof_C 	C 	0.93262	0.35789	0.73247	0.055
Mof_C 	C 	0.07704	0.40697	0.72409	0.144
Mof_C 	C 	0.93624	0.22622	0.78094	-0.803
Mof_C 	C 	0.67003	0.43652	0.91577	0.067
Mof_C 	C 	0.16773	0.50584	0.83631	0.093
Mof_C 	C 	0.34611	0.40667	0.4556	0.349
Mof_C 	C 	0.41076	0.49419	0.51833	-0.279
Mof_C 	C 	0.28568	0.39154	0.38326	-0.251
Mof_C 	C 	0.4145	0.56529	0.51035	0.363
Mof_C 	C 	0.17149	0.22813	0.16764	0.086
Mof_C 	C 	0.47631	0.5109	0.59567	0.047
Mof_C 	C 	0.35415	0.54919	0.43632	-0.259
Mof_C 	C 	0.2144	0.29804	0.31678	0.043
Mof_C 	C 	0.29563	0.26127	0.17846	0.096
Mof_C 	C 	0.36427	0.49287	0.6494	0.073
Mof_C 	C 	0.47676	0.65756	0.5792	-0.897
Mof_C 	C 	0.34009	0.32962	0.46729	-0.876
Mof_C 	C 	0.29146	0.46372	0.37338	0.314
Mof_C 	C 	0.35789	0.62542	0.42527	0.05
Mof_C 	C 	0.40697	0.68288	0.32993	0.143
Mof_C 	C 	0.22622	0.44528	0.28998	-0.789
Mof_C 	C 	0.43652	0.52075	0.76649	0.067
Mof_C 	C 	0.50584	0.66953	0.33811	0.091
Mof_C 	C 	0.95107	0.89051	0.5444	0.344
Mof_C 	C 	0.97586	0.89243	0.48167	-0.278
Mof_C 	C 	0.00828	0.90242	0.61674	-0.244
Mof_C 	C 	0.05494	0.90415	0.48965	0.362
Mof_C 	C 	0.06049	0.00385	0.83236	0.08
Mof_C 	C 	0.91523	0.88064	0.40433	0.047
Mof_C 	C 	0.11287	0.91783	0.56368	-0.258
Mof_C 	C 	0.98126	0.89762	0.68322	0.034
Mof_C 	C 	0.08281	0.11717	0.82154	0.096
Mof_C 	C 	0.84347	0.71487	0.3506	0.073
Mof_C 	C 	0.07836	0.89756	0.4208	-0.896
Mof_C 	C 	0.86233	0.8728	0.53271	-0.871
Mof_C 	C 	0.09034	0.91808	0.62662	0.313
Mof_C 	C 	0.20015	0.93262	0.57473	0.05
Mof_C 	C 	0.35295	0.07704	0.67007	0.143
Mof_C 	C 	0.1553	0.93624	0.71002	-0.79
Mof_C 	C 	0.75426	0.67003	0.23351	0.06
Mof_C 	C 	0.33142	0.16773	0.66189	0.091
Mof_N 	N 	0.78218	0.90388	0.99326	-0.225
Mof_N 	N 	0.72505	0.97057	0.95486	-0.092
Mof_N 	N 	0.48856	0.14518	0.93008	-0.108
Mof_N 	N 	0.70229	0.95735	0.01332	-0.106
Mof_N 	N 	0.50016	0.21668	0.85934	-0.245
Mof_N 	N 	0.34913	0.72801	0.76118	-0.129
Mof_N 	N 	0.47015	0.20182	0.95909	-0.093
Mof_N 	N 	0.36137	0.74782	0.83979	-0.103
Mof_N 	N 	0.29872	0.60514	0.76302	-0.268
Mof_N 	N 	0.91062	0.78892	0.00674	-0.253
Mof_N 	N 	0.01571	0.77019	0.04514	-0.108
Mof_N 	N 	0.2151	0.55848	0.06992	-0.095
Mof_N 	N 	0.94403	0.68897	0.98668	-0.093
Mof_N 	N 	0.35734	0.64082	0.14066	-0.244
Mof_N 	N 	0.96683	0.58795	0.23882	-0.126
Mof_N 	N 	0.24273	0.51106	0.04091	-0.1
Mof_N 	N 	0.90803	0.52158	0.16021	-0.108
Mof_N 	N 	0.84212	0.5357	0.23698	-0.268
Mof_N 	N 	0.78892	0.78218	0.8783	-0.237
Mof_N 	N 	0.77019	0.72505	0.75448	-0.101
Mof_N 	N 	0.55848	0.48856	0.34338	-0.103
Mof_N 	N 	0.68897	0.70229	0.74494	-0.098
Mof_N 	N 	0.64082	0.50016	0.28348	-0.244
Mof_N 	N 	0.58795	0.34913	0.62112	-0.128
Mof_N 	N 	0.51106	0.47015	0.26833	-0.096
Mof_N 	N 	0.52158	0.36137	0.61355	-0.106
Mof_N 	N 	0.5357	0.29872	0.69358	-0.268
Mof_N 	N 	0.90388	0.91062	0.1217	-0.241
Mof_N 	N 	0.97057	0.01571	0.24552	-0.098
Mof_N 	N 	0.14518	0.2151	0.65662	-0.103
Mof_N 	N 	0.95735	0.94403	0.25506	-0.099
Mof_N 	N 	0.21668	0.35734	0.71652	-0.244
Mof_N 	N 	0.72801	0.96683	0.37888	-0.128
Mof_N 	N 	0.20182	0.24273	0.73167	-0.096
Mof_N 	N 	0.74782	0.90803	0.38645	-0.106
Mof_N 	N 	0.60514	0.84212	0.30642	-0.268
Mof_N 	N 	0.21782	0.09612	0.00674	-0.252
Mof_N 	N 	0.27495	0.02943	0.04514	-0.101
Mof_N 	N 	0.51144	0.85482	0.06992	-0.095
Mof_N 	N 	0.29771	0.04265	0.98668	-0.094
Mof_N 	N 	0.49984	0.78332	0.14066	-0.244
Mof_N 	N 	0.65087	0.27199	0.23882	-0.126
Mof_N 	N 	0.52985	0.79818	0.04091	-0.101
Mof_N 	N 	0.63863	0.25218	0.16021	-0.108
Mof_N 	N 	0.70128	0.39486	0.23698	-0.268
Mof_N 	N 	0.08938	0.21108	0.99326	-0.228
Mof_N 	N 	0.98429	0.22981	0.95486	-0.104
Mof_N 	N 	0.7849	0.44152	0.93008	-0.108
Mof_N 	N 	0.05597	0.31103	0.01332	-0.103
Mof_N 	N 	0.64266	0.35918	0.85934	-0.245
Mof_N 	N 	0.03317	0.41205	0.76118	-0.127
Mof_N 	N 	0.75727	0.48894	0.95909	-0.093
Mof_N 	N 	0.09197	0.47842	0.83979	-0.102
Mof_N 	N 	0.15788	0.4643	0.76302	-0.268
Mof_N 	N 	0.21108	0.21782	0.1217	-0.242
Mof_N 	N 	0.22981	0.27495	0.24552	-0.101
Mof_N 	N 	0.44152	0.51144	0.65662	-0.103
Mof_N 	N 	0.31103	0.29771	0.25506	-0.099
Mof_N 	N 	0.35918	0.49984	0.71652	-0.244
Mof_N 	N 	0.41205	0.65087	0.37888	-0.128
Mof_N 	N 	0.48894	0.52985	0.73167	-0.096
Mof_N 	N 	0.47842	0.63863	0.38645	-0.106
Mof_N 	N 	0.4643	0.70128	0.30642	-0.268
Mof_N 	N 	0.09612	0.08938	0.8783	-0.235
Mof_N 	N 	0.02943	0.98429	0.75448	-0.096
Mof_N 	N 	0.85482	0.7849	0.34338	-0.103
Mof_N 	N 	0.04265	0.05597	0.74494	-0.098
Mof_N 	N 	0.78332	0.64266	0.28348	-0.244
Mof_N 	N 	0.27199	0.03317	0.62112	-0.129
Mof_N 	N 	0.79818	0.75727	0.26833	-0.096
Mof_N 	N 	0.25218	0.09197	0.61355	-0.106
Mof_N 	N 	0.39486	0.15788	0.69358	-0.268
Mof_N 	N 	0.94077	0.17954	0.12031	0.068
Mof_O 	O 	0.94369	0.1254	0.06909	-0.142
Mof_O 	O 	0.89635	0.2042	0.10055	-0.176
Mof_O 	O 	0.98878	0.20033	0.18911	-0.151
Mof_N 	N 	0.05923	0.82046	0.87969	0.065
Mof_O 	O 	0.05631	0.8746	0.93091	-0.125
Mof_O 	O 	0.10365	0.7958	0.89945	-0.157
Mof_O 	O 	0.01122	0.79967	0.81089	-0.148
Mof_N 	N 	0.82046	0.94077	0.76123	0.067
Mof_O 	O 	0.8746	0.94369	0.81829	-0.135
Mof_O 	O 	0.7958	0.89635	0.69215	-0.169
Mof_O 	O 	0.79967	0.98878	0.78845	-0.148
Mof_N 	N 	0.17954	0.05923	0.23877	0.068
Mof_O 	O 	0.1254	0.05631	0.18171	-0.137
Mof_O 	O 	0.2042	0.10365	0.30785	-0.169
Mof_O 	O 	0.20033	0.01122	0.21155	-0.15
_end
