data_functionalizedCrystal
_audit_creation_method	'EQeq! by Chris Wilmer'
_symmetry_space_group_name_H-M	'P1'
_symmetry_Int_Tables_number	1
_symmetry_cell_setting	triclinic
loop_
_symmetry_equiv_pos_as_xyz
  x,y,z
_cell_length_a	9.0931
_cell_length_b	9.0931
_cell_length_c	38.333
_cell_angle_alpha	90
_cell_angle_beta	90
_cell_angle_gamma	90
loop_
_atom_site_label
_atom_site_type_symbol
_atom_site_fract_x
_atom_site_fract_y
_atom_site_fract_z
_atom_site_charge
Mof_Zn	Zn	0.75085	0.25163	0.91627	1.25
Mof_C 	C 	0.51973	0.18208	0.86874	0.497
Mof_C 	C 	0.75007	0.00606	0.9639	0.471
Mof_C 	C 	0.70308	0.50802	0.95288	0.469
Mof_O 	O 	0.65221	0.44284	0.92489	-0.393
Mof_O 	O 	0.66144	0.19856	0.87168	-0.41
Mof_O 	O 	0.46237	0.23184	0.84005	-0.415
Mof_O 	O 	0.69661	0.13509	0.95678	-0.407
Mof_O 	O 	0.64851	0.6383	0.95946	-0.392
Mof_O 	O 	0.69596	0.94501	0.99154	-0.39
Mof_O 	O 	0.44448	0.11958	0.89167	-0.293
Mof_O 	O 	0.84857	0.94639	0.94573	-0.286
Mof_O 	O 	0.7965	0.44878	0.97191	-0.31
Mof_Zn	Zn	0.24915	0.74837	0.41627	1.251
Mof_C 	C 	0.48027	0.81792	0.36874	0.498
Mof_C 	C 	0.24993	0.99394	0.4639	0.473
Mof_C 	C 	0.29692	0.49198	0.45288	0.469
Mof_O 	O 	0.34779	0.55716	0.42489	-0.393
Mof_O 	O 	0.33856	0.80144	0.37168	-0.41
Mof_O 	O 	0.53763	0.76816	0.34005	-0.415
Mof_O 	O 	0.30339	0.86491	0.45678	-0.409
Mof_O 	O 	0.35149	0.3617	0.45946	-0.395
Mof_O 	O 	0.30404	0.05499	0.49154	-0.395
Mof_O 	O 	0.55552	0.88042	0.39167	-0.293
Mof_O 	O 	0.15143	0.05361	0.44573	-0.288
Mof_O 	O 	0.2035	0.55122	0.47191	-0.313
Mof_Zn	Zn	0.24837	0.25085	0.16627	1.25
Mof_C 	C 	0.31792	0.01973	0.11874	0.457
Mof_C 	C 	0.49394	0.25007	0.2139	0.502
Mof_C 	C 	0.99198	0.20308	0.20288	0.445
Mof_O 	O 	0.05716	0.15221	0.17489	-0.386
Mof_O 	O 	0.30144	0.16144	0.12168	-0.408
Mof_O 	O 	0.26816	0.96237	0.09005	-0.398
Mof_O 	O 	0.36491	0.19661	0.20678	-0.414
Mof_O 	O 	0.8617	0.14851	0.20946	-0.396
Mof_O 	O 	0.55499	0.19596	0.24154	-0.412
Mof_O 	O 	0.38042	0.94448	0.14167	-0.267
Mof_O 	O 	0.55361	0.34857	0.19573	-0.307
Mof_O 	O 	0.05122	0.2965	0.22191	-0.298
Mof_Zn	Zn	0.75163	0.74915	0.66627	1.25
Mof_C 	C 	0.68208	0.98027	0.61874	0.457
Mof_C 	C 	0.50606	0.74993	0.7139	0.502
Mof_C 	C 	0.00802	0.79692	0.70288	0.446
Mof_O 	O 	0.94284	0.84779	0.67489	-0.386
Mof_O 	O 	0.69856	0.83856	0.62168	-0.407
Mof_O 	O 	0.73184	0.03763	0.59005	-0.397
Mof_O 	O 	0.63509	0.80339	0.70678	-0.414
Mof_O 	O 	0.1383	0.85149	0.70946	-0.396
Mof_O 	O 	0.44501	0.80404	0.74154	-0.412
Mof_O 	O 	0.61958	0.05552	0.64167	-0.267
Mof_O 	O 	0.44639	0.65143	0.69573	-0.307
Mof_O 	O 	0.94878	0.7035	0.72191	-0.298
Mof_Zn	Zn	0.74915	0.75163	0.33373	1.25
Mof_C 	C 	0.98027	0.68208	0.38126	0.457
Mof_C 	C 	0.74993	0.50606	0.2861	0.502
Mof_C 	C 	0.79692	0.00802	0.29712	0.445
Mof_O 	O 	0.84779	0.94284	0.32511	-0.386
Mof_O 	O 	0.83856	0.69856	0.37832	-0.407
Mof_O 	O 	0.03763	0.73184	0.40995	-0.397
Mof_O 	O 	0.80339	0.63509	0.29322	-0.414
Mof_O 	O 	0.85149	0.1383	0.29054	-0.396
Mof_O 	O 	0.80404	0.44501	0.25846	-0.412
Mof_O 	O 	0.05552	0.61958	0.35833	-0.267
Mof_O 	O 	0.65143	0.44639	0.30427	-0.307
Mof_O 	O 	0.7035	0.94878	0.27809	-0.298
Mof_Zn	Zn	0.25085	0.24837	0.83373	1.25
Mof_C 	C 	0.01973	0.31792	0.88126	0.457
Mof_C 	C 	0.25007	0.49394	0.7861	0.502
Mof_C 	C 	0.20308	0.99198	0.79712	0.446
Mof_O 	O 	0.15221	0.05716	0.82511	-0.386
Mof_O 	O 	0.16144	0.30144	0.87832	-0.407
Mof_O 	O 	0.96237	0.26816	0.90995	-0.396
Mof_O 	O 	0.19661	0.36491	0.79322	-0.414
Mof_O 	O 	0.14851	0.8617	0.79054	-0.396
Mof_O 	O 	0.19596	0.55499	0.75846	-0.412
Mof_O 	O 	0.94448	0.38042	0.85833	-0.267
Mof_O 	O 	0.34857	0.55361	0.80427	-0.307
Mof_O 	O 	0.2965	0.05122	0.77809	-0.298
Mof_Zn	Zn	0.25163	0.75085	0.08373	1.251
Mof_C 	C 	0.18208	0.51973	0.13126	0.498
Mof_C 	C 	0.00606	0.75007	0.0361	0.474
Mof_C 	C 	0.50802	0.70308	0.04712	0.469
Mof_O 	O 	0.44284	0.65221	0.07511	-0.394
Mof_O 	O 	0.19856	0.66144	0.12832	-0.41
Mof_O 	O 	0.23184	0.46237	0.15995	-0.415
Mof_O 	O 	0.13509	0.69661	0.04322	-0.41
Mof_O 	O 	0.6383	0.64851	0.04054	-0.397
Mof_O 	O 	0.94501	0.69596	0.00846	-0.399
Mof_O 	O 	0.11958	0.44448	0.10833	-0.294
Mof_O 	O 	0.94639	0.84857	0.05427	-0.289
Mof_O 	O 	0.44878	0.7965	0.02809	-0.316
Mof_Zn	Zn	0.74837	0.24915	0.58373	1.251
Mof_C 	C 	0.81792	0.48027	0.63126	0.498
Mof_C 	C 	0.99394	0.24993	0.5361	0.473
Mof_C 	C 	0.49198	0.29692	0.54712	0.469
Mof_O 	O 	0.55716	0.34779	0.57511	-0.393
Mof_O 	O 	0.80144	0.33856	0.62832	-0.41
Mof_O 	O 	0.76816	0.53763	0.65995	-0.415
Mof_O 	O 	0.86491	0.30339	0.54322	-0.409
Mof_O 	O 	0.3617	0.35149	0.54054	-0.395
Mof_O 	O 	0.05499	0.30404	0.50846	-0.395
Mof_O 	O 	0.88042	0.55552	0.60833	-0.293
Mof_O 	O 	0.05361	0.15143	0.55427	-0.287
Mof_O 	O 	0.55122	0.2035	0.52809	-0.313
Mof_Zn	Zn	0.73805	0.73805	-0	1.248
Mof_Zn	Zn	0.26195	0.26195	0.5	1.251
Mof_Zn	Zn	0.76195	0.23805	0.25	1.25
Mof_Zn	Zn	0.23805	0.76195	0.75	1.25
_end
