# CIF file generated by openbabel 3.1.0, see https://openbabel.org
data_I
_chemical_name_common 'image0'
_cell_length_a 12.345
_cell_length_b 33.257
_cell_length_c 12.934
_cell_angle_alpha 90
_cell_angle_beta 96.66
_cell_angle_gamma 90
_space_group_name_H-M_alt 'P 1'
_space_group_name_Hall 'P 1'
loop_
    _symmetry_equiv_pos_as_xyz
    x,y,z
loop_
    _atom_site_label
    _atom_site_type_symbol
    _atom_site_fract_x
    _atom_site_fract_y
    _atom_site_fract_z
    _atom_site_occupancy
    N1       N        0.62420    0.79320    0.75710    1.000
    C1       C        0.57650    0.82480    0.72140    1.000
    N2       N        0.55430    0.78503    0.84060    1.000
    C2       C        0.48560    0.83850    0.76390    1.000
    C3       C        0.62700    0.84520    0.62400    1.000
    C4       C        0.47350    0.81235    0.83550    1.000
    C5       C        0.41340    0.87510    0.73490    1.000
    H1       H        0.66610    0.82480    0.58810    1.000
    H2       H        0.67760    0.86670    0.64930    1.000
    H3       H        0.56790    0.85650    0.57550    1.000
    C6       C        0.44210    0.91000    0.76130    1.000
    C7       C        0.30720    0.87270    0.69140    1.000
    C8       C        0.38960    0.94490    0.72180    1.000
    H4       H        0.50400    0.91300    0.81170    1.000
    C9       C        0.24170    0.90760    0.65890    1.000
    H5       H        0.27470    0.84690    0.68220    1.000
    C10      C        0.29230    0.94326    0.66970    1.000
    H6       H        0.42500    0.97020    0.73300    1.000
    H7       H        0.16710    0.90540    0.63150    1.000
    C11      C        0.23420    0.97965    0.62630    1.000
    O1       O        0.28070    0.01361    0.64800    1.000
    O2       O        0.14700    0.97536    0.57180    1.000
    Mn1      Mn       0.20740    0.06858    0.59737    1.000
    N3       N        0.36410    0.10194    0.61630    1.000
    N4       N        0.20320    0.08749    0.76710    1.000
    O3       O        0.03410    0.05547    0.59530    1.000
    O4       O        0.20970    0.06721    0.43550    1.000
    O5       O        0.07120    0.02699    0.37750    1.000
    N5       N        0.38560    0.13270    0.68560    1.000
    C12      C        0.46160    0.09013    0.59110    1.000
    N6       N        0.25490    0.12204    0.80400    1.000
    C13      C        0.17280    0.06835    0.84900    1.000
    C14      C        0.99810    0.09152    0.59300    1.000
    C15      C        0.29430    0.14940    0.73120    1.000
    C16      C        0.49350    0.14037    0.70280    1.000
    C17      C        0.54510    0.11371    0.64330    1.000
    C18      C        0.47020    0.05570    0.51840    1.000
    C19      C        0.25920    0.12420    0.90910    1.000
    C20      C        0.20830    0.09038    0.94150    1.000
    C21      C        0.11540    0.02934    0.83780    1.000
    O6       O        0.06150    0.12068    0.57910    1.000
    C22      C        0.88320    0.09862    0.61000    1.000
    H8       H        0.31690    0.17480    0.76730    1.000
    H9       H        0.23480    0.15560    0.67550    1.000
    C23      C        0.54200    0.17170    0.77670    1.000
    C24      C        0.66280    0.10953    0.63580    1.000
    H10      H        0.47250    0.03040    0.55750    1.000
    H11      H        0.53710    0.05840    0.48480    1.000
    H12      H        0.40690    0.05560    0.46520    1.000
    C25      C        0.31320    0.15830    0.97090    1.000
    C26      C        0.19080    0.08012    0.04850    1.000
    H13      H        0.04860    0.03230    0.78960    1.000
    H14      H        0.09680    0.02060    0.90590    1.000
    H15      H        0.16290    0.00930    0.81050    1.000
    C27      C        0.82080    0.06673    0.64340    1.000
    C28      C        0.83530    0.13591    0.59410    1.000
    H16      H        0.50700    0.19770    0.75920    1.000
    H17      H        0.62040    0.17390    0.77150    1.000
    H18      H        0.53060    0.16420    0.84790    1.000
    C29      C        0.71460    0.07253    0.65600    1.000
    C30      C        0.72570    0.14157    0.60830    1.000
    H19      H        0.39240    0.15640    0.97120    1.000
    H20      H        0.29490    0.15700    0.04260    1.000
    H21      H        0.28760    0.18390    0.93940    1.000
    C31      C        0.08650    0.06750    0.07250    1.000
    C32      C        0.27650    0.08340    0.12610    1.000
    H22      H        0.85330    0.04110    0.65720    1.000
    H23      H        0.87700    0.15790    0.57340    1.000
    H24      H        0.67390    0.05070    0.67930    1.000
    H25      H        0.69400    0.16750    0.59910    1.000
    H26      H        0.02640    0.06620    0.01970    1.000
    C33      C        0.07410    0.05720    0.17500    1.000
    C34      C        0.26290    0.07230    0.22810    1.000
    H27      H        0.34510    0.09320    0.11040    1.000
    C35      C        0.16350    0.06111    0.25560    1.000
    H28      H        0.00580    0.04750    0.19160    1.000
    H29      H        0.32430    0.07260    0.27970    1.000
    C36      C        0.14680    0.05075    0.36460    1.000
    C37      C        0.20450    0.04010    0.09030    1.000
    H30      H        0.22480    0.01890    0.04710    1.000
    C38      C        0.16530    0.10140    0.22580    1.000
    H31      H        0.16060    0.12220    0.27540    1.000
    C39      C        0.18840    0.03190    0.19350    1.000
    H32      H        0.19540    0.00510    0.21910    1.000
    C40      C        0.17400    0.11040    0.12370    1.000
    H33      H        0.16890    0.13770    0.10210    1.000
    N7       N        0.37580    0.29320    0.24290    1.000
    C41      C        0.42350    0.32480    0.27860    1.000
    N8       N        0.44570    0.28503    0.15940    1.000
    C42      C        0.51440    0.33850    0.23610    1.000
    C43      C        0.37300    0.34520    0.37600    1.000
    C44      C        0.52650    0.31235    0.16450    1.000
    C45      C        0.58660    0.37510    0.26510    1.000
    H34      H        0.33390    0.32480    0.41190    1.000
    H35      H        0.32240    0.36670    0.35070    1.000
    H36      H        0.43210    0.35650    0.42450    1.000
    C46      C        0.55790    0.41000    0.23870    1.000
    C47      C        0.69280    0.37270    0.30860    1.000
    C48      C        0.61040    0.44490    0.27820    1.000
    H37      H        0.49600    0.41300    0.18830    1.000
    C49      C        0.75830    0.40760    0.34110    1.000
    H38      H        0.72530    0.34690    0.31780    1.000
    C50      C        0.70770    0.44326    0.33030    1.000
    H39      H        0.57500    0.47020    0.26700    1.000
    H40      H        0.83290    0.40540    0.36850    1.000
    C51      C        0.76580    0.47965    0.37370    1.000
    O7       O        0.71930    0.51361    0.35200    1.000
    O8       O        0.85300    0.47536    0.42820    1.000
    Mn2      Mn       0.79260    0.56858    0.40263    1.000
    N9       N        0.63590    0.60194    0.38370    1.000
    N10      N        0.79680    0.58749    0.23290    1.000
    O9       O        0.96590    0.55547    0.40470    1.000
    O10      O        0.79030    0.56721    0.56450    1.000
    O11      O        0.92880    0.52699    0.62250    1.000
    N11      N        0.61440    0.63270    0.31440    1.000
    C52      C        0.53840    0.59013    0.40890    1.000
    N12      N        0.74510    0.62204    0.19600    1.000
    C53      C        0.82720    0.56835    0.15100    1.000
    C54      C        0.00190    0.59152    0.40700    1.000
    C55      C        0.70570    0.64940    0.26880    1.000
    C56      C        0.50650    0.64037    0.29720    1.000
    C57      C        0.45490    0.61371    0.35670    1.000
    C58      C        0.52980    0.55570    0.48160    1.000
    C59      C        0.74080    0.62420    0.09090    1.000
    C60      C        0.79170    0.59038    0.05850    1.000
    C61      C        0.88460    0.52934    0.16220    1.000
    O12      O        0.93850    0.62068    0.42090    1.000
    C62      C        0.11680    0.59862    0.39000    1.000
    H41      H        0.68310    0.67480    0.23270    1.000
    H42      H        0.76520    0.65560    0.32450    1.000
    C63      C        0.45800    0.67170    0.22330    1.000
    C64      C        0.33720    0.60953    0.36420    1.000
    H43      H        0.52750    0.53040    0.44250    1.000
    H44      H        0.46290    0.55840    0.51520    1.000
    H45      H        0.59310    0.55560    0.53480    1.000
    C65      C        0.68680    0.65830    0.02910    1.000
    C66      C        0.80920    0.58012    0.95150    1.000
    H46      H        0.95140    0.53230    0.21040    1.000
    H47      H        0.90320    0.52060    0.09410    1.000
    H48      H        0.83710    0.50930    0.18950    1.000
    C67      C        0.17920    0.56673    0.35660    1.000
    C68      C        0.16470    0.63591    0.40590    1.000
    H49      H        0.49300    0.69770    0.24080    1.000
    H50      H        0.37960    0.67390    0.22850    1.000
    H51      H        0.46940    0.66420    0.15210    1.000
    C69      C        0.28540    0.57253    0.34400    1.000
    C70      C        0.27430    0.64157    0.39170    1.000
    H52      H        0.60760    0.65640    0.02880    1.000
    H53      H        0.70510    0.65700    0.95740    1.000
    H54      H        0.71240    0.68390    0.06060    1.000
    C71      C        0.91350    0.56750    0.92750    1.000
    C72      C        0.72350    0.58340    0.87390    1.000
    H55      H        0.14670    0.54110    0.34280    1.000
    H56      H        0.12300    0.65790    0.42660    1.000
    H57      H        0.32610    0.55070    0.32070    1.000
    H58      H        0.30600    0.66750    0.40090    1.000
    H59      H        0.97360    0.56620    0.98030    1.000
    C73      C        0.92590    0.55720    0.82500    1.000
    C74      C        0.73710    0.57230    0.77190    1.000
    H60      H        0.65490    0.59320    0.88960    1.000
    C75      C        0.83650    0.56111    0.74440    1.000
    H61      H        0.99420    0.54750    0.80840    1.000
    H62      H        0.67570    0.57260    0.72030    1.000
    C76      C        0.85320    0.55075    0.63540    1.000
    C77      C        0.79550    0.54010    0.90970    1.000
    H63      H        0.77520    0.51890    0.95290    1.000
    C78      C        0.83470    0.60140    0.77420    1.000
    H64      H        0.83940    0.62220    0.72460    1.000
    C79      C        0.81160    0.53190    0.80650    1.000
    H65      H        0.80460    0.50510    0.78090    1.000
    C80      C        0.82600    0.61040    0.87630    1.000
    H66      H        0.83110    0.63770    0.89790    1.000
    N13      N        0.37580    0.20680    0.24290    1.000
    C81      C        0.42350    0.17520    0.27860    1.000
    N14      N        0.44570    0.21497    0.15940    1.000
    C82      C        0.51440    0.16150    0.23610    1.000
    C83      C        0.37300    0.15480    0.37600    1.000
    C84      C        0.52650    0.18765    0.16450    1.000
    C85      C        0.58660    0.12490    0.26510    1.000
    H67      H        0.33390    0.17520    0.41190    1.000
    H68      H        0.32240    0.13330    0.35070    1.000
    H69      H        0.43210    0.14350    0.42450    1.000
    C86      C        0.55790    0.09000    0.23870    1.000
    C87      C        0.69280    0.12730    0.30860    1.000
    C88      C        0.61040    0.05510    0.27820    1.000
    H70      H        0.49600    0.08700    0.18830    1.000
    C89      C        0.75830    0.09240    0.34110    1.000
    H71      H        0.72530    0.15310    0.31780    1.000
    C90      C        0.70770    0.05674    0.33030    1.000
    H72      H        0.57500    0.02980    0.26700    1.000
    H73      H        0.83290    0.09460    0.36850    1.000
    C91      C        0.76580    0.02035    0.37370    1.000
    O13      O        0.71930    0.98639    0.35200    1.000
    O14      O        0.85300    0.02464    0.42820    1.000
    Mn3      Mn       0.79260    0.93142    0.40263    1.000
    N15      N        0.63590    0.89806    0.38370    1.000
    N16      N        0.79680    0.91251    0.23290    1.000
    O15      O        0.96590    0.94453    0.40470    1.000
    O16      O        0.79030    0.93279    0.56450    1.000
    O17      O        0.92880    0.97301    0.62250    1.000
    N17      N        0.61440    0.86730    0.31440    1.000
    C92      C        0.53840    0.90987    0.40890    1.000
    N18      N        0.74510    0.87796    0.19600    1.000
    C93      C        0.82720    0.93165    0.15100    1.000
    C94      C        0.00190    0.90848    0.40700    1.000
    C95      C        0.70570    0.85060    0.26880    1.000
    C96      C        0.50650    0.85963    0.29720    1.000
    C97      C        0.45490    0.88629    0.35670    1.000
    C98      C        0.52980    0.94430    0.48160    1.000
    C99      C        0.74080    0.87580    0.09090    1.000
    C100     C        0.79170    0.90962    0.05850    1.000
    C101     C        0.88460    0.97066    0.16220    1.000
    O18      O        0.93850    0.87932    0.42090    1.000
    C102     C        0.11680    0.90138    0.39000    1.000
    H74      H        0.68310    0.82520    0.23270    1.000
    H75      H        0.76520    0.84440    0.32450    1.000
    C103     C        0.45800    0.82830    0.22330    1.000
    C104     C        0.33720    0.89047    0.36420    1.000
    H76      H        0.52750    0.96960    0.44250    1.000
    H77      H        0.46290    0.94160    0.51520    1.000
    H78      H        0.59310    0.94440    0.53480    1.000
    C105     C        0.68680    0.84170    0.02910    1.000
    C106     C        0.80920    0.91988    0.95150    1.000
    H79      H        0.95140    0.96770    0.21040    1.000
    H80      H        0.90320    0.97940    0.09410    1.000
    H81      H        0.83710    0.99070    0.18950    1.000
    C107     C        0.17920    0.93327    0.35660    1.000
    C108     C        0.16470    0.86409    0.40590    1.000
    H82      H        0.49300    0.80230    0.24080    1.000
    H83      H        0.37960    0.82610    0.22850    1.000
    H84      H        0.46940    0.83580    0.15210    1.000
    C109     C        0.28540    0.92747    0.34400    1.000
    C110     C        0.27430    0.85843    0.39170    1.000
    H85      H        0.60760    0.84360    0.02880    1.000
    H86      H        0.70510    0.84300    0.95740    1.000
    H87      H        0.71240    0.81610    0.06060    1.000
    C111     C        0.91350    0.93250    0.92750    1.000
    C112     C        0.72350    0.91660    0.87390    1.000
    H88      H        0.14670    0.95890    0.34280    1.000
    H89      H        0.12300    0.84210    0.42660    1.000
    H90      H        0.32610    0.94930    0.32070    1.000
    H91      H        0.30600    0.83250    0.40090    1.000
    H92      H        0.97360    0.93380    0.98030    1.000
    C113     C        0.92590    0.94280    0.82500    1.000
    C114     C        0.73710    0.92770    0.77190    1.000
    H93      H        0.65490    0.90680    0.88960    1.000
    C115     C        0.83650    0.93889    0.74440    1.000
    H94      H        0.99420    0.95250    0.80840    1.000
    H95      H        0.67570    0.92740    0.72030    1.000
    C116     C        0.85320    0.94925    0.63540    1.000
    C117     C        0.79550    0.95990    0.90970    1.000
    H96      H        0.77520    0.98110    0.95290    1.000
    C118     C        0.83470    0.89860    0.77420    1.000
    H97      H        0.83940    0.87780    0.72460    1.000
    C119     C        0.81160    0.96810    0.80650    1.000
    H98      H        0.80460    0.99490    0.78090    1.000
    C120     C        0.82600    0.88960    0.87630    1.000
    H99      H        0.83110    0.86230    0.89790    1.000
    N19      N        0.62420    0.70680    0.75710    1.000
    C121     C        0.57650    0.67520    0.72140    1.000
    N20      N        0.55430    0.71497    0.84060    1.000
    C122     C        0.48560    0.66150    0.76390    1.000
    C123     C        0.62700    0.65480    0.62400    1.000
    C124     C        0.47350    0.68765    0.83550    1.000
    C125     C        0.41340    0.62490    0.73490    1.000
    H100     H        0.66610    0.67520    0.58810    1.000
    H101     H        0.67760    0.63330    0.64930    1.000
    H102     H        0.56790    0.64350    0.57550    1.000
    C126     C        0.44210    0.59000    0.76130    1.000
    C127     C        0.30720    0.62730    0.69140    1.000
    C128     C        0.38960    0.55510    0.72180    1.000
    H103     H        0.50400    0.58700    0.81170    1.000
    C129     C        0.24170    0.59240    0.65890    1.000
    H104     H        0.27470    0.65310    0.68220    1.000
    C130     C        0.29230    0.55674    0.66970    1.000
    H105     H        0.42500    0.52980    0.73300    1.000
    H106     H        0.16710    0.59460    0.63150    1.000
    C131     C        0.23420    0.52035    0.62630    1.000
    O19      O        0.28070    0.48639    0.64800    1.000
    O20      O        0.14700    0.52464    0.57180    1.000
    Mn4      Mn       0.20740    0.43142    0.59737    1.000
    N21      N        0.36410    0.39806    0.61630    1.000
    N22      N        0.20320    0.41251    0.76710    1.000
    O21      O        0.03410    0.44453    0.59530    1.000
    O22      O        0.20970    0.43279    0.43550    1.000
    O23      O        0.07120    0.47301    0.37750    1.000
    N23      N        0.38560    0.36730    0.68560    1.000
    C132     C        0.46160    0.40987    0.59110    1.000
    N24      N        0.25490    0.37796    0.80400    1.000
    C133     C        0.17280    0.43165    0.84900    1.000
    C134     C        0.99810    0.40848    0.59300    1.000
    C135     C        0.29430    0.35060    0.73120    1.000
    C136     C        0.49350    0.35963    0.70280    1.000
    C137     C        0.54510    0.38629    0.64330    1.000
    C138     C        0.47020    0.44430    0.51840    1.000
    C139     C        0.25920    0.37580    0.90910    1.000
    C140     C        0.20830    0.40962    0.94150    1.000
    C141     C        0.11540    0.47066    0.83780    1.000
    O24      O        0.06150    0.37932    0.57910    1.000
    C142     C        0.88320    0.40138    0.61000    1.000
    H107     H        0.31690    0.32520    0.76730    1.000
    H108     H        0.23480    0.34440    0.67550    1.000
    C143     C        0.54200    0.32830    0.77670    1.000
    C144     C        0.66280    0.39047    0.63580    1.000
    H109     H        0.47250    0.46960    0.55750    1.000
    H110     H        0.53710    0.44160    0.48480    1.000
    H111     H        0.40690    0.44440    0.46520    1.000
    C145     C        0.31320    0.34170    0.97090    1.000
    C146     C        0.19080    0.41988    0.04850    1.000
    H112     H        0.04860    0.46770    0.78960    1.000
    H113     H        0.09680    0.47940    0.90590    1.000
    H114     H        0.16290    0.49070    0.81050    1.000
    C147     C        0.82080    0.43327    0.64340    1.000
    C148     C        0.83530    0.36409    0.59410    1.000
    H115     H        0.50700    0.30230    0.75920    1.000
    H116     H        0.62040    0.32610    0.77150    1.000
    H117     H        0.53060    0.33580    0.84790    1.000
    C149     C        0.71460    0.42747    0.65600    1.000
    C150     C        0.72570    0.35843    0.60830    1.000
    H118     H        0.39240    0.34360    0.97120    1.000
    H119     H        0.29490    0.34300    0.04260    1.000
    H120     H        0.28760    0.31610    0.93940    1.000
    C151     C        0.08650    0.43250    0.07250    1.000
    C152     C        0.27650    0.41660    0.12610    1.000
    H121     H        0.85330    0.45890    0.65720    1.000
    H122     H        0.87700    0.34210    0.57340    1.000
    H123     H        0.67390    0.44930    0.67930    1.000
    H124     H        0.69400    0.33250    0.59910    1.000
    H125     H        0.02640    0.43380    0.01970    1.000
    C153     C        0.07410    0.44280    0.17500    1.000
    C154     C        0.26290    0.42770    0.22810    1.000
    H126     H        0.34510    0.40680    0.11040    1.000
    C155     C        0.16350    0.43889    0.25560    1.000
    H127     H        0.00580    0.45250    0.19160    1.000
    H128     H        0.32430    0.42740    0.27970    1.000
    C156     C        0.14680    0.44925    0.36460    1.000
    C157     C        0.20450    0.45990    0.09030    1.000
    H129     H        0.22480    0.48110    0.04710    1.000
    C158     C        0.16530    0.39860    0.22580    1.000
    H130     H        0.16060    0.37780    0.27540    1.000
    C159     C        0.18840    0.46810    0.19350    1.000
    H131     H        0.19540    0.49490    0.21910    1.000
    C160     C        0.17400    0.38960    0.12370    1.000
    H132     H        0.16890    0.36230    0.10210    1.000
    Fe1      Fe       0.75270    0.75000    0.72410    1.000
    Cl1      Cl       0.85450    0.75000    0.90360    1.000
    C161     C        0.56930    0.75000    0.91350    1.000
    H133     H        0.51400    0.75000    0.96310    1.000
    H134     H        0.64300    0.75000    0.95290    1.000
    Fe2      Fe       0.24730    0.25000    0.27590    1.000
    Cl2      Cl       0.14550    0.25000    0.09640    1.000
    C162     C        0.43070    0.25000    0.08650    1.000
    H135     H        0.48600    0.25000    0.03690    1.000
    H136     H        0.35700    0.25000    0.04710    1.000
    Mn5      Mn       0.00000    0.00000    0.50000    1.000
    Mn6      Mn       0.00000    0.50000    0.50000    1.000
