# CIF file generated by openbabel 3.1.0, see https://openbabel.org
data_I
_chemical_name_common 'image0'
_cell_length_a 6.3462
_cell_length_b 16.58
_cell_length_c 24.018
_cell_angle_alpha 90
_cell_angle_beta 90.683
_cell_angle_gamma 90
_space_group_name_H-M_alt 'P 1'
_space_group_name_Hall 'P 1'
loop_
    _symmetry_equiv_pos_as_xyz
    x,y,z
loop_
    _atom_site_label
    _atom_site_type_symbol
    _atom_site_fract_x
    _atom_site_fract_y
    _atom_site_fract_z
    _atom_site_occupancy
    Dy1      Dy       0.26239    0.06217    0.02321    1.000
    C1       C        0.23280    0.94410    0.93220    1.000
    C2       C        0.27320    0.89910    0.88120    1.000
    C3       C        0.47110    0.86150    0.87130    1.000
    C4       C        0.49390    0.81780    0.82080    1.000
    H1       H        0.62490    0.79250    0.81340    1.000
    C5       C        0.33260    0.81100    0.78230    1.000
    C6       C        0.13980    0.85030    0.79240    1.000
    H2       H        0.02810    0.84700    0.76580    1.000
    C7       C        0.11370    0.89280    0.84040    1.000
    H3       H        0.98300    0.91910    0.84640    1.000
    C8       C        0.35930    0.76150    0.73130    1.000
    C9       C        0.19490    0.71330    0.71130    1.000
    H4       H        0.06160    0.71570    0.72880    1.000
    C10      C        0.22250    0.66240    0.66670    1.000
    C11      C        0.41750    0.65960    0.63860    1.000
    C12      C        0.57770    0.70950    0.65820    1.000
    H5       H        0.70970    0.70890    0.63990    1.000
    C13      C        0.55090    0.76010    0.70350    1.000
    H6       H        0.66330    0.79390    0.71560    1.000
    C14      C        0.45170    0.60440    0.59120    1.000
    O1       O        0.05940    0.98100    0.94030    1.000
    O2       O        0.37280    0.94920    0.97060    1.000
    O3       O        0.60930    0.61680    0.55970    1.000
    O4       O        0.32290    0.54640    0.58470    1.000
    O5       O        0.63390    0.86330    0.90640    1.000
    O6       O        0.05580    0.61510    0.65130    1.000
    H7       H        0.09430    0.58200    0.62700    1.000
    Dy2      Dy       0.73761    0.56217    0.47679    1.000
    C15      C        0.76720    0.44410    0.56780    1.000
    C16      C        0.72680    0.39910    0.61880    1.000
    C17      C        0.52890    0.36150    0.62870    1.000
    C18      C        0.50610    0.31780    0.67920    1.000
    H8       H        0.37510    0.29250    0.68660    1.000
    C19      C        0.66740    0.31100    0.71770    1.000
    C20      C        0.86020    0.35030    0.70760    1.000
    H9       H        0.97190    0.34700    0.73420    1.000
    C21      C        0.88630    0.39280    0.65960    1.000
    H10      H        0.01700    0.41910    0.65360    1.000
    C22      C        0.64070    0.26150    0.76870    1.000
    C23      C        0.80510    0.21330    0.78870    1.000
    H11      H        0.93840    0.21570    0.77120    1.000
    C24      C        0.77750    0.16240    0.83330    1.000
    C25      C        0.58250    0.15960    0.86140    1.000
    C26      C        0.42230    0.20950    0.84180    1.000
    H12      H        0.29030    0.20890    0.86010    1.000
    C27      C        0.44910    0.26010    0.79650    1.000
    H13      H        0.33670    0.29390    0.78440    1.000
    C28      C        0.54830    0.10440    0.90880    1.000
    O7       O        0.94060    0.48100    0.55970    1.000
    O8       O        0.62720    0.44920    0.52940    1.000
    O9       O        0.39070    0.11680    0.94030    1.000
    O10      O        0.67710    0.04640    0.91530    1.000
    O11      O        0.36610    0.36330    0.59360    1.000
    O12      O        0.94420    0.11510    0.84870    1.000
    H14      H        0.90570    0.08200    0.87300    1.000
    Dy3      Dy       0.73761    0.93783    0.97679    1.000
    C29      C        0.76720    0.05590    0.06780    1.000
    C30      C        0.72680    0.10090    0.11880    1.000
    C31      C        0.52890    0.13850    0.12870    1.000
    C32      C        0.50610    0.18220    0.17920    1.000
    H15      H        0.37510    0.20750    0.18660    1.000
    C33      C        0.66740    0.18900    0.21770    1.000
    C34      C        0.86020    0.14970    0.20760    1.000
    H16      H        0.97190    0.15300    0.23420    1.000
    C35      C        0.88630    0.10720    0.15960    1.000
    H17      H        0.01700    0.08090    0.15360    1.000
    C36      C        0.64070    0.23850    0.26870    1.000
    C37      C        0.80510    0.28670    0.28870    1.000
    H18      H        0.93840    0.28430    0.27120    1.000
    C38      C        0.77750    0.33760    0.33330    1.000
    C39      C        0.58250    0.34040    0.36140    1.000
    C40      C        0.42230    0.29050    0.34180    1.000
    H19      H        0.29030    0.29110    0.36010    1.000
    C41      C        0.44910    0.23990    0.29650    1.000
    H20      H        0.33670    0.20610    0.28440    1.000
    C42      C        0.54830    0.39560    0.40880    1.000
    O13      O        0.94060    0.01900    0.05970    1.000
    O14      O        0.62720    0.05080    0.02940    1.000
    O15      O        0.39070    0.38320    0.44030    1.000
    O16      O        0.67710    0.45360    0.41530    1.000
    O17      O        0.36610    0.13670    0.09360    1.000
    O18      O        0.94420    0.38490    0.34870    1.000
    H21      H        0.90570    0.41800    0.37300    1.000
    Dy4      Dy       0.26239    0.43783    0.52321    1.000
    C43      C        0.23280    0.55590    0.43220    1.000
    C44      C        0.27320    0.60090    0.38120    1.000
    C45      C        0.47110    0.63850    0.37130    1.000
    C46      C        0.49390    0.68220    0.32080    1.000
    H22      H        0.62490    0.70750    0.31340    1.000
    C47      C        0.33260    0.68900    0.28230    1.000
    C48      C        0.13980    0.64970    0.29240    1.000
    H23      H        0.02810    0.65300    0.26580    1.000
    C49      C        0.11370    0.60720    0.34040    1.000
    H24      H        0.98300    0.58090    0.34640    1.000
    C50      C        0.35930    0.73850    0.23130    1.000
    C51      C        0.19490    0.78670    0.21130    1.000
    H25      H        0.06160    0.78430    0.22880    1.000
    C52      C        0.22250    0.83760    0.16670    1.000
    C53      C        0.41750    0.84040    0.13860    1.000
    C54      C        0.57770    0.79050    0.15820    1.000
    H26      H        0.70970    0.79110    0.13990    1.000
    C55      C        0.55090    0.73990    0.20350    1.000
    H27      H        0.66330    0.70610    0.21560    1.000
    C56      C        0.45170    0.89560    0.09120    1.000
    O19      O        0.05940    0.51900    0.44030    1.000
    O20      O        0.37280    0.55080    0.47060    1.000
    O21      O        0.60930    0.88320    0.05970    1.000
    O22      O        0.32290    0.95360    0.08470    1.000
    O23      O        0.63390    0.63670    0.40640    1.000
    O24      O        0.05580    0.88490    0.15130    1.000
    H28      H        0.09430    0.91800    0.12700    1.000
