data_functionalizedCrystal
_audit_creation_method	'EQeq! by Chris Wilmer'
_symmetry_space_group_name_H-M	'P1'
_symmetry_Int_Tables_number	1
_symmetry_cell_setting	triclinic
loop_
_symmetry_equiv_pos_as_xyz
  x,y,z
_cell_length_a	15.2429
_cell_length_b	15.2429
_cell_length_c	20.6894
_cell_angle_alpha	68.3845
_cell_angle_beta	68.3845
_cell_angle_gamma	60
loop_
_atom_site_label
_atom_site_type_symbol
_atom_site_fract_x
_atom_site_fract_y
_atom_site_fract_z
_atom_site_charge
Mof_Mn	Mn	0.37695	0.38312	0.25469	0.901
Mof_Mn	Mn	0.38312	0.98524	0.25469	0.9
Mof_Mn	Mn	0.98524	0.37695	0.25469	0.9
Mof_Mn	Mn	0.12305	0.51476	0.24531	0.901
Mof_Mn	Mn	0.72166	0.72166	0.83502	0.911
Mof_Mn	Mn	0.61688	0.01476	0.74531	0.901
Mof_Mn	Mn	0.62305	0.61688	0.74531	0.902
Mof_Mn	Mn	0.27834	0.27834	0.16498	0.911
Mof_Mn	Mn	0.22166	0.22166	0.33502	0.911
Mof_Mn	Mn	0.01476	0.62305	0.74531	0.901
Mof_Mn	Mn	0.51476	0.11688	0.24531	0.902
Mof_Mn	Mn	0.88312	0.87695	0.75469	0.902
Mof_Mn	Mn	0.48524	0.88312	0.75469	0.902
Mof_Mn	Mn	0.11688	0.12305	0.24531	0.902
Mof_Mn	Mn	0.87695	0.48524	0.75469	0.902
Mof_Mn	Mn	0.77834	0.77834	0.66498	0.911
Mof_H 	H 	0.6271	0.7242	0.503	0.049
Mof_H 	H 	0.7242	0.1457	0.503	0.049
Mof_H 	H 	0.8543	0.3729	0.497	0.049
Mof_H 	H 	0.9254	0.2974	0.1092	0.023
Mof_H 	H 	0.7758	0.8729	0.997	0.05
Mof_H 	H 	0.668	0.9254	0.1092	0.023
Mof_H 	H 	0.8729	0.3543	0.997	0.049
Mof_H 	H 	0.168	0.7974	0.6092	0.023
Mof_H 	H 	0.1271	0.6457	0.003	0.049
Mof_H 	H 	0.3543	0.7758	0.997	0.049
Mof_H 	H 	0.2758	0.8543	0.497	0.049
Mof_H 	H 	0.7974	0.4254	0.6092	0.023
Mof_H 	H 	0.6457	0.2242	0.003	0.049
Mof_H 	H 	0.4254	0.168	0.6092	0.023
Mof_H 	H 	0.5746	0.832	0.3908	0.023
Mof_H 	H 	0.2026	0.5746	0.3908	0.023
Mof_H 	H 	0.0746	0.7026	0.8908	0.023
Mof_H 	H 	0.2242	0.1271	0.003	0.05
Mof_H 	H 	0.7026	0.332	0.8908	0.023
Mof_H 	H 	0.1457	0.6271	0.503	0.049
Mof_H 	H 	0.832	0.2026	0.3908	0.023
Mof_H 	H 	0.2974	0.668	0.1092	0.023
Mof_H 	H 	0.3729	0.2758	0.497	0.049
Mof_H 	H 	0.332	0.0746	0.8908	0.023
Mof_C 	C 	0.43865	0.95205	0.94285	-0.129
Mof_C 	C 	0.93907	0.48587	0.36809	0.398
Mof_C 	C 	0.80907	0.60047	0.61319	0.415
Mof_C 	C 	0.47727	0.10047	0.11319	0.415
Mof_C 	C 	0.06938	0.64358	0.99916	-0.017
Mof_C 	C 	0.60816	0.33216	0.05562	-0.106
Mof_C 	C 	0.64358	0.28788	0.99916	-0.016
Mof_C 	C 	0.66645	0.43865	0.94285	-0.13
Mof_C 	C 	0.69093	0.52273	0.88681	0.415
Mof_C 	C 	0.01413	0.56093	0.13191	0.398
Mof_C 	C 	0.97727	0.80907	0.61319	0.415
Mof_C 	C 	0.30907	0.47727	0.11319	0.415
Mof_C 	C 	0.04795	0.33355	0.05715	-0.128
Mof_C 	C 	0.95205	0.66645	0.94285	-0.128
Mof_C 	C 	0.06093	0.51413	0.63191	0.398
Mof_C 	C 	0.10816	0.50406	0.55562	-0.106
Mof_C 	C 	0.35013	0.03873	0.93451	0.012
Mof_C 	C 	0.66784	0.99594	0.94438	-0.104
Mof_C 	C 	0.89953	0.69093	0.88681	0.415
Mof_C 	C 	0.32337	0.64987	0.06549	0.012
Mof_C 	C 	0.39953	0.02273	0.38681	0.415
Mof_C 	C 	0.78788	0.14358	0.49916	-0.015
Mof_C 	C 	0.70697	0.98587	0.86809	0.398
Mof_C 	C 	0.17663	0.53873	0.43451	0.012
Mof_C 	C 	0.56938	0.78788	0.49916	-0.015
Mof_C 	C 	0.14358	0.56938	0.49916	-0.015
Mof_C 	C 	0.54795	0.06135	0.55715	-0.13
Mof_C 	C 	0.39184	0.66784	0.94438	-0.106
Mof_C 	C 	0.16645	0.45205	0.44285	-0.13
Mof_C 	C 	0.49594	0.16784	0.44438	-0.106
Mof_C 	C 	0.60047	0.97727	0.61319	0.415
Mof_C 	C 	0.56135	0.04795	0.05715	-0.129
Mof_C 	C 	0.56093	0.29303	0.13191	0.398
Mof_C 	C 	0.46127	0.14987	0.56549	0.012
Mof_C 	C 	0.51413	0.79303	0.63191	0.398
Mof_C 	C 	0.93865	0.16645	0.44285	-0.13
Mof_C 	C 	0.10047	0.30907	0.11319	0.415
Mof_C 	C 	0.93062	0.35642	0.00084	-0.017
Mof_C 	C 	0.82337	0.46127	0.56549	0.012
Mof_C 	C 	0.48587	0.20697	0.36809	0.398
Mof_C 	C 	0.71212	0.93062	0.00084	-0.019
Mof_C 	C 	0.43062	0.21212	0.50084	-0.015
Mof_C 	C 	0.19093	0.39953	0.38681	0.415
Mof_C 	C 	0.00406	0.60816	0.05562	-0.105
Mof_C 	C 	0.52273	0.89953	0.88681	0.415
Mof_C 	C 	0.45205	0.93865	0.44285	-0.13
Mof_C 	C 	0.33216	0.00406	0.05562	-0.104
Mof_C 	C 	0.28788	0.06938	0.99916	-0.019
Mof_C 	C 	0.14987	0.82337	0.56549	0.012
Mof_C 	C 	0.29303	0.01413	0.13191	0.398
Mof_C 	C 	0.33355	0.56135	0.05715	-0.13
Mof_C 	C 	0.64987	0.96127	0.06549	0.012
Mof_C 	C 	0.83216	0.10816	0.55562	-0.106
Mof_C 	C 	0.43907	0.70697	0.86809	0.398
Mof_C 	C 	0.85013	0.17663	0.43451	0.012
Mof_C 	C 	0.96127	0.32337	0.06549	0.011
Mof_C 	C 	0.21212	0.85642	0.50084	-0.015
Mof_C 	C 	0.02273	0.19093	0.38681	0.415
Mof_C 	C 	0.35642	0.71212	0.00084	-0.016
Mof_C 	C 	0.16784	0.89184	0.44438	-0.106
Mof_C 	C 	0.53873	0.85013	0.43451	0.012
Mof_C 	C 	0.98587	0.43907	0.86809	0.398
Mof_C 	C 	0.20697	0.93907	0.36809	0.398
Mof_C 	C 	0.89184	0.49594	0.44438	-0.106
Mof_C 	C 	0.67663	0.35013	0.93451	0.012
Mof_C 	C 	0.79303	0.06093	0.63191	0.398
Mof_C 	C 	0.85642	0.43062	0.50084	-0.015
Mof_C 	C 	0.99594	0.39184	0.94438	-0.105
Mof_C 	C 	0.50406	0.83216	0.55562	-0.106
Mof_C 	C 	0.06135	0.83355	0.55715	-0.13
Mof_C 	C 	0.83355	0.54795	0.55715	-0.13
Mof_C 	C 	0.03873	0.67663	0.93451	0.011
Mof_S 	S 	0.38555	0.55069	0.97039	0.082
Mof_S 	S 	0.94931	0.11445	0.52961	0.082
Mof_S 	S 	0.05069	0.88555	0.47039	0.082
Mof_S 	S 	0.61445	0.44931	0.02961	0.082
Mof_S 	S 	0.59337	0.05069	0.47039	0.082
Mof_S 	S 	0.88555	0.59337	0.47039	0.082
Mof_S 	S 	0.90663	0.61445	0.02961	0.081
Mof_S 	S 	0.40663	0.94931	0.52961	0.082
Mof_S 	S 	0.09337	0.38555	0.97039	0.081
Mof_S 	S 	0.55069	0.09337	0.97039	0.081
Mof_S 	S 	0.11445	0.40663	0.52961	0.082
Mof_S 	S 	0.44931	0.90663	0.02961	0.081
Mof_O 	O 	0.42523	0.30073	0.35081	-0.407
Mof_O 	O 	0.75	0.85815	0.75	-0.487
Mof_O 	O 	0.81846	0.68026	0.90532	-0.385
Mof_O 	O 	0.40404	0.18154	0.09468	-0.385
Mof_O 	O 	0.4848	0.0574	0.1776	-0.484
Mof_O 	O 	0.85815	0.64185	0.75	-0.487
Mof_O 	O 	0.09596	0.18026	0.40532	-0.385
Mof_O 	O 	0.14327	0.98877	0.32939	-0.413
Mof_O 	O 	0.07677	0.57477	0.64919	-0.407
Mof_O 	O 	0.80073	0.92523	0.85081	-0.407
Mof_O 	O 	0.90404	0.81974	0.59468	-0.385
Mof_O 	O 	0.42323	0.80073	0.85081	-0.407
Mof_O 	O 	0.92323	0.42523	0.35081	-0.407
Mof_O 	O 	0.9848	0.7802	0.6776	-0.484
Mof_O 	O 	0.92523	0.42323	0.85081	-0.407
Mof_O 	O 	0.2198	0.4426	0.3224	-0.484
Mof_O 	O 	0.19927	0.07477	0.14919	-0.407
Mof_O 	O 	0.07477	0.57677	0.14919	-0.407
Mof_O 	O 	0.64185	0.75	0.75	-0.487
Mof_O 	O 	0.7198	0.5152	0.8224	-0.484
Mof_O 	O 	0.98877	0.53857	0.32939	-0.413
Mof_O 	O 	0.4426	0.0152	0.3224	-0.484
Mof_O 	O 	0.68026	0.59596	0.90532	-0.385
Mof_O 	O 	0.57677	0.19927	0.14919	-0.407
Mof_O 	O 	0.03857	0.48877	0.82939	-0.413
Mof_O 	O 	0.25	0.14185	0.25	-0.487
Mof_O 	O 	0.2802	0.4848	0.1776	-0.484
Mof_O 	O 	0.46143	0.85673	0.67061	-0.413
Mof_O 	O 	0.5574	0.9848	0.6776	-0.484
Mof_O 	O 	0.85673	0.01123	0.67061	-0.413
Mof_O 	O 	0.51123	0.35673	0.17061	-0.413
Mof_O 	O 	0.31974	0.40404	0.09468	-0.385
Mof_O 	O 	0.48877	0.64327	0.82939	-0.413
Mof_O 	O 	0.31846	0.09596	0.40532	-0.385
Mof_O 	O 	0.01123	0.46143	0.67061	-0.413
Mof_O 	O 	0.57477	0.69927	0.64919	-0.407
Mof_O 	O 	0.7802	0.5574	0.6776	-0.484
Mof_O 	O 	0.69927	0.07677	0.64919	-0.407
Mof_O 	O 	0.35673	0.96143	0.17061	-0.413
Mof_O 	O 	0.18154	0.31974	0.09468	-0.385
Mof_O 	O 	0.18026	0.31846	0.40532	-0.385
Mof_O 	O 	0.59596	0.81846	0.90532	-0.385
Mof_O 	O 	0.35815	0.25	0.25	-0.487
Mof_O 	O 	0.9426	0.7198	0.8224	-0.484
Mof_O 	O 	0.5152	0.9426	0.8224	-0.484
Mof_O 	O 	0.14185	0.35815	0.25	-0.487
Mof_O 	O 	0.0574	0.2802	0.1776	-0.484
Mof_O 	O 	0.96143	0.51123	0.17061	-0.413
Mof_O 	O 	0.0152	0.2198	0.3224	-0.484
Mof_O 	O 	0.30073	0.92323	0.35081	-0.407
Mof_O 	O 	0.53857	0.14327	0.32939	-0.413
Mof_O 	O 	0.81974	0.68154	0.59468	-0.385
Mof_O 	O 	0.64327	0.03857	0.82939	-0.413
Mof_O 	O 	0.68154	0.90404	0.59468	-0.385
_end
