data_functionalizedCrystal
_audit_creation_method	'EQeq! by Chris Wilmer'
_symmetry_space_group_name_H-M	'P1'
_symmetry_Int_Tables_number	1
_symmetry_cell_setting	triclinic
loop_
_symmetry_equiv_pos_as_xyz
  x,y,z
_cell_length_a	13.516
_cell_length_b	13.516
_cell_length_c	8.0533
_cell_angle_alpha	90
_cell_angle_beta	90
_cell_angle_gamma	120
loop_
_atom_site_label
_atom_site_type_symbol
_atom_site_fract_x
_atom_site_fract_y
_atom_site_fract_z
_atom_site_charge
Mof_Mn	Mn	0.30163	0.33841	0.54518	0.791
Mof_O 	O 	0.22904	0.1814	0.4055	-0.343
Mof_C 	C 	0.5345	0.32271	0.5486	-0.142
Mof_C 	C 	0.3537	0.56	0.7771	-0.137
Mof_O 	O 	0.24483	0.05813	0.2459	-0.348
Mof_C 	C 	0.2671	0.158	0.2793	0.356
Mof_N 	N 	0.3473	0.209	0.9996	-0.237
Mof_H 	H 	0.4118	0.257	0.9448	0.114
Mof_H 	H 	0.287	0.199	0.939	0.151
Mof_C 	C 	0.3458	0.255	0.1633	-0.164
Mof_H 	H 	0.4232	0.2872	0.2085	0.059
Mof_N 	N 	0.3663	0.42809	0.3026	-0.298
Mof_H 	H 	0.3486	0.4839	0.2948	0.101
Mof_H 	H 	0.4429	0.4613	0.3014	0.105
Mof_C 	C 	0.3201	0.3533	0.1556	0.013
Mof_H 	H 	0.3537	0.3978	0.0559	-0.002
Mof_H 	H 	0.2381	0.3223	0.1502	0.021
Mof_N 	N 	0.4554	0.3213	0.6037	-0.146
Mof_N 	N 	0.3678	0.5	0.6913	-0.149
Mof_Mn	Mn	0.66159	0.96322	0.54518	0.786
Mof_O 	O 	0.8186	0.04764	0.4055	-0.338
Mof_C 	C 	0.67729	0.21179	0.5486	-0.141
Mof_C 	C 	0.44	0.7937	0.7771	-0.138
Mof_O 	O 	0.94187	0.1867	0.2459	-0.347
Mof_C 	C 	0.842	0.1091	0.2793	0.354
Mof_N 	N 	0.791	0.1383	0.9996	-0.237
Mof_H 	H 	0.743	0.1548	0.9448	0.115
Mof_H 	H 	0.801	0.088	0.939	0.153
Mof_C 	C 	0.745	0.0908	0.1633	-0.161
Mof_H 	H 	0.7128	0.136	0.2085	0.058
Mof_N 	N 	0.57191	0.93821	0.3026	-0.297
Mof_H 	H 	0.5161	0.8647	0.2948	0.101
Mof_H 	H 	0.5387	0.9816	0.3014	0.104
Mof_C 	C 	0.6467	0.9668	0.1556	0.008
Mof_H 	H 	0.6022	0.9559	0.0559	-0.001
Mof_H 	H 	0.6777	0.9158	0.1502	0.022
Mof_N 	N 	0.6787	0.1341	0.6037	-0.144
Mof_N 	N 	0.5	0.8678	0.6913	-0.149
Mof_Mn	Mn	0.03678	0.69837	0.54518	0.785
Mof_O 	O 	0.95236	0.77096	0.4055	-0.339
Mof_C 	C 	0.78821	0.4655	0.5486	-0.141
Mof_C 	C 	0.2063	0.6463	0.7771	-0.138
Mof_O 	O 	0.8133	0.75517	0.2459	-0.349
Mof_C 	C 	0.8909	0.7329	0.2793	0.354
Mof_N 	N 	0.8617	0.6527	0.9996	-0.238
Mof_H 	H 	0.8452	0.5882	0.9448	0.115
Mof_H 	H 	0.912	0.713	0.939	0.152
Mof_C 	C 	0.9092	0.6542	0.1633	-0.159
Mof_H 	H 	0.864	0.5768	0.2085	0.058
Mof_N 	N 	0.06179	0.6337	0.3026	-0.297
Mof_H 	H 	0.1353	0.6514	0.2948	0.101
Mof_H 	H 	0.0184	0.5571	0.3014	0.104
Mof_C 	C 	0.0332	0.6799	0.1556	0.007
Mof_H 	H 	0.0441	0.6463	0.0559	-0
Mof_H 	H 	0.0842	0.7619	0.1502	0.023
Mof_N 	N 	0.8659	0.5446	0.6037	-0.144
Mof_N 	N 	0.1322	0.6322	0.6913	-0.149
Mof_Mn	Mn	0.69837	0.66159	0.04518	0.708
Mof_O 	O 	0.77096	0.8186	0.9055	-0.3
Mof_C 	C 	0.4655	0.67729	0.0486	-0.204
Mof_C 	C 	0.6463	0.44	0.2771	-0.147
Mof_O 	O 	0.75517	0.94187	0.7459	-0.334
Mof_C 	C 	0.7329	0.842	0.7793	0.344
Mof_N 	N 	0.6527	0.791	0.4996	-0.275
Mof_H 	H 	0.5882	0.743	0.4448	0.102
Mof_H 	H 	0.713	0.801	0.439	0.141
Mof_C 	C 	0.6542	0.745	0.6633	-0.105
Mof_H 	H 	0.5768	0.7128	0.7085	0.054
Mof_N 	N 	0.6337	0.57191	0.8026	-0.284
Mof_H 	H 	0.6514	0.5161	0.7948	0.11
Mof_H 	H 	0.5571	0.5387	0.8014	0.117
Mof_C 	C 	0.6799	0.6467	0.6556	-0.016
Mof_H 	H 	0.6463	0.6022	0.5559	0.026
Mof_H 	H 	0.7619	0.6777	0.6502	0.043
Mof_N 	N 	0.5446	0.6787	0.1037	-0.138
Mof_N 	N 	0.6322	0.5	0.1913	-0.157
Mof_Mn	Mn	0.33841	0.03678	0.04518	0.713
Mof_O 	O 	0.1814	0.95236	0.9055	-0.307
Mof_C 	C 	0.32271	0.78821	0.0486	-0.204
Mof_C 	C 	0.56	0.2063	0.2771	-0.147
Mof_O 	O 	0.05813	0.8133	0.7459	-0.337
Mof_C 	C 	0.158	0.8909	0.7793	0.346
Mof_N 	N 	0.209	0.8617	0.4996	-0.273
Mof_H 	H 	0.257	0.8452	0.4448	0.101
Mof_H 	H 	0.199	0.912	0.439	0.139
Mof_C 	C 	0.255	0.9092	0.6633	-0.113
Mof_H 	H 	0.2872	0.864	0.7085	0.056
Mof_N 	N 	0.42809	0.06179	0.8026	-0.285
Mof_H 	H 	0.4839	0.1353	0.7948	0.11
Mof_H 	H 	0.4613	0.0184	0.8014	0.119
Mof_C 	C 	0.3533	0.0332	0.6556	-0.007
Mof_H 	H 	0.3978	0.0441	0.5559	0.024
Mof_H 	H 	0.3223	0.0842	0.6502	0.041
Mof_N 	N 	0.3213	0.8659	0.1037	-0.139
Mof_N 	N 	0.5	0.1322	0.1913	-0.156
Mof_Mn	Mn	0.96322	0.30163	0.04518	0.711
Mof_O 	O 	0.04764	0.22904	0.9055	-0.303
Mof_C 	C 	0.21179	0.5345	0.0486	-0.204
Mof_C 	C 	0.7937	0.3537	0.2771	-0.146
Mof_O 	O 	0.1867	0.24483	0.7459	-0.333
Mof_C 	C 	0.1091	0.2671	0.7793	0.345
Mof_N 	N 	0.1383	0.3473	0.4996	-0.274
Mof_H 	H 	0.1548	0.4118	0.4448	0.101
Mof_H 	H 	0.088	0.287	0.439	0.14
Mof_C 	C 	0.0908	0.3458	0.6633	-0.112
Mof_H 	H 	0.136	0.4232	0.7085	0.055
Mof_N 	N 	0.93821	0.3663	0.8026	-0.285
Mof_H 	H 	0.8647	0.3486	0.7948	0.11
Mof_H 	H 	0.9816	0.4429	0.8014	0.119
Mof_C 	C 	0.9668	0.3201	0.6556	-0.008
Mof_H 	H 	0.9559	0.3537	0.5559	0.025
Mof_H 	H 	0.9158	0.2381	0.6502	0.042
Mof_N 	N 	0.1341	0.4554	0.1037	-0.139
Mof_N 	N 	0.8678	0.3678	0.1913	-0.156
Mof_Mn	Mn	0.33333	0.66667	0.92263	0.917
Mof_Mn	Mn	0.66667	0.33333	0.42263	0.791
_end
