# CIF file generated by openbabel 3.1.0, see https://openbabel.org
data_I
_chemical_name_common 'image0'
_cell_length_a 21.4817
_cell_length_b 23.3867
_cell_length_c 19.8758
_cell_angle_alpha 90
_cell_angle_beta 90
_cell_angle_gamma 90
_space_group_name_H-M_alt 'P 1'
_space_group_name_Hall 'P 1'
loop_
    _symmetry_equiv_pos_as_xyz
    x,y,z
loop_
    _atom_site_label
    _atom_site_type_symbol
    _atom_site_fract_x
    _atom_site_fract_y
    _atom_site_fract_z
    _atom_site_occupancy
    Ni1      Ni       0.12714    0.32374    0.01604    1.000
    C1       C        0.44900    0.39940    0.43180    1.000
    H1       H        0.42030    0.42220    0.45420    1.000
    C2       C        0.50050    0.38130    0.46450    1.000
    H2       H        0.50450    0.38880    0.51020    1.000
    C3       C        0.53610    0.33510    0.36910    1.000
    H3       H        0.56500    0.31200    0.34730    1.000
    C4       C        0.48270    0.35090    0.33490    1.000
    H4       H        0.47690    0.33850    0.29090    1.000
    C5       C        0.30120    0.52950    0.40810    1.000
    H5       H        0.26140    0.51470    0.40210    1.000
    C6       C        0.31150    0.57800    0.44660    1.000
    H6       H        0.27700    0.59690    0.46410    1.000
    C7       C        0.41440    0.57730    0.43220    1.000
    H7       H        0.45250    0.59520    0.43930    1.000
    C8       C        0.41340    0.52860    0.39210    1.000
    H8       H        0.45010    0.51330    0.37500    1.000
    C9       C        0.22910    0.31910    0.11660    1.000
    H9       H        0.23610    0.28480    0.09400    1.000
    C10      C        0.26350    0.33150    0.17610    1.000
    H10      H        0.28400    0.30220    0.19880    1.000
    C11      C        0.18830    0.40440    0.12010    1.000
    H11      H        0.15920    0.43070    0.10450    1.000
    C12      C        0.22800    0.42180    0.16960    1.000
    H12      H        0.22830    0.45990    0.18280    1.000
    C13      C        0.30280    0.29990    0.87200    1.000
    H13      H        0.29140    0.33400    0.89260    1.000
    C14      C        0.34780    0.30040    0.82400    1.000
    H14      H        0.36670    0.33470    0.81210    1.000
    C15      C        0.49150    0.20220    0.67250    1.000
    H15      H        0.51420    0.16920    0.66360    1.000
    C16      C        0.44740    0.20090    0.72190    1.000
    H16      H        0.43990    0.16710    0.74520    1.000
    C17      C        0.38234    0.40340    0.32840    1.000
    C18      C        0.34840    0.45277    0.33450    1.000
    C19      C        0.30768    0.40263    0.25450    1.000
    C20      C        0.26664    0.38458    0.19940    1.000
    C21      C        0.35501    0.50285    0.37770    1.000
    C22      C        0.43847    0.38417    0.36430    1.000
    N1       N        0.35554    0.37182    0.27800    1.000
    H17      H        0.36720    0.33870    0.26420    1.000
    N2       N        0.30107    0.45099    0.28720    1.000
    N3       N        0.18802    0.35482    0.09353    1.000
    N4       N        0.36631    0.59877    0.45997    1.000
    N5       N        0.54761    0.35162    0.43147    1.000
    O1       O        0.20382    0.29756    0.96274    1.000
    O2       O        0.56859    0.20270    0.55845    1.000
    C23      C        0.48330    0.42330    0.38260    1.000
    H18      H        0.47770    0.46170    0.37240    1.000
    C24      C        0.53600    0.40620    0.41550    1.000
    H19      H        0.56510    0.43380    0.42750    1.000
    C25      C        0.50410    0.31210    0.41380    1.000
    H20      H        0.51060    0.27390    0.42460    1.000
    C26      C        0.45080    0.32750    0.38030    1.000
    H21      H        0.42230    0.29940    0.36810    1.000
    C27      C        0.34630    0.55750    0.35220    1.000
    H22      H        0.33650    0.56280    0.30710    1.000
    C28      C        0.35210    0.60260    0.39340    1.000
    H23      H        0.34600    0.63880    0.37540    1.000
    C29      C        0.37380    0.54730    0.48240    1.000
    H24      H        0.38320    0.54350    0.52780    1.000
    C30      C        0.36910    0.49580    0.44460    1.000
    H25      H        0.37510    0.46000    0.46380    1.000
    C31      C        0.24440    0.33560    0.09970    1.000
    H26      H        0.25930    0.31240    0.06530    1.000
    C32      C        0.28310    0.34620    0.15120    1.000
    H27      H        0.32110    0.32730    0.15390    1.000
    C33      C        0.16910    0.39100    0.14450    1.000
    H28      H        0.12840    0.40460    0.14340    1.000
    C34      C        0.20610    0.40800    0.19600    1.000
    H29      H        0.19220    0.43400    0.22800    1.000
    C35      C        0.28470    0.29730    0.85190    1.000
    H30      H        0.26070    0.32980    0.85890    1.000
    C36      C        0.32930    0.29800    0.80340    1.000
    H31      H        0.33540    0.33080    0.77760    1.000
    C37      C        0.47090    0.20130    0.65070    1.000
    H32      H        0.47960    0.16770    0.62760    1.000
    C38      C        0.42490    0.20120    0.69970    1.000
    H33      H        0.40170    0.16820    0.70730    1.000
    Ni2      Ni       0.37286    0.67626    0.51604    1.000
    C39      C        0.05100    0.60060    0.93180    1.000
    H34      H        0.07970    0.57780    0.95420    1.000
    C40      C        0.99950    0.61870    0.96450    1.000
    H35      H        0.99550    0.61120    0.01020    1.000
    C41      C        0.96390    0.66490    0.86910    1.000
    H36      H        0.93500    0.68800    0.84730    1.000
    C42      C        0.01730    0.64910    0.83490    1.000
    H37      H        0.02310    0.66150    0.79090    1.000
    C43      C        0.19880    0.47050    0.90810    1.000
    H38      H        0.23860    0.48530    0.90210    1.000
    C44      C        0.18850    0.42200    0.94660    1.000
    H39      H        0.22300    0.40310    0.96410    1.000
    C45      C        0.08560    0.42270    0.93220    1.000
    H40      H        0.04750    0.40480    0.93930    1.000
    C46      C        0.08660    0.47140    0.89210    1.000
    H41      H        0.04990    0.48670    0.87500    1.000
    C47      C        0.27090    0.68090    0.61660    1.000
    H42      H        0.26390    0.71520    0.59400    1.000
    C48      C        0.23650    0.66850    0.67610    1.000
    H43      H        0.21600    0.69780    0.69880    1.000
    C49      C        0.31170    0.59560    0.62010    1.000
    H44      H        0.34080    0.56930    0.60450    1.000
    C50      C        0.27200    0.57820    0.66960    1.000
    H45      H        0.27170    0.54010    0.68280    1.000
    C51      C        0.19720    0.70010    0.37200    1.000
    H46      H        0.20860    0.66600    0.39260    1.000
    C52      C        0.15220    0.69960    0.32400    1.000
    H47      H        0.13330    0.66530    0.31210    1.000
    C53      C        0.00850    0.79780    0.17250    1.000
    H48      H        0.98580    0.83080    0.16360    1.000
    C54      C        0.05260    0.79910    0.22190    1.000
    H49      H        0.06010    0.83290    0.24520    1.000
    C55      C        0.11766    0.59660    0.82840    1.000
    C56      C        0.15160    0.54723    0.83450    1.000
    C57      C        0.19232    0.59737    0.75450    1.000
    C58      C        0.23336    0.61542    0.69940    1.000
    C59      C        0.14499    0.49715    0.87770    1.000
    C60      C        0.06153    0.61583    0.86430    1.000
    N6       N        0.14446    0.62818    0.77800    1.000
    H50      H        0.13280    0.66130    0.76420    1.000
    N7       N        0.19893    0.54901    0.78720    1.000
    N8       N        0.31198    0.64518    0.59353    1.000
    N9       N        0.13369    0.40123    0.95997    1.000
    N10      N        0.95239    0.64838    0.93147    1.000
    O3       O        0.29618    0.70244    0.46274    1.000
    O4       O        0.93141    0.79730    0.05845    1.000
    C61      C        0.01670    0.57670    0.88260    1.000
    H51      H        0.02230    0.53830    0.87240    1.000
    C62      C        0.96400    0.59380    0.91550    1.000
    H52      H        0.93490    0.56620    0.92750    1.000
    C63      C        0.99590    0.68790    0.91380    1.000
    H53      H        0.98940    0.72610    0.92460    1.000
    C64      C        0.04920    0.67250    0.88030    1.000
    H54      H        0.07770    0.70060    0.86810    1.000
    C65      C        0.15370    0.44250    0.85220    1.000
    H55      H        0.16350    0.43720    0.80710    1.000
    C66      C        0.14790    0.39740    0.89340    1.000
    H56      H        0.15400    0.36120    0.87540    1.000
    C67      C        0.12620    0.45270    0.98240    1.000
    H57      H        0.11680    0.45650    0.02780    1.000
    C68      C        0.13090    0.50420    0.94460    1.000
    H58      H        0.12490    0.54000    0.96380    1.000
    C69      C        0.25560    0.66440    0.59970    1.000
    H59      H        0.24070    0.68760    0.56530    1.000
    C70      C        0.21690    0.65380    0.65120    1.000
    H60      H        0.17890    0.67270    0.65390    1.000
    C71      C        0.33090    0.60900    0.64450    1.000
    H61      H        0.37160    0.59540    0.64340    1.000
    C72      C        0.29390    0.59200    0.69600    1.000
    H62      H        0.30780    0.56600    0.72800    1.000
    C73      C        0.21530    0.70270    0.35190    1.000
    H63      H        0.23930    0.67020    0.35890    1.000
    C74      C        0.17070    0.70200    0.30340    1.000
    H64      H        0.16460    0.66920    0.27760    1.000
    C75      C        0.02910    0.79870    0.15070    1.000
    H65      H        0.02040    0.83230    0.12760    1.000
    C76      C        0.07510    0.79880    0.19970    1.000
    H66      H        0.09830    0.83180    0.20730    1.000
    Ni3      Ni       0.87286    0.82374    0.98396    1.000
    C77      C        0.55100    0.89940    0.56820    1.000
    H67      H        0.57970    0.92220    0.54580    1.000
    C78      C        0.49950    0.88130    0.53550    1.000
    H68      H        0.49550    0.88880    0.48980    1.000
    C79      C        0.46390    0.83510    0.63090    1.000
    H69      H        0.43500    0.81200    0.65270    1.000
    C80      C        0.51730    0.85090    0.66510    1.000
    H70      H        0.52310    0.83850    0.70910    1.000
    C81      C        0.69880    0.02950    0.59190    1.000
    H71      H        0.73860    0.01470    0.59790    1.000
    C82      C        0.68850    0.07800    0.55340    1.000
    H72      H        0.72300    0.09690    0.53590    1.000
    C83      C        0.58560    0.07730    0.56780    1.000
    H73      H        0.54750    0.09520    0.56070    1.000
    C84      C        0.58660    0.02860    0.60790    1.000
    H74      H        0.54990    0.01330    0.62500    1.000
    C85      C        0.77090    0.81910    0.88340    1.000
    H75      H        0.76390    0.78480    0.90600    1.000
    C86      C        0.73650    0.83150    0.82390    1.000
    H76      H        0.71600    0.80220    0.80120    1.000
    C87      C        0.81170    0.90440    0.87990    1.000
    H77      H        0.84080    0.93070    0.89550    1.000
    C88      C        0.77200    0.92180    0.83040    1.000
    H78      H        0.77170    0.95990    0.81720    1.000
    C89      C        0.69720    0.79990    0.12800    1.000
    H79      H        0.70860    0.83400    0.10740    1.000
    C90      C        0.65220    0.80040    0.17600    1.000
    H80      H        0.63330    0.83470    0.18790    1.000
    C91      C        0.50850    0.70220    0.32750    1.000
    H81      H        0.48580    0.66920    0.33640    1.000
    C92      C        0.55260    0.70090    0.27810    1.000
    H82      H        0.56010    0.66710    0.25480    1.000
    C93      C        0.61766    0.90340    0.67160    1.000
    C94      C        0.65160    0.95277    0.66550    1.000
    C95      C        0.69232    0.90263    0.74550    1.000
    C96      C        0.73336    0.88458    0.80060    1.000
    C97      C        0.64499    0.00285    0.62230    1.000
    C98      C        0.56153    0.88417    0.63570    1.000
    N11      N        0.64446    0.87182    0.72200    1.000
    H83      H        0.63280    0.83870    0.73580    1.000
    N12      N        0.69893    0.95099    0.71280    1.000
    N13      N        0.81198    0.85482    0.90647    1.000
    N14      N        0.63369    0.09877    0.54003    1.000
    N15      N        0.45239    0.85162    0.56853    1.000
    O5       O        0.79618    0.79756    0.03726    1.000
    O6       O        0.43141    0.70270    0.44155    1.000
    C99      C        0.51670    0.92330    0.61740    1.000
    H84      H        0.52230    0.96170    0.62760    1.000
    C100     C        0.46400    0.90620    0.58450    1.000
    H85      H        0.43490    0.93380    0.57250    1.000
    C101     C        0.49590    0.81210    0.58620    1.000
    H86      H        0.48940    0.77390    0.57540    1.000
    C102     C        0.54920    0.82750    0.61970    1.000
    H87      H        0.57770    0.79940    0.63190    1.000
    C103     C        0.65370    0.05750    0.64780    1.000
    H88      H        0.66350    0.06280    0.69290    1.000
    C104     C        0.64790    0.10260    0.60660    1.000
    H89      H        0.65400    0.13880    0.62460    1.000
    C105     C        0.62620    0.04730    0.51760    1.000
    H90      H        0.61680    0.04350    0.47220    1.000
    C106     C        0.63090    0.99580    0.55540    1.000
    H91      H        0.62490    0.96000    0.53620    1.000
    C107     C        0.75560    0.83560    0.90030    1.000
    H92      H        0.74070    0.81240    0.93470    1.000
    C108     C        0.71690    0.84620    0.84880    1.000
    H93      H        0.67890    0.82730    0.84610    1.000
    C109     C        0.83090    0.89100    0.85550    1.000
    H94      H        0.87160    0.90460    0.85660    1.000
    C110     C        0.79390    0.90800    0.80400    1.000
    H95      H        0.80780    0.93400    0.77200    1.000
    C111     C        0.71530    0.79730    0.14810    1.000
    H96      H        0.73930    0.82980    0.14110    1.000
    C112     C        0.67070    0.79800    0.19660    1.000
    H97      H        0.66460    0.83080    0.22240    1.000
    C113     C        0.52910    0.70130    0.34930    1.000
    H98      H        0.52040    0.66770    0.37240    1.000
    C114     C        0.57510    0.70120    0.30030    1.000
    H99      H        0.59830    0.66820    0.29270    1.000
    Ni4      Ni       0.62714    0.17626    0.48396    1.000
    C115     C        0.94900    0.10060    0.06820    1.000
    H100     H        0.92030    0.07780    0.04580    1.000
    C116     C        0.00050    0.11870    0.03550    1.000
    H101     H        0.00450    0.11120    0.98980    1.000
    C117     C        0.03610    0.16490    0.13090    1.000
    H102     H        0.06500    0.18800    0.15270    1.000
    C118     C        0.98270    0.14910    0.16510    1.000
    H103     H        0.97690    0.16150    0.20910    1.000
    C119     C        0.80120    0.97050    0.09190    1.000
    H104     H        0.76140    0.98530    0.09790    1.000
    C120     C        0.81150    0.92200    0.05340    1.000
    H105     H        0.77700    0.90310    0.03590    1.000
    C121     C        0.91440    0.92270    0.06780    1.000
    H106     H        0.95250    0.90480    0.06070    1.000
    C122     C        0.91340    0.97140    0.10790    1.000
    H107     H        0.95010    0.98670    0.12500    1.000
    C123     C        0.72910    0.18090    0.38340    1.000
    H108     H        0.73610    0.21520    0.40600    1.000
    C124     C        0.76350    0.16850    0.32390    1.000
    H109     H        0.78400    0.19780    0.30120    1.000
    C125     C        0.68830    0.09560    0.37990    1.000
    H110     H        0.65920    0.06930    0.39550    1.000
    C126     C        0.72800    0.07820    0.33040    1.000
    H111     H        0.72830    0.04010    0.31720    1.000
    C127     C        0.80280    0.20010    0.62800    1.000
    H112     H        0.79140    0.16600    0.60740    1.000
    C128     C        0.84780    0.19960    0.67600    1.000
    H113     H        0.86670    0.16530    0.68790    1.000
    C129     C        0.99150    0.29780    0.82750    1.000
    H114     H        0.01420    0.33080    0.83640    1.000
    C130     C        0.94740    0.29910    0.77810    1.000
    H115     H        0.93990    0.33290    0.75480    1.000
    C131     C        0.88234    0.09660    0.17160    1.000
    C132     C        0.84840    0.04723    0.16550    1.000
    C133     C        0.80768    0.09737    0.24550    1.000
    C134     C        0.76664    0.11542    0.30060    1.000
    C135     C        0.85501    0.99715    0.12230    1.000
    C136     C        0.93847    0.11583    0.13570    1.000
    N16      N        0.85554    0.12818    0.22200    1.000
    H116     H        0.86720    0.16130    0.23580    1.000
    N17      N        0.80107    0.04901    0.21280    1.000
    N18      N        0.68802    0.14518    0.40647    1.000
    N19      N        0.86631    0.90123    0.04003    1.000
    N20      N        0.04761    0.14838    0.06853    1.000
    O7       O        0.70382    0.20244    0.53726    1.000
    O8       O        0.06859    0.29730    0.94155    1.000
    C137     C        0.98330    0.07670    0.11740    1.000
    H117     H        0.97770    0.03830    0.12760    1.000
    C138     C        0.03600    0.09380    0.08450    1.000
    H118     H        0.06510    0.06620    0.07250    1.000
    C139     C        0.00410    0.18790    0.08620    1.000
    H119     H        0.01060    0.22610    0.07540    1.000
    C140     C        0.95080    0.17250    0.11970    1.000
    H120     H        0.92230    0.20060    0.13190    1.000
    C141     C        0.84630    0.94250    0.14780    1.000
    H121     H        0.83650    0.93720    0.19290    1.000
    C142     C        0.85210    0.89740    0.10660    1.000
    H122     H        0.84600    0.86120    0.12460    1.000
    C143     C        0.87380    0.95270    0.01760    1.000
    H123     H        0.88320    0.95650    0.97220    1.000
    C144     C        0.86910    0.00420    0.05540    1.000
    H124     H        0.87510    0.04000    0.03620    1.000
    C145     C        0.74440    0.16440    0.40030    1.000
    H125     H        0.75930    0.18760    0.43470    1.000
    C146     C        0.78310    0.15380    0.34880    1.000
    H126     H        0.82110    0.17270    0.34610    1.000
    C147     C        0.66910    0.10900    0.35550    1.000
    H127     H        0.62840    0.09540    0.35660    1.000
    C148     C        0.70610    0.09200    0.30400    1.000
    H128     H        0.69220    0.06600    0.27200    1.000
    C149     C        0.78470    0.20270    0.64810    1.000
    H129     H        0.76070    0.17020    0.64110    1.000
    C150     C        0.82930    0.20200    0.69660    1.000
    H130     H        0.83540    0.16920    0.72240    1.000
    C151     C        0.97090    0.29870    0.84930    1.000
    H131     H        0.97960    0.33230    0.87240    1.000
    C152     C        0.92490    0.29880    0.80030    1.000
    H132     H        0.90170    0.33180    0.79270    1.000
    Ni5      Ni       0.87286    0.67626    0.98396    1.000
    C153     C        0.55100    0.60060    0.56820    1.000
    H133     H        0.57970    0.57780    0.54580    1.000
    C154     C        0.49950    0.61870    0.53550    1.000
    H134     H        0.49550    0.61120    0.48980    1.000
    C155     C        0.46390    0.66490    0.63090    1.000
    H135     H        0.43500    0.68800    0.65270    1.000
    C156     C        0.51730    0.64910    0.66510    1.000
    H136     H        0.52310    0.66150    0.70910    1.000
    C157     C        0.69880    0.47050    0.59190    1.000
    H137     H        0.73860    0.48530    0.59790    1.000
    C158     C        0.68850    0.42200    0.55340    1.000
    H138     H        0.72300    0.40310    0.53590    1.000
    C159     C        0.58560    0.42270    0.56780    1.000
    H139     H        0.54750    0.40480    0.56070    1.000
    C160     C        0.58660    0.47140    0.60790    1.000
    H140     H        0.54990    0.48670    0.62500    1.000
    C161     C        0.77090    0.68090    0.88340    1.000
    H141     H        0.76390    0.71520    0.90600    1.000
    C162     C        0.73650    0.66850    0.82390    1.000
    H142     H        0.71600    0.69780    0.80120    1.000
    C163     C        0.81170    0.59560    0.87990    1.000
    H143     H        0.84080    0.56930    0.89550    1.000
    C164     C        0.77200    0.57820    0.83040    1.000
    H144     H        0.77170    0.54010    0.81720    1.000
    C165     C        0.69720    0.70010    0.12800    1.000
    H145     H        0.70860    0.66600    0.10740    1.000
    C166     C        0.65220    0.69960    0.17600    1.000
    H146     H        0.63330    0.66530    0.18790    1.000
    C167     C        0.50850    0.79780    0.32750    1.000
    H147     H        0.48580    0.83080    0.33640    1.000
    C168     C        0.55260    0.79910    0.27810    1.000
    H148     H        0.56010    0.83290    0.25480    1.000
    C169     C        0.61766    0.59660    0.67160    1.000
    C170     C        0.65160    0.54723    0.66550    1.000
    C171     C        0.69232    0.59737    0.74550    1.000
    C172     C        0.73336    0.61542    0.80060    1.000
    C173     C        0.64499    0.49715    0.62230    1.000
    C174     C        0.56153    0.61583    0.63570    1.000
    N21      N        0.64446    0.62818    0.72200    1.000
    H149     H        0.63280    0.66130    0.73580    1.000
    N22      N        0.69893    0.54901    0.71280    1.000
    N23      N        0.81198    0.64518    0.90647    1.000
    N24      N        0.63369    0.40123    0.54003    1.000
    N25      N        0.45239    0.64838    0.56853    1.000
    O9       O        0.79618    0.70244    0.03726    1.000
    O10      O        0.43141    0.79730    0.44155    1.000
    C175     C        0.51670    0.57670    0.61740    1.000
    H150     H        0.52230    0.53830    0.62760    1.000
    C176     C        0.46400    0.59380    0.58450    1.000
    H151     H        0.43490    0.56620    0.57250    1.000
    C177     C        0.49590    0.68790    0.58620    1.000
    H152     H        0.48940    0.72610    0.57540    1.000
    C178     C        0.54920    0.67250    0.61970    1.000
    H153     H        0.57770    0.70060    0.63190    1.000
    C179     C        0.65370    0.44250    0.64780    1.000
    H154     H        0.66350    0.43720    0.69290    1.000
    C180     C        0.64790    0.39740    0.60660    1.000
    H155     H        0.65400    0.36120    0.62460    1.000
    C181     C        0.62620    0.45270    0.51760    1.000
    H156     H        0.61680    0.45650    0.47220    1.000
    C182     C        0.63090    0.50420    0.55540    1.000
    H157     H        0.62490    0.54000    0.53620    1.000
    C183     C        0.75560    0.66440    0.90030    1.000
    H158     H        0.74070    0.68760    0.93470    1.000
    C184     C        0.71690    0.65380    0.84880    1.000
    H159     H        0.67890    0.67270    0.84610    1.000
    C185     C        0.83090    0.60900    0.85550    1.000
    H160     H        0.87160    0.59540    0.85660    1.000
    C186     C        0.79390    0.59200    0.80400    1.000
    H161     H        0.80780    0.56600    0.77200    1.000
    C187     C        0.71530    0.70270    0.14810    1.000
    H162     H        0.73930    0.67020    0.14110    1.000
    C188     C        0.67070    0.70200    0.19660    1.000
    H163     H        0.66460    0.66920    0.22240    1.000
    C189     C        0.52910    0.79870    0.34930    1.000
    H164     H        0.52040    0.83230    0.37240    1.000
    C190     C        0.57510    0.79880    0.30030    1.000
    H165     H        0.59830    0.83180    0.29270    1.000
    Ni6      Ni       0.62714    0.32374    0.48396    1.000
    C191     C        0.94900    0.39940    0.06820    1.000
    H166     H        0.92030    0.42220    0.04580    1.000
    C192     C        0.00050    0.38130    0.03550    1.000
    H167     H        0.00450    0.38880    0.98980    1.000
    C193     C        0.03610    0.33510    0.13090    1.000
    H168     H        0.06500    0.31200    0.15270    1.000
    C194     C        0.98270    0.35090    0.16510    1.000
    H169     H        0.97690    0.33850    0.20910    1.000
    C195     C        0.80120    0.52950    0.09190    1.000
    H170     H        0.76140    0.51470    0.09790    1.000
    C196     C        0.81150    0.57800    0.05340    1.000
    H171     H        0.77700    0.59690    0.03590    1.000
    C197     C        0.91440    0.57730    0.06780    1.000
    H172     H        0.95250    0.59520    0.06070    1.000
    C198     C        0.91340    0.52860    0.10790    1.000
    H173     H        0.95010    0.51330    0.12500    1.000
    C199     C        0.72910    0.31910    0.38340    1.000
    H174     H        0.73610    0.28480    0.40600    1.000
    C200     C        0.76350    0.33150    0.32390    1.000
    H175     H        0.78400    0.30220    0.30120    1.000
    C201     C        0.68830    0.40440    0.37990    1.000
    H176     H        0.65920    0.43070    0.39550    1.000
    C202     C        0.72800    0.42180    0.33040    1.000
    H177     H        0.72830    0.45990    0.31720    1.000
    C203     C        0.80280    0.29990    0.62800    1.000
    H178     H        0.79140    0.33400    0.60740    1.000
    C204     C        0.84780    0.30040    0.67600    1.000
    H179     H        0.86670    0.33470    0.68790    1.000
    C205     C        0.99150    0.20220    0.82750    1.000
    H180     H        0.01420    0.16920    0.83640    1.000
    C206     C        0.94740    0.20090    0.77810    1.000
    H181     H        0.93990    0.16710    0.75480    1.000
    C207     C        0.88234    0.40340    0.17160    1.000
    C208     C        0.84840    0.45277    0.16550    1.000
    C209     C        0.80768    0.40263    0.24550    1.000
    C210     C        0.76664    0.38458    0.30060    1.000
    C211     C        0.85501    0.50285    0.12230    1.000
    C212     C        0.93847    0.38417    0.13570    1.000
    N26      N        0.85554    0.37182    0.22200    1.000
    H182     H        0.86720    0.33870    0.23580    1.000
    N27      N        0.80107    0.45099    0.21280    1.000
    N28      N        0.68802    0.35482    0.40647    1.000
    N29      N        0.86631    0.59877    0.04003    1.000
    N30      N        0.04761    0.35162    0.06853    1.000
    O11      O        0.70382    0.29756    0.53726    1.000
    O12      O        0.06859    0.20270    0.94155    1.000
    C213     C        0.98330    0.42330    0.11740    1.000
    H183     H        0.97770    0.46170    0.12760    1.000
    C214     C        0.03600    0.40620    0.08450    1.000
    H184     H        0.06510    0.43380    0.07250    1.000
    C215     C        0.00410    0.31210    0.08620    1.000
    H185     H        0.01060    0.27390    0.07540    1.000
    C216     C        0.95080    0.32750    0.11970    1.000
    H186     H        0.92230    0.29940    0.13190    1.000
    C217     C        0.84630    0.55750    0.14780    1.000
    H187     H        0.83650    0.56280    0.19290    1.000
    C218     C        0.85210    0.60260    0.10660    1.000
    H188     H        0.84600    0.63880    0.12460    1.000
    C219     C        0.87380    0.54730    0.01760    1.000
    H189     H        0.88320    0.54350    0.97220    1.000
    C220     C        0.86910    0.49580    0.05540    1.000
    H190     H        0.87510    0.46000    0.03620    1.000
    C221     C        0.74440    0.33560    0.40030    1.000
    H191     H        0.75930    0.31240    0.43470    1.000
    C222     C        0.78310    0.34620    0.34880    1.000
    H192     H        0.82110    0.32730    0.34610    1.000
    C223     C        0.66910    0.39100    0.35550    1.000
    H193     H        0.62840    0.40460    0.35660    1.000
    C224     C        0.70610    0.40800    0.30400    1.000
    H194     H        0.69220    0.43400    0.27200    1.000
    C225     C        0.78470    0.29730    0.64810    1.000
    H195     H        0.76070    0.32980    0.64110    1.000
    C226     C        0.82930    0.29800    0.69660    1.000
    H196     H        0.83540    0.33080    0.72240    1.000
    C227     C        0.97090    0.20130    0.84930    1.000
    H197     H        0.97960    0.16770    0.87240    1.000
    C228     C        0.92490    0.20120    0.80030    1.000
    H198     H        0.90170    0.16820    0.79270    1.000
    Ni7      Ni       0.12714    0.17626    0.01604    1.000
    C229     C        0.44900    0.10060    0.43180    1.000
    H199     H        0.42030    0.07780    0.45420    1.000
    C230     C        0.50050    0.11870    0.46450    1.000
    H200     H        0.50450    0.11120    0.51020    1.000
    C231     C        0.53610    0.16490    0.36910    1.000
    H201     H        0.56500    0.18800    0.34730    1.000
    C232     C        0.48270    0.14910    0.33490    1.000
    H202     H        0.47690    0.16150    0.29090    1.000
    C233     C        0.30120    0.97050    0.40810    1.000
    H203     H        0.26140    0.98530    0.40210    1.000
    C234     C        0.31150    0.92200    0.44660    1.000
    H204     H        0.27700    0.90310    0.46410    1.000
    C235     C        0.41440    0.92270    0.43220    1.000
    H205     H        0.45250    0.90480    0.43930    1.000
    C236     C        0.41340    0.97140    0.39210    1.000
    H206     H        0.45010    0.98670    0.37500    1.000
    C237     C        0.22910    0.18090    0.11660    1.000
    H207     H        0.23610    0.21520    0.09400    1.000
    C238     C        0.26350    0.16850    0.17610    1.000
    H208     H        0.28400    0.19780    0.19880    1.000
    C239     C        0.18830    0.09560    0.12010    1.000
    H209     H        0.15920    0.06930    0.10450    1.000
    C240     C        0.22800    0.07820    0.16960    1.000
    H210     H        0.22830    0.04010    0.18280    1.000
    C241     C        0.30280    0.20010    0.87200    1.000
    H211     H        0.29140    0.16600    0.89260    1.000
    C242     C        0.34780    0.19960    0.82400    1.000
    H212     H        0.36670    0.16530    0.81210    1.000
    C243     C        0.49150    0.29780    0.67250    1.000
    H213     H        0.51420    0.33080    0.66360    1.000
    C244     C        0.44740    0.29910    0.72190    1.000
    H214     H        0.43990    0.33290    0.74520    1.000
    C245     C        0.38234    0.09660    0.32840    1.000
    C246     C        0.34840    0.04723    0.33450    1.000
    C247     C        0.30768    0.09737    0.25450    1.000
    C248     C        0.26664    0.11542    0.19940    1.000
    C249     C        0.35501    0.99715    0.37770    1.000
    C250     C        0.43847    0.11583    0.36430    1.000
    N31      N        0.35554    0.12818    0.27800    1.000
    H215     H        0.36720    0.16130    0.26420    1.000
    N32      N        0.30107    0.04901    0.28720    1.000
    N33      N        0.18802    0.14518    0.09353    1.000
    N34      N        0.36631    0.90123    0.45997    1.000
    N35      N        0.54761    0.14838    0.43147    1.000
    O13      O        0.20382    0.20244    0.96274    1.000
    O14      O        0.56859    0.29730    0.55845    1.000
    C251     C        0.48330    0.07670    0.38260    1.000
    H216     H        0.47770    0.03830    0.37240    1.000
    C252     C        0.53600    0.09380    0.41550    1.000
    H217     H        0.56510    0.06620    0.42750    1.000
    C253     C        0.50410    0.18790    0.41380    1.000
    H218     H        0.51060    0.22610    0.42460    1.000
    C254     C        0.45080    0.17250    0.38030    1.000
    H219     H        0.42230    0.20060    0.36810    1.000
    C255     C        0.34630    0.94250    0.35220    1.000
    H220     H        0.33650    0.93720    0.30710    1.000
    C256     C        0.35210    0.89740    0.39340    1.000
    H221     H        0.34600    0.86120    0.37540    1.000
    C257     C        0.37380    0.95270    0.48240    1.000
    H222     H        0.38320    0.95650    0.52780    1.000
    C258     C        0.36910    0.00420    0.44460    1.000
    H223     H        0.37510    0.04000    0.46380    1.000
    C259     C        0.24440    0.16440    0.09970    1.000
    H224     H        0.25930    0.18760    0.06530    1.000
    C260     C        0.28310    0.15380    0.15120    1.000
    H225     H        0.32110    0.17270    0.15390    1.000
    C261     C        0.16910    0.10900    0.14450    1.000
    H226     H        0.12840    0.09540    0.14340    1.000
    C262     C        0.20610    0.09200    0.19600    1.000
    H227     H        0.19220    0.06600    0.22800    1.000
    C263     C        0.28470    0.20270    0.85190    1.000
    H228     H        0.26070    0.17020    0.85890    1.000
    C264     C        0.32930    0.20200    0.80340    1.000
    H229     H        0.33540    0.16920    0.77760    1.000
    C265     C        0.47090    0.29870    0.65070    1.000
    H230     H        0.47960    0.33230    0.62760    1.000
    C266     C        0.42490    0.29880    0.69970    1.000
    H231     H        0.40170    0.33180    0.70730    1.000
    Ni8      Ni       0.37286    0.82374    0.51604    1.000
    C267     C        0.05100    0.89940    0.93180    1.000
    H232     H        0.07970    0.92220    0.95420    1.000
    C268     C        0.99950    0.88130    0.96450    1.000
    H233     H        0.99550    0.88880    0.01020    1.000
    C269     C        0.96390    0.83510    0.86910    1.000
    H234     H        0.93500    0.81200    0.84730    1.000
    C270     C        0.01730    0.85090    0.83490    1.000
    H235     H        0.02310    0.83850    0.79090    1.000
    C271     C        0.19880    0.02950    0.90810    1.000
    H236     H        0.23860    0.01470    0.90210    1.000
    C272     C        0.18850    0.07800    0.94660    1.000
    H237     H        0.22300    0.09690    0.96410    1.000
    C273     C        0.08560    0.07730    0.93220    1.000
    H238     H        0.04750    0.09520    0.93930    1.000
    C274     C        0.08660    0.02860    0.89210    1.000
    H239     H        0.04990    0.01330    0.87500    1.000
    C275     C        0.27090    0.81910    0.61660    1.000
    H240     H        0.26390    0.78480    0.59400    1.000
    C276     C        0.23650    0.83150    0.67610    1.000
    H241     H        0.21600    0.80220    0.69880    1.000
    C277     C        0.31170    0.90440    0.62010    1.000
    H242     H        0.34080    0.93070    0.60450    1.000
    C278     C        0.27200    0.92180    0.66960    1.000
    H243     H        0.27170    0.95990    0.68280    1.000
    C279     C        0.19720    0.79990    0.37200    1.000
    H244     H        0.20860    0.83400    0.39260    1.000
    C280     C        0.15220    0.80040    0.32400    1.000
    H245     H        0.13330    0.83470    0.31210    1.000
    C281     C        0.00850    0.70220    0.17250    1.000
    H246     H        0.98580    0.66920    0.16360    1.000
    C282     C        0.05260    0.70090    0.22190    1.000
    H247     H        0.06010    0.66710    0.24520    1.000
    C283     C        0.11766    0.90340    0.82840    1.000
    C284     C        0.15160    0.95277    0.83450    1.000
    C285     C        0.19232    0.90263    0.75450    1.000
    C286     C        0.23336    0.88458    0.69940    1.000
    C287     C        0.14499    0.00285    0.87770    1.000
    C288     C        0.06153    0.88417    0.86430    1.000
    N36      N        0.14446    0.87182    0.77800    1.000
    H248     H        0.13280    0.83870    0.76420    1.000
    N37      N        0.19893    0.95099    0.78720    1.000
    N38      N        0.31198    0.85482    0.59353    1.000
    N39      N        0.13369    0.09877    0.95997    1.000
    N40      N        0.95239    0.85162    0.93147    1.000
    O15      O        0.29618    0.79756    0.46274    1.000
    O16      O        0.93141    0.70270    0.05845    1.000
    C289     C        0.01670    0.92330    0.88260    1.000
    H249     H        0.02230    0.96170    0.87240    1.000
    C290     C        0.96400    0.90620    0.91550    1.000
    H250     H        0.93490    0.93380    0.92750    1.000
    C291     C        0.99590    0.81210    0.91380    1.000
    H251     H        0.98940    0.77390    0.92460    1.000
    C292     C        0.04920    0.82750    0.88030    1.000
    H252     H        0.07770    0.79940    0.86810    1.000
    C293     C        0.15370    0.05750    0.85220    1.000
    H253     H        0.16350    0.06280    0.80710    1.000
    C294     C        0.14790    0.10260    0.89340    1.000
    H254     H        0.15400    0.13880    0.87540    1.000
    C295     C        0.12620    0.04730    0.98240    1.000
    H255     H        0.11680    0.04350    0.02780    1.000
    C296     C        0.13090    0.99580    0.94460    1.000
    H256     H        0.12490    0.96000    0.96380    1.000
    C297     C        0.25560    0.83560    0.59970    1.000
    H257     H        0.24070    0.81240    0.56530    1.000
    C298     C        0.21690    0.84620    0.65120    1.000
    H258     H        0.17890    0.82730    0.65390    1.000
    C299     C        0.33090    0.89100    0.64450    1.000
    H259     H        0.37160    0.90460    0.64340    1.000
    C300     C        0.29390    0.90800    0.69600    1.000
    H260     H        0.30780    0.93400    0.72800    1.000
    C301     C        0.21530    0.79730    0.35190    1.000
    H261     H        0.23930    0.82980    0.35890    1.000
    C302     C        0.17070    0.79800    0.30340    1.000
    H262     H        0.16460    0.83080    0.27760    1.000
    C303     C        0.02910    0.70130    0.15070    1.000
    H263     H        0.02040    0.66770    0.12760    1.000
    C304     C        0.07510    0.70120    0.19970    1.000
    H264     H        0.09830    0.66820    0.20730    1.000
    C305     C        0.22280    0.25000    0.94370    1.000
    C306     C        0.55070    0.25000    0.57960    1.000
    C307     C        0.27400    0.25000    0.89070    1.000
    C308     C        0.50370    0.25000    0.63560    1.000
    C309     C        0.36580    0.25000    0.79220    1.000
    C310     C        0.41350    0.25000    0.73730    1.000
    O17      O        0.12202    0.25000    0.06613    1.000
    C311     C        0.27720    0.75000    0.44370    1.000
    C312     C        0.94930    0.75000    0.07960    1.000
    C313     C        0.22600    0.75000    0.39070    1.000
    C314     C        0.99630    0.75000    0.13560    1.000
    C315     C        0.13420    0.75000    0.29220    1.000
    C316     C        0.08650    0.75000    0.23730    1.000
    O18      O        0.37798    0.75000    0.56613    1.000
    C317     C        0.77720    0.75000    0.05630    1.000
    C318     C        0.44930    0.75000    0.42040    1.000
    C319     C        0.72600    0.75000    0.10930    1.000
    C320     C        0.49630    0.75000    0.36440    1.000
    C321     C        0.63420    0.75000    0.20780    1.000
    C322     C        0.58650    0.75000    0.26270    1.000
    O19      O        0.87798    0.75000    0.93387    1.000
    C323     C        0.72280    0.25000    0.55630    1.000
    C324     C        0.05070    0.25000    0.92040    1.000
    C325     C        0.77400    0.25000    0.60930    1.000
    C326     C        0.00370    0.25000    0.86440    1.000
    C327     C        0.86580    0.25000    0.70780    1.000
    C328     C        0.91350    0.25000    0.76270    1.000
    O20      O        0.62202    0.25000    0.43387    1.000
