# CIF file generated by openbabel 3.1.0, see https://openbabel.org
data_I
_chemical_name_common 'image0'
_cell_length_a 12.1491
_cell_length_b 12.284
_cell_length_c 12.216
_cell_angle_alpha 90
_cell_angle_beta 90
_cell_angle_gamma 90
_space_group_name_H-M_alt 'P 1'
_space_group_name_Hall 'P 1'
loop_
    _symmetry_equiv_pos_as_xyz
    x,y,z
loop_
    _atom_site_label
    _atom_site_type_symbol
    _atom_site_fract_x
    _atom_site_fract_y
    _atom_site_fract_z
    _atom_site_occupancy
    N1       N        0.31850    0.31750    0.18600    1.000
    N2       N        0.81850    0.81750    0.18600    1.000
    N3       N        0.68150    0.18250    0.68600    1.000
    N4       N        0.18150    0.68250    0.68600    1.000
    N5       N        0.68150    0.81750    0.31400    1.000
    N6       N        0.18150    0.31750    0.31400    1.000
    N7       N        0.31850    0.68250    0.81400    1.000
    N8       N        0.81850    0.18250    0.81400    1.000
    N9       N        0.68150    0.68250    0.81400    1.000
    N10      N        0.18150    0.18250    0.81400    1.000
    N11      N        0.31850    0.81750    0.31400    1.000
    N12      N        0.81850    0.31750    0.31400    1.000
    N13      N        0.31850    0.18250    0.68600    1.000
    N14      N        0.81850    0.68250    0.68600    1.000
    N15      N        0.68150    0.31750    0.18600    1.000
    N16      N        0.18150    0.81750    0.18600    1.000
    Mn1      Mn       0.50000    0.30794    0.19456    1.000
    N17      N        0.50000    0.32910    0.37520    1.000
    N18      N        0.50000    0.26540    0.44550    1.000
    N19      N        0.50000    0.20100    0.51470    1.000
    N20      N        0.50000    0.48670    0.17010    1.000
    N21      N        0.50000    0.55930    0.23020    1.000
    N22      N        0.50000    0.63090    0.28950    1.000
    Mn2      Mn       0.00000    0.80794    0.19456    1.000
    N23      N        0.00000    0.82910    0.37520    1.000
    N24      N        0.00000    0.76540    0.44550    1.000
    N25      N        0.00000    0.70100    0.51470    1.000
    N26      N        0.00000    0.98670    0.17010    1.000
    N27      N        0.00000    0.05930    0.23020    1.000
    N28      N        0.00000    0.13090    0.28950    1.000
    Mn3      Mn       0.50000    0.19206    0.69456    1.000
    N29      N        0.50000    0.17090    0.87520    1.000
    N30      N        0.50000    0.23460    0.94550    1.000
    N31      N        0.50000    0.29900    0.01470    1.000
    N32      N        0.50000    0.01330    0.67010    1.000
    N33      N        0.50000    0.94070    0.73020    1.000
    N34      N        0.50000    0.86910    0.78950    1.000
    Mn4      Mn       0.00000    0.69206    0.69456    1.000
    N35      N        0.00000    0.67090    0.87520    1.000
    N36      N        0.00000    0.73460    0.94550    1.000
    N37      N        0.00000    0.79900    0.01470    1.000
    N38      N        0.00000    0.51330    0.67010    1.000
    N39      N        0.00000    0.44070    0.73020    1.000
    N40      N        0.00000    0.36910    0.78950    1.000
    Mn5      Mn       0.50000    0.80794    0.30544    1.000
    N41      N        0.50000    0.82910    0.12480    1.000
    N42      N        0.50000    0.76540    0.05450    1.000
    N43      N        0.50000    0.70100    0.98530    1.000
    N44      N        0.50000    0.98670    0.32990    1.000
    N45      N        0.50000    0.05930    0.26980    1.000
    N46      N        0.50000    0.13090    0.21050    1.000
    Mn6      Mn       0.00000    0.30794    0.30544    1.000
    N47      N        0.00000    0.32910    0.12480    1.000
    N48      N        0.00000    0.26540    0.05450    1.000
    N49      N        0.00000    0.20100    0.98530    1.000
    N50      N        0.00000    0.48670    0.32990    1.000
    N51      N        0.00000    0.55930    0.26980    1.000
    N52      N        0.00000    0.63090    0.21050    1.000
    Mn7      Mn       0.50000    0.69206    0.80544    1.000
    N53      N        0.50000    0.67090    0.62480    1.000
    N54      N        0.50000    0.73460    0.55450    1.000
    N55      N        0.50000    0.79900    0.48530    1.000
    N56      N        0.50000    0.51330    0.82990    1.000
    N57      N        0.50000    0.44070    0.76980    1.000
    N58      N        0.50000    0.36910    0.71050    1.000
    Mn8      Mn       0.00000    0.19206    0.80544    1.000
    N59      N        0.00000    0.17090    0.62480    1.000
    N60      N        0.00000    0.23460    0.55450    1.000
    N61      N        0.00000    0.29900    0.48530    1.000
    N62      N        0.00000    0.01330    0.82990    1.000
    N63      N        0.00000    0.94070    0.76980    1.000
    N64      N        0.00000    0.86910    0.71050    1.000
    N65      N        0.25000    0.31650    0.25000    1.000
    N66      N        0.75000    0.18350    0.75000    1.000
    N67      N        0.75000    0.81650    0.25000    1.000
    N68      N        0.25000    0.68350    0.75000    1.000
    N69      N        0.75000    0.68350    0.75000    1.000
    N70      N        0.25000    0.81650    0.25000    1.000
    N71      N        0.25000    0.18350    0.75000    1.000
    N72      N        0.75000    0.31650    0.25000    1.000
