# CIF file generated by openbabel 3.1.0, see https://openbabel.org
data_I
_chemical_name_common 'image0'
_cell_length_a 13.8848
_cell_length_b 7.9026
_cell_length_c 13.8314
_cell_angle_alpha 90
_cell_angle_beta 108.21
_cell_angle_gamma 90
_space_group_name_H-M_alt 'P 1'
_space_group_name_Hall 'P 1'
loop_
    _symmetry_equiv_pos_as_xyz
    x,y,z
loop_
    _atom_site_label
    _atom_site_type_symbol
    _atom_site_fract_x
    _atom_site_fract_y
    _atom_site_fract_z
    _atom_site_occupancy
    N1       N        0.43660    0.17700    0.43630    1.000
    N2       N        0.65600    0.94060    0.30180    1.000
    N3       N        0.66100    0.41490    0.40300    1.000
    C1       C        0.63340    0.20580    0.04010    1.000
    C2       C        0.80750    0.04190    0.06140    1.000
    C3       C        0.69000    0.13160    0.87610    1.000
    N4       N        0.93660    0.67700    0.43630    1.000
    N5       N        0.15600    0.44060    0.30180    1.000
    N6       N        0.16100    0.91490    0.40300    1.000
    C4       C        0.13340    0.70580    0.04010    1.000
    C5       C        0.30750    0.54190    0.06140    1.000
    C6       C        0.19000    0.63160    0.87610    1.000
    N7       N        0.56340    0.17700    0.06370    1.000
    N8       N        0.34400    0.94060    0.19820    1.000
    N9       N        0.33900    0.41490    0.09700    1.000
    C7       C        0.36660    0.20580    0.45990    1.000
    C8       C        0.19250    0.04190    0.43860    1.000
    C9       C        0.31000    0.13160    0.62390    1.000
    N10      N        0.06340    0.67700    0.06370    1.000
    N11      N        0.84400    0.44060    0.19820    1.000
    N12      N        0.83900    0.91490    0.09700    1.000
    C10      C        0.86660    0.70580    0.45990    1.000
    C11      C        0.69250    0.54190    0.43860    1.000
    C12      C        0.81000    0.63160    0.62390    1.000
    N13      N        0.56340    0.82300    0.56370    1.000
    N14      N        0.34400    0.05940    0.69820    1.000
    N15      N        0.33900    0.58510    0.59700    1.000
    C13      C        0.36660    0.79420    0.95990    1.000
    C14      C        0.19250    0.95810    0.93860    1.000
    C15      C        0.31000    0.86840    0.12390    1.000
    N16      N        0.06340    0.32300    0.56370    1.000
    N17      N        0.84400    0.55940    0.69820    1.000
    N18      N        0.83900    0.08510    0.59700    1.000
    C16      C        0.86660    0.29420    0.95990    1.000
    C17      C        0.69250    0.45810    0.93860    1.000
    C18      C        0.81000    0.36840    0.12390    1.000
    N19      N        0.43660    0.82300    0.93630    1.000
    N20      N        0.65600    0.05940    0.80180    1.000
    N21      N        0.66100    0.58510    0.90300    1.000
    C19      C        0.63340    0.79420    0.54010    1.000
    C20      C        0.80750    0.95810    0.56140    1.000
    C21      C        0.69000    0.86840    0.37610    1.000
    N22      N        0.93660    0.32300    0.93630    1.000
    N23      N        0.15600    0.55940    0.80180    1.000
    N24      N        0.16100    0.08510    0.90300    1.000
    C22      C        0.13340    0.29420    0.54010    1.000
    C23      C        0.30750    0.45810    0.56140    1.000
    C24      C        0.19000    0.36840    0.37610    1.000
    Rb1      Rb       0.50000    0.21132    0.25000    1.000
    Rb2      Rb       0.00000    0.71132    0.25000    1.000
    Rb3      Rb       0.50000    0.78868    0.75000    1.000
    Rb4      Rb       0.00000    0.28868    0.75000    1.000
    Co1      Co       0.75000    0.25000    0.00000    1.000
    Co2      Co       0.25000    0.25000    0.50000    1.000
    Co3      Co       0.25000    0.75000    0.00000    1.000
    Co4      Co       0.75000    0.75000    0.50000    1.000
