# CIF file generated by openbabel 3.1.0, see https://openbabel.org
data_I
_chemical_name_common 'ECAHAT_clean'
_cell_length_a 7.7165
_cell_length_b 21.746
_cell_length_c 21.746
_cell_angle_alpha 120
_cell_angle_beta 90
_cell_angle_gamma 90
_space_group_name_H-M_alt 'P 1'
_space_group_name_Hall 'P 1'
loop_
    _symmetry_equiv_pos_as_xyz
    x,y,z
loop_
    _atom_site_label
    _atom_site_type_symbol
    _atom_site_fract_x
    _atom_site_fract_y
    _atom_site_fract_z
    _atom_site_occupancy
    Zn1      Zn       0.00000    0.50000    0.50000    1.000
    Zn2      Zn       0.00000    0.00000    0.50000    1.000
    Zn3      Zn       0.00000    0.50000    0.00000    1.000
    H1       H        0.43770    0.34520    0.38210    1.000
    H2       H        0.32050    0.31980    0.31280    1.000
    H3       H        0.32690    0.27360    0.35140    1.000
    H4       H        0.08580    0.27750    0.40670    1.000
    H5       H        0.91990    0.21130    0.41560    1.000
    H6       H        0.71590    0.13970    0.42570    1.000
    H7       H        0.42090    0.30870    0.54610    1.000
    H8       H        0.61860    0.38000    0.53040    1.000
    H9       H        0.58350    0.09180    0.48080    1.000
    H10      H        0.37890    0.01770    0.48340    1.000
    H11      H        0.00950    0.15230    0.51580    1.000
    H12      H        0.20410    0.23190    0.51590    1.000
    H13      H        0.43770    0.03690    0.65480    1.000
    H14      H        0.32050    0.99300    0.68020    1.000
    H15      H        0.32690    0.07780    0.72640    1.000
    H16      H        0.08580    0.12920    0.72250    1.000
    H17      H        0.91990    0.20430    0.78870    1.000
    H18      H        0.71590    0.28600    0.86030    1.000
    H19      H        0.42090    0.23740    0.69130    1.000
    H20      H        0.61860    0.15040    0.62000    1.000
    H21      H        0.58350    0.38900    0.90820    1.000
    H22      H        0.37890    0.46570    0.98230    1.000
    H23      H        0.00950    0.36350    0.84770    1.000
    H24      H        0.20410    0.28400    0.76810    1.000
    H25      H        0.43770    0.61790    0.96310    1.000
    H26      H        0.32050    0.68720    0.00700    1.000
    H27      H        0.32690    0.64860    0.92220    1.000
    H28      H        0.08580    0.59330    0.87080    1.000
    H29      H        0.91990    0.58440    0.79570    1.000
    H30      H        0.71590    0.57430    0.71400    1.000
    H31      H        0.42090    0.45390    0.76260    1.000
    H32      H        0.61860    0.46960    0.84960    1.000
    H33      H        0.58350    0.51920    0.61100    1.000
    H34      H        0.37890    0.51660    0.53430    1.000
    H35      H        0.00950    0.48420    0.63650    1.000
    H36      H        0.20410    0.48410    0.71600    1.000
    H37      H        0.56230    0.65480    0.61790    1.000
    H38      H        0.67950    0.68020    0.68720    1.000
    H39      H        0.67310    0.72640    0.64860    1.000
    H40      H        0.91420    0.72250    0.59330    1.000
    H41      H        0.08010    0.78870    0.58440    1.000
    H42      H        0.28410    0.86030    0.57430    1.000
    H43      H        0.57910    0.69130    0.45390    1.000
    H44      H        0.38140    0.62000    0.46960    1.000
    H45      H        0.41650    0.90820    0.51920    1.000
    H46      H        0.62110    0.98230    0.51660    1.000
    H47      H        0.99050    0.84770    0.48420    1.000
    H48      H        0.79590    0.76810    0.48410    1.000
    H49      H        0.56230    0.96310    0.34520    1.000
    H50      H        0.67950    0.00700    0.31980    1.000
    H51      H        0.67310    0.92220    0.27360    1.000
    H52      H        0.91420    0.87080    0.27750    1.000
    H53      H        0.08010    0.79570    0.21130    1.000
    H54      H        0.28410    0.71400    0.13970    1.000
    H55      H        0.57910    0.76260    0.30870    1.000
    H56      H        0.38140    0.84960    0.38000    1.000
    H57      H        0.41650    0.61100    0.09180    1.000
    H58      H        0.62110    0.53430    0.01770    1.000
    H59      H        0.99050    0.63650    0.15230    1.000
    H60      H        0.79590    0.71600    0.23190    1.000
    H61      H        0.56230    0.38210    0.03690    1.000
    H62      H        0.67950    0.31280    0.99300    1.000
    H63      H        0.67310    0.35140    0.07780    1.000
    H64      H        0.91420    0.40670    0.12920    1.000
    H65      H        0.08010    0.41560    0.20430    1.000
    H66      H        0.28410    0.42570    0.28600    1.000
    H67      H        0.57910    0.54610    0.23740    1.000
    H68      H        0.38140    0.53040    0.15040    1.000
    H69      H        0.41650    0.48080    0.38900    1.000
    H70      H        0.62110    0.48340    0.46570    1.000
    H71      H        0.99050    0.51580    0.36350    1.000
    H72      H        0.79590    0.51590    0.28400    1.000
    C1       C        0.32900    0.32188    0.35877    1.000
    C2       C        0.17764    0.36364    0.40504    1.000
    C3       C        0.06061    0.32617    0.42360    1.000
    C4       C        0.91076    0.35338    0.46445    1.000
    C5       C        0.78746    0.30382    0.47091    1.000
    C6       C        0.81579    0.23171    0.44113    1.000
    C7       C        0.69512    0.18938    0.44798    1.000
    C8       C        0.54643    0.21604    0.48566    1.000
    C9       C        0.52100    0.28798    0.51776    1.000
    C10      C        0.64050    0.33049    0.50898    1.000
    C11      C        0.41842    0.16820    0.49173    1.000
    C12      C        0.46498    0.10535    0.48633    1.000
    C13      C        0.34189    0.06181    0.48889    1.000
    C14      C        0.12845    0.13951    0.50786    1.000
    C15      C        0.24300    0.18665    0.50667    1.000
    C16      C        0.32900    0.03689    0.67812    1.000
    C17      C        0.17764    0.04140    0.63636    1.000
    C18      C        0.06061    0.09743    0.67383    1.000
    C19      C        0.91076    0.11107    0.64662    1.000
    C20      C        0.78746    0.16709    0.69618    1.000
    C21      C        0.81579    0.20942    0.76829    1.000
    C22      C        0.69512    0.25860    0.81062    1.000
    C23      C        0.54643    0.26962    0.78396    1.000
    C24      C        0.52100    0.22978    0.71202    1.000
    C25      C        0.64050    0.17849    0.66951    1.000
    C26      C        0.41842    0.32353    0.83180    1.000
    C27      C        0.46498    0.38098    0.89465    1.000
    C28      C        0.34189    0.42708    0.93819    1.000
    C29      C        0.12845    0.36835    0.86049    1.000
    C30      C        0.24300    0.32002    0.81335    1.000
    C31      C        0.32900    0.64123    0.96311    1.000
    C32      C        0.17764    0.59496    0.95860    1.000
    C33      C        0.06061    0.57640    0.90257    1.000
    C34      C        0.91076    0.53555    0.88893    1.000
    C35      C        0.78746    0.52909    0.83291    1.000
    C36      C        0.81579    0.55887    0.79058    1.000
    C37      C        0.69512    0.55202    0.74140    1.000
    C38      C        0.54643    0.51434    0.73038    1.000
    C39      C        0.52100    0.48224    0.77022    1.000
    C40      C        0.64050    0.49102    0.82151    1.000
    C41      C        0.41842    0.50827    0.67647    1.000
    C42      C        0.46498    0.51367    0.61902    1.000
    C43      C        0.34189    0.51111    0.57292    1.000
    C44      C        0.12845    0.49214    0.63165    1.000
    C45      C        0.24300    0.49333    0.67998    1.000
    C46      C        0.67100    0.67812    0.64123    1.000
    C47      C        0.82236    0.63636    0.59496    1.000
    C48      C        0.93939    0.67383    0.57640    1.000
    C49      C        0.08924    0.64662    0.53555    1.000
    C50      C        0.21254    0.69618    0.52909    1.000
    C51      C        0.18421    0.76829    0.55887    1.000
    C52      C        0.30488    0.81062    0.55202    1.000
    C53      C        0.45357    0.78396    0.51434    1.000
    C54      C        0.47900    0.71202    0.48224    1.000
    C55      C        0.35950    0.66951    0.49102    1.000
    C56      C        0.58158    0.83180    0.50827    1.000
    C57      C        0.53502    0.89465    0.51367    1.000
    C58      C        0.65811    0.93819    0.51111    1.000
    C59      C        0.87155    0.86049    0.49214    1.000
    C60      C        0.75700    0.81335    0.49333    1.000
    C61      C        0.67100    0.96311    0.32188    1.000
    C62      C        0.82236    0.95860    0.36364    1.000
    C63      C        0.93939    0.90257    0.32617    1.000
    C64      C        0.08924    0.88893    0.35338    1.000
    C65      C        0.21254    0.83291    0.30382    1.000
    C66      C        0.18421    0.79058    0.23171    1.000
    C67      C        0.30488    0.74140    0.18938    1.000
    C68      C        0.45357    0.73038    0.21604    1.000
    C69      C        0.47900    0.77022    0.28798    1.000
    C70      C        0.35950    0.82151    0.33049    1.000
    C71      C        0.58158    0.67647    0.16820    1.000
    C72      C        0.53502    0.61902    0.10535    1.000
    C73      C        0.65811    0.57292    0.06181    1.000
    C74      C        0.87155    0.63165    0.13951    1.000
    C75      C        0.75700    0.67998    0.18665    1.000
    C76      C        0.67100    0.35877    0.03689    1.000
    C77      C        0.82236    0.40504    0.04140    1.000
    C78      C        0.93939    0.42360    0.09743    1.000
    C79      C        0.08924    0.46445    0.11107    1.000
    C80      C        0.21254    0.47091    0.16709    1.000
    C81      C        0.18421    0.44113    0.20942    1.000
    C82      C        0.30488    0.44798    0.25860    1.000
    C83      C        0.45357    0.48566    0.26962    1.000
    C84      C        0.47900    0.51776    0.22978    1.000
    C85      C        0.35950    0.50898    0.17849    1.000
    C86      C        0.58158    0.49173    0.32353    1.000
    C87      C        0.53502    0.48633    0.38098    1.000
    C88      C        0.65811    0.48889    0.42708    1.000
    C89      C        0.87155    0.50786    0.36835    1.000
    C90      C        0.75700    0.50667    0.32002    1.000
    N1       N        0.17498    0.07658    0.49842    1.000
    N2       N        0.17498    0.42184    0.92342    1.000
    N3       N        0.17498    0.50158    0.57816    1.000
    N4       N        0.82502    0.92342    0.50158    1.000
    N5       N        0.82502    0.57816    0.07658    1.000
    N6       N        0.82502    0.49842    0.42184    1.000
    O1       O        0.86510    0.41800    0.49692    1.000
    O2       O        0.16697    0.42770    0.42224    1.000
    O3       O        0.86510    0.07892    0.58200    1.000
    O4       O        0.16697    0.99454    0.57230    1.000
    O5       O        0.86510    0.50308    0.92108    1.000
    O6       O        0.16697    0.57776    0.00546    1.000
    O7       O        0.13490    0.58200    0.50308    1.000
    O8       O        0.83303    0.57230    0.57776    1.000
    O9       O        0.13490    0.92108    0.41800    1.000
    O10      O        0.83303    0.00546    0.42770    1.000
    O11      O        0.13490    0.49692    0.07892    1.000
    O12      O        0.83303    0.42224    0.99454    1.000
