data_functionalizedCrystal
_audit_creation_method	'EQeq! by Chris Wilmer'
_symmetry_space_group_name_H-M	'P1'
_symmetry_Int_Tables_number	1
_symmetry_cell_setting	triclinic
loop_
_symmetry_equiv_pos_as_xyz
  x,y,z
_cell_length_a	18.4365
_cell_length_b	16.7553
_cell_length_c	20.2441
_cell_angle_alpha	90
_cell_angle_beta	114.322
_cell_angle_gamma	90
loop_
_atom_site_label
_atom_site_type_symbol
_atom_site_fract_x
_atom_site_fract_y
_atom_site_fract_z
_atom_site_charge
Mof_Ag	Ag	0.0188	0.10457	0.51264	0.904
Mof_Ag	Ag	0.17649	0.1467	0.53683	0.505
Mof_Ag	Ag	0.04207	0.26572	0.49238	0.63
Mof_Ag	Ag	0.13893	0.25378	0.40595	0.468
Mof_Ag	Ag	0.0244	0.2589	0.247	-1.006
Mof_C 	C 	0.0671	0.1623	0.4375	-0.511
Mof_C 	C 	0.0488	0.1344	0.378	0.118
Mof_C 	C 	0.0231	0.0892	0.3115	0.095
Mof_C 	C 	0.0249	0.0066	0.3141	-0.08
Mof_H 	H 	0.0425	0.9798	0.3582	0.127
Mof_O 	O 	0.9524	0.1476	0.5761	-0.249
Mof_O 	O 	0.9664	0.2767	0.5594	-0.189
Mof_C 	C 	0.9401	0.2182	0.5798	0.129
Mof_C 	C 	0.8858	0.2382	0.6186	1.221
Mof_F 	F 	0.896	0.192	0.6717	-0.287
Mof_F 	F 	0.813	0.234	0.5753	-0.256
Mof_F 	F 	0.896	0.3085	0.646	-0.258
Mof_O 	O 	0.0832	0.9876	0.5671	-0.265
Mof_O 	O 	0.209	0.0242	0.598	-0.155
Mof_C 	C 	0.1552	0.9781	0.5964	0.11
Mof_C 	C 	0.1835	0.9	0.64	1.185
Mof_F 	F 	0.1432	0.8747	0.6704	-0.339
Mof_F 	F 	0.2526	0.9026	0.6875	-0.318
Mof_F 	F 	0.187	0.8445	0.5992	-0.278
Mof_O 	O 	0.3598	0.2035	0.7527	-0.135
Mof_O 	O 	0.2733	0.2085	0.6385	-0.287
Mof_C 	C 	0.2936	0.1998	0.7045	0.069
Mof_C 	C 	0.225	0.1846	0.7279	1.319
Mof_F 	F 	0.1602	0.1651	0.6772	-0.367
Mof_F 	F 	0.2118	0.2459	0.758	-0.221
Mof_F 	F 	0.2429	0.127	0.774	-0.276
Mof_F 	F 	0.85	0.3041	0.595	-0.278
Mof_F 	F 	0.9307	0.245	0.6859	-0.286
Mof_F 	F 	0.8334	0.1838	0.609	-0.272
Mof_F 	F 	0.1401	0.8407	0.6059	-0.31
Mof_F 	F 	0.2569	0.8828	0.657	-0.142
Mof_F 	F 	0.175	0.9102	0.7009	-0.245
Mof_F 	F 	0.2582	0.2977	0.2086	-0.294
Mof_F 	F 	0.2976	0.3853	0.2793	-0.349
Mof_F 	F 	0.3349	0.274	0.3074	-0.351
Mof_Ag	Ag	0.9812	0.10457	0.98736	0.639
Mof_Ag	Ag	0.82351	0.1467	0.96317	0.548
Mof_Ag	Ag	0.95793	0.26572	0.00762	0.508
Mof_Ag	Ag	0.86107	0.25378	0.09405	0.299
Mof_Ag	Ag	0.9756	0.2589	0.253	1.524
Mof_C 	C 	0.9329	0.1623	0.0625	-0.451
Mof_C 	C 	0.9512	0.1344	0.122	0.102
Mof_C 	C 	0.9769	0.0892	0.1885	0.04
Mof_C 	C 	0.9751	0.0066	0.1859	-0.169
Mof_H 	H 	0.9575	0.9798	0.1418	0.126
Mof_O 	O 	0.0476	0.1476	0.9239	-0.145
Mof_O 	O 	0.0336	0.2767	0.9406	-0.079
Mof_C 	C 	0.0599	0.2182	0.9202	0.117
Mof_C 	C 	0.1142	0.2382	0.8814	1.215
Mof_F 	F 	0.104	0.192	0.8283	-0.273
Mof_F 	F 	0.187	0.234	0.9247	-0.252
Mof_F 	F 	0.104	0.3085	0.854	-0.236
Mof_O 	O 	0.9168	0.9876	0.9329	-0.324
Mof_O 	O 	0.791	0.0242	0.902	-0.16
Mof_C 	C 	0.8448	0.9781	0.9036	0.106
Mof_C 	C 	0.8165	0.9	0.86	1.209
Mof_F 	F 	0.8568	0.8747	0.8296	-0.401
Mof_F 	F 	0.7474	0.9026	0.8125	-0.327
Mof_F 	F 	0.813	0.8445	0.9008	-0.28
Mof_O 	O 	0.6402	0.2035	0.7473	-0.135
Mof_O 	O 	0.7267	0.2085	0.8615	-0.288
Mof_C 	C 	0.7064	0.1998	0.7955	0.063
Mof_C 	C 	0.775	0.1846	0.7721	1.335
Mof_F 	F 	0.8398	0.1651	0.8228	-0.379
Mof_F 	F 	0.7882	0.2459	0.742	-0.23
Mof_F 	F 	0.7571	0.127	0.726	-0.282
Mof_F 	F 	0.15	0.3041	0.905	-0.27
Mof_F 	F 	0.0693	0.245	0.8141	-0.247
Mof_F 	F 	0.1666	0.1838	0.891	-0.267
Mof_F 	F 	0.8599	0.8407	0.8941	-0.364
Mof_F 	F 	0.7431	0.8828	0.843	-0.146
Mof_F 	F 	0.825	0.9102	0.7991	-0.262
Mof_F 	F 	0.7418	0.2977	0.2914	-0.297
Mof_F 	F 	0.7024	0.3853	0.2207	-0.346
Mof_F 	F 	0.6651	0.274	0.1926	-0.349
Mof_Ag	Ag	0.4812	0.39543	0.48736	0.774
Mof_Ag	Ag	0.32351	0.3533	0.46317	0.526
Mof_Ag	Ag	0.45793	0.23428	0.50762	0.568
Mof_Ag	Ag	0.36107	0.24622	0.59405	0.394
Mof_Ag	Ag	0.4756	0.2411	0.753	0.112
Mof_C 	C 	0.4329	0.3377	0.5625	-0.487
Mof_C 	C 	0.4512	0.3656	0.622	0.123
Mof_C 	C 	0.4769	0.4108	0.6885	0.052
Mof_C 	C 	0.4751	0.4934	0.6859	-0.003
Mof_H 	H 	0.4575	0.5202	0.6418	0.089
Mof_O 	O 	0.5476	0.3524	0.4239	-0.194
Mof_O 	O 	0.5336	0.2233	0.4406	-0.135
Mof_C 	C 	0.5599	0.2818	0.4202	0.122
Mof_C 	C 	0.6142	0.2618	0.3814	1.219
Mof_F 	F 	0.604	0.308	0.3283	-0.278
Mof_F 	F 	0.687	0.266	0.4247	-0.256
Mof_F 	F 	0.604	0.1915	0.354	-0.248
Mof_O 	O 	0.4168	0.5124	0.4329	-0.295
Mof_O 	O 	0.291	0.4758	0.402	-0.15
Mof_C 	C 	0.3448	0.5219	0.4036	0.108
Mof_C 	C 	0.3165	0.6	0.36	1.195
Mof_F 	F 	0.3568	0.6253	0.3296	-0.369
Mof_F 	F 	0.2474	0.5974	0.3125	-0.317
Mof_F 	F 	0.313	0.6555	0.4008	-0.278
Mof_O 	O 	0.1402	0.2965	0.2473	0.023
Mof_O 	O 	0.2267	0.2915	0.3615	-0.262
Mof_C 	C 	0.2064	0.3002	0.2955	0.015
Mof_C 	C 	0.275	0.3154	0.2721	1.345
Mof_F 	F 	0.3398	0.3349	0.3228	-0.374
Mof_F 	F 	0.2882	0.2541	0.242	-0.225
Mof_F 	F 	0.2571	0.373	0.226	-0.274
Mof_F 	F 	0.65	0.1959	0.405	-0.275
Mof_F 	F 	0.5693	0.255	0.3141	-0.266
Mof_F 	F 	0.6666	0.3162	0.391	-0.271
Mof_F 	F 	0.3599	0.6593	0.3941	-0.337
Mof_F 	F 	0.2431	0.6172	0.343	-0.142
Mof_F 	F 	0.325	0.5898	0.2991	-0.25
Mof_F 	F 	0.2418	0.2023	0.7914	-0.294
Mof_F 	F 	0.2024	0.1147	0.7207	-0.344
Mof_F 	F 	0.1651	0.226	0.6926	-0.341
Mof_Ag	Ag	0.5188	0.39543	0.01264	0.77
Mof_Ag	Ag	0.67649	0.3533	0.03683	0.53
Mof_Ag	Ag	0.54207	0.23428	0.99238	0.571
Mof_Ag	Ag	0.63893	0.24622	0.90595	0.392
Mof_Ag	Ag	0.5244	0.2411	0.747	0.118
Mof_C 	C 	0.5671	0.3377	0.9375	-0.486
Mof_C 	C 	0.5488	0.3656	0.878	0.123
Mof_C 	C 	0.5231	0.4108	0.8115	0.052
Mof_C 	C 	0.5249	0.4934	0.8141	-0.003
Mof_H 	H 	0.5425	0.5202	0.8582	0.088
Mof_O 	O 	0.4524	0.3524	0.0761	-0.194
Mof_O 	O 	0.4664	0.2233	0.0594	-0.135
Mof_C 	C 	0.4401	0.2818	0.0798	0.124
Mof_C 	C 	0.3858	0.2618	0.1186	1.216
Mof_F 	F 	0.396	0.308	0.1717	-0.277
Mof_F 	F 	0.313	0.266	0.0753	-0.252
Mof_F 	F 	0.396	0.1915	0.146	-0.247
Mof_O 	O 	0.5832	0.5124	0.0671	-0.297
Mof_O 	O 	0.709	0.4758	0.098	-0.162
Mof_C 	C 	0.6552	0.5219	0.0964	0.107
Mof_C 	C 	0.6835	0.6	0.14	1.198
Mof_F 	F 	0.6432	0.6253	0.1704	-0.369
Mof_F 	F 	0.7526	0.5974	0.1875	-0.328
Mof_F 	F 	0.687	0.6555	0.0992	-0.281
Mof_O 	O 	0.8598	0.2965	0.2527	-0.315
Mof_O 	O 	0.7733	0.2915	0.1385	-0.316
Mof_C 	C 	0.7936	0.3002	0.2045	0.124
Mof_C 	C 	0.725	0.3154	0.2279	1.304
Mof_F 	F 	0.6602	0.3349	0.1772	-0.37
Mof_F 	F 	0.7118	0.2541	0.258	-0.226
Mof_F 	F 	0.7429	0.373	0.274	-0.283
Mof_F 	F 	0.35	0.1959	0.095	-0.273
Mof_F 	F 	0.4307	0.255	0.1859	-0.266
Mof_F 	F 	0.3334	0.3162	0.109	-0.267
Mof_F 	F 	0.6401	0.6593	0.1059	-0.338
Mof_F 	F 	0.7569	0.6172	0.157	-0.146
Mof_F 	F 	0.675	0.5898	0.2009	-0.255
Mof_F 	F 	0.7582	0.2023	0.7086	-0.298
Mof_F 	F 	0.7976	0.1147	0.7793	-0.354
Mof_F 	F 	0.8349	0.226	0.8074	-0.359
Mof_Ag	Ag	1.45316e-33	0.265	0.25	0.045
Mof_N 	N 	1.45316e-33	0.1308	0.25	-0.121
Mof_C 	C 	1.45316e-33	0.9653	0.25	0.215
Mof_H 	H 	1.45316e-33	0.9098	0.25	0.147
Mof_Ag	Ag	0.5	0.235	0.75	0.287
Mof_N 	N 	0.5	0.3692	0.75	-0.152
Mof_C 	C 	0.5	0.5347	0.75	0.026
Mof_H 	H 	0.5	0.5902	0.75	0.185
Mof_Ag	Ag	0.5188	0.60457	0.51264	0.773
Mof_Ag	Ag	0.67649	0.6467	0.53683	0.53
Mof_Ag	Ag	0.54207	0.76572	0.49238	0.567
Mof_Ag	Ag	0.63893	0.75378	0.40595	0.391
Mof_Ag	Ag	0.5244	0.7589	0.247	0.118
Mof_C 	C 	0.5671	0.6623	0.4375	-0.487
Mof_C 	C 	0.5488	0.6344	0.378	0.123
Mof_C 	C 	0.5231	0.5892	0.3115	0.052
Mof_C 	C 	0.5249	0.5066	0.3141	-0.003
Mof_H 	H 	0.5425	0.4798	0.3582	0.088
Mof_O 	O 	0.4524	0.6476	0.5761	-0.194
Mof_O 	O 	0.4664	0.7767	0.5594	-0.135
Mof_C 	C 	0.4401	0.7182	0.5798	0.124
Mof_C 	C 	0.3858	0.7382	0.6186	1.216
Mof_F 	F 	0.396	0.692	0.6717	-0.277
Mof_F 	F 	0.313	0.734	0.5753	-0.252
Mof_F 	F 	0.396	0.8085	0.646	-0.247
Mof_O 	O 	0.5832	0.4876	0.5671	-0.296
Mof_O 	O 	0.709	0.5242	0.598	-0.162
Mof_C 	C 	0.6552	0.4781	0.5964	0.107
Mof_C 	C 	0.6835	0.4	0.64	1.198
Mof_F 	F 	0.6432	0.3747	0.6704	-0.369
Mof_F 	F 	0.7526	0.4026	0.6875	-0.328
Mof_F 	F 	0.687	0.3445	0.5992	-0.281
Mof_O 	O 	0.8598	0.7035	0.7527	-0.318
Mof_O 	O 	0.7733	0.7085	0.6385	-0.316
Mof_C 	C 	0.7936	0.6998	0.7045	0.126
Mof_C 	C 	0.725	0.6846	0.7279	1.304
Mof_F 	F 	0.6602	0.6651	0.6772	-0.37
Mof_F 	F 	0.7118	0.7459	0.758	-0.226
Mof_F 	F 	0.7429	0.627	0.774	-0.282
Mof_F 	F 	0.35	0.8041	0.595	-0.273
Mof_F 	F 	0.4307	0.745	0.6859	-0.266
Mof_F 	F 	0.3334	0.6838	0.609	-0.266
Mof_F 	F 	0.6401	0.3407	0.6059	-0.337
Mof_F 	F 	0.7569	0.3828	0.657	-0.146
Mof_F 	F 	0.675	0.4102	0.7009	-0.255
Mof_F 	F 	0.7582	0.7977	0.2086	-0.298
Mof_F 	F 	0.7976	0.8853	0.2793	-0.354
Mof_F 	F 	0.8349	0.774	0.3074	-0.359
Mof_Ag	Ag	0.4812	0.60457	0.98736	0.783
Mof_Ag	Ag	0.32351	0.6467	0.96317	0.533
Mof_Ag	Ag	0.45793	0.76572	0.00762	0.562
Mof_Ag	Ag	0.36107	0.75378	0.09405	0.392
Mof_Ag	Ag	0.4756	0.7589	0.253	0.112
Mof_C 	C 	0.4329	0.6623	0.0625	-0.491
Mof_C 	C 	0.4512	0.6344	0.122	0.124
Mof_C 	C 	0.4769	0.5892	0.1885	0.051
Mof_C 	C 	0.4751	0.5066	0.1859	-0.002
Mof_H 	H 	0.4575	0.4798	0.1418	0.088
Mof_O 	O 	0.5476	0.6476	0.9239	-0.194
Mof_O 	O 	0.5336	0.7767	0.9406	-0.132
Mof_C 	C 	0.5599	0.7182	0.9202	0.123
Mof_C 	C 	0.6142	0.7382	0.8814	1.219
Mof_F 	F 	0.604	0.692	0.8283	-0.278
Mof_F 	F 	0.687	0.734	0.9247	-0.255
Mof_F 	F 	0.604	0.8085	0.854	-0.247
Mof_O 	O 	0.4168	0.4876	0.9329	-0.295
Mof_O 	O 	0.291	0.5242	0.902	-0.15
Mof_C 	C 	0.3448	0.4781	0.9036	0.109
Mof_C 	C 	0.3165	0.4	0.86	1.194
Mof_F 	F 	0.3568	0.3747	0.8296	-0.369
Mof_F 	F 	0.2474	0.4026	0.8125	-0.317
Mof_F 	F 	0.313	0.3445	0.9008	-0.277
Mof_O 	O 	0.1402	0.7035	0.7473	0.026
Mof_O 	O 	0.2267	0.7085	0.8615	-0.262
Mof_C 	C 	0.2064	0.6998	0.7955	0.014
Mof_C 	C 	0.275	0.6846	0.7721	1.345
Mof_F 	F 	0.3398	0.6651	0.8228	-0.374
Mof_F 	F 	0.2882	0.7459	0.742	-0.225
Mof_F 	F 	0.2571	0.627	0.726	-0.274
Mof_F 	F 	0.65	0.8041	0.905	-0.274
Mof_F 	F 	0.5693	0.745	0.8141	-0.266
Mof_F 	F 	0.6666	0.6838	0.891	-0.271
Mof_F 	F 	0.3599	0.3407	0.8941	-0.336
Mof_F 	F 	0.2431	0.3828	0.843	-0.141
Mof_F 	F 	0.325	0.4102	0.7991	-0.25
Mof_F 	F 	0.2418	0.7977	0.2914	-0.294
Mof_F 	F 	0.2024	0.8853	0.2207	-0.344
Mof_F 	F 	0.1651	0.774	0.1926	-0.341
Mof_Ag	Ag	0.9812	0.89543	0.48736	0.635
Mof_Ag	Ag	0.82351	0.8533	0.46317	0.547
Mof_Ag	Ag	0.95793	0.73428	0.50762	0.505
Mof_Ag	Ag	0.86107	0.74622	0.59405	0.297
Mof_Ag	Ag	0.9756	0.7411	0.753	1.553
Mof_C 	C 	0.9329	0.8377	0.5625	-0.451
Mof_C 	C 	0.9512	0.8656	0.622	0.101
Mof_C 	C 	0.9769	0.9108	0.6885	0.04
Mof_C 	C 	0.9751	0.9934	0.6859	-0.175
Mof_H 	H 	0.9575	0.0202	0.6418	0.129
Mof_O 	O 	0.0476	0.8524	0.4239	-0.144
Mof_O 	O 	0.0336	0.7233	0.4406	-0.079
Mof_C 	C 	0.0599	0.7818	0.4202	0.117
Mof_C 	C 	0.1142	0.7618	0.3814	1.215
Mof_F 	F 	0.104	0.808	0.3283	-0.273
Mof_F 	F 	0.187	0.766	0.4247	-0.252
Mof_F 	F 	0.104	0.6915	0.354	-0.237
Mof_O 	O 	0.9168	0.0124	0.4329	-0.327
Mof_O 	O 	0.791	0.9758	0.402	-0.159
Mof_C 	C 	0.8448	0.0219	0.4036	0.105
Mof_C 	C 	0.8165	0.1	0.36	1.209
Mof_F 	F 	0.8568	0.1253	0.3296	-0.401
Mof_F 	F 	0.7474	0.0974	0.3125	-0.327
Mof_F 	F 	0.813	0.1555	0.4008	-0.281
Mof_O 	O 	0.6402	0.7965	0.2473	-0.135
Mof_O 	O 	0.7267	0.7915	0.3615	-0.288
Mof_C 	C 	0.7064	0.8002	0.2955	0.063
Mof_C 	C 	0.775	0.8154	0.2721	1.335
Mof_F 	F 	0.8398	0.8349	0.3228	-0.379
Mof_F 	F 	0.7882	0.7541	0.242	-0.23
Mof_F 	F 	0.7571	0.873	0.226	-0.283
Mof_F 	F 	0.15	0.6959	0.405	-0.271
Mof_F 	F 	0.0693	0.755	0.3141	-0.247
Mof_F 	F 	0.1666	0.8162	0.391	-0.268
Mof_F 	F 	0.8599	0.1593	0.3941	-0.365
Mof_F 	F 	0.7431	0.1172	0.343	-0.146
Mof_F 	F 	0.825	0.0898	0.2991	-0.261
Mof_F 	F 	0.7418	0.7023	0.7914	-0.297
Mof_F 	F 	0.7024	0.6147	0.7207	-0.346
Mof_F 	F 	0.6651	0.726	0.6926	-0.349
Mof_Ag	Ag	0.0188	0.89543	0.01264	0.894
Mof_Ag	Ag	0.17649	0.8533	0.03683	0.5
Mof_Ag	Ag	0.04207	0.73428	0.99238	0.64
Mof_Ag	Ag	0.13893	0.74622	0.90595	0.472
Mof_Ag	Ag	0.0244	0.7411	0.747	-1.03
Mof_C 	C 	0.0671	0.8377	0.9375	-0.506
Mof_C 	C 	0.0488	0.8656	0.878	0.118
Mof_C 	C 	0.0231	0.9108	0.8115	0.095
Mof_C 	C 	0.0249	0.9934	0.8141	-0.073
Mof_H 	H 	0.0425	0.0202	0.8582	0.124
Mof_O 	O 	0.9524	0.8524	0.0761	-0.248
Mof_O 	O 	0.9664	0.7233	0.0594	-0.191
Mof_C 	C 	0.9401	0.7818	0.0798	0.129
Mof_C 	C 	0.8858	0.7618	0.1186	1.221
Mof_F 	F 	0.896	0.808	0.1717	-0.288
Mof_F 	F 	0.813	0.766	0.0753	-0.257
Mof_F 	F 	0.896	0.6915	0.146	-0.258
Mof_O 	O 	0.0832	0.0124	0.0671	-0.264
Mof_O 	O 	0.209	0.9758	0.098	-0.156
Mof_C 	C 	0.1552	0.0219	0.0964	0.112
Mof_C 	C 	0.1835	0.1	0.14	1.185
Mof_F 	F 	0.1432	0.1253	0.1704	-0.34
Mof_F 	F 	0.2526	0.0974	0.1875	-0.319
Mof_F 	F 	0.187	0.1555	0.0992	-0.278
Mof_O 	O 	0.3598	0.7965	0.2527	-0.135
Mof_O 	O 	0.2733	0.7915	0.1385	-0.287
Mof_C 	C 	0.2936	0.8002	0.2045	0.069
Mof_C 	C 	0.225	0.8154	0.2279	1.319
Mof_F 	F 	0.1602	0.8349	0.1772	-0.367
Mof_F 	F 	0.2118	0.7541	0.258	-0.221
Mof_F 	F 	0.2429	0.873	0.274	-0.276
Mof_F 	F 	0.85	0.6959	0.095	-0.278
Mof_F 	F 	0.9307	0.755	0.1859	-0.286
Mof_F 	F 	0.8334	0.8162	0.109	-0.272
Mof_F 	F 	0.1401	0.1593	0.1059	-0.311
Mof_F 	F 	0.2569	0.1172	0.157	-0.142
Mof_F 	F 	0.175	0.0898	0.2009	-0.246
Mof_F 	F 	0.2582	0.7023	0.7086	-0.294
Mof_F 	F 	0.2976	0.6147	0.7793	-0.349
Mof_F 	F 	0.3349	0.726	0.8074	-0.351
Mof_Ag	Ag	0.5	0.765	0.25	0.287
Mof_N 	N 	0.5	0.6308	0.25	-0.152
Mof_C 	C 	0.5	0.4653	0.25	0.025
Mof_H 	H 	0.5	0.4098	0.25	0.186
Mof_Ag	Ag	7.98005e-17	0.735	0.75	0.04
Mof_N 	N 	7.98005e-17	0.8692	0.75	-0.12
Mof_C 	C 	7.98005e-17	0.0347	0.75	0.215
Mof_H 	H 	7.98005e-17	0.0902	0.75	0.148
_end
