data_functionalizedCrystal
_audit_creation_method	'EQeq! by Chris Wilmer'
_symmetry_space_group_name_H-M	'P1'
_symmetry_Int_Tables_number	1
_symmetry_cell_setting	triclinic
loop_
_symmetry_equiv_pos_as_xyz
  x,y,z
_cell_length_a	17.2053
_cell_length_b	11.6462
_cell_length_c	18.2629
_cell_angle_alpha	90
_cell_angle_beta	110.462
_cell_angle_gamma	90
loop_
_atom_site_label
_atom_site_type_symbol
_atom_site_fract_x
_atom_site_fract_y
_atom_site_fract_z
_atom_site_charge
Mof_Yb	Yb	0.49724	0.07133	0.10204	1.912
Mof_Yb	Yb	0.99839	0.41658	0.59569	1.859
Mof_S 	S 	0.75521	0.2108	0.39112	0.083
Mof_S 	S 	0.26288	0.22461	0.55761	0.085
Mof_S 	S 	0.25117	0.29118	0.9079	0.072
Mof_O 	O 	0.0764	0.4112	0.7237	-0.517
Mof_C 	C 	0.6229	0.0926	0.2848	0.508
Mof_O 	O 	0.5944	0.0846	0.3383	-0.544
Mof_O 	O 	0.4063	0.0788	0.5569	-0.504
Mof_O 	O 	0.9187	0.3257	0.4828	-0.511
Mof_C 	C 	0.3828	0.1417	0.9432	0.468
Mof_C 	C 	0.2965	0.3253	0.4486	0.016
Mof_H 	H 	0.3216	0.3453	0.4128	0.025
Mof_C 	C 	0.1148	0.3885	0.7932	0.483
Mof_O 	O 	0.3974	0.175	0.0115	-0.506
Mof_C 	C 	0.8252	0.2773	0.3575	-0.137
Mof_C 	C 	0.3903	0.1517	0.5046	0.505
Mof_C 	C 	0.1269	0.372	0.5272	0.456
Mof_O 	O 	0.4254	0.0679	0.9235	-0.541
Mof_C 	C 	0.2092	0.2413	0.7618	0.01
Mof_H 	H 	0.1816	0.2396	0.708	0.032
Mof_C 	C 	0.8955	0.3465	0.4105	0.474
Mof_O 	O 	0.1009	0.4306	0.852	-0.515
Mof_O 	O 	0.0805	0.4489	0.4873	-0.547
Mof_O 	O 	0.4222	0.1655	0.4532	-0.539
Mof_O 	O 	0.1135	0.3262	0.5836	-0.489
Mof_O 	O 	0.592	0.0444	0.2185	-0.547
Mof_C 	C 	0.7001	0.1595	0.2994	-0.175
Mof_C 	C 	0.1867	0.3076	0.8121	-0.163
Mof_C 	C 	0.228	0.3835	0.4538	-0.012
Mof_H 	H 	0.2033	0.4463	0.423	0.05
Mof_C 	C 	0.3239	0.2368	0.5001	-0.151
Mof_C 	C 	0.7357	0.1904	0.2453	0.016
Mof_H 	H 	0.7157	0.1681	0.1931	0.018
Mof_C 	C 	0.3107	0.1943	0.8808	-0.136
Mof_C 	C 	0.8059	0.2596	0.279	-0.008
Mof_H 	H 	0.8365	0.2905	0.2506	0.043
Mof_C 	C 	0.2804	0.1752	0.8021	-0.006
Mof_H 	H 	0.3043	0.1236	0.7772	0.046
Mof_C 	C 	0.2013	0.3376	0.5094	-0.136
Mof_O 	O 	0.9265	0.4181	0.3777	-0.489
Mof_Yb	Yb	0.50276	0.07133	0.39796	1.914
Mof_Yb	Yb	0.00161	0.41658	0.90431	1.845
Mof_S 	S 	0.24479	0.2108	0.10888	0.085
Mof_S 	S 	0.73712	0.22461	0.94239	0.086
Mof_S 	S 	0.74883	0.29118	0.5921	0.074
Mof_O 	O 	0.9236	0.4112	0.7763	-0.512
Mof_C 	C 	0.3771	0.0926	0.2152	0.509
Mof_O 	O 	0.4056	0.0846	0.1617	-0.543
Mof_O 	O 	0.5937	0.0788	0.9431	-0.503
Mof_O 	O 	0.0813	0.3257	0.0172	-0.505
Mof_C 	C 	0.6172	0.1417	0.5568	0.47
Mof_C 	C 	0.7035	0.3253	0.0514	0.015
Mof_H 	H 	0.6784	0.3453	0.0872	0.026
Mof_C 	C 	0.8852	0.3885	0.7068	0.483
Mof_O 	O 	0.6026	0.175	0.4885	-0.507
Mof_C 	C 	0.1748	0.2773	0.1425	-0.136
Mof_C 	C 	0.6097	0.1517	0.9954	0.505
Mof_C 	C 	0.8731	0.372	0.9728	0.46
Mof_O 	O 	0.5746	0.0679	0.5765	-0.542
Mof_C 	C 	0.7908	0.2413	0.7382	0.009
Mof_H 	H 	0.8184	0.2396	0.792	0.033
Mof_C 	C 	0.1045	0.3465	0.0895	0.473
Mof_O 	O 	0.8991	0.4306	0.648	-0.515
Mof_O 	O 	0.9195	0.4489	0.0127	-0.55
Mof_O 	O 	0.5778	0.1655	0.0468	-0.541
Mof_O 	O 	0.8865	0.3262	0.9164	-0.487
Mof_O 	O 	0.408	0.0444	0.2815	-0.547
Mof_C 	C 	0.2999	0.1595	0.2006	-0.175
Mof_C 	C 	0.8133	0.3076	0.6879	-0.162
Mof_C 	C 	0.772	0.3835	0.0462	-0.016
Mof_H 	H 	0.7967	0.4463	0.077	0.051
Mof_C 	C 	0.6761	0.2368	0.9999	-0.149
Mof_C 	C 	0.2643	0.1904	0.2547	0.017
Mof_H 	H 	0.2843	0.1681	0.3069	0.018
Mof_C 	C 	0.6893	0.1943	0.6192	-0.136
Mof_C 	C 	0.1941	0.2596	0.221	-0.008
Mof_H 	H 	0.1635	0.2905	0.2494	0.044
Mof_C 	C 	0.7196	0.1752	0.6979	-0.005
Mof_H 	H 	0.6957	0.1236	0.7228	0.046
Mof_C 	C 	0.7987	0.3376	0.9906	-0.134
Mof_O 	O 	0.0735	0.4181	0.1223	-0.485
Mof_Yb	Yb	0.50276	0.92867	0.89796	1.913
Mof_Yb	Yb	0.00161	0.58342	0.40431	1.86
Mof_S 	S 	0.24479	0.7892	0.60888	0.084
Mof_S 	S 	0.73712	0.77539	0.44239	0.086
Mof_S 	S 	0.74883	0.70882	0.0921	0.073
Mof_O 	O 	0.9236	0.5888	0.2763	-0.516
Mof_C 	C 	0.3771	0.9074	0.7152	0.509
Mof_O 	O 	0.4056	0.9154	0.6617	-0.543
Mof_O 	O 	0.5937	0.9212	0.4431	-0.503
Mof_O 	O 	0.0813	0.6743	0.5172	-0.51
Mof_C 	C 	0.6172	0.8583	0.0568	0.469
Mof_C 	C 	0.7035	0.6747	0.5514	0.017
Mof_H 	H 	0.6784	0.6547	0.5872	0.026
Mof_C 	C 	0.8852	0.6115	0.2068	0.484
Mof_O 	O 	0.6026	0.825	0.9885	-0.506
Mof_C 	C 	0.1748	0.7227	0.6425	-0.137
Mof_C 	C 	0.6097	0.8483	0.4954	0.505
Mof_C 	C 	0.8731	0.628	0.4728	0.456
Mof_O 	O 	0.5746	0.9321	0.0765	-0.541
Mof_C 	C 	0.7908	0.7587	0.2382	0.01
Mof_H 	H 	0.8184	0.7604	0.292	0.032
Mof_C 	C 	0.1045	0.6535	0.5895	0.474
Mof_O 	O 	0.8991	0.5694	0.148	-0.515
Mof_O 	O 	0.9195	0.5511	0.5127	-0.547
Mof_O 	O 	0.5778	0.8345	0.5468	-0.539
Mof_O 	O 	0.8865	0.6738	0.4164	-0.489
Mof_O 	O 	0.408	0.9556	0.7815	-0.547
Mof_C 	C 	0.2999	0.8405	0.7006	-0.175
Mof_C 	C 	0.8133	0.6924	0.1879	-0.163
Mof_C 	C 	0.772	0.6165	0.5462	-0.012
Mof_H 	H 	0.7967	0.5537	0.577	0.05
Mof_C 	C 	0.6761	0.7632	0.4999	-0.151
Mof_C 	C 	0.2643	0.8096	0.7547	0.016
Mof_H 	H 	0.2843	0.8319	0.8069	0.018
Mof_C 	C 	0.6893	0.8057	0.1192	-0.136
Mof_C 	C 	0.1941	0.7404	0.721	-0.008
Mof_H 	H 	0.1635	0.7095	0.7494	0.043
Mof_C 	C 	0.7196	0.8248	0.1979	-0.006
Mof_H 	H 	0.6957	0.8764	0.2228	0.046
Mof_C 	C 	0.7987	0.6624	0.4906	-0.136
Mof_O 	O 	0.0735	0.5819	0.6223	-0.489
Mof_Yb	Yb	0.49724	0.92867	0.60204	1.914
Mof_Yb	Yb	0.99839	0.58342	0.09569	1.845
Mof_S 	S 	0.75521	0.7892	0.89112	0.085
Mof_S 	S 	0.26288	0.77539	0.05761	0.086
Mof_S 	S 	0.25117	0.70882	0.4079	0.074
Mof_O 	O 	0.0764	0.5888	0.2237	-0.512
Mof_C 	C 	0.6229	0.9074	0.7848	0.509
Mof_O 	O 	0.5944	0.9154	0.8383	-0.543
Mof_O 	O 	0.4063	0.9212	0.0569	-0.503
Mof_O 	O 	0.9187	0.6743	0.9828	-0.505
Mof_C 	C 	0.3828	0.8583	0.4432	0.47
Mof_C 	C 	0.2965	0.6747	0.9486	0.015
Mof_H 	H 	0.3216	0.6547	0.9128	0.026
Mof_C 	C 	0.1148	0.6115	0.2932	0.483
Mof_O 	O 	0.3974	0.825	0.5115	-0.507
Mof_C 	C 	0.8252	0.7227	0.8575	-0.136
Mof_C 	C 	0.3903	0.8483	0.0046	0.505
Mof_C 	C 	0.1269	0.628	0.0272	0.46
Mof_O 	O 	0.4254	0.9321	0.4235	-0.542
Mof_C 	C 	0.2092	0.7587	0.2618	0.009
Mof_H 	H 	0.1816	0.7604	0.208	0.033
Mof_C 	C 	0.8955	0.6535	0.9105	0.473
Mof_O 	O 	0.1009	0.5694	0.352	-0.515
Mof_O 	O 	0.0805	0.5511	0.9873	-0.55
Mof_O 	O 	0.4222	0.8345	0.9532	-0.541
Mof_O 	O 	0.1135	0.6738	0.0836	-0.487
Mof_O 	O 	0.592	0.9556	0.7185	-0.547
Mof_C 	C 	0.7001	0.8405	0.7994	-0.175
Mof_C 	C 	0.1867	0.6924	0.3121	-0.162
Mof_C 	C 	0.228	0.6165	0.9538	-0.016
Mof_H 	H 	0.2033	0.5537	0.923	0.051
Mof_C 	C 	0.3239	0.7632	0.0001	-0.149
Mof_C 	C 	0.7357	0.8096	0.7453	0.017
Mof_H 	H 	0.7157	0.8319	0.6931	0.018
Mof_C 	C 	0.3107	0.8057	0.3808	-0.136
Mof_C 	C 	0.8059	0.7404	0.779	-0.008
Mof_H 	H 	0.8365	0.7095	0.7506	0.044
Mof_C 	C 	0.2804	0.8248	0.3021	-0.005
Mof_H 	H 	0.3043	0.8764	0.2772	0.046
Mof_C 	C 	0.2013	0.6624	0.0094	-0.134
Mof_O 	O 	0.9265	0.5819	0.8777	-0.485
_end
