data_functionalizedCrystal
_audit_creation_method	'EQeq! by Chris Wilmer'
_symmetry_space_group_name_H-M	'P1'
_symmetry_Int_Tables_number	1
_symmetry_cell_setting	triclinic
loop_
_symmetry_equiv_pos_as_xyz
  x,y,z
_cell_length_a	9.27
_cell_length_b	19.143
_cell_length_c	19.143
_cell_angle_alpha	120
_cell_angle_beta	90
_cell_angle_gamma	90
loop_
_atom_site_label
_atom_site_type_symbol
_atom_site_fract_x
_atom_site_fract_y
_atom_site_fract_z
_atom_site_charge
Mof_Co	Co	0.81162	0.50748	0.69663	1.173
Mof_Co	Co	0.81162	0.18915	0.49252	1.173
Mof_Co	Co	0.81162	0.30337	0.81085	1.173
Mof_Co	Co	0.68838	0.81085	0.30337	1.173
Mof_Co	Co	0.68838	0.69663	0.50748	1.173
Mof_Co	Co	0.68838	0.49252	0.18915	1.173
Mof_Co	Co	0.18838	0.49252	0.30337	1.173
Mof_Co	Co	0.18838	0.81085	0.50748	1.173
Mof_Co	Co	0.18838	0.69663	0.18915	1.173
Mof_Co	Co	0.31162	0.18915	0.69663	1.173
Mof_Co	Co	0.31162	0.30337	0.49252	1.173
Mof_Co	Co	0.31162	0.50748	0.81085	1.173
Mof_Co	Co	0.76592	0.33333	0.66666	1.17
Mof_Co	Co	0.73408	0.66667	0.33334	1.17
Mof_Co	Co	0.23408	0.66667	0.33334	1.17
Mof_Co	Co	0.26592	0.33333	0.66666	1.17
Mof_P 	P 	0.00524	0.36716	0.56203	0.463
Mof_P 	P 	0.00524	0.19487	0.63284	0.463
Mof_P 	P 	0.00524	0.43797	0.80513	0.463
Mof_P 	P 	0.49476	0.80513	0.43797	0.465
Mof_P 	P 	0.49476	0.56203	0.36716	0.466
Mof_P 	P 	0.49476	0.63284	0.19487	0.466
Mof_P 	P 	0.99476	0.63284	0.43797	0.464
Mof_P 	P 	0.99476	0.80513	0.36716	0.464
Mof_P 	P 	0.99476	0.56203	0.19487	0.464
Mof_P 	P 	0.50524	0.19487	0.56203	0.466
Mof_P 	P 	0.50524	0.43797	0.63284	0.466
Mof_P 	P 	0.50524	0.36716	0.80513	0.466
Mof_H 	H 	0.0012	0.2845	0.4216	0.102
Mof_H 	H 	0.9499	0.3737	0.4462	0.108
Mof_H 	H 	0.101	0.3531	0.3345	0.016
Mof_H 	H 	0.1793	0.4744	0.5335	0.055
Mof_H 	H 	0.0969	0.4691	0.4576	0.057
Mof_H 	H 	0.064	0.2202	0.3089	0.152
Mof_H 	H 	0.235	0.2068	0.3033	0.14
Mof_H 	H 	0.1536	0.2225	0.2387	0.133
Mof_H 	H 	0.8885	0.7583	0.8984	0.223
Mof_H 	H 	0.7164	0.7527	0.8999	0.226
Mof_H 	H 	0.8131	0.7207	0.9474	0.235
Mof_H 	H 	0.0012	0.1371	0.7155	0.103
Mof_H 	H 	0.9499	0.0725	0.6263	0.11
Mof_H 	H 	0.101	0.9814	0.6469	0.018
Mof_H 	H 	0.1793	0.0591	0.5256	0.056
Mof_H 	H 	0.0969	0.9885	0.5309	0.058
Mof_H 	H 	0.064	0.0887	0.7798	0.15
Mof_H 	H 	0.235	0.0965	0.7932	0.139
Mof_H 	H 	0.1536	0.0162	0.7775	0.131
Mof_H 	H 	0.8885	0.1401	0.2417	0.223
Mof_H 	H 	0.7164	0.1472	0.2473	0.225
Mof_H 	H 	0.8131	0.2267	0.2793	0.234
Mof_H 	H 	0.0012	0.5784	0.8629	0.103
Mof_H 	H 	0.9499	0.5538	0.9275	0.109
Mof_H 	H 	0.101	0.6655	0.0186	0.018
Mof_H 	H 	0.1793	0.4665	0.9409	0.056
Mof_H 	H 	0.0969	0.5424	0.0115	0.058
Mof_H 	H 	0.064	0.6911	0.9113	0.15
Mof_H 	H 	0.235	0.6967	0.9035	0.139
Mof_H 	H 	0.1536	0.7613	0.9838	0.131
Mof_H 	H 	0.8885	0.1016	0.8599	0.224
Mof_H 	H 	0.7164	0.1001	0.8528	0.226
Mof_H 	H 	0.8131	0.0526	0.7733	0.235
Mof_H 	H 	0.4988	0.8629	0.5784	0.102
Mof_H 	H 	0.5501	0.9275	0.5538	0.108
Mof_H 	H 	0.399	0.0186	0.6655	0.015
Mof_H 	H 	0.3207	0.9409	0.4665	0.054
Mof_H 	H 	0.4031	0.0115	0.5424	0.056
Mof_H 	H 	0.436	0.9113	0.6911	0.153
Mof_H 	H 	0.265	0.9035	0.6967	0.141
Mof_H 	H 	0.3464	0.9838	0.7613	0.134
Mof_H 	H 	0.6115	0.8599	0.1016	0.222
Mof_H 	H 	0.7836	0.8528	0.1001	0.225
Mof_H 	H 	0.6869	0.7733	0.0526	0.234
Mof_H 	H 	0.4988	0.4216	0.2845	0.103
Mof_H 	H 	0.5501	0.4462	0.3737	0.108
Mof_H 	H 	0.399	0.3345	0.3531	0.016
Mof_H 	H 	0.3207	0.5335	0.4744	0.055
Mof_H 	H 	0.4031	0.4576	0.4691	0.057
Mof_H 	H 	0.436	0.3089	0.2202	0.152
Mof_H 	H 	0.265	0.3033	0.2068	0.14
Mof_H 	H 	0.3464	0.2387	0.2225	0.133
Mof_H 	H 	0.6115	0.8984	0.7583	0.222
Mof_H 	H 	0.7836	0.8999	0.7527	0.225
Mof_H 	H 	0.6869	0.9474	0.7207	0.234
Mof_H 	H 	0.4988	0.7155	0.1371	0.102
Mof_H 	H 	0.5501	0.6263	0.0725	0.108
Mof_H 	H 	0.399	0.6469	0.9814	0.015
Mof_H 	H 	0.3207	0.5256	0.0591	0.054
Mof_H 	H 	0.4031	0.5309	0.9885	0.056
Mof_H 	H 	0.436	0.7798	0.0887	0.153
Mof_H 	H 	0.265	0.7932	0.0965	0.141
Mof_H 	H 	0.3464	0.7775	0.0162	0.134
Mof_H 	H 	0.6115	0.2417	0.1401	0.222
Mof_H 	H 	0.7836	0.2473	0.1472	0.225
Mof_H 	H 	0.6869	0.2793	0.2267	0.234
Mof_H 	H 	0.9988	0.7155	0.5784	0.102
Mof_H 	H 	0.0501	0.6263	0.5538	0.108
Mof_H 	H 	0.899	0.6469	0.6655	0.016
Mof_H 	H 	0.8207	0.5256	0.4665	0.055
Mof_H 	H 	0.9031	0.5309	0.5424	0.057
Mof_H 	H 	0.936	0.7798	0.6911	0.152
Mof_H 	H 	0.765	0.7932	0.6967	0.14
Mof_H 	H 	0.8464	0.7775	0.7613	0.133
Mof_H 	H 	0.1115	0.2417	0.1016	0.223
Mof_H 	H 	0.2836	0.2473	0.1001	0.226
Mof_H 	H 	0.1869	0.2793	0.0526	0.235
Mof_H 	H 	0.9988	0.8629	0.2845	0.103
Mof_H 	H 	0.0501	0.9275	0.3737	0.11
Mof_H 	H 	0.899	0.0186	0.3531	0.018
Mof_H 	H 	0.8207	0.9409	0.4744	0.056
Mof_H 	H 	0.9031	0.0115	0.4691	0.058
Mof_H 	H 	0.936	0.9113	0.2202	0.15
Mof_H 	H 	0.765	0.9035	0.2068	0.139
Mof_H 	H 	0.8464	0.9838	0.2225	0.131
Mof_H 	H 	0.1115	0.8599	0.7583	0.223
Mof_H 	H 	0.2836	0.8528	0.7527	0.225
Mof_H 	H 	0.1869	0.7733	0.7207	0.234
Mof_H 	H 	0.9988	0.4216	0.1371	0.103
Mof_H 	H 	0.0501	0.4462	0.0725	0.109
Mof_H 	H 	0.899	0.3345	0.9814	0.018
Mof_H 	H 	0.8207	0.5335	0.0591	0.056
Mof_H 	H 	0.9031	0.4576	0.9885	0.058
Mof_H 	H 	0.936	0.3089	0.0887	0.15
Mof_H 	H 	0.765	0.3033	0.0965	0.139
Mof_H 	H 	0.8464	0.2387	0.0162	0.131
Mof_H 	H 	0.1115	0.8984	0.1401	0.224
Mof_H 	H 	0.2836	0.8999	0.1472	0.226
Mof_H 	H 	0.1869	0.9474	0.2267	0.235
Mof_H 	H 	0.5012	0.1371	0.4216	0.102
Mof_H 	H 	0.4499	0.0725	0.4462	0.108
Mof_H 	H 	0.601	0.9814	0.3345	0.015
Mof_H 	H 	0.6793	0.0591	0.5335	0.054
Mof_H 	H 	0.5969	0.9885	0.4576	0.056
Mof_H 	H 	0.564	0.0887	0.3089	0.153
Mof_H 	H 	0.735	0.0965	0.3033	0.141
Mof_H 	H 	0.6536	0.0162	0.2387	0.134
Mof_H 	H 	0.3885	0.1401	0.8984	0.222
Mof_H 	H 	0.2164	0.1472	0.8999	0.225
Mof_H 	H 	0.3131	0.2267	0.9474	0.234
Mof_H 	H 	0.5012	0.5784	0.7155	0.103
Mof_H 	H 	0.4499	0.5538	0.6263	0.108
Mof_H 	H 	0.601	0.6655	0.6469	0.016
Mof_H 	H 	0.6793	0.4665	0.5256	0.055
Mof_H 	H 	0.5969	0.5424	0.5309	0.057
Mof_H 	H 	0.564	0.6911	0.7798	0.152
Mof_H 	H 	0.735	0.6967	0.7932	0.14
Mof_H 	H 	0.6536	0.7613	0.7775	0.133
Mof_H 	H 	0.3885	0.1016	0.2417	0.222
Mof_H 	H 	0.2164	0.1001	0.2473	0.225
Mof_H 	H 	0.3131	0.0526	0.2793	0.234
Mof_H 	H 	0.5012	0.2845	0.8629	0.102
Mof_H 	H 	0.4499	0.3737	0.9275	0.108
Mof_H 	H 	0.601	0.3531	0.0186	0.015
Mof_H 	H 	0.6793	0.4744	0.9409	0.054
Mof_H 	H 	0.5969	0.4691	0.0115	0.056
Mof_H 	H 	0.564	0.2202	0.9113	0.153
Mof_H 	H 	0.735	0.2068	0.9035	0.141
Mof_H 	H 	0.6536	0.2225	0.9838	0.134
Mof_H 	H 	0.3885	0.7583	0.8599	0.222
Mof_H 	H 	0.2164	0.7527	0.8528	0.225
Mof_H 	H 	0.3131	0.7207	0.7733	0.234
Mof_C 	C 	0.0224	0.3425	0.4573	-0.253
Mof_C 	C 	0.1782	0.3262	0.3491	0.071
Mof_C 	C 	0.1812	0.4489	0.474	-0.083
Mof_C 	C 	0.156	0.2359	0.2952	-0.44
Mof_C 	C 	0.8124	0.643	0.8245	0.448
Mof_C 	C 	0.807	0.7261	0.8992	-0.763
Mof_C 	C 	0.0224	0.1148	0.6575	-0.255
Mof_C 	C 	0.1782	0.0229	0.6738	0.067
Mof_C 	C 	0.1812	0.0251	0.5511	-0.088
Mof_C 	C 	0.156	0.0593	0.7641	-0.436
Mof_C 	C 	0.8124	0.1815	0.357	0.447
Mof_C 	C 	0.807	0.1731	0.2739	-0.763
Mof_C 	C 	0.0224	0.5427	0.8852	-0.254
Mof_C 	C 	0.1782	0.6509	0.9771	0.067
Mof_C 	C 	0.1812	0.526	0.9749	-0.088
Mof_C 	C 	0.156	0.7048	0.9407	-0.436
Mof_C 	C 	0.8124	0.1755	0.8185	0.448
Mof_C 	C 	0.807	0.1008	0.8269	-0.764
Mof_C 	C 	0.4776	0.8852	0.5427	-0.252
Mof_C 	C 	0.3218	0.9771	0.6509	0.074
Mof_C 	C 	0.3188	0.9749	0.526	-0.08
Mof_C 	C 	0.344	0.9407	0.7048	-0.442
Mof_C 	C 	0.6876	0.8185	0.1755	0.447
Mof_C 	C 	0.693	0.8269	0.1008	-0.762
Mof_C 	C 	0.4776	0.4573	0.3425	-0.252
Mof_C 	C 	0.3218	0.3491	0.3262	0.071
Mof_C 	C 	0.3188	0.474	0.4489	-0.083
Mof_C 	C 	0.344	0.2952	0.2359	-0.44
Mof_C 	C 	0.6876	0.8245	0.643	0.447
Mof_C 	C 	0.693	0.8992	0.7261	-0.762
Mof_C 	C 	0.4776	0.6575	0.1148	-0.252
Mof_C 	C 	0.3218	0.6738	0.0229	0.075
Mof_C 	C 	0.3188	0.5511	0.0251	-0.08
Mof_C 	C 	0.344	0.7641	0.0593	-0.443
Mof_C 	C 	0.6876	0.357	0.1815	0.448
Mof_C 	C 	0.693	0.2739	0.1731	-0.763
Mof_C 	C 	0.9776	0.6575	0.5427	-0.253
Mof_C 	C 	0.8218	0.6738	0.6509	0.071
Mof_C 	C 	0.8188	0.5511	0.526	-0.083
Mof_C 	C 	0.844	0.7641	0.7048	-0.44
Mof_C 	C 	0.1876	0.357	0.1755	0.448
Mof_C 	C 	0.193	0.2739	0.1008	-0.763
Mof_C 	C 	0.9776	0.8852	0.3425	-0.255
Mof_C 	C 	0.8218	0.9771	0.3262	0.067
Mof_C 	C 	0.8188	0.9749	0.4489	-0.088
Mof_C 	C 	0.844	0.9407	0.2359	-0.436
Mof_C 	C 	0.1876	0.8185	0.643	0.447
Mof_C 	C 	0.193	0.8269	0.7261	-0.763
Mof_C 	C 	0.9776	0.4573	0.1148	-0.254
Mof_C 	C 	0.8218	0.3491	0.0229	0.067
Mof_C 	C 	0.8188	0.474	0.0251	-0.088
Mof_C 	C 	0.844	0.2952	0.0593	-0.436
Mof_C 	C 	0.1876	0.8245	0.1815	0.448
Mof_C 	C 	0.193	0.8992	0.1731	-0.764
Mof_C 	C 	0.5224	0.1148	0.4573	-0.252
Mof_C 	C 	0.6782	0.0229	0.3491	0.074
Mof_C 	C 	0.6812	0.0251	0.474	-0.08
Mof_C 	C 	0.656	0.0593	0.2952	-0.442
Mof_C 	C 	0.3124	0.1815	0.8245	0.447
Mof_C 	C 	0.307	0.1731	0.8992	-0.762
Mof_C 	C 	0.5224	0.5427	0.6575	-0.252
Mof_C 	C 	0.6782	0.6509	0.6738	0.071
Mof_C 	C 	0.6812	0.526	0.5511	-0.083
Mof_C 	C 	0.656	0.7048	0.7641	-0.44
Mof_C 	C 	0.3124	0.1755	0.357	0.447
Mof_C 	C 	0.307	0.1008	0.2739	-0.762
Mof_C 	C 	0.5224	0.3425	0.8852	-0.252
Mof_C 	C 	0.6782	0.3262	0.9771	0.075
Mof_C 	C 	0.6812	0.4489	0.9749	-0.08
Mof_C 	C 	0.656	0.2359	0.9407	-0.443
Mof_C 	C 	0.3124	0.643	0.8185	0.448
Mof_C 	C 	0.307	0.7261	0.8269	-0.763
Mof_N 	N 	0.1684	0.3603	0.4379	-0.155
Mof_N 	N 	0.1684	0.0776	0.6397	-0.154
Mof_N 	N 	0.1684	0.5621	0.9224	-0.154
Mof_N 	N 	0.3316	0.9224	0.5621	-0.156
Mof_N 	N 	0.3316	0.4379	0.3603	-0.155
Mof_N 	N 	0.3316	0.6397	0.0776	-0.156
Mof_N 	N 	0.8316	0.6397	0.5621	-0.155
Mof_N 	N 	0.8316	0.9224	0.3603	-0.154
Mof_N 	N 	0.8316	0.4379	0.0776	-0.154
Mof_N 	N 	0.6684	0.0776	0.4379	-0.156
Mof_N 	N 	0.6684	0.5621	0.6397	-0.155
Mof_N 	N 	0.6684	0.3603	0.9224	-0.156
Mof_O 	O 	0.9659	0.45594	0.61267	-0.419
Mof_O 	O 	0.8911	0.31168	0.56552	-0.507
Mof_O 	O 	0.157	0.34859	0.58086	-0.523
Mof_O 	O 	0.7282	0.5868	0.8063	-0.449
Mof_O 	O 	0.9227	0.6254	0.7752	-0.399
Mof_O 	O 	0.9659	0.15673	0.54406	-0.418
Mof_O 	O 	0.8911	0.25384	0.68832	-0.507
Mof_O 	O 	0.157	0.23227	0.65141	-0.523
Mof_O 	O 	0.7282	0.2195	0.4132	-0.449
Mof_O 	O 	0.9227	0.1498	0.3746	-0.399
Mof_O 	O 	0.9659	0.38733	0.84327	-0.418
Mof_O 	O 	0.8911	0.43448	0.74616	-0.507
Mof_O 	O 	0.157	0.41914	0.76773	-0.523
Mof_O 	O 	0.7282	0.1937	0.7805	-0.45
Mof_O 	O 	0.9227	0.2248	0.8502	-0.399
Mof_O 	O 	0.5341	0.84327	0.38733	-0.419
Mof_O 	O 	0.6089	0.74616	0.43448	-0.508
Mof_O 	O 	0.343	0.76773	0.41914	-0.523
Mof_O 	O 	0.7718	0.7805	0.1937	-0.45
Mof_O 	O 	0.5773	0.8502	0.2248	-0.399
Mof_O 	O 	0.5341	0.61267	0.45594	-0.42
Mof_O 	O 	0.6089	0.56552	0.31168	-0.508
Mof_O 	O 	0.343	0.58086	0.34859	-0.523
Mof_O 	O 	0.7718	0.8063	0.5868	-0.45
Mof_O 	O 	0.5773	0.7752	0.6254	-0.399
Mof_O 	O 	0.5341	0.54406	0.15673	-0.419
Mof_O 	O 	0.6089	0.68832	0.25384	-0.508
Mof_O 	O 	0.343	0.65141	0.23227	-0.523
Mof_O 	O 	0.7718	0.4132	0.2195	-0.45
Mof_O 	O 	0.5773	0.3746	0.1498	-0.399
Mof_O 	O 	0.0341	0.54406	0.38733	-0.419
Mof_O 	O 	0.1089	0.68832	0.43448	-0.507
Mof_O 	O 	0.843	0.65141	0.41914	-0.523
Mof_O 	O 	0.2718	0.4132	0.1937	-0.449
Mof_O 	O 	0.0773	0.3746	0.2248	-0.399
Mof_O 	O 	0.0341	0.84327	0.45594	-0.418
Mof_O 	O 	0.1089	0.74616	0.31168	-0.507
Mof_O 	O 	0.843	0.76773	0.34859	-0.523
Mof_O 	O 	0.2718	0.7805	0.5868	-0.449
Mof_O 	O 	0.0773	0.8502	0.6254	-0.399
Mof_O 	O 	0.0341	0.61267	0.15673	-0.418
Mof_O 	O 	0.1089	0.56552	0.25384	-0.507
Mof_O 	O 	0.843	0.58086	0.23227	-0.523
Mof_O 	O 	0.2718	0.8063	0.2195	-0.45
Mof_O 	O 	0.0773	0.7752	0.1498	-0.399
Mof_O 	O 	0.4659	0.15673	0.61267	-0.419
Mof_O 	O 	0.3911	0.25384	0.56552	-0.508
Mof_O 	O 	0.657	0.23227	0.58086	-0.523
Mof_O 	O 	0.2282	0.2195	0.8063	-0.45
Mof_O 	O 	0.4227	0.1498	0.7752	-0.399
Mof_O 	O 	0.4659	0.38733	0.54406	-0.42
Mof_O 	O 	0.3911	0.43448	0.68832	-0.508
Mof_O 	O 	0.657	0.41914	0.65141	-0.523
Mof_O 	O 	0.2282	0.1937	0.4132	-0.45
Mof_O 	O 	0.4227	0.2248	0.3746	-0.399
Mof_O 	O 	0.4659	0.45594	0.84327	-0.419
Mof_O 	O 	0.3911	0.31168	0.74616	-0.508
Mof_O 	O 	0.657	0.34859	0.76773	-0.523
Mof_O 	O 	0.2282	0.5868	0.7805	-0.45
Mof_O 	O 	0.4227	0.6254	0.8502	-0.399
_end
