data_functionalizedCrystal
_audit_creation_method	'EQeq! by Chris Wilmer'
_symmetry_space_group_name_H-M	'P1'
_symmetry_Int_Tables_number	1
_symmetry_cell_setting	triclinic
loop_
_symmetry_equiv_pos_as_xyz
  x,y,z
_cell_length_a	10.043
_cell_length_b	31.429
_cell_length_c	11.821
_cell_angle_alpha	90
_cell_angle_beta	92.98
_cell_angle_gamma	90
loop_
_atom_site_label
_atom_site_type_symbol
_atom_site_fract_x
_atom_site_fract_y
_atom_site_fract_z
_atom_site_charge
Mof_Cu	Cu	0.33025	0.87446	0.30486	0.89
Mof_Cu	Cu	0.18025	0.12232	0.2613	0.892
Mof_O 	O 	0.404	0.91783	0.2121	-0.465
Mof_O 	O 	0.2709	0.915	0.41	-0.468
Mof_O 	O 	0.1014	0.07201	0.197	-0.465
Mof_O 	O 	0.3143	0.09264	0.3488	-0.459
Mof_N 	N 	0.4151	0.82986	0.2074	-0.231
Mof_N 	N 	0.7397	0.67104	0.8967	-0.23
Mof_N 	N 	0.2553	0.17478	0.3371	-0.231
Mof_N 	N 	0.5708	0.34065	0.6537	-0.234
Mof_C 	C 	0.417	0.9831	0.1172	-0.945
Mof_H 	H 	0.4875	0.0014	0.1458	0.284
Mof_H 	H 	0.3453	0.0001	0.0846	0.286
Mof_H 	H 	0.45	0.9646	0.0603	0.295
Mof_C 	C 	0.3679	0.9573	0.2107	0.451
Mof_C 	C 	0.2946	0.9763	0.295	-0.293
Mof_C 	C 	0.2524	0.9544	0.3883	0.427
Mof_C 	C 	0.1755	0.9777	0.4766	-0.878
Mof_H 	H 	0.0864	0.9832	0.447	0.263
Mof_H 	H 	0.2192	0.0041	0.4953	0.27
Mof_H 	H 	0.1724	0.9604	0.5435	0.275
Mof_C 	C 	0.056	0.9993	0.1676	-0.859
Mof_H 	H 	0.9752	0.0113	0.1342	0.265
Mof_H 	H 	0.0346	0.9796	0.2259	0.265
Mof_H 	H 	0.103	0.9848	0.1105	0.264
Mof_C 	C 	0.1422	0.0344	0.218	0.41
Mof_C 	C 	0.2599	0.0229	0.2823	-0.263
Mof_C 	C 	0.34	0.0531	0.3392	0.415
Mof_C 	C 	0.4718	0.0409	0.3987	-0.884
Mof_H 	H 	0.5347	0.0636	0.3913	0.289
Mof_H 	H 	0.5052	0.0155	0.365	0.269
Mof_H 	H 	0.4589	0.0358	0.4775	0.272
Mof_C 	C 	0.43	0.8345	0.0979	0.077
Mof_H 	H 	0.3967	0.8589	0.0626	-0.013
Mof_C 	C 	0.4935	0.8044	0.0325	-0.139
Mof_H 	H 	0.5018	0.809	0.9555	0.064
Mof_C 	C 	0.544	0.7675	0.0831	0.048
Mof_C 	C 	0.528	0.7629	0.1989	-0.132
Mof_H 	H 	0.5594	0.7386	0.2365	0.075
Mof_C 	C 	0.4657	0.7944	0.2572	0.068
Mof_H 	H 	0.4581	0.791	0.3348	-0.007
Mof_C 	C 	0.612	0.7339	0.0185	0.051
Mof_C 	C 	0.5916	0.7304	0.9039	-0.137
Mof_H 	H 	0.5341	0.7492	0.865	0.068
Mof_C 	C 	0.6562	0.6993	0.8458	0.071
Mof_H 	H 	0.6412	0.6977	0.7676	-0.016
Mof_C 	C 	0.7572	0.6736	0.008	0.077
Mof_H 	H 	0.8123	0.6536	0.045	-0.015
Mof_C 	C 	0.6981	0.7044	0.0728	-0.145
Mof_H 	H 	0.7152	0.7054	0.1509	0.068
Mof_C 	C 	0.3775	0.1896	0.3112	0.074
Mof_H 	H 	0.4239	0.1758	0.2559	-0.021
Mof_C 	C 	0.4341	0.2246	0.3652	-0.138
Mof_H 	H 	0.515	0.235	0.3421	0.068
Mof_C 	C 	0.3733	0.2444	0.4525	0.052
Mof_C 	C 	0.2512	0.2278	0.4823	-0.139
Mof_H 	H 	0.2071	0.2392	0.5426	0.073
Mof_C 	C 	0.197	0.1939	0.4199	0.086
Mof_H 	H 	0.1134	0.1841	0.4382	-0.022
Mof_C 	C 	0.4383	0.2793	0.5181	0.054
Mof_C 	C 	0.5752	0.2853	0.5158	-0.145
Mof_H 	H 	0.6251	0.269	0.4679	0.079
Mof_C 	C 	0.6362	0.3153	0.5845	0.079
Mof_H 	H 	0.7282	0.3183	0.583	-0.023
Mof_C 	C 	0.4361	0.3362	0.6523	0.072
Mof_H 	H 	0.3877	0.3538	0.6983	-0.02
Mof_C 	C 	0.3692	0.3067	0.5854	-0.148
Mof_H 	H 	0.2767	0.3051	0.5852	0.07
Mof_Cu	Cu	0.83025	0.62554	0.80486	0.891
Mof_Cu	Cu	0.68025	0.37768	0.7613	0.893
Mof_O 	O 	0.904	0.58217	0.7121	-0.465
Mof_O 	O 	0.7709	0.585	0.91	-0.465
Mof_O 	O 	0.6014	0.42799	0.697	-0.466
Mof_O 	O 	0.8143	0.40736	0.8488	-0.454
Mof_N 	N 	0.9151	0.67014	0.7074	-0.231
Mof_N 	N 	0.2397	0.82896	0.3967	-0.231
Mof_N 	N 	0.7553	0.32522	0.8371	-0.231
Mof_N 	N 	0.0708	0.15935	0.1537	-0.229
Mof_C 	C 	0.917	0.5169	0.6172	-0.956
Mof_H 	H 	0.9875	0.4986	0.6458	0.289
Mof_H 	H 	0.8453	0.4999	0.5846	0.289
Mof_H 	H 	0.95	0.5354	0.5603	0.297
Mof_C 	C 	0.8679	0.5427	0.7107	0.455
Mof_C 	C 	0.7946	0.5237	0.795	-0.295
Mof_C 	C 	0.7524	0.5456	0.8883	0.426
Mof_C 	C 	0.6755	0.5223	0.9766	-0.871
Mof_H 	H 	0.5864	0.5168	0.947	0.261
Mof_H 	H 	0.7192	0.4959	0.9953	0.269
Mof_H 	H 	0.6724	0.5396	0.0435	0.272
Mof_C 	C 	0.556	0.5007	0.6676	-0.882
Mof_H 	H 	0.4752	0.4887	0.6342	0.275
Mof_H 	H 	0.5346	0.5204	0.7259	0.27
Mof_H 	H 	0.603	0.5152	0.6105	0.269
Mof_C 	C 	0.6422	0.4656	0.718	0.415
Mof_C 	C 	0.7599	0.4771	0.7823	-0.259
Mof_C 	C 	0.84	0.4469	0.8392	0.403
Mof_C 	C 	0.9718	0.4591	0.8987	-0.84
Mof_H 	H 	0.0347	0.4364	0.8913	0.273
Mof_H 	H 	0.0052	0.4845	0.865	0.253
Mof_H 	H 	0.9589	0.4642	0.9775	0.261
Mof_C 	C 	0.93	0.6655	0.5979	0.08
Mof_H 	H 	0.8967	0.6411	0.5626	-0.015
Mof_C 	C 	0.9935	0.6956	0.5325	-0.143
Mof_H 	H 	0.0018	0.691	0.4555	0.066
Mof_C 	C 	0.044	0.7325	0.5831	0.051
Mof_C 	C 	0.028	0.7371	0.6989	-0.137
Mof_H 	H 	0.0594	0.7614	0.7365	0.076
Mof_C 	C 	0.9657	0.7056	0.7572	0.072
Mof_H 	H 	0.9581	0.709	0.8348	-0.007
Mof_C 	C 	0.112	0.7661	0.5185	0.052
Mof_C 	C 	0.0916	0.7696	0.4039	-0.139
Mof_H 	H 	0.0341	0.7508	0.365	0.07
Mof_C 	C 	0.1562	0.8007	0.3458	0.072
Mof_H 	H 	0.1412	0.8023	0.2676	-0.015
Mof_C 	C 	0.2572	0.8264	0.508	0.081
Mof_H 	H 	0.3123	0.8464	0.545	-0.015
Mof_C 	C 	0.1981	0.7956	0.5728	-0.147
Mof_H 	H 	0.2152	0.7946	0.6509	0.069
Mof_C 	C 	0.8775	0.3104	0.8112	0.072
Mof_H 	H 	0.9239	0.3242	0.7559	-0.02
Mof_C 	C 	0.9341	0.2754	0.8652	-0.132
Mof_H 	H 	0.015	0.265	0.8421	0.064
Mof_C 	C 	0.8733	0.2556	0.9525	0.059
Mof_C 	C 	0.7512	0.2722	0.9823	-0.137
Mof_H 	H 	0.7071	0.2608	0.0426	0.072
Mof_C 	C 	0.697	0.3061	0.9199	0.085
Mof_H 	H 	0.6134	0.3159	0.9382	-0.021
Mof_C 	C 	0.9383	0.2207	0.0181	0.035
Mof_C 	C 	0.0752	0.2147	0.0158	-0.12
Mof_H 	H 	0.1251	0.231	0.9679	0.068
Mof_C 	C 	0.1362	0.1847	0.0845	0.068
Mof_H 	H 	0.2282	0.1817	0.083	-0.019
Mof_C 	C 	0.9361	0.1638	0.1523	0.061
Mof_H 	H 	0.8877	0.1462	0.1983	-0.017
Mof_C 	C 	0.8692	0.1933	0.0854	-0.136
Mof_H 	H 	0.7767	0.1949	0.0852	0.066
Mof_Cu	Cu	0.16975	0.37446	0.19514	0.891
Mof_Cu	Cu	0.31975	0.62232	0.2387	0.893
Mof_O 	O 	0.096	0.41783	0.2879	-0.465
Mof_O 	O 	0.2291	0.415	0.09	-0.465
Mof_O 	O 	0.3986	0.57201	0.303	-0.466
Mof_O 	O 	0.1857	0.59264	0.1512	-0.454
Mof_N 	N 	0.0849	0.32986	0.2926	-0.231
Mof_N 	N 	0.7603	0.17104	0.6033	-0.231
Mof_N 	N 	0.2447	0.67478	0.1629	-0.231
Mof_N 	N 	0.9292	0.84065	0.8463	-0.229
Mof_C 	C 	0.083	0.4831	0.3828	-0.956
Mof_H 	H 	0.0125	0.5014	0.3542	0.289
Mof_H 	H 	0.1547	0.5001	0.4154	0.289
Mof_H 	H 	0.05	0.4646	0.4397	0.297
Mof_C 	C 	0.1321	0.4573	0.2893	0.455
Mof_C 	C 	0.2054	0.4763	0.205	-0.295
Mof_C 	C 	0.2476	0.4544	0.1117	0.426
Mof_C 	C 	0.3245	0.4777	0.0234	-0.871
Mof_H 	H 	0.4136	0.4832	0.053	0.261
Mof_H 	H 	0.2808	0.5041	0.0047	0.269
Mof_H 	H 	0.3276	0.4604	0.9565	0.272
Mof_C 	C 	0.444	0.4993	0.3324	-0.882
Mof_H 	H 	0.5248	0.5113	0.3658	0.275
Mof_H 	H 	0.4654	0.4796	0.2741	0.27
Mof_H 	H 	0.397	0.4848	0.3895	0.269
Mof_C 	C 	0.3578	0.5344	0.282	0.415
Mof_C 	C 	0.2401	0.5229	0.2177	-0.259
Mof_C 	C 	0.16	0.5531	0.1608	0.403
Mof_C 	C 	0.0282	0.5409	0.1013	-0.84
Mof_H 	H 	0.9653	0.5636	0.1087	0.273
Mof_H 	H 	0.9948	0.5155	0.135	0.253
Mof_H 	H 	0.0411	0.5358	0.0225	0.261
Mof_C 	C 	0.07	0.3345	0.4021	0.08
Mof_H 	H 	0.1033	0.3589	0.4374	-0.015
Mof_C 	C 	0.0065	0.3044	0.4675	-0.143
Mof_H 	H 	0.9982	0.309	0.5445	0.066
Mof_C 	C 	0.956	0.2675	0.4169	0.051
Mof_C 	C 	0.972	0.2629	0.3011	-0.137
Mof_H 	H 	0.9406	0.2386	0.2635	0.076
Mof_C 	C 	0.0343	0.2944	0.2428	0.072
Mof_H 	H 	0.0419	0.291	0.1652	-0.007
Mof_C 	C 	0.888	0.2339	0.4815	0.052
Mof_C 	C 	0.9084	0.2304	0.5961	-0.139
Mof_H 	H 	0.9659	0.2492	0.635	0.07
Mof_C 	C 	0.8438	0.1993	0.6542	0.072
Mof_H 	H 	0.8588	0.1977	0.7324	-0.015
Mof_C 	C 	0.7428	0.1736	0.492	0.081
Mof_H 	H 	0.6877	0.1536	0.455	-0.015
Mof_C 	C 	0.8019	0.2044	0.4272	-0.147
Mof_H 	H 	0.7848	0.2054	0.3491	0.069
Mof_C 	C 	0.1225	0.6896	0.1888	0.072
Mof_H 	H 	0.0761	0.6758	0.2441	-0.02
Mof_C 	C 	0.0659	0.7246	0.1348	-0.132
Mof_H 	H 	0.985	0.735	0.1579	0.064
Mof_C 	C 	0.1267	0.7444	0.0475	0.059
Mof_C 	C 	0.2488	0.7278	0.0177	-0.137
Mof_H 	H 	0.2929	0.7392	0.9574	0.072
Mof_C 	C 	0.303	0.6939	0.0801	0.085
Mof_H 	H 	0.3866	0.6841	0.0618	-0.021
Mof_C 	C 	0.0617	0.7793	0.9819	0.035
Mof_C 	C 	0.9248	0.7853	0.9842	-0.12
Mof_H 	H 	0.8749	0.769	0.0321	0.068
Mof_C 	C 	0.8638	0.8153	0.9155	0.068
Mof_H 	H 	0.7718	0.8183	0.917	-0.019
Mof_C 	C 	0.0639	0.8362	0.8477	0.061
Mof_H 	H 	0.1123	0.8538	0.8017	-0.017
Mof_C 	C 	0.1308	0.8067	0.9146	-0.136
Mof_H 	H 	0.2233	0.8051	0.9148	0.066
Mof_Cu	Cu	0.66975	0.12554	0.69514	0.891
Mof_Cu	Cu	0.81975	0.87768	0.7387	0.893
Mof_O 	O 	0.596	0.08217	0.7879	-0.464
Mof_O 	O 	0.7291	0.085	0.59	-0.467
Mof_O 	O 	0.8986	0.92799	0.803	-0.464
Mof_O 	O 	0.6857	0.90736	0.6512	-0.458
Mof_N 	N 	0.5849	0.17014	0.7926	-0.23
Mof_N 	N 	0.2603	0.32896	0.1033	-0.229
Mof_N 	N 	0.7447	0.82522	0.6629	-0.231
Mof_N 	N 	0.4292	0.65935	0.3463	-0.234
Mof_C 	C 	0.583	0.0169	0.8828	-0.945
Mof_H 	H 	0.5125	0.9986	0.8542	0.284
Mof_H 	H 	0.6547	0.9999	0.9154	0.286
Mof_H 	H 	0.55	0.0354	0.9397	0.295
Mof_C 	C 	0.6321	0.0427	0.7893	0.451
Mof_C 	C 	0.7054	0.0237	0.705	-0.293
Mof_C 	C 	0.7476	0.0456	0.6117	0.427
Mof_C 	C 	0.8245	0.0223	0.5234	-0.878
Mof_H 	H 	0.9136	0.0168	0.553	0.263
Mof_H 	H 	0.7808	0.9959	0.5047	0.27
Mof_H 	H 	0.8276	0.0396	0.4565	0.275
Mof_C 	C 	0.944	0.0007	0.8324	-0.859
Mof_H 	H 	0.0248	0.9887	0.8658	0.265
Mof_H 	H 	0.9654	0.0204	0.7741	0.265
Mof_H 	H 	0.897	0.0152	0.8895	0.264
Mof_C 	C 	0.8578	0.9656	0.782	0.41
Mof_C 	C 	0.7401	0.9771	0.7177	-0.263
Mof_C 	C 	0.66	0.9469	0.6608	0.415
Mof_C 	C 	0.5282	0.9591	0.6013	-0.884
Mof_H 	H 	0.4653	0.9364	0.6087	0.289
Mof_H 	H 	0.4948	0.9845	0.635	0.269
Mof_H 	H 	0.5411	0.9642	0.5225	0.272
Mof_C 	C 	0.57	0.1655	0.9021	0.077
Mof_H 	H 	0.6033	0.1411	0.9374	-0.013
Mof_C 	C 	0.5065	0.1956	0.9675	-0.139
Mof_H 	H 	0.4982	0.191	0.0445	0.064
Mof_C 	C 	0.456	0.2325	0.9169	0.048
Mof_C 	C 	0.472	0.2371	0.8011	-0.132
Mof_H 	H 	0.4406	0.2614	0.7635	0.075
Mof_C 	C 	0.5343	0.2056	0.7428	0.068
Mof_H 	H 	0.5419	0.209	0.6652	-0.007
Mof_C 	C 	0.388	0.2661	0.9815	0.051
Mof_C 	C 	0.4084	0.2696	0.0961	-0.137
Mof_H 	H 	0.4659	0.2508	0.135	0.068
Mof_C 	C 	0.3438	0.3007	0.1542	0.071
Mof_H 	H 	0.3588	0.3023	0.2324	-0.016
Mof_C 	C 	0.2428	0.3264	0.992	0.077
Mof_H 	H 	0.1877	0.3464	0.955	-0.015
Mof_C 	C 	0.3019	0.2956	0.9272	-0.145
Mof_H 	H 	0.2848	0.2946	0.8491	0.068
Mof_C 	C 	0.6225	0.8104	0.6888	0.074
Mof_H 	H 	0.5761	0.8242	0.7441	-0.021
Mof_C 	C 	0.5659	0.7754	0.6348	-0.138
Mof_H 	H 	0.485	0.765	0.6579	0.068
Mof_C 	C 	0.6267	0.7556	0.5475	0.052
Mof_C 	C 	0.7488	0.7722	0.5177	-0.139
Mof_H 	H 	0.7929	0.7608	0.4574	0.073
Mof_C 	C 	0.803	0.8061	0.5801	0.086
Mof_H 	H 	0.8866	0.8159	0.5618	-0.022
Mof_C 	C 	0.5617	0.7207	0.4819	0.054
Mof_C 	C 	0.4248	0.7147	0.4842	-0.145
Mof_H 	H 	0.3749	0.731	0.5321	0.079
Mof_C 	C 	0.3638	0.6847	0.4155	0.079
Mof_H 	H 	0.2718	0.6817	0.417	-0.023
Mof_C 	C 	0.5639	0.6638	0.3477	0.072
Mof_H 	H 	0.6123	0.6462	0.3017	-0.02
Mof_C 	C 	0.6308	0.6933	0.4146	-0.148
Mof_H 	H 	0.7233	0.6949	0.4148	0.07
_end
