# CIF file generated by openbabel 3.1.0, see https://openbabel.org
data_I
_chemical_name_common 'QOHTOX_clean'
_cell_length_a 13.717
_cell_length_b 14.7878
_cell_length_c 21.0282
_cell_angle_alpha 90
_cell_angle_beta 90
_cell_angle_gamma 90
_space_group_name_H-M_alt 'P 1'
_space_group_name_Hall 'P 1'
loop_
    _symmetry_equiv_pos_as_xyz
    x,y,z
loop_
    _atom_site_label
    _atom_site_type_symbol
    _atom_site_fract_x
    _atom_site_fract_y
    _atom_site_fract_z
    _atom_site_occupancy
    Co1      Co       0.53092    0.90024    0.56194    1.000
    Co2      Co       0.46908    0.40024    0.93806    1.000
    Co3      Co       0.46908    0.09976    0.43806    1.000
    Co4      Co       0.53092    0.59976    0.06194    1.000
    H1       H        0.34890    0.96770    0.63380    1.000
    H2       H        0.18280    0.97070    0.62920    1.000
    H3       H        0.19720    0.82500    0.46770    1.000
    H4       H        0.36320    0.82510    0.47770    1.000
    H5       H        0.69300    0.97160    0.64880    1.000
    H6       H        0.85880    0.98210    0.65860    1.000
    H7       H        0.88400    0.85830    0.48910    1.000
    H8       H        0.71760    0.85220    0.48420    1.000
    H9       H        0.03890    0.86750    0.50340    1.000
    H10      H        0.02210    0.95560    0.61850    1.000
    H11      H        0.51710    0.63770    0.67740    1.000
    H12      H        0.53030    0.77710    0.76490    1.000
    H13      H        0.52950    0.73070    0.87510    1.000
    H14      H        0.50790    0.58880    0.79100    1.000
    H15      H        0.65110    0.46770    0.86620    1.000
    H16      H        0.81720    0.47070    0.87080    1.000
    H17      H        0.80280    0.32500    0.03230    1.000
    H18      H        0.63680    0.32510    0.02230    1.000
    H19      H        0.30700    0.47160    0.85120    1.000
    H20      H        0.14120    0.48210    0.84140    1.000
    H21      H        0.11600    0.35830    0.01090    1.000
    H22      H        0.28240    0.35220    0.01580    1.000
    H23      H        0.96110    0.36750    0.99660    1.000
    H24      H        0.97790    0.45560    0.88150    1.000
    H25      H        0.48290    0.13770    0.82260    1.000
    H26      H        0.46970    0.27710    0.73510    1.000
    H27      H        0.47050    0.23070    0.62490    1.000
    H28      H        0.49210    0.08880    0.70900    1.000
    H29      H        0.65110    0.03230    0.36620    1.000
    H30      H        0.81720    0.02930    0.37080    1.000
    H31      H        0.80280    0.17500    0.53230    1.000
    H32      H        0.63680    0.17490    0.52230    1.000
    H33      H        0.30700    0.02840    0.35120    1.000
    H34      H        0.14120    0.01790    0.34140    1.000
    H35      H        0.11600    0.14170    0.51090    1.000
    H36      H        0.28240    0.14780    0.51580    1.000
    H37      H        0.96110    0.13250    0.49660    1.000
    H38      H        0.97790    0.04440    0.38150    1.000
    H39      H        0.48290    0.36230    0.32260    1.000
    H40      H        0.46970    0.22290    0.23510    1.000
    H41      H        0.47050    0.26930    0.12490    1.000
    H42      H        0.49210    0.41120    0.20900    1.000
    H43      H        0.34890    0.53230    0.13380    1.000
    H44      H        0.18280    0.52930    0.12920    1.000
    H45      H        0.19720    0.67500    0.96770    1.000
    H46      H        0.36320    0.67490    0.97770    1.000
    H47      H        0.69300    0.52840    0.14880    1.000
    H48      H        0.85880    0.51790    0.15860    1.000
    H49      H        0.88400    0.64170    0.98910    1.000
    H50      H        0.71760    0.64780    0.98420    1.000
    H51      H        0.03890    0.63250    0.00340    1.000
    H52      H        0.02210    0.54440    0.11850    1.000
    H53      H        0.51710    0.86230    0.17740    1.000
    H54      H        0.53030    0.72290    0.26490    1.000
    H55      H        0.52950    0.76930    0.37510    1.000
    H56      H        0.50790    0.91120    0.29100    1.000
    C1       C        0.31790    0.93860    0.59960    1.000
    C2       C        0.21820    0.94060    0.59730    1.000
    C3       C        0.16910    0.89780    0.54750    1.000
    C4       C        0.22640    0.85470    0.50230    1.000
    C5       C        0.32620    0.85570    0.50860    1.000
    C6       C        0.73220    0.94790    0.61610    1.000
    C7       C        0.83170    0.95470    0.62230    1.000
    C8       C        0.89240    0.92110    0.57480    1.000
    C9       C        0.84670    0.88210    0.52270    1.000
    C10      C        0.74660    0.87830    0.52030    1.000
    C11      C        0.06340    0.89470    0.54050    1.000
    C12      C        0.99810    0.92690    0.58190    1.000
    C13      C        0.52640    0.76940    0.64120    1.000
    C14      C        0.52170    0.69830    0.69040    1.000
    C15      C        0.52360    0.71630    0.75270    1.000
    C16      C        0.51180    0.60200    0.91590    1.000
    C17      C        0.52050    0.66980    0.86370    1.000
    C18      C        0.51620    0.64970    0.80260    1.000
    C19      C        0.68210    0.43860    0.90040    1.000
    C20      C        0.78180    0.44060    0.90270    1.000
    C21      C        0.83090    0.39780    0.95250    1.000
    C22      C        0.77360    0.35470    0.99770    1.000
    C23      C        0.67380    0.35570    0.99140    1.000
    C24      C        0.26780    0.44790    0.88390    1.000
    C25      C        0.16830    0.45470    0.87770    1.000
    C26      C        0.10760    0.42110    0.92520    1.000
    C27      C        0.15330    0.38210    0.97730    1.000
    C28      C        0.25340    0.37830    0.97970    1.000
    C29      C        0.93660    0.39470    0.95950    1.000
    C30      C        0.00190    0.42690    0.91810    1.000
    C31      C        0.47360    0.26940    0.85880    1.000
    C32      C        0.47830    0.19830    0.80960    1.000
    C33      C        0.47640    0.21630    0.74730    1.000
    C34      C        0.48820    0.10200    0.58410    1.000
    C35      C        0.47950    0.16980    0.63630    1.000
    C36      C        0.48380    0.14970    0.69740    1.000
    C37      C        0.68210    0.06140    0.40040    1.000
    C38      C        0.78180    0.05940    0.40270    1.000
    C39      C        0.83090    0.10220    0.45250    1.000
    C40      C        0.77360    0.14530    0.49770    1.000
    C41      C        0.67380    0.14430    0.49140    1.000
    C42      C        0.26780    0.05210    0.38390    1.000
    C43      C        0.16830    0.04530    0.37770    1.000
    C44      C        0.10760    0.07890    0.42520    1.000
    C45      C        0.15330    0.11790    0.47730    1.000
    C46      C        0.25340    0.12170    0.47970    1.000
    C47      C        0.93660    0.10530    0.45950    1.000
    C48      C        0.00190    0.07310    0.41810    1.000
    C49      C        0.47360    0.23060    0.35880    1.000
    C50      C        0.47830    0.30170    0.30960    1.000
    C51      C        0.47640    0.28370    0.24730    1.000
    C52      C        0.48820    0.39800    0.08410    1.000
    C53      C        0.47950    0.33020    0.13630    1.000
    C54      C        0.48380    0.35030    0.19740    1.000
    C55      C        0.31790    0.56140    0.09960    1.000
    C56      C        0.21820    0.55940    0.09730    1.000
    C57      C        0.16910    0.60220    0.04750    1.000
    C58      C        0.22640    0.64530    0.00230    1.000
    C59      C        0.32620    0.64430    0.00860    1.000
    C60      C        0.73220    0.55210    0.11610    1.000
    C61      C        0.83170    0.54530    0.12230    1.000
    C62      C        0.89240    0.57890    0.07480    1.000
    C63      C        0.84670    0.61790    0.02270    1.000
    C64      C        0.74660    0.62170    0.02030    1.000
    C65      C        0.06340    0.60530    0.04050    1.000
    C66      C        0.99810    0.57310    0.08190    1.000
    C67      C        0.52640    0.73060    0.14120    1.000
    C68      C        0.52170    0.80170    0.19040    1.000
    C69      C        0.52360    0.78370    0.25270    1.000
    C70      C        0.51180    0.89800    0.41590    1.000
    C71      C        0.52050    0.83020    0.36370    1.000
    C72      C        0.51620    0.85030    0.30260    1.000
    N1       N        0.37430    0.89750    0.55577    1.000
    N2       N        0.68790    0.90960    0.56612    1.000
    N3       N        0.62570    0.39750    0.94423    1.000
    N4       N        0.31210    0.40960    0.93388    1.000
    N5       N        0.62570    0.10250    0.44423    1.000
    N6       N        0.31210    0.09040    0.43388    1.000
    N7       N        0.37430    0.60250    0.05577    1.000
    N8       N        0.68790    0.59040    0.06612    1.000
    O1       O        0.52590    0.85230    0.65760    1.000
    O2       O        0.52950    0.74890    0.58352    1.000
    O3       O        0.54440    0.62710    0.96885    1.000
    O4       O        0.47350    0.52790    0.90312    1.000
    O5       O        0.47410    0.35230    0.84240    1.000
    O6       O        0.47050    0.24890    0.91648    1.000
    O7       O        0.45560    0.12710    0.53115    1.000
    O8       O        0.52650    0.02790    0.59688    1.000
    O9       O        0.47410    0.14770    0.34240    1.000
    O10      O        0.47050    0.25110    0.41648    1.000
    O11      O        0.45560    0.37290    0.03115    1.000
    O12      O        0.52650    0.47210    0.09688    1.000
    O13      O        0.52590    0.64770    0.15760    1.000
    O14      O        0.52950    0.75110    0.08352    1.000
    O15      O        0.54440    0.87290    0.46885    1.000
    O16      O        0.47350    0.97210    0.40312    1.000
    Co5      Co       0.96908    0.09976    0.06194    1.000
    Co6      Co       0.03092    0.59976    0.43806    1.000
    Co7      Co       0.03092    0.90024    0.93806    1.000
    Co8      Co       0.96908    0.40024    0.56194    1.000
    H57      H        0.15110    0.03230    0.13380    1.000
    H58      H        0.31720    0.02930    0.12920    1.000
    H59      H        0.30280    0.17500    0.96770    1.000
    H60      H        0.13680    0.17490    0.97770    1.000
    H61      H        0.80700    0.02840    0.14880    1.000
    H62      H        0.64120    0.01790    0.15860    1.000
    H63      H        0.61600    0.14170    0.98910    1.000
    H64      H        0.78240    0.14780    0.98420    1.000
    H65      H        0.46110    0.13250    0.00340    1.000
    H66      H        0.47790    0.04440    0.11850    1.000
    H67      H        0.98290    0.36230    0.17740    1.000
    H68      H        0.96970    0.22290    0.26490    1.000
    H69      H        0.97050    0.26930    0.37510    1.000
    H70      H        0.99210    0.41120    0.29100    1.000
    H71      H        0.84890    0.53230    0.36620    1.000
    H72      H        0.68280    0.52930    0.37080    1.000
    H73      H        0.69720    0.67500    0.53230    1.000
    H74      H        0.86320    0.67490    0.52230    1.000
    H75      H        0.19300    0.52840    0.35120    1.000
    H76      H        0.35880    0.51790    0.34140    1.000
    H77      H        0.38400    0.64170    0.51090    1.000
    H78      H        0.21760    0.64780    0.51580    1.000
    H79      H        0.53890    0.63250    0.49660    1.000
    H80      H        0.52210    0.54440    0.38150    1.000
    H81      H        0.01710    0.86230    0.32260    1.000
    H82      H        0.03030    0.72290    0.23510    1.000
    H83      H        0.02950    0.76930    0.12490    1.000
    H84      H        0.00790    0.91120    0.20900    1.000
    H85      H        0.84890    0.96770    0.86620    1.000
    H86      H        0.68280    0.97070    0.87080    1.000
    H87      H        0.69720    0.82500    0.03230    1.000
    H88      H        0.86320    0.82510    0.02230    1.000
    H89      H        0.19300    0.97160    0.85120    1.000
    H90      H        0.35880    0.98210    0.84140    1.000
    H91      H        0.38400    0.85830    0.01090    1.000
    H92      H        0.21760    0.85220    0.01580    1.000
    H93      H        0.53890    0.86750    0.99660    1.000
    H94      H        0.52210    0.95560    0.88150    1.000
    H95      H        0.01710    0.63770    0.82260    1.000
    H96      H        0.03030    0.77710    0.73510    1.000
    H97      H        0.02950    0.73070    0.62490    1.000
    H98      H        0.00790    0.58880    0.70900    1.000
    H99      H        0.15110    0.46770    0.63380    1.000
    H100     H        0.31720    0.47070    0.62920    1.000
    H101     H        0.30280    0.32500    0.46770    1.000
    H102     H        0.13680    0.32510    0.47770    1.000
    H103     H        0.80700    0.47160    0.64880    1.000
    H104     H        0.64120    0.48210    0.65860    1.000
    H105     H        0.61600    0.35830    0.48910    1.000
    H106     H        0.78240    0.35220    0.48420    1.000
    H107     H        0.46110    0.36750    0.50340    1.000
    H108     H        0.47790    0.45560    0.61850    1.000
    H109     H        0.98290    0.13770    0.67740    1.000
    H110     H        0.96970    0.27710    0.76490    1.000
    H111     H        0.97050    0.23070    0.87510    1.000
    H112     H        0.99210    0.08880    0.79100    1.000
    C73      C        0.18210    0.06140    0.09960    1.000
    C74      C        0.28180    0.05940    0.09730    1.000
    C75      C        0.33090    0.10220    0.04750    1.000
    C76      C        0.27360    0.14530    0.00230    1.000
    C77      C        0.17380    0.14430    0.00860    1.000
    C78      C        0.76780    0.05210    0.11610    1.000
    C79      C        0.66830    0.04530    0.12230    1.000
    C80      C        0.60760    0.07890    0.07480    1.000
    C81      C        0.65330    0.11790    0.02270    1.000
    C82      C        0.75340    0.12170    0.02030    1.000
    C83      C        0.43660    0.10530    0.04050    1.000
    C84      C        0.50190    0.07310    0.08190    1.000
    C85      C        0.97360    0.23060    0.14120    1.000
    C86      C        0.97830    0.30170    0.19040    1.000
    C87      C        0.97640    0.28370    0.25270    1.000
    C88      C        0.98820    0.39800    0.41590    1.000
    C89      C        0.97950    0.33020    0.36370    1.000
    C90      C        0.98380    0.35030    0.30260    1.000
    C91      C        0.81790    0.56140    0.40040    1.000
    C92      C        0.71820    0.55940    0.40270    1.000
    C93      C        0.66910    0.60220    0.45250    1.000
    C94      C        0.72640    0.64530    0.49770    1.000
    C95      C        0.82620    0.64430    0.49140    1.000
    C96      C        0.23220    0.55210    0.38390    1.000
    C97      C        0.33170    0.54530    0.37770    1.000
    C98      C        0.39240    0.57890    0.42520    1.000
    C99      C        0.34670    0.61790    0.47730    1.000
    C100     C        0.24660    0.62170    0.47970    1.000
    C101     C        0.56340    0.60530    0.45950    1.000
    C102     C        0.49810    0.57310    0.41810    1.000
    C103     C        0.02640    0.73060    0.35880    1.000
    C104     C        0.02170    0.80170    0.30960    1.000
    C105     C        0.02360    0.78370    0.24730    1.000
    C106     C        0.01180    0.89800    0.08410    1.000
    C107     C        0.02050    0.83020    0.13630    1.000
    C108     C        0.01620    0.85030    0.19740    1.000
    C109     C        0.81790    0.93860    0.90040    1.000
    C110     C        0.71820    0.94060    0.90270    1.000
    C111     C        0.66910    0.89780    0.95250    1.000
    C112     C        0.72640    0.85470    0.99770    1.000
    C113     C        0.82620    0.85570    0.99140    1.000
    C114     C        0.23220    0.94790    0.88390    1.000
    C115     C        0.33170    0.95470    0.87770    1.000
    C116     C        0.39240    0.92110    0.92520    1.000
    C117     C        0.34670    0.88210    0.97730    1.000
    C118     C        0.24660    0.87830    0.97970    1.000
    C119     C        0.56340    0.89470    0.95950    1.000
    C120     C        0.49810    0.92690    0.91810    1.000
    C121     C        0.02640    0.76940    0.85880    1.000
    C122     C        0.02170    0.69830    0.80960    1.000
    C123     C        0.02360    0.71630    0.74730    1.000
    C124     C        0.01180    0.60200    0.58410    1.000
    C125     C        0.02050    0.66980    0.63630    1.000
    C126     C        0.01620    0.64970    0.69740    1.000
    C127     C        0.18210    0.43860    0.59960    1.000
    C128     C        0.28180    0.44060    0.59730    1.000
    C129     C        0.33090    0.39780    0.54750    1.000
    C130     C        0.27360    0.35470    0.50230    1.000
    C131     C        0.17380    0.35570    0.50860    1.000
    C132     C        0.76780    0.44790    0.61610    1.000
    C133     C        0.66830    0.45470    0.62230    1.000
    C134     C        0.60760    0.42110    0.57480    1.000
    C135     C        0.65330    0.38210    0.52270    1.000
    C136     C        0.75340    0.37830    0.52030    1.000
    C137     C        0.43660    0.39470    0.54050    1.000
    C138     C        0.50190    0.42690    0.58190    1.000
    C139     C        0.97360    0.26940    0.64120    1.000
    C140     C        0.97830    0.19830    0.69040    1.000
    C141     C        0.97640    0.21630    0.75270    1.000
    C142     C        0.98820    0.10200    0.91590    1.000
    C143     C        0.97950    0.16980    0.86370    1.000
    C144     C        0.98380    0.14970    0.80260    1.000
    N9       N        0.12570    0.10250    0.05577    1.000
    N10      N        0.81210    0.09040    0.06612    1.000
    N11      N        0.87430    0.60250    0.44423    1.000
    N12      N        0.18790    0.59040    0.43388    1.000
    N13      N        0.87430    0.89750    0.94423    1.000
    N14      N        0.18790    0.90960    0.93388    1.000
    N15      N        0.12570    0.39750    0.55577    1.000
    N16      N        0.81210    0.40960    0.56612    1.000
    O17      O        0.97410    0.14770    0.15760    1.000
    O18      O        0.97050    0.25110    0.08352    1.000
    O19      O        0.95560    0.37290    0.46885    1.000
    O20      O        0.02650    0.47210    0.40312    1.000
    O21      O        0.02590    0.64770    0.34240    1.000
    O22      O        0.02950    0.75110    0.41648    1.000
    O23      O        0.04440    0.87290    0.03115    1.000
    O24      O        0.97350    0.97210    0.09688    1.000
    O25      O        0.02590    0.85230    0.84240    1.000
    O26      O        0.02950    0.74890    0.91648    1.000
    O27      O        0.04440    0.62710    0.53115    1.000
    O28      O        0.97350    0.52790    0.59688    1.000
    O29      O        0.97410    0.35230    0.65760    1.000
    O30      O        0.97050    0.24890    0.58352    1.000
    O31      O        0.95560    0.12710    0.96885    1.000
    O32      O        0.02650    0.02790    0.90312    1.000
