# CIF file generated by openbabel 3.1.0, see https://openbabel.org
data_I
_chemical_name_common 'VARREL_clean'
_cell_length_a 9.272
_cell_length_b 9.272
_cell_length_c 17.716
_cell_angle_alpha 90
_cell_angle_beta 90
_cell_angle_gamma 120
_space_group_name_H-M_alt 'P 1'
_space_group_name_Hall 'P 1'
loop_
    _symmetry_equiv_pos_as_xyz
    x,y,z
loop_
    _atom_site_label
    _atom_site_type_symbol
    _atom_site_fract_x
    _atom_site_fract_y
    _atom_site_fract_z
    _atom_site_occupancy
    La1      La       0.33333    0.66666    0.75000    1.000
    La2      La       0.66667    0.33334    0.25000    1.000
    Gd1      Gd       0.00000    0.00000    0.00000    1.000
    Gd2      Gd       0.00000    0.00000    0.50000    1.000
    H1       H        0.57350    0.59980    0.91810    1.000
    H2       H        0.50950    0.67760    0.97650    1.000
    H3       H        0.02630    0.42650    0.91810    1.000
    H4       H        0.16810    0.49050    0.97650    1.000
    H5       H        0.40020    0.97370    0.91810    1.000
    H6       H        0.32240    0.83190    0.97650    1.000
    H7       H        0.57350    0.59980    0.58190    1.000
    H8       H        0.50950    0.67760    0.52350    1.000
    H9       H        0.02630    0.42650    0.58190    1.000
    H10      H        0.16810    0.49050    0.52350    1.000
    H11      H        0.40020    0.97370    0.58190    1.000
    H12      H        0.32240    0.83190    0.52350    1.000
    H13      H        0.97370    0.40020    0.08190    1.000
    H14      H        0.83190    0.32240    0.02350    1.000
    H15      H        0.59980    0.57350    0.08190    1.000
    H16      H        0.67760    0.50950    0.02350    1.000
    H17      H        0.42650    0.02630    0.08190    1.000
    H18      H        0.49050    0.16810    0.02350    1.000
    H19      H        0.97370    0.40020    0.41810    1.000
    H20      H        0.83190    0.32240    0.47650    1.000
    H21      H        0.59980    0.57350    0.41810    1.000
    H22      H        0.67760    0.50950    0.47650    1.000
    H23      H        0.42650    0.02630    0.41810    1.000
    H24      H        0.49050    0.16810    0.47650    1.000
    C1       C        0.65720    0.84130    0.89530    1.000
    C2       C        0.60320    0.69570    0.94780    1.000
    C3       C        0.18410    0.34280    0.89530    1.000
    C4       C        0.09250    0.39680    0.94780    1.000
    C5       C        0.15870    0.81590    0.89530    1.000
    C6       C        0.30430    0.90750    0.94780    1.000
    C7       C        0.65720    0.84130    0.60470    1.000
    C8       C        0.60320    0.69570    0.55220    1.000
    C9       C        0.18410    0.34280    0.60470    1.000
    C10      C        0.09250    0.39680    0.55220    1.000
    C11      C        0.15870    0.81590    0.60470    1.000
    C12      C        0.30430    0.90750    0.55220    1.000
    C13      C        0.81590    0.15870    0.10470    1.000
    C14      C        0.90750    0.30430    0.05220    1.000
    C15      C        0.84130    0.65720    0.10470    1.000
    C16      C        0.69570    0.60320    0.05220    1.000
    C17      C        0.34280    0.18410    0.10470    1.000
    C18      C        0.39680    0.09250    0.05220    1.000
    C19      C        0.81590    0.15870    0.39530    1.000
    C20      C        0.90750    0.30430    0.44780    1.000
    C21      C        0.84130    0.65720    0.39530    1.000
    C22      C        0.69570    0.60320    0.44780    1.000
    C23      C        0.34280    0.18410    0.39530    1.000
    C24      C        0.39680    0.09250    0.44780    1.000
    O1       O        0.79550    0.96790    0.90713    1.000
    O2       O        0.55900    0.82710    0.84415    1.000
    O3       O        0.17240    0.20450    0.90713    1.000
    O4       O        0.26810    0.44100    0.84415    1.000
    O5       O        0.03210    0.82760    0.90713    1.000
    O6       O        0.17290    0.73190    0.84415    1.000
    O7       O        0.79550    0.96790    0.59287    1.000
    O8       O        0.55900    0.82710    0.65585    1.000
    O9       O        0.17240    0.20450    0.59287    1.000
    O10      O        0.26810    0.44100    0.65585    1.000
    O11      O        0.03210    0.82760    0.59287    1.000
    O12      O        0.17290    0.73190    0.65585    1.000
    O13      O        0.82760    0.03210    0.09287    1.000
    O14      O        0.73190    0.17290    0.15585    1.000
    O15      O        0.96790    0.79550    0.09287    1.000
    O16      O        0.82710    0.55900    0.15585    1.000
    O17      O        0.20450    0.17240    0.09287    1.000
    O18      O        0.44100    0.26810    0.15585    1.000
    O19      O        0.82760    0.03210    0.40713    1.000
    O20      O        0.73190    0.17290    0.34415    1.000
    O21      O        0.96790    0.79550    0.40713    1.000
    O22      O        0.82710    0.55900    0.34415    1.000
    O23      O        0.20450    0.17240    0.40713    1.000
    O24      O        0.44100    0.26810    0.34415    1.000
    O25      O        0.73170    0.73170    0.00000    1.000
    O26      O        0.00000    0.26830    0.00000    1.000
    O27      O        0.26830    0.00000    0.00000    1.000
    O28      O        0.73170    0.73170    0.50000    1.000
    O29      O        0.00000    0.26830    0.50000    1.000
    O30      O        0.26830    0.00000    0.50000    1.000
