data_functionalizedCrystal
_audit_creation_method	'EQeq! by Chris Wilmer'
_symmetry_space_group_name_H-M	'P1'
_symmetry_Int_Tables_number	1
_symmetry_cell_setting	triclinic
loop_
_symmetry_equiv_pos_as_xyz
  x,y,z
_cell_length_a	17.884
_cell_length_b	11.797
_cell_length_c	20.243
_cell_angle_alpha	90
_cell_angle_beta	111.77
_cell_angle_gamma	90
loop_
_atom_site_label
_atom_site_type_symbol
_atom_site_fract_x
_atom_site_fract_y
_atom_site_fract_z
_atom_site_charge
Mof_C 	C 	0.5097	0.3682	0.4012	0.509
Mof_H 	H 	0.5093	0.2898	0.4056	-0.131
Mof_C 	C 	0.516	0.3192	0.1023	0.421
Mof_H 	H 	0.5185	0.3974	0.1083	-0.089
Mof_C 	C 	0.5054	0.5786	0.2324	0.501
Mof_H 	H 	0.481	0.5741	0.2657	-0.158
Mof_C 	C 	0.6812	0.1076	0.0781	0.106
Mof_H 	H 	0.6688	0.1333	0.0319	-0.013
Mof_C 	C 	0.6702	0.0519	0.1745	0.009
Mof_H 	H 	0.6483	0.0325	0.2081	0.026
Mof_C 	C 	0.7488	0.0474	0.1848	0.005
Mof_H 	H 	0.7905	0.0235	0.2258	0.036
Mof_C 	C 	0.8283	0.0911	0.1085	0.128
Mof_C 	C 	0.8902	0.0171	0.1404	-0.126
Mof_H 	H 	0.8854	0.9621	0.1716	0.083
Mof_C 	C 	0.9599	0.0244	0.1261	-0.01
Mof_H 	H 	0.0016	0.9736	0.1479	0.04
Mof_C 	C 	0.9696	0.1052	0.0803	-0.004
Mof_C 	C 	0.9061	0.1794	0.0498	-0.007
Mof_H 	H 	0.9105	0.2348	0.0188	0.029
Mof_C 	C 	0.8365	0.1738	0.0639	-0.127
Mof_H 	H 	0.7953	0.2259	0.0434	0.076
Mof_C 	C 	0.3312	0.102	0.0551	0.11
Mof_H 	H 	0.3456	0.0623	0.0978	-0.012
Mof_C 	C 	0.3367	0.1854	0.9637	0.003
Mof_H 	H 	0.3563	0.2146	0.9306	0.027
Mof_C 	C 	0.2605	0.194	0.9597	0.01
Mof_H 	H 	0.2183	0.2296	0.9238	0.027
Mof_C 	C 	0.1855	0.1311	0.0357	0.133
Mof_C 	C 	0.1236	0.2058	0.0069	-0.132
Mof_H 	H 	0.1281	0.2634	0.9772	0.077
Mof_C 	C 	0.055	0.1967	0.0213	0
Mof_H 	H 	0.0137	0.2487	0.001	0.027
Mof_C 	C 	0.0449	0.1132	0.065	-0.01
Mof_C 	C 	0.1088	0.0392	0.0942	-0.003
Mof_H 	H 	0.105	0.9823	0.1247	0.037
Mof_C 	C 	0.1782	0.0476	0.0794	-0.133
Mof_H 	H 	0.2199	0.9962	0.0993	0.086
Mof_C 	C 	0.3318	0.3041	0.2281	0.098
Mof_H 	H 	0.3448	0.2609	0.2692	0.002
Mof_C 	C 	0.341	0.4009	0.1419	0.005
Mof_H 	H 	0.3627	0.4379	0.1125	0.029
Mof_C 	C 	0.2625	0.3957	0.1306	0.004
Mof_H 	H 	0.2205	0.4272	0.0926	0.027
Mof_C 	C 	0.1834	0.3151	0.2004	0.118
Mof_C 	C 	0.117	0.3821	0.1667	-0.121
Mof_H 	H 	0.1182	0.4357	0.1334	0.071
Mof_C 	C 	0.0487	0.3696	0.1823	-0.014
Mof_H 	H 	0.0042	0.4152	0.1592	0.032
Mof_C 	C 	0.0445	0.2904	0.232	-0.007
Mof_C 	C 	0.1119	0.2225	0.2636	-0.013
Mof_H 	H 	0.1107	0.1677	0.2962	0.032
Mof_C 	C 	0.1805	0.2337	0.2482	-0.123
Mof_H 	H 	0.2246	0.1866	0.2699	0.077
Mof_C 	C 	0.6918	0.319	0.2688	0.099
Mof_H 	H 	0.6809	0.3608	0.2273	-0.002
Mof_C 	C 	0.6793	0.2343	0.3571	0.001
Mof_H 	H 	0.6571	0.2057	0.3885	0.03
Mof_C 	C 	0.7564	0.2212	0.364	0.004
Mof_H 	H 	0.7963	0.1829	0.4004	0.024
Mof_C 	C 	0.8352	0.279	0.2888	0.121
Mof_C 	C 	0.8361	0.3466	0.2338	-0.129
Mof_H 	H 	0.7919	0.3918	0.2093	0.079
Mof_C 	C 	0.9025	0.347	0.2154	-0.004
Mof_H 	H 	0.9014	0.3911	0.177	0.03
Mof_C 	C 	0.9718	0.2844	0.2517	-0.013
Mof_C 	C 	0.969	0.2182	0.3075	-0.008
Mof_H 	H 	0.0137	0.1746	0.3333	0.029
Mof_C 	C 	0.9022	0.2152	0.326	-0.127
Mof_H 	H 	0.9024	0.1699	0.3636	0.072
Mof_Co	Co	0.51216	0.32728	0.25097	1.18
Mof_Co	Co	0.50435	0.10795	0.05348	1.161
Mof_N 	N 	0.6275	0.0895	0.1071	-0.234
Mof_N 	N 	0.7558	0.0847	0.1234	-0.143
Mof_N 	N 	0.3812	0.1272	0.0236	-0.236
Mof_N 	N 	0.2564	0.1406	0.0182	-0.146
Mof_N 	N 	0.3849	0.3439	0.203	-0.217
Mof_N 	N 	0.2558	0.3344	0.1863	-0.14
Mof_N 	N 	0.6378	0.296	0.2971	-0.217
Mof_N 	N 	0.7651	0.2749	0.3072	-0.143
Mof_O 	O 	0.5071	0.4286	0.45231	-0.575
Mof_O 	O 	0.5126	0.4085	0.34623	-0.473
Mof_O 	O 	0.5161	0.2801	0.04508	-0.425
Mof_O 	O 	0.5128	0.2597	0.1519	-0.482
Mof_O 	O 	0.5305	0.4886	0.21652	-0.439
Mof_O 	O 	0.5096	0.6737	0.20834	-0.445
Mof_C 	C 	0.4903	0.8682	0.0988	0.508
Mof_H 	H 	0.4907	0.7898	0.0944	-0.132
Mof_C 	C 	0.484	0.8192	0.3977	0.42
Mof_H 	H 	0.4815	0.8974	0.3917	-0.089
Mof_C 	C 	0.4946	0.0786	0.2676	0.5
Mof_H 	H 	0.519	0.0741	0.2343	-0.158
Mof_C 	C 	0.3188	0.6076	0.4219	0.106
Mof_H 	H 	0.3312	0.6333	0.4681	-0.012
Mof_C 	C 	0.3298	0.5519	0.3255	0.009
Mof_H 	H 	0.3517	0.5325	0.2919	0.026
Mof_C 	C 	0.2512	0.5474	0.3152	0.005
Mof_H 	H 	0.2095	0.5235	0.2742	0.037
Mof_C 	C 	0.1717	0.5911	0.3915	0.128
Mof_C 	C 	0.1098	0.5171	0.3596	-0.125
Mof_H 	H 	0.1146	0.4621	0.3284	0.082
Mof_C 	C 	0.0401	0.5244	0.3739	-0.007
Mof_H 	H 	0.9984	0.4736	0.3521	0.038
Mof_C 	C 	0.0304	0.6052	0.4197	-0.004
Mof_C 	C 	0.0939	0.6794	0.4502	-0.007
Mof_H 	H 	0.0895	0.7348	0.4812	0.03
Mof_C 	C 	0.1635	0.6738	0.4361	-0.127
Mof_H 	H 	0.2047	0.7259	0.4566	0.077
Mof_C 	C 	0.6688	0.602	0.4449	0.11
Mof_H 	H 	0.6544	0.5623	0.4022	-0.012
Mof_C 	C 	0.6633	0.6854	0.5363	0.002
Mof_H 	H 	0.6437	0.7146	0.5694	0.027
Mof_C 	C 	0.7395	0.694	0.5403	0.01
Mof_H 	H 	0.7817	0.7296	0.5762	0.027
Mof_C 	C 	0.8145	0.6311	0.4643	0.132
Mof_C 	C 	0.8764	0.7058	0.4931	-0.131
Mof_H 	H 	0.8719	0.7634	0.5228	0.076
Mof_C 	C 	0.945	0.6967	0.4787	-0
Mof_H 	H 	0.9863	0.7487	0.499	0.027
Mof_C 	C 	0.9551	0.6132	0.435	-0.01
Mof_C 	C 	0.8912	0.5392	0.4058	-0.002
Mof_H 	H 	0.895	0.4823	0.3753	0.036
Mof_C 	C 	0.8218	0.5476	0.4206	-0.131
Mof_H 	H 	0.7801	0.4962	0.4007	0.084
Mof_C 	C 	0.6682	0.8041	0.2719	0.098
Mof_H 	H 	0.6552	0.7609	0.2308	0.002
Mof_C 	C 	0.659	0.9009	0.3581	0.005
Mof_H 	H 	0.6373	0.9379	0.3875	0.029
Mof_C 	C 	0.7375	0.8957	0.3694	0.004
Mof_H 	H 	0.7795	0.9272	0.4074	0.027
Mof_C 	C 	0.8166	0.8151	0.2996	0.118
Mof_C 	C 	0.883	0.8821	0.3333	-0.122
Mof_H 	H 	0.8818	0.9357	0.3666	0.071
Mof_C 	C 	0.9513	0.8696	0.3177	-0.014
Mof_H 	H 	0.9958	0.9152	0.3408	0.031
Mof_C 	C 	0.9555	0.7904	0.268	-0.008
Mof_C 	C 	0.8881	0.7225	0.2364	-0.012
Mof_H 	H 	0.8893	0.6677	0.2038	0.032
Mof_C 	C 	0.8195	0.7337	0.2518	-0.124
Mof_H 	H 	0.7754	0.6866	0.2301	0.078
Mof_C 	C 	0.3082	0.819	0.2312	0.099
Mof_H 	H 	0.3191	0.8608	0.2727	-0.002
Mof_C 	C 	0.3207	0.7343	0.1429	0.001
Mof_H 	H 	0.3429	0.7057	0.1115	0.03
Mof_C 	C 	0.2436	0.7212	0.136	0.004
Mof_H 	H 	0.2037	0.6829	0.0996	0.024
Mof_C 	C 	0.1648	0.779	0.2112	0.121
Mof_C 	C 	0.1639	0.8466	0.2662	-0.129
Mof_H 	H 	0.2081	0.8918	0.2907	0.079
Mof_C 	C 	0.0975	0.847	0.2846	-0.004
Mof_H 	H 	0.0986	0.8911	0.323	0.03
Mof_C 	C 	0.0282	0.7844	0.2483	-0.012
Mof_C 	C 	0.031	0.7182	0.1925	-0.007
Mof_H 	H 	0.9863	0.6746	0.1667	0.028
Mof_C 	C 	0.0978	0.7152	0.174	-0.127
Mof_H 	H 	0.0976	0.6699	0.1364	0.072
Mof_Co	Co	0.48784	0.82728	0.24903	1.18
Mof_Co	Co	0.49565	0.60795	0.44652	1.161
Mof_N 	N 	0.3725	0.5895	0.3929	-0.234
Mof_N 	N 	0.2442	0.5847	0.3766	-0.143
Mof_N 	N 	0.6188	0.6272	0.4764	-0.236
Mof_N 	N 	0.7436	0.6406	0.4818	-0.145
Mof_N 	N 	0.6151	0.8439	0.297	-0.217
Mof_N 	N 	0.7442	0.8344	0.3137	-0.14
Mof_N 	N 	0.3622	0.796	0.2029	-0.217
Mof_N 	N 	0.2349	0.7749	0.1928	-0.143
Mof_O 	O 	0.4929	0.9286	0.04769	-0.574
Mof_O 	O 	0.4874	0.9085	0.15377	-0.472
Mof_O 	O 	0.4839	0.7801	0.45492	-0.425
Mof_O 	O 	0.4872	0.7597	0.3481	-0.482
Mof_O 	O 	0.4695	0.9886	0.28348	-0.439
Mof_O 	O 	0.4904	0.1737	0.29166	-0.445
Mof_C 	C 	0.4903	0.6318	0.5988	0.508
Mof_H 	H 	0.4907	0.7102	0.5944	-0.132
Mof_C 	C 	0.484	0.6808	0.8977	0.421
Mof_H 	H 	0.4815	0.6026	0.8917	-0.089
Mof_C 	C 	0.4946	0.4214	0.7676	0.501
Mof_H 	H 	0.519	0.4259	0.7343	-0.158
Mof_C 	C 	0.3188	0.8924	0.9219	0.106
Mof_H 	H 	0.3312	0.8667	0.9681	-0.013
Mof_C 	C 	0.3298	0.9481	0.8255	0.009
Mof_H 	H 	0.3517	0.9675	0.7919	0.026
Mof_C 	C 	0.2512	0.9526	0.8152	0.005
Mof_H 	H 	0.2095	0.9765	0.7742	0.036
Mof_C 	C 	0.1717	0.9089	0.8915	0.128
Mof_C 	C 	0.1098	0.9829	0.8596	-0.126
Mof_H 	H 	0.1146	0.0379	0.8284	0.083
Mof_C 	C 	0.0401	0.9756	0.8739	-0.01
Mof_H 	H 	0.9984	0.0264	0.8521	0.04
Mof_C 	C 	0.0304	0.8948	0.9197	-0.004
Mof_C 	C 	0.0939	0.8206	0.9502	-0.007
Mof_H 	H 	0.0895	0.7652	0.9812	0.029
Mof_C 	C 	0.1635	0.8262	0.9361	-0.127
Mof_H 	H 	0.2047	0.7741	0.9566	0.076
Mof_C 	C 	0.6688	0.898	0.9449	0.11
Mof_H 	H 	0.6544	0.9377	0.9022	-0.012
Mof_C 	C 	0.6633	0.8146	0.0363	0.003
Mof_H 	H 	0.6437	0.7854	0.0694	0.027
Mof_C 	C 	0.7395	0.806	0.0403	0.01
Mof_H 	H 	0.7817	0.7704	0.0762	0.027
Mof_C 	C 	0.8145	0.8689	0.9643	0.133
Mof_C 	C 	0.8764	0.7942	0.9931	-0.132
Mof_H 	H 	0.8719	0.7366	0.0228	0.077
Mof_C 	C 	0.945	0.8033	0.9787	0
Mof_H 	H 	0.9863	0.7513	0.999	0.027
Mof_C 	C 	0.9551	0.8868	0.935	-0.01
Mof_C 	C 	0.8912	0.9608	0.9058	-0.003
Mof_H 	H 	0.895	0.0177	0.8753	0.037
Mof_C 	C 	0.8218	0.9524	0.9206	-0.133
Mof_H 	H 	0.7801	0.0038	0.9007	0.086
Mof_C 	C 	0.6682	0.6959	0.7719	0.098
Mof_H 	H 	0.6552	0.7391	0.7308	0.002
Mof_C 	C 	0.659	0.5991	0.8581	0.005
Mof_H 	H 	0.6373	0.5621	0.8875	0.029
Mof_C 	C 	0.7375	0.6043	0.8694	0.004
Mof_H 	H 	0.7795	0.5728	0.9074	0.027
Mof_C 	C 	0.8166	0.6849	0.7996	0.118
Mof_C 	C 	0.883	0.6179	0.8333	-0.121
Mof_H 	H 	0.8818	0.5643	0.8666	0.071
Mof_C 	C 	0.9513	0.6304	0.8177	-0.014
Mof_H 	H 	0.9958	0.5848	0.8408	0.032
Mof_C 	C 	0.9555	0.7096	0.768	-0.007
Mof_C 	C 	0.8881	0.7775	0.7364	-0.013
Mof_H 	H 	0.8893	0.8323	0.7038	0.032
Mof_C 	C 	0.8195	0.7663	0.7518	-0.123
Mof_H 	H 	0.7754	0.8134	0.7301	0.077
Mof_C 	C 	0.3082	0.681	0.7312	0.099
Mof_H 	H 	0.3191	0.6392	0.7727	-0.002
Mof_C 	C 	0.3207	0.7657	0.6429	0.001
Mof_H 	H 	0.3429	0.7943	0.6115	0.03
Mof_C 	C 	0.2436	0.7788	0.636	0.004
Mof_H 	H 	0.2037	0.8171	0.5996	0.024
Mof_C 	C 	0.1648	0.721	0.7112	0.121
Mof_C 	C 	0.1639	0.6534	0.7662	-0.129
Mof_H 	H 	0.2081	0.6082	0.7907	0.079
Mof_C 	C 	0.0975	0.653	0.7846	-0.004
Mof_H 	H 	0.0986	0.6089	0.823	0.03
Mof_C 	C 	0.0282	0.7156	0.7483	-0.013
Mof_C 	C 	0.031	0.7818	0.6925	-0.008
Mof_H 	H 	0.9863	0.8254	0.6667	0.029
Mof_C 	C 	0.0978	0.7848	0.674	-0.127
Mof_H 	H 	0.0976	0.8301	0.6364	0.072
Mof_Co	Co	0.48784	0.67272	0.74903	1.18
Mof_Co	Co	0.49565	0.89205	0.94652	1.161
Mof_N 	N 	0.3725	0.9105	0.8929	-0.234
Mof_N 	N 	0.2442	0.9153	0.8766	-0.143
Mof_N 	N 	0.6188	0.8728	0.9764	-0.236
Mof_N 	N 	0.7436	0.8594	0.9818	-0.146
Mof_N 	N 	0.6151	0.6561	0.797	-0.217
Mof_N 	N 	0.7442	0.6656	0.8137	-0.14
Mof_N 	N 	0.3622	0.704	0.7029	-0.217
Mof_N 	N 	0.2349	0.7251	0.6928	-0.143
Mof_O 	O 	0.4929	0.5714	0.54769	-0.575
Mof_O 	O 	0.4874	0.5915	0.65377	-0.473
Mof_O 	O 	0.4839	0.7199	0.95492	-0.425
Mof_O 	O 	0.4872	0.7403	0.8481	-0.482
Mof_O 	O 	0.4695	0.5114	0.78348	-0.439
Mof_O 	O 	0.4904	0.3263	0.79166	-0.445
Mof_C 	C 	0.5097	0.1318	0.9012	0.508
Mof_H 	H 	0.5093	0.2102	0.9056	-0.132
Mof_C 	C 	0.516	0.1808	0.6023	0.42
Mof_H 	H 	0.5185	0.1026	0.6083	-0.089
Mof_C 	C 	0.5054	0.9214	0.7324	0.5
Mof_H 	H 	0.481	0.9259	0.7657	-0.158
Mof_C 	C 	0.6812	0.3924	0.5781	0.106
Mof_H 	H 	0.6688	0.3667	0.5319	-0.012
Mof_C 	C 	0.6702	0.4481	0.6745	0.009
Mof_H 	H 	0.6483	0.4675	0.7081	0.026
Mof_C 	C 	0.7488	0.4526	0.6848	0.005
Mof_H 	H 	0.7905	0.4765	0.7258	0.037
Mof_C 	C 	0.8283	0.4089	0.6085	0.128
Mof_C 	C 	0.8902	0.4829	0.6404	-0.125
Mof_H 	H 	0.8854	0.5379	0.6716	0.082
Mof_C 	C 	0.9599	0.4756	0.6261	-0.007
Mof_H 	H 	0.0016	0.5264	0.6479	0.038
Mof_C 	C 	0.9696	0.3948	0.5803	-0.004
Mof_C 	C 	0.9061	0.3206	0.5498	-0.007
Mof_H 	H 	0.9105	0.2652	0.5188	0.03
Mof_C 	C 	0.8365	0.3262	0.5639	-0.127
Mof_H 	H 	0.7953	0.2741	0.5434	0.077
Mof_C 	C 	0.3312	0.398	0.5551	0.11
Mof_H 	H 	0.3456	0.4377	0.5978	-0.012
Mof_C 	C 	0.3367	0.3146	0.4637	0.002
Mof_H 	H 	0.3563	0.2854	0.4306	0.027
Mof_C 	C 	0.2605	0.306	0.4597	0.01
Mof_H 	H 	0.2183	0.2704	0.4238	0.027
Mof_C 	C 	0.1855	0.3689	0.5357	0.132
Mof_C 	C 	0.1236	0.2942	0.5069	-0.131
Mof_H 	H 	0.1281	0.2366	0.4772	0.076
Mof_C 	C 	0.055	0.3033	0.5213	-0
Mof_H 	H 	0.0137	0.2513	0.501	0.027
Mof_C 	C 	0.0449	0.3868	0.565	-0.01
Mof_C 	C 	0.1088	0.4608	0.5942	-0.002
Mof_H 	H 	0.105	0.5177	0.6247	0.036
Mof_C 	C 	0.1782	0.4524	0.5794	-0.131
Mof_H 	H 	0.2199	0.5038	0.5993	0.084
Mof_C 	C 	0.3318	0.1959	0.7281	0.098
Mof_H 	H 	0.3448	0.2391	0.7692	0.002
Mof_C 	C 	0.341	0.0991	0.6419	0.005
Mof_H 	H 	0.3627	0.0621	0.6125	0.029
Mof_C 	C 	0.2625	0.1043	0.6306	0.004
Mof_H 	H 	0.2205	0.0728	0.5926	0.027
Mof_C 	C 	0.1834	0.1849	0.7004	0.118
Mof_C 	C 	0.117	0.1179	0.6667	-0.122
Mof_H 	H 	0.1182	0.0643	0.6334	0.071
Mof_C 	C 	0.0487	0.1304	0.6823	-0.014
Mof_H 	H 	0.0042	0.0848	0.6592	0.031
Mof_C 	C 	0.0445	0.2096	0.732	-0.008
Mof_C 	C 	0.1119	0.2775	0.7636	-0.012
Mof_H 	H 	0.1107	0.3323	0.7962	0.032
Mof_C 	C 	0.1805	0.2663	0.7482	-0.124
Mof_H 	H 	0.2246	0.3134	0.7699	0.078
Mof_C 	C 	0.6918	0.181	0.7688	0.099
Mof_H 	H 	0.6809	0.1392	0.7273	-0.002
Mof_C 	C 	0.6793	0.2657	0.8571	0.001
Mof_H 	H 	0.6571	0.2943	0.8885	0.03
Mof_C 	C 	0.7564	0.2788	0.864	0.004
Mof_H 	H 	0.7963	0.3171	0.9004	0.024
Mof_C 	C 	0.8352	0.221	0.7888	0.121
Mof_C 	C 	0.8361	0.1534	0.7338	-0.129
Mof_H 	H 	0.7919	0.1082	0.7093	0.079
Mof_C 	C 	0.9025	0.153	0.7154	-0.004
Mof_H 	H 	0.9014	0.1089	0.677	0.03
Mof_C 	C 	0.9718	0.2156	0.7517	-0.012
Mof_C 	C 	0.969	0.2818	0.8075	-0.007
Mof_H 	H 	0.0137	0.3254	0.8333	0.028
Mof_C 	C 	0.9022	0.2848	0.826	-0.127
Mof_H 	H 	0.9024	0.3301	0.8636	0.072
Mof_Co	Co	0.51216	0.17272	0.75097	1.18
Mof_Co	Co	0.50435	0.39205	0.55348	1.161
Mof_N 	N 	0.6275	0.4105	0.6071	-0.234
Mof_N 	N 	0.7558	0.4153	0.6234	-0.143
Mof_N 	N 	0.3812	0.3728	0.5236	-0.236
Mof_N 	N 	0.2564	0.3594	0.5182	-0.145
Mof_N 	N 	0.3849	0.1561	0.703	-0.217
Mof_N 	N 	0.2558	0.1656	0.6863	-0.14
Mof_N 	N 	0.6378	0.204	0.7971	-0.217
Mof_N 	N 	0.7651	0.2251	0.8072	-0.143
Mof_O 	O 	0.5071	0.0714	0.95231	-0.574
Mof_O 	O 	0.5126	0.0915	0.84623	-0.472
Mof_O 	O 	0.5161	0.2199	0.54508	-0.425
Mof_O 	O 	0.5128	0.2403	0.6519	-0.482
Mof_O 	O 	0.5305	0.0114	0.71652	-0.439
Mof_O 	O 	0.5096	0.8263	0.70834	-0.445
_end
