# CIF file generated by openbabel 3.1.0, see https://openbabel.org
data_I
_chemical_name_common 'image0'
_cell_length_a 29.243
_cell_length_b 10.394
_cell_length_c 26.164
_cell_angle_alpha 90
_cell_angle_beta 114.57
_cell_angle_gamma 90
_space_group_name_H-M_alt 'P 1'
_space_group_name_Hall 'P 1'
loop_
    _symmetry_equiv_pos_as_xyz
    x,y,z
loop_
    _atom_site_label
    _atom_site_type_symbol
    _atom_site_fract_x
    _atom_site_fract_y
    _atom_site_fract_z
    _atom_site_occupancy
    Zn1      Zn       0.82090    0.62825    0.25307    1.000
    K1       K        0.77383    0.36425    0.31349    1.000
    O1       O        0.10820    0.79200    0.27460    1.000
    O2       O        0.18610    0.73330    0.31310    1.000
    O3       O        0.06660    0.03400    0.28630    1.000
    O4       O        0.03260    0.90800    0.32850    1.000
    O5       O        0.20350    0.38920    0.67090    1.000
    O6       O        0.19600    0.20940    0.70850    1.000
    O7       O        0.27901    0.02000    0.70890    1.000
    O8       O        0.21210    0.89200    0.67880    1.000
    O9       O        0.00610    0.20300    0.31920    1.000
    O10      O        0.94480    0.33580    0.26970    1.000
    O11      O        0.88850    0.57080    0.30320    1.000
    O12      O        0.86450    0.36980    0.31130    1.000
    C1       C        0.17670    0.00010    0.46740    1.000
    C2       C        0.13080    0.00780    0.42080    1.000
    H1       H        0.10570    0.06050    0.42250    1.000
    C3       C        0.12120    0.93950    0.37210    1.000
    C4       C        0.15830    0.86190    0.36830    1.000
    C5       C        0.20450    0.85360    0.41460    1.000
    H2       H        0.22970    0.80210    0.41260    1.000
    C6       C        0.21360    0.92080    0.46360    1.000
    H3       H        0.24460    0.91290    0.49420    1.000
    C7       C        0.06940    0.95880    0.32500    1.000
    C8       C        0.14900    0.78190    0.31760    1.000
    C9       C        0.18530    0.07050    0.51970    1.000
    C10      C        0.20480    0.00530    0.57150    1.000
    H4       H        0.21260    0.91840    0.57250    1.000
    C11      C        0.21240    0.06830    0.62080    1.000
    C12      C        0.19980    0.19840    0.62010    1.000
    C13      C        0.18120    0.26320    0.56870    1.000
    H5       H        0.17360    0.35030    0.56750    1.000
    C14      C        0.17400    0.19970    0.51950    1.000
    H6       H        0.16130    0.24470    0.48570    1.000
    C15      C        0.23380    0.98730    0.67350    1.000
    C16      C        0.20030    0.26870    0.66960    1.000
    C17      C        0.99670    0.47000    0.47270    1.000
    C18      C        0.95310    0.49180    0.42370    1.000
    H7       H        0.92810    0.54510    0.42530    1.000
    C19      C        0.94620    0.43530    0.37270    1.000
    C20      C        0.98260    0.35530    0.36940    1.000
    C21      C        0.02560    0.33630    0.41720    1.000
    H8       H        0.05050    0.28370    0.41530    1.000
    C22      C        0.03340    0.39150    0.46790    1.000
    H9       H        0.06340    0.37650    0.49920    1.000
    C23      C        0.89520    0.45910    0.32380    1.000
    C24      C        0.97670    0.29570    0.31460    1.000
    O13      O        0.10540    0.74040    0.29050    1.000
    Zn2      Zn       0.32090    0.12825    0.25307    1.000
    K2       K        0.27383    0.86425    0.31349    1.000
    O14      O        0.60820    0.29200    0.27460    1.000
    O15      O        0.68610    0.23330    0.31310    1.000
    O16      O        0.56660    0.53400    0.28630    1.000
    O17      O        0.53260    0.40800    0.32850    1.000
    O18      O        0.70350    0.88920    0.67090    1.000
    O19      O        0.69600    0.70940    0.70850    1.000
    O20      O        0.77901    0.52000    0.70890    1.000
    O21      O        0.71210    0.39200    0.67880    1.000
    O22      O        0.50610    0.70300    0.31920    1.000
    O23      O        0.44480    0.83580    0.26970    1.000
    O24      O        0.38850    0.07080    0.30320    1.000
    O25      O        0.36450    0.86980    0.31130    1.000
    C25      C        0.67670    0.50010    0.46740    1.000
    C26      C        0.63080    0.50780    0.42080    1.000
    H10      H        0.60570    0.56050    0.42250    1.000
    C27      C        0.62120    0.43950    0.37210    1.000
    C28      C        0.65830    0.36190    0.36830    1.000
    C29      C        0.70450    0.35360    0.41460    1.000
    H11      H        0.72970    0.30210    0.41260    1.000
    C30      C        0.71360    0.42080    0.46360    1.000
    H12      H        0.74460    0.41290    0.49420    1.000
    C31      C        0.56940    0.45880    0.32500    1.000
    C32      C        0.64900    0.28190    0.31760    1.000
    C33      C        0.68530    0.57050    0.51970    1.000
    C34      C        0.70480    0.50530    0.57150    1.000
    H13      H        0.71260    0.41840    0.57250    1.000
    C35      C        0.71240    0.56830    0.62080    1.000
    C36      C        0.69980    0.69840    0.62010    1.000
    C37      C        0.68120    0.76320    0.56870    1.000
    H14      H        0.67360    0.85030    0.56750    1.000
    C38      C        0.67400    0.69970    0.51950    1.000
    H15      H        0.66130    0.74470    0.48570    1.000
    C39      C        0.73380    0.48730    0.67350    1.000
    C40      C        0.70030    0.76870    0.66960    1.000
    C41      C        0.49670    0.97000    0.47270    1.000
    C42      C        0.45310    0.99180    0.42370    1.000
    H16      H        0.42810    0.04510    0.42530    1.000
    C43      C        0.44620    0.93530    0.37270    1.000
    C44      C        0.48260    0.85530    0.36940    1.000
    C45      C        0.52560    0.83630    0.41720    1.000
    H17      H        0.55050    0.78370    0.41530    1.000
    C46      C        0.53340    0.89150    0.46790    1.000
    H18      H        0.56340    0.87650    0.49920    1.000
    C47      C        0.39520    0.95910    0.32380    1.000
    C48      C        0.47670    0.79570    0.31460    1.000
    O26      O        0.60540    0.24040    0.29050    1.000
    Zn3      Zn       0.17910    0.62825    0.24693    1.000
    K3       K        0.22617    0.36425    0.18651    1.000
    O27      O        0.89180    0.79200    0.22540    1.000
    O28      O        0.81390    0.73330    0.18690    1.000
    O29      O        0.93340    0.03400    0.21370    1.000
    O30      O        0.96740    0.90800    0.17150    1.000
    O31      O        0.79650    0.38920    0.82910    1.000
    O32      O        0.80400    0.20940    0.79150    1.000
    O33      O        0.72099    0.02000    0.79110    1.000
    O34      O        0.78790    0.89200    0.82120    1.000
    O35      O        0.99390    0.20300    0.18080    1.000
    O36      O        0.05520    0.33580    0.23030    1.000
    O37      O        0.11150    0.57080    0.19680    1.000
    O38      O        0.13550    0.36980    0.18870    1.000
    C49      C        0.82330    0.00010    0.03260    1.000
    C50      C        0.86920    0.00780    0.07920    1.000
    H19      H        0.89430    0.06050    0.07750    1.000
    C51      C        0.87880    0.93950    0.12790    1.000
    C52      C        0.84170    0.86190    0.13170    1.000
    C53      C        0.79550    0.85360    0.08540    1.000
    H20      H        0.77030    0.80210    0.08740    1.000
    C54      C        0.78640    0.92080    0.03640    1.000
    H21      H        0.75540    0.91290    0.00580    1.000
    C55      C        0.93060    0.95880    0.17500    1.000
    C56      C        0.85100    0.78190    0.18240    1.000
    C57      C        0.81470    0.07050    0.98030    1.000
    C58      C        0.79520    0.00530    0.92850    1.000
    H22      H        0.78740    0.91840    0.92750    1.000
    C59      C        0.78760    0.06830    0.87920    1.000
    C60      C        0.80020    0.19840    0.87990    1.000
    C61      C        0.81880    0.26320    0.93130    1.000
    H23      H        0.82640    0.35030    0.93250    1.000
    C62      C        0.82600    0.19970    0.98050    1.000
    H24      H        0.83870    0.24470    0.01430    1.000
    C63      C        0.76620    0.98730    0.82650    1.000
    C64      C        0.79970    0.26870    0.83040    1.000
    C65      C        0.00330    0.47000    0.02730    1.000
    C66      C        0.04690    0.49180    0.07630    1.000
    H25      H        0.07190    0.54510    0.07470    1.000
    C67      C        0.05380    0.43530    0.12730    1.000
    C68      C        0.01740    0.35530    0.13060    1.000
    C69      C        0.97440    0.33630    0.08280    1.000
    H26      H        0.94950    0.28370    0.08470    1.000
    C70      C        0.96660    0.39150    0.03210    1.000
    H27      H        0.93660    0.37650    0.00080    1.000
    C71      C        0.10480    0.45910    0.17620    1.000
    C72      C        0.02330    0.29570    0.18540    1.000
    O39      O        0.89460    0.74040    0.20950    1.000
    Zn4      Zn       0.67910    0.12825    0.24693    1.000
    K4       K        0.72617    0.86425    0.18651    1.000
    O40      O        0.39180    0.29200    0.22540    1.000
    O41      O        0.31390    0.23330    0.18690    1.000
    O42      O        0.43340    0.53400    0.21370    1.000
    O43      O        0.46740    0.40800    0.17150    1.000
    O44      O        0.29650    0.88920    0.82910    1.000
    O45      O        0.30400    0.70940    0.79150    1.000
    O46      O        0.22099    0.52000    0.79110    1.000
    O47      O        0.28790    0.39200    0.82120    1.000
    O48      O        0.49390    0.70300    0.18080    1.000
    O49      O        0.55520    0.83580    0.23030    1.000
    O50      O        0.61150    0.07080    0.19680    1.000
    O51      O        0.63550    0.86980    0.18870    1.000
    C73      C        0.32330    0.50010    0.03260    1.000
    C74      C        0.36920    0.50780    0.07920    1.000
    H28      H        0.39430    0.56050    0.07750    1.000
    C75      C        0.37880    0.43950    0.12790    1.000
    C76      C        0.34170    0.36190    0.13170    1.000
    C77      C        0.29550    0.35360    0.08540    1.000
    H29      H        0.27030    0.30210    0.08740    1.000
    C78      C        0.28640    0.42080    0.03640    1.000
    H30      H        0.25540    0.41290    0.00580    1.000
    C79      C        0.43060    0.45880    0.17500    1.000
    C80      C        0.35100    0.28190    0.18240    1.000
    C81      C        0.31470    0.57050    0.98030    1.000
    C82      C        0.29520    0.50530    0.92850    1.000
    H31      H        0.28740    0.41840    0.92750    1.000
    C83      C        0.28760    0.56830    0.87920    1.000
    C84      C        0.30020    0.69840    0.87990    1.000
    C85      C        0.31880    0.76320    0.93130    1.000
    H32      H        0.32640    0.85030    0.93250    1.000
    C86      C        0.32600    0.69970    0.98050    1.000
    H33      H        0.33870    0.74470    0.01430    1.000
    C87      C        0.26620    0.48730    0.82650    1.000
    C88      C        0.29970    0.76870    0.83040    1.000
    C89      C        0.50330    0.97000    0.02730    1.000
    C90      C        0.54690    0.99180    0.07630    1.000
    H34      H        0.57190    0.04510    0.07470    1.000
    C91      C        0.55380    0.93530    0.12730    1.000
    C92      C        0.51740    0.85530    0.13060    1.000
    C93      C        0.47440    0.83630    0.08280    1.000
    H35      H        0.44950    0.78370    0.08470    1.000
    C94      C        0.46660    0.89150    0.03210    1.000
    H36      H        0.43660    0.87650    0.00080    1.000
    C95      C        0.60480    0.95910    0.17620    1.000
    C96      C        0.52330    0.79570    0.18540    1.000
    O52      O        0.39460    0.24040    0.20950    1.000
    Zn5      Zn       0.17910    0.37175    0.74693    1.000
    K5       K        0.22617    0.63575    0.68651    1.000
    O53      O        0.89180    0.20800    0.72540    1.000
    O54      O        0.81390    0.26670    0.68690    1.000
    O55      O        0.93340    0.96600    0.71370    1.000
    O56      O        0.96740    0.09200    0.67150    1.000
    O57      O        0.79650    0.61080    0.32910    1.000
    O58      O        0.80400    0.79060    0.29150    1.000
    O59      O        0.72099    0.98000    0.29110    1.000
    O60      O        0.78790    0.10800    0.32120    1.000
    O61      O        0.99390    0.79700    0.68080    1.000
    O62      O        0.05520    0.66420    0.73030    1.000
    O63      O        0.11150    0.42920    0.69680    1.000
    O64      O        0.13550    0.63020    0.68870    1.000
    C97      C        0.82330    0.99990    0.53260    1.000
    C98      C        0.86920    0.99220    0.57920    1.000
    H37      H        0.89430    0.93950    0.57750    1.000
    C99      C        0.87880    0.06050    0.62790    1.000
    C100     C        0.84170    0.13810    0.63170    1.000
    C101     C        0.79550    0.14640    0.58540    1.000
    H38      H        0.77030    0.19790    0.58740    1.000
    C102     C        0.78640    0.07920    0.53640    1.000
    H39      H        0.75540    0.08710    0.50580    1.000
    C103     C        0.93060    0.04120    0.67500    1.000
    C104     C        0.85100    0.21810    0.68240    1.000
    C105     C        0.81470    0.92950    0.48030    1.000
    C106     C        0.79520    0.99470    0.42850    1.000
    H40      H        0.78740    0.08160    0.42750    1.000
    C107     C        0.78760    0.93170    0.37920    1.000
    C108     C        0.80020    0.80160    0.37990    1.000
    C109     C        0.81880    0.73680    0.43130    1.000
    H41      H        0.82640    0.64970    0.43250    1.000
    C110     C        0.82600    0.80030    0.48050    1.000
    H42      H        0.83870    0.75530    0.51430    1.000
    C111     C        0.76620    0.01270    0.32650    1.000
    C112     C        0.79970    0.73130    0.33040    1.000
    C113     C        0.00330    0.53000    0.52730    1.000
    C114     C        0.04690    0.50820    0.57630    1.000
    H43      H        0.07190    0.45490    0.57470    1.000
    C115     C        0.05380    0.56470    0.62730    1.000
    C116     C        0.01740    0.64470    0.63060    1.000
    C117     C        0.97440    0.66370    0.58280    1.000
    H44      H        0.94950    0.71630    0.58470    1.000
    C118     C        0.96660    0.60850    0.53210    1.000
    H45      H        0.93660    0.62350    0.50080    1.000
    C119     C        0.10480    0.54090    0.67620    1.000
    C120     C        0.02330    0.70430    0.68540    1.000
    O65      O        0.89460    0.25960    0.70950    1.000
    Zn6      Zn       0.67910    0.87175    0.74693    1.000
    K6       K        0.72617    0.13575    0.68651    1.000
    O66      O        0.39180    0.70800    0.72540    1.000
    O67      O        0.31390    0.76670    0.68690    1.000
    O68      O        0.43340    0.46600    0.71370    1.000
    O69      O        0.46740    0.59200    0.67150    1.000
    O70      O        0.29650    0.11080    0.32910    1.000
    O71      O        0.30400    0.29060    0.29150    1.000
    O72      O        0.22099    0.48000    0.29110    1.000
    O73      O        0.28790    0.60800    0.32120    1.000
    O74      O        0.49390    0.29700    0.68080    1.000
    O75      O        0.55520    0.16420    0.73030    1.000
    O76      O        0.61150    0.92920    0.69680    1.000
    O77      O        0.63550    0.13020    0.68870    1.000
    C121     C        0.32330    0.49990    0.53260    1.000
    C122     C        0.36920    0.49220    0.57920    1.000
    H46      H        0.39430    0.43950    0.57750    1.000
    C123     C        0.37880    0.56050    0.62790    1.000
    C124     C        0.34170    0.63810    0.63170    1.000
    C125     C        0.29550    0.64640    0.58540    1.000
    H47      H        0.27030    0.69790    0.58740    1.000
    C126     C        0.28640    0.57920    0.53640    1.000
    H48      H        0.25540    0.58710    0.50580    1.000
    C127     C        0.43060    0.54120    0.67500    1.000
    C128     C        0.35100    0.71810    0.68240    1.000
    C129     C        0.31470    0.42950    0.48030    1.000
    C130     C        0.29520    0.49470    0.42850    1.000
    H49      H        0.28740    0.58160    0.42750    1.000
    C131     C        0.28760    0.43170    0.37920    1.000
    C132     C        0.30020    0.30160    0.37990    1.000
    C133     C        0.31880    0.23680    0.43130    1.000
    H50      H        0.32640    0.14970    0.43250    1.000
    C134     C        0.32600    0.30030    0.48050    1.000
    H51      H        0.33870    0.25530    0.51430    1.000
    C135     C        0.26620    0.51270    0.32650    1.000
    C136     C        0.29970    0.23130    0.33040    1.000
    C137     C        0.50330    0.03000    0.52730    1.000
    C138     C        0.54690    0.00820    0.57630    1.000
    H52      H        0.57190    0.95490    0.57470    1.000
    C139     C        0.55380    0.06470    0.62730    1.000
    C140     C        0.51740    0.14470    0.63060    1.000
    C141     C        0.47440    0.16370    0.58280    1.000
    H53      H        0.44950    0.21630    0.58470    1.000
    C142     C        0.46660    0.10850    0.53210    1.000
    H54      H        0.43660    0.12350    0.50080    1.000
    C143     C        0.60480    0.04090    0.67620    1.000
    C144     C        0.52330    0.20430    0.68540    1.000
    O78      O        0.39460    0.75960    0.70950    1.000
    Zn7      Zn       0.82090    0.37175    0.75307    1.000
    K7       K        0.77383    0.63575    0.81349    1.000
    O79      O        0.10820    0.20800    0.77460    1.000
    O80      O        0.18610    0.26670    0.81310    1.000
    O81      O        0.06660    0.96600    0.78630    1.000
    O82      O        0.03260    0.09200    0.82850    1.000
    O83      O        0.20350    0.61080    0.17090    1.000
    O84      O        0.19600    0.79060    0.20850    1.000
    O85      O        0.27901    0.98000    0.20890    1.000
    O86      O        0.21210    0.10800    0.17880    1.000
    O87      O        0.00610    0.79700    0.81920    1.000
    O88      O        0.94480    0.66420    0.76970    1.000
    O89      O        0.88850    0.42920    0.80320    1.000
    O90      O        0.86450    0.63020    0.81130    1.000
    C145     C        0.17670    0.99990    0.96740    1.000
    C146     C        0.13080    0.99220    0.92080    1.000
    H55      H        0.10570    0.93950    0.92250    1.000
    C147     C        0.12120    0.06050    0.87210    1.000
    C148     C        0.15830    0.13810    0.86830    1.000
    C149     C        0.20450    0.14640    0.91460    1.000
    H56      H        0.22970    0.19790    0.91260    1.000
    C150     C        0.21360    0.07920    0.96360    1.000
    H57      H        0.24460    0.08710    0.99420    1.000
    C151     C        0.06940    0.04120    0.82500    1.000
    C152     C        0.14900    0.21810    0.81760    1.000
    C153     C        0.18530    0.92950    0.01970    1.000
    C154     C        0.20480    0.99470    0.07150    1.000
    H58      H        0.21260    0.08160    0.07250    1.000
    C155     C        0.21240    0.93170    0.12080    1.000
    C156     C        0.19980    0.80160    0.12010    1.000
    C157     C        0.18120    0.73680    0.06870    1.000
    H59      H        0.17360    0.64970    0.06750    1.000
    C158     C        0.17400    0.80030    0.01950    1.000
    H60      H        0.16130    0.75530    0.98570    1.000
    C159     C        0.23380    0.01270    0.17350    1.000
    C160     C        0.20030    0.73130    0.16960    1.000
    C161     C        0.99670    0.53000    0.97270    1.000
    C162     C        0.95310    0.50820    0.92370    1.000
    H61      H        0.92810    0.45490    0.92530    1.000
    C163     C        0.94620    0.56470    0.87270    1.000
    C164     C        0.98260    0.64470    0.86940    1.000
    C165     C        0.02560    0.66370    0.91720    1.000
    H62      H        0.05050    0.71630    0.91530    1.000
    C166     C        0.03340    0.60850    0.96790    1.000
    H63      H        0.06340    0.62350    0.99920    1.000
    C167     C        0.89520    0.54090    0.82380    1.000
    C168     C        0.97670    0.70430    0.81460    1.000
    O91      O        0.10540    0.25960    0.79050    1.000
    Zn8      Zn       0.32090    0.87175    0.75307    1.000
    K8       K        0.27383    0.13575    0.81349    1.000
    O92      O        0.60820    0.70800    0.77460    1.000
    O93      O        0.68610    0.76670    0.81310    1.000
    O94      O        0.56660    0.46600    0.78630    1.000
    O95      O        0.53260    0.59200    0.82850    1.000
    O96      O        0.70350    0.11080    0.17090    1.000
    O97      O        0.69600    0.29060    0.20850    1.000
    O98      O        0.77901    0.48000    0.20890    1.000
    O99      O        0.71210    0.60800    0.17880    1.000
    O100     O        0.50610    0.29700    0.81920    1.000
    O101     O        0.44480    0.16420    0.76970    1.000
    O102     O        0.38850    0.92920    0.80320    1.000
    O103     O        0.36450    0.13020    0.81130    1.000
    C169     C        0.67670    0.49990    0.96740    1.000
    C170     C        0.63080    0.49220    0.92080    1.000
    H64      H        0.60570    0.43950    0.92250    1.000
    C171     C        0.62120    0.56050    0.87210    1.000
    C172     C        0.65830    0.63810    0.86830    1.000
    C173     C        0.70450    0.64640    0.91460    1.000
    H65      H        0.72970    0.69790    0.91260    1.000
    C174     C        0.71360    0.57920    0.96360    1.000
    H66      H        0.74460    0.58710    0.99420    1.000
    C175     C        0.56940    0.54120    0.82500    1.000
    C176     C        0.64900    0.71810    0.81760    1.000
    C177     C        0.68530    0.42950    0.01970    1.000
    C178     C        0.70480    0.49470    0.07150    1.000
    H67      H        0.71260    0.58160    0.07250    1.000
    C179     C        0.71240    0.43170    0.12080    1.000
    C180     C        0.69980    0.30160    0.12010    1.000
    C181     C        0.68120    0.23680    0.06870    1.000
    H68      H        0.67360    0.14970    0.06750    1.000
    C182     C        0.67400    0.30030    0.01950    1.000
    H69      H        0.66130    0.25530    0.98570    1.000
    C183     C        0.73380    0.51270    0.17350    1.000
    C184     C        0.70030    0.23130    0.16960    1.000
    C185     C        0.49670    0.03000    0.97270    1.000
    C186     C        0.45310    0.00820    0.92370    1.000
    H70      H        0.42810    0.95490    0.92530    1.000
    C187     C        0.44620    0.06470    0.87270    1.000
    C188     C        0.48260    0.14470    0.86940    1.000
    C189     C        0.52560    0.16370    0.91720    1.000
    H71      H        0.55050    0.21630    0.91530    1.000
    C190     C        0.53340    0.10850    0.96790    1.000
    H72      H        0.56340    0.12350    0.99920    1.000
    C191     C        0.39520    0.04090    0.82380    1.000
    C192     C        0.47670    0.20430    0.81460    1.000
    O104     O        0.60540    0.75960    0.79050    1.000
    Zn9      Zn       0.00000    0.11617    0.25000    1.000
    Zn10     Zn       0.50000    0.61617    0.25000    1.000
    Zn11     Zn       0.00000    0.88383    0.75000    1.000
    Zn12     Zn       0.50000    0.38383    0.75000    1.000
