data_functionalizedCrystal
_audit_creation_method	'EQeq! by Chris Wilmer'
_symmetry_space_group_name_H-M	'P1'
_symmetry_Int_Tables_number	1
_symmetry_cell_setting	triclinic
loop_
_symmetry_equiv_pos_as_xyz
  x,y,z
_cell_length_a	8.869
_cell_length_b	12.0831
_cell_length_c	19.6129
_cell_angle_alpha	85.2402
_cell_angle_beta	76.9326
_cell_angle_gamma	68.4698
loop_
_atom_site_label
_atom_site_type_symbol
_atom_site_fract_x
_atom_site_fract_y
_atom_site_fract_z
_atom_site_charge
Mof_Mg	Mg	0.60808	0.5286	0.91222	1.47
Mof_Mg	Mg	0.86181	0.65654	0.97538	1.479
Mof_Mg	Mg	0.0489	0.4714	0.08778	1.462
Mof_Mg	Mg	0.49373	0.34346	0.02462	1.474
Mof_Mg	Mg	0.7703	0.0286	0.58778	1.467
Mof_Mg	Mg	0.08719	0.15654	0.52462	1.469
Mof_Mg	Mg	0.38668	0.9714	0.41222	1.469
Mof_Mg	Mg	0.76835	0.84346	0.47538	1.475
Mof_H 	H 	0.9047	0.7568	0.738	0.011
Mof_H 	H 	0.7398	0.4112	0.0914	-0.182
Mof_H 	H 	0.9608	0.4182	0.7848	0.022
Mof_H 	H 	0.9436	0.5354	0.5894	0.027
Mof_H 	H 	0.1713	0.8278	0.9742	-0.027
Mof_H 	H 	0.9836	0.3814	0.6686	0.125
Mof_H 	H 	0.3995	0.2432	0.262	0.002
Mof_H 	H 	0.2424	0.5888	0.9086	-0.223
Mof_H 	H 	0.1638	0.5818	0.2152	-0.015
Mof_H 	H 	0.0684	0.4646	0.4106	-0.017
Mof_H 	H 	0.9733	0.1722	0.0258	0.112
Mof_H 	H 	0.0336	0.6186	0.3314	0.078
Mof_H 	H 	0.8927	0.2568	0.762	0.057
Mof_H 	H 	0.0812	0.9112	0.4086	-0.172
Mof_H 	H 	0.9956	0.9182	0.7152	0.074
Mof_H 	H 	0.783	0.0354	0.9106	0.045
Mof_H 	H 	0.3955	0.3278	0.5258	0.019
Mof_H 	H 	0.9022	0.8814	0.8314	0.071
Mof_H 	H 	0.9115	0.7432	0.238	0.038
Mof_H 	H 	0.401	0.0888	0.5914	-0.205
Mof_H 	H 	0.629	0.0818	0.2848	0.023
Mof_H 	H 	0.729	0.9646	0.0894	0.013
Mof_H 	H 	0.2491	0.6722	0.4742	0.006
Mof_H 	H 	0.615	0.1186	0.1686	0.105
Mof_H 	H 	0.941	0	-0	0.19
Mof_H 	H 	0.4695	0	-0	0.025
Mof_H 	H 	0.191	0.5	0.5	0.069
Mof_H 	H 	0.7195	0.5	0.5	0.042
Mof_C 	C 	0.9084	0.61438	0.84842	0.362
Mof_C 	C 	0.34496	0.89522	0.98406	-0.176
Mof_C 	C 	0.895	0.76122	0.60318	0.456
Mof_C 	C 	0.92232	0.66064	0.65532	-0.173
Mof_C 	C 	0.49219	0.78218	0.96844	0.434
Mof_C 	C 	0.91687	0.68146	0.7244	0.11
Mof_C 	C 	0.73133	0.46476	0.05438	0.616
Mof_C 	C 	0.9523	0.47974	0.75226	0.088
Mof_C 	C 	0.92925	0.5909	0.7736	-0.175
Mof_C 	C 	0.94301	0.54924	0.63534	0.109
Mof_C 	C 	0.18429	0.89708	0.98454	0.146
Mof_C 	C 	0.96291	0.45798	0.683	-0.167
Mof_C 	C 	0.3712	0.38562	0.15158	0.366
Mof_C 	C 	0.22424	0.10478	0.01594	-0.141
Mof_C 	C 	0.2594	0.23878	0.39682	0.459
Mof_C 	C 	0.23828	0.33936	0.34468	-0.203
Mof_C 	C 	0.24281	0.21782	0.03156	0.418
Mof_C 	C 	0.32273	0.31854	0.2756	0.119
Mof_C 	C 	0.25047	0.53524	0.94562	0.637
Mof_C 	C 	0.1843	0.52026	0.24774	0.089
Mof_C 	C 	0.29375	0.4091	0.2264	-0.202
Mof_C 	C 	0.12759	0.45076	0.36466	0.112
Mof_C 	C 	0.06591	0.10292	0.01546	-0.024
Mof_C 	C 	0.10389	0.54202	0.317	-0.195
Mof_C 	C 	0.00682	0.11438	0.65158	0.141
Mof_C 	C 	0.57902	0.39522	0.51594	-0.145
Mof_C 	C 	0.74818	0.26122	0.89682	0.43
Mof_C 	C 	0.82764	0.16064	0.84468	-0.101
Mof_C 	C 	0.71063	0.28218	0.53156	0.424
Mof_C 	C 	0.89127	0.18146	0.7756	-0.002
Mof_C 	C 	0.03571	0.96476	0.44562	0.467
Mof_C 	C 	0.95456	0.97974	0.74774	-0.04
Mof_C 	C 	0.95285	0.0909	0.7264	-0.003
Mof_C 	C 	0.82835	0.04924	0.86466	0.006
Mof_C 	C 	0.41883	0.39708	0.51546	0.063
Mof_C 	C 	0.89591	0.95798	0.817	-0.046
Mof_C 	C 	0.77278	0.88562	0.34842	0.354
Mof_C 	C 	0.49018	0.60478	0.48406	-0.151
Mof_C 	C 	0.90622	0.73878	0.10318	0.449
Mof_C 	C 	0.83296	0.83936	0.15532	-0.159
Mof_C 	C 	0.52437	0.71782	0.46844	0.426
Mof_C 	C 	0.84833	0.81854	0.2244	0.092
Mof_C 	C 	0.44609	0.03524	0.55438	0.617
Mof_C 	C 	0.68204	0.02026	0.25226	0.063
Mof_C 	C 	0.77015	0.9091	0.2736	-0.151
Mof_C 	C 	0.74225	0.95076	0.13534	0.106
Mof_C 	C 	0.33137	0.60292	0.48454	0.064
Mof_C 	C 	0.67089	0.04202	0.183	-0.164
Mof_C 	C 	0.0459	0	-0	-0.292
Mof_C 	C 	0.3647	0	-0	0.073
Mof_C 	C 	0.2959	0.5	0.5	-0.135
Mof_C 	C 	0.6147	0.5	0.5	0.075
Mof_O 	O 	0.63245	0.46486	0.01644	-0.657
Mof_O 	O 	0.90071	0.73726	0.54152	-0.493
Mof_O 	O 	0.83103	0.56114	0.894	-0.602
Mof_O 	O 	0.96376	0.68688	0.8686	-0.4
Mof_O 	O 	0.81879	0.5279	0.04812	-0.671
Mof_O 	O 	0.85998	0.86384	0.6264	-0.532
Mof_O 	O 	0.46757	0.69642	0.94624	-0.536
Mof_O 	O 	0.63134	0.77924	0.97868	-0.5
Mof_O 	O 	0.11375	0.53514	0.98356	-0.709
Mof_O 	O 	0.17949	0.26274	0.45848	-0.542
Mof_O 	O 	0.28617	0.43886	0.106	-0.632
Mof_O 	O 	0.51924	0.31312	0.1314	-0.43
Mof_O 	O 	0.39481	0.4721	0.95188	-0.707
Mof_O 	O 	0.35022	0.13616	0.3736	-0.545
Mof_O 	O 	0.11023	0.30358	0.05376	-0.566
Mof_O 	O 	0.38926	0.22076	0.02132	-0.505
Mof_O 	O 	0.89889	0.96486	0.48356	-0.566
Mof_O 	O 	0.69223	0.23726	0.95848	-0.504
Mof_O 	O 	0.97503	0.06114	0.606	-0.504
Mof_O 	O 	0.08236	0.18688	0.6314	-0.425
Mof_O 	O 	0.11691	0.0279	0.45188	-0.688
Mof_O 	O 	0.73638	0.36384	0.8736	-0.528
Mof_O 	O 	0.66381	0.19642	0.55376	-0.528
Mof_O 	O 	0.86002	0.27924	0.52132	-0.463
Mof_O 	O 	0.34731	0.03514	0.51644	-0.672
Mof_O 	O 	0.88797	0.76274	0.04152	-0.49
Mof_O 	O 	0.64217	0.93886	0.394	-0.606
Mof_O 	O 	0.90064	0.81312	0.3686	-0.389
Mof_O 	O 	0.59669	0.9721	0.54812	-0.698
Mof_O 	O 	0.97382	0.63616	0.1264	-0.489
Mof_O 	O 	0.41399	0.80358	0.44624	-0.534
Mof_O 	O 	0.66058	0.72076	0.47868	-0.493
_end
