# CIF file generated by openbabel 3.1.0, see https://openbabel.org
data_I
_chemical_name_common 'image0'
_cell_length_a 6.5681
_cell_length_b 16.3927
_cell_length_c 13.1667
_cell_angle_alpha 90
_cell_angle_beta 90
_cell_angle_gamma 90
_space_group_name_H-M_alt 'P 1'
_space_group_name_Hall 'P 1'
loop_
    _symmetry_equiv_pos_as_xyz
    x,y,z
loop_
    _atom_site_label
    _atom_site_type_symbol
    _atom_site_fract_x
    _atom_site_fract_y
    _atom_site_fract_z
    _atom_site_occupancy
    O1       O        0.16580    0.16882    0.83940    1.000
    C1       C        0.80510    0.02660    0.95380    1.000
    O2       O        0.66580    0.66882    0.33940    1.000
    C2       C        0.30510    0.52660    0.45380    1.000
    O3       O        0.83420    0.33118    0.83940    1.000
    C3       C        0.19490    0.47340    0.95380    1.000
    O4       O        0.33420    0.83118    0.33940    1.000
    C4       C        0.69490    0.97340    0.45380    1.000
    O5       O        0.83420    0.66882    0.16060    1.000
    C5       C        0.19490    0.52660    0.04620    1.000
    O6       O        0.33420    0.16882    0.66060    1.000
    C6       C        0.69490    0.02660    0.54620    1.000
    O7       O        0.16580    0.83118    0.16060    1.000
    C7       C        0.80510    0.97340    0.04620    1.000
    O8       O        0.66580    0.33118    0.66060    1.000
    C8       C        0.30510    0.47340    0.54620    1.000
    O9       O        0.83420    0.83118    0.16060    1.000
    C9       C        0.19490    0.97340    0.04620    1.000
    O10      O        0.33420    0.33118    0.66060    1.000
    C10      C        0.69490    0.47340    0.54620    1.000
    O11      O        0.16580    0.66882    0.16060    1.000
    C11      C        0.80510    0.52660    0.04620    1.000
    O12      O        0.66580    0.16882    0.66060    1.000
    C12      C        0.30510    0.02660    0.54620    1.000
    O13      O        0.16580    0.33118    0.83940    1.000
    C13      C        0.80510    0.47340    0.95380    1.000
    O14      O        0.66580    0.83118    0.33940    1.000
    C14      C        0.30510    0.97340    0.45380    1.000
    O15      O        0.83420    0.16882    0.83940    1.000
    C15      C        0.19490    0.02660    0.95380    1.000
    O16      O        0.33420    0.66882    0.33940    1.000
    C16      C        0.69490    0.52660    0.45380    1.000
    Al1      Al       0.25000    0.25000    0.75000    1.000
    Al2      Al       0.75000    0.25000    0.75000    1.000
    Al3      Al       0.75000    0.75000    0.25000    1.000
    Al4      Al       0.25000    0.75000    0.25000    1.000
    F1       F        0.00000    0.25000    0.69130    1.000
    F2       F        0.50000    0.75000    0.19130    1.000
    F3       F        0.00000    0.75000    0.30870    1.000
    F4       F        0.50000    0.25000    0.80870    1.000
    C17      C        0.00000    0.06310    0.95080    1.000
    C18      C        0.00000    0.13630    0.87170    1.000
    C19      C        0.50000    0.56310    0.45080    1.000
    C20      C        0.50000    0.63630    0.37170    1.000
    C21      C        0.00000    0.43690    0.95080    1.000
    C22      C        0.00000    0.36370    0.87170    1.000
    C23      C        0.50000    0.93690    0.45080    1.000
    C24      C        0.50000    0.86370    0.37170    1.000
    C25      C        0.00000    0.56310    0.04920    1.000
    C26      C        0.00000    0.63630    0.12830    1.000
    C27      C        0.50000    0.06310    0.54920    1.000
    C28      C        0.50000    0.13630    0.62830    1.000
    C29      C        0.00000    0.93690    0.04920    1.000
    C30      C        0.00000    0.86370    0.12830    1.000
    C31      C        0.50000    0.43690    0.54920    1.000
    C32      C        0.50000    0.36370    0.62830    1.000
