data_functionalizedCrystal
_audit_creation_method	'EQeq! by Chris Wilmer'
_symmetry_space_group_name_H-M	'P1'
_symmetry_Int_Tables_number	1
_symmetry_cell_setting	triclinic
loop_
_symmetry_equiv_pos_as_xyz
  x,y,z
_cell_length_a	18.9701
_cell_length_b	18.9701
_cell_length_c	16.74
_cell_angle_alpha	90
_cell_angle_beta	90
_cell_angle_gamma	90
loop_
_atom_site_label
_atom_site_type_symbol
_atom_site_fract_x
_atom_site_fract_y
_atom_site_fract_z
_atom_site_charge
Mof_Zn	Zn	0.60549	0.17336	0.17924	1.17
Mof_C 	C 	0.6398	0.3092	0.2656	-0.008
Mof_H 	H 	0.6027	0.3058	0.3018	-0.004
Mof_C 	C 	0.6382	0.0326	0.2505	0.109
Mof_H 	H 	0.6047	0.0106	0.2184	-0.074
Mof_C 	C 	0.6992	0.1093	0.3066	-0.014
Mof_H 	H 	0.718	0.1525	0.3221	0
Mof_C 	C 	0.6812	0.1088	0.0422	-0.015
Mof_H 	H 	0.7125	0.0845	0.0748	-0.004
Mof_C 	C 	0.7173	0.0473	0.3377	-0.005
Mof_H 	H 	0.7508	0.0396	0.3773	-0.007
Mof_N 	N 	0.6522	0.2646	0.2044	-0.295
Mof_N 	N 	0.6492	0.1006	0.2488	-0.297
Mof_N 	N 	0.628	0.1499	0.0671	-0.296
Mof_N 	N 	0.6779	0.9979	0.3008	-0.3
Mof_Zn	Zn	0.39451	0.82664	0.17924	1.17
Mof_C 	C 	0.3602	0.6908	0.2656	-0.008
Mof_H 	H 	0.3973	0.6942	0.3018	-0.004
Mof_C 	C 	0.3618	0.9674	0.2505	0.109
Mof_H 	H 	0.3953	0.9894	0.2184	-0.074
Mof_C 	C 	0.3008	0.8907	0.3066	-0.014
Mof_H 	H 	0.282	0.8475	0.3221	0
Mof_C 	C 	0.3188	0.8912	0.0422	-0.015
Mof_H 	H 	0.2875	0.9155	0.0748	-0.004
Mof_C 	C 	0.2827	0.9527	0.3377	-0.005
Mof_H 	H 	0.2492	0.9604	0.3773	-0.007
Mof_N 	N 	0.3478	0.7354	0.2044	-0.295
Mof_N 	N 	0.3508	0.8994	0.2488	-0.297
Mof_N 	N 	0.372	0.8501	0.0671	-0.296
Mof_N 	N 	0.3221	0.0021	0.3008	-0.3
Mof_Zn	Zn	0.32664	0.10549	0.67924	1.17
Mof_C 	C 	0.1908	0.1398	0.7656	-0.008
Mof_H 	H 	0.1942	0.1027	0.8018	-0.004
Mof_C 	C 	0.4674	0.1382	0.7505	0.11
Mof_H 	H 	0.4894	0.1047	0.7184	-0.073
Mof_C 	C 	0.3907	0.1992	0.8066	-0.014
Mof_H 	H 	0.3475	0.218	0.8221	0.001
Mof_C 	C 	0.3912	0.1812	0.5422	-0.01
Mof_H 	H 	0.4155	0.2125	0.5748	-0.005
Mof_C 	C 	0.4527	0.2173	0.8377	-0.004
Mof_H 	H 	0.4604	0.2508	0.8773	-0.006
Mof_N 	N 	0.2354	0.1522	0.7044	-0.295
Mof_N 	N 	0.3994	0.1492	0.7488	-0.297
Mof_N 	N 	0.3501	0.128	0.5671	-0.297
Mof_N 	N 	0.5021	0.1779	0.8008	-0.299
Mof_Zn	Zn	0.67336	0.89451	0.67924	1.17
Mof_C 	C 	0.8092	0.8602	0.7656	-0.008
Mof_H 	H 	0.8058	0.8973	0.8018	-0.004
Mof_C 	C 	0.5326	0.8618	0.7505	0.11
Mof_H 	H 	0.5106	0.8953	0.7184	-0.073
Mof_C 	C 	0.6093	0.8008	0.8066	-0.014
Mof_H 	H 	0.6525	0.782	0.8221	0.001
Mof_C 	C 	0.6088	0.8188	0.5422	-0.01
Mof_H 	H 	0.5845	0.7875	0.5748	-0.005
Mof_C 	C 	0.5473	0.7827	0.8377	-0.004
Mof_H 	H 	0.5396	0.7492	0.8773	-0.006
Mof_N 	N 	0.7646	0.8478	0.7044	-0.295
Mof_N 	N 	0.6006	0.8508	0.7488	-0.297
Mof_N 	N 	0.6499	0.872	0.5671	-0.297
Mof_N 	N 	0.4979	0.8221	0.8008	-0.299
Mof_Zn	Zn	0.89451	0.67336	0.32076	1.17
Mof_C 	C 	0.8602	0.8092	0.2344	-0.008
Mof_H 	H 	0.8973	0.8058	0.1982	-0.005
Mof_C 	C 	0.8618	0.5326	0.2495	0.109
Mof_H 	H 	0.8953	0.5106	0.2816	-0.073
Mof_C 	C 	0.8008	0.6093	0.1934	-0.014
Mof_H 	H 	0.782	0.6525	0.1779	0
Mof_C 	C 	0.8188	0.6088	0.4578	-0.01
Mof_H 	H 	0.7875	0.5845	0.4252	-0.005
Mof_C 	C 	0.7827	0.5473	0.1623	-0.005
Mof_H 	H 	0.7492	0.5396	0.1227	-0.007
Mof_N 	N 	0.8478	0.7646	0.2956	-0.295
Mof_N 	N 	0.8508	0.6006	0.2512	-0.297
Mof_N 	N 	0.872	0.6499	0.4329	-0.297
Mof_N 	N 	0.8221	0.4979	0.1992	-0.3
Mof_Zn	Zn	0.10549	0.32664	0.32076	1.17
Mof_C 	C 	0.1398	0.1908	0.2344	-0.008
Mof_H 	H 	0.1027	0.1942	0.1982	-0.005
Mof_C 	C 	0.1382	0.4674	0.2495	0.109
Mof_H 	H 	0.1047	0.4894	0.2816	-0.073
Mof_C 	C 	0.1992	0.3907	0.1934	-0.014
Mof_H 	H 	0.218	0.3475	0.1779	0
Mof_C 	C 	0.1812	0.3912	0.4578	-0.01
Mof_H 	H 	0.2125	0.4155	0.4252	-0.005
Mof_C 	C 	0.2173	0.4527	0.1623	-0.005
Mof_H 	H 	0.2508	0.4604	0.1227	-0.007
Mof_N 	N 	0.1522	0.2354	0.2956	-0.295
Mof_N 	N 	0.1492	0.3994	0.2512	-0.297
Mof_N 	N 	0.128	0.3501	0.4329	-0.297
Mof_N 	N 	0.1779	0.5021	0.1992	-0.3
Mof_Zn	Zn	0.17336	0.60549	0.82076	1.17
Mof_C 	C 	0.3092	0.6398	0.7344	-0.008
Mof_H 	H 	0.3058	0.6027	0.6982	-0.004
Mof_C 	C 	0.0326	0.6382	0.7495	0.109
Mof_H 	H 	0.0106	0.6047	0.7816	-0.073
Mof_C 	C 	0.1093	0.6992	0.6934	-0.014
Mof_H 	H 	0.1525	0.718	0.6779	0
Mof_C 	C 	0.1088	0.6812	0.9578	-0.004
Mof_H 	H 	0.0845	0.7125	0.9252	-0.007
Mof_C 	C 	0.0473	0.7173	0.6623	-0.004
Mof_H 	H 	0.0396	0.7508	0.6227	-0.007
Mof_N 	N 	0.2646	0.6522	0.7956	-0.295
Mof_N 	N 	0.1006	0.6492	0.7512	-0.297
Mof_N 	N 	0.1499	0.628	0.9329	-0.296
Mof_N 	N 	0.9979	0.6779	0.6992	-0.3
Mof_Zn	Zn	0.82664	0.39451	0.82076	1.17
Mof_C 	C 	0.6908	0.3602	0.7344	-0.008
Mof_H 	H 	0.6942	0.3973	0.6982	-0.004
Mof_C 	C 	0.9674	0.3618	0.7495	0.109
Mof_H 	H 	0.9894	0.3953	0.7816	-0.073
Mof_C 	C 	0.8907	0.3008	0.6934	-0.014
Mof_H 	H 	0.8475	0.282	0.6779	0
Mof_C 	C 	0.8912	0.3188	0.9578	-0.004
Mof_H 	H 	0.9155	0.2875	0.9252	-0.007
Mof_C 	C 	0.9527	0.2827	0.6623	-0.004
Mof_H 	H 	0.9604	0.2492	0.6227	-0.007
Mof_N 	N 	0.7354	0.3478	0.7956	-0.295
Mof_N 	N 	0.8994	0.3508	0.7512	-0.297
Mof_N 	N 	0.8501	0.372	0.9329	-0.296
Mof_N 	N 	0.0021	0.3221	0.6992	-0.3
Mof_Zn	Zn	0.39451	0.82664	0.82076	1.17
Mof_C 	C 	0.3602	0.6908	0.7344	-0.008
Mof_H 	H 	0.3973	0.6942	0.6982	-0.004
Mof_C 	C 	0.3618	0.9674	0.7495	0.109
Mof_H 	H 	0.3953	0.9894	0.7816	-0.073
Mof_C 	C 	0.3008	0.8907	0.6934	-0.014
Mof_H 	H 	0.282	0.8475	0.6779	0
Mof_C 	C 	0.3188	0.8912	0.9578	-0.004
Mof_H 	H 	0.2875	0.9155	0.9252	-0.007
Mof_C 	C 	0.2827	0.9527	0.6623	-0.004
Mof_H 	H 	0.2492	0.9604	0.6227	-0.007
Mof_N 	N 	0.3478	0.7354	0.7956	-0.295
Mof_N 	N 	0.3508	0.8994	0.7512	-0.297
Mof_N 	N 	0.372	0.8501	0.9329	-0.296
Mof_N 	N 	0.3221	0.0021	0.6992	-0.3
Mof_Zn	Zn	0.60549	0.17336	0.82076	1.17
Mof_C 	C 	0.6398	0.3092	0.7344	-0.008
Mof_H 	H 	0.6027	0.3058	0.6982	-0.004
Mof_C 	C 	0.6382	0.0326	0.7495	0.109
Mof_H 	H 	0.6047	0.0106	0.7816	-0.073
Mof_C 	C 	0.6992	0.1093	0.6934	-0.014
Mof_H 	H 	0.718	0.1525	0.6779	0
Mof_C 	C 	0.6812	0.1088	0.9578	-0.004
Mof_H 	H 	0.7125	0.0845	0.9252	-0.007
Mof_C 	C 	0.7173	0.0473	0.6623	-0.004
Mof_H 	H 	0.7508	0.0396	0.6227	-0.007
Mof_N 	N 	0.6522	0.2646	0.7956	-0.295
Mof_N 	N 	0.6492	0.1006	0.7512	-0.297
Mof_N 	N 	0.628	0.1499	0.9329	-0.296
Mof_N 	N 	0.6779	0.9979	0.6992	-0.3
Mof_Zn	Zn	0.67336	0.89451	0.32076	1.17
Mof_C 	C 	0.8092	0.8602	0.2344	-0.008
Mof_H 	H 	0.8058	0.8973	0.1982	-0.005
Mof_C 	C 	0.5326	0.8618	0.2495	0.109
Mof_H 	H 	0.5106	0.8953	0.2816	-0.073
Mof_C 	C 	0.6093	0.8008	0.1934	-0.014
Mof_H 	H 	0.6525	0.782	0.1779	0
Mof_C 	C 	0.6088	0.8188	0.4578	-0.01
Mof_H 	H 	0.5845	0.7875	0.4252	-0.005
Mof_C 	C 	0.5473	0.7827	0.1623	-0.005
Mof_H 	H 	0.5396	0.7492	0.1227	-0.007
Mof_N 	N 	0.7646	0.8478	0.2956	-0.295
Mof_N 	N 	0.6006	0.8508	0.2512	-0.297
Mof_N 	N 	0.6499	0.872	0.4329	-0.297
Mof_N 	N 	0.4979	0.8221	0.1992	-0.3
Mof_Zn	Zn	0.32664	0.10549	0.32076	1.17
Mof_C 	C 	0.1908	0.1398	0.2344	-0.008
Mof_H 	H 	0.1942	0.1027	0.1982	-0.005
Mof_C 	C 	0.4674	0.1382	0.2495	0.109
Mof_H 	H 	0.4894	0.1047	0.2816	-0.073
Mof_C 	C 	0.3907	0.1992	0.1934	-0.014
Mof_H 	H 	0.3475	0.218	0.1779	0
Mof_C 	C 	0.3912	0.1812	0.4578	-0.01
Mof_H 	H 	0.4155	0.2125	0.4252	-0.005
Mof_C 	C 	0.4527	0.2173	0.1623	-0.005
Mof_H 	H 	0.4604	0.2508	0.1227	-0.007
Mof_N 	N 	0.2354	0.1522	0.2956	-0.295
Mof_N 	N 	0.3994	0.1492	0.2512	-0.297
Mof_N 	N 	0.3501	0.128	0.4329	-0.297
Mof_N 	N 	0.5021	0.1779	0.1992	-0.3
Mof_Zn	Zn	0.10549	0.32664	0.67924	1.17
Mof_C 	C 	0.1398	0.1908	0.7656	-0.008
Mof_H 	H 	0.1027	0.1942	0.8018	-0.004
Mof_C 	C 	0.1382	0.4674	0.7505	0.11
Mof_H 	H 	0.1047	0.4894	0.7184	-0.073
Mof_C 	C 	0.1992	0.3907	0.8066	-0.014
Mof_H 	H 	0.218	0.3475	0.8221	0.001
Mof_C 	C 	0.1812	0.3912	0.5422	-0.01
Mof_H 	H 	0.2125	0.4155	0.5748	-0.005
Mof_C 	C 	0.2173	0.4527	0.8377	-0.004
Mof_H 	H 	0.2508	0.4604	0.8773	-0.006
Mof_N 	N 	0.1522	0.2354	0.7044	-0.295
Mof_N 	N 	0.1492	0.3994	0.7488	-0.297
Mof_N 	N 	0.128	0.3501	0.5671	-0.297
Mof_N 	N 	0.1779	0.5021	0.8008	-0.299
Mof_Zn	Zn	0.89451	0.67336	0.67924	1.17
Mof_C 	C 	0.8602	0.8092	0.7656	-0.008
Mof_H 	H 	0.8973	0.8058	0.8018	-0.004
Mof_C 	C 	0.8618	0.5326	0.7505	0.11
Mof_H 	H 	0.8953	0.5106	0.7184	-0.073
Mof_C 	C 	0.8008	0.6093	0.8066	-0.014
Mof_H 	H 	0.782	0.6525	0.8221	0.001
Mof_C 	C 	0.8188	0.6088	0.5422	-0.01
Mof_H 	H 	0.7875	0.5845	0.5748	-0.005
Mof_C 	C 	0.7827	0.5473	0.8377	-0.004
Mof_H 	H 	0.7492	0.5396	0.8773	-0.006
Mof_N 	N 	0.8478	0.7646	0.7044	-0.295
Mof_N 	N 	0.8508	0.6006	0.7488	-0.297
Mof_N 	N 	0.872	0.6499	0.5671	-0.297
Mof_N 	N 	0.8221	0.4979	0.8008	-0.299
Mof_Zn	Zn	0.82664	0.39451	0.17924	1.17
Mof_C 	C 	0.6908	0.3602	0.2656	-0.008
Mof_H 	H 	0.6942	0.3973	0.3018	-0.004
Mof_C 	C 	0.9674	0.3618	0.2505	0.109
Mof_H 	H 	0.9894	0.3953	0.2184	-0.074
Mof_C 	C 	0.8907	0.3008	0.3066	-0.014
Mof_H 	H 	0.8475	0.282	0.3221	0
Mof_C 	C 	0.8912	0.3188	0.0422	-0.015
Mof_H 	H 	0.9155	0.2875	0.0748	-0.004
Mof_C 	C 	0.9527	0.2827	0.3377	-0.005
Mof_H 	H 	0.9604	0.2492	0.3773	-0.007
Mof_N 	N 	0.7354	0.3478	0.2044	-0.295
Mof_N 	N 	0.8994	0.3508	0.2488	-0.297
Mof_N 	N 	0.8501	0.372	0.0671	-0.296
Mof_N 	N 	0.0021	0.3221	0.3008	-0.3
Mof_Zn	Zn	0.17336	0.60549	0.17924	1.17
Mof_C 	C 	0.3092	0.6398	0.2656	-0.008
Mof_H 	H 	0.3058	0.6027	0.3018	-0.004
Mof_C 	C 	0.0326	0.6382	0.2505	0.109
Mof_H 	H 	0.0106	0.6047	0.2184	-0.074
Mof_C 	C 	0.1093	0.6992	0.3066	-0.014
Mof_H 	H 	0.1525	0.718	0.3221	0
Mof_C 	C 	0.1088	0.6812	0.0422	-0.015
Mof_H 	H 	0.0845	0.7125	0.0748	-0.004
Mof_C 	C 	0.0473	0.7173	0.3377	-0.005
Mof_H 	H 	0.0396	0.7508	0.3773	-0.007
Mof_N 	N 	0.2646	0.6522	0.2044	-0.295
Mof_N 	N 	0.1006	0.6492	0.2488	-0.297
Mof_N 	N 	0.1499	0.628	0.0671	-0.296
Mof_N 	N 	0.9979	0.6779	0.3008	-0.3
Mof_C 	C 	0.7107	0.2893	0.1727	0.102
Mof_H 	H 	0.7332	0.2668	0.1305	-0.064
Mof_C 	C 	0.2893	0.7107	0.1727	0.102
Mof_H 	H 	0.2668	0.7332	0.1305	-0.064
Mof_C 	C 	0.2107	0.2107	0.6727	0.102
Mof_H 	H 	0.2332	0.2332	0.6305	-0.064
Mof_C 	C 	0.7893	0.7893	0.6727	0.102
Mof_H 	H 	0.7668	0.7668	0.6305	-0.064
Mof_C 	C 	0.7893	0.7893	0.3273	0.102
Mof_H 	H 	0.7668	0.7668	0.3695	-0.064
Mof_C 	C 	0.2107	0.2107	0.3273	0.102
Mof_H 	H 	0.2332	0.2332	0.3695	-0.064
Mof_C 	C 	0.2893	0.7107	0.8273	0.102
Mof_H 	H 	0.2668	0.7332	0.8695	-0.064
Mof_C 	C 	0.7107	0.2893	0.8273	0.102
Mof_H 	H 	0.7332	0.2668	0.8695	-0.064
Mof_C 	C 	0.5971	0.1711	-0	0.093
Mof_H 	H 	0.5567	0.1989	-0	-0.064
Mof_C 	C 	0.4029	0.8289	-0	0.093
Mof_H 	H 	0.4433	0.8011	-0	-0.064
Mof_C 	C 	0.3289	0.0971	0.5	0.097
Mof_H 	H 	0.3011	0.0567	0.5	-0.064
Mof_C 	C 	0.6711	0.9029	0.5	0.097
Mof_H 	H 	0.6989	0.9433	0.5	-0.064
Mof_C 	C 	0.9029	0.6711	0.5	0.097
Mof_H 	H 	0.9433	0.6989	0.5	-0.064
Mof_C 	C 	0.0971	0.3289	0.5	0.097
Mof_H 	H 	0.0567	0.3011	0.5	-0.064
Mof_C 	C 	0.1711	0.5971	-0	0.093
Mof_H 	H 	0.1989	0.5567	-0	-0.064
Mof_C 	C 	0.8289	0.4029	-0	0.093
Mof_H 	H 	0.8011	0.4433	-0	-0.064
_end
