# CIF file generated by openbabel 3.1.0, see https://openbabel.org
data_I
_chemical_name_common 'image0'
_cell_length_a 8.265
_cell_length_b 8.265
_cell_length_c 15.512
_cell_angle_alpha 90
_cell_angle_beta 90
_cell_angle_gamma 90
_space_group_name_H-M_alt 'P 1'
_space_group_name_Hall 'P 1'
loop_
    _symmetry_equiv_pos_as_xyz
    x,y,z
loop_
    _atom_site_label
    _atom_site_type_symbol
    _atom_site_fract_x
    _atom_site_fract_y
    _atom_site_fract_z
    _atom_site_occupancy
    C1       C        0.49900    0.29130    0.15970    1.000
    N1       N        0.52000    0.19620    0.10770    1.000
    N2       N        0.21880    0.05900    0.01630    1.000
    H1       H        0.21037    0.17509    0.98435    1.000
    H2       H        0.21037    0.07763    0.08507    1.000
    H3       H        0.09931    0.88550    0.03229    1.000
    H4       H        0.09931    0.98296    0.93158    1.000
    C2       C        0.50100    0.70870    0.15970    1.000
    N3       N        0.48000    0.80380    0.10770    1.000
    N4       N        0.78120    0.94100    0.01630    1.000
    H5       H        0.78963    0.82491    0.98435    1.000
    H6       H        0.78963    0.92237    0.08507    1.000
    H7       H        0.90069    0.11450    0.03229    1.000
    H8       H        0.90069    0.01704    0.93158    1.000
    C3       C        0.70870    0.49900    0.65970    1.000
    N5       N        0.80380    0.52000    0.60770    1.000
    N6       N        0.94100    0.21880    0.51630    1.000
    H9       H        0.82491    0.21037    0.48435    1.000
    H10      H        0.92237    0.21037    0.58507    1.000
    H11      H        0.11450    0.09931    0.53229    1.000
    H12      H        0.01704    0.09931    0.43158    1.000
    C4       C        0.29130    0.50100    0.65970    1.000
    N7       N        0.19620    0.48000    0.60770    1.000
    N8       N        0.05900    0.78120    0.51630    1.000
    H13      H        0.17509    0.78963    0.48435    1.000
    H14      H        0.07763    0.78963    0.58507    1.000
    H15      H        0.88550    0.90069    0.53229    1.000
    H16      H        0.98296    0.90069    0.43158    1.000
    C5       C        0.50100    0.29130    0.84030    1.000
    N9       N        0.48000    0.19620    0.89230    1.000
    N10      N        0.78120    0.05900    0.98370    1.000
    H17      H        0.78963    0.17509    0.01565    1.000
    H18      H        0.78963    0.07763    0.91493    1.000
    H19      H        0.90069    0.88550    0.96771    1.000
    H20      H        0.90069    0.98296    0.06842    1.000
    C6       C        0.49900    0.70870    0.84030    1.000
    N11      N        0.52000    0.80380    0.89230    1.000
    N12      N        0.21880    0.94100    0.98370    1.000
    H21      H        0.21037    0.82491    0.01565    1.000
    H22      H        0.21037    0.92237    0.91493    1.000
    H23      H        0.09931    0.11450    0.96771    1.000
    H24      H        0.09931    0.01704    0.06842    1.000
    C7       C        0.29130    0.49900    0.34030    1.000
    N13      N        0.19620    0.52000    0.39230    1.000
    N14      N        0.05900    0.21880    0.48370    1.000
    H25      H        0.17509    0.21037    0.51565    1.000
    H26      H        0.07763    0.21037    0.41493    1.000
    H27      H        0.88550    0.09931    0.46771    1.000
    H28      H        0.98296    0.09931    0.56842    1.000
    C8       C        0.70870    0.50100    0.34030    1.000
    N15      N        0.80380    0.48000    0.39230    1.000
    N16      N        0.94100    0.78120    0.48370    1.000
    H29      H        0.82491    0.78963    0.51565    1.000
    H30      H        0.92237    0.78963    0.41493    1.000
    H31      H        0.11450    0.90069    0.46771    1.000
    H32      H        0.01704    0.90069    0.56842    1.000
    Cd1      Cd       0.50000    0.50000    0.25000    1.000
    Cd2      Cd       0.50000    0.50000    0.75000    1.000
    Cd3      Cd       0.50000    0.00000    0.00000    1.000
    Cd4      Cd       0.00000    0.50000    0.50000    1.000
    C9       C        0.08220    0.00000    0.00000    1.000
    C10      C        0.91780    0.00000    0.00000    1.000
    C11      C        0.00000    0.08220    0.50000    1.000
    C12      C        0.00000    0.91780    0.50000    1.000
