data_functionalizedCrystal
_audit_creation_method	'EQeq! by Chris Wilmer'
_symmetry_space_group_name_H-M	'P1'
_symmetry_Int_Tables_number	1
_symmetry_cell_setting	triclinic
loop_
_symmetry_equiv_pos_as_xyz
  x,y,z
_cell_length_a	16.2712
_cell_length_b	16.2712
_cell_length_c	17.2772
_cell_angle_alpha	90
_cell_angle_beta	90
_cell_angle_gamma	120
loop_
_atom_site_label
_atom_site_type_symbol
_atom_site_fract_x
_atom_site_fract_y
_atom_site_fract_z
_atom_site_charge
Mof_Co	Co	0.94408	0.59801	0.79344	1.185
Mof_Co	Co	0.96506	0.72431	0.95064	1.116
Mof_O 	O 	0.8289	0.6123	0.7768	-0.424
Mof_O 	O 	0.8763	0.7269	0.8637	-0.467
Mof_O 	O 	0.7204	0.9187	0.8831	-0.48
Mof_O 	O 	0.6723	0.9463	0.7703	-0.452
Mof_O 	O 	0.745	0.8024	0.5484	-0.28
Mof_O 	O 	0.6393	0.8475	0.5145	-0.417
Mof_O 	O 	0.4019	0.5392	0.3605	-0.35
Mof_O 	O 	0.369	0.4054	0.4132	-0.519
Mof_O 	O 	0.4636	0.4016	0.691	-0.386
Mof_O 	O 	0.4601	0.5153	0.7557	-0.318
Mof_C 	C 	0.7535	0.7052	0.7783	-0.111
Mof_C 	C 	0.7533	0.7823	0.8114	0.053
Mof_H 	H 	0.7917	0.8129	0.8538	0.024
Mof_C 	C 	0.6939	0.8141	0.7796	-0.115
Mof_C 	C 	0.6372	0.7687	0.7167	0.019
Mof_H 	H 	0.6002	0.7914	0.6948	0.05
Mof_C 	C 	0.6354	0.688	0.6858	-0.025
Mof_C 	C 	0.6935	0.6579	0.717	0.017
Mof_H 	H 	0.6925	0.6046	0.6964	0.054
Mof_C 	C 	0.8242	0.6792	0.8093	0.385
Mof_C 	C 	0.6965	0.9005	0.8138	0.407
Mof_C 	C 	0.5716	0.6387	0.6178	0.105
Mof_C 	C 	0.5819	0.6879	0.5499	-0.13
Mof_C 	C 	0.5237	0.6423	0.4848	0.076
Mof_H 	H 	0.5298	0.6768	0.4402	0.035
Mof_C 	C 	0.4578	0.546	0.4877	-0.137
Mof_C 	C 	0.4478	0.4959	0.5565	0.084
Mof_H 	H 	0.4053	0.431	0.5584	0.008
Mof_C 	C 	0.5008	0.5422	0.6219	-0.125
Mof_C 	C 	0.6607	0.7865	0.5379	0.338
Mof_C 	C 	0.4054	0.495	0.4176	0.367
Mof_C 	C 	0.4754	0.4855	0.6956	0.332
Mof_Co	Co	0.40199	0.34607	0.79344	1.185
Mof_Co	Co	0.27569	0.24075	0.95064	1.115
Mof_O 	O 	0.3877	0.2166	0.7768	-0.424
Mof_O 	O 	0.2731	0.1494	0.8637	-0.467
Mof_O 	O 	0.0813	0.8017	0.8831	-0.479
Mof_O 	O 	0.0537	0.726	0.7703	-0.452
Mof_O 	O 	0.1976	0.9426	0.5484	-0.279
Mof_O 	O 	0.1525	0.7918	0.5145	-0.417
Mof_O 	O 	0.4608	0.8627	0.3605	-0.35
Mof_O 	O 	0.5946	0.9636	0.4132	-0.519
Mof_O 	O 	0.5984	0.062	0.691	-0.389
Mof_O 	O 	0.4847	0.9448	0.7557	-0.317
Mof_C 	C 	0.2948	0.0483	0.7783	-0.114
Mof_C 	C 	0.2177	0.971	0.8114	0.058
Mof_H 	H 	0.1871	0.9788	0.8538	0.024
Mof_C 	C 	0.1859	0.8798	0.7796	-0.116
Mof_C 	C 	0.2313	0.8685	0.7167	0.019
Mof_H 	H 	0.2086	0.8088	0.6948	0.05
Mof_C 	C 	0.312	0.9474	0.6858	-0.022
Mof_C 	C 	0.3421	0.0356	0.717	0.015
Mof_H 	H 	0.3954	0.0879	0.6964	0.054
Mof_C 	C 	0.3208	0.145	0.8093	0.386
Mof_C 	C 	0.0995	0.796	0.8138	0.407
Mof_C 	C 	0.3613	0.9329	0.6178	0.105
Mof_C 	C 	0.3121	0.894	0.5499	-0.129
Mof_C 	C 	0.3577	0.8814	0.4848	0.076
Mof_H 	H 	0.3232	0.853	0.4402	0.035
Mof_C 	C 	0.454	0.9118	0.4877	-0.136
Mof_C 	C 	0.5041	0.9519	0.5565	0.084
Mof_H 	H 	0.569	0.9743	0.5584	0.009
Mof_C 	C 	0.4578	0.9586	0.6219	-0.125
Mof_C 	C 	0.2135	0.8742	0.5379	0.338
Mof_C 	C 	0.505	0.9104	0.4176	0.367
Mof_C 	C 	0.5145	0.9899	0.6956	0.335
Mof_Co	Co	0.65393	0.05592	0.79344	1.184
Mof_Co	Co	0.75925	0.03494	0.95064	1.114
Mof_O 	O 	0.7834	0.1711	0.7768	-0.424
Mof_O 	O 	0.8506	0.1237	0.8637	-0.468
Mof_O 	O 	0.1983	0.2796	0.8831	-0.482
Mof_O 	O 	0.274	0.3277	0.7703	-0.454
Mof_O 	O 	0.0574	0.255	0.5484	-0.28
Mof_O 	O 	0.2082	0.3607	0.5145	-0.418
Mof_O 	O 	0.1373	0.5981	0.3605	-0.35
Mof_O 	O 	0.0364	0.631	0.4132	-0.52
Mof_O 	O 	0.938	0.5364	0.691	-0.388
Mof_O 	O 	0.0552	0.5399	0.7557	-0.317
Mof_C 	C 	0.9517	0.2465	0.7783	-0.114
Mof_C 	C 	0.029	0.2467	0.8114	0.057
Mof_H 	H 	0.0212	0.2083	0.8538	0.023
Mof_C 	C 	0.1202	0.3061	0.7796	-0.117
Mof_C 	C 	0.1315	0.3628	0.7167	0.019
Mof_H 	H 	0.1912	0.3998	0.6948	0.05
Mof_C 	C 	0.0526	0.3646	0.6858	-0.023
Mof_C 	C 	0.9644	0.3065	0.717	0.016
Mof_H 	H 	0.9121	0.3075	0.6964	0.054
Mof_C 	C 	0.855	0.1758	0.8093	0.386
Mof_C 	C 	0.204	0.3035	0.8138	0.407
Mof_C 	C 	0.0671	0.4284	0.6178	0.105
Mof_C 	C 	0.106	0.4181	0.5499	-0.13
Mof_C 	C 	0.1186	0.4763	0.4848	0.077
Mof_H 	H 	0.147	0.4702	0.4402	0.035
Mof_C 	C 	0.0882	0.5422	0.4877	-0.137
Mof_C 	C 	0.0481	0.5522	0.5565	0.084
Mof_H 	H 	0.0257	0.5947	0.5584	0.009
Mof_C 	C 	0.0414	0.4992	0.6219	-0.126
Mof_C 	C 	0.1258	0.3393	0.5379	0.338
Mof_C 	C 	0.0896	0.5946	0.4176	0.367
Mof_C 	C 	0.0101	0.5246	0.6956	0.334
Mof_Co	Co	0.59801	0.94408	0.29344	1.186
Mof_Co	Co	0.72431	0.96506	0.45064	1.14
Mof_O 	O 	0.6123	0.8289	0.2768	-0.417
Mof_O 	O 	0.7269	0.8763	0.3637	-0.45
Mof_O 	O 	0.9187	0.7204	0.3831	-0.465
Mof_O 	O 	0.9463	0.6723	0.2703	-0.448
Mof_O 	O 	0.8024	0.745	0.0484	-0.248
Mof_O 	O 	0.8475	0.6393	0.0145	-0.369
Mof_O 	O 	0.5392	0.4019	0.8605	-0.359
Mof_O 	O 	0.4054	0.369	0.9132	-0.542
Mof_O 	O 	0.4016	0.4636	0.191	-0.38
Mof_O 	O 	0.5153	0.4601	0.2557	-0.313
Mof_C 	C 	0.7052	0.7535	0.2783	-0.096
Mof_C 	C 	0.7823	0.7533	0.3114	0.044
Mof_H 	H 	0.8129	0.7917	0.3538	0.038
Mof_C 	C 	0.8141	0.6939	0.2796	-0.101
Mof_C 	C 	0.7687	0.6372	0.2167	0.009
Mof_H 	H 	0.7914	0.6002	0.1948	0.057
Mof_C 	C 	0.688	0.6354	0.1858	-0.009
Mof_C 	C 	0.6579	0.6935	0.217	0.007
Mof_H 	H 	0.6046	0.6925	0.1964	0.063
Mof_C 	C 	0.6792	0.8242	0.3093	0.382
Mof_C 	C 	0.9005	0.6965	0.3138	0.403
Mof_C 	C 	0.6387	0.5716	0.1178	0.091
Mof_C 	C 	0.6879	0.5819	0.0499	-0.042
Mof_C 	C 	0.6423	0.5237	0.9848	-0.009
Mof_H 	H 	0.6768	0.5298	0.9402	0.049
Mof_C 	C 	0.546	0.4578	0.9877	-0.207
Mof_C 	C 	0.4959	0.4478	0.0565	0.182
Mof_H 	H 	0.431	0.4053	0.0584	-0.006
Mof_C 	C 	0.5422	0.5008	0.1219	-0.136
Mof_C 	C 	0.7865	0.6607	0.0379	0.316
Mof_C 	C 	0.495	0.4054	0.9176	0.377
Mof_C 	C 	0.4855	0.4754	0.1956	0.336
Mof_Co	Co	0.34607	0.40199	0.29344	1.186
Mof_Co	Co	0.24075	0.27569	0.45064	1.139
Mof_O 	O 	0.2166	0.3877	0.2768	-0.417
Mof_O 	O 	0.1494	0.2731	0.3637	-0.45
Mof_O 	O 	0.8017	0.0813	0.3831	-0.466
Mof_O 	O 	0.726	0.0537	0.2703	-0.448
Mof_O 	O 	0.9426	0.1976	0.0484	-0.246
Mof_O 	O 	0.7918	0.1525	0.0145	-0.367
Mof_O 	O 	0.8627	0.4608	0.8605	-0.359
Mof_O 	O 	0.9636	0.5946	0.9132	-0.543
Mof_O 	O 	0.062	0.5984	0.191	-0.382
Mof_O 	O 	0.9448	0.4847	0.2557	-0.313
Mof_C 	C 	0.0483	0.2948	0.2783	-0.096
Mof_C 	C 	0.971	0.2177	0.3114	0.045
Mof_H 	H 	0.9788	0.1871	0.3538	0.037
Mof_C 	C 	0.8798	0.1859	0.2796	-0.101
Mof_C 	C 	0.8685	0.2313	0.2167	0.008
Mof_H 	H 	0.8088	0.2086	0.1948	0.057
Mof_C 	C 	0.9474	0.312	0.1858	-0.007
Mof_C 	C 	0.0356	0.3421	0.217	0.004
Mof_H 	H 	0.0879	0.3954	0.1964	0.064
Mof_C 	C 	0.145	0.3208	0.3093	0.382
Mof_C 	C 	0.796	0.0995	0.3138	0.403
Mof_C 	C 	0.9329	0.3613	0.1178	0.09
Mof_C 	C 	0.894	0.3121	0.0499	-0.039
Mof_C 	C 	0.8814	0.3577	0.9848	-0.013
Mof_H 	H 	0.853	0.3232	0.9402	0.05
Mof_C 	C 	0.9118	0.454	0.9877	-0.208
Mof_C 	C 	0.9519	0.5041	0.0565	0.185
Mof_H 	H 	0.9743	0.569	0.0584	-0.006
Mof_C 	C 	0.9586	0.4578	0.1219	-0.136
Mof_C 	C 	0.8742	0.2135	0.0379	0.315
Mof_C 	C 	0.9104	0.505	0.9176	0.378
Mof_C 	C 	0.9899	0.5145	0.1956	0.338
Mof_Co	Co	0.05592	0.65393	0.29344	1.186
Mof_Co	Co	0.03494	0.75925	0.45064	1.14
Mof_O 	O 	0.1711	0.7834	0.2768	-0.417
Mof_O 	O 	0.1237	0.8506	0.3637	-0.45
Mof_O 	O 	0.2796	0.1983	0.3831	-0.465
Mof_O 	O 	0.3277	0.274	0.2703	-0.448
Mof_O 	O 	0.255	0.0574	0.0484	-0.248
Mof_O 	O 	0.3607	0.2082	0.0145	-0.369
Mof_O 	O 	0.5981	0.1373	0.8605	-0.36
Mof_O 	O 	0.631	0.0364	0.9132	-0.544
Mof_O 	O 	0.5364	0.938	0.191	-0.381
Mof_O 	O 	0.5399	0.0552	0.2557	-0.313
Mof_C 	C 	0.2465	0.9517	0.2783	-0.096
Mof_C 	C 	0.2467	0.029	0.3114	0.044
Mof_H 	H 	0.2083	0.0212	0.3538	0.037
Mof_C 	C 	0.3061	0.1202	0.2796	-0.101
Mof_C 	C 	0.3628	0.1315	0.2167	0.008
Mof_H 	H 	0.3998	0.1912	0.1948	0.057
Mof_C 	C 	0.3646	0.0526	0.1858	-0.008
Mof_C 	C 	0.3065	0.9644	0.217	0.004
Mof_H 	H 	0.3075	0.9121	0.1964	0.063
Mof_C 	C 	0.1758	0.855	0.3093	0.381
Mof_C 	C 	0.3035	0.204	0.3138	0.403
Mof_C 	C 	0.4284	0.0671	0.1178	0.091
Mof_C 	C 	0.4181	0.106	0.0499	-0.041
Mof_C 	C 	0.4763	0.1186	0.9848	-0.01
Mof_H 	H 	0.4702	0.147	0.9402	0.049
Mof_C 	C 	0.5422	0.0882	0.9877	-0.21
Mof_C 	C 	0.5522	0.0481	0.0565	0.185
Mof_H 	H 	0.5947	0.0257	0.0584	-0.006
Mof_C 	C 	0.4992	0.0414	0.1219	-0.137
Mof_C 	C 	0.3393	0.1258	0.0379	0.316
Mof_C 	C 	0.5946	0.0896	0.9176	0.378
Mof_C 	C 	0.5246	0.0101	0.1956	0.338
_end
