# CIF file generated by openbabel 3.1.0, see https://openbabel.org
data_I
_chemical_name_common 'VODPOU_clean'
_cell_length_a 13.477
_cell_length_b 15.2396
_cell_length_c 26.22
_cell_angle_alpha 90
_cell_angle_beta 90
_cell_angle_gamma 90
_space_group_name_H-M_alt 'P 1'
_space_group_name_Hall 'P 1'
loop_
    _symmetry_equiv_pos_as_xyz
    x,y,z
loop_
    _atom_site_label
    _atom_site_type_symbol
    _atom_site_fract_x
    _atom_site_fract_y
    _atom_site_fract_z
    _atom_site_occupancy
    Mn1      Mn       0.30367    0.95928    0.63982    1.000
    Mn2      Mn       0.31094    0.25026    0.30743    1.000
    Mn3      Mn       0.57820    0.46976    0.82576    1.000
    Mn4      Mn       0.69633    0.54072    0.13982    1.000
    Mn5      Mn       0.68906    0.24974    0.80743    1.000
    Mn6      Mn       0.42180    0.03024    0.32576    1.000
    Mn7      Mn       0.80367    0.04072    0.86018    1.000
    Mn8      Mn       0.81094    0.74974    0.19257    1.000
    Mn9      Mn       0.07820    0.53024    0.67424    1.000
    Mn10     Mn       0.19633    0.45928    0.36018    1.000
    Mn11     Mn       0.18906    0.75026    0.69257    1.000
    Mn12     Mn       0.92180    0.96976    0.17424    1.000
    Mn13     Mn       0.69633    0.04072    0.36018    1.000
    Mn14     Mn       0.68906    0.74974    0.69257    1.000
    Mn15     Mn       0.42180    0.53024    0.17424    1.000
    Mn16     Mn       0.30367    0.45928    0.86018    1.000
    Mn17     Mn       0.31094    0.75026    0.19257    1.000
    Mn18     Mn       0.57820    0.96976    0.67424    1.000
    Mn19     Mn       0.19633    0.95928    0.13982    1.000
    Mn20     Mn       0.18906    0.25026    0.80743    1.000
    Mn21     Mn       0.92180    0.46976    0.32576    1.000
    Mn22     Mn       0.80367    0.54072    0.63982    1.000
    Mn23     Mn       0.81094    0.24974    0.30743    1.000
    Mn24     Mn       0.07820    0.03024    0.82576    1.000
    H1       H        0.36870    0.57870    0.63490    1.000
    H2       H        0.48800    0.38740    0.71900    1.000
    H3       H        0.51210    0.62890    0.76380    1.000
    H4       H        0.31080    0.02940    0.53190    1.000
    H5       H        0.39380    0.43060    0.64940    1.000
    H6       H        0.12340    0.22290    0.50360    1.000
    H7       H        0.08140    0.22330    0.58950    1.000
    H8       H        0.13970    0.11420    0.64010    1.000
    H9       H        0.63130    0.92130    0.13490    1.000
    H10      H        0.51200    0.11260    0.21900    1.000
    H11      H        0.48790    0.87110    0.26380    1.000
    H12      H        0.68920    0.47060    0.03190    1.000
    H13      H        0.60620    0.06940    0.14940    1.000
    H14      H        0.87660    0.27710    0.00360    1.000
    H15      H        0.91860    0.27670    0.08950    1.000
    H16      H        0.86030    0.38580    0.14010    1.000
    H17      H        0.86870    0.42130    0.86510    1.000
    H18      H        0.98800    0.61260    0.78100    1.000
    H19      H        0.01210    0.37110    0.73620    1.000
    H20      H        0.81080    0.97060    0.96810    1.000
    H21      H        0.89380    0.56940    0.85060    1.000
    H22      H        0.62340    0.77710    0.99640    1.000
    H23      H        0.58140    0.77670    0.91050    1.000
    H24      H        0.63970    0.88580    0.85990    1.000
    H25      H        0.13130    0.07870    0.36510    1.000
    H26      H        0.01200    0.88740    0.28100    1.000
    H27      H        0.98790    0.12890    0.23620    1.000
    H28      H        0.18920    0.52940    0.46810    1.000
    H29      H        0.10620    0.93060    0.35060    1.000
    H30      H        0.37660    0.72290    0.49640    1.000
    H31      H        0.41860    0.72330    0.41050    1.000
    H32      H        0.36030    0.61420    0.35990    1.000
    H33      H        0.63130    0.42130    0.36510    1.000
    H34      H        0.51200    0.61260    0.28100    1.000
    H35      H        0.48790    0.37110    0.23620    1.000
    H36      H        0.68920    0.97060    0.46810    1.000
    H37      H        0.60620    0.56940    0.35060    1.000
    H38      H        0.87660    0.77710    0.49640    1.000
    H39      H        0.91860    0.77670    0.41050    1.000
    H40      H        0.86030    0.88580    0.35990    1.000
    H41      H        0.36870    0.07870    0.86510    1.000
    H42      H        0.48800    0.88740    0.78100    1.000
    H43      H        0.51210    0.12890    0.73620    1.000
    H44      H        0.31080    0.52940    0.96810    1.000
    H45      H        0.39380    0.93060    0.85060    1.000
    H46      H        0.12340    0.72290    0.99640    1.000
    H47      H        0.08140    0.72330    0.91050    1.000
    H48      H        0.13970    0.61420    0.85990    1.000
    H49      H        0.13130    0.57870    0.13490    1.000
    H50      H        0.01200    0.38740    0.21900    1.000
    H51      H        0.98790    0.62890    0.26380    1.000
    H52      H        0.18920    0.02940    0.03190    1.000
    H53      H        0.10620    0.43060    0.14940    1.000
    H54      H        0.37660    0.22290    0.00360    1.000
    H55      H        0.41860    0.22330    0.08950    1.000
    H56      H        0.36030    0.11420    0.14010    1.000
    H57      H        0.86870    0.92130    0.63490    1.000
    H58      H        0.98800    0.11260    0.71900    1.000
    H59      H        0.01210    0.87110    0.76380    1.000
    H60      H        0.81080    0.47060    0.53190    1.000
    H61      H        0.89380    0.06940    0.64940    1.000
    H62      H        0.62340    0.27710    0.50360    1.000
    H63      H        0.58140    0.27670    0.58950    1.000
    H64      H        0.63970    0.38580    0.64010    1.000
    C1       C        0.40410    0.55970    0.66330    1.000
    C2       C        0.47370    0.44660    0.71450    1.000
    C3       C        0.48970    0.58830    0.73990    1.000
    C4       C        0.44220    0.61920    0.69760    1.000
    C5       C        0.32260    0.06890    0.43670    1.000
    C6       C        0.26340    0.06920    0.54330    1.000
    C7       C        0.43750    0.71640    0.69000    1.000
    C8       C        0.41930    0.47230    0.67180    1.000
    C9       C        0.22970    0.13140    0.50940    1.000
    C10      C        0.15470    0.18490    0.52620    1.000
    C11      C        0.12580    0.18220    0.57660    1.000
    C12      C        0.16340    0.11870    0.60690    1.000
    C13      C        0.59590    0.94030    0.16330    1.000
    C14      C        0.52630    0.05340    0.21450    1.000
    C15      C        0.51030    0.91170    0.23990    1.000
    C16      C        0.55780    0.88080    0.19760    1.000
    C17      C        0.67740    0.43110    0.93670    1.000
    C18      C        0.73660    0.43080    0.04330    1.000
    C19      C        0.56250    0.78360    0.19000    1.000
    C20      C        0.58070    0.02770    0.17180    1.000
    C21      C        0.77030    0.36860    0.00940    1.000
    C22      C        0.84530    0.31510    0.02620    1.000
    C23      C        0.87420    0.31780    0.07660    1.000
    C24      C        0.83660    0.38130    0.10690    1.000
    C25      C        0.90410    0.44030    0.83670    1.000
    C26      C        0.97370    0.55340    0.78550    1.000
    C27      C        0.98970    0.41170    0.76010    1.000
    C28      C        0.94220    0.38080    0.80240    1.000
    C29      C        0.82260    0.93110    0.06330    1.000
    C30      C        0.76340    0.93080    0.95670    1.000
    C31      C        0.93750    0.28360    0.81000    1.000
    C32      C        0.91930    0.52770    0.82820    1.000
    C33      C        0.72970    0.86860    0.99060    1.000
    C34      C        0.65470    0.81510    0.97380    1.000
    C35      C        0.62580    0.81780    0.92340    1.000
    C36      C        0.66340    0.88130    0.89310    1.000
    C37      C        0.09590    0.05970    0.33670    1.000
    C38      C        0.02630    0.94660    0.28550    1.000
    C39      C        0.01030    0.08830    0.26010    1.000
    C40      C        0.05780    0.11920    0.30240    1.000
    C41      C        0.17740    0.56890    0.56330    1.000
    C42      C        0.23660    0.56920    0.45670    1.000
    C43      C        0.06250    0.21640    0.31000    1.000
    C44      C        0.08070    0.97230    0.32820    1.000
    C45      C        0.27030    0.63140    0.49060    1.000
    C46      C        0.34530    0.68490    0.47380    1.000
    C47      C        0.37420    0.68220    0.42340    1.000
    C48      C        0.33660    0.61870    0.39310    1.000
    C49      C        0.59590    0.44030    0.33670    1.000
    C50      C        0.52630    0.55340    0.28550    1.000
    C51      C        0.51030    0.41170    0.26010    1.000
    C52      C        0.55780    0.38080    0.30240    1.000
    C53      C        0.67740    0.93110    0.56330    1.000
    C54      C        0.73660    0.93080    0.45670    1.000
    C55      C        0.56250    0.28360    0.31000    1.000
    C56      C        0.58070    0.52770    0.32820    1.000
    C57      C        0.77030    0.86860    0.49060    1.000
    C58      C        0.84530    0.81510    0.47380    1.000
    C59      C        0.87420    0.81780    0.42340    1.000
    C60      C        0.83660    0.88130    0.39310    1.000
    C61      C        0.40410    0.05970    0.83670    1.000
    C62      C        0.47370    0.94660    0.78550    1.000
    C63      C        0.48970    0.08830    0.76010    1.000
    C64      C        0.44220    0.11920    0.80240    1.000
    C65      C        0.32260    0.56890    0.06330    1.000
    C66      C        0.26340    0.56920    0.95670    1.000
    C67      C        0.43750    0.21640    0.81000    1.000
    C68      C        0.41930    0.97230    0.82820    1.000
    C69      C        0.22970    0.63140    0.99060    1.000
    C70      C        0.15470    0.68490    0.97380    1.000
    C71      C        0.12580    0.68220    0.92340    1.000
    C72      C        0.16340    0.61870    0.89310    1.000
    C73      C        0.09590    0.55970    0.16330    1.000
    C74      C        0.02630    0.44660    0.21450    1.000
    C75      C        0.01030    0.58830    0.23990    1.000
    C76      C        0.05780    0.61920    0.19760    1.000
    C77      C        0.17740    0.06890    0.93670    1.000
    C78      C        0.23660    0.06920    0.04330    1.000
    C79      C        0.06250    0.71640    0.19000    1.000
    C80      C        0.08070    0.47230    0.17180    1.000
    C81      C        0.27030    0.13140    0.00940    1.000
    C82      C        0.34530    0.18490    0.02620    1.000
    C83      C        0.37420    0.18220    0.07660    1.000
    C84      C        0.33660    0.11870    0.10690    1.000
    C85      C        0.90410    0.94030    0.66330    1.000
    C86      C        0.97370    0.05340    0.71450    1.000
    C87      C        0.98970    0.91170    0.73990    1.000
    C88      C        0.94220    0.88080    0.69760    1.000
    C89      C        0.82260    0.43110    0.43670    1.000
    C90      C        0.76340    0.43080    0.54330    1.000
    C91      C        0.93750    0.78360    0.69000    1.000
    C92      C        0.91930    0.02770    0.67180    1.000
    C93      C        0.72970    0.36860    0.50940    1.000
    C94      C        0.65470    0.31510    0.52620    1.000
    C95      C        0.62580    0.31780    0.57660    1.000
    C96      C        0.66340    0.38130    0.60690    1.000
    N1       N        0.30750    0.17730    0.38327    1.000
    N2       N        0.05840    0.87050    0.58000    1.000
    N3       N        0.17300    0.87460    0.65060    1.000
    N4       N        0.25820    0.20190    0.42560    1.000
    N5       N        0.50600    0.50370    0.74910    1.000
    N6       N        0.22910    0.07400    0.74360    1.000
    N7       N        0.34490    0.09790    0.39060    1.000
    N8       N        0.11460    0.87330    0.61430    1.000
    N9       N        0.44780    0.10170    0.62750    1.000
    N10      N        0.29170    0.29870    0.23170    1.000
    N11      N        0.31250    0.35860    0.20330    1.000
    N12      N        0.26880    0.03500    0.71060    1.000
    N13      N        0.35520    0.76320    0.68278    1.000
    N14      N        0.33120    0.41670    0.17260    1.000
    N15      N        0.51930    0.76510    0.68942    1.000
    N16      N        0.48490    0.84750    0.68094    1.000
    N17      N        0.18840    0.11190    0.77760    1.000
    N18      N        0.45010    0.02420    0.63470    1.000
    N19      N        0.27080    0.13220    0.45680    1.000
    N20      N        0.44440    0.18030    0.62520    1.000
    N21      N        0.23200    0.06260    0.59180    1.000
    N22      N        0.38850    0.84590    0.67704    1.000
    N23      N        0.69250    0.32270    0.88327    1.000
    N24      N        0.94160    0.62950    0.08000    1.000
    N25      N        0.82700    0.62540    0.15060    1.000
    N26      N        0.74180    0.29810    0.92560    1.000
    N27      N        0.49400    0.99630    0.24910    1.000
    N28      N        0.77090    0.42600    0.24360    1.000
    N29      N        0.65510    0.40210    0.89060    1.000
    N30      N        0.88540    0.62670    0.11430    1.000
    N31      N        0.55220    0.39830    0.12750    1.000
    N32      N        0.70830    0.20130    0.73170    1.000
    N33      N        0.68750    0.14140    0.70330    1.000
    N34      N        0.73120    0.46500    0.21060    1.000
    N35      N        0.64480    0.73680    0.18278    1.000
    N36      N        0.66880    0.08330    0.67260    1.000
    N37      N        0.48070    0.73490    0.18942    1.000
    N38      N        0.51510    0.65250    0.18094    1.000
    N39      N        0.81160    0.38810    0.27760    1.000
    N40      N        0.54990    0.47580    0.13470    1.000
    N41      N        0.72920    0.36780    0.95680    1.000
    N42      N        0.55560    0.31970    0.12520    1.000
    N43      N        0.76800    0.43740    0.09180    1.000
    N44      N        0.61150    0.65410    0.17704    1.000
    N45      N        0.80750    0.82270    0.11673    1.000
    N46      N        0.55840    0.12950    0.92000    1.000
    N47      N        0.67300    0.12540    0.84940    1.000
    N48      N        0.75820    0.79810    0.07440    1.000
    N49      N        0.00600    0.49630    0.75090    1.000
    N50      N        0.72910    0.92600    0.75640    1.000
    N51      N        0.84490    0.90210    0.10940    1.000
    N52      N        0.61460    0.12670    0.88570    1.000
    N53      N        0.94780    0.89830    0.87250    1.000
    N54      N        0.79170    0.70130    0.26830    1.000
    N55      N        0.81250    0.64140    0.29670    1.000
    N56      N        0.76880    0.96500    0.78940    1.000
    N57      N        0.85520    0.23680    0.81722    1.000
    N58      N        0.83120    0.58330    0.32740    1.000
    N59      N        0.01930    0.23490    0.81058    1.000
    N60      N        0.98490    0.15250    0.81906    1.000
    N61      N        0.68840    0.88810    0.72240    1.000
    N62      N        0.95010    0.97580    0.86530    1.000
    N63      N        0.77080    0.86780    0.04320    1.000
    N64      N        0.94440    0.81970    0.87480    1.000
    N65      N        0.73200    0.93740    0.90820    1.000
    N66      N        0.88850    0.15410    0.82296    1.000
    N67      N        0.19250    0.67730    0.61673    1.000
    N68      N        0.44160    0.37050    0.42000    1.000
    N69      N        0.32700    0.37460    0.34940    1.000
    N70      N        0.24180    0.70190    0.57440    1.000
    N71      N        0.99400    0.00370    0.25090    1.000
    N72      N        0.27090    0.57400    0.25640    1.000
    N73      N        0.15510    0.59790    0.60940    1.000
    N74      N        0.38540    0.37330    0.38570    1.000
    N75      N        0.05220    0.60170    0.37250    1.000
    N76      N        0.20830    0.79870    0.76830    1.000
    N77      N        0.18750    0.85860    0.79670    1.000
    N78      N        0.23120    0.53500    0.28940    1.000
    N79      N        0.14480    0.26320    0.31722    1.000
    N80      N        0.16880    0.91670    0.82740    1.000
    N81      N        0.98070    0.26510    0.31058    1.000
    N82      N        0.01510    0.34750    0.31906    1.000
    N83      N        0.31160    0.61190    0.22240    1.000
    N84      N        0.04990    0.52420    0.36530    1.000
    N85      N        0.22920    0.63220    0.54320    1.000
    N86      N        0.05560    0.68030    0.37480    1.000
    N87      N        0.26800    0.56260    0.40820    1.000
    N88      N        0.11150    0.34590    0.32296    1.000
    N89      N        0.69250    0.82270    0.61673    1.000
    N90      N        0.94160    0.12950    0.42000    1.000
    N91      N        0.82700    0.12540    0.34940    1.000
    N92      N        0.74180    0.79810    0.57440    1.000
    N93      N        0.49400    0.49630    0.25090    1.000
    N94      N        0.77090    0.92600    0.25640    1.000
    N95      N        0.65510    0.90210    0.60940    1.000
    N96      N        0.88540    0.12670    0.38570    1.000
    N97      N        0.55220    0.89830    0.37250    1.000
    N98      N        0.70830    0.70130    0.76830    1.000
    N99      N        0.68750    0.64140    0.79670    1.000
    N100     N        0.73120    0.96500    0.28940    1.000
    N101     N        0.64480    0.23680    0.31722    1.000
    N102     N        0.66880    0.58330    0.82740    1.000
    N103     N        0.48070    0.23490    0.31058    1.000
    N104     N        0.51510    0.15250    0.31906    1.000
    N105     N        0.81160    0.88810    0.22240    1.000
    N106     N        0.54990    0.97580    0.36530    1.000
    N107     N        0.72920    0.86780    0.54320    1.000
    N108     N        0.55560    0.81970    0.37480    1.000
    N109     N        0.76800    0.93740    0.40820    1.000
    N110     N        0.61150    0.15410    0.32296    1.000
    N111     N        0.30750    0.67730    0.11673    1.000
    N112     N        0.05840    0.37050    0.92000    1.000
    N113     N        0.17300    0.37460    0.84940    1.000
    N114     N        0.25820    0.70190    0.07440    1.000
    N115     N        0.50600    0.00370    0.75090    1.000
    N116     N        0.22910    0.57400    0.75640    1.000
    N117     N        0.34490    0.59790    0.10940    1.000
    N118     N        0.11460    0.37330    0.88570    1.000
    N119     N        0.44780    0.60170    0.87250    1.000
    N120     N        0.29170    0.79870    0.26830    1.000
    N121     N        0.31250    0.85860    0.29670    1.000
    N122     N        0.26880    0.53500    0.78940    1.000
    N123     N        0.35520    0.26320    0.81722    1.000
    N124     N        0.33120    0.91670    0.32740    1.000
    N125     N        0.51930    0.26510    0.81058    1.000
    N126     N        0.48490    0.34750    0.81906    1.000
    N127     N        0.18840    0.61190    0.72240    1.000
    N128     N        0.45010    0.52420    0.86530    1.000
    N129     N        0.27080    0.63220    0.04320    1.000
    N130     N        0.44440    0.68030    0.87480    1.000
    N131     N        0.23200    0.56260    0.90820    1.000
    N132     N        0.38850    0.34590    0.82296    1.000
    N133     N        0.19250    0.17730    0.88327    1.000
    N134     N        0.44160    0.87050    0.08000    1.000
    N135     N        0.32700    0.87460    0.15060    1.000
    N136     N        0.24180    0.20190    0.92560    1.000
    N137     N        0.99400    0.50370    0.24910    1.000
    N138     N        0.27090    0.07400    0.24360    1.000
    N139     N        0.15510    0.09790    0.89060    1.000
    N140     N        0.38540    0.87330    0.11430    1.000
    N141     N        0.05220    0.10170    0.12750    1.000
    N142     N        0.20830    0.29870    0.73170    1.000
    N143     N        0.18750    0.35860    0.70330    1.000
    N144     N        0.23120    0.03500    0.21060    1.000
    N145     N        0.14480    0.76320    0.18278    1.000
    N146     N        0.16880    0.41670    0.67260    1.000
    N147     N        0.98070    0.76510    0.18942    1.000
    N148     N        0.01510    0.84750    0.18094    1.000
    N149     N        0.31160    0.11190    0.27760    1.000
    N150     N        0.04990    0.02420    0.13470    1.000
    N151     N        0.22920    0.13220    0.95680    1.000
    N152     N        0.05560    0.18030    0.12520    1.000
    N153     N        0.26800    0.06260    0.09180    1.000
    N154     N        0.11150    0.84590    0.17704    1.000
    N155     N        0.80750    0.32270    0.38327    1.000
    N156     N        0.55840    0.62950    0.58000    1.000
    N157     N        0.67300    0.62540    0.65060    1.000
    N158     N        0.75820    0.29810    0.42560    1.000
    N159     N        0.00600    0.99630    0.74910    1.000
    N160     N        0.72910    0.42600    0.74360    1.000
    N161     N        0.84490    0.40210    0.39060    1.000
    N162     N        0.61460    0.62670    0.61430    1.000
    N163     N        0.94780    0.39830    0.62750    1.000
    N164     N        0.79170    0.20130    0.23170    1.000
    N165     N        0.81250    0.14140    0.20330    1.000
    N166     N        0.76880    0.46500    0.71060    1.000
    N167     N        0.85520    0.73680    0.68278    1.000
    N168     N        0.83120    0.08330    0.17260    1.000
    N169     N        0.01930    0.73490    0.68942    1.000
    N170     N        0.98490    0.65250    0.68094    1.000
    N171     N        0.68840    0.38810    0.77760    1.000
    N172     N        0.95010    0.47580    0.63470    1.000
    N173     N        0.77080    0.36780    0.45680    1.000
    N174     N        0.94440    0.31970    0.62520    1.000
    N175     N        0.73200    0.43740    0.59180    1.000
    N176     N        0.88850    0.65410    0.67704    1.000
