# CIF file generated by openbabel 3.1.0, see https://openbabel.org
data_I
_chemical_name_common 'image0'
_cell_length_a 7.5174
_cell_length_b 14.3676
_cell_length_c 16.35
_cell_angle_alpha 76.831
_cell_angle_beta 84.282
_cell_angle_gamma 89.965
_space_group_name_H-M_alt 'P 1'
_space_group_name_Hall 'P 1'
loop_
    _symmetry_equiv_pos_as_xyz
    x,y,z
loop_
    _atom_site_label
    _atom_site_type_symbol
    _atom_site_fract_x
    _atom_site_fract_y
    _atom_site_fract_z
    _atom_site_occupancy
    Pt1      Pt       0.49365    0.23890    0.03256    1.000
    N1       N        0.02000    0.10040    0.87620    1.000
    N2       N        0.19100    0.08650    0.03530    1.000
    N3       N        0.79900    0.39070    0.02010    1.000
    N4       N        0.20400    0.39790    0.00700    1.000
    N5       N        0.99300    0.47600    0.13740    1.000
    N6       N        0.78800    0.08230    0.03870    1.000
    C1       C        0.04300    0.06570    0.80920    1.000
    H1       H        0.05380    0.00020    0.81450    1.000
    C2       C        0.05300    0.12830    0.72790    1.000
    H2       H        0.07440    0.10340    0.68020    1.000
    C3       C        0.03000    0.22850    0.71830    1.000
    C4       C        0.01300    0.26170    0.79160    1.000
    H3       H        0.00570    0.32690    0.78900    1.000
    C5       C        0.00600    0.19760    0.86820    1.000
    H4       H        0.99120    0.22090    0.91700    1.000
    C6       C        0.03100    0.29300    0.63510    1.000
    C7       C        0.01600    0.33400    0.56340    1.000
    C8       C        0.30100    0.14220    0.03750    1.000
    C9       C        0.68800    0.33640    0.02590    1.000
    C10      C        0.31000    0.34060    0.01810    1.000
    C11      C        0.68000    0.13830    0.04120    1.000
    C12      C        0.14800    0.48700    0.17190    1.000
    H5       H        0.25250    0.50650    0.13650    1.000
    C13      C        0.15300    0.46800    0.26170    1.000
    H6       H        0.25800    0.47540    0.28540    1.000
    C14      C        0.99000    0.43600    0.31320    1.000
    C15      C        0.83700    0.43200    0.27730    1.000
    H7       H        0.72930    0.41690    0.31130    1.000
    C16      C        0.83800    0.45100    0.18750    1.000
    H8       H        0.73250    0.44710    0.16350    1.000
    C17      C        0.99500    0.40700    0.40450    1.000
    C18      C        0.00600    0.38140    0.47770    1.000
    Pt2      Pt       0.50635    0.76110    0.96744    1.000
    N7       N        0.98000    0.89960    0.12380    1.000
    N8       N        0.80900    0.91350    0.96470    1.000
    N9       N        0.20100    0.60930    0.97990    1.000
    N10      N        0.79600    0.60210    0.99300    1.000
    N11      N        0.00700    0.52400    0.86260    1.000
    N12      N        0.21200    0.91770    0.96130    1.000
    C19      C        0.95700    0.93430    0.19080    1.000
    H9       H        0.94620    0.99980    0.18550    1.000
    C20      C        0.94700    0.87170    0.27210    1.000
    H10      H        0.92560    0.89660    0.31980    1.000
    C21      C        0.97000    0.77150    0.28170    1.000
    C22      C        0.98700    0.73830    0.20840    1.000
    H11      H        0.99430    0.67310    0.21100    1.000
    C23      C        0.99400    0.80240    0.13180    1.000
    H12      H        0.00880    0.77910    0.08300    1.000
    C24      C        0.96900    0.70700    0.36490    1.000
    C25      C        0.98400    0.66600    0.43660    1.000
    C26      C        0.69900    0.85780    0.96250    1.000
    C27      C        0.31200    0.66360    0.97410    1.000
    C28      C        0.69000    0.65940    0.98190    1.000
    C29      C        0.32000    0.86170    0.95880    1.000
    C30      C        0.85200    0.51300    0.82810    1.000
    H13      H        0.74750    0.49350    0.86350    1.000
    C31      C        0.84700    0.53200    0.73830    1.000
    H14      H        0.74200    0.52460    0.71460    1.000
    C32      C        0.01000    0.56400    0.68680    1.000
    C33      C        0.16300    0.56800    0.72270    1.000
    H15      H        0.27070    0.58310    0.68870    1.000
    C34      C        0.16200    0.54900    0.81250    1.000
    H16      H        0.26750    0.55290    0.83650    1.000
    C35      C        0.00500    0.59300    0.59550    1.000
    C36      C        0.99400    0.61860    0.52230    1.000
    Fe1      Fe       0.00000    0.50000    0.00000    1.000
    Fe2      Fe       0.00000    0.00000    0.00000    1.000
