# CIF file generated by openbabel 3.1.0, see https://openbabel.org
data_I
_chemical_name_common 'image0'
_cell_length_a 18.76
_cell_length_b 18.76
_cell_length_c 17.999
_cell_angle_alpha 90
_cell_angle_beta 90
_cell_angle_gamma 90
_space_group_name_H-M_alt 'P 1'
_space_group_name_Hall 'P 1'
loop_
    _symmetry_equiv_pos_as_xyz
    x,y,z
loop_
    _atom_site_label
    _atom_site_type_symbol
    _atom_site_fract_x
    _atom_site_fract_y
    _atom_site_fract_z
    _atom_site_occupancy
    C1       C        0.90340    0.80030    0.76280    1.000
    C2       C        0.88040    0.77410    0.68800    1.000
    C3       C        0.81400    0.76480    0.66120    1.000
    H1       H        0.77280    0.77660    0.68720    1.000
    C4       C        0.03580    0.77570    0.96540    1.000
    H2       H        0.02780    0.73260    0.94120    1.000
    C5       C        0.08450    0.78790    0.01950    1.000
    H3       H        0.11580    0.75450    0.03930    1.000
    C6       C        0.97790    0.97010    0.77030    1.000
    H4       H        0.95980    0.94730    0.72850    1.000
    N1       N        0.02930    0.88640    0.99900    1.000
    N2       N        0.00100    0.83800    0.95300    1.000
    N3       N        0.07970    0.85560    0.03920    1.000
    N4       N        0.96640    0.95160    0.83980    1.000
    O1       O        0.96220    0.79080    0.78460    1.000
    O2       O        0.85700    0.83300    0.80050    1.000
    Zn1      Zn       0.91593    0.86150    0.88833    1.000
    C7       C        0.40340    0.30030    0.26280    1.000
    C8       C        0.38040    0.27410    0.18800    1.000
    C9       C        0.31400    0.26480    0.16120    1.000
    H5       H        0.27280    0.27660    0.18720    1.000
    C10      C        0.53580    0.27570    0.46540    1.000
    H6       H        0.52780    0.23260    0.44120    1.000
    C11      C        0.58450    0.28790    0.51950    1.000
    H7       H        0.61580    0.25450    0.53930    1.000
    C12      C        0.47790    0.47010    0.27030    1.000
    H8       H        0.45980    0.44730    0.22850    1.000
    N5       N        0.52930    0.38640    0.49900    1.000
    N6       N        0.50100    0.33800    0.45300    1.000
    N7       N        0.57970    0.35560    0.53920    1.000
    N8       N        0.46640    0.45160    0.33980    1.000
    O3       O        0.46220    0.29080    0.28460    1.000
    O4       O        0.35700    0.33300    0.30050    1.000
    Zn2      Zn       0.41593    0.36150    0.38833    1.000
    C13      C        0.09660    0.19970    0.76280    1.000
    C14      C        0.11960    0.22590    0.68800    1.000
    C15      C        0.18600    0.23520    0.66120    1.000
    H9       H        0.22720    0.22340    0.68720    1.000
    C16      C        0.96420    0.22430    0.96540    1.000
    H10      H        0.97220    0.26740    0.94120    1.000
    C17      C        0.91550    0.21210    0.01950    1.000
    H11      H        0.88420    0.24550    0.03930    1.000
    C18      C        0.02210    0.02990    0.77030    1.000
    H12      H        0.04020    0.05270    0.72850    1.000
    N9       N        0.97070    0.11360    0.99900    1.000
    N10      N        0.99900    0.16200    0.95300    1.000
    N11      N        0.92030    0.14440    0.03920    1.000
    N12      N        0.03360    0.04840    0.83980    1.000
    O5       O        0.03780    0.20920    0.78460    1.000
    O6       O        0.14300    0.16700    0.80050    1.000
    Zn3      Zn       0.08407    0.13850    0.88833    1.000
    C19      C        0.59660    0.69970    0.26280    1.000
    C20      C        0.61960    0.72590    0.18800    1.000
    C21      C        0.68600    0.73520    0.16120    1.000
    H13      H        0.72720    0.72340    0.18720    1.000
    C22      C        0.46420    0.72430    0.46540    1.000
    H14      H        0.47220    0.76740    0.44120    1.000
    C23      C        0.41550    0.71210    0.51950    1.000
    H15      H        0.38420    0.74550    0.53930    1.000
    C24      C        0.52210    0.52990    0.27030    1.000
    H16      H        0.54020    0.55270    0.22850    1.000
    N13      N        0.47070    0.61360    0.49900    1.000
    N14      N        0.49900    0.66200    0.45300    1.000
    N15      N        0.42030    0.64440    0.53920    1.000
    N16      N        0.53360    0.54840    0.33980    1.000
    O7       O        0.53780    0.70920    0.28460    1.000
    O8       O        0.64300    0.66700    0.30050    1.000
    Zn4      Zn       0.58407    0.63850    0.38833    1.000
    C25      C        0.80030    0.09660    0.23720    1.000
    C26      C        0.77410    0.11960    0.31200    1.000
    C27      C        0.76480    0.18600    0.33880    1.000
    H17      H        0.77660    0.22720    0.31280    1.000
    C28      C        0.77570    0.96420    0.03460    1.000
    H18      H        0.73260    0.97220    0.05880    1.000
    C29      C        0.78790    0.91550    0.98050    1.000
    H19      H        0.75450    0.88420    0.96070    1.000
    C30      C        0.97010    0.02210    0.22970    1.000
    H20      H        0.94730    0.04020    0.27150    1.000
    N17      N        0.88640    0.97070    0.00100    1.000
    N18      N        0.83800    0.99900    0.04700    1.000
    N19      N        0.85560    0.92030    0.96080    1.000
    N20      N        0.95160    0.03360    0.16020    1.000
    O9       O        0.79080    0.03780    0.21540    1.000
    O10      O        0.83300    0.14300    0.19950    1.000
    Zn5      Zn       0.86150    0.08407    0.11167    1.000
    C31      C        0.30030    0.59660    0.73720    1.000
    C32      C        0.27410    0.61960    0.81200    1.000
    C33      C        0.26480    0.68600    0.83880    1.000
    H21      H        0.27660    0.72720    0.81280    1.000
    C34      C        0.27570    0.46420    0.53460    1.000
    H22      H        0.23260    0.47220    0.55880    1.000
    C35      C        0.28790    0.41550    0.48050    1.000
    H23      H        0.25450    0.38420    0.46070    1.000
    C36      C        0.47010    0.52210    0.72970    1.000
    H24      H        0.44730    0.54020    0.77150    1.000
    N21      N        0.38640    0.47070    0.50100    1.000
    N22      N        0.33800    0.49900    0.54700    1.000
    N23      N        0.35560    0.42030    0.46080    1.000
    N24      N        0.45160    0.53360    0.66020    1.000
    O11      O        0.29080    0.53780    0.71540    1.000
    O12      O        0.33300    0.64300    0.69950    1.000
    Zn6      Zn       0.36150    0.58407    0.61167    1.000
    C37      C        0.19970    0.90340    0.23720    1.000
    C38      C        0.22590    0.88040    0.31200    1.000
    C39      C        0.23520    0.81400    0.33880    1.000
    H25      H        0.22340    0.77280    0.31280    1.000
    C40      C        0.22430    0.03580    0.03460    1.000
    H26      H        0.26740    0.02780    0.05880    1.000
    C41      C        0.21210    0.08450    0.98050    1.000
    H27      H        0.24550    0.11580    0.96070    1.000
    C42      C        0.02990    0.97790    0.22970    1.000
    H28      H        0.05270    0.95980    0.27150    1.000
    N25      N        0.11360    0.02930    0.00100    1.000
    N26      N        0.16200    0.00100    0.04700    1.000
    N27      N        0.14440    0.07970    0.96080    1.000
    N28      N        0.04840    0.96640    0.16020    1.000
    O13      O        0.20920    0.96220    0.21540    1.000
    O14      O        0.16700    0.85700    0.19950    1.000
    Zn7      Zn       0.13850    0.91593    0.11167    1.000
    C43      C        0.69970    0.40340    0.73720    1.000
    C44      C        0.72590    0.38040    0.81200    1.000
    C45      C        0.73520    0.31400    0.83880    1.000
    H29      H        0.72340    0.27280    0.81280    1.000
    C46      C        0.72430    0.53580    0.53460    1.000
    H30      H        0.76740    0.52780    0.55880    1.000
    C47      C        0.71210    0.58450    0.48050    1.000
    H31      H        0.74550    0.61580    0.46070    1.000
    C48      C        0.52990    0.47790    0.72970    1.000
    H32      H        0.55270    0.45980    0.77150    1.000
    N29      N        0.61360    0.52930    0.50100    1.000
    N30      N        0.66200    0.50100    0.54700    1.000
    N31      N        0.64440    0.57970    0.46080    1.000
    N32      N        0.54840    0.46640    0.66020    1.000
    O15      O        0.70920    0.46220    0.71540    1.000
    O16      O        0.66700    0.35700    0.69950    1.000
    Zn8      Zn       0.63850    0.41593    0.61167    1.000
    C49      C        0.59660    0.80030    0.98720    1.000
    C50      C        0.61960    0.77410    0.06200    1.000
    C51      C        0.68600    0.76480    0.08880    1.000
    H33      H        0.72720    0.77660    0.06280    1.000
    C52      C        0.46420    0.77570    0.78460    1.000
    H34      H        0.47220    0.73260    0.80880    1.000
    C53      C        0.41550    0.78790    0.73050    1.000
    H35      H        0.38420    0.75450    0.71070    1.000
    C54      C        0.52210    0.97010    0.97970    1.000
    H36      H        0.54020    0.94730    0.02150    1.000
    N33      N        0.47070    0.88640    0.75100    1.000
    N34      N        0.49900    0.83800    0.79700    1.000
    N35      N        0.42030    0.85560    0.71080    1.000
    N36      N        0.53360    0.95160    0.91020    1.000
    O17      O        0.53780    0.79080    0.96540    1.000
    O18      O        0.64300    0.83300    0.94950    1.000
    Zn9      Zn       0.58407    0.86150    0.86167    1.000
    C55      C        0.09660    0.30030    0.48720    1.000
    C56      C        0.11960    0.27410    0.56200    1.000
    C57      C        0.18600    0.26480    0.58880    1.000
    H37      H        0.22720    0.27660    0.56280    1.000
    C58      C        0.96420    0.27570    0.28460    1.000
    H38      H        0.97220    0.23260    0.30880    1.000
    C59      C        0.91550    0.28790    0.23050    1.000
    H39      H        0.88420    0.25450    0.21070    1.000
    C60      C        0.02210    0.47010    0.47970    1.000
    H40      H        0.04020    0.44730    0.52150    1.000
    N37      N        0.97070    0.38640    0.25100    1.000
    N38      N        0.99900    0.33800    0.29700    1.000
    N39      N        0.92030    0.35560    0.21080    1.000
    N40      N        0.03360    0.45160    0.41020    1.000
    O19      O        0.03780    0.29080    0.46540    1.000
    O20      O        0.14300    0.33300    0.44950    1.000
    Zn10     Zn       0.08407    0.36150    0.36167    1.000
    C61      C        0.40340    0.19970    0.98720    1.000
    C62      C        0.38040    0.22590    0.06200    1.000
    C63      C        0.31400    0.23520    0.08880    1.000
    H41      H        0.27280    0.22340    0.06280    1.000
    C64      C        0.53580    0.22430    0.78460    1.000
    H42      H        0.52780    0.26740    0.80880    1.000
    C65      C        0.58450    0.21210    0.73050    1.000
    H43      H        0.61580    0.24550    0.71070    1.000
    C66      C        0.47790    0.02990    0.97970    1.000
    H44      H        0.45980    0.05270    0.02150    1.000
    N41      N        0.52930    0.11360    0.75100    1.000
    N42      N        0.50100    0.16200    0.79700    1.000
    N43      N        0.57970    0.14440    0.71080    1.000
    N44      N        0.46640    0.04840    0.91020    1.000
    O21      O        0.46220    0.20920    0.96540    1.000
    O22      O        0.35700    0.16700    0.94950    1.000
    Zn11     Zn       0.41593    0.13850    0.86167    1.000
    C67      C        0.90340    0.69970    0.48720    1.000
    C68      C        0.88040    0.72590    0.56200    1.000
    C69      C        0.81400    0.73520    0.58880    1.000
    H45      H        0.77280    0.72340    0.56280    1.000
    C70      C        0.03580    0.72430    0.28460    1.000
    H46      H        0.02780    0.76740    0.30880    1.000
    C71      C        0.08450    0.71210    0.23050    1.000
    H47      H        0.11580    0.74550    0.21070    1.000
    C72      C        0.97790    0.52990    0.47970    1.000
    H48      H        0.95980    0.55270    0.52150    1.000
    N45      N        0.02930    0.61360    0.25100    1.000
    N46      N        0.00100    0.66200    0.29700    1.000
    N47      N        0.07970    0.64440    0.21080    1.000
    N48      N        0.96640    0.54840    0.41020    1.000
    O23      O        0.96220    0.70920    0.46540    1.000
    O24      O        0.85700    0.66700    0.44950    1.000
    Zn12     Zn       0.91593    0.63850    0.36167    1.000
    C73      C        0.69970    0.09660    0.51280    1.000
    C74      C        0.72590    0.11960    0.43800    1.000
    C75      C        0.73520    0.18600    0.41120    1.000
    H49      H        0.72340    0.22720    0.43720    1.000
    C76      C        0.72430    0.96420    0.71540    1.000
    H50      H        0.76740    0.97220    0.69120    1.000
    C77      C        0.71210    0.91550    0.76950    1.000
    H51      H        0.74550    0.88420    0.78930    1.000
    C78      C        0.52990    0.02210    0.52030    1.000
    H52      H        0.55270    0.04020    0.47850    1.000
    N49      N        0.61360    0.97070    0.74900    1.000
    N50      N        0.66200    0.99900    0.70300    1.000
    N51      N        0.64440    0.92030    0.78920    1.000
    N52      N        0.54840    0.03360    0.58980    1.000
    O25      O        0.70920    0.03780    0.53460    1.000
    O26      O        0.66700    0.14300    0.55050    1.000
    Zn13     Zn       0.63850    0.08407    0.63833    1.000
    C79      C        0.19970    0.59660    0.01280    1.000
    C80      C        0.22590    0.61960    0.93800    1.000
    C81      C        0.23520    0.68600    0.91120    1.000
    H53      H        0.22340    0.72720    0.93720    1.000
    C82      C        0.22430    0.46420    0.21540    1.000
    H54      H        0.26740    0.47220    0.19120    1.000
    C83      C        0.21210    0.41550    0.26950    1.000
    H55      H        0.24550    0.38420    0.28930    1.000
    C84      C        0.02990    0.52210    0.02030    1.000
    H56      H        0.05270    0.54020    0.97850    1.000
    N53      N        0.11360    0.47070    0.24900    1.000
    N54      N        0.16200    0.49900    0.20300    1.000
    N55      N        0.14440    0.42030    0.28920    1.000
    N56      N        0.04840    0.53360    0.08980    1.000
    O27      O        0.20920    0.53780    0.03460    1.000
    O28      O        0.16700    0.64300    0.05050    1.000
    Zn14     Zn       0.13850    0.58407    0.13833    1.000
    C85      C        0.30030    0.90340    0.51280    1.000
    C86      C        0.27410    0.88040    0.43800    1.000
    C87      C        0.26480    0.81400    0.41120    1.000
    H57      H        0.27660    0.77280    0.43720    1.000
    C88      C        0.27570    0.03580    0.71540    1.000
    H58      H        0.23260    0.02780    0.69120    1.000
    C89      C        0.28790    0.08450    0.76950    1.000
    H59      H        0.25450    0.11580    0.78930    1.000
    C90      C        0.47010    0.97790    0.52030    1.000
    H60      H        0.44730    0.95980    0.47850    1.000
    N57      N        0.38640    0.02930    0.74900    1.000
    N58      N        0.33800    0.00100    0.70300    1.000
    N59      N        0.35560    0.07970    0.78920    1.000
    N60      N        0.45160    0.96640    0.58980    1.000
    O29      O        0.29080    0.96220    0.53460    1.000
    O30      O        0.33300    0.85700    0.55050    1.000
    Zn15     Zn       0.36150    0.91593    0.63833    1.000
    C91      C        0.80030    0.40340    0.01280    1.000
    C92      C        0.77410    0.38040    0.93800    1.000
    C93      C        0.76480    0.31400    0.91120    1.000
    H61      H        0.77660    0.27280    0.93720    1.000
    C94      C        0.77570    0.53580    0.21540    1.000
    H62      H        0.73260    0.52780    0.19120    1.000
    C95      C        0.78790    0.58450    0.26950    1.000
    H63      H        0.75450    0.61580    0.28930    1.000
    C96      C        0.97010    0.47790    0.02030    1.000
    H64      H        0.94730    0.45980    0.97850    1.000
    N61      N        0.88640    0.52930    0.24900    1.000
    N62      N        0.83800    0.50100    0.20300    1.000
    N63      N        0.85560    0.57970    0.28920    1.000
    N64      N        0.95160    0.46640    0.08980    1.000
    O31      O        0.79080    0.46220    0.03460    1.000
    O32      O        0.83300    0.35700    0.05050    1.000
    Zn16     Zn       0.86150    0.41593    0.13833    1.000
    N65      N        0.00000    0.00000    0.88150    1.000
    N66      N        0.50000    0.50000    0.38150    1.000
    N67      N        0.00000    0.00000    0.11850    1.000
    N68      N        0.50000    0.50000    0.61850    1.000
    N69      N        0.50000    0.00000    0.86850    1.000
    N70      N        0.00000    0.50000    0.36850    1.000
    N71      N        0.50000    0.00000    0.63150    1.000
    N72      N        0.00000    0.50000    0.13150    1.000
    S1       S        0.94274    0.75000    0.62500    1.000
    S2       S        0.05726    0.25000    0.62500    1.000
    S3       S        0.75000    0.05726    0.37500    1.000
    S4       S        0.25000    0.55726    0.87500    1.000
    S5       S        0.25000    0.94274    0.37500    1.000
    S6       S        0.75000    0.44274    0.87500    1.000
    S7       S        0.55726    0.75000    0.12500    1.000
    S8       S        0.44274    0.25000    0.12500    1.000
    Zn17     Zn       0.00000    0.00000    0.00000    1.000
    Zn18     Zn       0.50000    0.50000    0.50000    1.000
    Zn19     Zn       0.50000    0.00000    0.75000    1.000
    Zn20     Zn       0.00000    0.50000    0.25000    1.000
