data_functionalizedCrystal
_audit_creation_method	'EQeq! by Chris Wilmer'
_symmetry_space_group_name_H-M	'P1'
_symmetry_Int_Tables_number	1
_symmetry_cell_setting	triclinic
loop_
_symmetry_equiv_pos_as_xyz
  x,y,z
_cell_length_a	12.1798
_cell_length_b	12.1798
_cell_length_c	12.6634
_cell_angle_alpha	103.939
_cell_angle_beta	103.939
_cell_angle_gamma	103.003
loop_
_atom_site_label
_atom_site_type_symbol
_atom_site_fract_x
_atom_site_fract_y
_atom_site_fract_z
_atom_site_charge
Mof_Ba	Ba	0.81972	0.18028	0.75	1.884
Mof_Ba	Ba	0.18028	0.81972	0.25	1.884
Mof_Zn	Zn	0.82682	0.414	0.03827	1.235
Mof_Zn	Zn	0.586	0.17318	0.46173	1.235
Mof_Zn	Zn	0.17318	0.586	0.96173	1.235
Mof_Zn	Zn	0.414	0.82682	0.53827	1.235
Mof_H 	H 	0.0613	0.1085	0.0163	0.026
Mof_H 	H 	0.2048	0.0472	0.1207	0.001
Mof_H 	H 	0.3153	0.3581	0.369	0.038
Mof_H 	H 	0.1686	0.4192	0.2673	0.04
Mof_H 	H 	0.5917	0.1727	0.1509	0.052
Mof_H 	H 	0.5269	0.9881	0.8238	0.036
Mof_H 	H 	0.8733	0.4797	0.8772	0.38
Mof_H 	H 	0.7593	0.4139	0.8336	0.327
Mof_H 	H 	0.8915	0.9387	0.4837	0.025
Mof_H 	H 	0.9528	0.7952	0.3793	0.002
Mof_H 	H 	0.6419	0.6847	0.131	0.039
Mof_H 	H 	0.5808	0.8314	0.2327	0.039
Mof_H 	H 	0.8273	0.4083	0.3491	0.052
Mof_H 	H 	0.0119	0.4731	0.6762	0.036
Mof_H 	H 	0.5203	0.1267	0.6228	0.38
Mof_H 	H 	0.5861	0.2407	0.6664	0.327
Mof_H 	H 	0.9387	0.8915	0.9837	0.026
Mof_H 	H 	0.7952	0.9528	0.8793	0.001
Mof_H 	H 	0.6847	0.6419	0.631	0.038
Mof_H 	H 	0.8314	0.5808	0.7327	0.04
Mof_H 	H 	0.4083	0.8273	0.8491	0.052
Mof_H 	H 	0.4731	0.0119	0.1762	0.036
Mof_H 	H 	0.1267	0.5203	0.1228	0.38
Mof_H 	H 	0.2407	0.5861	0.1664	0.327
Mof_H 	H 	0.1085	0.0613	0.5163	0.025
Mof_H 	H 	0.0472	0.2048	0.6207	0.002
Mof_H 	H 	0.3581	0.3153	0.869	0.039
Mof_H 	H 	0.4192	0.1686	0.7673	0.039
Mof_H 	H 	0.1727	0.5917	0.6509	0.052
Mof_H 	H 	0.9881	0.5269	0.3238	0.036
Mof_H 	H 	0.4797	0.8733	0.3772	0.38
Mof_H 	H 	0.4139	0.7593	0.3336	0.327
Mof_C 	C 	0.99508	0.29932	0.0666	0.365
Mof_C 	C 	0.09722	0.26898	0.1325	-0.098
Mof_C 	C 	0.1108	0.1582	0.0882	-0.028
Mof_C 	C 	0.1971	0.1217	0.1505	-0.006
Mof_C 	C 	0.27254	0.19526	0.2572	-0.122
Mof_C 	C 	0.2626	0.307	0.299	-0.002
Mof_C 	C 	0.17509	0.34411	0.2377	-0.034
Mof_C 	C 	0.36058	0.14962	0.3261	0.398
Mof_C 	C 	0.65277	0.19963	0.9671	0.376
Mof_C 	C 	0.5727	0.0961	0.9846	-0.088
Mof_C 	C 	0.555	0.1028	0.0901	-0.022
Mof_C 	C 	0.5165	0.9931	0.895	-0.013
Mof_C 	C 	0.70068	0.00492	0.4334	0.368
Mof_C 	C 	0.73102	0.90278	0.3675	-0.101
Mof_C 	C 	0.8418	0.8892	0.4118	-0.026
Mof_C 	C 	0.8783	0.8029	0.3495	-0.008
Mof_C 	C 	0.80474	0.72746	0.2428	-0.122
Mof_C 	C 	0.693	0.7374	0.201	-0.004
Mof_C 	C 	0.65589	0.82491	0.2623	-0.032
Mof_C 	C 	0.85038	0.63942	0.1739	0.397
Mof_C 	C 	0.80037	0.34723	0.5329	0.375
Mof_C 	C 	0.9039	0.4273	0.5154	-0.087
Mof_C 	C 	0.8972	0.445	0.4099	-0.023
Mof_C 	C 	0.0069	0.4835	0.605	-0.013
Mof_C 	C 	0.00492	0.70068	0.9334	0.365
Mof_C 	C 	0.90278	0.73102	0.8675	-0.098
Mof_C 	C 	0.8892	0.8418	0.9118	-0.028
Mof_C 	C 	0.8029	0.8783	0.8495	-0.006
Mof_C 	C 	0.72746	0.80474	0.7428	-0.122
Mof_C 	C 	0.7374	0.693	0.701	-0.002
Mof_C 	C 	0.82491	0.65589	0.7623	-0.034
Mof_C 	C 	0.63942	0.85038	0.6739	0.398
Mof_C 	C 	0.34723	0.80037	0.0329	0.376
Mof_C 	C 	0.4273	0.9039	0.0154	-0.088
Mof_C 	C 	0.445	0.8972	0.9099	-0.022
Mof_C 	C 	0.4835	0.0069	0.105	-0.013
Mof_C 	C 	0.29932	0.99508	0.5666	0.368
Mof_C 	C 	0.26898	0.09722	0.6325	-0.101
Mof_C 	C 	0.1582	0.1108	0.5882	-0.026
Mof_C 	C 	0.1217	0.1971	0.6505	-0.008
Mof_C 	C 	0.19526	0.27254	0.7572	-0.122
Mof_C 	C 	0.307	0.2626	0.799	-0.004
Mof_C 	C 	0.34411	0.17509	0.7377	-0.032
Mof_C 	C 	0.14962	0.36058	0.8261	0.397
Mof_C 	C 	0.19963	0.65277	0.4671	0.375
Mof_C 	C 	0.0961	0.5727	0.4846	-0.087
Mof_C 	C 	0.1028	0.555	0.5901	-0.023
Mof_C 	C 	0.9931	0.5165	0.395	-0.013
Mof_O 	O 	0.92153	0.22427	0.9801	-0.471
Mof_O 	O 	0.98682	0.40404	0.1065	-0.498
Mof_O 	O 	0.33947	0.04333	0.3132	-0.474
Mof_O 	O 	0.45425	0.22759	0.3947	-0.473
Mof_O 	O 	0.71145	0.28769	0.057	-0.463
Mof_O 	O 	0.65935	0.19403	0.8703	-0.458
Mof_O 	O 	0.82483	0.41923	0.8804	-0.964
Mof_O 	O 	0.77573	0.07847	0.5199	-0.473
Mof_O 	O 	0.59596	0.01318	0.3935	-0.498
Mof_O 	O 	0.95667	0.66053	0.1868	-0.475
Mof_O 	O 	0.77241	0.54575	0.1053	-0.473
Mof_O 	O 	0.71231	0.28855	0.443	-0.463
Mof_O 	O 	0.80597	0.34065	0.6297	-0.457
Mof_O 	O 	0.58077	0.17517	0.6196	-0.964
Mof_O 	O 	0.07847	0.77573	0.0199	-0.471
Mof_O 	O 	0.01318	0.59596	0.8935	-0.498
Mof_O 	O 	0.66053	0.95667	0.6868	-0.474
Mof_O 	O 	0.54575	0.77241	0.6053	-0.473
Mof_O 	O 	0.28855	0.71231	0.943	-0.463
Mof_O 	O 	0.34065	0.80597	0.1297	-0.458
Mof_O 	O 	0.17517	0.58077	0.1196	-0.964
Mof_O 	O 	0.22427	0.92153	0.4801	-0.473
Mof_O 	O 	0.40404	0.98682	0.6065	-0.498
Mof_O 	O 	0.04333	0.33947	0.8132	-0.475
Mof_O 	O 	0.22759	0.45425	0.8947	-0.473
Mof_O 	O 	0.28769	0.71145	0.557	-0.463
Mof_O 	O 	0.19403	0.65935	0.3703	-0.457
Mof_O 	O 	0.41923	0.82483	0.3804	-0.964
_end
