data_functionalizedCrystal
_audit_creation_method	'EQeq! by Chris Wilmer'
_symmetry_space_group_name_H-M	'P1'
_symmetry_Int_Tables_number	1
_symmetry_cell_setting	triclinic
loop_
_symmetry_equiv_pos_as_xyz
  x,y,z
_cell_length_a	18.8226
_cell_length_b	18.6427
_cell_length_c	14.2485
_cell_angle_alpha	90
_cell_angle_beta	130.175
_cell_angle_gamma	90
loop_
_atom_site_label
_atom_site_type_symbol
_atom_site_fract_x
_atom_site_fract_y
_atom_site_fract_z
_atom_site_charge
Mof_C 	C 	0.6859	0.3387	0.1175	-0.11
Mof_C 	C 	0.6897	0.3169	0.0277	0.011
Mof_H 	H 	0.6525	0.3398	0.9519	0.036
Mof_C 	C 	0.7479	0.2613	0.0486	-0.001
Mof_C 	C 	0.8007	0.2285	0.1618	-0.01
Mof_H 	H 	0.8413	0.1921	0.1787	0.059
Mof_C 	C 	0.7959	0.2472	0.2511	-0.091
Mof_C 	C 	0.7387	0.304	0.2294	0.046
Mof_H 	H 	0.7362	0.3184	0.2897	0.048
Mof_C 	C 	0.6219	0.3992	0.0878	0.415
Mof_C 	C 	0.856	0.2067	0.3715	0.388
Mof_C 	C 	0.5358	0.4427	0.3306	0.217
Mof_N 	N 	0.5277	0.4621	0.4125	-0.283
Mof_N 	N 	0.539	0.3742	0.3042	-0.348
Mof_H 	H 	0.5356	0.3399	0.3414	0.163
Mof_H 	H 	0.5444	0.3647	0.2499	0.167
Mof_O 	O 	0.621	0.4205	0.1703	-0.454
Mof_O 	O 	0.5736	0.4243	0.9822	-0.483
Mof_O 	O 	0.856	0.2205	0.4552	-0.287
Mof_O 	O 	0.9004	0.1566	0.3733	-0.466
Mof_C 	C 	0.1859	0.8387	0.1175	-0.11
Mof_C 	C 	0.1897	0.8169	0.0277	-0.003
Mof_H 	H 	0.1525	0.8398	0.9519	0.036
Mof_C 	C 	0.2479	0.7613	0.0486	-0.005
Mof_C 	C 	0.3007	0.7285	0.1618	-0.008
Mof_H 	H 	0.3413	0.6921	0.1787	0.046
Mof_C 	C 	0.2959	0.7472	0.2511	-0.102
Mof_C 	C 	0.2387	0.804	0.2294	0.044
Mof_H 	H 	0.2362	0.8184	0.2897	0.046
Mof_C 	C 	0.1219	0.8992	0.0878	0.402
Mof_C 	C 	0.356	0.7067	0.3715	0.393
Mof_C 	C 	0.0358	0.9427	0.3306	0.25
Mof_N 	N 	0.0277	0.9621	0.4125	-0.275
Mof_N 	N 	0.039	0.8742	0.3042	-0.352
Mof_H 	H 	0.0356	0.8399	0.3414	0.144
Mof_H 	H 	0.0444	0.8647	0.2499	0.152
Mof_O 	O 	0.121	0.9205	0.1703	-0.444
Mof_O 	O 	0.0736	0.9243	0.9822	-0.491
Mof_O 	O 	0.356	0.7205	0.4552	-0.301
Mof_O 	O 	0.4004	0.6566	0.3733	-0.502
Mof_C 	C 	0.3141	0.3387	0.8825	-0.11
Mof_C 	C 	0.3103	0.3169	0.9723	-0.015
Mof_H 	H 	0.3475	0.3398	0.0481	0.049
Mof_C 	C 	0.2521	0.2613	0.9514	-0.01
Mof_C 	C 	0.1993	0.2285	0.8382	-0.007
Mof_H 	H 	0.1587	0.1921	0.8213	0.031
Mof_C 	C 	0.2041	0.2472	0.7489	-0.116
Mof_C 	C 	0.2613	0.304	0.7706	0.044
Mof_H 	H 	0.2638	0.3184	0.7103	0.039
Mof_C 	C 	0.3781	0.3992	0.9122	0.396
Mof_C 	C 	0.144	0.2067	0.6285	0.395
Mof_C 	C 	0.4642	0.4427	0.6694	0.214
Mof_N 	N 	0.4723	0.4621	0.5875	-0.284
Mof_N 	N 	0.461	0.3742	0.6958	-0.348
Mof_H 	H 	0.4644	0.3399	0.6586	0.161
Mof_H 	H 	0.4556	0.3647	0.7501	0.164
Mof_O 	O 	0.379	0.4205	0.8297	-0.458
Mof_O 	O 	0.4264	0.4243	0.0178	-0.474
Mof_O 	O 	0.144	0.2205	0.5448	-0.319
Mof_O 	O 	0.0996	0.1566	0.6267	-0.532
Mof_C 	C 	0.8141	0.8387	0.8825	-0.065
Mof_C 	C 	0.8103	0.8169	0.9723	-0.044
Mof_H 	H 	0.8475	0.8398	0.0481	0.083
Mof_C 	C 	0.7521	0.7613	0.9514	0.015
Mof_C 	C 	0.6993	0.7285	0.8382	-0.019
Mof_H 	H 	0.6587	0.6921	0.8213	0.053
Mof_C 	C 	0.7041	0.7472	0.7489	-0.081
Mof_C 	C 	0.7613	0.804	0.7706	0.026
Mof_H 	H 	0.7638	0.8184	0.7103	0.059
Mof_C 	C 	0.8781	0.8992	0.9122	0.372
Mof_C 	C 	0.644	0.7067	0.6285	0.389
Mof_C 	C 	0.9642	0.9427	0.6694	0.294
Mof_N 	N 	0.9723	0.9621	0.5875	-0.242
Mof_N 	N 	0.961	0.8742	0.6958	-0.367
Mof_H 	H 	0.9644	0.8399	0.6586	0.191
Mof_H 	H 	0.9556	0.8647	0.7501	0.195
Mof_O 	O 	0.879	0.9205	0.8297	-0.411
Mof_O 	O 	0.9264	0.9243	0.0178	-0.395
Mof_O 	O 	0.644	0.7205	0.5448	-0.292
Mof_O 	O 	0.5996	0.6566	0.6267	-0.495
Mof_C 	C 	0.3141	0.6613	0.8825	-0.107
Mof_C 	C 	0.3103	0.6831	0.9723	-0.014
Mof_H 	H 	0.3475	0.6602	0.0481	0.05
Mof_C 	C 	0.2521	0.7387	0.9514	-0.007
Mof_C 	C 	0.1993	0.7715	0.8382	-0.005
Mof_H 	H 	0.1587	0.8079	0.8213	0.036
Mof_C 	C 	0.2041	0.7528	0.7489	-0.109
Mof_C 	C 	0.2613	0.696	0.7706	0.044
Mof_H 	H 	0.2638	0.6816	0.7103	0.041
Mof_C 	C 	0.3781	0.6008	0.9122	0.397
Mof_C 	C 	0.144	0.7933	0.6285	0.395
Mof_C 	C 	0.4642	0.5573	0.6694	0.215
Mof_N 	N 	0.4723	0.5379	0.5875	-0.284
Mof_N 	N 	0.461	0.6258	0.6958	-0.35
Mof_H 	H 	0.4644	0.6601	0.6586	0.164
Mof_H 	H 	0.4556	0.6353	0.7501	0.168
Mof_O 	O 	0.379	0.5795	0.8297	-0.457
Mof_O 	O 	0.4264	0.5757	0.0178	-0.474
Mof_O 	O 	0.144	0.7795	0.5448	-0.312
Mof_O 	O 	0.0996	0.8434	0.6267	-0.52
Mof_C 	C 	0.8141	0.1613	0.8825	-0.081
Mof_C 	C 	0.8103	0.1831	0.9723	-0.042
Mof_H 	H 	0.8475	0.1602	0.0481	0.075
Mof_C 	C 	0.7521	0.2387	0.9514	0.007
Mof_C 	C 	0.6993	0.2715	0.8382	-0.017
Mof_H 	H 	0.6587	0.3079	0.8213	0.05
Mof_C 	C 	0.7041	0.2528	0.7489	-0.09
Mof_C 	C 	0.7613	0.196	0.7706	0.03
Mof_H 	H 	0.7638	0.1816	0.7103	0.049
Mof_C 	C 	0.8781	0.1008	0.9122	0.376
Mof_C 	C 	0.644	0.2933	0.6285	0.39
Mof_C 	C 	0.9642	0.0573	0.6694	0.227
Mof_N 	N 	0.9723	0.0379	0.5875	-0.288
Mof_N 	N 	0.961	0.1258	0.6958	-0.355
Mof_H 	H 	0.9644	0.1601	0.6586	0.186
Mof_H 	H 	0.9556	0.1353	0.7501	0.186
Mof_O 	O 	0.879	0.0795	0.8297	-0.451
Mof_O 	O 	0.9264	0.0757	0.0178	-0.433
Mof_O 	O 	0.644	0.2795	0.5448	-0.3
Mof_O 	O 	0.5996	0.3434	0.6267	-0.497
Mof_C 	C 	0.6859	0.6613	0.1175	-0.106
Mof_C 	C 	0.6897	0.6831	0.0277	0.013
Mof_H 	H 	0.6525	0.6602	0.9519	0.038
Mof_C 	C 	0.7479	0.7387	0.0486	0.003
Mof_C 	C 	0.8007	0.7715	0.1618	-0.008
Mof_H 	H 	0.8413	0.8079	0.1787	0.064
Mof_C 	C 	0.7959	0.7528	0.2511	-0.084
Mof_C 	C 	0.7387	0.696	0.2294	0.046
Mof_H 	H 	0.7362	0.6816	0.2897	0.051
Mof_C 	C 	0.6219	0.6008	0.0878	0.415
Mof_C 	C 	0.856	0.7933	0.3715	0.388
Mof_C 	C 	0.5358	0.5573	0.3306	0.218
Mof_N 	N 	0.5277	0.5379	0.4125	-0.283
Mof_N 	N 	0.539	0.6258	0.3042	-0.35
Mof_H 	H 	0.5356	0.6601	0.3414	0.167
Mof_H 	H 	0.5444	0.6353	0.2499	0.17
Mof_O 	O 	0.621	0.5795	0.1703	-0.453
Mof_O 	O 	0.5736	0.5757	0.9822	-0.483
Mof_O 	O 	0.856	0.7795	0.4552	-0.28
Mof_O 	O 	0.9004	0.8434	0.3733	-0.454
Mof_C 	C 	0.1859	0.1613	0.1175	-0.127
Mof_C 	C 	0.1897	0.1831	0.0277	-0.001
Mof_H 	H 	0.1525	0.1602	0.9519	0.029
Mof_C 	C 	0.2479	0.2387	0.0486	-0.013
Mof_C 	C 	0.3007	0.2715	0.1618	-0.006
Mof_H 	H 	0.3413	0.3079	0.1787	0.044
Mof_C 	C 	0.2959	0.2528	0.2511	-0.111
Mof_C 	C 	0.2387	0.196	0.2294	0.049
Mof_H 	H 	0.2362	0.1816	0.2897	0.036
Mof_C 	C 	0.1219	0.1008	0.0878	0.407
Mof_C 	C 	0.356	0.2933	0.3715	0.393
Mof_C 	C 	0.0358	0.0573	0.3306	0.184
Mof_N 	N 	0.0277	0.0379	0.4125	-0.321
Mof_N 	N 	0.039	0.1258	0.3042	-0.341
Mof_H 	H 	0.0356	0.1601	0.3414	0.139
Mof_H 	H 	0.0444	0.1353	0.2499	0.143
Mof_O 	O 	0.121	0.0795	0.1703	-0.483
Mof_O 	O 	0.0736	0.0757	0.9822	-0.528
Mof_O 	O 	0.356	0.2795	0.4552	-0.309
Mof_O 	O 	0.4004	0.3434	0.3733	-0.504
Mof_Zn	Zn	0.52995	0.5	0.12682	1.218
Mof_N 	N 	0.5398	0.5	0.2757	-0.298
Mof_Zn	Zn	0.02995	0	0.12682	1.179
Mof_N 	N 	0.0398	3.30389e-33	0.2757	-0.347
Mof_Zn	Zn	0.47005	0.5	0.87318	1.217
Mof_N 	N 	0.4602	0.5	0.7243	-0.299
Mof_Zn	Zn	0.97005	0	0.87318	1.217
Mof_N 	N 	0.9602	0	0.7243	-0.334
Mof_Zn	Zn	2.33464e-33	0.09694	0.5	1.177
Mof_Zn	Zn	0.5	0.59694	0.5	1.208
Mof_Zn	Zn	2.33464e-33	0.90306	0.5	1.186
Mof_Zn	Zn	0.5	0.40306	0.5	1.208
_end
