# CIF file generated by openbabel 3.1.0, see https://openbabel.org
data_I
_chemical_name_common 'GELJAJ_clean'
_cell_length_a 9.5232
_cell_length_b 15.846
_cell_length_c 22.369
_cell_angle_alpha 90
_cell_angle_beta 90
_cell_angle_gamma 90
_space_group_name_H-M_alt 'P 1'
_space_group_name_Hall 'P 1'
loop_
    _symmetry_equiv_pos_as_xyz
    x,y,z
loop_
    _atom_site_label
    _atom_site_type_symbol
    _atom_site_fract_x
    _atom_site_fract_y
    _atom_site_fract_z
    _atom_site_occupancy
    Zn1      Zn       0.80953    0.31174    0.51366    1.000
    Zn2      Zn       0.69047    0.68826    0.01366    1.000
    Zn3      Zn       0.19047    0.81174    0.98634    1.000
    Zn4      Zn       0.30953    0.18826    0.48634    1.000
    H1       H        0.80000    0.49200    0.49080    1.000
    H2       H        0.66700    0.59000    0.44000    1.000
    H3       H        0.41200    0.41400    0.39540    1.000
    H4       H        0.55700    0.32100    0.44500    1.000
    H5       H        0.44400    0.63300    0.38980    1.000
    H6       H        0.35800    0.55200    0.36670    1.000
    H7       H        0.58900    0.60400    0.31300    1.000
    H8       H        0.51500    0.51400    0.29000    1.000
    H9       H        0.38600    0.67400    0.28600    1.000
    H10      H        0.30900    0.60300    0.26550    1.000
    H11      H        0.41000    0.53000    0.16670    1.000
    H12      H        0.52300    0.55100    0.07520    1.000
    H13      H        0.67200    0.76800    0.12660    1.000
    H14      H        0.55200    0.76200    0.22320    1.000
    H15      H        0.70000    0.50800    0.99080    1.000
    H16      H        0.83300    0.41000    0.94000    1.000
    H17      H        0.08800    0.58600    0.89540    1.000
    H18      H        0.94300    0.67900    0.94500    1.000
    H19      H        0.05600    0.36700    0.88980    1.000
    H20      H        0.14200    0.44800    0.86670    1.000
    H21      H        0.91100    0.39600    0.81300    1.000
    H22      H        0.98500    0.48600    0.79000    1.000
    H23      H        0.11400    0.32600    0.78600    1.000
    H24      H        0.19100    0.39700    0.76550    1.000
    H25      H        0.09000    0.47000    0.66670    1.000
    H26      H        0.97700    0.44900    0.57520    1.000
    H27      H        0.82800    0.23200    0.62660    1.000
    H28      H        0.94800    0.23800    0.72320    1.000
    H29      H        0.20000    0.99200    0.00920    1.000
    H30      H        0.33300    0.09000    0.06000    1.000
    H31      H        0.58800    0.91400    0.10460    1.000
    H32      H        0.44300    0.82100    0.05500    1.000
    H33      H        0.55600    0.13300    0.11020    1.000
    H34      H        0.64200    0.05200    0.13330    1.000
    H35      H        0.41100    0.10400    0.18700    1.000
    H36      H        0.48500    0.01400    0.21000    1.000
    H37      H        0.61400    0.17400    0.21400    1.000
    H38      H        0.69100    0.10300    0.23450    1.000
    H39      H        0.59000    0.03000    0.33330    1.000
    H40      H        0.47700    0.05100    0.42480    1.000
    H41      H        0.32800    0.26800    0.37340    1.000
    H42      H        0.44800    0.26200    0.27680    1.000
    H43      H        0.30000    0.00800    0.50920    1.000
    H44      H        0.16700    0.91000    0.56000    1.000
    H45      H        0.91200    0.08600    0.60460    1.000
    H46      H        0.05700    0.17900    0.55500    1.000
    H47      H        0.94400    0.86700    0.61020    1.000
    H48      H        0.85800    0.94800    0.63330    1.000
    H49      H        0.08900    0.89600    0.68700    1.000
    H50      H        0.01500    0.98600    0.71000    1.000
    H51      H        0.88600    0.82600    0.71400    1.000
    H52      H        0.80900    0.89700    0.73450    1.000
    H53      H        0.91000    0.97000    0.83330    1.000
    H54      H        0.02300    0.94900    0.92480    1.000
    H55      H        0.17200    0.73200    0.87340    1.000
    H56      H        0.05200    0.73800    0.77680    1.000
    C1       C        0.72380    0.48090    0.47120    1.000
    C2       C        0.64590    0.53880    0.43908    1.000
    C3       C        0.52810    0.51400    0.40874    1.000
    C4       C        0.49300    0.43010    0.41310    1.000
    C5       C        0.57390    0.37580    0.44575    1.000
    C6       C        0.44510    0.57370    0.37088    1.000
    C7       C        0.50440    0.57820    0.30739    1.000
    C8       C        0.40810    0.62810    0.26568    1.000
    C9       C        0.47590    0.63980    0.20490    1.000
    C10      C        0.46920    0.57840    0.16112    1.000
    C11      C        0.53370    0.59150    0.10669    1.000
    C12      C        0.61440    0.72000    0.13739    1.000
    C13      C        0.55030    0.71200    0.19203    1.000
    C14      C        0.77620    0.51910    0.97120    1.000
    C15      C        0.85410    0.46120    0.93908    1.000
    C16      C        0.97190    0.48600    0.90874    1.000
    C17      C        0.00700    0.56990    0.91310    1.000
    C18      C        0.92610    0.62420    0.94575    1.000
    C19      C        0.05490    0.42630    0.87088    1.000
    C20      C        0.99560    0.42180    0.80739    1.000
    C21      C        0.09190    0.37190    0.76568    1.000
    C22      C        0.02410    0.36020    0.70490    1.000
    C23      C        0.03080    0.42160    0.66112    1.000
    C24      C        0.96630    0.40850    0.60669    1.000
    C25      C        0.88560    0.28000    0.63739    1.000
    C26      C        0.94970    0.28800    0.69203    1.000
    C27      C        0.27620    0.98090    0.02880    1.000
    C28      C        0.35410    0.03880    0.06092    1.000
    C29      C        0.47190    0.01400    0.09126    1.000
    C30      C        0.50700    0.93010    0.08690    1.000
    C31      C        0.42610    0.87580    0.05425    1.000
    C32      C        0.55490    0.07370    0.12912    1.000
    C33      C        0.49560    0.07820    0.19261    1.000
    C34      C        0.59190    0.12810    0.23432    1.000
    C35      C        0.52410    0.13980    0.29510    1.000
    C36      C        0.53080    0.07840    0.33888    1.000
    C37      C        0.46630    0.09150    0.39331    1.000
    C38      C        0.38560    0.22000    0.36261    1.000
    C39      C        0.44970    0.21200    0.30797    1.000
    C40      C        0.22380    0.01910    0.52880    1.000
    C41      C        0.14590    0.96120    0.56092    1.000
    C42      C        0.02810    0.98600    0.59126    1.000
    C43      C        0.99300    0.06990    0.58690    1.000
    C44      C        0.07390    0.12420    0.55425    1.000
    C45      C        0.94510    0.92630    0.62912    1.000
    C46      C        0.00440    0.92180    0.69261    1.000
    C47      C        0.90810    0.87190    0.73432    1.000
    C48      C        0.97590    0.86020    0.79510    1.000
    C49      C        0.96920    0.92160    0.83888    1.000
    C50      C        0.03370    0.90850    0.89331    1.000
    C51      C        0.11440    0.78000    0.86261    1.000
    C52      C        0.05030    0.78800    0.80797    1.000
    S1       S        0.06851    0.32047    0.44392    1.000
    S2       S        0.43149    0.67953    0.94392    1.000
    S3       S        0.93149    0.82047    0.05608    1.000
    S4       S        0.56851    0.17953    0.55608    1.000
    N1       N        0.69020    0.39946    0.47390    1.000
    N2       N        0.60590    0.66165    0.09409    1.000
    N3       N        0.80980    0.60054    0.97390    1.000
    N4       N        0.89410    0.33835    0.59409    1.000
    N5       N        0.30980    0.89946    0.02610    1.000
    N6       N        0.39410    0.16165    0.40591    1.000
    N7       N        0.19020    0.10054    0.52610    1.000
    N8       N        0.10590    0.83835    0.90591    1.000
    O1       O        0.95020    0.26254    0.45973    1.000
    O2       O        0.19610    0.29018    0.47614    1.000
    O3       O        0.09280    0.31610    0.38045    1.000
    O4       O        0.03290    0.40386    0.46508    1.000
    O5       O        0.54980    0.73746    0.95973    1.000
    O6       O        0.30390    0.70982    0.97614    1.000
    O7       O        0.40720    0.68390    0.88045    1.000
    O8       O        0.46710    0.59614    0.96508    1.000
    O9       O        0.04980    0.76254    0.04027    1.000
    O10      O        0.80390    0.79018    0.02386    1.000
    O11      O        0.90720    0.81610    0.11955    1.000
    O12      O        0.96710    0.90386    0.03492    1.000
    O13      O        0.45020    0.23746    0.54027    1.000
    O14      O        0.69610    0.20982    0.52386    1.000
    O15      O        0.59280    0.18390    0.61955    1.000
    O16      O        0.53290    0.09614    0.53492    1.000
    Zn5      Zn       0.19047    0.68826    0.48634    1.000
    Zn6      Zn       0.30953    0.31174    0.98634    1.000
    Zn7      Zn       0.80953    0.18826    0.01366    1.000
    Zn8      Zn       0.69047    0.81174    0.51366    1.000
    H57      H        0.20000    0.50800    0.50920    1.000
    H58      H        0.33300    0.41000    0.56000    1.000
    H59      H        0.58800    0.58600    0.60460    1.000
    H60      H        0.44300    0.67900    0.55500    1.000
    H61      H        0.55600    0.36700    0.61020    1.000
    H62      H        0.64200    0.44800    0.63330    1.000
    H63      H        0.41100    0.39600    0.68700    1.000
    H64      H        0.48500    0.48600    0.71000    1.000
    H65      H        0.61400    0.32600    0.71400    1.000
    H66      H        0.69100    0.39700    0.73450    1.000
    H67      H        0.59000    0.47000    0.83330    1.000
    H68      H        0.47700    0.44900    0.92480    1.000
    H69      H        0.32800    0.23200    0.87340    1.000
    H70      H        0.44800    0.23800    0.77680    1.000
    H71      H        0.30000    0.49200    0.00920    1.000
    H72      H        0.16700    0.59000    0.06000    1.000
    H73      H        0.91200    0.41400    0.10460    1.000
    H74      H        0.05700    0.32100    0.05500    1.000
    H75      H        0.94400    0.63300    0.11020    1.000
    H76      H        0.85800    0.55200    0.13330    1.000
    H77      H        0.08900    0.60400    0.18700    1.000
    H78      H        0.01500    0.51400    0.21000    1.000
    H79      H        0.88600    0.67400    0.21400    1.000
    H80      H        0.80900    0.60300    0.23450    1.000
    H81      H        0.91000    0.53000    0.33330    1.000
    H82      H        0.02300    0.55100    0.42480    1.000
    H83      H        0.17200    0.76800    0.37340    1.000
    H84      H        0.05200    0.76200    0.27680    1.000
    H85      H        0.80000    0.00800    0.99080    1.000
    H86      H        0.66700    0.91000    0.94000    1.000
    H87      H        0.41200    0.08600    0.89540    1.000
    H88      H        0.55700    0.17900    0.94500    1.000
    H89      H        0.44400    0.86700    0.88980    1.000
    H90      H        0.35800    0.94800    0.86670    1.000
    H91      H        0.58900    0.89600    0.81300    1.000
    H92      H        0.51500    0.98600    0.79000    1.000
    H93      H        0.38600    0.82600    0.78600    1.000
    H94      H        0.30900    0.89700    0.76550    1.000
    H95      H        0.41000    0.97000    0.66670    1.000
    H96      H        0.52300    0.94900    0.57520    1.000
    H97      H        0.67200    0.73200    0.62660    1.000
    H98      H        0.55200    0.73800    0.72320    1.000
    H99      H        0.70000    0.99200    0.49080    1.000
    H100     H        0.83300    0.09000    0.44000    1.000
    H101     H        0.08800    0.91400    0.39540    1.000
    H102     H        0.94300    0.82100    0.44500    1.000
    H103     H        0.05600    0.13300    0.38980    1.000
    H104     H        0.14200    0.05200    0.36670    1.000
    H105     H        0.91100    0.10400    0.31300    1.000
    H106     H        0.98500    0.01400    0.29000    1.000
    H107     H        0.11400    0.17400    0.28600    1.000
    H108     H        0.19100    0.10300    0.26550    1.000
    H109     H        0.09000    0.03000    0.16670    1.000
    H110     H        0.97700    0.05100    0.07520    1.000
    H111     H        0.82800    0.26800    0.12660    1.000
    H112     H        0.94800    0.26200    0.22320    1.000
    C53      C        0.27620    0.51910    0.52880    1.000
    C54      C        0.35410    0.46120    0.56092    1.000
    C55      C        0.47190    0.48600    0.59126    1.000
    C56      C        0.50700    0.56990    0.58690    1.000
    C57      C        0.42610    0.62420    0.55425    1.000
    C58      C        0.55490    0.42630    0.62912    1.000
    C59      C        0.49560    0.42180    0.69261    1.000
    C60      C        0.59190    0.37190    0.73432    1.000
    C61      C        0.52410    0.36020    0.79510    1.000
    C62      C        0.53080    0.42160    0.83888    1.000
    C63      C        0.46630    0.40850    0.89331    1.000
    C64      C        0.38560    0.28000    0.86261    1.000
    C65      C        0.44970    0.28800    0.80797    1.000
    C66      C        0.22380    0.48090    0.02880    1.000
    C67      C        0.14590    0.53880    0.06092    1.000
    C68      C        0.02810    0.51400    0.09126    1.000
    C69      C        0.99300    0.43010    0.08690    1.000
    C70      C        0.07390    0.37580    0.05425    1.000
    C71      C        0.94510    0.57370    0.12912    1.000
    C72      C        0.00440    0.57820    0.19261    1.000
    C73      C        0.90810    0.62810    0.23432    1.000
    C74      C        0.97590    0.63980    0.29510    1.000
    C75      C        0.96920    0.57840    0.33888    1.000
    C76      C        0.03370    0.59150    0.39331    1.000
    C77      C        0.11440    0.72000    0.36261    1.000
    C78      C        0.05030    0.71200    0.30797    1.000
    C79      C        0.72380    0.01910    0.97120    1.000
    C80      C        0.64590    0.96120    0.93908    1.000
    C81      C        0.52810    0.98600    0.90874    1.000
    C82      C        0.49300    0.06990    0.91310    1.000
    C83      C        0.57390    0.12420    0.94575    1.000
    C84      C        0.44510    0.92630    0.87088    1.000
    C85      C        0.50440    0.92180    0.80739    1.000
    C86      C        0.40810    0.87190    0.76568    1.000
    C87      C        0.47590    0.86020    0.70490    1.000
    C88      C        0.46920    0.92160    0.66112    1.000
    C89      C        0.53370    0.90850    0.60669    1.000
    C90      C        0.61440    0.78000    0.63739    1.000
    C91      C        0.55030    0.78800    0.69203    1.000
    C92      C        0.77620    0.98090    0.47120    1.000
    C93      C        0.85410    0.03880    0.43908    1.000
    C94      C        0.97190    0.01400    0.40874    1.000
    C95      C        0.00700    0.93010    0.41310    1.000
    C96      C        0.92610    0.87580    0.44575    1.000
    C97      C        0.05490    0.07370    0.37088    1.000
    C98      C        0.99560    0.07820    0.30739    1.000
    C99      C        0.09190    0.12810    0.26568    1.000
    C100     C        0.02410    0.13980    0.20490    1.000
    C101     C        0.03080    0.07840    0.16112    1.000
    C102     C        0.96630    0.09150    0.10669    1.000
    C103     C        0.88560    0.22000    0.13739    1.000
    C104     C        0.94970    0.21200    0.19203    1.000
    S5       S        0.93149    0.67953    0.55608    1.000
    S6       S        0.56851    0.32047    0.05608    1.000
    S7       S        0.06851    0.17953    0.94392    1.000
    S8       S        0.43149    0.82047    0.44392    1.000
    N9       N        0.30980    0.60054    0.52610    1.000
    N10      N        0.39410    0.33835    0.90591    1.000
    N11      N        0.19020    0.39946    0.02610    1.000
    N12      N        0.10590    0.66165    0.40591    1.000
    N13      N        0.69020    0.10054    0.97390    1.000
    N14      N        0.60590    0.83835    0.59409    1.000
    N15      N        0.80980    0.89946    0.47390    1.000
    N16      N        0.89410    0.16165    0.09409    1.000
    O17      O        0.04980    0.73746    0.54027    1.000
    O18      O        0.80390    0.70982    0.52386    1.000
    O19      O        0.90720    0.68390    0.61955    1.000
    O20      O        0.96710    0.59614    0.53492    1.000
    O21      O        0.45020    0.26254    0.04027    1.000
    O22      O        0.69610    0.29018    0.02386    1.000
    O23      O        0.59280    0.31610    0.11955    1.000
    O24      O        0.53290    0.40386    0.03492    1.000
    O25      O        0.95020    0.23746    0.95973    1.000
    O26      O        0.19610    0.20982    0.97614    1.000
    O27      O        0.09280    0.18390    0.88045    1.000
    O28      O        0.03290    0.09614    0.96508    1.000
    O29      O        0.54980    0.76254    0.45973    1.000
    O30      O        0.30390    0.79018    0.47614    1.000
    O31      O        0.40720    0.81610    0.38045    1.000
    O32      O        0.46710    0.90386    0.46508    1.000
