# CIF file generated by openbabel 3.1.0, see https://openbabel.org
data_I
_chemical_name_common 'image0'
_cell_length_a 20.276
_cell_length_b 20.276
_cell_length_c 20.276
_cell_angle_alpha 90
_cell_angle_beta 90
_cell_angle_gamma 90
_space_group_name_H-M_alt 'P 1'
_space_group_name_Hall 'P 1'
loop_
    _symmetry_equiv_pos_as_xyz
    x,y,z
loop_
    _atom_site_label
    _atom_site_type_symbol
    _atom_site_fract_x
    _atom_site_fract_y
    _atom_site_fract_z
    _atom_site_occupancy
    Cu1      Cu       0.84507    0.60641    0.86090    1.000
    Cu2      Cu       0.72956    0.50424    0.94778    1.000
    C1       C        0.69050    0.70620    0.96870    1.000
    H1       H        0.66700    0.69170    0.00840    1.000
    C2       C        0.64210    0.73190    0.91670    1.000
    H2       H        0.62950    0.69500    0.88810    1.000
    C3       C        0.73170    0.80660    0.91820    1.000
    H3       H        0.77410    0.80160    0.89540    1.000
    C4       C        0.73360    0.76760    0.98340    1.000
    H4       H        0.71060    0.79400    0.01680    1.000
    C5       C        0.72830    0.64870    0.93730    1.000
    C6       C        0.57920    0.76310    0.94410    1.000
    C7       C        0.71820    0.87920    0.92950    1.000
    C8       C        0.80230    0.75120    0.01060    1.000
    O1       O        0.77926    0.66140    0.90547    1.000
    O2       O        0.70156    0.59384    0.94550    1.000
    O3       O        0.76250    0.90990    0.95970    1.000
    O4       O        0.66534    0.90474    0.90972    1.000
    O5       O        0.56065    0.81743    0.92112    1.000
    O6       O        0.54763    0.73030    0.98590    1.000
    O7       O        0.80064    0.71100    0.05842    1.000
    O8       O        0.85143    0.77806    0.98717    1.000
    O9       O        0.68027    0.77780    0.87839    1.000
    Cu3      Cu       0.65493    0.39359    0.36090    1.000
    Cu4      Cu       0.77044    0.49576    0.44778    1.000
    C9       C        0.80950    0.29380    0.46870    1.000
    H5       H        0.83300    0.30830    0.50840    1.000
    C10      C        0.85790    0.26810    0.41670    1.000
    H6       H        0.87050    0.30500    0.38810    1.000
    C11      C        0.76830    0.19340    0.41820    1.000
    H7       H        0.72590    0.19840    0.39540    1.000
    C12      C        0.76640    0.23240    0.48340    1.000
    H8       H        0.78940    0.20600    0.51680    1.000
    C13      C        0.77170    0.35130    0.43730    1.000
    C14      C        0.92080    0.23690    0.44410    1.000
    C15      C        0.78180    0.12080    0.42950    1.000
    C16      C        0.69770    0.24880    0.51060    1.000
    O10      O        0.72074    0.33860    0.40547    1.000
    O11      O        0.79844    0.40616    0.44550    1.000
    O12      O        0.73750    0.09010    0.45970    1.000
    O13      O        0.83466    0.09526    0.40972    1.000
    O14      O        0.93935    0.18257    0.42112    1.000
    O15      O        0.95237    0.26970    0.48590    1.000
    O16      O        0.69936    0.28900    0.55842    1.000
    O17      O        0.64857    0.22194    0.48717    1.000
    O18      O        0.81973    0.22220    0.37839    1.000
    Cu5      Cu       0.15493    0.10641    0.63910    1.000
    Cu6      Cu       0.27044    0.00424    0.55222    1.000
    C17      C        0.30950    0.20620    0.53130    1.000
    H9       H        0.33300    0.19170    0.49160    1.000
    C18      C        0.35790    0.23190    0.58330    1.000
    H10      H        0.37050    0.19500    0.61190    1.000
    C19      C        0.26830    0.30660    0.58180    1.000
    H11      H        0.22590    0.30160    0.60460    1.000
    C20      C        0.26640    0.26760    0.51660    1.000
    H12      H        0.28940    0.29400    0.48320    1.000
    C21      C        0.27170    0.14870    0.56270    1.000
    C22      C        0.42080    0.26310    0.55590    1.000
    C23      C        0.28180    0.37920    0.57050    1.000
    C24      C        0.19770    0.25120    0.48940    1.000
    O19      O        0.22074    0.16140    0.59453    1.000
    O20      O        0.29844    0.09384    0.55450    1.000
    O21      O        0.23750    0.40990    0.54030    1.000
    O22      O        0.33466    0.40474    0.59028    1.000
    O23      O        0.43935    0.31743    0.57888    1.000
    O24      O        0.45237    0.23030    0.51410    1.000
    O25      O        0.19936    0.21100    0.44158    1.000
    O26      O        0.14857    0.27806    0.51283    1.000
    O27      O        0.31973    0.27780    0.62161    1.000
    Cu7      Cu       0.34507    0.89359    0.13910    1.000
    Cu8      Cu       0.22956    0.99576    0.05222    1.000
    C25      C        0.19050    0.79380    0.03130    1.000
    H13      H        0.16700    0.80830    0.99160    1.000
    C26      C        0.14210    0.76810    0.08330    1.000
    H14      H        0.12950    0.80500    0.11190    1.000
    C27      C        0.23170    0.69340    0.08180    1.000
    H15      H        0.27410    0.69840    0.10460    1.000
    C28      C        0.23360    0.73240    0.01660    1.000
    H16      H        0.21060    0.70600    0.98320    1.000
    C29      C        0.22830    0.85130    0.06270    1.000
    C30      C        0.07920    0.73690    0.05590    1.000
    C31      C        0.21820    0.62080    0.07050    1.000
    C32      C        0.30230    0.74880    0.98940    1.000
    O28      O        0.27926    0.83860    0.09453    1.000
    O29      O        0.20156    0.90616    0.05450    1.000
    O30      O        0.26250    0.59010    0.04030    1.000
    O31      O        0.16534    0.59526    0.09028    1.000
    O32      O        0.06065    0.68257    0.07888    1.000
    O33      O        0.04763    0.76970    0.01410    1.000
    O34      O        0.30064    0.78900    0.94158    1.000
    O35      O        0.35143    0.72194    0.01283    1.000
    O36      O        0.18027    0.72220    0.12161    1.000
    Cu9      Cu       0.86090    0.84507    0.60641    1.000
    Cu10     Cu       0.94778    0.72956    0.50424    1.000
    C33      C        0.96870    0.69050    0.70620    1.000
    H17      H        0.00840    0.66700    0.69170    1.000
    C34      C        0.91670    0.64210    0.73190    1.000
    H18      H        0.88810    0.62950    0.69500    1.000
    C35      C        0.91820    0.73170    0.80660    1.000
    H19      H        0.89540    0.77410    0.80160    1.000
    C36      C        0.98340    0.73360    0.76760    1.000
    H20      H        0.01680    0.71060    0.79400    1.000
    C37      C        0.93730    0.72830    0.64870    1.000
    C38      C        0.94410    0.57920    0.76310    1.000
    C39      C        0.92950    0.71820    0.87920    1.000
    C40      C        0.01060    0.80230    0.75120    1.000
    O37      O        0.90547    0.77926    0.66140    1.000
    O38      O        0.94550    0.70156    0.59384    1.000
    O39      O        0.95970    0.76250    0.90990    1.000
    O40      O        0.90972    0.66534    0.90474    1.000
    O41      O        0.92112    0.56065    0.81743    1.000
    O42      O        0.98590    0.54763    0.73030    1.000
    O43      O        0.05842    0.80064    0.71100    1.000
    O44      O        0.98717    0.85143    0.77806    1.000
    O45      O        0.87839    0.68027    0.77780    1.000
    Cu11     Cu       0.36090    0.65493    0.39359    1.000
    Cu12     Cu       0.44778    0.77044    0.49576    1.000
    C41      C        0.46870    0.80950    0.29380    1.000
    H21      H        0.50840    0.83300    0.30830    1.000
    C42      C        0.41670    0.85790    0.26810    1.000
    H22      H        0.38810    0.87050    0.30500    1.000
    C43      C        0.41820    0.76830    0.19340    1.000
    H23      H        0.39540    0.72590    0.19840    1.000
    C44      C        0.48340    0.76640    0.23240    1.000
    H24      H        0.51680    0.78940    0.20600    1.000
    C45      C        0.43730    0.77170    0.35130    1.000
    C46      C        0.44410    0.92080    0.23690    1.000
    C47      C        0.42950    0.78180    0.12080    1.000
    C48      C        0.51060    0.69770    0.24880    1.000
    O46      O        0.40547    0.72074    0.33860    1.000
    O47      O        0.44550    0.79844    0.40616    1.000
    O48      O        0.45970    0.73750    0.09010    1.000
    O49      O        0.40972    0.83466    0.09526    1.000
    O50      O        0.42112    0.93935    0.18257    1.000
    O51      O        0.48590    0.95237    0.26970    1.000
    O52      O        0.55842    0.69936    0.28900    1.000
    O53      O        0.48717    0.64857    0.22194    1.000
    O54      O        0.37839    0.81973    0.22220    1.000
    Cu13     Cu       0.63910    0.15493    0.10641    1.000
    Cu14     Cu       0.55222    0.27044    0.00424    1.000
    C49      C        0.53130    0.30950    0.20620    1.000
    H25      H        0.49160    0.33300    0.19170    1.000
    C50      C        0.58330    0.35790    0.23190    1.000
    H26      H        0.61190    0.37050    0.19500    1.000
    C51      C        0.58180    0.26830    0.30660    1.000
    H27      H        0.60460    0.22590    0.30160    1.000
    C52      C        0.51660    0.26640    0.26760    1.000
    H28      H        0.48320    0.28940    0.29400    1.000
    C53      C        0.56270    0.27170    0.14870    1.000
    C54      C        0.55590    0.42080    0.26310    1.000
    C55      C        0.57050    0.28180    0.37920    1.000
    C56      C        0.48940    0.19770    0.25120    1.000
    O55      O        0.59453    0.22074    0.16140    1.000
    O56      O        0.55450    0.29844    0.09384    1.000
    O57      O        0.54030    0.23750    0.40990    1.000
    O58      O        0.59028    0.33466    0.40474    1.000
    O59      O        0.57888    0.43935    0.31743    1.000
    O60      O        0.51410    0.45237    0.23030    1.000
    O61      O        0.44158    0.19936    0.21100    1.000
    O62      O        0.51283    0.14857    0.27806    1.000
    O63      O        0.62161    0.31973    0.27780    1.000
    Cu15     Cu       0.13910    0.34507    0.89359    1.000
    Cu16     Cu       0.05222    0.22956    0.99576    1.000
    C57      C        0.03130    0.19050    0.79380    1.000
    H29      H        0.99160    0.16700    0.80830    1.000
    C58      C        0.08330    0.14210    0.76810    1.000
    H30      H        0.11190    0.12950    0.80500    1.000
    C59      C        0.08180    0.23170    0.69340    1.000
    H31      H        0.10460    0.27410    0.69840    1.000
    C60      C        0.01660    0.23360    0.73240    1.000
    H32      H        0.98320    0.21060    0.70600    1.000
    C61      C        0.06270    0.22830    0.85130    1.000
    C62      C        0.05590    0.07920    0.73690    1.000
    C63      C        0.07050    0.21820    0.62080    1.000
    C64      C        0.98940    0.30230    0.74880    1.000
    O64      O        0.09453    0.27926    0.83860    1.000
    O65      O        0.05450    0.20156    0.90616    1.000
    O66      O        0.04030    0.26250    0.59010    1.000
    O67      O        0.09028    0.16534    0.59526    1.000
    O68      O        0.07888    0.06065    0.68257    1.000
    O69      O        0.01410    0.04763    0.76970    1.000
    O70      O        0.94158    0.30064    0.78900    1.000
    O71      O        0.01283    0.35143    0.72194    1.000
    O72      O        0.12161    0.18027    0.72220    1.000
    Cu17     Cu       0.60641    0.86090    0.84507    1.000
    Cu18     Cu       0.50424    0.94778    0.72956    1.000
    C65      C        0.70620    0.96870    0.69050    1.000
    H33      H        0.69170    0.00840    0.66700    1.000
    C66      C        0.73190    0.91670    0.64210    1.000
    H34      H        0.69500    0.88810    0.62950    1.000
    C67      C        0.80660    0.91820    0.73170    1.000
    H35      H        0.80160    0.89540    0.77410    1.000
    C68      C        0.76760    0.98340    0.73360    1.000
    H36      H        0.79400    0.01680    0.71060    1.000
    C69      C        0.64870    0.93730    0.72830    1.000
    C70      C        0.76310    0.94410    0.57920    1.000
    C71      C        0.87920    0.92950    0.71820    1.000
    C72      C        0.75120    0.01060    0.80230    1.000
    O73      O        0.66140    0.90547    0.77926    1.000
    O74      O        0.59384    0.94550    0.70156    1.000
    O75      O        0.90990    0.95970    0.76250    1.000
    O76      O        0.90474    0.90972    0.66534    1.000
    O77      O        0.81743    0.92112    0.56065    1.000
    O78      O        0.73030    0.98590    0.54763    1.000
    O79      O        0.71100    0.05842    0.80064    1.000
    O80      O        0.77806    0.98717    0.85143    1.000
    O81      O        0.77780    0.87839    0.68027    1.000
    Cu19     Cu       0.39359    0.36090    0.65493    1.000
    Cu20     Cu       0.49576    0.44778    0.77044    1.000
    C73      C        0.29380    0.46870    0.80950    1.000
    H37      H        0.30830    0.50840    0.83300    1.000
    C74      C        0.26810    0.41670    0.85790    1.000
    H38      H        0.30500    0.38810    0.87050    1.000
    C75      C        0.19340    0.41820    0.76830    1.000
    H39      H        0.19840    0.39540    0.72590    1.000
    C76      C        0.23240    0.48340    0.76640    1.000
    H40      H        0.20600    0.51680    0.78940    1.000
    C77      C        0.35130    0.43730    0.77170    1.000
    C78      C        0.23690    0.44410    0.92080    1.000
    C79      C        0.12080    0.42950    0.78180    1.000
    C80      C        0.24880    0.51060    0.69770    1.000
    O82      O        0.33860    0.40547    0.72074    1.000
    O83      O        0.40616    0.44550    0.79844    1.000
    O84      O        0.09010    0.45970    0.73750    1.000
    O85      O        0.09526    0.40972    0.83466    1.000
    O86      O        0.18257    0.42112    0.93935    1.000
    O87      O        0.26970    0.48590    0.95237    1.000
    O88      O        0.28900    0.55842    0.69936    1.000
    O89      O        0.22194    0.48717    0.64857    1.000
    O90      O        0.22220    0.37839    0.81973    1.000
    Cu21     Cu       0.10641    0.63910    0.15493    1.000
    Cu22     Cu       0.00424    0.55222    0.27044    1.000
    C81      C        0.20620    0.53130    0.30950    1.000
    H41      H        0.19170    0.49160    0.33300    1.000
    C82      C        0.23190    0.58330    0.35790    1.000
    H42      H        0.19500    0.61190    0.37050    1.000
    C83      C        0.30660    0.58180    0.26830    1.000
    H43      H        0.30160    0.60460    0.22590    1.000
    C84      C        0.26760    0.51660    0.26640    1.000
    H44      H        0.29400    0.48320    0.28940    1.000
    C85      C        0.14870    0.56270    0.27170    1.000
    C86      C        0.26310    0.55590    0.42080    1.000
    C87      C        0.37920    0.57050    0.28180    1.000
    C88      C        0.25120    0.48940    0.19770    1.000
    O91      O        0.16140    0.59453    0.22074    1.000
    O92      O        0.09384    0.55450    0.29844    1.000
    O93      O        0.40990    0.54030    0.23750    1.000
    O94      O        0.40474    0.59028    0.33466    1.000
    O95      O        0.31743    0.57888    0.43935    1.000
    O96      O        0.23030    0.51410    0.45237    1.000
    O97      O        0.21100    0.44158    0.19936    1.000
    O98      O        0.27806    0.51283    0.14857    1.000
    O99      O        0.27780    0.62161    0.31973    1.000
    Cu23     Cu       0.89359    0.13910    0.34507    1.000
    Cu24     Cu       0.99576    0.05222    0.22956    1.000
    C89      C        0.79380    0.03130    0.19050    1.000
    H45      H        0.80830    0.99160    0.16700    1.000
    C90      C        0.76810    0.08330    0.14210    1.000
    H46      H        0.80500    0.11190    0.12950    1.000
    C91      C        0.69340    0.08180    0.23170    1.000
    H47      H        0.69840    0.10460    0.27410    1.000
    C92      C        0.73240    0.01660    0.23360    1.000
    H48      H        0.70600    0.98320    0.21060    1.000
    C93      C        0.85130    0.06270    0.22830    1.000
    C94      C        0.73690    0.05590    0.07920    1.000
    C95      C        0.62080    0.07050    0.21820    1.000
    C96      C        0.74880    0.98940    0.30230    1.000
    O100     O        0.83860    0.09453    0.27926    1.000
    O101     O        0.90616    0.05450    0.20156    1.000
    O102     O        0.59010    0.04030    0.26250    1.000
    O103     O        0.59526    0.09028    0.16534    1.000
    O104     O        0.68257    0.07888    0.06065    1.000
    O105     O        0.76970    0.01410    0.04763    1.000
    O106     O        0.78900    0.94158    0.30064    1.000
    O107     O        0.72194    0.01283    0.35143    1.000
    O108     O        0.72220    0.12161    0.18027    1.000
    Cu25     Cu       0.15493    0.39359    0.13910    1.000
    Cu26     Cu       0.27044    0.49576    0.05222    1.000
    C97      C        0.30950    0.29380    0.03130    1.000
    H49      H        0.33300    0.30830    0.99160    1.000
    C98      C        0.35790    0.26810    0.08330    1.000
    H50      H        0.37050    0.30500    0.11190    1.000
    C99      C        0.26830    0.19340    0.08180    1.000
    H51      H        0.22590    0.19840    0.10460    1.000
    C100     C        0.26640    0.23240    0.01660    1.000
    H52      H        0.28940    0.20600    0.98320    1.000
    C101     C        0.27170    0.35130    0.06270    1.000
    C102     C        0.42080    0.23690    0.05590    1.000
    C103     C        0.28180    0.12080    0.07050    1.000
    C104     C        0.19770    0.24880    0.98940    1.000
    O109     O        0.22074    0.33860    0.09453    1.000
    O110     O        0.29844    0.40616    0.05450    1.000
    O111     O        0.23750    0.09010    0.04030    1.000
    O112     O        0.33466    0.09526    0.09028    1.000
    O113     O        0.43935    0.18257    0.07888    1.000
    O114     O        0.45237    0.26970    0.01410    1.000
    O115     O        0.19936    0.28900    0.94158    1.000
    O116     O        0.14857    0.22194    0.01283    1.000
    O117     O        0.31973    0.22220    0.12161    1.000
    Cu27     Cu       0.34507    0.60641    0.63910    1.000
    Cu28     Cu       0.22956    0.50424    0.55222    1.000
    C105     C        0.19050    0.70620    0.53130    1.000
    H53      H        0.16700    0.69170    0.49160    1.000
    C106     C        0.14210    0.73190    0.58330    1.000
    H54      H        0.12950    0.69500    0.61190    1.000
    C107     C        0.23170    0.80660    0.58180    1.000
    H55      H        0.27410    0.80160    0.60460    1.000
    C108     C        0.23360    0.76760    0.51660    1.000
    H56      H        0.21060    0.79400    0.48320    1.000
    C109     C        0.22830    0.64870    0.56270    1.000
    C110     C        0.07920    0.76310    0.55590    1.000
    C111     C        0.21820    0.87920    0.57050    1.000
    C112     C        0.30230    0.75120    0.48940    1.000
    O118     O        0.27926    0.66140    0.59453    1.000
    O119     O        0.20156    0.59384    0.55450    1.000
    O120     O        0.26250    0.90990    0.54030    1.000
    O121     O        0.16534    0.90474    0.59028    1.000
    O122     O        0.06065    0.81743    0.57888    1.000
    O123     O        0.04763    0.73030    0.51410    1.000
    O124     O        0.30064    0.71100    0.44158    1.000
    O125     O        0.35143    0.77806    0.51283    1.000
    O126     O        0.18027    0.77780    0.62161    1.000
    Cu29     Cu       0.84507    0.89359    0.36090    1.000
    Cu30     Cu       0.72956    0.99576    0.44778    1.000
    C113     C        0.69050    0.79380    0.46870    1.000
    H57      H        0.66700    0.80830    0.50840    1.000
    C114     C        0.64210    0.76810    0.41670    1.000
    H58      H        0.62950    0.80500    0.38810    1.000
    C115     C        0.73170    0.69340    0.41820    1.000
    H59      H        0.77410    0.69840    0.39540    1.000
    C116     C        0.73360    0.73240    0.48340    1.000
    H60      H        0.71060    0.70600    0.51680    1.000
    C117     C        0.72830    0.85130    0.43730    1.000
    C118     C        0.57920    0.73690    0.44410    1.000
    C119     C        0.71820    0.62080    0.42950    1.000
    C120     C        0.80230    0.74880    0.51060    1.000
    O127     O        0.77926    0.83860    0.40547    1.000
    O128     O        0.70156    0.90616    0.44550    1.000
    O129     O        0.76250    0.59010    0.45970    1.000
    O130     O        0.66534    0.59526    0.40972    1.000
    O131     O        0.56065    0.68257    0.42112    1.000
    O132     O        0.54763    0.76970    0.48590    1.000
    O133     O        0.80064    0.78900    0.55842    1.000
    O134     O        0.85143    0.72194    0.48717    1.000
    O135     O        0.68027    0.72220    0.37839    1.000
    Cu31     Cu       0.65493    0.10641    0.86090    1.000
    Cu32     Cu       0.77044    0.00424    0.94778    1.000
    C121     C        0.80950    0.20620    0.96870    1.000
    H61      H        0.83300    0.19170    0.00840    1.000
    C122     C        0.85790    0.23190    0.91670    1.000
    H62      H        0.87050    0.19500    0.88810    1.000
    C123     C        0.76830    0.30660    0.91820    1.000
    H63      H        0.72590    0.30160    0.89540    1.000
    C124     C        0.76640    0.26760    0.98340    1.000
    H64      H        0.78940    0.29400    0.01680    1.000
    C125     C        0.77170    0.14870    0.93730    1.000
    C126     C        0.92080    0.26310    0.94410    1.000
    C127     C        0.78180    0.37920    0.92950    1.000
    C128     C        0.69770    0.25120    0.01060    1.000
    O136     O        0.72074    0.16140    0.90547    1.000
    O137     O        0.79844    0.09384    0.94550    1.000
    O138     O        0.73750    0.40990    0.95970    1.000
    O139     O        0.83466    0.40474    0.90972    1.000
    O140     O        0.93935    0.31743    0.92112    1.000
    O141     O        0.95237    0.23030    0.98590    1.000
    O142     O        0.69936    0.21100    0.05842    1.000
    O143     O        0.64857    0.27806    0.98717    1.000
    O144     O        0.81973    0.27780    0.87839    1.000
    Cu33     Cu       0.13910    0.15493    0.39359    1.000
    Cu34     Cu       0.05222    0.27044    0.49576    1.000
    C129     C        0.03130    0.30950    0.29380    1.000
    H65      H        0.99160    0.33300    0.30830    1.000
    C130     C        0.08330    0.35790    0.26810    1.000
    H66      H        0.11190    0.37050    0.30500    1.000
    C131     C        0.08180    0.26830    0.19340    1.000
    H67      H        0.10460    0.22590    0.19840    1.000
    C132     C        0.01660    0.26640    0.23240    1.000
    H68      H        0.98320    0.28940    0.20600    1.000
    C133     C        0.06270    0.27170    0.35130    1.000
    C134     C        0.05590    0.42080    0.23690    1.000
    C135     C        0.07050    0.28180    0.12080    1.000
    C136     C        0.98940    0.19770    0.24880    1.000
    O145     O        0.09453    0.22074    0.33860    1.000
    O146     O        0.05450    0.29844    0.40616    1.000
    O147     O        0.04030    0.23750    0.09010    1.000
    O148     O        0.09028    0.33466    0.09526    1.000
    O149     O        0.07888    0.43935    0.18257    1.000
    O150     O        0.01410    0.45237    0.26970    1.000
    O151     O        0.94158    0.19936    0.28900    1.000
    O152     O        0.01283    0.14857    0.22194    1.000
    O153     O        0.12161    0.31973    0.22220    1.000
    Cu35     Cu       0.63910    0.34507    0.60641    1.000
    Cu36     Cu       0.55222    0.22956    0.50424    1.000
    C137     C        0.53130    0.19050    0.70620    1.000
    H69      H        0.49160    0.16700    0.69170    1.000
    C138     C        0.58330    0.14210    0.73190    1.000
    H70      H        0.61190    0.12950    0.69500    1.000
    C139     C        0.58180    0.23170    0.80660    1.000
    H71      H        0.60460    0.27410    0.80160    1.000
    C140     C        0.51660    0.23360    0.76760    1.000
    H72      H        0.48320    0.21060    0.79400    1.000
    C141     C        0.56270    0.22830    0.64870    1.000
    C142     C        0.55590    0.07920    0.76310    1.000
    C143     C        0.57050    0.21820    0.87920    1.000
    C144     C        0.48940    0.30230    0.75120    1.000
    O154     O        0.59453    0.27926    0.66140    1.000
    O155     O        0.55450    0.20156    0.59384    1.000
    O156     O        0.54030    0.26250    0.90990    1.000
    O157     O        0.59028    0.16534    0.90474    1.000
    O158     O        0.57888    0.06065    0.81743    1.000
    O159     O        0.51410    0.04763    0.73030    1.000
    O160     O        0.44158    0.30064    0.71100    1.000
    O161     O        0.51283    0.35143    0.77806    1.000
    O162     O        0.62161    0.18027    0.77780    1.000
    Cu37     Cu       0.36090    0.84507    0.89359    1.000
    Cu38     Cu       0.44778    0.72956    0.99576    1.000
    C145     C        0.46870    0.69050    0.79380    1.000
    H73      H        0.50840    0.66700    0.80830    1.000
    C146     C        0.41670    0.64210    0.76810    1.000
    H74      H        0.38810    0.62950    0.80500    1.000
    C147     C        0.41820    0.73170    0.69340    1.000
    H75      H        0.39540    0.77410    0.69840    1.000
    C148     C        0.48340    0.73360    0.73240    1.000
    H76      H        0.51680    0.71060    0.70600    1.000
    C149     C        0.43730    0.72830    0.85130    1.000
    C150     C        0.44410    0.57920    0.73690    1.000
    C151     C        0.42950    0.71820    0.62080    1.000
    C152     C        0.51060    0.80230    0.74880    1.000
    O163     O        0.40547    0.77926    0.83860    1.000
    O164     O        0.44550    0.70156    0.90616    1.000
    O165     O        0.45970    0.76250    0.59010    1.000
    O166     O        0.40972    0.66534    0.59526    1.000
    O167     O        0.42112    0.56065    0.68257    1.000
    O168     O        0.48590    0.54763    0.76970    1.000
    O169     O        0.55842    0.80064    0.78900    1.000
    O170     O        0.48717    0.85143    0.72194    1.000
    O171     O        0.37839    0.68027    0.72220    1.000
    Cu39     Cu       0.86090    0.65493    0.10641    1.000
    Cu40     Cu       0.94778    0.77044    0.00424    1.000
    C153     C        0.96870    0.80950    0.20620    1.000
    H77      H        0.00840    0.83300    0.19170    1.000
    C154     C        0.91670    0.85790    0.23190    1.000
    H78      H        0.88810    0.87050    0.19500    1.000
    C155     C        0.91820    0.76830    0.30660    1.000
    H79      H        0.89540    0.72590    0.30160    1.000
    C156     C        0.98340    0.76640    0.26760    1.000
    H80      H        0.01680    0.78940    0.29400    1.000
    C157     C        0.93730    0.77170    0.14870    1.000
    C158     C        0.94410    0.92080    0.26310    1.000
    C159     C        0.92950    0.78180    0.37920    1.000
    C160     C        0.01060    0.69770    0.25120    1.000
    O172     O        0.90547    0.72074    0.16140    1.000
    O173     O        0.94550    0.79844    0.09384    1.000
    O174     O        0.95970    0.73750    0.40990    1.000
    O175     O        0.90972    0.83466    0.40474    1.000
    O176     O        0.92112    0.93935    0.31743    1.000
    O177     O        0.98590    0.95237    0.23030    1.000
    O178     O        0.05842    0.69936    0.21100    1.000
    O179     O        0.98717    0.64857    0.27806    1.000
    O180     O        0.87839    0.81973    0.27780    1.000
    Cu41     Cu       0.39359    0.13910    0.15493    1.000
    Cu42     Cu       0.49576    0.05222    0.27044    1.000
    C161     C        0.29380    0.03130    0.30950    1.000
    H81      H        0.30830    0.99160    0.33300    1.000
    C162     C        0.26810    0.08330    0.35790    1.000
    H82      H        0.30500    0.11190    0.37050    1.000
    C163     C        0.19340    0.08180    0.26830    1.000
    H83      H        0.19840    0.10460    0.22590    1.000
    C164     C        0.23240    0.01660    0.26640    1.000
    H84      H        0.20600    0.98320    0.28940    1.000
    C165     C        0.35130    0.06270    0.27170    1.000
    C166     C        0.23690    0.05590    0.42080    1.000
    C167     C        0.12080    0.07050    0.28180    1.000
    C168     C        0.24880    0.98940    0.19770    1.000
    O181     O        0.33860    0.09453    0.22074    1.000
    O182     O        0.40616    0.05450    0.29844    1.000
    O183     O        0.09010    0.04030    0.23750    1.000
    O184     O        0.09526    0.09028    0.33466    1.000
    O185     O        0.18257    0.07888    0.43935    1.000
    O186     O        0.26970    0.01410    0.45237    1.000
    O187     O        0.28900    0.94158    0.19936    1.000
    O188     O        0.22194    0.01283    0.14857    1.000
    O189     O        0.22220    0.12161    0.31973    1.000
    Cu43     Cu       0.60641    0.63910    0.34507    1.000
    Cu44     Cu       0.50424    0.55222    0.22956    1.000
    C169     C        0.70620    0.53130    0.19050    1.000
    H85      H        0.69170    0.49160    0.16700    1.000
    C170     C        0.73190    0.58330    0.14210    1.000
    H86      H        0.69500    0.61190    0.12950    1.000
    C171     C        0.80660    0.58180    0.23170    1.000
    H87      H        0.80160    0.60460    0.27410    1.000
    C172     C        0.76760    0.51660    0.23360    1.000
    H88      H        0.79400    0.48320    0.21060    1.000
    C173     C        0.64870    0.56270    0.22830    1.000
    C174     C        0.76310    0.55590    0.07920    1.000
    C175     C        0.87920    0.57050    0.21820    1.000
    C176     C        0.75120    0.48940    0.30230    1.000
    O190     O        0.66140    0.59453    0.27926    1.000
    O191     O        0.59384    0.55450    0.20156    1.000
    O192     O        0.90990    0.54030    0.26250    1.000
    O193     O        0.90474    0.59028    0.16534    1.000
    O194     O        0.81743    0.57888    0.06065    1.000
    O195     O        0.73030    0.51410    0.04763    1.000
    O196     O        0.71100    0.44158    0.30064    1.000
    O197     O        0.77806    0.51283    0.35143    1.000
    O198     O        0.77780    0.62161    0.18027    1.000
    Cu45     Cu       0.89359    0.36090    0.84507    1.000
    Cu46     Cu       0.99576    0.44778    0.72956    1.000
    C177     C        0.79380    0.46870    0.69050    1.000
    H89      H        0.80830    0.50840    0.66700    1.000
    C178     C        0.76810    0.41670    0.64210    1.000
    H90      H        0.80500    0.38810    0.62950    1.000
    C179     C        0.69340    0.41820    0.73170    1.000
    H91      H        0.69840    0.39540    0.77410    1.000
    C180     C        0.73240    0.48340    0.73360    1.000
    H92      H        0.70600    0.51680    0.71060    1.000
    C181     C        0.85130    0.43730    0.72830    1.000
    C182     C        0.73690    0.44410    0.57920    1.000
    C183     C        0.62080    0.42950    0.71820    1.000
    C184     C        0.74880    0.51060    0.80230    1.000
    O199     O        0.83860    0.40547    0.77926    1.000
    O200     O        0.90616    0.44550    0.70156    1.000
    O201     O        0.59010    0.45970    0.76250    1.000
    O202     O        0.59526    0.40972    0.66534    1.000
    O203     O        0.68257    0.42112    0.56065    1.000
    O204     O        0.76970    0.48590    0.54763    1.000
    O205     O        0.78900    0.55842    0.80064    1.000
    O206     O        0.72194    0.48717    0.85143    1.000
    O207     O        0.72220    0.37839    0.68027    1.000
    Cu47     Cu       0.10641    0.86090    0.65493    1.000
    Cu48     Cu       0.00424    0.94778    0.77044    1.000
    C185     C        0.20620    0.96870    0.80950    1.000
    H93      H        0.19170    0.00840    0.83300    1.000
    C186     C        0.23190    0.91670    0.85790    1.000
    H94      H        0.19500    0.88810    0.87050    1.000
    C187     C        0.30660    0.91820    0.76830    1.000
    H95      H        0.30160    0.89540    0.72590    1.000
    C188     C        0.26760    0.98340    0.76640    1.000
    H96      H        0.29400    0.01680    0.78940    1.000
    C189     C        0.14870    0.93730    0.77170    1.000
    C190     C        0.26310    0.94410    0.92080    1.000
    C191     C        0.37920    0.92950    0.78180    1.000
    C192     C        0.25120    0.01060    0.69770    1.000
    O208     O        0.16140    0.90547    0.72074    1.000
    O209     O        0.09384    0.94550    0.79844    1.000
    O210     O        0.40990    0.95970    0.73750    1.000
    O211     O        0.40474    0.90972    0.83466    1.000
    O212     O        0.31743    0.92112    0.93935    1.000
    O213     O        0.23030    0.98590    0.95237    1.000
    O214     O        0.21100    0.05842    0.69936    1.000
    O215     O        0.27806    0.98717    0.64857    1.000
    O216     O        0.27780    0.87839    0.81973    1.000
