data_functionalizedCrystal
_audit_creation_method	'EQeq! by Chris Wilmer'
_symmetry_space_group_name_H-M	'P1'
_symmetry_Int_Tables_number	1
_symmetry_cell_setting	triclinic
loop_
_symmetry_equiv_pos_as_xyz
  x,y,z
_cell_length_a	14.8775
_cell_length_b	14.8775
_cell_length_c	14.8775
_cell_angle_alpha	60
_cell_angle_beta	60
_cell_angle_gamma	60
loop_
_atom_site_label
_atom_site_type_symbol
_atom_site_fract_x
_atom_site_fract_y
_atom_site_fract_z
_atom_site_charge
Mof_Hf	Hf	0.12089	0.87911	0.12089	1.28
Mof_Hf	Hf	0.12089	0.87911	0.87911	1.314
Mof_Hf	Hf	0.87911	0.87911	0.12089	1.314
Mof_Hf	Hf	0.87911	0.12089	0.12089	1.28
Mof_Hf	Hf	0.87911	0.12089	0.87911	1.314
Mof_Hf	Hf	0.12089	0.12089	0.87911	1.28
Mof_H 	H 	0.8627	0.57744	0.15148	0.042
Mof_H 	H 	0.40838	0.57744	0.8627	0.044
Mof_H 	H 	0.57744	0.40838	0.15148	0.045
Mof_H 	H 	0.15148	0.57744	0.8627	0.043
Mof_H 	H 	0.15148	0.40838	0.57744	0.046
Mof_H 	H 	0.40838	0.8627	0.15148	0.043
Mof_H 	H 	0.8627	0.15148	0.40838	0.043
Mof_H 	H 	0.57744	0.40838	0.8627	0.045
Mof_H 	H 	0.40838	0.8627	0.57744	0.045
Mof_H 	H 	0.2856	0.9048	0.9048	0.219
Mof_H 	H 	0.57744	0.15148	0.40838	0.046
Mof_H 	H 	0.8627	0.15148	0.57744	0.043
Mof_H 	H 	0.57744	0.8627	0.15148	0.043
Mof_H 	H 	0.9048	0.2856	0.9048	0.219
Mof_H 	H 	0.8627	0.40838	0.15148	0.043
Mof_H 	H 	0.15148	0.8627	0.40838	0.043
Mof_H 	H 	0.9048	0.9048	0.9048	0.225
Mof_H 	H 	0.57744	0.15148	0.8627	0.043
Mof_H 	H 	0.9048	0.9048	0.2856	0.219
Mof_H 	H 	0.15148	0.57744	0.40838	0.046
Mof_H 	H 	0.8627	0.57744	0.40838	0.045
Mof_H 	H 	0.40838	0.15148	0.8627	0.043
Mof_H 	H 	0.8627	0.40838	0.57744	0.045
Mof_H 	H 	0.57744	0.8627	0.40838	0.045
Mof_H 	H 	0.40838	0.57744	0.15148	0.046
Mof_H 	H 	0.15148	0.8627	0.57744	0.043
Mof_H 	H 	0.15148	0.40838	0.8627	0.043
Mof_H 	H 	0.40838	0.15148	0.57744	0.046
Mof_C 	C 	0.44609	0.53949	0.92557	0.027
Mof_C 	C 	0.00434	0.30142	0.00434	0.29
Mof_C 	C 	0.92557	0.53949	0.44609	0.027
Mof_C 	C 	0.08885	0.92557	0.44609	0.024
Mof_C 	C 	0.00675	0.00675	0.39939	-0.134
Mof_C 	C 	0.92557	0.08885	0.44609	0.024
Mof_C 	C 	0.53949	0.92557	0.44609	0.027
Mof_C 	C 	0.44609	0.08885	0.92557	0.024
Mof_C 	C 	0.53949	0.44609	0.08885	-0.003
Mof_C 	C 	0.08885	0.53949	0.92557	0.026
Mof_C 	C 	0.58711	0.00675	0.39939	-0.109
Mof_C 	C 	0.53949	0.08885	0.44609	-0.003
Mof_C 	C 	0.58711	0.39939	0.00675	-0.109
Mof_C 	C 	0.6899	0.00434	0.00434	0.287
Mof_C 	C 	0.00434	0.6899	0.00434	0.287
Mof_C 	C 	0.00434	0.00434	0.6899	0.287
Mof_C 	C 	0.30142	0.00434	0.6899	0.319
Mof_C 	C 	0.53949	0.92557	0.08885	0.026
Mof_C 	C 	0.6899	0.30142	0.00434	0.319
Mof_C 	C 	0.08885	0.44609	0.92557	0.024
Mof_C 	C 	0.92557	0.53949	0.08885	0.026
Mof_C 	C 	0.92557	0.08885	0.53949	0.026
Mof_C 	C 	0.39939	0.00675	0.00675	-0.134
Mof_C 	C 	0.00675	0.39939	0.58711	-0.109
Mof_C 	C 	0.00675	0.39939	0.00675	-0.134
Mof_C 	C 	0.39939	0.00675	0.58711	-0.109
Mof_C 	C 	0.08885	0.44609	0.53949	-0.003
Mof_C 	C 	0.39939	0.58711	0.00675	-0.109
Mof_C 	C 	0.53949	0.44609	0.92557	0.027
Mof_C 	C 	0.58711	0.00675	0.00675	-0.135
Mof_C 	C 	0.00675	0.58711	0.39939	-0.109
Mof_C 	C 	0.00675	0.00675	0.58711	-0.135
Mof_C 	C 	0.08885	0.53949	0.44609	-0.003
Mof_C 	C 	0.00675	0.58711	0.00675	-0.135
Mof_C 	C 	0.92557	0.44609	0.08885	0.024
Mof_C 	C 	0.08885	0.92557	0.53949	0.026
Mof_C 	C 	0.44609	0.92557	0.53949	0.027
Mof_C 	C 	0.30142	0.6899	0.00434	0.319
Mof_C 	C 	0.44609	0.92557	0.08885	0.024
Mof_C 	C 	0.53949	0.08885	0.92557	0.026
Mof_C 	C 	0.00434	0.30142	0.6899	0.319
Mof_C 	C 	0.44609	0.08885	0.53949	-0.003
Mof_C 	C 	0.44609	0.53949	0.08885	-0.003
Mof_C 	C 	0.30142	0.00434	0.00434	0.29
Mof_C 	C 	0.6899	0.00434	0.30142	0.319
Mof_C 	C 	0.92557	0.44609	0.53949	0.027
Mof_C 	C 	0.00434	0.00434	0.30142	0.29
Mof_C 	C 	0.00434	0.6899	0.30142	0.319
Mof_O 	O 	0.72998	0.26446	0.07968	-0.357
Mof_O 	O 	0.8455	0.0515	0.0515	-0.575
Mof_O 	O 	0.26446	0.92588	0.07968	-0.329
Mof_O 	O 	0.07968	0.26446	0.72998	-0.357
Mof_O 	O 	0.72998	0.07968	0.92588	-0.33
Mof_O 	O 	0.26446	0.92588	0.72998	-0.329
Mof_O 	O 	0.26446	0.07968	0.72998	-0.357
Mof_O 	O 	0.92588	0.07968	0.26446	-0.329
Mof_O 	O 	0.0515	0.0515	0.0515	-0.585
Mof_O 	O 	0.72998	0.07968	0.26446	-0.357
Mof_O 	O 	0.92588	0.07968	0.72998	-0.33
Mof_O 	O 	0.72998	0.26446	0.92588	-0.329
Mof_O 	O 	0.93147	0.20559	0.93147	-0.496
Mof_O 	O 	0.92588	0.26446	0.72998	-0.329
Mof_O 	O 	0.26446	0.72998	0.92588	-0.329
Mof_O 	O 	0.07968	0.72998	0.92588	-0.33
Mof_O 	O 	0.07968	0.26446	0.92588	-0.329
Mof_O 	O 	0.26446	0.07968	0.92588	-0.329
Mof_O 	O 	0.0515	0.8455	0.0515	-0.575
Mof_O 	O 	0.92588	0.72998	0.26446	-0.329
Mof_O 	O 	0.72998	0.92588	0.07968	-0.33
Mof_O 	O 	0.07968	0.92588	0.72998	-0.33
Mof_O 	O 	0.20559	0.93147	0.93147	-0.496
Mof_O 	O 	0.92588	0.72998	0.07968	-0.33
Mof_O 	O 	0.72998	0.92588	0.26446	-0.329
Mof_O 	O 	0.26446	0.72998	0.07968	-0.357
Mof_O 	O 	0.0515	0.0515	0.8455	-0.575
Mof_O 	O 	0.07968	0.72998	0.26446	-0.357
Mof_O 	O 	0.93147	0.93147	0.93147	-0.483
Mof_O 	O 	0.93147	0.93147	0.20559	-0.496
Mof_O 	O 	0.07968	0.92588	0.26446	-0.329
Mof_O 	O 	0.92588	0.26446	0.07968	-0.329
_end
