# CIF file generated by openbabel 3.1.0, see https://openbabel.org
data_I
_chemical_name_common 'image0'
_cell_length_a 13.006
_cell_length_b 13.821
_cell_length_c 27.982
_cell_angle_alpha 75.67
_cell_angle_beta 79.35
_cell_angle_gamma 85.62
_space_group_name_H-M_alt 'P 1'
_space_group_name_Hall 'P 1'
loop_
    _symmetry_equiv_pos_as_xyz
    x,y,z
loop_
    _atom_site_label
    _atom_site_type_symbol
    _atom_site_fract_x
    _atom_site_fract_y
    _atom_site_fract_z
    _atom_site_occupancy
    Eu1      Eu       0.88028    0.02118    0.55405    1.000
    Eu2      Eu       0.47145    0.53782    0.41508    1.000
    Eu3      Eu       0.03068    0.87524    0.06050    1.000
    Eu4      Eu       0.51709    0.48078    0.91415    1.000
    O1       O        0.94570    0.93200    0.47215    1.000
    O2       O        0.79910    0.89900    0.52589    1.000
    O3       O        0.59970    0.56730    0.45670    1.000
    O4       O        0.62380    0.59060    0.52878    1.000
    O5       O        0.04520    0.88960    0.14447    1.000
    O6       O        0.93130    0.78580    0.14087    1.000
    O7       O        0.63990    0.51690    0.35808    1.000
    O8       O        0.59550    0.39250    0.42354    1.000
    O9       O        0.86870    0.13510    0.47589    1.000
    O10      O        0.01880    0.12660    0.42246    1.000
    O11      O        0.25990    0.65930    0.14692    1.000
    O12      O        0.32570    0.50800    0.14153    1.000
    O13      O        0.88910    0.98360    0.07757    1.000
    O14      O        0.87590    0.12730    0.02152    1.000
    O15      O        0.50410    0.35110    0.13833    1.000
    O16      O        0.61240    0.38720    0.06681    1.000
    O17      O        0.49050    0.69420    0.36318    1.000
    O18      O        0.44390    0.81440    0.40300    1.000
    O19      O        0.59760    0.57200    0.95480    1.000
    O20      O        0.61130    0.60700    0.02558    1.000
    O21      O        0.90120    0.96790    0.96719    1.000
    O22      O        0.89380    0.82670    0.02536    1.000
    O23      O        0.77830    0.93540    0.63516    1.000
    O24      O        0.91300    0.01760    0.63837    1.000
    C1       C        0.82530    0.82290    0.45730    1.000
    C2       C        0.75070    0.75250    0.48150    1.000
    H1       H        0.72430    0.74510    0.51540    1.000
    C3       C        0.71580    0.69310    0.45490    1.000
    C4       C        0.75200    0.70580    0.40450    1.000
    H2       H        0.72590    0.66710    0.38680    1.000
    C5       C        0.82840    0.77660    0.37910    1.000
    C6       C        0.86560    0.83350    0.40670    1.000
    H3       H        0.91780    0.87890    0.39110    1.000
    C7       C        0.86610    0.78880    0.32440    1.000
    C8       C        0.96210    0.83340    0.30120    1.000
    H4       H        0.00340    0.85510    0.32010    1.000
    C9       C        0.99490    0.84490    0.25010    1.000
    H5       H        0.05870    0.87400    0.23530    1.000
    C10      C        0.93650    0.81480    0.22080    1.000
    C11      C        0.84670    0.76290    0.24430    1.000
    H6       H        0.80920    0.73550    0.22590    1.000
    C12      C        0.81280    0.75200    0.29520    1.000
    H7       H        0.75140    0.71840    0.31010    1.000
    C13      C        0.85980    0.88870    0.48670    1.000
    C14      C        0.64020    0.61260    0.48220    1.000
    C15      C        0.97360    0.83050    0.16540    1.000
    C16      C        0.76570    0.38350    0.37490    1.000
    C17      C        0.79570    0.29850    0.40780    1.000
    H8       H        0.75010    0.27150    0.43710    1.000
    C18      C        0.89440    0.25290    0.39730    1.000
    C19      C        0.96130    0.29310    0.35390    1.000
    H9       H        0.02660    0.26230    0.34690    1.000
    C20      C        0.93300    0.37930    0.32000    1.000
    C21      C        0.83530    0.42300    0.33150    1.000
    H10      H        0.81550    0.48060    0.30950    1.000
    C22      C        0.01100    0.42640    0.27530    1.000
    C23      C        0.01660    0.52940    0.25990    1.000
    H11      H        0.96810    0.56890    0.27600    1.000
    C24      C        0.09290    0.57500    0.22080    1.000
    H12      H        0.09420    0.64430    0.21060    1.000
    C25      C        0.16700    0.51730    0.19710    1.000
    C26      C        0.15940    0.41470    0.21110    1.000
    H13      H        0.20670    0.37500    0.19440    1.000
    C27      C        0.08180    0.37000    0.24970    1.000
    H14      H        0.07760    0.30080    0.25850    1.000
    C28      C        0.66110    0.43290    0.38570    1.000
    C29      C        0.92960    0.16290    0.43530    1.000
    C30      C        0.25590    0.56610    0.15900    1.000
    C31      C        0.76200    0.10270    0.10010    1.000
    C32      C        0.71480    0.19690    0.08790    1.000
    H15      H        0.73820    0.24040    0.05730    1.000
    C33      C        0.63270    0.22680    0.12110    1.000
    C34      C        0.59830    0.16170    0.16660    1.000
    H16      H        0.54390    0.18230    0.18890    1.000
    C35      C        0.64290    0.06650    0.17970    1.000
    C36      C        0.72600    0.03870    0.14560    1.000
    H17      H        0.75780    0.97560    0.15380    1.000
    C37      C        0.60070    0.99610    0.22740    1.000
    C38      C        0.59970    0.89490    0.22980    1.000
    H18      H        0.62660    0.87140    0.20150    1.000
    C39      C        0.55910    0.82780    0.27400    1.000
    H19      H        0.55840    0.76030    0.27470    1.000
    C40      C        0.51980    0.86010    0.31690    1.000
    C41      C        0.52130    0.96050    0.31560    1.000
    H20      H        0.49590    0.98330    0.34430    1.000
    C42      C        0.56100    0.02740    0.27100    1.000
    H21      H        0.56110    0.09500    0.27040    1.000
    C43      C        0.84910    0.06840    0.06400    1.000
    C44      C        0.58020    0.32800    0.10810    1.000
    C45      C        0.48080    0.78480    0.36510    1.000
    C46      C        0.70000    0.70800    0.95200    1.000
    C47      C        0.75180    0.75340    0.97900    1.000
    H22      H        0.74470    0.72950    0.01360    1.000
    C48      C        0.81470    0.83440    0.95510    1.000
    C49      C        0.82360    0.87000    0.90400    1.000
    H23      H        0.86260    0.92630    0.88820    1.000
    C50      C        0.77540    0.82330    0.87540    1.000
    C51      C        0.71290    0.74270    0.89980    1.000
    H24      H        0.67930    0.71140    0.88150    1.000
    C52      C        0.79040    0.85890    0.82000    1.000
    C53      C        0.71430    0.85090    0.79320    1.000
    H25      H        0.65120    0.82260    0.81020    1.000
    C54      C        0.72840    0.88330    0.74180    1.000
    H26      H        0.67490    0.87760    0.72490    1.000
    C55      C        0.82170    0.92430    0.71540    1.000
    C56      C        0.89980    0.93160    0.74090    1.000
    H27      H        0.96370    0.95750    0.72350    1.000
    C57      C        0.88410    0.90010    0.79330    1.000
    H28      H        0.93700    0.90700    0.81030    1.000
    C58      C        0.63040    0.62340    0.97890    1.000
    C59      C        0.87300    0.88010    0.98470    1.000
    C60      C        0.83870    0.96110    0.65930    1.000
    Tb1      Tb       0.11972    0.97882    0.44595    1.000
    Tb2      Tb       0.96932    0.12476    0.93950    1.000
    Eu5      Eu       0.52855    0.46218    0.58492    1.000
    Eu6      Eu       0.48291    0.51922    0.08585    1.000
    O25      O        0.05430    0.06800    0.52785    1.000
    O26      O        0.20090    0.10100    0.47411    1.000
    O27      O        0.40030    0.43270    0.54330    1.000
    O28      O        0.37620    0.40940    0.47122    1.000
    O29      O        0.95480    0.11040    0.85553    1.000
    O30      O        0.06870    0.21420    0.85913    1.000
    O31      O        0.36010    0.48310    0.64192    1.000
    O32      O        0.40450    0.60750    0.57646    1.000
    O33      O        0.13130    0.86490    0.52411    1.000
    O34      O        0.98120    0.87340    0.57754    1.000
    O35      O        0.74010    0.34070    0.85308    1.000
    O36      O        0.67430    0.49200    0.85847    1.000
    O37      O        0.11090    0.01640    0.92243    1.000
    O38      O        0.12410    0.87270    0.97848    1.000
    O39      O        0.49590    0.64890    0.86167    1.000
    O40      O        0.38760    0.61280    0.93319    1.000
    O41      O        0.50950    0.30580    0.63682    1.000
    O42      O        0.55610    0.18560    0.59700    1.000
    O43      O        0.40240    0.42800    0.04520    1.000
    O44      O        0.38870    0.39300    0.97442    1.000
    O45      O        0.09880    0.03210    0.03281    1.000
    O46      O        0.10620    0.17330    0.97464    1.000
    O47      O        0.22170    0.06460    0.36484    1.000
    O48      O        0.08700    0.98240    0.36163    1.000
    C61      C        0.17470    0.17710    0.54270    1.000
    C62      C        0.24930    0.24750    0.51850    1.000
    H29      H        0.27570    0.25490    0.48460    1.000
    C63      C        0.28420    0.30690    0.54510    1.000
    C64      C        0.24800    0.29420    0.59550    1.000
    H30      H        0.27410    0.33290    0.61320    1.000
    C65      C        0.17160    0.22340    0.62090    1.000
    C66      C        0.13440    0.16650    0.59330    1.000
    H31      H        0.08220    0.12110    0.60890    1.000
    C67      C        0.13390    0.21120    0.67560    1.000
    C68      C        0.03790    0.16660    0.69880    1.000
    H32      H        0.99660    0.14490    0.67990    1.000
    C69      C        0.00510    0.15510    0.74990    1.000
    H33      H        0.94130    0.12600    0.76470    1.000
    C70      C        0.06350    0.18520    0.77920    1.000
    C71      C        0.15330    0.23710    0.75570    1.000
    H34      H        0.19080    0.26450    0.77410    1.000
    C72      C        0.18720    0.24800    0.70480    1.000
    H35      H        0.24860    0.28160    0.68990    1.000
    C73      C        0.14020    0.11130    0.51330    1.000
    C74      C        0.35980    0.38740    0.51780    1.000
    C75      C        0.02640    0.16950    0.83460    1.000
    C76      C        0.23430    0.61650    0.62510    1.000
    C77      C        0.20430    0.70150    0.59220    1.000
    H36      H        0.24990    0.72850    0.56290    1.000
    C78      C        0.10560    0.74710    0.60270    1.000
    C79      C        0.03870    0.70690    0.64610    1.000
    H37      H        0.97340    0.73770    0.65310    1.000
    C80      C        0.06700    0.62070    0.68000    1.000
    C81      C        0.16470    0.57700    0.66850    1.000
    H38      H        0.18450    0.51940    0.69050    1.000
    C82      C        0.98900    0.57360    0.72470    1.000
    C83      C        0.98340    0.47060    0.74010    1.000
    H39      H        0.03190    0.43110    0.72400    1.000
    C84      C        0.90710    0.42500    0.77920    1.000
    H40      H        0.90580    0.35570    0.78940    1.000
    C85      C        0.83300    0.48270    0.80290    1.000
    C86      C        0.84060    0.58530    0.78890    1.000
    H41      H        0.79330    0.62500    0.80560    1.000
    C87      C        0.91820    0.63000    0.75030    1.000
    H42      H        0.92240    0.69920    0.74150    1.000
    C88      C        0.33890    0.56710    0.61430    1.000
    C89      C        0.07040    0.83710    0.56470    1.000
    C90      C        0.74410    0.43390    0.84100    1.000
    C91      C        0.23800    0.89730    0.89990    1.000
    C92      C        0.28520    0.80310    0.91210    1.000
    H43      H        0.26180    0.75960    0.94270    1.000
    C93      C        0.36730    0.77320    0.87890    1.000
    C94      C        0.40170    0.83830    0.83340    1.000
    H44      H        0.45610    0.81770    0.81110    1.000
    C95      C        0.35710    0.93350    0.82030    1.000
    C96      C        0.27400    0.96130    0.85440    1.000
    H45      H        0.24220    0.02440    0.84620    1.000
    C97      C        0.39930    0.00390    0.77260    1.000
    C98      C        0.40030    0.10510    0.77020    1.000
    H46      H        0.37340    0.12860    0.79850    1.000
    C99      C        0.44090    0.17220    0.72600    1.000
    H47      H        0.44160    0.23970    0.72530    1.000
    C100     C        0.48020    0.13990    0.68310    1.000
    C101     C        0.47870    0.03950    0.68440    1.000
    H48      H        0.50410    0.01670    0.65570    1.000
    C102     C        0.43900    0.97260    0.72900    1.000
    H49      H        0.43890    0.90500    0.72960    1.000
    C103     C        0.15090    0.93160    0.93600    1.000
    C104     C        0.41980    0.67200    0.89190    1.000
    C105     C        0.51920    0.21520    0.63490    1.000
    C106     C        0.30000    0.29200    0.04800    1.000
    C107     C        0.24820    0.24660    0.02100    1.000
    H50      H        0.25530    0.27050    0.98640    1.000
    C108     C        0.18530    0.16560    0.04490    1.000
    C109     C        0.17640    0.13000    0.09600    1.000
    H51      H        0.13740    0.07370    0.11180    1.000
    C110     C        0.22460    0.17670    0.12460    1.000
    C111     C        0.28710    0.25730    0.10020    1.000
    H52      H        0.32070    0.28860    0.11850    1.000
    C112     C        0.20960    0.14110    0.18000    1.000
    C113     C        0.28570    0.14910    0.20680    1.000
    H53      H        0.34880    0.17740    0.18980    1.000
    C114     C        0.27160    0.11670    0.25820    1.000
    H54      H        0.32510    0.12240    0.27510    1.000
    C115     C        0.17830    0.07570    0.28460    1.000
    C116     C        0.10020    0.06840    0.25910    1.000
    H55      H        0.03630    0.04250    0.27650    1.000
    C117     C        0.11590    0.09990    0.20670    1.000
    H56      H        0.06300    0.09300    0.18970    1.000
    C118     C        0.36960    0.37660    0.02110    1.000
    C119     C        0.12700    0.11990    0.01530    1.000
    C120     C        0.16130    0.03890    0.34070    1.000
