# CIF file generated by openbabel 3.1.0, see https://openbabel.org
data_I
_chemical_name_common 'image0'
_cell_length_a 14.6607
_cell_length_b 17.0094
_cell_length_c 9.2069
_cell_angle_alpha 90
_cell_angle_beta 100.892
_cell_angle_gamma 90
_space_group_name_H-M_alt 'P 1'
_space_group_name_Hall 'P 1'
loop_
    _symmetry_equiv_pos_as_xyz
    x,y,z
loop_
    _atom_site_label
    _atom_site_type_symbol
    _atom_site_fract_x
    _atom_site_fract_y
    _atom_site_fract_z
    _atom_site_occupancy
    Zn1      Zn       0.58810    0.50700    0.66211    1.000
    O1       O        0.34060    0.58960    0.24480    1.000
    O2       O        0.41720    0.59010    0.06060    1.000
    C1       C        0.35700    0.61640    0.12560    1.000
    C2       C        0.30220    0.68570    0.06200    1.000
    C3       C        0.31720    0.72060    0.93510    1.000
    H1       H        0.36490    0.70230    0.89040    1.000
    C4       C        0.23620    0.71830    0.12740    1.000
    H2       H        0.22700    0.69840    0.21760    1.000
    Zn2      Zn       0.08810    0.00700    0.66211    1.000
    O3       O        0.84060    0.08960    0.24480    1.000
    O4       O        0.91720    0.09010    0.06060    1.000
    C5       C        0.85700    0.11640    0.12560    1.000
    C6       C        0.80220    0.18570    0.06200    1.000
    C7       C        0.81720    0.22060    0.93510    1.000
    H3       H        0.86490    0.20230    0.89040    1.000
    C8       C        0.73620    0.21830    0.12740    1.000
    H4       H        0.72700    0.19840    0.21760    1.000
    Zn3      Zn       0.41190    0.50700    0.33789    1.000
    O5       O        0.65940    0.58960    0.75520    1.000
    O6       O        0.58280    0.59010    0.93940    1.000
    C9       C        0.64300    0.61640    0.87440    1.000
    C10      C        0.69780    0.68570    0.93800    1.000
    C11      C        0.68280    0.72060    0.06490    1.000
    H5       H        0.63510    0.70230    0.10960    1.000
    C12      C        0.76380    0.71830    0.87260    1.000
    H6       H        0.77300    0.69840    0.78240    1.000
    Zn4      Zn       0.91190    0.00700    0.33789    1.000
    O7       O        0.15940    0.08960    0.75520    1.000
    O8       O        0.08280    0.09010    0.93940    1.000
    C13      C        0.14300    0.11640    0.87440    1.000
    C14      C        0.19780    0.18570    0.93800    1.000
    C15      C        0.18280    0.22060    0.06490    1.000
    H7       H        0.13510    0.20230    0.10960    1.000
    C16      C        0.26380    0.21830    0.87260    1.000
    H8       H        0.27300    0.19840    0.78240    1.000
    Zn5      Zn       0.41190    0.49300    0.33789    1.000
    O9       O        0.65940    0.41040    0.75520    1.000
    O10      O        0.58280    0.40990    0.93940    1.000
    C17      C        0.64300    0.38360    0.87440    1.000
    C18      C        0.69780    0.31430    0.93800    1.000
    C19      C        0.68280    0.27940    0.06490    1.000
    H9       H        0.63510    0.29770    0.10960    1.000
    C20      C        0.76380    0.28170    0.87260    1.000
    H10      H        0.77300    0.30160    0.78240    1.000
    Zn6      Zn       0.91190    0.99300    0.33789    1.000
    O11      O        0.15940    0.91040    0.75520    1.000
    O12      O        0.08280    0.90990    0.93940    1.000
    C21      C        0.14300    0.88360    0.87440    1.000
    C22      C        0.19780    0.81430    0.93800    1.000
    C23      C        0.18280    0.77940    0.06490    1.000
    H11      H        0.13510    0.79770    0.10960    1.000
    C24      C        0.26380    0.78170    0.87260    1.000
    H12      H        0.27300    0.80160    0.78240    1.000
    Zn7      Zn       0.58810    0.49300    0.66211    1.000
    O13      O        0.34060    0.41040    0.24480    1.000
    O14      O        0.41720    0.40990    0.06060    1.000
    C25      C        0.35700    0.38360    0.12560    1.000
    C26      C        0.30220    0.31430    0.06200    1.000
    C27      C        0.31720    0.27940    0.93510    1.000
    H13      H        0.36490    0.29770    0.89040    1.000
    C28      C        0.23620    0.28170    0.12740    1.000
    H14      H        0.22700    0.30160    0.21760    1.000
    Zn8      Zn       0.08810    0.99300    0.66211    1.000
    O15      O        0.84060    0.91040    0.24480    1.000
    O16      O        0.91720    0.90990    0.06060    1.000
    C29      C        0.85700    0.88360    0.12560    1.000
    C30      C        0.80220    0.81430    0.06200    1.000
    C31      C        0.81720    0.77940    0.93510    1.000
    H15      H        0.86490    0.79770    0.89040    1.000
    C32      C        0.73620    0.78170    0.12740    1.000
    H16      H        0.72700    0.80160    0.21760    1.000
    Zn9      Zn       0.50000    0.50000    0.00000    1.000
    Zn10     Zn       0.00000    0.00000    0.00000    1.000
    N1       N        0.45160    0.50000    0.66800    1.000
    N2       N        0.41530    0.50000    0.78680    1.000
    N3       N        0.38920    0.50000    0.54500    1.000
    C33      C        0.32250    0.50000    0.73950    1.000
    C34      C        0.30470    0.50000    0.58560    1.000
    C35      C        0.24660    0.50000    0.81650    1.000
    H17      H        0.25590    0.50000    0.91920    1.000
    C36      C        0.16340    0.50000    0.73500    1.000
    H18      H        0.11300    0.50000    0.78250    1.000
    C37      C        0.21780    0.50000    0.50200    1.000
    H19      H        0.20810    0.50000    0.39920    1.000
    C38      C        0.14480    0.50000    0.57700    1.000
    H20      H        0.08390    0.50000    0.52470    1.000
    N4       N        0.95160    0.00000    0.66800    1.000
    N5       N        0.91530    0.00000    0.78680    1.000
    N6       N        0.88920    0.00000    0.54500    1.000
    C39      C        0.82250    0.00000    0.73950    1.000
    C40      C        0.80470    0.00000    0.58560    1.000
    C41      C        0.74660    0.00000    0.81650    1.000
    H21      H        0.75590    0.00000    0.91920    1.000
    C42      C        0.66340    0.00000    0.73500    1.000
    H22      H        0.61300    0.00000    0.78250    1.000
    C43      C        0.71780    0.00000    0.50200    1.000
    H23      H        0.70810    0.00000    0.39920    1.000
    C44      C        0.64480    0.00000    0.57700    1.000
    H24      H        0.58390    0.00000    0.52470    1.000
    N7       N        0.54840    0.50000    0.33200    1.000
    N8       N        0.58470    0.50000    0.21320    1.000
    N9       N        0.61080    0.50000    0.45500    1.000
    C45      C        0.67750    0.50000    0.26050    1.000
    C46      C        0.69530    0.50000    0.41440    1.000
    C47      C        0.75340    0.50000    0.18350    1.000
    H25      H        0.74410    0.50000    0.08080    1.000
    C48      C        0.83660    0.50000    0.26500    1.000
    H26      H        0.88700    0.50000    0.21750    1.000
    C49      C        0.78220    0.50000    0.49800    1.000
    H27      H        0.79190    0.50000    0.60080    1.000
    C50      C        0.85520    0.50000    0.42300    1.000
    H28      H        0.91610    0.50000    0.47530    1.000
    N10      N        0.04840    0.00000    0.33200    1.000
    N11      N        0.08470    0.00000    0.21320    1.000
    N12      N        0.11080    0.00000    0.45500    1.000
    C51      C        0.17750    0.00000    0.26050    1.000
    C52      C        0.19530    0.00000    0.41440    1.000
    C53      C        0.25340    0.00000    0.18350    1.000
    H29      H        0.24410    0.00000    0.08080    1.000
    C54      C        0.33660    0.00000    0.26500    1.000
    H30      H        0.38700    0.00000    0.21750    1.000
    C55      C        0.28220    0.00000    0.49800    1.000
    H31      H        0.29190    0.00000    0.60080    1.000
    C56      C        0.35520    0.00000    0.42300    1.000
    H32      H        0.41610    0.00000    0.47530    1.000
