# CIF file generated by openbabel 3.1.0, see https://openbabel.org
data_I
_chemical_name_common 'image0'
_cell_length_a 6.173
_cell_length_b 9.045
_cell_length_c 14.654
_cell_angle_alpha 90
_cell_angle_beta 93.92
_cell_angle_gamma 90
_space_group_name_H-M_alt 'P 1'
_space_group_name_Hall 'P 1'
loop_
    _symmetry_equiv_pos_as_xyz
    x,y,z
loop_
    _atom_site_label
    _atom_site_type_symbol
    _atom_site_fract_x
    _atom_site_fract_y
    _atom_site_fract_z
    _atom_site_occupancy
    C1       C        0.90350    0.76890    0.18590    1.000
    C2       C        0.88530    0.75210    0.08150    1.000
    C3       C        0.59280    0.21920    0.10570    1.000
    C4       C        0.71560    0.35540    0.08420    1.000
    Er1      Er       0.07660    0.08000    0.11440    1.000
    O1       O        0.86040    0.65940    0.23440    1.000
    O2       O        0.96750    0.89300    0.21510    1.000
    O3       O        0.95520    0.87750    0.03640    1.000
    O4       O        0.39260    0.22670    0.10180    1.000
    O5       O        0.70600    0.11500    0.12470    1.000
    O6       O        0.94550    0.33880    0.10640    1.000
    C5       C        0.09650    0.26890    0.31410    1.000
    C6       C        0.11470    0.25210    0.41850    1.000
    C7       C        0.40720    0.71920    0.39430    1.000
    C8       C        0.28440    0.85540    0.41580    1.000
    Er2      Er       0.92340    0.58000    0.38560    1.000
    O7       O        0.13960    0.15940    0.26560    1.000
    O8       O        0.03250    0.39300    0.28490    1.000
    O9       O        0.04480    0.37750    0.46360    1.000
    O10      O        0.60740    0.72670    0.39820    1.000
    O11      O        0.29400    0.61500    0.37530    1.000
    O12      O        0.05450    0.83880    0.39360    1.000
    C9       C        0.09650    0.23110    0.81410    1.000
    C10      C        0.11470    0.24790    0.91850    1.000
    C11      C        0.40720    0.78080    0.89430    1.000
    C12      C        0.28440    0.64460    0.91580    1.000
    Er3      Er       0.92340    0.92000    0.88560    1.000
    O13      O        0.13960    0.34060    0.76560    1.000
    O14      O        0.03250    0.10700    0.78490    1.000
    O15      O        0.04480    0.12250    0.96360    1.000
    O16      O        0.60740    0.77330    0.89820    1.000
    O17      O        0.29400    0.88500    0.87530    1.000
    O18      O        0.05450    0.66120    0.89360    1.000
    C13      C        0.90350    0.73110    0.68590    1.000
    C14      C        0.88530    0.74790    0.58150    1.000
    C15      C        0.59280    0.28080    0.60570    1.000
    C16      C        0.71560    0.14460    0.58420    1.000
    Er4      Er       0.07660    0.42000    0.61440    1.000
    O19      O        0.86040    0.84060    0.73440    1.000
    O20      O        0.96750    0.60700    0.71510    1.000
    O21      O        0.95520    0.62250    0.53640    1.000
    O22      O        0.39260    0.27330    0.60180    1.000
    O23      O        0.70600    0.38500    0.62470    1.000
    O24      O        0.94550    0.16120    0.60640    1.000
