data_functionalizedCrystal
_audit_creation_method	'EQeq! by Chris Wilmer'
_symmetry_space_group_name_H-M	'P1'
_symmetry_Int_Tables_number	1
_symmetry_cell_setting	triclinic
loop_
_symmetry_equiv_pos_as_xyz
  x,y,z
_cell_length_a	9.119
_cell_length_b	9.119
_cell_length_c	14.4941
_cell_angle_alpha	100.224
_cell_angle_beta	100.224
_cell_angle_gamma	115.832
loop_
_atom_site_label
_atom_site_type_symbol
_atom_site_fract_x
_atom_site_fract_y
_atom_site_fract_z
_atom_site_charge
Mof_Gd	Gd	0.74049	0.99049	0.48098	1.652
Mof_Gd	Gd	0.50951	0.75951	0.01902	1.654
Mof_Gd	Gd	0.25951	0.00951	0.51902	1.653
Mof_Gd	Gd	0.49049	0.24049	0.98098	1.655
Mof_H 	H 	0.1792	0.5692	0.4904	0.097
Mof_H 	H 	0.1344	0.5174	0.3768	0.088
Mof_H 	H 	0.3112	0.4212	0.4904	0.096
Mof_H 	H 	0.2424	0.3594	0.3768	0.087
Mof_H 	H 	0.9308	0.3208	0.0096	0.095
Mof_H 	H 	0.9826	0.3656	0.1232	0.085
Mof_H 	H 	0.0788	0.1888	0.0096	0.1
Mof_H 	H 	0.1406	0.2576	0.1232	0.091
Mof_H 	H 	0.8208	0.4308	0.5096	0.097
Mof_H 	H 	0.8656	0.4826	0.6232	0.088
Mof_H 	H 	0.6888	0.5788	0.5096	0.096
Mof_H 	H 	0.7576	0.6406	0.6232	0.087
Mof_H 	H 	0.0692	0.6792	0.9904	0.095
Mof_H 	H 	0.0174	0.6344	0.8768	0.085
Mof_H 	H 	0.9212	0.8112	0.9904	0.1
Mof_H 	H 	0.8594	0.7424	0.8768	0.091
Mof_C 	C 	0.37665	0.69627	0.44172	0.421
Mof_C 	C 	0.21924	0.53968	0.43592	-0.232
Mof_C 	C 	0.06507	0.24545	0.44172	0.416
Mof_C 	C 	0.21668	0.39624	0.43592	-0.226
Mof_C 	C 	0.80373	0.12335	0.05828	0.422
Mof_C 	C 	0.96032	0.28076	0.06408	-0.216
Mof_C 	C 	0.25455	0.43493	0.05828	0.425
Mof_C 	C 	0.10376	0.28332	0.06408	-0.243
Mof_C 	C 	0.62335	0.30373	0.55828	0.421
Mof_C 	C 	0.78076	0.46032	0.56408	-0.232
Mof_C 	C 	0.93493	0.75455	0.55828	0.416
Mof_C 	C 	0.78332	0.60376	0.56408	-0.226
Mof_C 	C 	0.19627	0.87665	0.94172	0.422
Mof_C 	C 	0.03968	0.71924	0.93592	-0.216
Mof_C 	C 	0.74545	0.56507	0.94172	0.425
Mof_C 	C 	0.89624	0.71668	0.93592	-0.243
Mof_C 	C 	0.5748	0.9252	0.25	0.265
Mof_C 	C 	0.6752	0.8248	0.25	0.265
Mof_C 	C 	0.4252	0.0748	0.75	0.265
Mof_C 	C 	0.3248	0.1752	0.75	0.265
Mof_O 	O 	0.50444	0.69246	0.4241	-0.432
Mof_O 	O 	0.37399	0.83409	0.46708	-0.523
Mof_O 	O 	0.5691	0.9919	0.3314	-0.38
Mof_O 	O 	0.91966	0.23164	0.4241	-0.429
Mof_O 	O 	0.09309	0.13299	0.46708	-0.523
Mof_O 	O 	0.7623	0.8395	0.3314	-0.381
Mof_O 	O 	0.80754	0.99556	0.0759	-0.435
Mof_O 	O 	0.66591	0.12601	0.03292	-0.522
Mof_O 	O 	0.5081	0.9309	0.1686	-0.38
Mof_O 	O 	0.26836	0.58034	0.0759	-0.434
Mof_O 	O 	0.36701	0.40691	0.03292	-0.524
Mof_O 	O 	0.6605	0.7377	0.1686	-0.38
Mof_O 	O 	0.49556	0.30754	0.5759	-0.432
Mof_O 	O 	0.62601	0.16591	0.53292	-0.523
Mof_O 	O 	0.4309	0.0081	0.6686	-0.38
Mof_O 	O 	0.08034	0.76836	0.5759	-0.429
Mof_O 	O 	0.90691	0.86701	0.53292	-0.523
Mof_O 	O 	0.2377	0.1605	0.6686	-0.381
Mof_O 	O 	0.19246	0.00444	0.9241	-0.435
Mof_O 	O 	0.33409	0.87399	0.96708	-0.522
Mof_O 	O 	0.4919	0.0691	0.8314	-0.38
Mof_O 	O 	0.73164	0.41966	0.9241	-0.434
Mof_O 	O 	0.63299	0.59309	0.96708	-0.524
Mof_O 	O 	0.3395	0.2623	0.8314	-0.38
_end
