# CIF file generated by openbabel 3.1.0, see https://openbabel.org
data_I
_chemical_name_common 'image0'
_cell_length_a 13.056
_cell_length_b 22.964
_cell_length_c 11.808
_cell_angle_alpha 90
_cell_angle_beta 91.941
_cell_angle_gamma 90
_space_group_name_H-M_alt 'P 1'
_space_group_name_Hall 'P 1'
loop_
    _symmetry_equiv_pos_as_xyz
    x,y,z
loop_
    _atom_site_label
    _atom_site_type_symbol
    _atom_site_fract_x
    _atom_site_fract_y
    _atom_site_fract_z
    _atom_site_occupancy
    Ag1      Ag       0.88322    0.29892    0.60987    1.000
    Ag2      Ag       0.24034    0.28860    0.27307    1.000
    N1       N        0.47870    0.47100    0.83080    1.000
    N2       N        0.41630    0.45710    0.66620    1.000
    N3       N        0.51290    0.44280    0.65500    1.000
    N4       N        0.14180    0.37550    0.44780    1.000
    N5       N        0.00730    0.32880    0.50630    1.000
    N6       N        0.14980    0.32080    0.40520    1.000
    C1       C        0.22230    0.42030    0.43670    1.000
    H1       H        0.19180    0.45880    0.43710    1.000
    H2       H        0.25650    0.41520    0.36580    1.000
    C2       C        0.29970    0.41400    0.53660    1.000
    H3       H        0.26370    0.40260    0.60360    1.000
    H4       H        0.34810    0.38340    0.51980    1.000
    C3       C        0.54570    0.44960    0.75600    1.000
    H5       H        0.38720    0.55970    0.22140    1.000
    C4       C        0.35480    0.46700    0.55990    1.000
    H6       H        0.69240    0.50090    0.43080    1.000
    H7       H        0.60070    0.52380    0.50190    1.000
    C5       C        0.05760    0.38010    0.50740    1.000
    H8       H        0.03650    0.41370    0.54420    1.000
    C6       C        0.60080    0.52630    0.23240    1.000
    H9       H        0.66430    0.51390    0.20850    1.000
    C7       C        0.06910    0.29560    0.44280    1.000
    H10      H        0.05430    0.25670    0.42700    1.000
    C8       C        0.82760    0.26810    0.86240    1.000
    H11      H        0.86840    0.29900    0.88800    1.000
    C9       C        0.74680    0.21280    0.75490    1.000
    H12      H        0.71680    0.19500    0.69120    1.000
    H13      H        0.67120    0.11600    0.84020    1.000
    H14      H        0.71440    0.12810    0.96350    1.000
    H15      H        0.53320    0.12910    0.95810    1.000
    H16      H        0.53340    0.18040    0.87040    1.000
    N7       N        0.80530    0.25950    0.75200    1.000
    H17      H        0.60550    0.18690    0.09460    1.000
    H18      H        0.61880    0.23760    0.00770    1.000
    H19      H        0.28050    0.29980    0.00400    1.000
    C10      C        0.43010    0.23210    0.15810    1.000
    H20      H        0.45540    0.21580    0.22550    1.000
    N8       N        0.21080    0.76870    0.06950    1.000
    N9       N        0.26370    0.80530    0.14260    1.000
    C11      C        0.32240    0.85470    0.10080    1.000
    C12      C        0.42950    0.83660    0.06510    1.000
    C13      C        0.42550    0.79440    0.97180    1.000
    N10      N        0.52580    0.77050    0.94170    1.000
    N11      N        0.58510    0.74200    0.01680    1.000
    C14      C        0.66590    0.72180    0.96340    1.000
    N12      N        0.65650    0.73780    0.85530    1.000
    Ag3      Ag       0.11678    0.70108    0.39013    1.000
    Ag4      Ag       0.75966    0.71140    0.72693    1.000
    N13      N        0.52130    0.52900    0.16920    1.000
    N14      N        0.58370    0.54290    0.33380    1.000
    N15      N        0.48710    0.55720    0.34500    1.000
    N16      N        0.85820    0.62450    0.55220    1.000
    N17      N        0.99270    0.67120    0.49370    1.000
    N18      N        0.85020    0.67920    0.59480    1.000
    C15      C        0.77770    0.57970    0.56330    1.000
    H21      H        0.80820    0.54120    0.56290    1.000
    H22      H        0.74350    0.58480    0.63420    1.000
    C16      C        0.70030    0.58600    0.46340    1.000
    H23      H        0.73630    0.59740    0.39640    1.000
    H24      H        0.65190    0.61660    0.48020    1.000
    C17      C        0.45430    0.55040    0.24400    1.000
    H25      H        0.61280    0.44030    0.77860    1.000
    C18      C        0.64520    0.53300    0.44010    1.000
    H26      H        0.30760    0.49910    0.56920    1.000
    H27      H        0.39930    0.47620    0.49810    1.000
    C19      C        0.94240    0.61990    0.49260    1.000
    H28      H        0.96350    0.58630    0.45580    1.000
    C20      C        0.39920    0.47370    0.76760    1.000
    H29      H        0.33570    0.48610    0.79150    1.000
    C21      C        0.93090    0.70440    0.55720    1.000
    H30      H        0.94570    0.74330    0.57300    1.000
    C22      C        0.17240    0.73190    0.13760    1.000
    H31      H        0.13160    0.70100    0.11200    1.000
    C23      C        0.25320    0.78720    0.24510    1.000
    H32      H        0.28320    0.80500    0.30880    1.000
    H33      H        0.32880    0.88400    0.15980    1.000
    H34      H        0.28560    0.87190    0.03650    1.000
    H35      H        0.46680    0.87090    0.04190    1.000
    H36      H        0.46660    0.81960    0.12960    1.000
    N19      N        0.19470    0.74050    0.24800    1.000
    H37      H        0.39450    0.81310    0.90540    1.000
    H38      H        0.38120    0.76240    0.99230    1.000
    H39      H        0.71950    0.70020    0.99600    1.000
    C24      C        0.56990    0.76790    0.84190    1.000
    H40      H        0.54460    0.78420    0.77450    1.000
    N20      N        0.78920    0.23130    0.93050    1.000
    N21      N        0.73630    0.19470    0.85740    1.000
    C25      C        0.67760    0.14530    0.89920    1.000
    C26      C        0.57050    0.16340    0.93490    1.000
    C27      C        0.57450    0.20560    0.02820    1.000
    N22      N        0.47420    0.22950    0.05830    1.000
    N23      N        0.41490    0.25800    0.98320    1.000
    C28      C        0.33410    0.27820    0.03660    1.000
    N24      N        0.34350    0.26220    0.14470    1.000
    Ag5      Ag       0.50000    0.50000    0.00000    1.000
    N25      N        0.78920    0.26870    0.43050    1.000
    N26      N        0.73630    0.30530    0.35740    1.000
    C29      C        0.67760    0.35470    0.39920    1.000
    C30      C        0.57050    0.33660    0.43490    1.000
    C31      C        0.57450    0.29440    0.52820    1.000
    N27      N        0.47420    0.27050    0.55830    1.000
    N28      N        0.41490    0.24200    0.48320    1.000
    C32      C        0.33410    0.22180    0.53660    1.000
    N29      N        0.34350    0.23780    0.64470    1.000
    Ag6      Ag       0.11678    0.79892    0.89013    1.000
    Ag7      Ag       0.75966    0.78860    0.22693    1.000
    N30      N        0.52130    0.97100    0.66920    1.000
    N31      N        0.58370    0.95710    0.83380    1.000
    N32      N        0.48710    0.94280    0.84500    1.000
    N33      N        0.85820    0.87550    0.05220    1.000
    N34      N        0.99270    0.82880    0.99370    1.000
    N35      N        0.85020    0.82080    0.09480    1.000
    C33      C        0.77770    0.92030    0.06330    1.000
    H41      H        0.80820    0.95880    0.06290    1.000
    H42      H        0.74350    0.91520    0.13420    1.000
    C34      C        0.70030    0.91400    0.96340    1.000
    H43      H        0.73630    0.90260    0.89640    1.000
    H44      H        0.65190    0.88340    0.98020    1.000
    C35      C        0.45430    0.94960    0.74400    1.000
    H45      H        0.61280    0.05970    0.27860    1.000
    C36      C        0.64520    0.96700    0.94010    1.000
    H46      H        0.30760    0.00090    0.06920    1.000
    H47      H        0.39930    0.02380    0.99810    1.000
    C37      C        0.94240    0.88010    0.99260    1.000
    H48      H        0.96350    0.91370    0.95580    1.000
    C38      C        0.39920    0.02630    0.26760    1.000
    H49      H        0.33570    0.01390    0.29150    1.000
    C39      C        0.93090    0.79560    0.05720    1.000
    H50      H        0.94570    0.75670    0.07300    1.000
    C40      C        0.17240    0.76810    0.63760    1.000
    H51      H        0.13160    0.79900    0.61200    1.000
    C41      C        0.25320    0.71280    0.74510    1.000
    H52      H        0.28320    0.69500    0.80880    1.000
    H53      H        0.32880    0.61600    0.65980    1.000
    H54      H        0.28560    0.62810    0.53650    1.000
    H55      H        0.46680    0.62910    0.54190    1.000
    H56      H        0.46660    0.68040    0.62960    1.000
    N36      N        0.19470    0.75950    0.74800    1.000
    H57      H        0.39450    0.68690    0.40540    1.000
    H58      H        0.38120    0.73760    0.49230    1.000
    H59      H        0.71950    0.79980    0.49600    1.000
    C42      C        0.56990    0.73210    0.34190    1.000
    H60      H        0.54460    0.71580    0.27450    1.000
    N37      N        0.21080    0.73130    0.56950    1.000
    N38      N        0.26370    0.69470    0.64260    1.000
    C43      C        0.32240    0.64530    0.60080    1.000
    C44      C        0.42950    0.66340    0.56510    1.000
    C45      C        0.42550    0.70560    0.47180    1.000
    N39      N        0.52580    0.72950    0.44170    1.000
    N40      N        0.58510    0.75800    0.51680    1.000
    C46      C        0.66590    0.77820    0.46340    1.000
    N41      N        0.65650    0.76220    0.35530    1.000
    Ag8      Ag       0.88322    0.20108    0.10987    1.000
    Ag9      Ag       0.24034    0.21140    0.77307    1.000
    N42      N        0.47870    0.02900    0.33080    1.000
    N43      N        0.41630    0.04290    0.16620    1.000
    N44      N        0.51290    0.05720    0.15500    1.000
    N45      N        0.14180    0.12450    0.94780    1.000
    N46      N        0.00730    0.17120    0.00630    1.000
    N47      N        0.14980    0.17920    0.90520    1.000
    C47      C        0.22230    0.07970    0.93670    1.000
    H61      H        0.19180    0.04120    0.93710    1.000
    H62      H        0.25650    0.08480    0.86580    1.000
    C48      C        0.29970    0.08600    0.03660    1.000
    H63      H        0.26370    0.09740    0.10360    1.000
    H64      H        0.34810    0.11660    0.01980    1.000
    C49      C        0.54570    0.05040    0.25600    1.000
    H65      H        0.38720    0.94030    0.72140    1.000
    C50      C        0.35480    0.03300    0.05990    1.000
    H66      H        0.69240    0.99910    0.93080    1.000
    H67      H        0.60070    0.97620    0.00190    1.000
    C51      C        0.05760    0.11990    0.00740    1.000
    H68      H        0.03650    0.08630    0.04420    1.000
    C52      C        0.60080    0.97370    0.73240    1.000
    H69      H        0.66430    0.98610    0.70850    1.000
    C53      C        0.06910    0.20440    0.94280    1.000
    H70      H        0.05430    0.24330    0.92700    1.000
    C54      C        0.82760    0.23190    0.36240    1.000
    H71      H        0.86840    0.20100    0.38800    1.000
    C55      C        0.74680    0.28720    0.25490    1.000
    H72      H        0.71680    0.30500    0.19120    1.000
    H73      H        0.67120    0.38400    0.34020    1.000
    H74      H        0.71440    0.37190    0.46350    1.000
    H75      H        0.53320    0.37090    0.45810    1.000
    H76      H        0.53340    0.31960    0.37040    1.000
    N48      N        0.80530    0.24050    0.25200    1.000
    H77      H        0.60550    0.31310    0.59460    1.000
    H78      H        0.61880    0.26240    0.50770    1.000
    H79      H        0.28050    0.20020    0.50400    1.000
    C56      C        0.43010    0.26790    0.65810    1.000
    H80      H        0.45540    0.28420    0.72550    1.000
    Ag10     Ag       0.50000    0.00000    0.50000    1.000
