# CIF file generated by openbabel 3.1.0, see https://openbabel.org
data_I
_chemical_name_common 'image0'
_cell_length_a 14.1129
_cell_length_b 14.7903
_cell_length_c 21.1602
_cell_angle_alpha 90
_cell_angle_beta 107.645
_cell_angle_gamma 90
_space_group_name_H-M_alt 'P 1'
_space_group_name_Hall 'P 1'
loop_
    _symmetry_equiv_pos_as_xyz
    x,y,z
loop_
    _atom_site_label
    _atom_site_type_symbol
    _atom_site_fract_x
    _atom_site_fract_y
    _atom_site_fract_z
    _atom_site_occupancy
    Cd1      Cd       0.92195    0.56246    0.31704    1.000
    Cd2      Cd       0.28544    0.06477    0.55116    1.000
    O1       O        0.17720    0.18010    0.53430    1.000
    O2       O        0.15450    0.32420    0.50270    1.000
    O3       O        0.41980    0.91020    0.29830    1.000
    O4       O        0.56460    0.94450    0.36920    1.000
    O5       O        0.75910    0.55730    0.31890    1.000
    C1       C        0.50350    0.88680    0.33730    1.000
    C2       C        0.37000    0.81810    0.41580    1.000
    H1       H        0.42650    0.85210    0.43600    1.000
    C3       C        0.46930    0.72230    0.35940    1.000
    C4       C        0.19650    0.78620    0.39950    1.000
    H2       H        0.13770    0.79840    0.40920    1.000
    C5       C        0.28060    0.83830    0.42790    1.000
    C6       C        0.37550    0.74810    0.37410    1.000
    C7       C        0.53010    0.78790    0.34230    1.000
    C8       C        0.61990    0.76100    0.33270    1.000
    H3       H        0.66190    0.80450    0.32390    1.000
    C9       C        0.28930    0.69820    0.34440    1.000
    H4       H        0.29150    0.65160    0.31550    1.000
    C10      C        0.20010    0.71690    0.35730    1.000
    C11      C        0.11130    0.65790    0.32590    1.000
    C12      C        0.64730    0.67010    0.33600    1.000
    C13      C        0.27410    0.91730    0.47160    1.000
    C14      C        0.49940    0.63150    0.36340    1.000
    H5       H        0.45960    0.58750    0.37380    1.000
    C15      C        0.58590    0.60670    0.35220    1.000
    H6       H        0.60410    0.54600    0.35550    1.000
    O6       O        0.19190    0.94680    0.47490    1.000
    O7       O        0.12230    0.58900    0.29550    1.000
    O8       O        0.02960    0.68070    0.33500    1.000
    O9       O        0.35390    0.95780    0.50090    1.000
    C16      C        0.20080    0.25120    0.51060    1.000
    O10      O        0.80630    0.70230    0.32310    1.000
    C17      C        0.74390    0.64230    0.32560    1.000
    Cd3      Cd       0.42195    0.06246    0.31704    1.000
    Cd4      Cd       0.78544    0.56477    0.55116    1.000
    O11      O        0.67720    0.68010    0.53430    1.000
    O12      O        0.65450    0.82420    0.50270    1.000
    O13      O        0.91980    0.41020    0.29830    1.000
    O14      O        0.06460    0.44450    0.36920    1.000
    O15      O        0.25910    0.05730    0.31890    1.000
    C18      C        0.00350    0.38680    0.33730    1.000
    C19      C        0.87000    0.31810    0.41580    1.000
    H7       H        0.92650    0.35210    0.43600    1.000
    C20      C        0.96930    0.22230    0.35940    1.000
    C21      C        0.69650    0.28620    0.39950    1.000
    H8       H        0.63770    0.29840    0.40920    1.000
    C22      C        0.78060    0.33830    0.42790    1.000
    C23      C        0.87550    0.24810    0.37410    1.000
    C24      C        0.03010    0.28790    0.34230    1.000
    C25      C        0.11990    0.26100    0.33270    1.000
    H9       H        0.16190    0.30450    0.32390    1.000
    C26      C        0.78930    0.19820    0.34440    1.000
    H10      H        0.79150    0.15160    0.31550    1.000
    C27      C        0.70010    0.21690    0.35730    1.000
    C28      C        0.61130    0.15790    0.32590    1.000
    C29      C        0.14730    0.17010    0.33600    1.000
    C30      C        0.77410    0.41730    0.47160    1.000
    C31      C        0.99940    0.13150    0.36340    1.000
    H11      H        0.95960    0.08750    0.37380    1.000
    C32      C        0.08590    0.10670    0.35220    1.000
    H12      H        0.10410    0.04600    0.35550    1.000
    O16      O        0.69190    0.44680    0.47490    1.000
    O17      O        0.62230    0.08900    0.29550    1.000
    O18      O        0.52960    0.18070    0.33500    1.000
    O19      O        0.85390    0.45780    0.50090    1.000
    C33      C        0.70080    0.75120    0.51060    1.000
    O20      O        0.30630    0.20230    0.32310    1.000
    C34      C        0.24390    0.14230    0.32560    1.000
    Cd5      Cd       0.07805    0.56246    0.18296    1.000
    Cd6      Cd       0.71456    0.06477    0.94884    1.000
    O21      O        0.82280    0.18010    0.96570    1.000
    O22      O        0.84550    0.32420    0.99730    1.000
    O23      O        0.58020    0.91020    0.20170    1.000
    O24      O        0.43540    0.94450    0.13080    1.000
    O25      O        0.24090    0.55730    0.18110    1.000
    C35      C        0.49650    0.88680    0.16270    1.000
    C36      C        0.63000    0.81810    0.08420    1.000
    H13      H        0.57350    0.85210    0.06400    1.000
    C37      C        0.53070    0.72230    0.14060    1.000
    C38      C        0.80350    0.78620    0.10050    1.000
    H14      H        0.86230    0.79840    0.09080    1.000
    C39      C        0.71940    0.83830    0.07210    1.000
    C40      C        0.62450    0.74810    0.12590    1.000
    C41      C        0.46990    0.78790    0.15770    1.000
    C42      C        0.38010    0.76100    0.16730    1.000
    H15      H        0.33810    0.80450    0.17610    1.000
    C43      C        0.71070    0.69820    0.15560    1.000
    H16      H        0.70850    0.65160    0.18450    1.000
    C44      C        0.79990    0.71690    0.14270    1.000
    C45      C        0.88870    0.65790    0.17410    1.000
    C46      C        0.35270    0.67010    0.16400    1.000
    C47      C        0.72590    0.91730    0.02840    1.000
    C48      C        0.50060    0.63150    0.13660    1.000
    H17      H        0.54040    0.58750    0.12620    1.000
    C49      C        0.41410    0.60670    0.14780    1.000
    H18      H        0.39590    0.54600    0.14450    1.000
    O26      O        0.80810    0.94680    0.02510    1.000
    O27      O        0.87770    0.58900    0.20450    1.000
    O28      O        0.97040    0.68070    0.16500    1.000
    O29      O        0.64610    0.95780    0.99910    1.000
    C50      C        0.79920    0.25120    0.98940    1.000
    O30      O        0.19370    0.70230    0.17690    1.000
    C51      C        0.25610    0.64230    0.17440    1.000
    Cd7      Cd       0.57805    0.06246    0.18296    1.000
    Cd8      Cd       0.21456    0.56477    0.94884    1.000
    O31      O        0.32280    0.68010    0.96570    1.000
    O32      O        0.34550    0.82420    0.99730    1.000
    O33      O        0.08020    0.41020    0.20170    1.000
    O34      O        0.93540    0.44450    0.13080    1.000
    O35      O        0.74090    0.05730    0.18110    1.000
    C52      C        0.99650    0.38680    0.16270    1.000
    C53      C        0.13000    0.31810    0.08420    1.000
    H19      H        0.07350    0.35210    0.06400    1.000
    C54      C        0.03070    0.22230    0.14060    1.000
    C55      C        0.30350    0.28620    0.10050    1.000
    H20      H        0.36230    0.29840    0.09080    1.000
    C56      C        0.21940    0.33830    0.07210    1.000
    C57      C        0.12450    0.24810    0.12590    1.000
    C58      C        0.96990    0.28790    0.15770    1.000
    C59      C        0.88010    0.26100    0.16730    1.000
    H21      H        0.83810    0.30450    0.17610    1.000
    C60      C        0.21070    0.19820    0.15560    1.000
    H22      H        0.20850    0.15160    0.18450    1.000
    C61      C        0.29990    0.21690    0.14270    1.000
    C62      C        0.38870    0.15790    0.17410    1.000
    C63      C        0.85270    0.17010    0.16400    1.000
    C64      C        0.22590    0.41730    0.02840    1.000
    C65      C        0.00060    0.13150    0.13660    1.000
    H23      H        0.04040    0.08750    0.12620    1.000
    C66      C        0.91410    0.10670    0.14780    1.000
    H24      H        0.89590    0.04600    0.14450    1.000
    O36      O        0.30810    0.44680    0.02510    1.000
    O37      O        0.37770    0.08900    0.20450    1.000
    O38      O        0.47040    0.18070    0.16500    1.000
    O39      O        0.14610    0.45780    0.99910    1.000
    C67      C        0.29920    0.75120    0.98940    1.000
    O40      O        0.69370    0.20230    0.17690    1.000
    C68      C        0.75610    0.14230    0.17440    1.000
    Cd9      Cd       0.07805    0.43754    0.68296    1.000
    Cd10     Cd       0.71456    0.93523    0.44884    1.000
    O41      O        0.82280    0.81990    0.46570    1.000
    O42      O        0.84550    0.67580    0.49730    1.000
    O43      O        0.58020    0.08980    0.70170    1.000
    O44      O        0.43540    0.05550    0.63080    1.000
    O45      O        0.24090    0.44270    0.68110    1.000
    C69      C        0.49650    0.11320    0.66270    1.000
    C70      C        0.63000    0.18190    0.58420    1.000
    H25      H        0.57350    0.14790    0.56400    1.000
    C71      C        0.53070    0.27770    0.64060    1.000
    C72      C        0.80350    0.21380    0.60050    1.000
    H26      H        0.86230    0.20160    0.59080    1.000
    C73      C        0.71940    0.16170    0.57210    1.000
    C74      C        0.62450    0.25190    0.62590    1.000
    C75      C        0.46990    0.21210    0.65770    1.000
    C76      C        0.38010    0.23900    0.66730    1.000
    H27      H        0.33810    0.19550    0.67610    1.000
    C77      C        0.71070    0.30180    0.65560    1.000
    H28      H        0.70850    0.34840    0.68450    1.000
    C78      C        0.79990    0.28310    0.64270    1.000
    C79      C        0.88870    0.34210    0.67410    1.000
    C80      C        0.35270    0.32990    0.66400    1.000
    C81      C        0.72590    0.08270    0.52840    1.000
    C82      C        0.50060    0.36850    0.63660    1.000
    H29      H        0.54040    0.41250    0.62620    1.000
    C83      C        0.41410    0.39330    0.64780    1.000
    H30      H        0.39590    0.45400    0.64450    1.000
    O46      O        0.80810    0.05320    0.52510    1.000
    O47      O        0.87770    0.41100    0.70450    1.000
    O48      O        0.97040    0.31930    0.66500    1.000
    O49      O        0.64610    0.04220    0.49910    1.000
    C84      C        0.79920    0.74880    0.48940    1.000
    O50      O        0.19370    0.29770    0.67690    1.000
    C85      C        0.25610    0.35770    0.67440    1.000
    Cd11     Cd       0.57805    0.93754    0.68296    1.000
    Cd12     Cd       0.21456    0.43523    0.44884    1.000
    O51      O        0.32280    0.31990    0.46570    1.000
    O52      O        0.34550    0.17580    0.49730    1.000
    O53      O        0.08020    0.58980    0.70170    1.000
    O54      O        0.93540    0.55550    0.63080    1.000
    O55      O        0.74090    0.94270    0.68110    1.000
    C86      C        0.99650    0.61320    0.66270    1.000
    C87      C        0.13000    0.68190    0.58420    1.000
    H31      H        0.07350    0.64790    0.56400    1.000
    C88      C        0.03070    0.77770    0.64060    1.000
    C89      C        0.30350    0.71380    0.60050    1.000
    H32      H        0.36230    0.70160    0.59080    1.000
    C90      C        0.21940    0.66170    0.57210    1.000
    C91      C        0.12450    0.75190    0.62590    1.000
    C92      C        0.96990    0.71210    0.65770    1.000
    C93      C        0.88010    0.73900    0.66730    1.000
    H33      H        0.83810    0.69550    0.67610    1.000
    C94      C        0.21070    0.80180    0.65560    1.000
    H34      H        0.20850    0.84840    0.68450    1.000
    C95      C        0.29990    0.78310    0.64270    1.000
    C96      C        0.38870    0.84210    0.67410    1.000
    C97      C        0.85270    0.82990    0.66400    1.000
    C98      C        0.22590    0.58270    0.52840    1.000
    C99      C        0.00060    0.86850    0.63660    1.000
    H35      H        0.04040    0.91250    0.62620    1.000
    C100     C        0.91410    0.89330    0.64780    1.000
    H36      H        0.89590    0.95400    0.64450    1.000
    O56      O        0.30810    0.55320    0.52510    1.000
    O57      O        0.37770    0.91100    0.70450    1.000
    O58      O        0.47040    0.81930    0.66500    1.000
    O59      O        0.14610    0.54220    0.49910    1.000
    C101     C        0.29920    0.24880    0.48940    1.000
    O60      O        0.69370    0.79770    0.67690    1.000
    C102     C        0.75610    0.85770    0.67440    1.000
    Cd13     Cd       0.92195    0.43754    0.81704    1.000
    Cd14     Cd       0.28544    0.93523    0.05116    1.000
    O61      O        0.17720    0.81990    0.03430    1.000
    O62      O        0.15450    0.67580    0.00270    1.000
    O63      O        0.41980    0.08980    0.79830    1.000
    O64      O        0.56460    0.05550    0.86920    1.000
    O65      O        0.75910    0.44270    0.81890    1.000
    C103     C        0.50350    0.11320    0.83730    1.000
    C104     C        0.37000    0.18190    0.91580    1.000
    H37      H        0.42650    0.14790    0.93600    1.000
    C105     C        0.46930    0.27770    0.85940    1.000
    C106     C        0.19650    0.21380    0.89950    1.000
    H38      H        0.13770    0.20160    0.90920    1.000
    C107     C        0.28060    0.16170    0.92790    1.000
    C108     C        0.37550    0.25190    0.87410    1.000
    C109     C        0.53010    0.21210    0.84230    1.000
    C110     C        0.61990    0.23900    0.83270    1.000
    H39      H        0.66190    0.19550    0.82390    1.000
    C111     C        0.28930    0.30180    0.84440    1.000
    H40      H        0.29150    0.34840    0.81550    1.000
    C112     C        0.20010    0.28310    0.85730    1.000
    C113     C        0.11130    0.34210    0.82590    1.000
    C114     C        0.64730    0.32990    0.83600    1.000
    C115     C        0.27410    0.08270    0.97160    1.000
    C116     C        0.49940    0.36850    0.86340    1.000
    H41      H        0.45960    0.41250    0.87380    1.000
    C117     C        0.58590    0.39330    0.85220    1.000
    H42      H        0.60410    0.45400    0.85550    1.000
    O66      O        0.19190    0.05320    0.97490    1.000
    O67      O        0.12230    0.41100    0.79550    1.000
    O68      O        0.02960    0.31930    0.83500    1.000
    O69      O        0.35390    0.04220    0.00090    1.000
    C118     C        0.20080    0.74880    0.01060    1.000
    O70      O        0.80630    0.29770    0.82310    1.000
    C119     C        0.74390    0.35770    0.82560    1.000
    Cd15     Cd       0.42195    0.93754    0.81704    1.000
    Cd16     Cd       0.78544    0.43523    0.05116    1.000
    O71      O        0.67720    0.31990    0.03430    1.000
    O72      O        0.65450    0.17580    0.00270    1.000
    O73      O        0.91980    0.58980    0.79830    1.000
    O74      O        0.06460    0.55550    0.86920    1.000
    O75      O        0.25910    0.94270    0.81890    1.000
    C120     C        0.00350    0.61320    0.83730    1.000
    C121     C        0.87000    0.68190    0.91580    1.000
    H43      H        0.92650    0.64790    0.93600    1.000
    C122     C        0.96930    0.77770    0.85940    1.000
    C123     C        0.69650    0.71380    0.89950    1.000
    H44      H        0.63770    0.70160    0.90920    1.000
    C124     C        0.78060    0.66170    0.92790    1.000
    C125     C        0.87550    0.75190    0.87410    1.000
    C126     C        0.03010    0.71210    0.84230    1.000
    C127     C        0.11990    0.73900    0.83270    1.000
    H45      H        0.16190    0.69550    0.82390    1.000
    C128     C        0.78930    0.80180    0.84440    1.000
    H46      H        0.79150    0.84840    0.81550    1.000
    C129     C        0.70010    0.78310    0.85730    1.000
    C130     C        0.61130    0.84210    0.82590    1.000
    C131     C        0.14730    0.82990    0.83600    1.000
    C132     C        0.77410    0.58270    0.97160    1.000
    C133     C        0.99940    0.86850    0.86340    1.000
    H47      H        0.95960    0.91250    0.87380    1.000
    C134     C        0.08590    0.89330    0.85220    1.000
    H48      H        0.10410    0.95400    0.85550    1.000
    O76      O        0.69190    0.55320    0.97490    1.000
    O77      O        0.62230    0.91100    0.79550    1.000
    O78      O        0.52960    0.81930    0.83500    1.000
    O79      O        0.85390    0.54220    0.00090    1.000
    C135     C        0.70080    0.24880    0.01060    1.000
    O80      O        0.30630    0.79770    0.82310    1.000
    C136     C        0.24390    0.85770    0.82560    1.000
