# CIF file generated by openbabel 3.1.0, see https://openbabel.org
data_I
_chemical_name_common 'image0'
_cell_length_a 13.4537
_cell_length_b 13.4537
_cell_length_c 27.329
_cell_angle_alpha 90
_cell_angle_beta 90
_cell_angle_gamma 90
_space_group_name_H-M_alt 'P 1'
_space_group_name_Hall 'P 1'
loop_
    _symmetry_equiv_pos_as_xyz
    x,y,z
loop_
    _atom_site_label
    _atom_site_type_symbol
    _atom_site_fract_x
    _atom_site_fract_y
    _atom_site_fract_z
    _atom_site_occupancy
    O1       O        0.44540    0.13860    0.36757    1.000
    Zn1      Zn       0.52227    0.08925    0.44673    1.000
    N1       N        0.51420    0.23290    0.46533    1.000
    O2       O        0.57510    0.04490    0.38345    1.000
    C1       C        0.51620    0.08460    0.35307    1.000
    C2       C        0.53220    0.06770    0.29987    1.000
    C3       C        0.47920    0.12050    0.26433    1.000
    N2       N        0.40610    0.18180    0.27610    1.000
    H1       H        0.37180    0.21020    0.25350    1.000
    H2       H        0.39280    0.19320    0.30640    1.000
    C4       C        0.60350    0.99900    0.28475    1.000
    H3       H        0.64070    0.96560    0.30820    1.000
    N3       N        0.47450    0.39220    0.46578    1.000
    N4       N        0.53750    0.37570    0.50438    1.000
    C5       C        0.46330    0.30630    0.44389    1.000
    H4       H        0.42400    0.29730    0.41630    1.000
    C6       C        0.56020    0.28070    0.50279    1.000
    H5       H        0.62000    0.25900    0.53000    1.000
    H6       H        0.43110    0.16650    0.27350    1.000
    O3       O        0.05460    0.36140    0.36757    1.000
    Zn2      Zn       0.97773    0.41075    0.44673    1.000
    N5       N        0.98580    0.26710    0.46533    1.000
    O4       O        0.92490    0.45510    0.38345    1.000
    C7       C        0.98380    0.41540    0.35307    1.000
    C8       C        0.96780    0.43230    0.29987    1.000
    C9       C        0.02080    0.37950    0.26433    1.000
    N6       N        0.09390    0.31820    0.27610    1.000
    H7       H        0.12820    0.28980    0.25350    1.000
    H8       H        0.10720    0.30680    0.30640    1.000
    C10      C        0.89650    0.50100    0.28475    1.000
    H9       H        0.85930    0.53440    0.30820    1.000
    N7       N        0.02550    0.10780    0.46578    1.000
    N8       N        0.96250    0.12430    0.50438    1.000
    C11      C        0.03670    0.19370    0.44389    1.000
    H10      H        0.07600    0.20270    0.41630    1.000
    C12      C        0.93980    0.21930    0.50279    1.000
    H11      H        0.88000    0.24100    0.53000    1.000
    H12      H        0.06890    0.33350    0.27350    1.000
    O5       O        0.36140    0.44540    0.36757    1.000
    Zn3      Zn       0.41075    0.52227    0.44673    1.000
    N9       N        0.26710    0.51420    0.46533    1.000
    O6       O        0.45510    0.57510    0.38345    1.000
    C13      C        0.41540    0.51620    0.35307    1.000
    C14      C        0.43230    0.53220    0.29987    1.000
    C15      C        0.37950    0.47920    0.26433    1.000
    N10      N        0.31820    0.40610    0.27610    1.000
    H13      H        0.28980    0.37180    0.25350    1.000
    H14      H        0.30680    0.39280    0.30640    1.000
    C16      C        0.50100    0.60350    0.28475    1.000
    H15      H        0.53440    0.64070    0.30820    1.000
    N11      N        0.10780    0.47450    0.46578    1.000
    N12      N        0.12430    0.53750    0.50438    1.000
    C17      C        0.19370    0.46330    0.44389    1.000
    H16      H        0.20270    0.42400    0.41630    1.000
    C18      C        0.21930    0.56020    0.50279    1.000
    H17      H        0.24100    0.62000    0.53000    1.000
    H18      H        0.33350    0.43110    0.27350    1.000
    O7       O        0.13860    0.05460    0.36757    1.000
    Zn4      Zn       0.08925    0.97773    0.44673    1.000
    N13      N        0.23290    0.98580    0.46533    1.000
    O8       O        0.04490    0.92490    0.38345    1.000
    C19      C        0.08460    0.98380    0.35307    1.000
    C20      C        0.06770    0.96780    0.29987    1.000
    C21      C        0.12050    0.02080    0.26433    1.000
    N14      N        0.18180    0.09390    0.27610    1.000
    H19      H        0.21020    0.12820    0.25350    1.000
    H20      H        0.19320    0.10720    0.30640    1.000
    C22      C        0.99900    0.89650    0.28475    1.000
    H21      H        0.96560    0.85930    0.30820    1.000
    N15      N        0.39220    0.02550    0.46578    1.000
    N16      N        0.37570    0.96250    0.50438    1.000
    C23      C        0.30630    0.03670    0.44389    1.000
    H22      H        0.29730    0.07600    0.41630    1.000
    C24      C        0.28070    0.93980    0.50279    1.000
    H23      H        0.25900    0.88000    0.53000    1.000
    H24      H        0.16650    0.06890    0.27350    1.000
    O9       O        0.55460    0.63860    0.13243    1.000
    Zn5      Zn       0.47773    0.58925    0.05327    1.000
    N17      N        0.48580    0.73290    0.03467    1.000
    O10      O        0.42490    0.54490    0.11655    1.000
    C25      C        0.48380    0.58460    0.14693    1.000
    C26      C        0.46780    0.56770    0.20013    1.000
    C27      C        0.52080    0.62050    0.23567    1.000
    N18      N        0.59390    0.68180    0.22390    1.000
    H25      H        0.62820    0.71020    0.24650    1.000
    H26      H        0.60720    0.69320    0.19360    1.000
    C28      C        0.39650    0.49900    0.21525    1.000
    H27      H        0.35930    0.46560    0.19180    1.000
    N19      N        0.52550    0.89220    0.03422    1.000
    N20      N        0.46250    0.87570    0.99562    1.000
    C29      C        0.53670    0.80630    0.05611    1.000
    H28      H        0.57600    0.79730    0.08370    1.000
    C30      C        0.43980    0.78070    0.99721    1.000
    H29      H        0.38000    0.75900    0.97000    1.000
    H30      H        0.56890    0.66650    0.22650    1.000
    O11      O        0.94540    0.86140    0.13243    1.000
    Zn6      Zn       0.02227    0.91075    0.05327    1.000
    N21      N        0.01420    0.76710    0.03467    1.000
    O12      O        0.07510    0.95510    0.11655    1.000
    C31      C        0.01620    0.91540    0.14693    1.000
    C32      C        0.03220    0.93230    0.20013    1.000
    C33      C        0.97920    0.87950    0.23567    1.000
    N22      N        0.90610    0.81820    0.22390    1.000
    H31      H        0.87180    0.78980    0.24650    1.000
    H32      H        0.89280    0.80680    0.19360    1.000
    C34      C        0.10350    0.00100    0.21525    1.000
    H33      H        0.14070    0.03440    0.19180    1.000
    N23      N        0.97450    0.60780    0.03422    1.000
    N24      N        0.03750    0.62430    0.99562    1.000
    C35      C        0.96330    0.69370    0.05611    1.000
    H34      H        0.92400    0.70270    0.08370    1.000
    C36      C        0.06020    0.71930    0.99721    1.000
    H35      H        0.12000    0.74100    0.97000    1.000
    H36      H        0.93110    0.83350    0.22650    1.000
    O13      O        0.63860    0.94540    0.13243    1.000
    Zn7      Zn       0.58925    0.02227    0.05327    1.000
    N25      N        0.73290    0.01420    0.03467    1.000
    O14      O        0.54490    0.07510    0.11655    1.000
    C37      C        0.58460    0.01620    0.14693    1.000
    C38      C        0.56770    0.03220    0.20013    1.000
    C39      C        0.62050    0.97920    0.23567    1.000
    N26      N        0.68180    0.90610    0.22390    1.000
    H37      H        0.71020    0.87180    0.24650    1.000
    H38      H        0.69320    0.89280    0.19360    1.000
    C40      C        0.49900    0.10350    0.21525    1.000
    H39      H        0.46560    0.14070    0.19180    1.000
    N27      N        0.89220    0.97450    0.03422    1.000
    N28      N        0.87570    0.03750    0.99562    1.000
    C41      C        0.80630    0.96330    0.05611    1.000
    H40      H        0.79730    0.92400    0.08370    1.000
    C42      C        0.78070    0.06020    0.99721    1.000
    H41      H        0.75900    0.12000    0.97000    1.000
    H42      H        0.66650    0.93110    0.22650    1.000
    O15      O        0.86140    0.55460    0.13243    1.000
    Zn8      Zn       0.91075    0.47773    0.05327    1.000
    N29      N        0.76710    0.48580    0.03467    1.000
    O16      O        0.95510    0.42490    0.11655    1.000
    C43      C        0.91540    0.48380    0.14693    1.000
    C44      C        0.93230    0.46780    0.20013    1.000
    C45      C        0.87950    0.52080    0.23567    1.000
    N30      N        0.81820    0.59390    0.22390    1.000
    H43      H        0.78980    0.62820    0.24650    1.000
    H44      H        0.80680    0.60720    0.19360    1.000
    C46      C        0.00100    0.39650    0.21525    1.000
    H45      H        0.03440    0.35930    0.19180    1.000
    N31      N        0.60780    0.52550    0.03422    1.000
    N32      N        0.62430    0.46250    0.99562    1.000
    C47      C        0.69370    0.53670    0.05611    1.000
    H46      H        0.70270    0.57600    0.08370    1.000
    C48      C        0.71930    0.43980    0.99721    1.000
    H47      H        0.74100    0.38000    0.97000    1.000
    H48      H        0.83350    0.56890    0.22650    1.000
    O17      O        0.55460    0.86140    0.63243    1.000
    Zn9      Zn       0.47773    0.91075    0.55327    1.000
    N33      N        0.48580    0.76710    0.53467    1.000
    O18      O        0.42490    0.95510    0.61655    1.000
    C49      C        0.48380    0.91540    0.64693    1.000
    C50      C        0.46780    0.93230    0.70013    1.000
    C51      C        0.52080    0.87950    0.73567    1.000
    N34      N        0.59390    0.81820    0.72390    1.000
    H49      H        0.62820    0.78980    0.74650    1.000
    H50      H        0.60720    0.80680    0.69360    1.000
    C52      C        0.39650    0.00100    0.71525    1.000
    H51      H        0.35930    0.03440    0.69180    1.000
    N35      N        0.52550    0.60780    0.53422    1.000
    N36      N        0.46250    0.62430    0.49562    1.000
    C53      C        0.53670    0.69370    0.55611    1.000
    H52      H        0.57600    0.70270    0.58370    1.000
    C54      C        0.43980    0.71930    0.49721    1.000
    H53      H        0.38000    0.74100    0.47000    1.000
    H54      H        0.56890    0.83350    0.72650    1.000
    O19      O        0.94540    0.63860    0.63243    1.000
    Zn10     Zn       0.02227    0.58925    0.55327    1.000
    N37      N        0.01420    0.73290    0.53467    1.000
    O20      O        0.07510    0.54490    0.61655    1.000
    C55      C        0.01620    0.58460    0.64693    1.000
    C56      C        0.03220    0.56770    0.70013    1.000
    C57      C        0.97920    0.62050    0.73567    1.000
    N38      N        0.90610    0.68180    0.72390    1.000
    H55      H        0.87180    0.71020    0.74650    1.000
    H56      H        0.89280    0.69320    0.69360    1.000
    C58      C        0.10350    0.49900    0.71525    1.000
    H57      H        0.14070    0.46560    0.69180    1.000
    N39      N        0.97450    0.89220    0.53422    1.000
    N40      N        0.03750    0.87570    0.49562    1.000
    C59      C        0.96330    0.80630    0.55611    1.000
    H58      H        0.92400    0.79730    0.58370    1.000
    C60      C        0.06020    0.78070    0.49721    1.000
    H59      H        0.12000    0.75900    0.47000    1.000
    H60      H        0.93110    0.66650    0.72650    1.000
    O21      O        0.63860    0.55460    0.63243    1.000
    Zn11     Zn       0.58925    0.47773    0.55327    1.000
    N41      N        0.73290    0.48580    0.53467    1.000
    O22      O        0.54490    0.42490    0.61655    1.000
    C61      C        0.58460    0.48380    0.64693    1.000
    C62      C        0.56770    0.46780    0.70013    1.000
    C63      C        0.62050    0.52080    0.73567    1.000
    N42      N        0.68180    0.59390    0.72390    1.000
    H61      H        0.71020    0.62820    0.74650    1.000
    H62      H        0.69320    0.60720    0.69360    1.000
    C64      C        0.49900    0.39650    0.71525    1.000
    H63      H        0.46560    0.35930    0.69180    1.000
    N43      N        0.89220    0.52550    0.53422    1.000
    N44      N        0.87570    0.46250    0.49562    1.000
    C65      C        0.80630    0.53670    0.55611    1.000
    H64      H        0.79730    0.57600    0.58370    1.000
    C66      C        0.78070    0.43980    0.49721    1.000
    H65      H        0.75900    0.38000    0.47000    1.000
    H66      H        0.66650    0.56890    0.72650    1.000
    O23      O        0.86140    0.94540    0.63243    1.000
    Zn12     Zn       0.91075    0.02227    0.55327    1.000
    N45      N        0.76710    0.01420    0.53467    1.000
    O24      O        0.95510    0.07510    0.61655    1.000
    C67      C        0.91540    0.01620    0.64693    1.000
    C68      C        0.93230    0.03220    0.70013    1.000
    C69      C        0.87950    0.97920    0.73567    1.000
    N46      N        0.81820    0.90610    0.72390    1.000
    H67      H        0.78980    0.87180    0.74650    1.000
    H68      H        0.80680    0.89280    0.69360    1.000
    C70      C        0.00100    0.10350    0.71525    1.000
    H69      H        0.03440    0.14070    0.69180    1.000
    N47      N        0.60780    0.97450    0.53422    1.000
    N48      N        0.62430    0.03750    0.49562    1.000
    C71      C        0.69370    0.96330    0.55611    1.000
    H70      H        0.70270    0.92400    0.58370    1.000
    C72      C        0.71930    0.06020    0.49721    1.000
    H71      H        0.74100    0.12000    0.47000    1.000
    H72      H        0.83350    0.93110    0.72650    1.000
    O25      O        0.44540    0.36140    0.86757    1.000
    Zn13     Zn       0.52227    0.41075    0.94673    1.000
    N49      N        0.51420    0.26710    0.96533    1.000
    O26      O        0.57510    0.45510    0.88345    1.000
    C73      C        0.51620    0.41540    0.85307    1.000
    C74      C        0.53220    0.43230    0.79987    1.000
    C75      C        0.47920    0.37950    0.76433    1.000
    N50      N        0.40610    0.31820    0.77610    1.000
    H73      H        0.37180    0.28980    0.75350    1.000
    H74      H        0.39280    0.30680    0.80640    1.000
    C76      C        0.60350    0.50100    0.78475    1.000
    H75      H        0.64070    0.53440    0.80820    1.000
    N51      N        0.47450    0.10780    0.96578    1.000
    N52      N        0.53750    0.12430    0.00438    1.000
    C77      C        0.46330    0.19370    0.94389    1.000
    H76      H        0.42400    0.20270    0.91630    1.000
    C78      C        0.56020    0.21930    0.00279    1.000
    H77      H        0.62000    0.24100    0.03000    1.000
    H78      H        0.43110    0.33350    0.77350    1.000
    O27      O        0.05460    0.13860    0.86757    1.000
    Zn14     Zn       0.97773    0.08925    0.94673    1.000
    N53      N        0.98580    0.23290    0.96533    1.000
    O28      O        0.92490    0.04490    0.88345    1.000
    C79      C        0.98380    0.08460    0.85307    1.000
    C80      C        0.96780    0.06770    0.79987    1.000
    C81      C        0.02080    0.12050    0.76433    1.000
    N54      N        0.09390    0.18180    0.77610    1.000
    H79      H        0.12820    0.21020    0.75350    1.000
    H80      H        0.10720    0.19320    0.80640    1.000
    C82      C        0.89650    0.99900    0.78475    1.000
    H81      H        0.85930    0.96560    0.80820    1.000
    N55      N        0.02550    0.39220    0.96578    1.000
    N56      N        0.96250    0.37570    0.00438    1.000
    C83      C        0.03670    0.30630    0.94389    1.000
    H82      H        0.07600    0.29730    0.91630    1.000
    C84      C        0.93980    0.28070    0.00279    1.000
    H83      H        0.88000    0.25900    0.03000    1.000
    H84      H        0.06890    0.16650    0.77350    1.000
    O29      O        0.36140    0.05460    0.86757    1.000
    Zn15     Zn       0.41075    0.97773    0.94673    1.000
    N57      N        0.26710    0.98580    0.96533    1.000
    O30      O        0.45510    0.92490    0.88345    1.000
    C85      C        0.41540    0.98380    0.85307    1.000
    C86      C        0.43230    0.96780    0.79987    1.000
    C87      C        0.37950    0.02080    0.76433    1.000
    N58      N        0.31820    0.09390    0.77610    1.000
    H85      H        0.28980    0.12820    0.75350    1.000
    H86      H        0.30680    0.10720    0.80640    1.000
    C88      C        0.50100    0.89650    0.78475    1.000
    H87      H        0.53440    0.85930    0.80820    1.000
    N59      N        0.10780    0.02550    0.96578    1.000
    N60      N        0.12430    0.96250    0.00438    1.000
    C89      C        0.19370    0.03670    0.94389    1.000
    H88      H        0.20270    0.07600    0.91630    1.000
    C90      C        0.21930    0.93980    0.00279    1.000
    H89      H        0.24100    0.88000    0.03000    1.000
    H90      H        0.33350    0.06890    0.77350    1.000
    O31      O        0.13860    0.44540    0.86757    1.000
    Zn16     Zn       0.08925    0.52227    0.94673    1.000
    N61      N        0.23290    0.51420    0.96533    1.000
    O32      O        0.04490    0.57510    0.88345    1.000
    C91      C        0.08460    0.51620    0.85307    1.000
    C92      C        0.06770    0.53220    0.79987    1.000
    C93      C        0.12050    0.47920    0.76433    1.000
    N62      N        0.18180    0.40610    0.77610    1.000
    H91      H        0.21020    0.37180    0.75350    1.000
    H92      H        0.19320    0.39280    0.80640    1.000
    C94      C        0.99900    0.60350    0.78475    1.000
    H93      H        0.96560    0.64070    0.80820    1.000
    N63      N        0.39220    0.47450    0.96578    1.000
    N64      N        0.37570    0.53750    0.00438    1.000
    C95      C        0.30630    0.46330    0.94389    1.000
    H94      H        0.29730    0.42400    0.91630    1.000
    C96      C        0.28070    0.56020    0.00279    1.000
    H95      H        0.25900    0.62000    0.03000    1.000
    H96      H        0.16650    0.43110    0.77350    1.000
