# CIF file generated by openbabel 3.1.0, see https://openbabel.org
data_I
_chemical_name_common 'image0'
_cell_length_a 9.1291
_cell_length_b 9.5884
_cell_length_c 14.7554
_cell_angle_alpha 100.388
_cell_angle_beta 99.27
_cell_angle_gamma 114.467
_space_group_name_H-M_alt 'P 1'
_space_group_name_Hall 'P 1'
loop_
    _symmetry_equiv_pos_as_xyz
    x,y,z
loop_
    _atom_site_label
    _atom_site_type_symbol
    _atom_site_fract_x
    _atom_site_fract_y
    _atom_site_fract_z
    _atom_site_occupancy
    O1       O        0.34740    0.24820    0.26816    1.000
    O2       O        0.15700    0.08930    0.13845    1.000
    C1       C        0.21710    0.21450    0.20793    1.000
    O3       O        0.30690    0.46520    0.06497    1.000
    O4       O        0.09950    0.22897    0.98480    1.000
    C2       C        0.16650    0.35290    0.05306    1.000
    C3       C        0.07990    0.37500    0.13142    1.000
    H1       H        0.12360    0.49050    0.15620    1.000
    O5       O        0.71270    0.15400    0.94630    1.000
    O6       O        0.80413    0.03053    0.03763    1.000
    C4       C        0.79530    0.15360    0.02304    1.000
    C5       C        0.88640    0.30690    0.10318    1.000
    H2       H        0.85660    0.38760    0.08590    1.000
    Co1      Co       0.35513    0.03226    0.17061    1.000
    C6       C        0.66080    0.17730    0.18802    1.000
    O7       O        0.61250    0.06500    0.22486    1.000
    C7       C        0.84360    0.28090    0.19847    1.000
    H3       H        0.87320    0.38600    0.23990    1.000
    C8       C        0.96170    0.22390    0.24427    1.000
    H4       H        0.91910    0.11000    0.21820    1.000
    H5       H        0.97700    0.24750    0.31290    1.000
    C9       C        0.12750    0.31670    0.21983    1.000
    H6       H        0.19830    0.41110    0.27380    1.000
    N1       N        0.26170    0.89750    0.26147    1.000
    O8       O        0.55510    0.20810    0.14166    1.000
    C10      C        0.06510    0.60170    0.44289    1.000
    C11      C        0.13290    0.70630    0.38103    1.000
    C12      C        0.03080    0.71550    0.30480    1.000
    H7       H        0.91560    0.65750    0.29230    1.000
    C13      C        0.09740    0.80940    0.24696    1.000
    H8       H        0.02510    0.81160    0.19570    1.000
    C14      C        0.89970    0.54440    0.44590    1.000
    H9       H        0.83010    0.57360    0.40920    1.000
    C15      C        0.36090    0.89090    0.33610    1.000
    H10      H        0.47550    0.95150    0.34770    1.000
    C16      C        0.30330    0.79980    0.39680    1.000
    H11      H        0.37810    0.80090    0.44810    1.000
    C17      C        0.16370    0.55440    0.49840    1.000
    H12      H        0.27500    0.59020    0.49790    1.000
    O9       O        0.65260    0.75180    0.73184    1.000
    O10      O        0.84300    0.91070    0.86155    1.000
    C18      C        0.78290    0.78550    0.79207    1.000
    O11      O        0.69310    0.53480    0.93503    1.000
    O12      O        0.90050    0.77103    0.01520    1.000
    C19      C        0.83350    0.64710    0.94694    1.000
    C20      C        0.92010    0.62500    0.86858    1.000
    H13      H        0.87640    0.50950    0.84380    1.000
    O13      O        0.28730    0.84600    0.05370    1.000
    O14      O        0.19587    0.96947    0.96237    1.000
    C21      C        0.20470    0.84640    0.97696    1.000
    C22      C        0.11360    0.69310    0.89682    1.000
    H14      H        0.14340    0.61240    0.91410    1.000
    Co2      Co       0.64487    0.96774    0.82939    1.000
    C23      C        0.33920    0.82270    0.81198    1.000
    O15      O        0.38750    0.93500    0.77514    1.000
    C24      C        0.15640    0.71910    0.80153    1.000
    H15      H        0.12680    0.61400    0.76010    1.000
    C25      C        0.03830    0.77610    0.75573    1.000
    H16      H        0.08090    0.89000    0.78180    1.000
    H17      H        0.02300    0.75250    0.68710    1.000
    C26      C        0.87250    0.68330    0.78017    1.000
    H18      H        0.80170    0.58890    0.72620    1.000
    N2       N        0.73830    0.10250    0.73853    1.000
    O16      O        0.44490    0.79190    0.85834    1.000
    C27      C        0.93490    0.39830    0.55711    1.000
    C28      C        0.86710    0.29370    0.61897    1.000
    C29      C        0.96920    0.28450    0.69520    1.000
    H19      H        0.08440    0.34250    0.70770    1.000
    C30      C        0.90260    0.19060    0.75304    1.000
    H20      H        0.97490    0.18840    0.80430    1.000
    C31      C        0.10030    0.45560    0.55410    1.000
    H21      H        0.16990    0.42640    0.59080    1.000
    C32      C        0.63910    0.10910    0.66390    1.000
    H22      H        0.52450    0.04850    0.65230    1.000
    C33      C        0.69670    0.20020    0.60320    1.000
    H23      H        0.62190    0.19910    0.55190    1.000
    C34      C        0.83630    0.44560    0.50160    1.000
    H24      H        0.72500    0.40980    0.50210    1.000
    Co3      Co       0.00000    0.00000    0.00000    1.000
    Co4      Co       0.50000    0.50000    0.00000    1.000
