# CIF file generated by openbabel 3.1.0, see https://openbabel.org
data_I
_chemical_name_common 'image0'
_cell_length_a 10.2355
_cell_length_b 10.2355
_cell_length_c 28.105
_cell_angle_alpha 90
_cell_angle_beta 90
_cell_angle_gamma 90
_space_group_name_H-M_alt 'P 1'
_space_group_name_Hall 'P 1'
loop_
    _symmetry_equiv_pos_as_xyz
    x,y,z
loop_
    _atom_site_label
    _atom_site_type_symbol
    _atom_site_fract_x
    _atom_site_fract_y
    _atom_site_fract_z
    _atom_site_occupancy
    Ag1      Ag       0.60614    0.19679    0.23360    1.000
    N1       N        0.81060    0.03620    0.02303    1.000
    N2       N        0.75190    0.04390    0.22032    1.000
    O1       O        0.78770    0.25960    0.16550    1.000
    C1       C        0.79220    0.04600    0.06988    1.000
    H1       H        0.73930    0.98460    0.08490    1.000
    C2       C        0.84850    0.14360    0.09707    1.000
    C3       C        0.92910    0.23360    0.07572    1.000
    H2       H        0.96670    0.30080    0.09330    1.000
    C4       C        0.95290    0.22170    0.02730    1.000
    H3       H        0.00880    0.27960    0.01190    1.000
    C5       C        0.89280    0.12340    0.00247    1.000
    H4       H        0.90910    0.11620    0.97000    1.000
    C6       C        0.81510    0.15510    0.14851    1.000
    C7       C        0.82140    0.03660    0.17966    1.000
    C8       C        0.90300    0.93430    0.16966    1.000
    H5       H        0.94590    0.93020    0.14050    1.000
    C9       C        0.92140    0.83640    0.20342    1.000
    H6       H        0.97760    0.76680    0.19770    1.000
    C10      C        0.85410    0.84610    0.24511    1.000
    H7       H        0.86610    0.78360    0.26880    1.000
    C11      C        0.76850    0.94800    0.25235    1.000
    H8       H        0.72050    0.95040    0.28040    1.000
    Ag2      Ag       0.39386    0.80321    0.73360    1.000
    N3       N        0.18940    0.96380    0.52303    1.000
    N4       N        0.24810    0.95610    0.72032    1.000
    O2       O        0.21230    0.74040    0.66550    1.000
    C12      C        0.20780    0.95400    0.56988    1.000
    H9       H        0.26070    0.01540    0.58490    1.000
    C13      C        0.15150    0.85640    0.59707    1.000
    C14      C        0.07090    0.76640    0.57572    1.000
    H10      H        0.03330    0.69920    0.59330    1.000
    C15      C        0.04710    0.77830    0.52730    1.000
    H11      H        0.99120    0.72040    0.51190    1.000
    C16      C        0.10720    0.87660    0.50247    1.000
    H12      H        0.09090    0.88380    0.47000    1.000
    C17      C        0.18490    0.84490    0.64851    1.000
    C18      C        0.17860    0.96340    0.67966    1.000
    C19      C        0.09700    0.06570    0.66966    1.000
    H13      H        0.05410    0.06980    0.64050    1.000
    C20      C        0.07860    0.16360    0.70342    1.000
    H14      H        0.02240    0.23320    0.69770    1.000
    C21      C        0.14590    0.15390    0.74511    1.000
    H15      H        0.13390    0.21640    0.76880    1.000
    C22      C        0.23150    0.05200    0.75235    1.000
    H16      H        0.27950    0.04960    0.78040    1.000
    Ag3      Ag       0.30321    0.10614    0.48360    1.000
    N5       N        0.46380    0.31060    0.27303    1.000
    N6       N        0.45610    0.25190    0.47032    1.000
    O3       O        0.24040    0.28770    0.41550    1.000
    C23      C        0.45400    0.29220    0.31988    1.000
    H17      H        0.51540    0.23930    0.33490    1.000
    C24      C        0.35640    0.34850    0.34707    1.000
    C25      C        0.26640    0.42910    0.32572    1.000
    H18      H        0.19920    0.46670    0.34330    1.000
    C26      C        0.27830    0.45290    0.27730    1.000
    H19      H        0.22040    0.50880    0.26190    1.000
    C27      C        0.37660    0.39280    0.25247    1.000
    H20      H        0.38380    0.40910    0.22000    1.000
    C28      C        0.34490    0.31510    0.39851    1.000
    C29      C        0.46340    0.32140    0.42966    1.000
    C30      C        0.56570    0.40300    0.41966    1.000
    H21      H        0.56980    0.44590    0.39050    1.000
    C31      C        0.66360    0.42140    0.45342    1.000
    H22      H        0.73320    0.47760    0.44770    1.000
    C32      C        0.65390    0.35410    0.49511    1.000
    H23      H        0.71640    0.36610    0.51880    1.000
    C33      C        0.55200    0.26850    0.50235    1.000
    H24      H        0.54960    0.22050    0.53040    1.000
    Ag4      Ag       0.69679    0.89386    0.98360    1.000
    N7       N        0.53620    0.68940    0.77303    1.000
    N8       N        0.54390    0.74810    0.97032    1.000
    O4       O        0.75960    0.71230    0.91550    1.000
    C34      C        0.54600    0.70780    0.81988    1.000
    H25      H        0.48460    0.76070    0.83490    1.000
    C35      C        0.64360    0.65150    0.84707    1.000
    C36      C        0.73360    0.57090    0.82572    1.000
    H26      H        0.80080    0.53330    0.84330    1.000
    C37      C        0.72170    0.54710    0.77730    1.000
    H27      H        0.77960    0.49120    0.76190    1.000
    C38      C        0.62340    0.60720    0.75247    1.000
    H28      H        0.61620    0.59090    0.72000    1.000
    C39      C        0.65510    0.68490    0.89851    1.000
    C40      C        0.53660    0.67860    0.92966    1.000
    C41      C        0.43430    0.59700    0.91966    1.000
    H29      H        0.43020    0.55410    0.89050    1.000
    C42      C        0.33640    0.57860    0.95342    1.000
    H30      H        0.26680    0.52240    0.94770    1.000
    C43      C        0.34610    0.64590    0.99511    1.000
    H31      H        0.28360    0.63390    0.01880    1.000
    C44      C        0.44800    0.73150    0.00235    1.000
    H32      H        0.45040    0.77950    0.03040    1.000
    Ag5      Ag       0.89386    0.69679    0.01640    1.000
    N9       N        0.68940    0.53620    0.22697    1.000
    N10      N        0.74810    0.54390    0.02968    1.000
    O5       O        0.71230    0.75960    0.08450    1.000
    C45      C        0.70780    0.54600    0.18012    1.000
    H33      H        0.76070    0.48460    0.16510    1.000
    C46      C        0.65150    0.64360    0.15293    1.000
    C47      C        0.57090    0.73360    0.17428    1.000
    H34      H        0.53330    0.80080    0.15670    1.000
    C48      C        0.54710    0.72170    0.22270    1.000
    H35      H        0.49120    0.77960    0.23810    1.000
    C49      C        0.60720    0.62340    0.24753    1.000
    H36      H        0.59090    0.61620    0.28000    1.000
    C50      C        0.68490    0.65510    0.10149    1.000
    C51      C        0.67860    0.53660    0.07034    1.000
    C52      C        0.59700    0.43430    0.08034    1.000
    H37      H        0.55410    0.43020    0.10950    1.000
    C53      C        0.57860    0.33640    0.04658    1.000
    H38      H        0.52240    0.26680    0.05230    1.000
    C54      C        0.64590    0.34610    0.00489    1.000
    H39      H        0.63390    0.28360    0.98120    1.000
    C55      C        0.73150    0.44800    0.99765    1.000
    H40      H        0.77950    0.45040    0.96960    1.000
    Ag6      Ag       0.10614    0.30321    0.51640    1.000
    N11      N        0.31060    0.46380    0.72697    1.000
    N12      N        0.25190    0.45610    0.52968    1.000
    O6       O        0.28770    0.24040    0.58450    1.000
    C56      C        0.29220    0.45400    0.68012    1.000
    H41      H        0.23930    0.51540    0.66510    1.000
    C57      C        0.34850    0.35640    0.65293    1.000
    C58      C        0.42910    0.26640    0.67428    1.000
    H42      H        0.46670    0.19920    0.65670    1.000
    C59      C        0.45290    0.27830    0.72270    1.000
    H43      H        0.50880    0.22040    0.73810    1.000
    C60      C        0.39280    0.37660    0.74753    1.000
    H44      H        0.40910    0.38380    0.78000    1.000
    C61      C        0.31510    0.34490    0.60149    1.000
    C62      C        0.32140    0.46340    0.57034    1.000
    C63      C        0.40300    0.56570    0.58034    1.000
    H45      H        0.44590    0.56980    0.60950    1.000
    C64      C        0.42140    0.66360    0.54658    1.000
    H46      H        0.47760    0.73320    0.55230    1.000
    C65      C        0.35410    0.65390    0.50489    1.000
    H47      H        0.36610    0.71640    0.48120    1.000
    C66      C        0.26850    0.55200    0.49765    1.000
    H48      H        0.22050    0.54960    0.46960    1.000
    Ag7      Ag       0.19679    0.60614    0.76640    1.000
    N13      N        0.03620    0.81060    0.97697    1.000
    N14      N        0.04390    0.75190    0.77968    1.000
    O7       O        0.25960    0.78770    0.83450    1.000
    C67      C        0.04600    0.79220    0.93012    1.000
    H49      H        0.98460    0.73930    0.91510    1.000
    C68      C        0.14360    0.84850    0.90293    1.000
    C69      C        0.23360    0.92910    0.92428    1.000
    H50      H        0.30080    0.96670    0.90670    1.000
    C70      C        0.22170    0.95290    0.97270    1.000
    H51      H        0.27960    0.00880    0.98810    1.000
    C71      C        0.12340    0.89280    0.99753    1.000
    H52      H        0.11620    0.90910    0.03000    1.000
    C72      C        0.15510    0.81510    0.85149    1.000
    C73      C        0.03660    0.82140    0.82034    1.000
    C74      C        0.93430    0.90300    0.83034    1.000
    H53      H        0.93020    0.94590    0.85950    1.000
    C75      C        0.83640    0.92140    0.79658    1.000
    H54      H        0.76680    0.97760    0.80230    1.000
    C76      C        0.84610    0.85410    0.75489    1.000
    H55      H        0.78360    0.86610    0.73120    1.000
    C77      C        0.94800    0.76850    0.74765    1.000
    H56      H        0.95040    0.72050    0.71960    1.000
    Ag8      Ag       0.80321    0.39386    0.26640    1.000
    N15      N        0.96380    0.18940    0.47697    1.000
    N16      N        0.95610    0.24810    0.27968    1.000
    O8       O        0.74040    0.21230    0.33450    1.000
    C78      C        0.95400    0.20780    0.43012    1.000
    H57      H        0.01540    0.26070    0.41510    1.000
    C79      C        0.85640    0.15150    0.40293    1.000
    C80      C        0.76640    0.07090    0.42428    1.000
    H58      H        0.69920    0.03330    0.40670    1.000
    C81      C        0.77830    0.04710    0.47270    1.000
    H59      H        0.72040    0.99120    0.48810    1.000
    C82      C        0.87660    0.10720    0.49753    1.000
    H60      H        0.88380    0.09090    0.53000    1.000
    C83      C        0.84490    0.18490    0.35149    1.000
    C84      C        0.96340    0.17860    0.32034    1.000
    C85      C        0.06570    0.09700    0.33034    1.000
    H61      H        0.06980    0.05410    0.35950    1.000
    C86      C        0.16360    0.07860    0.29658    1.000
    H62      H        0.23320    0.02240    0.30230    1.000
    C87      C        0.15390    0.14590    0.25489    1.000
    H63      H        0.21640    0.13390    0.23120    1.000
    C88      C        0.05200    0.23150    0.24765    1.000
    H64      H        0.04960    0.27950    0.21960    1.000
