data_functionalizedCrystal
_audit_creation_method	'EQeq! by Chris Wilmer'
_symmetry_space_group_name_H-M	'P1'
_symmetry_Int_Tables_number	1
_symmetry_cell_setting	triclinic
loop_
_symmetry_equiv_pos_as_xyz
  x,y,z
_cell_length_a	13.4701
_cell_length_b	10.8298
_cell_length_c	14.6883
_cell_angle_alpha	90
_cell_angle_beta	109.83
_cell_angle_gamma	90
loop_
_atom_site_label
_atom_site_type_symbol
_atom_site_fract_x
_atom_site_fract_y
_atom_site_fract_z
_atom_site_charge
Mof_Co	Co	0.4015	0.91712	0.45566	1.199
Mof_Co	Co	0.50557	0.02088	0.29887	1.189
Mof_O 	O 	0.2965	0.0387	0.368	-0.428
Mof_O 	O 	0.3916	0.1468	0.297	-0.418
Mof_O 	O 	0.3805	0.4243	0.2345	-0.409
Mof_O 	O 	0.3155	0.2915	0.1115	-0.312
Mof_O 	O 	0.6329	0.2839	0.1541	-0.402
Mof_O 	O 	0.6244	0.4051	0.2754	-0.387
Mof_O 	O 	0.6148	0.1624	0.3502	-0.432
Mof_O 	O 	0.7145	0.1559	0.505	-0.429
Mof_O 	O 	0.5403	0.9539	0.4364	-1.434
Mof_C 	C 	0.3106	0.1283	0.3198	0.354
Mof_C 	C 	0.2223	0.2202	0.2848	-0.045
Mof_C 	C 	0.1364	0.2064	0.3163	-0.044
Mof_H 	H 	0.1357	0.1399	0.3562	0.062
Mof_C 	C 	0.0518	0.2875	0.2907	0.018
Mof_C 	C 	0.0548	0.3869	0.2298	-0.066
Mof_H 	H 	0.999	0.4427	0.2108	0.06
Mof_C 	C 	0.1389	0.4029	0.1979	-0.006
Mof_H 	H 	0.1396	0.4695	0.1581	0.041
Mof_C 	C 	0.2245	0.3188	0.2249	-0.041
Mof_C 	C 	0.3154	0.3442	0.1877	0.334
Mof_C 	C 	0.9624	0.2687	0.3271	0.045
Mof_C 	C 	0.8603	0.3011	0.271	-0.073
Mof_H 	H 	0.8484	0.3387	0.2113	0.074
Mof_C 	C 	0.7752	0.2786	0.3023	-0.009
Mof_C 	C 	0.7919	0.2189	0.3906	-0.084
Mof_C 	C 	0.8948	0.1893	0.4487	0.027
Mof_H 	H 	0.907	0.1528	0.5089	0.035
Mof_C 	C 	0.9788	0.2139	0.4173	-0.103
Mof_H 	H 	0.047	0.1938	0.4567	0.075
Mof_C 	C 	0.6683	0.3234	0.24	0.331
Mof_C 	C 	0.6997	0.1759	0.4178	0.38
Mof_H 	H 	0.57	0.906	0.436	0.821
Mof_H 	H 	0.559	0.035	0.465	0.077
Mof_Co	Co	0.5985	0.41712	0.04434	1.197
Mof_Co	Co	0.49443	0.52088	0.20113	1.189
Mof_O 	O 	0.7035	0.5387	0.132	-0.428
Mof_O 	O 	0.6084	0.6468	0.203	-0.418
Mof_O 	O 	0.6195	0.9243	0.2655	-0.407
Mof_O 	O 	0.6845	0.7915	0.3885	-0.312
Mof_O 	O 	0.3671	0.7839	0.3459	-0.402
Mof_O 	O 	0.3756	0.9051	0.2246	-0.386
Mof_O 	O 	0.3852	0.6624	0.1498	-0.432
Mof_O 	O 	0.2855	0.6559	0.995	-0.431
Mof_O 	O 	0.4597	0.4539	0.0636	-1.436
Mof_C 	C 	0.6894	0.6283	0.1802	0.354
Mof_C 	C 	0.7777	0.7202	0.2152	-0.045
Mof_C 	C 	0.8636	0.7064	0.1837	-0.043
Mof_H 	H 	0.8643	0.6399	0.1438	0.061
Mof_C 	C 	0.9482	0.7875	0.2093	0.016
Mof_C 	C 	0.9452	0.8869	0.2702	-0.063
Mof_H 	H 	0.001	0.9427	0.2892	0.059
Mof_C 	C 	0.8611	0.9029	0.3021	-0.008
Mof_H 	H 	0.8604	0.9695	0.3419	0.042
Mof_C 	C 	0.7755	0.8188	0.2751	-0.04
Mof_C 	C 	0.6846	0.8442	0.3123	0.334
Mof_C 	C 	0.0376	0.7687	0.1729	0.047
Mof_C 	C 	0.1397	0.8011	0.229	-0.074
Mof_H 	H 	0.1516	0.8387	0.2887	0.074
Mof_C 	C 	0.2248	0.7786	0.1977	-0.008
Mof_C 	C 	0.2081	0.7189	0.1094	-0.085
Mof_C 	C 	0.1052	0.6893	0.0513	0.03
Mof_H 	H 	0.093	0.6528	0.9911	0.033
Mof_C 	C 	0.0212	0.7139	0.0827	-0.103
Mof_H 	H 	0.953	0.6938	0.0433	0.075
Mof_C 	C 	0.3317	0.8234	0.26	0.33
Mof_C 	C 	0.3003	0.6759	0.0822	0.382
Mof_H 	H 	0.43	0.406	0.064	0.821
Mof_H 	H 	0.441	0.535	0.035	0.078
Mof_Co	Co	0.5985	0.08288	0.54434	1.198
Mof_Co	Co	0.49443	0.97912	0.70113	1.188
Mof_O 	O 	0.7035	0.9613	0.632	-0.428
Mof_O 	O 	0.6084	0.8532	0.703	-0.418
Mof_O 	O 	0.6195	0.5757	0.7655	-0.409
Mof_O 	O 	0.6845	0.7085	0.8885	-0.312
Mof_O 	O 	0.3671	0.7161	0.8459	-0.402
Mof_O 	O 	0.3756	0.5949	0.7246	-0.387
Mof_O 	O 	0.3852	0.8376	0.6498	-0.432
Mof_O 	O 	0.2855	0.8441	0.495	-0.429
Mof_O 	O 	0.4597	0.0461	0.5636	-1.434
Mof_C 	C 	0.6894	0.8717	0.6802	0.354
Mof_C 	C 	0.7777	0.7798	0.7152	-0.045
Mof_C 	C 	0.8636	0.7936	0.6837	-0.044
Mof_H 	H 	0.8643	0.8601	0.6438	0.062
Mof_C 	C 	0.9482	0.7125	0.7093	0.018
Mof_C 	C 	0.9452	0.6131	0.7702	-0.066
Mof_H 	H 	0.001	0.5573	0.7892	0.06
Mof_C 	C 	0.8611	0.5971	0.8021	-0.006
Mof_H 	H 	0.8604	0.5305	0.8419	0.041
Mof_C 	C 	0.7755	0.6812	0.7751	-0.041
Mof_C 	C 	0.6846	0.6558	0.8123	0.334
Mof_C 	C 	0.0376	0.7313	0.6729	0.045
Mof_C 	C 	0.1397	0.6989	0.729	-0.073
Mof_H 	H 	0.1516	0.6613	0.7887	0.074
Mof_C 	C 	0.2248	0.7214	0.6977	-0.009
Mof_C 	C 	0.2081	0.7811	0.6094	-0.084
Mof_C 	C 	0.1052	0.8107	0.5513	0.027
Mof_H 	H 	0.093	0.8472	0.4911	0.035
Mof_C 	C 	0.0212	0.7861	0.5827	-0.103
Mof_H 	H 	0.953	0.8062	0.5433	0.075
Mof_C 	C 	0.3317	0.6766	0.76	0.331
Mof_C 	C 	0.3003	0.8241	0.5822	0.38
Mof_H 	H 	0.43	0.094	0.564	0.821
Mof_H 	H 	0.441	0.965	0.535	0.077
Mof_Co	Co	0.4015	0.58288	0.95566	1.197
Mof_Co	Co	0.50557	0.47912	0.79887	1.189
Mof_O 	O 	0.2965	0.4613	0.868	-0.428
Mof_O 	O 	0.3916	0.3532	0.797	-0.418
Mof_O 	O 	0.3805	0.0757	0.7345	-0.407
Mof_O 	O 	0.3155	0.2085	0.6115	-0.312
Mof_O 	O 	0.6329	0.2161	0.6541	-0.402
Mof_O 	O 	0.6244	0.0949	0.7754	-0.386
Mof_O 	O 	0.6148	0.3376	0.8502	-0.432
Mof_O 	O 	0.7145	0.3441	0.005	-0.431
Mof_O 	O 	0.5403	0.5461	0.9364	-1.436
Mof_C 	C 	0.3106	0.3717	0.8198	0.354
Mof_C 	C 	0.2223	0.2798	0.7848	-0.045
Mof_C 	C 	0.1364	0.2936	0.8163	-0.043
Mof_H 	H 	0.1357	0.3601	0.8562	0.061
Mof_C 	C 	0.0518	0.2125	0.7907	0.016
Mof_C 	C 	0.0548	0.1131	0.7298	-0.063
Mof_H 	H 	0.999	0.0573	0.7108	0.059
Mof_C 	C 	0.1389	0.0971	0.6979	-0.008
Mof_H 	H 	0.1396	0.0305	0.6581	0.042
Mof_C 	C 	0.2245	0.1812	0.7249	-0.04
Mof_C 	C 	0.3154	0.1558	0.6877	0.334
Mof_C 	C 	0.9624	0.2313	0.8271	0.047
Mof_C 	C 	0.8603	0.1989	0.771	-0.074
Mof_H 	H 	0.8484	0.1613	0.7113	0.074
Mof_C 	C 	0.7752	0.2214	0.8023	-0.008
Mof_C 	C 	0.7919	0.2811	0.8906	-0.085
Mof_C 	C 	0.8948	0.3107	0.9487	0.03
Mof_H 	H 	0.907	0.3472	0.0089	0.033
Mof_C 	C 	0.9788	0.2861	0.9173	-0.103
Mof_H 	H 	0.047	0.3062	0.9567	0.075
Mof_C 	C 	0.6683	0.1766	0.74	0.33
Mof_C 	C 	0.6997	0.3241	0.9178	0.382
Mof_H 	H 	0.57	0.594	0.936	0.821
Mof_H 	H 	0.559	0.465	0.965	0.078
_end
