data_functionalizedCrystal
_audit_creation_method	'EQeq! by Chris Wilmer'
_symmetry_space_group_name_H-M	'P1'
_symmetry_Int_Tables_number	1
_symmetry_cell_setting	triclinic
loop_
_symmetry_equiv_pos_as_xyz
  x,y,z
_cell_length_a	14.4783
_cell_length_b	14.4783
_cell_length_c	15.293
_cell_angle_alpha	90
_cell_angle_beta	90
_cell_angle_gamma	120
loop_
_atom_site_label
_atom_site_type_symbol
_atom_site_fract_x
_atom_site_fract_y
_atom_site_fract_z
_atom_site_charge
Mof_O 	O 	0.9467	0.3865	0.0899	-0.413
Mof_C 	C 	0.8689	0.3524	0.1381	0.439
Mof_O 	O 	0.8058	0.3862	0.1444	-0.466
Mof_C 	C 	0.8541	0.2599	0.1954	-0.182
Mof_H 	H 	0.8401	0.1976	0.1591	0.073
Mof_H 	H 	0.9187	0.2808	0.2312	0.104
Mof_O 	O 	0.6135	0.5602	0.0899	-0.448
Mof_C 	C 	0.6476	0.5165	0.1381	0.447
Mof_O 	O 	0.6138	0.4196	0.1444	-0.478
Mof_C 	C 	0.7401	0.5942	0.1954	-0.194
Mof_H 	H 	0.8024	0.6425	0.1591	0.095
Mof_H 	H 	0.7192	0.6379	0.2312	0.094
Mof_O 	O 	0.4398	0.0533	0.0899	-0.478
Mof_C 	C 	0.4835	0.1311	0.1381	0.431
Mof_O 	O 	0.5804	0.1942	0.1444	-0.482
Mof_C 	C 	0.4058	0.1459	0.1954	-0.165
Mof_H 	H 	0.3575	0.1599	0.1591	0.058
Mof_H 	H 	0.3621	0.0813	0.2312	0.054
Mof_O 	O 	0.0533	0.6135	0.0899	-0.475
Mof_C 	C 	0.1311	0.6476	0.1381	0.438
Mof_O 	O 	0.1942	0.6138	0.1444	-0.483
Mof_C 	C 	0.1459	0.7401	0.1954	-0.177
Mof_H 	H 	0.1599	0.8024	0.1591	0.078
Mof_H 	H 	0.0813	0.7192	0.2312	0.064
Mof_O 	O 	0.3865	0.4398	0.0899	-0.455
Mof_C 	C 	0.3524	0.4835	0.1381	0.433
Mof_O 	O 	0.3862	0.5804	0.1444	-0.475
Mof_C 	C 	0.2599	0.4058	0.1954	-0.168
Mof_H 	H 	0.1976	0.3575	0.1591	0.055
Mof_H 	H 	0.2808	0.3621	0.2312	0.074
Mof_O 	O 	0.5602	0.9467	0.0899	-0.411
Mof_C 	C 	0.5165	0.8689	0.1381	0.445
Mof_O 	O 	0.4196	0.8058	0.1444	-0.467
Mof_C 	C 	0.5942	0.8541	0.1954	-0.195
Mof_H 	H 	0.6425	0.8401	0.1591	0.092
Mof_H 	H 	0.6379	0.9187	0.2312	0.114
Mof_O 	O 	0.3865	0.9467	0.4101	-0.381
Mof_C 	C 	0.3524	0.8689	0.3619	0.441
Mof_O 	O 	0.3862	0.8058	0.3556	-0.447
Mof_C 	C 	0.2599	0.8541	0.3046	-0.183
Mof_H 	H 	0.1976	0.8401	0.3409	0.088
Mof_H 	H 	0.2808	0.9187	0.2688	0.104
Mof_O 	O 	0.5602	0.6135	0.4101	-0.415
Mof_C 	C 	0.5165	0.6476	0.3619	0.449
Mof_O 	O 	0.4196	0.6138	0.3556	-0.459
Mof_C 	C 	0.5942	0.7401	0.3046	-0.194
Mof_H 	H 	0.6425	0.8024	0.3409	0.11
Mof_H 	H 	0.6379	0.7192	0.2688	0.094
Mof_O 	O 	0.0533	0.4398	0.4101	-0.445
Mof_C 	C 	0.1311	0.4835	0.3619	0.433
Mof_O 	O 	0.1942	0.5804	0.3556	-0.463
Mof_C 	C 	0.1459	0.4058	0.3046	-0.165
Mof_H 	H 	0.1599	0.3575	0.3409	0.073
Mof_H 	H 	0.0813	0.3621	0.2688	0.054
Mof_O 	O 	0.6135	0.0533	0.4101	-0.442
Mof_C 	C 	0.6476	0.1311	0.3619	0.44
Mof_O 	O 	0.6138	0.1942	0.3556	-0.465
Mof_C 	C 	0.7401	0.1459	0.3046	-0.177
Mof_H 	H 	0.8024	0.1599	0.3409	0.093
Mof_H 	H 	0.7192	0.0813	0.2688	0.064
Mof_O 	O 	0.4398	0.3865	0.4101	-0.422
Mof_C 	C 	0.4835	0.3524	0.3619	0.436
Mof_O 	O 	0.5804	0.3862	0.3556	-0.456
Mof_C 	C 	0.4058	0.2599	0.3046	-0.168
Mof_H 	H 	0.3575	0.1976	0.3409	0.071
Mof_H 	H 	0.3621	0.2808	0.2688	0.074
Mof_O 	O 	0.9467	0.5602	0.4101	-0.378
Mof_C 	C 	0.8689	0.5165	0.3619	0.447
Mof_O 	O 	0.8058	0.4196	0.3556	-0.449
Mof_C 	C 	0.8541	0.5942	0.3046	-0.195
Mof_H 	H 	0.8401	0.6425	0.3409	0.107
Mof_H 	H 	0.9187	0.6379	0.2688	0.114
Mof_O 	O 	0.0533	0.6135	0.9101	-0.385
Mof_C 	C 	0.1311	0.6476	0.8619	0.439
Mof_O 	O 	0.1942	0.6138	0.8556	-0.441
Mof_C 	C 	0.1459	0.7401	0.8046	-0.18
Mof_H 	H 	0.1599	0.8024	0.8409	0.112
Mof_H 	H 	0.0813	0.7192	0.7688	0.071
Mof_O 	O 	0.3865	0.4398	0.9101	-0.364
Mof_C 	C 	0.3524	0.4835	0.8619	0.434
Mof_O 	O 	0.3862	0.5804	0.8556	-0.433
Mof_C 	C 	0.2599	0.4058	0.8046	-0.171
Mof_H 	H 	0.1976	0.3575	0.8409	0.091
Mof_H 	H 	0.2808	0.3621	0.7688	0.082
Mof_O 	O 	0.5602	0.9467	0.9101	-0.323
Mof_C 	C 	0.5165	0.8689	0.8619	0.446
Mof_O 	O 	0.4196	0.8058	0.8556	-0.426
Mof_C 	C 	0.5942	0.8541	0.8046	-0.197
Mof_H 	H 	0.6425	0.8401	0.8409	0.126
Mof_H 	H 	0.6379	0.9187	0.7688	0.121
Mof_O 	O 	0.9467	0.3865	0.9101	-0.326
Mof_C 	C 	0.8689	0.3524	0.8619	0.44
Mof_O 	O 	0.8058	0.3862	0.8556	-0.424
Mof_C 	C 	0.8541	0.2599	0.8046	-0.185
Mof_H 	H 	0.8401	0.1976	0.8409	0.107
Mof_H 	H 	0.9187	0.2808	0.7688	0.111
Mof_O 	O 	0.6135	0.5602	0.9101	-0.358
Mof_C 	C 	0.6476	0.5165	0.8619	0.447
Mof_O 	O 	0.6138	0.4196	0.8556	-0.436
Mof_C 	C 	0.7401	0.5942	0.8046	-0.196
Mof_H 	H 	0.8024	0.6425	0.8409	0.129
Mof_H 	H 	0.7192	0.6379	0.7688	0.101
Mof_O 	O 	0.4398	0.0533	0.9101	-0.387
Mof_C 	C 	0.4835	0.1311	0.8619	0.432
Mof_O 	O 	0.5804	0.1942	0.8556	-0.44
Mof_C 	C 	0.4058	0.1459	0.8046	-0.168
Mof_H 	H 	0.3575	0.1599	0.8409	0.093
Mof_H 	H 	0.3621	0.0813	0.7688	0.062
Mof_O 	O 	0.6135	0.0533	0.5899	-0.442
Mof_C 	C 	0.6476	0.1311	0.6381	0.443
Mof_O 	O 	0.6138	0.1942	0.6444	-0.467
Mof_C 	C 	0.7401	0.1459	0.6954	-0.183
Mof_H 	H 	0.8024	0.1599	0.6591	0.097
Mof_H 	H 	0.7192	0.0813	0.7312	0.073
Mof_O 	O 	0.4398	0.3865	0.5899	-0.422
Mof_C 	C 	0.4835	0.3524	0.6381	0.438
Mof_O 	O 	0.5804	0.3862	0.6444	-0.459
Mof_C 	C 	0.4058	0.2599	0.6954	-0.174
Mof_H 	H 	0.3575	0.1976	0.6591	0.075
Mof_H 	H 	0.3621	0.2808	0.7312	0.083
Mof_O 	O 	0.9467	0.5602	0.5899	-0.379
Mof_C 	C 	0.8689	0.5165	0.6381	0.45
Mof_O 	O 	0.8058	0.4196	0.6444	-0.451
Mof_C 	C 	0.8541	0.5942	0.6954	-0.2
Mof_H 	H 	0.8401	0.6425	0.6591	0.111
Mof_H 	H 	0.9187	0.6379	0.7312	0.122
Mof_O 	O 	0.3865	0.9467	0.5899	-0.382
Mof_C 	C 	0.3524	0.8689	0.6381	0.443
Mof_O 	O 	0.3862	0.8058	0.6444	-0.45
Mof_C 	C 	0.2599	0.8541	0.6954	-0.188
Mof_H 	H 	0.1976	0.8401	0.6591	0.091
Mof_H 	H 	0.2808	0.9187	0.7312	0.112
Mof_O 	O 	0.5602	0.6135	0.5899	-0.416
Mof_C 	C 	0.5165	0.6476	0.6381	0.452
Mof_O 	O 	0.4196	0.6138	0.6444	-0.461
Mof_C 	C 	0.5942	0.7401	0.6954	-0.199
Mof_H 	H 	0.6425	0.8024	0.6591	0.114
Mof_H 	H 	0.6379	0.7192	0.7312	0.103
Mof_O 	O 	0.0533	0.4398	0.5899	-0.445
Mof_C 	C 	0.1311	0.4835	0.6381	0.436
Mof_O 	O 	0.1942	0.5804	0.6444	-0.466
Mof_C 	C 	0.1459	0.4058	0.6954	-0.171
Mof_H 	H 	0.1599	0.3575	0.6591	0.077
Mof_H 	H 	0.0813	0.3621	0.7312	0.063
Mof_Gd	Gd	0.66667	0.33333	0.25	1.929
Mof_Gd	Gd	0.33333	0.66667	0.25	1.929
Mof_Gd	Gd	0.33333	0.66667	0.75	1.942
Mof_Gd	Gd	0.66667	0.33333	0.75	1.942
Mof_Cu	Cu	-0	0.5	-0	0.854
Mof_Cu	Cu	0.5	0.5	-0	0.887
Mof_Cu	Cu	0.5	0	-0	0.854
Mof_Cu	Cu	0.5	0	0.5	0.911
Mof_Cu	Cu	0.5	0.5	0.5	0.945
Mof_Cu	Cu	-2.37281e-17	0.5	0.5	0.911
Mof_O 	O 	0.7648	0.2352	0.25	-0.244
Mof_O 	O 	0.7648	0.5296	0.25	-0.235
Mof_O 	O 	0.4704	0.2352	0.25	-0.254
Mof_O 	O 	0.2352	0.7648	0.25	-0.244
Mof_O 	O 	0.2352	0.4704	0.25	-0.254
Mof_O 	O 	0.5296	0.7648	0.25	-0.235
Mof_O 	O 	0.2352	0.7648	0.75	-0.239
Mof_O 	O 	0.2352	0.4704	0.75	-0.249
Mof_O 	O 	0.5296	0.7648	0.75	-0.229
Mof_O 	O 	0.7648	0.2352	0.75	-0.239
Mof_O 	O 	0.7648	0.5296	0.75	-0.229
Mof_O 	O 	0.4704	0.2352	0.75	-0.249
_end
