data_functionalizedCrystal
_audit_creation_method	'EQeq! by Chris Wilmer'
_symmetry_space_group_name_H-M	'P1'
_symmetry_Int_Tables_number	1
_symmetry_cell_setting	triclinic
loop_
_symmetry_equiv_pos_as_xyz
  x,y,z
_cell_length_a	9.876
_cell_length_b	9.295
_cell_length_c	22.594
_cell_angle_alpha	90
_cell_angle_beta	106.8
_cell_angle_gamma	90
loop_
_atom_site_label
_atom_site_type_symbol
_atom_site_fract_x
_atom_site_fract_y
_atom_site_fract_z
_atom_site_charge
Mof_Cu	Cu	0.69374	0.87556	0.84682	0.832
Mof_N 	N 	0.6119	0.9116	0.7567	-0.26
Mof_C 	C 	0.4888	0.8565	0.7237	0.077
Mof_H 	H 	0.4477	0.7864	0.7422	-0.03
Mof_C 	C 	0.6036	0.057	0.668	-0.163
Mof_H 	H 	0.6489	0.1255	0.6504	0.072
Mof_C 	C 	0.4183	0.8959	0.6642	-0.146
Mof_H 	H 	0.333	0.852	0.6436	0.076
Mof_C 	C 	0.4751	0.0023	0.6345	0.054
Mof_C 	C 	0.4028	0.0465	0.5694	0.052
Mof_C 	C 	0.3915	0.1935	0.4828	0.042
Mof_N 	N 	0.2826	0.9736	0.5387	-0.125
Mof_C 	C 	0.2686	0.119	0.4507	-0.114
Mof_H 	H 	0.2223	0.1441	0.41	0.061
Mof_C 	C 	0.2154	0.0092	0.4783	0.054
Mof_C 	C 	0.0878	0.9229	0.4454	0.065
Mof_C 	C 	0.0037	0.9573	0.3866	-0.141
Mof_H 	H 	0.0248	0.0362	0.3656	0.065
Mof_C 	C 	0.9323	0.7259	0.4433	0.078
Mof_H 	H 	0.9079	0.6479	0.4639	-0.031
Mof_C 	C 	0.8873	0.8712	0.3599	0.074
Mof_H 	H 	0.8298	0.8974	0.321	-0.026
Mof_N 	N 	0.852	0.7532	0.3861	-0.26
Mof_N 	N 	0.5843	0.5108	0.395	-0.25
Mof_C 	C 	0.665	0.011	0.727	0.082
Mof_H 	H 	0.751	0.0524	0.7483	-0.037
Mof_C 	C 	0.4555	0.1542	0.5423	-0.126
Mof_H 	H 	0.5368	0.2022	0.5647	0.062
Mof_C 	C 	0.0489	0.8054	0.474	-0.143
Mof_H 	H 	0.1013	0.78	0.5138	0.079
Mof_C 	C 	0.4542	0.3075	0.4528	0.066
Mof_C 	C 	0.3815	0.3718	0.3971	-0.143
Mof_H 	H 	0.2876	0.3478	0.3781	0.069
Mof_C 	C 	0.4487	0.4709	0.3704	0.074
Mof_H 	H 	0.3977	0.5127	0.3332	-0.025
Mof_C 	C 	0.6507	0.451	0.4491	0.082
Mof_H 	H 	0.7433	0.4796	0.4682	-0.028
Mof_C 	C 	0.5927	0.351	0.4786	-0.144
Mof_H 	H 	0.6461	0.3121	0.516	0.079
Mof_Cu	Cu	0.69374	0.62444	0.34682	0.831
Mof_N 	N 	0.6119	0.5884	0.2567	-0.261
Mof_C 	C 	0.4888	0.6435	0.2237	0.076
Mof_H 	H 	0.4477	0.7136	0.2422	-0.031
Mof_C 	C 	0.6036	0.443	0.168	-0.163
Mof_H 	H 	0.6489	0.3745	0.1504	0.072
Mof_C 	C 	0.4183	0.6041	0.1642	-0.146
Mof_H 	H 	0.333	0.648	0.1436	0.076
Mof_C 	C 	0.4751	0.4977	0.1345	0.053
Mof_C 	C 	0.4028	0.4535	0.0694	0.053
Mof_C 	C 	0.3915	0.3065	0.9828	0.042
Mof_N 	N 	0.2826	0.5264	0.0387	-0.126
Mof_C 	C 	0.2686	0.381	0.9507	-0.115
Mof_H 	H 	0.2223	0.3559	0.91	0.062
Mof_C 	C 	0.2154	0.4908	0.9783	0.056
Mof_C 	C 	0.0878	0.5771	0.9454	0.066
Mof_C 	C 	0.0037	0.5427	0.8866	-0.147
Mof_H 	H 	0.0248	0.4638	0.8656	0.069
Mof_C 	C 	0.9323	0.7741	0.9433	0.079
Mof_H 	H 	0.9079	0.8521	0.9639	-0.031
Mof_C 	C 	0.8873	0.6288	0.8599	0.078
Mof_H 	H 	0.8298	0.6026	0.821	-0.027
Mof_N 	N 	0.852	0.7468	0.8861	-0.261
Mof_N 	N 	0.5843	0.9892	0.895	-0.25
Mof_C 	C 	0.665	0.489	0.227	0.082
Mof_H 	H 	0.751	0.4476	0.2483	-0.038
Mof_C 	C 	0.4555	0.3458	0.0423	-0.127
Mof_H 	H 	0.5368	0.2978	0.0647	0.062
Mof_C 	C 	0.0489	0.6946	0.974	-0.144
Mof_H 	H 	0.1013	0.72	0.0138	0.079
Mof_C 	C 	0.4542	0.1925	0.9528	0.065
Mof_C 	C 	0.3815	0.1282	0.8971	-0.142
Mof_H 	H 	0.2876	0.1522	0.8781	0.068
Mof_C 	C 	0.4487	0.0291	0.8704	0.073
Mof_H 	H 	0.3977	0.9873	0.8332	-0.024
Mof_C 	C 	0.6507	0.049	0.9491	0.082
Mof_H 	H 	0.7433	0.0204	0.9682	-0.027
Mof_C 	C 	0.5927	0.149	0.9786	-0.144
Mof_H 	H 	0.6461	0.1879	0.016	0.079
Mof_Cu	Cu	0.30626	0.37556	0.65318	0.831
Mof_N 	N 	0.3881	0.4116	0.7433	-0.261
Mof_C 	C 	0.5112	0.3565	0.7763	0.076
Mof_H 	H 	0.5523	0.2864	0.7578	-0.031
Mof_C 	C 	0.3964	0.557	0.832	-0.163
Mof_H 	H 	0.3511	0.6255	0.8496	0.072
Mof_C 	C 	0.5817	0.3959	0.8358	-0.146
Mof_H 	H 	0.667	0.352	0.8564	0.076
Mof_C 	C 	0.5249	0.5023	0.8655	0.053
Mof_C 	C 	0.5972	0.5465	0.9306	0.053
Mof_C 	C 	0.6085	0.6935	0.0172	0.042
Mof_N 	N 	0.7174	0.4736	0.9613	-0.126
Mof_C 	C 	0.7314	0.619	0.0493	-0.115
Mof_H 	H 	0.7777	0.6441	0.09	0.062
Mof_C 	C 	0.7846	0.5092	0.0217	0.056
Mof_C 	C 	0.9122	0.4229	0.0546	0.066
Mof_C 	C 	0.9963	0.4573	0.1134	-0.147
Mof_H 	H 	0.9752	0.5362	0.1344	0.069
Mof_C 	C 	0.0677	0.2259	0.0567	0.079
Mof_H 	H 	0.0921	0.1479	0.0361	-0.031
Mof_C 	C 	0.1127	0.3712	0.1401	0.078
Mof_H 	H 	0.1702	0.3974	0.179	-0.027
Mof_N 	N 	0.148	0.2532	0.1139	-0.261
Mof_N 	N 	0.4157	0.0108	0.105	-0.25
Mof_C 	C 	0.335	0.511	0.773	0.082
Mof_H 	H 	0.249	0.5524	0.7517	-0.038
Mof_C 	C 	0.5445	0.6542	0.9577	-0.127
Mof_H 	H 	0.4632	0.7022	0.9353	0.062
Mof_C 	C 	0.9511	0.3054	0.026	-0.144
Mof_H 	H 	0.8987	0.28	0.9862	0.079
Mof_C 	C 	0.5458	0.8075	0.0472	0.065
Mof_C 	C 	0.6185	0.8718	0.1029	-0.142
Mof_H 	H 	0.7124	0.8478	0.1219	0.068
Mof_C 	C 	0.5513	0.9709	0.1296	0.073
Mof_H 	H 	0.6023	0.0127	0.1668	-0.024
Mof_C 	C 	0.3493	0.951	0.0509	0.082
Mof_H 	H 	0.2567	0.9796	0.0318	-0.027
Mof_C 	C 	0.4073	0.851	0.0214	-0.144
Mof_H 	H 	0.3539	0.8121	0.984	0.079
Mof_Cu	Cu	0.30626	0.12444	0.15318	0.831
Mof_N 	N 	0.3881	0.0884	0.2433	-0.261
Mof_C 	C 	0.5112	0.1435	0.2763	0.076
Mof_H 	H 	0.5523	0.2136	0.2578	-0.031
Mof_C 	C 	0.3964	0.943	0.332	-0.163
Mof_H 	H 	0.3511	0.8745	0.3496	0.072
Mof_C 	C 	0.5817	0.1041	0.3358	-0.146
Mof_H 	H 	0.667	0.148	0.3564	0.076
Mof_C 	C 	0.5249	0.9977	0.3655	0.054
Mof_C 	C 	0.5972	0.9535	0.4306	0.052
Mof_C 	C 	0.6085	0.8065	0.5172	0.042
Mof_N 	N 	0.7174	0.0264	0.4613	-0.125
Mof_C 	C 	0.7314	0.881	0.5493	-0.114
Mof_H 	H 	0.7777	0.8559	0.59	0.061
Mof_C 	C 	0.7846	0.9908	0.5217	0.054
Mof_C 	C 	0.9122	0.0771	0.5546	0.065
Mof_C 	C 	0.9963	0.0427	0.6134	-0.141
Mof_H 	H 	0.9752	0.9638	0.6344	0.065
Mof_C 	C 	0.0677	0.2741	0.5567	0.078
Mof_H 	H 	0.0921	0.3521	0.5361	-0.031
Mof_C 	C 	0.1127	0.1288	0.6401	0.074
Mof_H 	H 	0.1702	0.1026	0.679	-0.026
Mof_N 	N 	0.148	0.2468	0.6139	-0.26
Mof_N 	N 	0.4157	0.4892	0.605	-0.25
Mof_C 	C 	0.335	0.989	0.273	0.082
Mof_H 	H 	0.249	0.9476	0.2517	-0.037
Mof_C 	C 	0.5445	0.8458	0.4577	-0.126
Mof_H 	H 	0.4632	0.7978	0.4353	0.062
Mof_C 	C 	0.9511	0.1946	0.526	-0.143
Mof_H 	H 	0.8987	0.22	0.4862	0.079
Mof_C 	C 	0.5458	0.6925	0.5472	0.066
Mof_C 	C 	0.6185	0.6282	0.6029	-0.143
Mof_H 	H 	0.7124	0.6522	0.6219	0.069
Mof_C 	C 	0.5513	0.5291	0.6296	0.074
Mof_H 	H 	0.6023	0.4873	0.6668	-0.025
Mof_C 	C 	0.3493	0.549	0.5509	0.082
Mof_H 	H 	0.2567	0.5204	0.5318	-0.028
Mof_C 	C 	0.4073	0.649	0.5214	-0.144
Mof_H 	H 	0.3539	0.6879	0.484	0.079
_end
