# CIF file generated by openbabel 3.1.0, see https://openbabel.org
data_I
_chemical_name_common 'image0'
_cell_length_a 9.2823
_cell_length_b 14.575
_cell_length_c 19.371
_cell_angle_alpha 90
_cell_angle_beta 98.05
_cell_angle_gamma 90
_space_group_name_H-M_alt 'P 1'
_space_group_name_Hall 'P 1'
loop_
    _symmetry_equiv_pos_as_xyz
    x,y,z
loop_
    _atom_site_label
    _atom_site_type_symbol
    _atom_site_fract_x
    _atom_site_fract_y
    _atom_site_fract_z
    _atom_site_occupancy
    W1       W        0.22714    0.31095    0.34990    1.000
    Cu1      Cu       0.11694    0.14224    0.31144    1.000
    Cu2      Cu       0.20178    0.36407    0.21391    1.000
    Cu3      Cu       0.24557    0.26692    0.48306    1.000
    S1       S        0.03373    0.28398    0.27103    1.000
    S2       S        0.30570    0.17558    0.39802    1.000
    S3       S        0.39869    0.37476    0.30001    1.000
    S4       S        0.16465    0.39880    0.43416    1.000
    N1       N        0.24120    0.08810    0.23260    1.000
    N2       N        0.25000    0.30390    0.12980    1.000
    N3       N        0.90340    0.98320    0.31290    1.000
    N4       N        0.39780    0.94220    0.01950    1.000
    N5       N        0.54130    0.07760    0.03720    1.000
    C1       C        0.97860    0.04530    0.31810    1.000
    C2       C        0.25610    0.27320    0.07580    1.000
    C3       C        0.17600    0.03340    0.18260    1.000
    H1       H        0.08450    0.01060    0.18760    1.000
    C4       C        0.23520    0.00830    0.12410    1.000
    H2       H        0.18480    0.97070    0.09020    1.000
    C5       C        0.37230    0.04100    0.11770    1.000
    C6       C        0.44260    0.09620    0.16920    1.000
    H3       H        0.53580    0.11800    0.16650    1.000
    C7       C        0.37260    0.11830    0.22460    1.000
    H4       H        0.42000    0.15680    0.25880    1.000
    C8       C        0.44220    0.01950    0.05450    1.000
    W2       W        0.77286    0.81095    0.15010    1.000
    Cu4      Cu       0.88306    0.64224    0.18856    1.000
    Cu5      Cu       0.79822    0.86407    0.28609    1.000
    Cu6      Cu       0.75443    0.76692    0.01694    1.000
    S5       S        0.96627    0.78398    0.22897    1.000
    S6       S        0.69430    0.67558    0.10198    1.000
    S7       S        0.60131    0.87476    0.19999    1.000
    S8       S        0.83535    0.89880    0.06584    1.000
    N6       N        0.75880    0.58810    0.26740    1.000
    N7       N        0.75000    0.80390    0.37020    1.000
    N8       N        0.09660    0.48320    0.18710    1.000
    N9       N        0.60220    0.44220    0.48050    1.000
    N10      N        0.45870    0.57760    0.46280    1.000
    C9       C        0.02140    0.54530    0.18190    1.000
    C10      C        0.74390    0.77320    0.42420    1.000
    C11      C        0.82400    0.53340    0.31740    1.000
    H5       H        0.91550    0.51060    0.31240    1.000
    C12      C        0.76480    0.50830    0.37590    1.000
    H6       H        0.81520    0.47070    0.40980    1.000
    C13      C        0.62770    0.54100    0.38230    1.000
    C14      C        0.55740    0.59620    0.33080    1.000
    H7       H        0.46420    0.61800    0.33350    1.000
    C15      C        0.62740    0.61830    0.27540    1.000
    H8       H        0.58000    0.65680    0.24120    1.000
    C16      C        0.55780    0.51950    0.44550    1.000
    W3       W        0.77286    0.68905    0.65010    1.000
    Cu7      Cu       0.88306    0.85776    0.68856    1.000
    Cu8      Cu       0.79822    0.63593    0.78609    1.000
    Cu9      Cu       0.75443    0.73308    0.51694    1.000
    S9       S        0.96627    0.71602    0.72897    1.000
    S10      S        0.69430    0.82442    0.60198    1.000
    S11      S        0.60131    0.62524    0.69999    1.000
    S12      S        0.83535    0.60120    0.56584    1.000
    N11      N        0.75880    0.91190    0.76740    1.000
    N12      N        0.75000    0.69610    0.87020    1.000
    N13      N        0.09660    0.01680    0.68710    1.000
    N14      N        0.60220    0.05780    0.98050    1.000
    N15      N        0.45870    0.92240    0.96280    1.000
    C17      C        0.02140    0.95470    0.68190    1.000
    C18      C        0.74390    0.72680    0.92420    1.000
    C19      C        0.82400    0.96660    0.81740    1.000
    H9       H        0.91550    0.98940    0.81240    1.000
    C20      C        0.76480    0.99170    0.87590    1.000
    H10      H        0.81520    0.02930    0.90980    1.000
    C21      C        0.62770    0.95900    0.88230    1.000
    C22      C        0.55740    0.90380    0.83080    1.000
    H11      H        0.46420    0.88200    0.83350    1.000
    C23      C        0.62740    0.88170    0.77540    1.000
    H12      H        0.58000    0.84320    0.74120    1.000
    C24      C        0.55780    0.98050    0.94550    1.000
    W4       W        0.22714    0.18905    0.84990    1.000
    Cu10     Cu       0.11694    0.35776    0.81144    1.000
    Cu11     Cu       0.20178    0.13593    0.71391    1.000
    Cu12     Cu       0.24557    0.23308    0.98306    1.000
    S13      S        0.03373    0.21602    0.77103    1.000
    S14      S        0.30570    0.32442    0.89802    1.000
    S15      S        0.39869    0.12524    0.80001    1.000
    S16      S        0.16465    0.10120    0.93416    1.000
    N16      N        0.24120    0.41190    0.73260    1.000
    N17      N        0.25000    0.19610    0.62980    1.000
    N18      N        0.90340    0.51680    0.81290    1.000
    N19      N        0.39780    0.55780    0.51950    1.000
    N20      N        0.54130    0.42240    0.53720    1.000
    C25      C        0.97860    0.45470    0.81810    1.000
    C26      C        0.25610    0.22680    0.57580    1.000
    C27      C        0.17600    0.46660    0.68260    1.000
    H13      H        0.08450    0.48940    0.68760    1.000
    C28      C        0.23520    0.49170    0.62410    1.000
    H14      H        0.18480    0.52930    0.59020    1.000
    C29      C        0.37230    0.45900    0.61770    1.000
    C30      C        0.44260    0.40380    0.66920    1.000
    H15      H        0.53580    0.38200    0.66650    1.000
    C31      C        0.37260    0.38170    0.72460    1.000
    H16      H        0.42000    0.34320    0.75880    1.000
    C32      C        0.44220    0.48050    0.55450    1.000
