data_functionalizedCrystal
_audit_creation_method	'EQeq! by Chris Wilmer'
_symmetry_space_group_name_H-M	'P1'
_symmetry_Int_Tables_number	1
_symmetry_cell_setting	triclinic
loop_
_symmetry_equiv_pos_as_xyz
  x,y,z
_cell_length_a	24.9497
_cell_length_b	9.4852
_cell_length_c	21.7319
_cell_angle_alpha	90
_cell_angle_beta	102.261
_cell_angle_gamma	90
loop_
_atom_site_label
_atom_site_type_symbol
_atom_site_fract_x
_atom_site_fract_y
_atom_site_fract_z
_atom_site_charge
Mof_Cu	Cu	0.79709	0.57882	0.47043	0.921
Mof_N 	N 	0.87464	0.6481	0.48242	-0.22
Mof_N 	N 	0.22263	0.9902	0.46251	-0.216
Mof_C 	C 	0.88893	0.7352	0.44069	0.107
Mof_H 	H 	0.8611	0.7692	0.4072	0.008
Mof_C 	C 	0.94214	0.7788	0.4436	-0.171
Mof_H 	H 	0.9502	0.8413	0.4127	0.096
Mof_C 	C 	0.98369	0.7313	0.49167	0.135
Mof_C 	C 	0.96882	0.6401	0.5349	-0.173
Mof_H 	H 	0.996	0.6036	0.5685	0.099
Mof_C 	C 	0.91446	0.6021	0.52926	0.102
Mof_H 	H 	0.9051	0.5408	0.5599	0.002
Mof_C 	C 	0.04143	0.7696	0.49662	-0.105
Mof_H 	H 	0.0682	0.7257	0.5285	0.086
Mof_C 	C 	0.0584	0.8621	0.4591	-0.066
Mof_H 	H 	0.031	0.9073	0.4283	0.056
Mof_C 	C 	0.11561	0.9008	0.46083	0.115
Mof_C 	C 	0.12705	0.9968	0.4168	-0.15
Mof_H 	H 	0.0981	0.0352	0.3858	0.089
Mof_C 	C 	0.18071	0.0362	0.41836	0.101
Mof_H 	H 	0.188	0.0983	0.3868	0.01
Mof_C 	C 	0.21186	0.8969	0.50469	0.1
Mof_H 	H 	0.2416	0.8626	0.536	0.008
Mof_C 	C 	0.15999	0.8484	0.50487	-0.16
Mof_H 	H 	0.1545	0.7798	0.5348	0.101
Mof_Cu	Cu	0.29709	0.07882	0.47043	0.921
Mof_N 	N 	0.37464	0.1481	0.48242	-0.22
Mof_N 	N 	0.72263	0.4902	0.46251	-0.217
Mof_C 	C 	0.38893	0.2352	0.44069	0.107
Mof_H 	H 	0.3611	0.2692	0.4072	0.008
Mof_C 	C 	0.44214	0.2788	0.4436	-0.171
Mof_H 	H 	0.4502	0.3413	0.4127	0.095
Mof_C 	C 	0.48369	0.2313	0.49167	0.135
Mof_C 	C 	0.46882	0.1401	0.5349	-0.173
Mof_H 	H 	0.496	0.1036	0.5685	0.099
Mof_C 	C 	0.41446	0.1021	0.52926	0.102
Mof_H 	H 	0.4051	0.0408	0.5599	0.002
Mof_C 	C 	0.54143	0.2696	0.49662	-0.104
Mof_H 	H 	0.5682	0.2257	0.5285	0.086
Mof_C 	C 	0.5584	0.3621	0.4591	-0.066
Mof_H 	H 	0.531	0.4073	0.4283	0.056
Mof_C 	C 	0.61561	0.4008	0.46083	0.116
Mof_C 	C 	0.62705	0.4968	0.4168	-0.152
Mof_H 	H 	0.5981	0.5352	0.3858	0.09
Mof_C 	C 	0.68071	0.5362	0.41836	0.103
Mof_H 	H 	0.688	0.5983	0.3868	0.009
Mof_C 	C 	0.71186	0.3969	0.50469	0.101
Mof_H 	H 	0.7416	0.3626	0.536	0.008
Mof_C 	C 	0.65999	0.3484	0.50487	-0.16
Mof_H 	H 	0.6545	0.2798	0.5348	0.101
Mof_O 	O 	0.23293	0.798	0.06622	-0.358
Mof_O 	O 	0.30783	0.9235	0.06196	-0.393
Mof_O 	O 	0.2922	0.0367	0.38119	-0.375
Mof_O 	O 	0.36502	0.8923	0.39499	-0.295
Mof_O 	O 	0.17629	0.8052	0.27444	-0.118
Mof_O 	O 	0.24415	0.7495	0.3502	-0.119
Mof_N 	N 	0.22561	0.7992	0.2981	-0.012
Mof_C 	C 	0.27404	0.8665	0.09078	0.337
Mof_C 	C 	0.28696	0.888	0.1612	-0.026
Mof_C 	C 	0.33448	0.9569	0.19135	-0.041
Mof_H 	H 	0.3589	0.9933	0.1672	0.068
Mof_C 	C 	0.34678	0.9733	0.25666	0.026
Mof_H 	H 	0.38	0.0181	0.2766	0.038
Mof_C 	C 	0.311	0.925	0.29253	-0.101
Mof_C 	C 	0.26425	0.8546	0.26154	0.126
Mof_C 	C 	0.25211	0.8339	0.19698	-0.082
Mof_H 	H 	0.2202	0.783	0.1775	0.095
Mof_C 	C 	0.32467	0.9502	0.36326	0.355
Mof_O 	O 	0.73293	0.298	0.06622	-0.358
Mof_O 	O 	0.80783	0.4235	0.06196	-0.393
Mof_O 	O 	0.7922	0.5367	0.38119	-0.375
Mof_O 	O 	0.86502	0.3923	0.39499	-0.295
Mof_O 	O 	0.67629	0.3052	0.27444	-0.119
Mof_O 	O 	0.74415	0.2495	0.3502	-0.119
Mof_N 	N 	0.72561	0.2992	0.2981	-0.012
Mof_C 	C 	0.77404	0.3665	0.09078	0.337
Mof_C 	C 	0.78696	0.388	0.1612	-0.026
Mof_C 	C 	0.83448	0.4569	0.19135	-0.04
Mof_H 	H 	0.8589	0.4933	0.1672	0.067
Mof_C 	C 	0.84678	0.4733	0.25666	0.024
Mof_H 	H 	0.88	0.5181	0.2766	0.039
Mof_C 	C 	0.811	0.425	0.29253	-0.101
Mof_C 	C 	0.76425	0.3546	0.26154	0.125
Mof_C 	C 	0.75211	0.3339	0.19698	-0.082
Mof_H 	H 	0.7202	0.283	0.1775	0.095
Mof_C 	C 	0.82467	0.4502	0.36326	0.355
Mof_O 	O 	0.23293	0.202	0.56622	-0.358
Mof_O 	O 	0.30783	0.0765	0.56196	-0.393
Mof_O 	O 	0.2922	0.9633	0.88119	-0.376
Mof_O 	O 	0.36502	0.1077	0.89499	-0.295
Mof_O 	O 	0.17629	0.1948	0.77444	-0.118
Mof_O 	O 	0.24415	0.2505	0.8502	-0.118
Mof_N 	N 	0.22561	0.2008	0.7981	-0.012
Mof_C 	C 	0.27404	0.1335	0.59078	0.337
Mof_C 	C 	0.28696	0.112	0.6612	-0.026
Mof_C 	C 	0.33448	0.0431	0.69135	-0.041
Mof_H 	H 	0.3589	0.0067	0.6672	0.068
Mof_C 	C 	0.34678	0.0267	0.75666	0.026
Mof_H 	H 	0.38	0.9819	0.7766	0.038
Mof_C 	C 	0.311	0.075	0.79253	-0.102
Mof_C 	C 	0.26425	0.1454	0.76154	0.126
Mof_C 	C 	0.25211	0.1661	0.69698	-0.082
Mof_H 	H 	0.2202	0.217	0.6775	0.095
Mof_C 	C 	0.32467	0.0498	0.86326	0.356
Mof_O 	O 	0.73293	0.702	0.56622	-0.358
Mof_O 	O 	0.80783	0.5765	0.56196	-0.393
Mof_O 	O 	0.7922	0.4633	0.88119	-0.375
Mof_O 	O 	0.86502	0.6077	0.89499	-0.295
Mof_O 	O 	0.67629	0.6948	0.77444	-0.119
Mof_O 	O 	0.74415	0.7505	0.8502	-0.119
Mof_N 	N 	0.72561	0.7008	0.7981	-0.012
Mof_C 	C 	0.77404	0.6335	0.59078	0.338
Mof_C 	C 	0.78696	0.612	0.6612	-0.026
Mof_C 	C 	0.83448	0.5431	0.69135	-0.04
Mof_H 	H 	0.8589	0.5067	0.6672	0.067
Mof_C 	C 	0.84678	0.5267	0.75666	0.024
Mof_H 	H 	0.88	0.4819	0.7766	0.039
Mof_C 	C 	0.811	0.575	0.79253	-0.101
Mof_C 	C 	0.76425	0.6454	0.76154	0.125
Mof_C 	C 	0.75211	0.6661	0.69698	-0.082
Mof_H 	H 	0.7202	0.717	0.6775	0.095
Mof_C 	C 	0.82467	0.5498	0.86326	0.355
Mof_Cu	Cu	0.79709	0.42118	0.97043	0.921
Mof_N 	N 	0.87464	0.3519	0.98242	-0.219
Mof_N 	N 	0.22263	0.0098	0.96251	-0.214
Mof_C 	C 	0.88893	0.2648	0.94069	0.106
Mof_H 	H 	0.8611	0.2308	0.9072	0.008
Mof_C 	C 	0.94214	0.2212	0.9436	-0.17
Mof_H 	H 	0.9502	0.1587	0.9127	0.095
Mof_C 	C 	0.98369	0.2687	0.99167	0.133
Mof_C 	C 	0.96882	0.3599	0.0349	-0.172
Mof_H 	H 	0.996	0.3964	0.0685	0.099
Mof_C 	C 	0.91446	0.3979	0.02926	0.101
Mof_H 	H 	0.9051	0.4592	0.0599	0.002
Mof_C 	C 	0.04143	0.2304	0.99662	-0.1
Mof_H 	H 	0.0682	0.2743	0.0285	0.084
Mof_C 	C 	0.0584	0.1379	0.9591	-0.067
Mof_H 	H 	0.031	0.0927	0.9283	0.057
Mof_C 	C 	0.11561	0.0992	0.96083	0.116
Mof_C 	C 	0.12705	0.0032	0.9168	-0.147
Mof_H 	H 	0.0981	0.9648	0.8858	0.088
Mof_C 	C 	0.18071	0.9638	0.91836	0.098
Mof_H 	H 	0.188	0.9017	0.8868	0.011
Mof_C 	C 	0.21186	0.1031	0.00469	0.099
Mof_H 	H 	0.2416	0.1374	0.036	0.009
Mof_C 	C 	0.15999	0.1516	0.00487	-0.161
Mof_H 	H 	0.1545	0.2202	0.0348	0.101
Mof_Cu	Cu	0.29709	0.92118	0.97043	0.92
Mof_N 	N 	0.37464	0.8519	0.98242	-0.22
Mof_N 	N 	0.72263	0.5098	0.96251	-0.217
Mof_C 	C 	0.38893	0.7648	0.94069	0.107
Mof_H 	H 	0.3611	0.7308	0.9072	0.008
Mof_C 	C 	0.44214	0.7212	0.9436	-0.171
Mof_H 	H 	0.4502	0.6587	0.9127	0.096
Mof_C 	C 	0.48369	0.7687	0.99167	0.134
Mof_C 	C 	0.46882	0.8599	0.0349	-0.173
Mof_H 	H 	0.496	0.8964	0.0685	0.099
Mof_C 	C 	0.41446	0.8979	0.02926	0.103
Mof_H 	H 	0.4051	0.9592	0.0599	0.002
Mof_C 	C 	0.54143	0.7304	0.99662	-0.106
Mof_H 	H 	0.5682	0.7743	0.0285	0.087
Mof_C 	C 	0.5584	0.6379	0.9591	-0.065
Mof_H 	H 	0.531	0.5927	0.9283	0.055
Mof_C 	C 	0.61561	0.5992	0.96083	0.115
Mof_C 	C 	0.62705	0.5032	0.9168	-0.151
Mof_H 	H 	0.5981	0.4648	0.8858	0.09
Mof_C 	C 	0.68071	0.4638	0.91836	0.102
Mof_H 	H 	0.688	0.4017	0.8868	0.009
Mof_C 	C 	0.71186	0.6031	0.00469	0.101
Mof_H 	H 	0.7416	0.6374	0.036	0.009
Mof_C 	C 	0.65999	0.6516	0.00487	-0.159
Mof_H 	H 	0.6545	0.7202	0.0348	0.101
Mof_O 	O 	0.76707	0.798	0.43378	-0.358
Mof_O 	O 	0.69217	0.9235	0.43804	-0.393
Mof_O 	O 	0.7078	0.0367	0.11881	-0.376
Mof_O 	O 	0.63498	0.8923	0.10501	-0.295
Mof_O 	O 	0.82371	0.8052	0.22556	-0.118
Mof_O 	O 	0.75585	0.7495	0.1498	-0.118
Mof_N 	N 	0.77439	0.7992	0.2019	-0.012
Mof_C 	C 	0.72596	0.8665	0.40922	0.337
Mof_C 	C 	0.71304	0.888	0.3388	-0.026
Mof_C 	C 	0.66552	0.9569	0.30865	-0.041
Mof_H 	H 	0.6411	0.9933	0.3328	0.068
Mof_C 	C 	0.65322	0.9733	0.24334	0.026
Mof_H 	H 	0.62	0.0181	0.2234	0.038
Mof_C 	C 	0.689	0.925	0.20747	-0.102
Mof_C 	C 	0.73575	0.8546	0.23846	0.126
Mof_C 	C 	0.74789	0.8339	0.30302	-0.082
Mof_H 	H 	0.7798	0.783	0.3225	0.095
Mof_C 	C 	0.67533	0.9502	0.13674	0.356
Mof_O 	O 	0.26707	0.298	0.43378	-0.358
Mof_O 	O 	0.19217	0.4235	0.43804	-0.393
Mof_O 	O 	0.2078	0.5367	0.11881	-0.375
Mof_O 	O 	0.13498	0.3923	0.10501	-0.295
Mof_O 	O 	0.32371	0.3052	0.22556	-0.119
Mof_O 	O 	0.25585	0.2495	0.1498	-0.119
Mof_N 	N 	0.27439	0.2992	0.2019	-0.012
Mof_C 	C 	0.22596	0.3665	0.40922	0.338
Mof_C 	C 	0.21304	0.388	0.3388	-0.026
Mof_C 	C 	0.16552	0.4569	0.30865	-0.04
Mof_H 	H 	0.1411	0.4933	0.3328	0.067
Mof_C 	C 	0.15322	0.4733	0.24334	0.024
Mof_H 	H 	0.12	0.5181	0.2234	0.039
Mof_C 	C 	0.189	0.425	0.20747	-0.101
Mof_C 	C 	0.23575	0.3546	0.23846	0.125
Mof_C 	C 	0.24789	0.3339	0.30302	-0.082
Mof_H 	H 	0.2798	0.283	0.3225	0.095
Mof_C 	C 	0.17533	0.4502	0.13674	0.355
Mof_Cu	Cu	0.20291	0.57882	0.02957	0.921
Mof_N 	N 	0.12536	0.6481	0.01758	-0.219
Mof_N 	N 	0.77737	0.9902	0.03749	-0.214
Mof_C 	C 	0.11107	0.7352	0.05931	0.106
Mof_H 	H 	0.1389	0.7692	0.0928	0.008
Mof_C 	C 	0.05786	0.7788	0.0564	-0.17
Mof_H 	H 	0.0498	0.8413	0.0873	0.095
Mof_C 	C 	0.01631	0.7313	0.00833	0.133
Mof_C 	C 	0.03118	0.6401	0.9651	-0.172
Mof_H 	H 	0.004	0.6036	0.9315	0.099
Mof_C 	C 	0.08554	0.6021	0.97074	0.101
Mof_H 	H 	0.0949	0.5408	0.9401	0.002
Mof_C 	C 	0.95857	0.7696	0.00338	-0.1
Mof_H 	H 	0.9318	0.7257	0.9715	0.084
Mof_C 	C 	0.9416	0.8621	0.0409	-0.067
Mof_H 	H 	0.969	0.9073	0.0717	0.057
Mof_C 	C 	0.88439	0.9008	0.03917	0.116
Mof_C 	C 	0.87295	0.9968	0.0832	-0.147
Mof_H 	H 	0.9019	0.0352	0.1142	0.088
Mof_C 	C 	0.81929	0.0362	0.08164	0.098
Mof_H 	H 	0.812	0.0983	0.1132	0.011
Mof_C 	C 	0.78814	0.8969	0.99531	0.099
Mof_H 	H 	0.7584	0.8626	0.964	0.009
Mof_C 	C 	0.84001	0.8484	0.99513	-0.161
Mof_H 	H 	0.8455	0.7798	0.9652	0.101
Mof_Cu	Cu	0.70291	0.07882	0.02957	0.92
Mof_N 	N 	0.62536	0.1481	0.01758	-0.22
Mof_N 	N 	0.27737	0.4902	0.03749	-0.217
Mof_C 	C 	0.61107	0.2352	0.05931	0.107
Mof_H 	H 	0.6389	0.2692	0.0928	0.008
Mof_C 	C 	0.55786	0.2788	0.0564	-0.171
Mof_H 	H 	0.5498	0.3413	0.0873	0.096
Mof_C 	C 	0.51631	0.2313	0.00833	0.134
Mof_C 	C 	0.53118	0.1401	0.9651	-0.173
Mof_H 	H 	0.504	0.1036	0.9315	0.099
Mof_C 	C 	0.58554	0.1021	0.97074	0.103
Mof_H 	H 	0.5949	0.0408	0.9401	0.002
Mof_C 	C 	0.45857	0.2696	0.00338	-0.106
Mof_H 	H 	0.4318	0.2257	0.9715	0.087
Mof_C 	C 	0.4416	0.3621	0.0409	-0.065
Mof_H 	H 	0.469	0.4073	0.0717	0.055
Mof_C 	C 	0.38439	0.4008	0.03917	0.115
Mof_C 	C 	0.37295	0.4968	0.0832	-0.151
Mof_H 	H 	0.4019	0.5352	0.1142	0.09
Mof_C 	C 	0.31929	0.5362	0.08164	0.102
Mof_H 	H 	0.312	0.5983	0.1132	0.009
Mof_C 	C 	0.28814	0.3969	0.99531	0.101
Mof_H 	H 	0.2584	0.3626	0.964	0.009
Mof_C 	C 	0.34001	0.3484	0.99513	-0.159
Mof_H 	H 	0.3455	0.2798	0.9652	0.101
Mof_Cu	Cu	0.20291	0.42118	0.52957	0.921
Mof_N 	N 	0.12536	0.3519	0.51758	-0.22
Mof_N 	N 	0.77737	0.0098	0.53749	-0.216
Mof_C 	C 	0.11107	0.2648	0.55931	0.107
Mof_H 	H 	0.1389	0.2308	0.5928	0.008
Mof_C 	C 	0.05786	0.2212	0.5564	-0.171
Mof_H 	H 	0.0498	0.1587	0.5873	0.096
Mof_C 	C 	0.01631	0.2687	0.50833	0.135
Mof_C 	C 	0.03118	0.3599	0.4651	-0.173
Mof_H 	H 	0.004	0.3964	0.4315	0.099
Mof_C 	C 	0.08554	0.3979	0.47074	0.102
Mof_H 	H 	0.0949	0.4592	0.4401	0.002
Mof_C 	C 	0.95857	0.2304	0.50338	-0.105
Mof_H 	H 	0.9318	0.2743	0.4715	0.086
Mof_C 	C 	0.9416	0.1379	0.5409	-0.066
Mof_H 	H 	0.969	0.0927	0.5717	0.056
Mof_C 	C 	0.88439	0.0992	0.53917	0.115
Mof_C 	C 	0.87295	0.0032	0.5832	-0.15
Mof_H 	H 	0.9019	0.9648	0.6142	0.089
Mof_C 	C 	0.81929	0.9638	0.58164	0.101
Mof_H 	H 	0.812	0.9017	0.6132	0.01
Mof_C 	C 	0.78814	0.1031	0.49531	0.1
Mof_H 	H 	0.7584	0.1374	0.464	0.008
Mof_C 	C 	0.84001	0.1516	0.49513	-0.16
Mof_H 	H 	0.8455	0.2202	0.4652	0.101
Mof_Cu	Cu	0.70291	0.92118	0.52957	0.921
Mof_N 	N 	0.62536	0.8519	0.51758	-0.22
Mof_N 	N 	0.27737	0.5098	0.53749	-0.217
Mof_C 	C 	0.61107	0.7648	0.55931	0.107
Mof_H 	H 	0.6389	0.7308	0.5928	0.008
Mof_C 	C 	0.55786	0.7212	0.5564	-0.171
Mof_H 	H 	0.5498	0.6587	0.5873	0.095
Mof_C 	C 	0.51631	0.7687	0.50833	0.135
Mof_C 	C 	0.53118	0.8599	0.4651	-0.173
Mof_H 	H 	0.504	0.8964	0.4315	0.099
Mof_C 	C 	0.58554	0.8979	0.47074	0.102
Mof_H 	H 	0.5949	0.9592	0.4401	0.002
Mof_C 	C 	0.45857	0.7304	0.50338	-0.104
Mof_H 	H 	0.4318	0.7743	0.4715	0.086
Mof_C 	C 	0.4416	0.6379	0.5409	-0.066
Mof_H 	H 	0.469	0.5927	0.5717	0.056
Mof_C 	C 	0.38439	0.5992	0.53917	0.116
Mof_C 	C 	0.37295	0.5032	0.5832	-0.152
Mof_H 	H 	0.4019	0.4648	0.6142	0.09
Mof_C 	C 	0.31929	0.4638	0.58164	0.103
Mof_H 	H 	0.312	0.4017	0.6132	0.009
Mof_C 	C 	0.28814	0.6031	0.49531	0.101
Mof_H 	H 	0.2584	0.6374	0.464	0.008
Mof_C 	C 	0.34001	0.6516	0.49513	-0.16
Mof_H 	H 	0.3455	0.7202	0.4652	0.101
Mof_O 	O 	0.76707	0.202	0.93378	-0.358
Mof_O 	O 	0.69217	0.0765	0.93804	-0.393
Mof_O 	O 	0.7078	0.9633	0.61881	-0.375
Mof_O 	O 	0.63498	0.1077	0.60501	-0.295
Mof_O 	O 	0.82371	0.1948	0.72556	-0.118
Mof_O 	O 	0.75585	0.2505	0.6498	-0.119
Mof_N 	N 	0.77439	0.2008	0.7019	-0.012
Mof_C 	C 	0.72596	0.1335	0.90922	0.337
Mof_C 	C 	0.71304	0.112	0.8388	-0.026
Mof_C 	C 	0.66552	0.0431	0.80865	-0.041
Mof_H 	H 	0.6411	0.0067	0.8328	0.068
Mof_C 	C 	0.65322	0.0267	0.74334	0.026
Mof_H 	H 	0.62	0.9819	0.7234	0.038
Mof_C 	C 	0.689	0.075	0.70747	-0.101
Mof_C 	C 	0.73575	0.1454	0.73846	0.126
Mof_C 	C 	0.74789	0.1661	0.80302	-0.082
Mof_H 	H 	0.7798	0.217	0.8225	0.095
Mof_C 	C 	0.67533	0.0498	0.63674	0.355
Mof_O 	O 	0.26707	0.702	0.93378	-0.358
Mof_O 	O 	0.19217	0.5765	0.93804	-0.393
Mof_O 	O 	0.2078	0.4633	0.61881	-0.375
Mof_O 	O 	0.13498	0.6077	0.60501	-0.295
Mof_O 	O 	0.32371	0.6948	0.72556	-0.119
Mof_O 	O 	0.25585	0.7505	0.6498	-0.119
Mof_N 	N 	0.27439	0.7008	0.7019	-0.012
Mof_C 	C 	0.22596	0.6335	0.90922	0.337
Mof_C 	C 	0.21304	0.612	0.8388	-0.026
Mof_C 	C 	0.16552	0.5431	0.80865	-0.04
Mof_H 	H 	0.1411	0.5067	0.8328	0.067
Mof_C 	C 	0.15322	0.5267	0.74334	0.024
Mof_H 	H 	0.12	0.4819	0.7234	0.039
Mof_C 	C 	0.189	0.575	0.70747	-0.101
Mof_C 	C 	0.23575	0.6454	0.73846	0.125
Mof_C 	C 	0.24789	0.6661	0.80302	-0.082
Mof_H 	H 	0.2798	0.717	0.8225	0.095
Mof_C 	C 	0.17533	0.5498	0.63674	0.355
_end
