data_functionalizedCrystal
_audit_creation_method	'EQeq! by Chris Wilmer'
_symmetry_space_group_name_H-M	'P1'
_symmetry_Int_Tables_number	1
_symmetry_cell_setting	triclinic
loop_
_symmetry_equiv_pos_as_xyz
  x,y,z
_cell_length_a	35.8409
_cell_length_b	42.7516
_cell_length_c	50.813
_cell_angle_alpha	90
_cell_angle_beta	91.528
_cell_angle_gamma	90
loop_
_atom_site_label
_atom_site_type_symbol
_atom_site_fract_x
_atom_site_fract_y
_atom_site_fract_z
_atom_site_charge
Mof_Zn	Zn	0.38589	0.40853	0.19797	1.201
Mof_Zn	Zn	0.43392	0.35294	0.19631	1.199
Mof_Zn	Zn	0.85748	0.35585	0.19508	1.2
Mof_Zn	Zn	0.91014	0.40824	0.19212	1.196
Mof_Zn	Zn	0.14387	0.47468	0.46581	1.194
Mof_Zn	Zn	0.14425	0.5089	0.4157	1.192
Mof_Zn	Zn	0.10391	0.62328	0.21151	1.218
Mof_Zn	Zn	0.15309	0.5824	0.17263	1.182
Mof_Zn	Zn	0.19219	0.62564	0.21532	1.211
Mof_Zn	Zn	0.14734	0.65473	0.16586	1.207
Mof_O 	O 	0.1493	0.62221	0.19211	-0.958
Mof_C 	C 	0.5116	0.26552	0.19444	-0.643
Mof_C 	C 	0.51	0.24141	0.21315	0.343
Mof_H 	H 	0.4931	0.2434	0.2271	-0.072
Mof_C 	C 	0.5321	0.21493	0.21208	-0.253
Mof_H 	H 	0.5307	0.1995	0.2255	0.128
Mof_C 	C 	0.5564	0.2108	0.19163	0.09
Mof_C 	C 	0.5592	0.23448	0.17305	-0.258
Mof_H 	H 	0.5759	0.2322	0.159	0.122
Mof_C 	C 	0.5378	0.26133	0.17476	0.339
Mof_H 	H 	0.541	0.2775	0.1622	-0.088
Mof_B 	B 	0.4852	0.2958	0.1953	1.539
Mof_O 	O 	0.45397	0.28962	0.17588	-0.517
Mof_N 	N 	0.4281	0.31302	0.17229	-0.167
Mof_C 	C 	0.4047	0.3073	0.1539	0.094
Mof_H 	H 	0.4072	0.2877	0.1453	0.024
Mof_C 	C 	0.3746	0.3272	0.1443	-0.201
Mof_C 	C 	0.366	0.3563	0.1565	0.301
Mof_C 	C 	0.3346	0.3732	0.1451	-0.201
Mof_C 	C 	0.3154	0.3626	0.1225	0.14
Mof_H 	H 	0.2957	0.3749	0.1151	-0.035
Mof_C 	C 	0.3246	0.3346	0.1106	-0.282
Mof_C 	C 	0.3541	0.3175	0.1219	0.137
Mof_H 	H 	0.3606	0.2982	0.1139	-0.036
Mof_C 	C 	0.3225	0.4021	0.1563	0.103
Mof_H 	H 	0.2998	0.4106	0.1494	0.021
Mof_N 	N 	0.3389	0.4176	0.1744	-0.168
Mof_O 	O 	0.3193	0.44437	0.17939	-0.545
Mof_B 	B 	0.3346	0.4662	0.199	1.531
Mof_O 	O 	0.50798	0.32215	0.18672	-0.541
Mof_N 	N 	0.4905	0.35155	0.18704	-0.172
Mof_C 	C 	0.5133	0.37312	0.1816	0.1
Mof_H 	H 	0.5381	0.3668	0.1781	0.02
Mof_C 	C 	0.5057	0.40669	0.1802	-0.206
Mof_C 	C 	0.4695	0.41916	0.1838	0.29
Mof_C 	C 	0.4658	0.45201	0.1823	-0.205
Mof_C 	C 	0.4977	0.471	0.179	0.148
Mof_H 	H 	0.4947	0.493	0.179	-0.041
Mof_C 	C 	0.5332	0.45875	0.1757	-0.308
Mof_C 	C 	0.5356	0.42636	0.1753	0.157
Mof_H 	H 	0.5589	0.4171	0.1714	-0.049
Mof_C 	C 	0.4311	0.4688	0.1859	0.098
Mof_H 	H 	0.4314	0.4909	0.1839	0.019
Mof_N 	N 	0.4004	0.45597	0.1916	-0.17
Mof_O 	O 	0.37154	0.47845	0.19392	-0.549
Mof_O 	O 	0.47249	0.2985	0.22213	-0.54
Mof_N 	N 	0.4482	0.32243	0.22748	-0.159
Mof_C 	C 	0.4384	0.32137	0.25124	0.082
Mof_H 	H 	0.4493	0.3054	0.262	0.042
Mof_C 	C 	0.4119	0.34232	0.26364	-0.146
Mof_C 	C 	0.3964	0.36876	0.25007	0.249
Mof_C 	C 	0.3706	0.38767	0.2643	-0.155
Mof_C 	C 	0.361	0.379	0.28976	0.064
Mof_H 	H 	0.3432	0.3914	0.2985	-0.007
Mof_C 	C 	0.3759	0.3534	0.30294	-0.157
Mof_C 	C 	0.4018	0.3354	0.28961	0.065
Mof_H 	H 	0.413	0.3179	0.2983	0.011
Mof_C 	C 	0.3531	0.4153	0.25307	0.075
Mof_H 	H 	0.3379	0.4272	0.2644	0.023
Mof_N 	N 	0.356	0.4254	0.22976	-0.168
Mof_O 	O 	0.3342	0.4522	0.22571	-0.529
Mof_C 	C 	0.3051	0.49403	0.19999	-0.568
Mof_C 	C 	0.252	0.54311	0.20178	-0.028
Mof_C 	C 	0.5802	0.1819	0.19002	0.322
Mof_O 	O 	0.57731	0.16238	0.20815	-0.491
Mof_O 	O 	0.60243	0.18103	0.1712	-0.478
Mof_O 	O 	0.3834	0.36583	0.17686	-0.556
Mof_C 	C 	0.3037	0.3226	0.0859	0.612
Mof_O 	O 	0.44134	0.40084	0.18847	-0.551
Mof_C 	C 	0.568	0.4795	0.1734	0.669
Mof_C 	C 	0.5942	0.4764	0.1987	-0.824
Mof_H 	H 	0.5813	0.4846	0.214	0.257
Mof_H 	H 	0.6006	0.4544	0.2016	0.26
Mof_H 	H 	0.6171	0.4885	0.1962	0.241
Mof_C 	C 	0.594	0.4659	0.1542	-0.971
Mof_H 	H 	0.5969	0.4435	0.1577	0.293
Mof_H 	H 	0.5839	0.469	0.1363	0.286
Mof_H 	H 	0.6183	0.4762	0.1561	0.284
Mof_C 	C 	0.5581	0.5136	0.1729	-0.965
Mof_H 	H 	0.5407	0.5181	0.187	0.293
Mof_H 	H 	0.5808	0.5261	0.1756	0.285
Mof_H 	H 	0.5464	0.5189	0.1558	0.287
Mof_O 	O 	0.40533	0.37603	0.22612	-0.538
Mof_C 	C 	0.3642	0.3449	0.33082	0.357
Mof_C 	C 	0.2237	0.56839	0.2037	0.335
Mof_O 	O 	0.19085	0.56142	0.19611	-0.519
Mof_O 	O 	0.23229	0.59485	0.21289	-0.484
Mof_C 	C 	0.2759	0.4966	0.1809	-0.101
Mof_H 	H 	0.2741	0.4818	0.1671	0.054
Mof_C 	C 	0.2497	0.5204	0.182	-0.271
Mof_H 	H 	0.23	0.5213	0.1692	0.093
Mof_C 	C 	0.2814	0.5418	0.2201	-0.028
Mof_H 	H 	0.284	0.5574	0.2333	0.025
Mof_C 	C 	0.3068	0.5175	0.2189	0.133
Mof_H 	H 	0.3266	0.5169	0.2317	-0.037
Mof_C 	C 	0.3943	0.3491	0.3516	0.008
Mof_H 	H 	0.4177	0.34	0.3454	-0.062
Mof_H 	H 	0.3979	0.3714	0.3551	0.041
Mof_H 	H 	0.387	0.3385	0.3678	-0.013
Mof_C 	C 	0.3567	0.3087	0.3315	-0.479
Mof_H 	H 	0.3371	0.3034	0.3185	0.15
Mof_H 	H 	0.3797	0.2974	0.3275	0.247
Mof_H 	H 	0.3487	0.3027	0.3491	0.159
Mof_C 	C 	0.3268	0.3582	0.3385	-0.208
Mof_H 	H 	0.3085	0.3547	0.3241	0.039
Mof_H 	H 	0.3185	0.3478	0.3544	0.045
Mof_H 	H 	0.3294	0.3807	0.3418	0.065
Mof_C 	C 	0.3289	0.325	0.062	-0.856
Mof_H 	H 	0.3523	0.3138	0.0657	0.26
Mof_H 	H 	0.3161	0.3156	0.0466	0.249
Mof_H 	H 	0.3342	0.347	0.0583	0.259
Mof_C 	C 	0.2672	0.3398	0.0803	-0.889
Mof_H 	H 	0.2551	0.3313	0.0643	0.261
Mof_H 	H 	0.2507	0.3372	0.0952	0.27
Mof_H 	H 	0.2723	0.3621	0.0777	0.269
Mof_C 	C 	0.296	0.2874	0.0893	-0.861
Mof_H 	H 	0.3196	0.2764	0.0929	0.265
Mof_H 	H 	0.2793	0.2843	0.104	0.264
Mof_H 	H 	0.2842	0.2792	0.0731	0.253
Mof_C 	C 	0.1404	0.4217	0.54612	-0.597
Mof_C 	C 	0.1373	0.3937	0.59645	-0.015
Mof_B 	B 	0.1436	0.4389	0.51853	1.573
Mof_O 	O 	0.1418	0.47199	0.5249	-0.556
Mof_N 	N 	0.1395	0.4934	0.50412	-0.162
Mof_C 	C 	0.138	0.5213	0.51192	0.082
Mof_H 	H 	0.1382	0.5246	0.5304	0.018
Mof_C 	C 	0.136	0.54887	0.49532	-0.173
Mof_C 	C 	0.137	0.5477	0.46725	0.28
Mof_C 	C 	0.134	0.5767	0.4535	-0.174
Mof_C 	C 	0.1292	0.6042	0.46792	0.073
Mof_H 	H 	0.126	0.6232	0.4584	-0.003
Mof_C 	C 	0.1289	0.6056	0.49478	-0.159
Mof_C 	C 	0.1318	0.5778	0.5083	0.069
Mof_H 	H 	0.1309	0.578	0.527	-0.012
Mof_C 	C 	0.1359	0.5794	0.42539	0.079
Mof_H 	H 	0.1339	0.6	0.4184	0.03
Mof_N 	N 	0.1398	0.55772	0.4088	-0.164
Mof_O 	O 	0.1407	0.56835	0.38337	-0.525
Mof_B 	B 	0.1457	0.5446	0.36304	1.47
Mof_O 	O 	0.1112	0.42846	0.50317	-0.554
Mof_N 	N 	0.1052	0.4416	0.47851	-0.165
Mof_C 	C 	0.0727	0.4355	0.46934	0.097
Mof_H 	H 	0.0571	0.4228	0.4798	0.018
Mof_C 	C 	0.0577	0.4462	0.44447	-0.206
Mof_C 	C 	0.078	0.4643	0.42574	0.291
Mof_C 	C 	0.0581	0.4732	0.40216	-0.198
Mof_C 	C 	0.0203	0.4655	0.39872	0.156
Mof_H 	H 	0.0075	0.4722	0.3831	-0.025
Mof_C 	C 	0.0005	0.4484	0.41702	-0.313
Mof_C 	C 	0.0199	0.439	0.43926	0.157
Mof_H 	H 	0.007	0.4269	0.4518	-0.047
Mof_C 	C 	0.0748	0.492	0.38172	0.1
Mof_H 	H 	0.061	0.4944	0.3656	0.035
Mof_N 	N 	0.1063	0.50542	0.38373	-0.168
Mof_O 	O 	0.1147	0.52119	0.36128	-0.497
Mof_C 	C 	0.1458	0.5622	0.33514	-0.628
Mof_C 	C 	0.1137	0.5641	0.31886	0.326
Mof_H 	H 	0.0915	0.5541	0.3242	-0.066
Mof_C 	C 	0.1136	0.5803	0.29512	-0.244
Mof_H 	H 	0.0912	0.5821	0.2848	0.125
Mof_C 	C 	0.1462	0.59388	0.28644	0.087
Mof_C 	C 	0.1786	0.5916	0.30171	-0.255
Mof_H 	H 	0.201	0.6009	0.296	0.121
Mof_C 	C 	0.1781	0.5757	0.32556	0.329
Mof_H 	H 	0.2007	0.5739	0.3357	-0.087
Mof_C 	C 	0.1365	0.3808	0.62373	0.299
Mof_O 	O 	0.14858	0.35353	0.62776	-0.47
Mof_O 	O 	0.12	0.3956	0.64072	-0.493
Mof_O 	O 	0.1379	0.52162	0.45522	-0.568
Mof_C 	C 	0.124	0.637	0.5089	0.322
Mof_O 	O 	0.1122	0.47147	0.42989	-0.552
Mof_C 	C 	0.9593	0.4392	0.4133	0.692
Mof_C 	C 	0.9543	0.4034	0.4157	-0.928
Mof_H 	H 	0.9643	0.3963	0.4328	0.281
Mof_H 	H 	0.9278	0.3981	0.414	0.282
Mof_H 	H 	0.9679	0.393	0.4016	0.3
Mof_C 	C 	0.9367	0.4538	0.4355	-0.951
Mof_H 	H 	0.9477	0.4477	0.4526	0.295
Mof_H 	H 	0.9371	0.4766	0.4339	0.297
Mof_H 	H 	0.9108	0.4464	0.4342	0.289
Mof_C 	C 	0.9434	0.4479	0.3867	-1
Mof_H 	H 	0.9584	0.4382	0.373	0.33
Mof_H 	H 	0.9176	0.4404	0.385	0.305
Mof_H 	H 	0.9439	0.4707	0.3847	0.307
Mof_C 	C 	0.1464	0.60984	0.26006	0.309
Mof_O 	O 	0.11526	0.61289	0.24811	-0.48
Mof_O 	O 	0.17775	0.61917	0.25214	-0.473
Mof_O 	O 	0.1748	0.4262	0.5032	-0.35
Mof_C 	C 	0.152	0.3777	0.5756	-0.053
Mof_H 	H 	0.1612	0.3571	0.5781	0.049
Mof_C 	C 	0.1535	0.3916	0.551	0.128
Mof_H 	H 	0.1638	0.3801	0.5369	-0.027
Mof_C 	C 	0.1241	0.437	0.5674	-0.054
Mof_H 	H 	0.1136	0.4571	0.5646	0.033
Mof_C 	C 	0.1227	0.4239	0.5923	-0.258
Mof_H 	H 	0.1121	0.4352	0.6063	0.095
Mof_N 	N 	0.1821	0.4417	0.4807	-0.065
Mof_C 	C 	0.2113	0.4305	0.4708	0.032
Mof_H 	H 	0.2242	0.4144	0.4803	0.033
Mof_C 	C 	0.2263	0.4405	0.446	-0.027
Mof_C 	C 	0.2092	0.4635	0.429	0.046
Mof_C 	C 	0.2263	0.4692	0.4043	0.097
Mof_C 	C 	0.259	0.4532	0.3977	-0.117
Mof_H 	H 	0.2695	0.4569	0.381	0.056
Mof_C 	C 	0.276	0.4323	0.4148	0.04
Mof_C 	C 	0.2594	0.4262	0.4384	-0.067
Mof_H 	H 	0.271	0.4116	0.4501	0.041
Mof_C 	C 	0.212	0.491	0.3848	-0.208
Mof_H 	H 	0.2257	0.493	0.3691	0.101
Mof_N 	N 	0.183	0.5077	0.3866	-0.033
Mof_O 	O 	0.1781	0.5244	0.3639	-0.159
Mof_O 	O 	0.1807	0.4783	0.4359	-0.178
Mof_C 	C 	0.3128	0.4166	0.4077	0.065
Mof_C 	C 	0.3036	0.3817	0.4077	-0.455
Mof_H 	H 	0.2966	0.3752	0.4254	0.148
Mof_H 	H 	0.2828	0.3776	0.3952	0.153
Mof_H 	H 	0.3255	0.3698	0.4024	0.134
Mof_C 	C 	0.3435	0.4244	0.4279	-0.093
Mof_H 	H 	0.3359	0.4175	0.4454	-0.048
Mof_H 	H 	0.3665	0.4135	0.4233	0.031
Mof_H 	H 	0.3478	0.447	0.4281	0.094
Mof_C 	C 	0.3238	0.4269	0.3804	-0.493
Mof_H 	H 	0.3037	0.4217	0.3677	0.155
Mof_H 	H 	0.328	0.4495	0.3804	0.197
Mof_H 	H 	0.3467	0.4161	0.3756	0.14
Mof_C 	C 	0.7757	0.27126	0.19831	-0.699
Mof_C 	C 	0.7809	0.24677	0.2162	0.38
Mof_H 	H 	0.8001	0.2487	0.2293	-0.089
Mof_C 	C 	0.7595	0.22006	0.2158	-0.284
Mof_H 	H 	0.7637	0.2042	0.2287	0.133
Mof_C 	C 	0.7316	0.21636	0.19642	0.104
Mof_C 	C 	0.7248	0.2406	0.17872	-0.293
Mof_H 	H 	0.7053	0.2389	0.1657	0.131
Mof_C 	C 	0.7465	0.26718	0.18018	0.393
Mof_H 	H 	0.7411	0.2836	0.1681	-0.108
Mof_B 	B 	0.803	0.301	0.1979	1.627
Mof_O 	O 	0.7792	0.32932	0.19656	-0.546
Mof_N 	N 	0.7984	0.35825	0.1946	-0.166
Mof_C 	C 	0.7761	0.3813	0.1949	0.087
Mof_H 	H 	0.7503	0.3768	0.1968	0.024
Mof_C 	C 	0.7866	0.41376	0.19279	-0.164
Mof_C 	C 	0.8239	0.42374	0.18964	0.266
Mof_C 	C 	0.82978	0.45658	0.18668	-0.151
Mof_C 	C 	0.79925	0.47757	0.18702	0.066
Mof_H 	H 	0.8038	0.4993	0.185	0.009
Mof_C 	C 	0.76308	0.46731	0.19016	-0.158
Mof_C 	C 	0.7574	0.43531	0.1927	0.069
Mof_H 	H 	0.7327	0.4278	0.1944	-0.001
Mof_C 	C 	0.86685	0.47029	0.18506	0.078
Mof_H 	H 	0.8678	0.4922	0.1822	0.045
Mof_N 	N 	0.89797	0.45645	0.18698	-0.158
Mof_O 	O 	0.92785	0.47662	0.18552	-0.512
Mof_B 	B 	0.9657	0.463	0.189	1.518
Mof_O 	O 	0.8236	0.29622	0.17433	-0.574
Mof_N 	N 	0.8514	0.318	0.16957	-0.167
Mof_C 	C 	0.8675	0.3121	0.1482	0.089
Mof_H 	H 	0.8594	0.2939	0.139	0.03
Mof_C 	C 	0.8967	0.3302	0.13654	-0.177
Mof_C 	C 	0.9119	0.3576	0.14841	0.288
Mof_C 	C 	0.9387	0.37436	0.13328	-0.172
Mof_C 	C 	0.9493	0.3635	0.10865	0.085
Mof_H 	H 	0.9674	0.375	0.0993	-0.006
Mof_C 	C 	0.9345	0.3366	0.09725	-0.161
Mof_C 	C 	0.9087	0.3207	0.1119	0.081
Mof_H 	H 	0.8984	0.302	0.1047	-0.003
Mof_C 	C 	0.9559	0.40291	0.14246	0.079
Mof_H 	H 	0.9729	0.4124	0.1309	0.021
Mof_N 	N 	0.9512	0.41681	0.16396	-0.174
Mof_O 	O 	0.97453	0.44172	0.16732	-0.56
Mof_O 	O 	0.8247	0.30011	0.22242	-0.566
Mof_N 	N 	0.8503	0.3244	0.22597	-0.161
Mof_C 	C 	0.8651	0.3236	0.2488	0.06
Mof_H 	H 	0.8565	0.3075	0.26	0.046
Mof_C 	C 	0.8932	0.3441	0.26007	-0.104
Mof_C 	C 	0.908	0.3696	0.24513	0.216
Mof_C 	C 	0.9346	0.3891	0.25843	-0.092
Mof_C 	C 	0.9454	0.3828	0.28459	-0.067
Mof_C 	C 	0.9056	0.3394	0.28597	-0.029
Mof_C 	C 	0.9521	0.4161	0.24598	0.041
Mof_H 	H 	0.9674	0.4291	0.2569	0.06
Mof_N 	N 	0.9486	0.42343	0.22179	-0.161
Mof_O 	O 	0.9718	0.44841	0.21524	-0.525
Mof_C 	C 	0.99466	0.49142	0.18908	-0.652
Mof_C 	C 	0.9885	0.51961	0.202	0.357
Mof_H 	H 	0.9654	0.5227	0.2104	-0.083
Mof_C 	C 	0.01489	0.54322	0.20287	-0.255
Mof_H 	H 	0.0098	0.5622	0.2118	0.127
Mof_C 	C 	0.04888	0.53924	0.19076	0.08
Mof_C 	C 	0.0555	0.512	0.17729	-0.251
Mof_H 	H 	0.0783	0.5093	0.1684	0.11
Mof_C 	C 	0.02885	0.48849	0.17665	0.336
Mof_H 	H 	0.034	0.4697	0.1674	-0.096
Mof_C 	C 	0.7102	0.1865	0.1935	0.317
Mof_O 	O 	0.71588	0.16651	0.21125	-0.491
Mof_O 	O 	0.68756	0.18449	0.17429	-0.495
Mof_O 	O 	0.85116	0.40421	0.1889	-0.539
Mof_C 	C 	0.7302	0.48983	0.1919	0.348
Mof_O 	O 	0.9006	0.36785	0.17004	-0.564
Mof_C 	C 	0.9473	0.3249	0.0704	0.353
Mof_O 	O 	0.898	0.37411	0.22078	-0.537
Mof_C 	C 	0.07818	0.56436	0.19207	0.35
Mof_O 	O 	0.06901	0.59035	0.20123	-0.481
Mof_O 	O 	0.10982	0.5575	0.18503	-0.495
Mof_C 	C 	0.9343	0.3563	0.2981	0.135
Mof_C 	C 	0.7218	0.51	0.1684	-0.171
Mof_H 	H 	0.745	0.5188	0.162	-0.007
Mof_H 	H 	0.7097	0.4974	0.1545	0.076
Mof_H 	H 	0.705	0.527	0.1734	0.041
Mof_C 	C 	0.7414	0.5127	0.2154	-0.538
Mof_H 	H 	0.7472	0.5004	0.2312	0.181
Mof_H 	H 	0.7633	0.5249	0.2107	0.177
Mof_H 	H 	0.7206	0.5268	0.2187	0.176
Mof_C 	C 	0.6944	0.4762	0.202	-0.288
Mof_H 	H 	0.7001	0.463	0.2173	-0.061
Mof_H 	H 	0.6777	0.4931	0.207	0.099
Mof_H 	H 	0.6824	0.4635	0.1881	0.108
Mof_C 	C 	0.926	0.2966	0.0595	-0.21
Mof_H 	H 	0.9263	0.2799	0.0726	0.056
Mof_H 	H 	0.9001	0.3026	0.0553	0.077
Mof_H 	H 	0.9379	0.2893	0.0435	0.055
Mof_C 	C 	0.9871	0.3126	0.0772	-0.217
Mof_H 	H 	0.0024	0.3297	0.0844	0.058
Mof_H 	H 	0.9857	0.2958	0.0902	-0.003
Mof_H 	H 	0.9984	0.3045	0.0612	0.073
Mof_C 	C 	0.9483	0.3524	0.0513	-0.371
Mof_H 	H 	0.9623	0.3697	0.0594	0.001
Mof_H 	H 	0.9606	0.3458	0.0351	0.12
Mof_H 	H 	0.9228	0.3592	0.0469	0.234
Mof_C 	C 	0.9561	0.3437	0.3223	-0.181
Mof_C 	C 	0.9408	0.313	0.3322	0.058
Mof_H 	H 	0.9431	0.297	0.3185	0.018
Mof_H 	H 	0.955	0.3065	0.3481	0.012
Mof_H 	H 	0.9145	0.3156	0.3364	-0.125
Mof_C 	C 	0.9527	0.3688	0.3434	1.216
Mof_H 	H 	0.9626	0.3886	0.3369	-1.573
Mof_H 	H 	0.9263	0.3715	0.3476	-0.181
Mof_H 	H 	0.9668	0.3624	0.3593	-0.382
Mof_C 	C 	0.9974	0.3377	0.3176	-0.015
Mof_H 	H 	0.009	0.3569	0.3111	0.007
Mof_H 	H 	0.0099	0.3313	0.3341	0.047
Mof_H 	H 	0.9999	0.3211	0.3045	0.02
Mof_C 	C 	0.0922	0.6363	0.5285	-0.196
Mof_H 	H 	0.0956	0.6183	0.5402	0.071
Mof_H 	H 	0.0925	0.6556	0.5388	0.057
Mof_H 	H 	0.0683	0.6344	0.5188	0.041
Mof_C 	C 	0.1184	0.6652	0.4906	-0.184
Mof_H 	H 	0.1386	0.6659	0.478	0.058
Mof_H 	H 	0.0944	0.6633	0.4811	0.06
Mof_H 	H 	0.1186	0.6844	0.5011	0.051
Mof_C 	C 	0.1613	0.644	0.5239	-0.33
Mof_H 	H 	0.167	0.6269	0.5362	0.093
Mof_H 	H 	0.1814	0.6459	0.5113	0.057
Mof_H 	H 	0.1591	0.6636	0.5337	0.103
Mof_C 	C 	0.2679	0.4895	0.1918	0.298
Mof_H 	H 	0.2603	0.4696	0.1854	-0.071
Mof_C 	C 	0.2417	0.5133	0.1929	0.145
Mof_H 	H 	0.2166	0.5094	0.1875	-0.017
Mof_C 	C 	0.2878	0.5472	0.212	-0.097
Mof_H 	H 	0.2949	0.5666	0.2196	0.059
Mof_C 	C 	0.3134	0.523	0.2111	0.067
Mof_H 	H 	0.3378	0.5263	0.2185	-0.004
Mof_C 	C 	0.3881	0.3204	0.3438	-0.194
Mof_H 	H 	0.4144	0.3265	0.3431	0.129
Mof_H 	H 	0.3811	0.3181	0.3622	0.069
Mof_H 	H 	0.3844	0.3004	0.3347	-0.058
Mof_C 	C 	0.3227	0.3377	0.3309	-0.147
Mof_H 	H 	0.3089	0.3547	0.3221	0.072
Mof_H 	H 	0.3179	0.318	0.3215	0.045
Mof_H 	H 	0.3146	0.3358	0.349	0.06
Mof_C 	C 	0.3723	0.3744	0.3482	-0.597
Mof_H 	H 	0.3578	0.3921	0.3412	0.171
Mof_H 	H 	0.3652	0.3702	0.3663	0.176
Mof_H 	H 	0.3989	0.3794	0.3479	0.152
Mof_O 	O 	0.1825	0.4368	0.5092	-0.204
Mof_C 	C 	0.1104	0.4263	0.5625	0.281
Mof_H 	H 	0.0903	0.4391	0.5564	-0.074
Mof_C 	C 	0.1086	0.413	0.5872	0.105
Mof_H 	H 	0.0878	0.417	0.5979	0.002
Mof_C 	C 	0.1662	0.3864	0.5797	-0.093
Mof_H 	H 	0.1848	0.3717	0.5851	0.048
Mof_C 	C 	0.1677	0.4006	0.5553	0.092
Mof_H 	H 	0.188	0.3959	0.5443	-0.011
Mof_N 	N 	0.1903	0.4514	0.4848	-0.101
Mof_C 	C 	0.2242	0.447	0.4792	-0.016
Mof_H 	H 	0.2394	0.4356	0.4915	0.043
Mof_C 	C 	0.2417	0.4581	0.4554	-0.045
Mof_C 	C 	0.222	0.4764	0.4357	0.116
Mof_C 	C 	0.2432	0.4883	0.4143	-0.181
Mof_C 	C 	0.2814	0.4813	0.413	0.065
Mof_H 	H 	0.2952	0.4899	0.399	-0.012
Mof_C 	C 	0.2997	0.462	0.4315	-0.076
Mof_C 	C 	0.2795	0.4514	0.4525	0.007
Mof_H 	H 	0.292	0.4391	0.4656	0.016
Mof_C 	C 	0.2264	0.5061	0.393	0.214
Mof_H 	H 	0.2428	0.5137	0.38	-0.04
Mof_N 	N 	0.1921	0.5128	0.3898	-0.108
Mof_O 	O 	0.1836	0.531	0.3679	-0.34
Mof_O 	O 	0.1866	0.4811	0.4366	-0.275
Mof_C 	C 	0.3407	0.4535	0.4273	0.118
Mof_C 	C 	0.3585	0.4369	0.4504	-0.52
Mof_H 	H 	0.3553	0.4494	0.4664	0.164
Mof_H 	H 	0.3467	0.4164	0.4526	0.222
Mof_H 	H 	0.3852	0.4341	0.4474	0.155
Mof_C 	C 	0.3628	0.484	0.424	-0.462
Mof_H 	H 	0.3522	0.4958	0.409	0.141
Mof_H 	H 	0.3612	0.4967	0.44	0.148
Mof_H 	H 	0.389	0.4791	0.4207	0.135
Mof_C 	C 	0.3439	0.4362	0.4011	-0.149
Mof_H 	H 	0.3317	0.4485	0.3871	-0.019
Mof_H 	H 	0.3704	0.4334	0.3972	0.034
Mof_H 	H 	0.3318	0.4157	0.4023	0.143
Mof_C 	C 	0.0844	0.6497	0.5009	-0.348
Mof_H 	H 	0.0826	0.6521	0.4817	0.093
Mof_H 	H 	0.0654	0.6349	0.5066	0.104
Mof_H 	H 	0.0805	0.67	0.5093	0.113
Mof_C 	C 	0.1518	0.6618	0.501	-0.193
Mof_H 	H 	0.1514	0.6638	0.4817	0.041
Mof_H 	H 	0.1451	0.6819	0.5088	0.055
Mof_H 	H 	0.1769	0.6557	0.5072	0.083
Mof_C 	C 	0.1246	0.634	0.5386	-0.176
Mof_H 	H 	0.1066	0.618	0.5437	0.019
Mof_H 	H 	0.1497	0.628	0.5448	0.049
Mof_H 	H 	0.1179	0.6541	0.5464	0.049
Mof_C 	C 	0.7	0.4798	0.1709	-0.363
Mof_H 	H 	0.6921	0.4583	0.1743	0.079
Mof_H 	H 	0.6784	0.4938	0.1718	0.099
Mof_H 	H 	0.7104	0.4811	0.1533	0.082
Mof_C 	C 	0.7402	0.5229	0.1848	-0.169
Mof_H 	H 	0.7523	0.5231	0.1677	0.112
Mof_H 	H 	0.7174	0.5357	0.1836	0.054
Mof_H 	H 	0.7572	0.5316	0.1983	0.03
Mof_C 	C 	0.7112	0.4883	0.2183	-0.032
Mof_H 	H 	0.7051	0.4665	0.2223	0.159
Mof_H 	H 	0.728	0.4967	0.2321	0.001
Mof_H 	H 	0.6882	0.5008	0.2174	-0.013
Mof_C 	C 	0.9558	0.2899	0.0717	-0.342
Mof_H 	H 	0.9343	0.2787	0.0787	0.092
Mof_H 	H 	0.9609	0.2821	0.054	0.107
Mof_H 	H 	0.9777	0.2863	0.0833	0.158
Mof_C 	C 	0.9801	0.3433	0.0597	-0.26
Mof_H 	H 	0.9738	0.3656	0.0591	0.167
Mof_H 	H 	0.0022	0.3402	0.0712	0.078
Mof_H 	H 	0.9853	0.336	0.0419	0.061
Mof_C 	C 	0.9157	0.33	0.0495	-0.116
Mof_H 	H 	0.9097	0.3523	0.0483	-0.087
Mof_H 	H 	0.9239	0.3225	0.0323	0.049
Mof_H 	H 	0.8934	0.3183	0.0545	0.026
Mof_C 	C 	0.9285	0.3601	0.2996	0.045
Mof_C 	C 	0.9286	0.3623	0.3297	-0.66
Mof_C 	C 	0.917	0.3317	0.342	0.378
Mof_H 	H 	0.8922	0.3257	0.3351	-0.032
Mof_H 	H 	0.9351	0.3154	0.3377	-0.066
Mof_H 	H 	0.9162	0.3341	0.3612	-0.096
Mof_C 	C 	0.9669	0.374	0.339	0.629
Mof_H 	H 	0.9724	0.3938	0.3303	1.017
Mof_H 	H 	0.967	0.3772	0.3581	-0.083
Mof_H 	H 	0.9859	0.3585	0.3347	-0.279
Mof_C 	C 	0.8999	0.3858	0.3401	0.297
Mof_H 	H 	0.9051	0.4066	0.3331	-0.046
Mof_H 	H 	0.8747	0.3793	0.3344	-0.058
Mof_H 	H 	0.9016	0.3863	0.3594	-0.053
Mof_Zn	Zn	0.88589	0.90853	0.19797	1.2
Mof_Zn	Zn	0.93392	0.85294	0.19631	1.198
Mof_Zn	Zn	0.35748	0.85585	0.19508	1.199
Mof_Zn	Zn	0.41014	0.90824	0.19212	1.195
Mof_Zn	Zn	0.64387	0.97468	0.46581	1.193
Mof_Zn	Zn	0.64425	0.0089	0.4157	1.191
Mof_Zn	Zn	0.60391	0.12328	0.21151	1.217
Mof_Zn	Zn	0.65309	0.0824	0.17263	1.181
Mof_Zn	Zn	0.69219	0.12564	0.21532	1.21
Mof_Zn	Zn	0.64734	0.15473	0.16586	1.206
Mof_O 	O 	0.6493	0.12221	0.19211	-0.959
Mof_C 	C 	0.0116	0.76552	0.19444	-0.644
Mof_C 	C 	0.01	0.74141	0.21315	0.342
Mof_H 	H 	0.9931	0.7434	0.2271	-0.073
Mof_C 	C 	0.0321	0.71493	0.21208	-0.254
Mof_H 	H 	0.0307	0.6995	0.2255	0.127
Mof_C 	C 	0.0564	0.7108	0.19163	0.089
Mof_C 	C 	0.0592	0.73448	0.17305	-0.259
Mof_H 	H 	0.0759	0.7322	0.159	0.122
Mof_C 	C 	0.0378	0.76133	0.17476	0.339
Mof_H 	H 	0.041	0.7775	0.1622	-0.088
Mof_B 	B 	0.9852	0.7958	0.1953	1.539
Mof_O 	O 	0.95397	0.78962	0.17588	-0.517
Mof_N 	N 	0.9281	0.81302	0.17229	-0.167
Mof_C 	C 	0.9047	0.8073	0.1539	0.094
Mof_H 	H 	0.9072	0.7877	0.1453	0.024
Mof_C 	C 	0.8746	0.8272	0.1443	-0.201
Mof_C 	C 	0.866	0.8563	0.1565	0.301
Mof_C 	C 	0.8346	0.8732	0.1451	-0.201
Mof_C 	C 	0.8154	0.8626	0.1225	0.14
Mof_H 	H 	0.7957	0.8749	0.1151	-0.035
Mof_C 	C 	0.8246	0.8346	0.1106	-0.282
Mof_C 	C 	0.8541	0.8175	0.1219	0.137
Mof_H 	H 	0.8606	0.7982	0.1139	-0.036
Mof_C 	C 	0.8225	0.9021	0.1563	0.103
Mof_H 	H 	0.7998	0.9106	0.1494	0.021
Mof_N 	N 	0.8389	0.9176	0.1744	-0.168
Mof_O 	O 	0.8193	0.94437	0.17939	-0.545
Mof_B 	B 	0.8346	0.9662	0.199	1.531
Mof_O 	O 	0.00798	0.82215	0.18672	-0.541
Mof_N 	N 	0.9905	0.85155	0.18704	-0.172
Mof_C 	C 	0.0133	0.87312	0.1816	0.1
Mof_H 	H 	0.0381	0.8668	0.1781	0.02
Mof_C 	C 	0.0057	0.90669	0.1802	-0.206
Mof_C 	C 	0.9695	0.91916	0.1838	0.29
Mof_C 	C 	0.9658	0.95201	0.1823	-0.205
Mof_C 	C 	0.9977	0.971	0.179	0.148
Mof_H 	H 	0.9947	0.993	0.179	-0.041
Mof_C 	C 	0.0332	0.95875	0.1757	-0.308
Mof_C 	C 	0.0356	0.92636	0.1753	0.157
Mof_H 	H 	0.0589	0.9171	0.1714	-0.049
Mof_C 	C 	0.9311	0.9688	0.1859	0.098
Mof_H 	H 	0.9314	0.9909	0.1839	0.019
Mof_N 	N 	0.9004	0.95597	0.1916	-0.17
Mof_O 	O 	0.87154	0.97845	0.19392	-0.549
Mof_O 	O 	0.97249	0.7985	0.22213	-0.54
Mof_N 	N 	0.9482	0.82243	0.22748	-0.159
Mof_C 	C 	0.9384	0.82137	0.25124	0.082
Mof_H 	H 	0.9493	0.8054	0.262	0.042
Mof_C 	C 	0.9119	0.84232	0.26364	-0.146
Mof_C 	C 	0.8964	0.86876	0.25007	0.249
Mof_C 	C 	0.8706	0.88767	0.2643	-0.155
Mof_C 	C 	0.861	0.879	0.28976	0.064
Mof_H 	H 	0.8432	0.8914	0.2985	-0.007
Mof_C 	C 	0.8759	0.8534	0.30294	-0.157
Mof_C 	C 	0.9018	0.8354	0.28961	0.065
Mof_H 	H 	0.913	0.8179	0.2983	0.011
Mof_C 	C 	0.8531	0.9153	0.25307	0.075
Mof_H 	H 	0.8379	0.9272	0.2644	0.023
Mof_N 	N 	0.856	0.9254	0.22976	-0.168
Mof_O 	O 	0.8342	0.9522	0.22571	-0.529
Mof_C 	C 	0.8051	0.99403	0.19999	-0.568
Mof_C 	C 	0.752	0.04311	0.20178	-0.028
Mof_C 	C 	0.0802	0.6819	0.19002	0.322
Mof_O 	O 	0.07731	0.66238	0.20815	-0.491
Mof_O 	O 	0.10243	0.68103	0.1712	-0.478
Mof_O 	O 	0.8834	0.86583	0.17686	-0.556
Mof_C 	C 	0.8037	0.8226	0.0859	0.612
Mof_O 	O 	0.94134	0.90084	0.18847	-0.551
Mof_C 	C 	0.068	0.9795	0.1734	0.669
Mof_C 	C 	0.0942	0.9764	0.1987	-0.824
Mof_H 	H 	0.0813	0.9846	0.214	0.257
Mof_H 	H 	0.1006	0.9544	0.2016	0.26
Mof_H 	H 	0.1171	0.9885	0.1962	0.241
Mof_C 	C 	0.094	0.9659	0.1542	-0.971
Mof_H 	H 	0.0969	0.9435	0.1577	0.293
Mof_H 	H 	0.0839	0.969	0.1363	0.286
Mof_H 	H 	0.1183	0.9762	0.1561	0.284
Mof_C 	C 	0.0581	0.0136	0.1729	-0.965
Mof_H 	H 	0.0407	0.0181	0.187	0.293
Mof_H 	H 	0.0808	0.0261	0.1756	0.285
Mof_H 	H 	0.0464	0.0189	0.1558	0.287
Mof_O 	O 	0.90533	0.87603	0.22612	-0.538
Mof_C 	C 	0.8642	0.8449	0.33082	0.357
Mof_C 	C 	0.7237	0.06839	0.2037	0.335
Mof_O 	O 	0.69085	0.06142	0.19611	-0.519
Mof_O 	O 	0.73229	0.09485	0.21289	-0.484
Mof_C 	C 	0.7759	0.9966	0.1809	-0.101
Mof_H 	H 	0.7741	0.9818	0.1671	0.054
Mof_C 	C 	0.7497	0.0204	0.182	-0.271
Mof_H 	H 	0.73	0.0213	0.1692	0.093
Mof_C 	C 	0.7814	0.0418	0.2201	-0.028
Mof_H 	H 	0.784	0.0574	0.2333	0.025
Mof_C 	C 	0.8068	0.0175	0.2189	0.133
Mof_H 	H 	0.8266	0.0169	0.2317	-0.037
Mof_C 	C 	0.8943	0.8491	0.3516	0.008
Mof_H 	H 	0.9177	0.84	0.3454	-0.062
Mof_H 	H 	0.8979	0.8714	0.3551	0.041
Mof_H 	H 	0.887	0.8385	0.3678	-0.013
Mof_C 	C 	0.8567	0.8087	0.3315	-0.479
Mof_H 	H 	0.8371	0.8034	0.3185	0.15
Mof_H 	H 	0.8797	0.7974	0.3275	0.247
Mof_H 	H 	0.8487	0.8027	0.3491	0.159
Mof_C 	C 	0.8268	0.8582	0.3385	-0.208
Mof_H 	H 	0.8085	0.8547	0.3241	0.039
Mof_H 	H 	0.8185	0.8478	0.3544	0.045
Mof_H 	H 	0.8294	0.8807	0.3418	0.065
Mof_C 	C 	0.8289	0.825	0.062	-0.856
Mof_H 	H 	0.8523	0.8138	0.0657	0.26
Mof_H 	H 	0.8161	0.8156	0.0466	0.249
Mof_H 	H 	0.8342	0.847	0.0583	0.259
Mof_C 	C 	0.7672	0.8398	0.0803	-0.889
Mof_H 	H 	0.7551	0.8313	0.0643	0.261
Mof_H 	H 	0.7507	0.8372	0.0952	0.27
Mof_H 	H 	0.7723	0.8621	0.0777	0.269
Mof_C 	C 	0.796	0.7874	0.0893	-0.861
Mof_H 	H 	0.8196	0.7764	0.0929	0.265
Mof_H 	H 	0.7793	0.7843	0.104	0.264
Mof_H 	H 	0.7842	0.7792	0.0731	0.253
Mof_C 	C 	0.6404	0.9217	0.54612	-0.597
Mof_C 	C 	0.6373	0.8937	0.59645	-0.015
Mof_B 	B 	0.6436	0.9389	0.51853	1.573
Mof_O 	O 	0.6418	0.97199	0.5249	-0.556
Mof_N 	N 	0.6395	0.9934	0.50412	-0.162
Mof_C 	C 	0.638	0.0213	0.51192	0.082
Mof_H 	H 	0.6382	0.0246	0.5304	0.018
Mof_C 	C 	0.636	0.04887	0.49532	-0.173
Mof_C 	C 	0.637	0.0477	0.46725	0.28
Mof_C 	C 	0.634	0.0767	0.4535	-0.174
Mof_C 	C 	0.6292	0.1042	0.46792	0.073
Mof_H 	H 	0.626	0.1232	0.4584	-0.003
Mof_C 	C 	0.6289	0.1056	0.49478	-0.159
Mof_C 	C 	0.6318	0.0778	0.5083	0.069
Mof_H 	H 	0.6309	0.078	0.527	-0.012
Mof_C 	C 	0.6359	0.0794	0.42539	0.079
Mof_H 	H 	0.6339	0.1	0.4184	0.03
Mof_N 	N 	0.6398	0.05772	0.4088	-0.164
Mof_O 	O 	0.6407	0.06835	0.38337	-0.525
Mof_B 	B 	0.6457	0.0446	0.36304	1.47
Mof_O 	O 	0.6112	0.92846	0.50317	-0.554
Mof_N 	N 	0.6052	0.9416	0.47851	-0.165
Mof_C 	C 	0.5727	0.9355	0.46934	0.097
Mof_H 	H 	0.5571	0.9228	0.4798	0.018
Mof_C 	C 	0.5577	0.9462	0.44447	-0.206
Mof_C 	C 	0.578	0.9643	0.42574	0.291
Mof_C 	C 	0.5581	0.9732	0.40216	-0.198
Mof_C 	C 	0.5203	0.9655	0.39872	0.156
Mof_H 	H 	0.5075	0.9722	0.3831	-0.025
Mof_C 	C 	0.5005	0.9484	0.41702	-0.313
Mof_C 	C 	0.5199	0.939	0.43926	0.157
Mof_H 	H 	0.507	0.9269	0.4518	-0.047
Mof_C 	C 	0.5748	0.992	0.38172	0.1
Mof_H 	H 	0.561	0.9944	0.3656	0.035
Mof_N 	N 	0.6063	0.00542	0.38373	-0.168
Mof_O 	O 	0.6147	0.02119	0.36128	-0.497
Mof_C 	C 	0.6458	0.0622	0.33514	-0.628
Mof_C 	C 	0.6137	0.0641	0.31886	0.326
Mof_H 	H 	0.5915	0.0541	0.3242	-0.066
Mof_C 	C 	0.6136	0.0803	0.29512	-0.244
Mof_H 	H 	0.5912	0.0821	0.2848	0.125
Mof_C 	C 	0.6462	0.09388	0.28644	0.087
Mof_C 	C 	0.6786	0.0916	0.30171	-0.255
Mof_H 	H 	0.701	0.1009	0.296	0.121
Mof_C 	C 	0.6781	0.0757	0.32556	0.329
Mof_H 	H 	0.7007	0.0739	0.3357	-0.087
Mof_C 	C 	0.6365	0.8808	0.62373	0.299
Mof_O 	O 	0.64858	0.85353	0.62776	-0.47
Mof_O 	O 	0.62	0.8956	0.64072	-0.493
Mof_O 	O 	0.6379	0.02162	0.45522	-0.568
Mof_C 	C 	0.624	0.137	0.5089	0.322
Mof_O 	O 	0.6122	0.97147	0.42989	-0.552
Mof_C 	C 	0.4593	0.9392	0.4133	0.692
Mof_C 	C 	0.4543	0.9034	0.4157	-0.928
Mof_H 	H 	0.4643	0.8963	0.4328	0.281
Mof_H 	H 	0.4278	0.8981	0.414	0.282
Mof_H 	H 	0.4679	0.893	0.4016	0.3
Mof_C 	C 	0.4367	0.9538	0.4355	-0.951
Mof_H 	H 	0.4477	0.9477	0.4526	0.295
Mof_H 	H 	0.4371	0.9766	0.4339	0.297
Mof_H 	H 	0.4108	0.9464	0.4342	0.289
Mof_C 	C 	0.4434	0.9479	0.3867	-1
Mof_H 	H 	0.4584	0.9382	0.373	0.33
Mof_H 	H 	0.4176	0.9404	0.385	0.305
Mof_H 	H 	0.4439	0.9707	0.3847	0.307
Mof_C 	C 	0.6464	0.10984	0.26006	0.309
Mof_O 	O 	0.61526	0.11289	0.24811	-0.48
Mof_O 	O 	0.67775	0.11917	0.25214	-0.473
Mof_O 	O 	0.6748	0.9262	0.5032	-0.35
Mof_C 	C 	0.652	0.8777	0.5756	-0.053
Mof_H 	H 	0.6612	0.8571	0.5781	0.049
Mof_C 	C 	0.6535	0.8916	0.551	0.128
Mof_H 	H 	0.6638	0.8801	0.5369	-0.027
Mof_C 	C 	0.6241	0.937	0.5674	-0.054
Mof_H 	H 	0.6136	0.9571	0.5646	0.033
Mof_C 	C 	0.6227	0.9239	0.5923	-0.258
Mof_H 	H 	0.6121	0.9352	0.6063	0.095
Mof_N 	N 	0.6821	0.9417	0.4807	-0.065
Mof_C 	C 	0.7113	0.9305	0.4708	0.032
Mof_H 	H 	0.7242	0.9144	0.4803	0.033
Mof_C 	C 	0.7263	0.9405	0.446	-0.027
Mof_C 	C 	0.7092	0.9635	0.429	0.046
Mof_C 	C 	0.7263	0.9692	0.4043	0.097
Mof_C 	C 	0.759	0.9532	0.3977	-0.117
Mof_H 	H 	0.7695	0.9569	0.381	0.056
Mof_C 	C 	0.776	0.9323	0.4148	0.04
Mof_C 	C 	0.7594	0.9262	0.4384	-0.067
Mof_H 	H 	0.771	0.9116	0.4501	0.041
Mof_C 	C 	0.712	0.991	0.3848	-0.208
Mof_H 	H 	0.7257	0.993	0.3691	0.101
Mof_N 	N 	0.683	0.0077	0.3866	-0.033
Mof_O 	O 	0.6781	0.0244	0.3639	-0.159
Mof_O 	O 	0.6807	0.9783	0.4359	-0.178
Mof_C 	C 	0.8128	0.9166	0.4077	0.065
Mof_C 	C 	0.8036	0.8817	0.4077	-0.455
Mof_H 	H 	0.7966	0.8752	0.4254	0.148
Mof_H 	H 	0.7828	0.8776	0.3952	0.153
Mof_H 	H 	0.8255	0.8698	0.4024	0.134
Mof_C 	C 	0.8435	0.9244	0.4279	-0.093
Mof_H 	H 	0.8359	0.9175	0.4454	-0.048
Mof_H 	H 	0.8665	0.9135	0.4233	0.031
Mof_H 	H 	0.8478	0.947	0.4281	0.094
Mof_C 	C 	0.8238	0.9269	0.3804	-0.493
Mof_H 	H 	0.8037	0.9217	0.3677	0.155
Mof_H 	H 	0.828	0.9495	0.3804	0.197
Mof_H 	H 	0.8467	0.9161	0.3756	0.14
Mof_C 	C 	0.2757	0.77126	0.19831	-0.699
Mof_C 	C 	0.2809	0.74677	0.2162	0.38
Mof_H 	H 	0.3001	0.7487	0.2293	-0.088
Mof_C 	C 	0.2595	0.72006	0.2158	-0.284
Mof_H 	H 	0.2637	0.7042	0.2287	0.133
Mof_C 	C 	0.2316	0.71636	0.19642	0.104
Mof_C 	C 	0.2248	0.7406	0.17872	-0.293
Mof_H 	H 	0.2053	0.7389	0.1657	0.131
Mof_C 	C 	0.2465	0.76718	0.18018	0.393
Mof_H 	H 	0.2411	0.7836	0.1681	-0.108
Mof_B 	B 	0.303	0.801	0.1979	1.627
Mof_O 	O 	0.2792	0.82932	0.19656	-0.546
Mof_N 	N 	0.2984	0.85825	0.1946	-0.166
Mof_C 	C 	0.2761	0.8813	0.1949	0.087
Mof_H 	H 	0.2503	0.8768	0.1968	0.024
Mof_C 	C 	0.2866	0.91376	0.19279	-0.164
Mof_C 	C 	0.3239	0.92374	0.18964	0.266
Mof_C 	C 	0.32978	0.95658	0.18668	-0.151
Mof_C 	C 	0.29925	0.97757	0.18702	0.066
Mof_H 	H 	0.3038	0.9993	0.185	0.009
Mof_C 	C 	0.26308	0.96731	0.19016	-0.158
Mof_C 	C 	0.2574	0.93531	0.1927	0.069
Mof_H 	H 	0.2327	0.9278	0.1944	-0.001
Mof_C 	C 	0.36685	0.97029	0.18506	0.078
Mof_H 	H 	0.3678	0.9922	0.1822	0.045
Mof_N 	N 	0.39797	0.95645	0.18698	-0.158
Mof_O 	O 	0.42785	0.97662	0.18552	-0.512
Mof_B 	B 	0.4657	0.963	0.189	1.518
Mof_O 	O 	0.3236	0.79622	0.17433	-0.574
Mof_N 	N 	0.3514	0.818	0.16957	-0.167
Mof_C 	C 	0.3675	0.8121	0.1482	0.089
Mof_H 	H 	0.3594	0.7939	0.139	0.03
Mof_C 	C 	0.3967	0.8302	0.13654	-0.177
Mof_C 	C 	0.4119	0.8576	0.14841	0.288
Mof_C 	C 	0.4387	0.87436	0.13328	-0.172
Mof_C 	C 	0.4493	0.8635	0.10865	0.085
Mof_H 	H 	0.4674	0.875	0.0993	-0.006
Mof_C 	C 	0.4345	0.8366	0.09725	-0.161
Mof_C 	C 	0.4087	0.8207	0.1119	0.081
Mof_H 	H 	0.3984	0.802	0.1047	-0.003
Mof_C 	C 	0.4559	0.90291	0.14246	0.079
Mof_H 	H 	0.4729	0.9124	0.1309	0.021
Mof_N 	N 	0.4512	0.91681	0.16396	-0.174
Mof_O 	O 	0.47453	0.94172	0.16732	-0.56
Mof_O 	O 	0.3247	0.80011	0.22242	-0.566
Mof_N 	N 	0.3503	0.8244	0.22597	-0.161
Mof_C 	C 	0.3651	0.8236	0.2488	0.06
Mof_H 	H 	0.3565	0.8075	0.26	0.046
Mof_C 	C 	0.3932	0.8441	0.26007	-0.104
Mof_C 	C 	0.408	0.8696	0.24513	0.216
Mof_C 	C 	0.4346	0.8891	0.25843	-0.092
Mof_C 	C 	0.4454	0.8828	0.28459	-0.067
Mof_C 	C 	0.4056	0.8394	0.28597	-0.029
Mof_C 	C 	0.4521	0.9161	0.24598	0.041
Mof_H 	H 	0.4674	0.9291	0.2569	0.06
Mof_N 	N 	0.4486	0.92343	0.22179	-0.161
Mof_O 	O 	0.4718	0.94841	0.21524	-0.525
Mof_C 	C 	0.49466	0.99142	0.18908	-0.652
Mof_C 	C 	0.4885	0.01961	0.202	0.357
Mof_H 	H 	0.4654	0.0227	0.2104	-0.083
Mof_C 	C 	0.51489	0.04322	0.20287	-0.255
Mof_H 	H 	0.5098	0.0622	0.2118	0.127
Mof_C 	C 	0.54888	0.03924	0.19076	0.08
Mof_C 	C 	0.5555	0.012	0.17729	-0.251
Mof_H 	H 	0.5783	0.0093	0.1684	0.11
Mof_C 	C 	0.52885	0.98849	0.17665	0.336
Mof_H 	H 	0.534	0.9697	0.1674	-0.096
Mof_C 	C 	0.2102	0.6865	0.1935	0.317
Mof_O 	O 	0.21588	0.66651	0.21125	-0.491
Mof_O 	O 	0.18756	0.68449	0.17429	-0.495
Mof_O 	O 	0.35116	0.90421	0.1889	-0.539
Mof_C 	C 	0.2302	0.98983	0.1919	0.348
Mof_O 	O 	0.4006	0.86785	0.17004	-0.564
Mof_C 	C 	0.4473	0.8249	0.0704	0.353
Mof_O 	O 	0.398	0.87411	0.22078	-0.537
Mof_C 	C 	0.57818	0.06436	0.19207	0.35
Mof_O 	O 	0.56901	0.09035	0.20123	-0.481
Mof_O 	O 	0.60982	0.0575	0.18503	-0.495
Mof_C 	C 	0.4343	0.8563	0.2981	0.135
Mof_C 	C 	0.2218	0.01	0.1684	-0.171
Mof_H 	H 	0.245	0.0188	0.162	-0.007
Mof_H 	H 	0.2097	0.9974	0.1545	0.076
Mof_H 	H 	0.205	0.027	0.1734	0.041
Mof_C 	C 	0.2414	0.0127	0.2154	-0.538
Mof_H 	H 	0.2472	0.0004	0.2312	0.181
Mof_H 	H 	0.2633	0.0249	0.2107	0.177
Mof_H 	H 	0.2206	0.0268	0.2187	0.176
Mof_C 	C 	0.1944	0.9762	0.202	-0.288
Mof_H 	H 	0.2001	0.963	0.2173	-0.061
Mof_H 	H 	0.1777	0.9931	0.207	0.099
Mof_H 	H 	0.1824	0.9635	0.1881	0.108
Mof_C 	C 	0.426	0.7966	0.0595	-0.21
Mof_H 	H 	0.4263	0.7799	0.0726	0.056
Mof_H 	H 	0.4001	0.8026	0.0553	0.077
Mof_H 	H 	0.4379	0.7893	0.0435	0.055
Mof_C 	C 	0.4871	0.8126	0.0772	-0.217
Mof_H 	H 	0.5024	0.8297	0.0844	0.058
Mof_H 	H 	0.4857	0.7958	0.0902	-0.002
Mof_H 	H 	0.4984	0.8045	0.0612	0.073
Mof_C 	C 	0.4483	0.8524	0.0513	-0.371
Mof_H 	H 	0.4623	0.8697	0.0594	0.001
Mof_H 	H 	0.4606	0.8458	0.0351	0.12
Mof_H 	H 	0.4228	0.8592	0.0469	0.234
Mof_C 	C 	0.4561	0.8437	0.3223	-0.181
Mof_C 	C 	0.4408	0.813	0.3322	0.058
Mof_H 	H 	0.4431	0.797	0.3185	0.018
Mof_H 	H 	0.455	0.8065	0.3481	0.012
Mof_H 	H 	0.4145	0.8156	0.3364	-0.125
Mof_C 	C 	0.4527	0.8688	0.3434	1.216
Mof_H 	H 	0.4626	0.8886	0.3369	-1.573
Mof_H 	H 	0.4263	0.8715	0.3476	-0.181
Mof_H 	H 	0.4668	0.8624	0.3593	-0.382
Mof_C 	C 	0.4974	0.8377	0.3176	-0.015
Mof_H 	H 	0.509	0.8569	0.3111	0.007
Mof_H 	H 	0.5099	0.8313	0.3341	0.047
Mof_H 	H 	0.4999	0.8211	0.3045	0.02
Mof_C 	C 	0.5922	0.1363	0.5285	-0.196
Mof_H 	H 	0.5956	0.1183	0.5402	0.071
Mof_H 	H 	0.5925	0.1556	0.5388	0.057
Mof_H 	H 	0.5683	0.1344	0.5188	0.041
Mof_C 	C 	0.6184	0.1652	0.4906	-0.184
Mof_H 	H 	0.6386	0.1659	0.478	0.058
Mof_H 	H 	0.5944	0.1633	0.4811	0.06
Mof_H 	H 	0.6186	0.1844	0.5011	0.051
Mof_C 	C 	0.6613	0.144	0.5239	-0.33
Mof_H 	H 	0.667	0.1269	0.5362	0.093
Mof_H 	H 	0.6814	0.1459	0.5113	0.057
Mof_H 	H 	0.6591	0.1636	0.5337	0.103
Mof_C 	C 	0.7679	0.9895	0.1918	0.298
Mof_H 	H 	0.7603	0.9696	0.1854	-0.071
Mof_C 	C 	0.7417	0.0133	0.1929	0.145
Mof_H 	H 	0.7166	0.0094	0.1875	-0.017
Mof_C 	C 	0.7878	0.0472	0.212	-0.097
Mof_H 	H 	0.7949	0.0666	0.2196	0.059
Mof_C 	C 	0.8134	0.023	0.2111	0.067
Mof_H 	H 	0.8378	0.0263	0.2185	-0.004
Mof_C 	C 	0.8881	0.8204	0.3438	-0.194
Mof_H 	H 	0.9144	0.8265	0.3431	0.129
Mof_H 	H 	0.8811	0.8181	0.3622	0.069
Mof_H 	H 	0.8844	0.8004	0.3347	-0.058
Mof_C 	C 	0.8227	0.8377	0.3309	-0.147
Mof_H 	H 	0.8089	0.8547	0.3221	0.072
Mof_H 	H 	0.8179	0.818	0.3215	0.045
Mof_H 	H 	0.8146	0.8358	0.349	0.06
Mof_C 	C 	0.8723	0.8744	0.3482	-0.597
Mof_H 	H 	0.8578	0.8921	0.3412	0.171
Mof_H 	H 	0.8652	0.8702	0.3663	0.176
Mof_H 	H 	0.8989	0.8794	0.3479	0.152
Mof_O 	O 	0.6825	0.9368	0.5092	-0.204
Mof_C 	C 	0.6104	0.9263	0.5625	0.281
Mof_H 	H 	0.5903	0.9391	0.5564	-0.074
Mof_C 	C 	0.6086	0.913	0.5872	0.105
Mof_H 	H 	0.5878	0.917	0.5979	0.002
Mof_C 	C 	0.6662	0.8864	0.5797	-0.093
Mof_H 	H 	0.6848	0.8717	0.5851	0.048
Mof_C 	C 	0.6677	0.9006	0.5553	0.092
Mof_H 	H 	0.688	0.8959	0.5443	-0.011
Mof_N 	N 	0.6903	0.9514	0.4848	-0.101
Mof_C 	C 	0.7242	0.947	0.4792	-0.016
Mof_H 	H 	0.7394	0.9356	0.4915	0.043
Mof_C 	C 	0.7417	0.9581	0.4554	-0.045
Mof_C 	C 	0.722	0.9764	0.4357	0.116
Mof_C 	C 	0.7432	0.9883	0.4143	-0.181
Mof_C 	C 	0.7814	0.9813	0.413	0.065
Mof_H 	H 	0.7952	0.9899	0.399	-0.012
Mof_C 	C 	0.7997	0.962	0.4315	-0.076
Mof_C 	C 	0.7795	0.9514	0.4525	0.007
Mof_H 	H 	0.792	0.9391	0.4656	0.016
Mof_C 	C 	0.7264	0.0061	0.393	0.214
Mof_H 	H 	0.7428	0.0137	0.38	-0.04
Mof_N 	N 	0.6921	0.0128	0.3898	-0.108
Mof_O 	O 	0.6836	0.031	0.3679	-0.34
Mof_O 	O 	0.6866	0.9811	0.4366	-0.275
Mof_C 	C 	0.8407	0.9535	0.4273	0.118
Mof_C 	C 	0.8585	0.9369	0.4504	-0.52
Mof_H 	H 	0.8553	0.9494	0.4664	0.164
Mof_H 	H 	0.8467	0.9164	0.4526	0.222
Mof_H 	H 	0.8852	0.9341	0.4474	0.155
Mof_C 	C 	0.8628	0.984	0.424	-0.462
Mof_H 	H 	0.8522	0.9958	0.409	0.141
Mof_H 	H 	0.8612	0.9967	0.44	0.148
Mof_H 	H 	0.889	0.9791	0.4207	0.135
Mof_C 	C 	0.8439	0.9362	0.4011	-0.149
Mof_H 	H 	0.8317	0.9485	0.3871	-0.019
Mof_H 	H 	0.8704	0.9334	0.3972	0.034
Mof_H 	H 	0.8318	0.9157	0.4023	0.143
Mof_C 	C 	0.5844	0.1497	0.5009	-0.348
Mof_H 	H 	0.5826	0.1521	0.4817	0.093
Mof_H 	H 	0.5654	0.1349	0.5066	0.104
Mof_H 	H 	0.5805	0.17	0.5093	0.113
Mof_C 	C 	0.6518	0.1618	0.501	-0.193
Mof_H 	H 	0.6514	0.1638	0.4817	0.041
Mof_H 	H 	0.6451	0.1819	0.5088	0.055
Mof_H 	H 	0.6769	0.1557	0.5072	0.083
Mof_C 	C 	0.6246	0.134	0.5386	-0.176
Mof_H 	H 	0.6066	0.118	0.5437	0.019
Mof_H 	H 	0.6497	0.128	0.5448	0.049
Mof_H 	H 	0.6179	0.1541	0.5464	0.049
Mof_C 	C 	0.2	0.9798	0.1709	-0.363
Mof_H 	H 	0.1921	0.9583	0.1743	0.079
Mof_H 	H 	0.1784	0.9938	0.1718	0.099
Mof_H 	H 	0.2104	0.9811	0.1533	0.082
Mof_C 	C 	0.2402	0.0229	0.1848	-0.169
Mof_H 	H 	0.2523	0.0231	0.1677	0.112
Mof_H 	H 	0.2174	0.0357	0.1836	0.054
Mof_H 	H 	0.2572	0.0316	0.1983	0.03
Mof_C 	C 	0.2112	0.9883	0.2183	-0.032
Mof_H 	H 	0.2051	0.9665	0.2223	0.159
Mof_H 	H 	0.228	0.9967	0.2321	0.001
Mof_H 	H 	0.1882	0.0008	0.2174	-0.013
Mof_C 	C 	0.4558	0.7899	0.0717	-0.342
Mof_H 	H 	0.4343	0.7787	0.0787	0.092
Mof_H 	H 	0.4609	0.7821	0.054	0.107
Mof_H 	H 	0.4777	0.7863	0.0833	0.158
Mof_C 	C 	0.4801	0.8433	0.0597	-0.26
Mof_H 	H 	0.4738	0.8656	0.0591	0.167
Mof_H 	H 	0.5022	0.8402	0.0712	0.078
Mof_H 	H 	0.4853	0.836	0.0419	0.061
Mof_C 	C 	0.4157	0.83	0.0495	-0.116
Mof_H 	H 	0.4097	0.8523	0.0483	-0.087
Mof_H 	H 	0.4239	0.8225	0.0323	0.049
Mof_H 	H 	0.3934	0.8183	0.0545	0.026
Mof_C 	C 	0.4285	0.8601	0.2996	0.045
Mof_C 	C 	0.4286	0.8623	0.3297	-0.66
Mof_C 	C 	0.417	0.8317	0.342	0.378
Mof_H 	H 	0.3922	0.8257	0.3351	-0.032
Mof_H 	H 	0.4351	0.8154	0.3377	-0.066
Mof_H 	H 	0.4162	0.8341	0.3612	-0.096
Mof_C 	C 	0.4669	0.874	0.339	0.629
Mof_H 	H 	0.4724	0.8938	0.3303	1.017
Mof_H 	H 	0.467	0.8772	0.3581	-0.083
Mof_H 	H 	0.4859	0.8585	0.3347	-0.279
Mof_C 	C 	0.3999	0.8858	0.3401	0.297
Mof_H 	H 	0.4051	0.9066	0.3331	-0.046
Mof_H 	H 	0.3747	0.8793	0.3344	-0.058
Mof_H 	H 	0.4016	0.8863	0.3594	-0.053
Mof_Zn	Zn	0.38589	0.59147	0.69797	1.2
Mof_Zn	Zn	0.43392	0.64706	0.69631	1.198
Mof_Zn	Zn	0.85748	0.64415	0.69508	1.199
Mof_Zn	Zn	0.91014	0.59176	0.69212	1.195
Mof_Zn	Zn	0.14387	0.52532	0.96581	1.193
Mof_Zn	Zn	0.14425	0.4911	0.9157	1.191
Mof_Zn	Zn	0.10391	0.37672	0.71151	1.217
Mof_Zn	Zn	0.15309	0.4176	0.67263	1.181
Mof_Zn	Zn	0.19219	0.37436	0.71532	1.21
Mof_Zn	Zn	0.14734	0.34527	0.66586	1.206
Mof_O 	O 	0.1493	0.37779	0.69211	-0.959
Mof_C 	C 	0.5116	0.73448	0.69444	-0.644
Mof_C 	C 	0.51	0.75859	0.71315	0.342
Mof_H 	H 	0.4931	0.7566	0.7271	-0.073
Mof_C 	C 	0.5321	0.78507	0.71208	-0.254
Mof_H 	H 	0.5307	0.8005	0.7255	0.127
Mof_C 	C 	0.5564	0.7892	0.69163	0.089
Mof_C 	C 	0.5592	0.76552	0.67305	-0.259
Mof_H 	H 	0.5759	0.7678	0.659	0.122
Mof_C 	C 	0.5378	0.73867	0.67476	0.339
Mof_H 	H 	0.541	0.7225	0.6622	-0.088
Mof_B 	B 	0.4852	0.7042	0.6953	1.539
Mof_O 	O 	0.45397	0.71038	0.67588	-0.517
Mof_N 	N 	0.4281	0.68698	0.67229	-0.167
Mof_C 	C 	0.4047	0.6927	0.6539	0.094
Mof_H 	H 	0.4072	0.7123	0.6453	0.024
Mof_C 	C 	0.3746	0.6728	0.6443	-0.201
Mof_C 	C 	0.366	0.6437	0.6565	0.301
Mof_C 	C 	0.3346	0.6268	0.6451	-0.201
Mof_C 	C 	0.3154	0.6374	0.6225	0.14
Mof_H 	H 	0.2957	0.6251	0.6151	-0.035
Mof_C 	C 	0.3246	0.6654	0.6106	-0.282
Mof_C 	C 	0.3541	0.6825	0.6219	0.137
Mof_H 	H 	0.3606	0.7018	0.6139	-0.036
Mof_C 	C 	0.3225	0.5979	0.6563	0.103
Mof_H 	H 	0.2998	0.5894	0.6494	0.021
Mof_N 	N 	0.3389	0.5824	0.6744	-0.168
Mof_O 	O 	0.3193	0.55563	0.67939	-0.545
Mof_B 	B 	0.3346	0.5338	0.699	1.531
Mof_O 	O 	0.50798	0.67785	0.68672	-0.541
Mof_N 	N 	0.4905	0.64845	0.68704	-0.172
Mof_C 	C 	0.5133	0.62688	0.6816	0.1
Mof_H 	H 	0.5381	0.6332	0.6781	0.02
Mof_C 	C 	0.5057	0.59331	0.6802	-0.206
Mof_C 	C 	0.4695	0.58084	0.6838	0.29
Mof_C 	C 	0.4658	0.54799	0.6823	-0.205
Mof_C 	C 	0.4977	0.529	0.679	0.148
Mof_H 	H 	0.4947	0.507	0.679	-0.041
Mof_C 	C 	0.5332	0.54125	0.6757	-0.308
Mof_C 	C 	0.5356	0.57364	0.6753	0.157
Mof_H 	H 	0.5589	0.5829	0.6714	-0.049
Mof_C 	C 	0.4311	0.5312	0.6859	0.098
Mof_H 	H 	0.4314	0.5091	0.6839	0.019
Mof_N 	N 	0.4004	0.54403	0.6916	-0.17
Mof_O 	O 	0.37154	0.52155	0.69392	-0.549
Mof_O 	O 	0.47249	0.7015	0.72213	-0.54
Mof_N 	N 	0.4482	0.67757	0.72748	-0.159
Mof_C 	C 	0.4384	0.67863	0.75124	0.082
Mof_H 	H 	0.4493	0.6946	0.762	0.042
Mof_C 	C 	0.4119	0.65768	0.76364	-0.146
Mof_C 	C 	0.3964	0.63124	0.75007	0.249
Mof_C 	C 	0.3706	0.61233	0.7643	-0.155
Mof_C 	C 	0.361	0.621	0.78976	0.064
Mof_H 	H 	0.3432	0.6086	0.7985	-0.007
Mof_C 	C 	0.3759	0.6466	0.80294	-0.157
Mof_C 	C 	0.4018	0.6646	0.78961	0.065
Mof_H 	H 	0.413	0.6821	0.7983	0.011
Mof_C 	C 	0.3531	0.5847	0.75307	0.075
Mof_H 	H 	0.3379	0.5728	0.7644	0.023
Mof_N 	N 	0.356	0.5746	0.72976	-0.168
Mof_O 	O 	0.3342	0.5478	0.72571	-0.529
Mof_C 	C 	0.3051	0.50597	0.69999	-0.568
Mof_C 	C 	0.252	0.45689	0.70178	-0.028
Mof_C 	C 	0.5802	0.8181	0.69002	0.322
Mof_O 	O 	0.57731	0.83762	0.70815	-0.491
Mof_O 	O 	0.60243	0.81897	0.6712	-0.478
Mof_O 	O 	0.3834	0.63417	0.67686	-0.556
Mof_C 	C 	0.3037	0.6774	0.5859	0.612
Mof_O 	O 	0.44134	0.59916	0.68847	-0.551
Mof_C 	C 	0.568	0.5205	0.6734	0.669
Mof_C 	C 	0.5942	0.5236	0.6987	-0.824
Mof_H 	H 	0.5813	0.5154	0.714	0.257
Mof_H 	H 	0.6006	0.5456	0.7016	0.26
Mof_H 	H 	0.6171	0.5115	0.6962	0.241
Mof_C 	C 	0.594	0.5341	0.6542	-0.971
Mof_H 	H 	0.5969	0.5565	0.6577	0.293
Mof_H 	H 	0.5839	0.531	0.6363	0.286
Mof_H 	H 	0.6183	0.5238	0.6561	0.284
Mof_C 	C 	0.5581	0.4864	0.6729	-0.965
Mof_H 	H 	0.5407	0.4819	0.687	0.293
Mof_H 	H 	0.5808	0.4739	0.6756	0.285
Mof_H 	H 	0.5464	0.4811	0.6558	0.287
Mof_O 	O 	0.40533	0.62397	0.72612	-0.538
Mof_C 	C 	0.3642	0.6551	0.83082	0.357
Mof_C 	C 	0.2237	0.43161	0.7037	0.335
Mof_O 	O 	0.19085	0.43858	0.69611	-0.519
Mof_O 	O 	0.23229	0.40515	0.71289	-0.484
Mof_C 	C 	0.2759	0.5034	0.6809	-0.101
Mof_H 	H 	0.2741	0.5182	0.6671	0.054
Mof_C 	C 	0.2497	0.4796	0.682	-0.271
Mof_H 	H 	0.23	0.4787	0.6692	0.093
Mof_C 	C 	0.2814	0.4582	0.7201	-0.028
Mof_H 	H 	0.284	0.4426	0.7333	0.025
Mof_C 	C 	0.3068	0.4825	0.7189	0.133
Mof_H 	H 	0.3266	0.4831	0.7317	-0.037
Mof_C 	C 	0.3943	0.6509	0.8516	0.008
Mof_H 	H 	0.4177	0.66	0.8454	-0.062
Mof_H 	H 	0.3979	0.6286	0.8551	0.041
Mof_H 	H 	0.387	0.6615	0.8678	-0.013
Mof_C 	C 	0.3567	0.6913	0.8315	-0.479
Mof_H 	H 	0.3371	0.6966	0.8185	0.15
Mof_H 	H 	0.3797	0.7026	0.8275	0.247
Mof_H 	H 	0.3487	0.6973	0.8491	0.159
Mof_C 	C 	0.3268	0.6418	0.8385	-0.208
Mof_H 	H 	0.3085	0.6453	0.8241	0.039
Mof_H 	H 	0.3185	0.6522	0.8544	0.045
Mof_H 	H 	0.3294	0.6193	0.8418	0.065
Mof_C 	C 	0.3289	0.675	0.562	-0.856
Mof_H 	H 	0.3523	0.6862	0.5657	0.26
Mof_H 	H 	0.3161	0.6844	0.5466	0.249
Mof_H 	H 	0.3342	0.653	0.5583	0.259
Mof_C 	C 	0.2672	0.6602	0.5803	-0.889
Mof_H 	H 	0.2551	0.6687	0.5643	0.261
Mof_H 	H 	0.2507	0.6628	0.5952	0.27
Mof_H 	H 	0.2723	0.6379	0.5777	0.269
Mof_C 	C 	0.296	0.7126	0.5893	-0.861
Mof_H 	H 	0.3196	0.7236	0.5929	0.265
Mof_H 	H 	0.2793	0.7157	0.604	0.264
Mof_H 	H 	0.2842	0.7208	0.5731	0.253
Mof_C 	C 	0.1404	0.5783	0.04612	-0.597
Mof_C 	C 	0.1373	0.6063	0.09645	-0.015
Mof_B 	B 	0.1436	0.5611	0.01853	1.573
Mof_O 	O 	0.1418	0.52801	0.0249	-0.556
Mof_N 	N 	0.1395	0.5066	0.00412	-0.162
Mof_C 	C 	0.138	0.4787	0.01192	0.082
Mof_H 	H 	0.1382	0.4754	0.0304	0.018
Mof_C 	C 	0.136	0.45113	0.99532	-0.173
Mof_C 	C 	0.137	0.4523	0.96725	0.28
Mof_C 	C 	0.134	0.4233	0.9535	-0.174
Mof_C 	C 	0.1292	0.3958	0.96792	0.073
Mof_H 	H 	0.126	0.3768	0.9584	-0.003
Mof_C 	C 	0.1289	0.3944	0.99478	-0.159
Mof_C 	C 	0.1318	0.4222	0.0083	0.069
Mof_H 	H 	0.1309	0.422	0.027	-0.012
Mof_C 	C 	0.1359	0.4206	0.92539	0.079
Mof_H 	H 	0.1339	0.4	0.9184	0.03
Mof_N 	N 	0.1398	0.44228	0.9088	-0.164
Mof_O 	O 	0.1407	0.43165	0.88337	-0.525
Mof_B 	B 	0.1457	0.4554	0.86304	1.47
Mof_O 	O 	0.1112	0.57154	0.00317	-0.554
Mof_N 	N 	0.1052	0.5584	0.97851	-0.165
Mof_C 	C 	0.0727	0.5645	0.96934	0.097
Mof_H 	H 	0.0571	0.5772	0.9798	0.018
Mof_C 	C 	0.0577	0.5538	0.94447	-0.206
Mof_C 	C 	0.078	0.5357	0.92574	0.291
Mof_C 	C 	0.0581	0.5268	0.90216	-0.198
Mof_C 	C 	0.0203	0.5345	0.89872	0.156
Mof_H 	H 	0.0075	0.5278	0.8831	-0.025
Mof_C 	C 	0.0005	0.5516	0.91702	-0.313
Mof_C 	C 	0.0199	0.561	0.93926	0.157
Mof_H 	H 	0.007	0.5731	0.9518	-0.047
Mof_C 	C 	0.0748	0.508	0.88172	0.1
Mof_H 	H 	0.061	0.5056	0.8656	0.035
Mof_N 	N 	0.1063	0.49458	0.88373	-0.168
Mof_O 	O 	0.1147	0.47881	0.86128	-0.497
Mof_C 	C 	0.1458	0.4378	0.83514	-0.628
Mof_C 	C 	0.1137	0.4359	0.81886	0.326
Mof_H 	H 	0.0915	0.4459	0.8242	-0.066
Mof_C 	C 	0.1136	0.4197	0.79512	-0.244
Mof_H 	H 	0.0912	0.4179	0.7848	0.125
Mof_C 	C 	0.1462	0.40612	0.78644	0.087
Mof_C 	C 	0.1786	0.4084	0.80171	-0.255
Mof_H 	H 	0.201	0.3991	0.796	0.121
Mof_C 	C 	0.1781	0.4243	0.82556	0.329
Mof_H 	H 	0.2007	0.4261	0.8357	-0.087
Mof_C 	C 	0.1365	0.6192	0.12373	0.299
Mof_O 	O 	0.14858	0.64647	0.12776	-0.47
Mof_O 	O 	0.12	0.6044	0.14072	-0.493
Mof_O 	O 	0.1379	0.47838	0.95522	-0.568
Mof_C 	C 	0.124	0.363	0.0089	0.322
Mof_O 	O 	0.1122	0.52853	0.92989	-0.552
Mof_C 	C 	0.9593	0.5608	0.9133	0.692
Mof_C 	C 	0.9543	0.5966	0.9157	-0.928
Mof_H 	H 	0.9643	0.6037	0.9328	0.281
Mof_H 	H 	0.9278	0.6019	0.914	0.282
Mof_H 	H 	0.9679	0.607	0.9016	0.3
Mof_C 	C 	0.9367	0.5462	0.9355	-0.951
Mof_H 	H 	0.9477	0.5523	0.9526	0.295
Mof_H 	H 	0.9371	0.5234	0.9339	0.297
Mof_H 	H 	0.9108	0.5536	0.9342	0.289
Mof_C 	C 	0.9434	0.5521	0.8867	-1
Mof_H 	H 	0.9584	0.5618	0.873	0.33
Mof_H 	H 	0.9176	0.5596	0.885	0.305
Mof_H 	H 	0.9439	0.5293	0.8847	0.307
Mof_C 	C 	0.1464	0.39016	0.76006	0.309
Mof_O 	O 	0.11526	0.38711	0.74811	-0.48
Mof_O 	O 	0.17775	0.38083	0.75214	-0.473
Mof_O 	O 	0.1748	0.5738	0.0032	-0.35
Mof_C 	C 	0.152	0.6223	0.0756	-0.053
Mof_H 	H 	0.1612	0.6429	0.0781	0.049
Mof_C 	C 	0.1535	0.6084	0.051	0.128
Mof_H 	H 	0.1638	0.6199	0.0369	-0.027
Mof_C 	C 	0.1241	0.563	0.0674	-0.054
Mof_H 	H 	0.1136	0.5429	0.0646	0.033
Mof_C 	C 	0.1227	0.5761	0.0923	-0.258
Mof_H 	H 	0.1121	0.5648	0.1063	0.095
Mof_N 	N 	0.1821	0.5583	0.9807	-0.065
Mof_C 	C 	0.2113	0.5695	0.9708	0.032
Mof_H 	H 	0.2242	0.5856	0.9803	0.033
Mof_C 	C 	0.2263	0.5595	0.946	-0.027
Mof_C 	C 	0.2092	0.5365	0.929	0.046
Mof_C 	C 	0.2263	0.5308	0.9043	0.097
Mof_C 	C 	0.259	0.5468	0.8977	-0.117
Mof_H 	H 	0.2695	0.5431	0.881	0.056
Mof_C 	C 	0.276	0.5677	0.9148	0.04
Mof_C 	C 	0.2594	0.5738	0.9384	-0.067
Mof_H 	H 	0.271	0.5884	0.9501	0.041
Mof_C 	C 	0.212	0.509	0.8848	-0.208
Mof_H 	H 	0.2257	0.507	0.8691	0.101
Mof_N 	N 	0.183	0.4923	0.8866	-0.033
Mof_O 	O 	0.1781	0.4756	0.8639	-0.159
Mof_O 	O 	0.1807	0.5217	0.9359	-0.178
Mof_C 	C 	0.3128	0.5834	0.9077	0.065
Mof_C 	C 	0.3036	0.6183	0.9077	-0.455
Mof_H 	H 	0.2966	0.6248	0.9254	0.148
Mof_H 	H 	0.2828	0.6224	0.8952	0.153
Mof_H 	H 	0.3255	0.6302	0.9024	0.134
Mof_C 	C 	0.3435	0.5756	0.9279	-0.093
Mof_H 	H 	0.3359	0.5825	0.9454	-0.048
Mof_H 	H 	0.3665	0.5865	0.9233	0.031
Mof_H 	H 	0.3478	0.553	0.9281	0.094
Mof_C 	C 	0.3238	0.5731	0.8804	-0.493
Mof_H 	H 	0.3037	0.5783	0.8677	0.155
Mof_H 	H 	0.328	0.5505	0.8804	0.197
Mof_H 	H 	0.3467	0.5839	0.8756	0.14
Mof_C 	C 	0.7757	0.72874	0.69831	-0.699
Mof_C 	C 	0.7809	0.75323	0.7162	0.38
Mof_H 	H 	0.8001	0.7513	0.7293	-0.089
Mof_C 	C 	0.7595	0.77994	0.7158	-0.284
Mof_H 	H 	0.7637	0.7958	0.7287	0.133
Mof_C 	C 	0.7316	0.78364	0.69642	0.104
Mof_C 	C 	0.7248	0.7594	0.67872	-0.293
Mof_H 	H 	0.7053	0.7611	0.6657	0.131
Mof_C 	C 	0.7465	0.73282	0.68018	0.393
Mof_H 	H 	0.7411	0.7164	0.6681	-0.108
Mof_B 	B 	0.803	0.699	0.6979	1.627
Mof_O 	O 	0.7792	0.67068	0.69656	-0.546
Mof_N 	N 	0.7984	0.64175	0.6946	-0.166
Mof_C 	C 	0.7761	0.6187	0.6949	0.087
Mof_H 	H 	0.7503	0.6232	0.6968	0.024
Mof_C 	C 	0.7866	0.58624	0.69279	-0.164
Mof_C 	C 	0.8239	0.57626	0.68964	0.266
Mof_C 	C 	0.82978	0.54342	0.68668	-0.151
Mof_C 	C 	0.79925	0.52243	0.68702	0.066
Mof_H 	H 	0.8038	0.5007	0.685	0.009
Mof_C 	C 	0.76308	0.53269	0.69016	-0.158
Mof_C 	C 	0.7574	0.56469	0.6927	0.069
Mof_H 	H 	0.7327	0.5722	0.6944	-0.001
Mof_C 	C 	0.86685	0.52971	0.68506	0.078
Mof_H 	H 	0.8678	0.5078	0.6822	0.045
Mof_N 	N 	0.89797	0.54355	0.68698	-0.158
Mof_O 	O 	0.92785	0.52338	0.68552	-0.512
Mof_B 	B 	0.9657	0.537	0.689	1.518
Mof_O 	O 	0.8236	0.70378	0.67433	-0.574
Mof_N 	N 	0.8514	0.682	0.66957	-0.167
Mof_C 	C 	0.8675	0.6879	0.6482	0.089
Mof_H 	H 	0.8594	0.7061	0.639	0.03
Mof_C 	C 	0.8967	0.6698	0.63654	-0.177
Mof_C 	C 	0.9119	0.6424	0.64841	0.288
Mof_C 	C 	0.9387	0.62564	0.63328	-0.172
Mof_C 	C 	0.9493	0.6365	0.60865	0.085
Mof_H 	H 	0.9674	0.625	0.5993	-0.006
Mof_C 	C 	0.9345	0.6634	0.59725	-0.161
Mof_C 	C 	0.9087	0.6793	0.6119	0.081
Mof_H 	H 	0.8984	0.698	0.6047	-0.003
Mof_C 	C 	0.9559	0.59709	0.64246	0.079
Mof_H 	H 	0.9729	0.5876	0.6309	0.021
Mof_N 	N 	0.9512	0.58319	0.66396	-0.174
Mof_O 	O 	0.97453	0.55828	0.66732	-0.56
Mof_O 	O 	0.8247	0.69989	0.72242	-0.566
Mof_N 	N 	0.8503	0.6756	0.72597	-0.161
Mof_C 	C 	0.8651	0.6764	0.7488	0.06
Mof_H 	H 	0.8565	0.6925	0.76	0.046
Mof_C 	C 	0.8932	0.6559	0.76007	-0.104
Mof_C 	C 	0.908	0.6304	0.74513	0.216
Mof_C 	C 	0.9346	0.6109	0.75843	-0.092
Mof_C 	C 	0.9454	0.6172	0.78459	-0.067
Mof_C 	C 	0.9056	0.6606	0.78597	-0.029
Mof_C 	C 	0.9521	0.5839	0.74598	0.041
Mof_H 	H 	0.9674	0.5709	0.7569	0.06
Mof_N 	N 	0.9486	0.57657	0.72179	-0.161
Mof_O 	O 	0.9718	0.55159	0.71524	-0.525
Mof_C 	C 	0.99466	0.50858	0.68908	-0.652
Mof_C 	C 	0.9885	0.48039	0.702	0.357
Mof_H 	H 	0.9654	0.4773	0.7104	-0.083
Mof_C 	C 	0.01489	0.45678	0.70287	-0.255
Mof_H 	H 	0.0098	0.4378	0.7118	0.127
Mof_C 	C 	0.04888	0.46076	0.69076	0.08
Mof_C 	C 	0.0555	0.488	0.67729	-0.251
Mof_H 	H 	0.0783	0.4907	0.6684	0.11
Mof_C 	C 	0.02885	0.51151	0.67665	0.336
Mof_H 	H 	0.034	0.5303	0.6674	-0.096
Mof_C 	C 	0.7102	0.8135	0.6935	0.317
Mof_O 	O 	0.71588	0.83349	0.71125	-0.491
Mof_O 	O 	0.68756	0.81551	0.67429	-0.495
Mof_O 	O 	0.85116	0.59579	0.6889	-0.539
Mof_C 	C 	0.7302	0.51017	0.6919	0.348
Mof_O 	O 	0.9006	0.63215	0.67004	-0.564
Mof_C 	C 	0.9473	0.6751	0.5704	0.353
Mof_O 	O 	0.898	0.62589	0.72078	-0.537
Mof_C 	C 	0.07818	0.43564	0.69207	0.35
Mof_O 	O 	0.06901	0.40965	0.70123	-0.481
Mof_O 	O 	0.10982	0.4425	0.68503	-0.495
Mof_C 	C 	0.9343	0.6437	0.7981	0.135
Mof_C 	C 	0.7218	0.49	0.6684	-0.171
Mof_H 	H 	0.745	0.4812	0.662	-0.007
Mof_H 	H 	0.7097	0.5026	0.6545	0.076
Mof_H 	H 	0.705	0.473	0.6734	0.041
Mof_C 	C 	0.7414	0.4873	0.7154	-0.538
Mof_H 	H 	0.7472	0.4996	0.7312	0.181
Mof_H 	H 	0.7633	0.4751	0.7107	0.177
Mof_H 	H 	0.7206	0.4732	0.7187	0.176
Mof_C 	C 	0.6944	0.5238	0.702	-0.288
Mof_H 	H 	0.7001	0.537	0.7173	-0.061
Mof_H 	H 	0.6777	0.5069	0.707	0.099
Mof_H 	H 	0.6824	0.5365	0.6881	0.108
Mof_C 	C 	0.926	0.7034	0.5595	-0.21
Mof_H 	H 	0.9263	0.7201	0.5726	0.056
Mof_H 	H 	0.9001	0.6974	0.5553	0.077
Mof_H 	H 	0.9379	0.7107	0.5435	0.055
Mof_C 	C 	0.9871	0.6874	0.5772	-0.217
Mof_H 	H 	0.0024	0.6703	0.5844	0.058
Mof_H 	H 	0.9857	0.7042	0.5902	-0.003
Mof_H 	H 	0.9984	0.6955	0.5612	0.073
Mof_C 	C 	0.9483	0.6476	0.5513	-0.371
Mof_H 	H 	0.9623	0.6303	0.5594	0.001
Mof_H 	H 	0.9606	0.6542	0.5351	0.12
Mof_H 	H 	0.9228	0.6408	0.5469	0.234
Mof_C 	C 	0.9561	0.6563	0.8223	-0.181
Mof_C 	C 	0.9408	0.687	0.8322	0.058
Mof_H 	H 	0.9431	0.703	0.8185	0.018
Mof_H 	H 	0.955	0.6935	0.8481	0.012
Mof_H 	H 	0.9145	0.6844	0.8364	-0.125
Mof_C 	C 	0.9527	0.6312	0.8434	1.216
Mof_H 	H 	0.9626	0.6114	0.8369	-1.573
Mof_H 	H 	0.9263	0.6285	0.8476	-0.181
Mof_H 	H 	0.9668	0.6376	0.8593	-0.382
Mof_C 	C 	0.9974	0.6623	0.8176	-0.015
Mof_H 	H 	0.009	0.6431	0.8111	0.007
Mof_H 	H 	0.0099	0.6687	0.8341	0.047
Mof_H 	H 	0.9999	0.6789	0.8045	0.02
Mof_C 	C 	0.0922	0.3637	0.0285	-0.196
Mof_H 	H 	0.0956	0.3817	0.0402	0.071
Mof_H 	H 	0.0925	0.3444	0.0388	0.057
Mof_H 	H 	0.0683	0.3656	0.0188	0.041
Mof_C 	C 	0.1184	0.3348	0.9906	-0.184
Mof_H 	H 	0.1386	0.3341	0.978	0.058
Mof_H 	H 	0.0944	0.3367	0.9811	0.06
Mof_H 	H 	0.1186	0.3156	0.0011	0.051
Mof_C 	C 	0.1613	0.356	0.0239	-0.33
Mof_H 	H 	0.167	0.3731	0.0362	0.093
Mof_H 	H 	0.1814	0.3541	0.0113	0.057
Mof_H 	H 	0.1591	0.3364	0.0337	0.103
Mof_C 	C 	0.2679	0.5105	0.6918	0.298
Mof_H 	H 	0.2603	0.5304	0.6854	-0.071
Mof_C 	C 	0.2417	0.4867	0.6929	0.145
Mof_H 	H 	0.2166	0.4906	0.6875	-0.017
Mof_C 	C 	0.2878	0.4528	0.712	-0.097
Mof_H 	H 	0.2949	0.4334	0.7196	0.059
Mof_C 	C 	0.3134	0.477	0.7111	0.067
Mof_H 	H 	0.3378	0.4737	0.7185	-0.004
Mof_C 	C 	0.3881	0.6796	0.8438	-0.194
Mof_H 	H 	0.4144	0.6735	0.8431	0.129
Mof_H 	H 	0.3811	0.6819	0.8622	0.069
Mof_H 	H 	0.3844	0.6996	0.8347	-0.058
Mof_C 	C 	0.3227	0.6623	0.8309	-0.147
Mof_H 	H 	0.3089	0.6453	0.8221	0.072
Mof_H 	H 	0.3179	0.682	0.8215	0.045
Mof_H 	H 	0.3146	0.6642	0.849	0.06
Mof_C 	C 	0.3723	0.6256	0.8482	-0.597
Mof_H 	H 	0.3578	0.6079	0.8412	0.171
Mof_H 	H 	0.3652	0.6298	0.8663	0.176
Mof_H 	H 	0.3989	0.6206	0.8479	0.152
Mof_O 	O 	0.1825	0.5632	0.0092	-0.204
Mof_C 	C 	0.1104	0.5737	0.0625	0.281
Mof_H 	H 	0.0903	0.5609	0.0564	-0.074
Mof_C 	C 	0.1086	0.587	0.0872	0.105
Mof_H 	H 	0.0878	0.583	0.0979	0.002
Mof_C 	C 	0.1662	0.6136	0.0797	-0.093
Mof_H 	H 	0.1848	0.6283	0.0851	0.048
Mof_C 	C 	0.1677	0.5994	0.0553	0.092
Mof_H 	H 	0.188	0.6041	0.0443	-0.011
Mof_N 	N 	0.1903	0.5486	0.9848	-0.101
Mof_C 	C 	0.2242	0.553	0.9792	-0.016
Mof_H 	H 	0.2394	0.5644	0.9915	0.043
Mof_C 	C 	0.2417	0.5419	0.9554	-0.045
Mof_C 	C 	0.222	0.5236	0.9357	0.116
Mof_C 	C 	0.2432	0.5117	0.9143	-0.181
Mof_C 	C 	0.2814	0.5187	0.913	0.065
Mof_H 	H 	0.2952	0.5101	0.899	-0.012
Mof_C 	C 	0.2997	0.538	0.9315	-0.076
Mof_C 	C 	0.2795	0.5486	0.9525	0.007
Mof_H 	H 	0.292	0.5609	0.9656	0.016
Mof_C 	C 	0.2264	0.4939	0.893	0.214
Mof_H 	H 	0.2428	0.4863	0.88	-0.04
Mof_N 	N 	0.1921	0.4872	0.8898	-0.108
Mof_O 	O 	0.1836	0.469	0.8679	-0.34
Mof_O 	O 	0.1866	0.5189	0.9366	-0.275
Mof_C 	C 	0.3407	0.5465	0.9273	0.118
Mof_C 	C 	0.3585	0.5631	0.9504	-0.52
Mof_H 	H 	0.3553	0.5506	0.9664	0.164
Mof_H 	H 	0.3467	0.5836	0.9526	0.222
Mof_H 	H 	0.3852	0.5659	0.9474	0.155
Mof_C 	C 	0.3628	0.516	0.924	-0.462
Mof_H 	H 	0.3522	0.5042	0.909	0.141
Mof_H 	H 	0.3612	0.5033	0.94	0.148
Mof_H 	H 	0.389	0.5209	0.9207	0.135
Mof_C 	C 	0.3439	0.5638	0.9011	-0.149
Mof_H 	H 	0.3317	0.5515	0.8871	-0.019
Mof_H 	H 	0.3704	0.5666	0.8972	0.034
Mof_H 	H 	0.3318	0.5843	0.9023	0.143
Mof_C 	C 	0.0844	0.3503	0.0009	-0.348
Mof_H 	H 	0.0826	0.3479	0.9817	0.093
Mof_H 	H 	0.0654	0.3651	0.0066	0.104
Mof_H 	H 	0.0805	0.33	0.0093	0.113
Mof_C 	C 	0.1518	0.3382	0.001	-0.193
Mof_H 	H 	0.1514	0.3362	0.9817	0.041
Mof_H 	H 	0.1451	0.3181	0.0088	0.055
Mof_H 	H 	0.1769	0.3443	0.0072	0.083
Mof_C 	C 	0.1246	0.366	0.0386	-0.176
Mof_H 	H 	0.1066	0.382	0.0437	0.019
Mof_H 	H 	0.1497	0.372	0.0448	0.049
Mof_H 	H 	0.1179	0.3459	0.0464	0.049
Mof_C 	C 	0.7	0.5202	0.6709	-0.363
Mof_H 	H 	0.6921	0.5417	0.6743	0.079
Mof_H 	H 	0.6784	0.5062	0.6718	0.099
Mof_H 	H 	0.7104	0.5189	0.6533	0.082
Mof_C 	C 	0.7402	0.4771	0.6848	-0.169
Mof_H 	H 	0.7523	0.4769	0.6677	0.112
Mof_H 	H 	0.7174	0.4643	0.6836	0.054
Mof_H 	H 	0.7572	0.4684	0.6983	0.03
Mof_C 	C 	0.7112	0.5117	0.7183	-0.032
Mof_H 	H 	0.7051	0.5335	0.7223	0.159
Mof_H 	H 	0.728	0.5033	0.7321	0.001
Mof_H 	H 	0.6882	0.4992	0.7174	-0.013
Mof_C 	C 	0.9558	0.7101	0.5717	-0.342
Mof_H 	H 	0.9343	0.7213	0.5787	0.092
Mof_H 	H 	0.9609	0.7179	0.554	0.107
Mof_H 	H 	0.9777	0.7137	0.5833	0.158
Mof_C 	C 	0.9801	0.6567	0.5597	-0.26
Mof_H 	H 	0.9738	0.6344	0.5591	0.167
Mof_H 	H 	0.0022	0.6598	0.5712	0.078
Mof_H 	H 	0.9853	0.664	0.5419	0.061
Mof_C 	C 	0.9157	0.67	0.5495	-0.116
Mof_H 	H 	0.9097	0.6477	0.5483	-0.087
Mof_H 	H 	0.9239	0.6775	0.5323	0.049
Mof_H 	H 	0.8934	0.6817	0.5545	0.026
Mof_C 	C 	0.9285	0.6399	0.7996	0.045
Mof_C 	C 	0.9286	0.6377	0.8297	-0.66
Mof_C 	C 	0.917	0.6683	0.842	0.378
Mof_H 	H 	0.8922	0.6743	0.8351	-0.032
Mof_H 	H 	0.9351	0.6846	0.8377	-0.066
Mof_H 	H 	0.9162	0.6659	0.8612	-0.096
Mof_C 	C 	0.9669	0.626	0.839	0.629
Mof_H 	H 	0.9724	0.6062	0.8303	1.017
Mof_H 	H 	0.967	0.6228	0.8581	-0.083
Mof_H 	H 	0.9859	0.6415	0.8347	-0.279
Mof_C 	C 	0.8999	0.6142	0.8401	0.297
Mof_H 	H 	0.9051	0.5934	0.8331	-0.046
Mof_H 	H 	0.8747	0.6207	0.8344	-0.058
Mof_H 	H 	0.9016	0.6137	0.8594	-0.053
Mof_Zn	Zn	0.88589	0.09147	0.69797	1.2
Mof_Zn	Zn	0.93392	0.14706	0.69631	1.198
Mof_Zn	Zn	0.35748	0.14415	0.69508	1.199
Mof_Zn	Zn	0.41014	0.09176	0.69212	1.195
Mof_Zn	Zn	0.64387	0.02532	0.96581	1.193
Mof_Zn	Zn	0.64425	0.9911	0.9157	1.191
Mof_Zn	Zn	0.60391	0.87672	0.71151	1.217
Mof_Zn	Zn	0.65309	0.9176	0.67263	1.181
Mof_Zn	Zn	0.69219	0.87436	0.71532	1.21
Mof_Zn	Zn	0.64734	0.84527	0.66586	1.206
Mof_O 	O 	0.6493	0.87779	0.69211	-0.959
Mof_C 	C 	0.0116	0.23448	0.69444	-0.644
Mof_C 	C 	0.01	0.25859	0.71315	0.342
Mof_H 	H 	0.9931	0.2566	0.7271	-0.073
Mof_C 	C 	0.0321	0.28507	0.71208	-0.254
Mof_H 	H 	0.0307	0.3005	0.7255	0.127
Mof_C 	C 	0.0564	0.2892	0.69163	0.089
Mof_C 	C 	0.0592	0.26552	0.67305	-0.259
Mof_H 	H 	0.0759	0.2678	0.659	0.122
Mof_C 	C 	0.0378	0.23867	0.67476	0.339
Mof_H 	H 	0.041	0.2225	0.6622	-0.088
Mof_B 	B 	0.9852	0.2042	0.6953	1.539
Mof_O 	O 	0.95397	0.21038	0.67588	-0.517
Mof_N 	N 	0.9281	0.18698	0.67229	-0.167
Mof_C 	C 	0.9047	0.1927	0.6539	0.094
Mof_H 	H 	0.9072	0.2123	0.6453	0.024
Mof_C 	C 	0.8746	0.1728	0.6443	-0.201
Mof_C 	C 	0.866	0.1437	0.6565	0.301
Mof_C 	C 	0.8346	0.1268	0.6451	-0.201
Mof_C 	C 	0.8154	0.1374	0.6225	0.14
Mof_H 	H 	0.7957	0.1251	0.6151	-0.035
Mof_C 	C 	0.8246	0.1654	0.6106	-0.282
Mof_C 	C 	0.8541	0.1825	0.6219	0.137
Mof_H 	H 	0.8606	0.2018	0.6139	-0.036
Mof_C 	C 	0.8225	0.0979	0.6563	0.103
Mof_H 	H 	0.7998	0.0894	0.6494	0.021
Mof_N 	N 	0.8389	0.0824	0.6744	-0.168
Mof_O 	O 	0.8193	0.05563	0.67939	-0.545
Mof_B 	B 	0.8346	0.0338	0.699	1.531
Mof_O 	O 	0.00798	0.17785	0.68672	-0.541
Mof_N 	N 	0.9905	0.14845	0.68704	-0.172
Mof_C 	C 	0.0133	0.12688	0.6816	0.1
Mof_H 	H 	0.0381	0.1332	0.6781	0.02
Mof_C 	C 	0.0057	0.09331	0.6802	-0.206
Mof_C 	C 	0.9695	0.08084	0.6838	0.29
Mof_C 	C 	0.9658	0.04799	0.6823	-0.205
Mof_C 	C 	0.9977	0.029	0.679	0.148
Mof_H 	H 	0.9947	0.007	0.679	-0.041
Mof_C 	C 	0.0332	0.04125	0.6757	-0.308
Mof_C 	C 	0.0356	0.07364	0.6753	0.157
Mof_H 	H 	0.0589	0.0829	0.6714	-0.049
Mof_C 	C 	0.9311	0.0312	0.6859	0.098
Mof_H 	H 	0.9314	0.0091	0.6839	0.019
Mof_N 	N 	0.9004	0.04403	0.6916	-0.17
Mof_O 	O 	0.87154	0.02155	0.69392	-0.549
Mof_O 	O 	0.97249	0.2015	0.72213	-0.54
Mof_N 	N 	0.9482	0.17757	0.72748	-0.159
Mof_C 	C 	0.9384	0.17863	0.75124	0.082
Mof_H 	H 	0.9493	0.1946	0.762	0.042
Mof_C 	C 	0.9119	0.15768	0.76364	-0.146
Mof_C 	C 	0.8964	0.13124	0.75007	0.249
Mof_C 	C 	0.8706	0.11233	0.7643	-0.155
Mof_C 	C 	0.861	0.121	0.78976	0.064
Mof_H 	H 	0.8432	0.1086	0.7985	-0.007
Mof_C 	C 	0.8759	0.1466	0.80294	-0.157
Mof_C 	C 	0.9018	0.1646	0.78961	0.065
Mof_H 	H 	0.913	0.1821	0.7983	0.011
Mof_C 	C 	0.8531	0.0847	0.75307	0.075
Mof_H 	H 	0.8379	0.0728	0.7644	0.023
Mof_N 	N 	0.856	0.0746	0.72976	-0.168
Mof_O 	O 	0.8342	0.0478	0.72571	-0.529
Mof_C 	C 	0.8051	0.00597	0.69999	-0.568
Mof_C 	C 	0.752	0.95689	0.70178	-0.028
Mof_C 	C 	0.0802	0.3181	0.69002	0.322
Mof_O 	O 	0.07731	0.33762	0.70815	-0.491
Mof_O 	O 	0.10243	0.31897	0.6712	-0.478
Mof_O 	O 	0.8834	0.13417	0.67686	-0.556
Mof_C 	C 	0.8037	0.1774	0.5859	0.612
Mof_O 	O 	0.94134	0.09916	0.68847	-0.551
Mof_C 	C 	0.068	0.0205	0.6734	0.669
Mof_C 	C 	0.0942	0.0236	0.6987	-0.824
Mof_H 	H 	0.0813	0.0154	0.714	0.257
Mof_H 	H 	0.1006	0.0456	0.7016	0.26
Mof_H 	H 	0.1171	0.0115	0.6962	0.241
Mof_C 	C 	0.094	0.0341	0.6542	-0.971
Mof_H 	H 	0.0969	0.0565	0.6577	0.293
Mof_H 	H 	0.0839	0.031	0.6363	0.286
Mof_H 	H 	0.1183	0.0238	0.6561	0.284
Mof_C 	C 	0.0581	0.9864	0.6729	-0.965
Mof_H 	H 	0.0407	0.9819	0.687	0.293
Mof_H 	H 	0.0808	0.9739	0.6756	0.285
Mof_H 	H 	0.0464	0.9811	0.6558	0.287
Mof_O 	O 	0.90533	0.12397	0.72612	-0.538
Mof_C 	C 	0.8642	0.1551	0.83082	0.357
Mof_C 	C 	0.7237	0.93161	0.7037	0.335
Mof_O 	O 	0.69085	0.93858	0.69611	-0.519
Mof_O 	O 	0.73229	0.90515	0.71289	-0.484
Mof_C 	C 	0.7759	0.0034	0.6809	-0.101
Mof_H 	H 	0.7741	0.0182	0.6671	0.054
Mof_C 	C 	0.7497	0.9796	0.682	-0.271
Mof_H 	H 	0.73	0.9787	0.6692	0.093
Mof_C 	C 	0.7814	0.9582	0.7201	-0.028
Mof_H 	H 	0.784	0.9426	0.7333	0.025
Mof_C 	C 	0.8068	0.9825	0.7189	0.133
Mof_H 	H 	0.8266	0.9831	0.7317	-0.037
Mof_C 	C 	0.8943	0.1509	0.8516	0.008
Mof_H 	H 	0.9177	0.16	0.8454	-0.062
Mof_H 	H 	0.8979	0.1286	0.8551	0.041
Mof_H 	H 	0.887	0.1615	0.8678	-0.013
Mof_C 	C 	0.8567	0.1913	0.8315	-0.479
Mof_H 	H 	0.8371	0.1966	0.8185	0.15
Mof_H 	H 	0.8797	0.2026	0.8275	0.247
Mof_H 	H 	0.8487	0.1973	0.8491	0.159
Mof_C 	C 	0.8268	0.1418	0.8385	-0.208
Mof_H 	H 	0.8085	0.1453	0.8241	0.039
Mof_H 	H 	0.8185	0.1522	0.8544	0.045
Mof_H 	H 	0.8294	0.1193	0.8418	0.065
Mof_C 	C 	0.8289	0.175	0.562	-0.856
Mof_H 	H 	0.8523	0.1862	0.5657	0.26
Mof_H 	H 	0.8161	0.1844	0.5466	0.249
Mof_H 	H 	0.8342	0.153	0.5583	0.259
Mof_C 	C 	0.7672	0.1602	0.5803	-0.889
Mof_H 	H 	0.7551	0.1687	0.5643	0.261
Mof_H 	H 	0.7507	0.1628	0.5952	0.27
Mof_H 	H 	0.7723	0.1379	0.5777	0.269
Mof_C 	C 	0.796	0.2126	0.5893	-0.861
Mof_H 	H 	0.8196	0.2236	0.5929	0.265
Mof_H 	H 	0.7793	0.2157	0.604	0.264
Mof_H 	H 	0.7842	0.2208	0.5731	0.253
Mof_C 	C 	0.6404	0.0783	0.04612	-0.597
Mof_C 	C 	0.6373	0.1063	0.09645	-0.015
Mof_B 	B 	0.6436	0.0611	0.01853	1.573
Mof_O 	O 	0.6418	0.02801	0.0249	-0.556
Mof_N 	N 	0.6395	0.0066	0.00412	-0.162
Mof_C 	C 	0.638	0.9787	0.01192	0.082
Mof_H 	H 	0.6382	0.9754	0.0304	0.018
Mof_C 	C 	0.636	0.95113	0.99532	-0.173
Mof_C 	C 	0.637	0.9523	0.96725	0.28
Mof_C 	C 	0.634	0.9233	0.9535	-0.174
Mof_C 	C 	0.6292	0.8958	0.96792	0.073
Mof_H 	H 	0.626	0.8768	0.9584	-0.003
Mof_C 	C 	0.6289	0.8944	0.99478	-0.159
Mof_C 	C 	0.6318	0.9222	0.0083	0.069
Mof_H 	H 	0.6309	0.922	0.027	-0.012
Mof_C 	C 	0.6359	0.9206	0.92539	0.079
Mof_H 	H 	0.6339	0.9	0.9184	0.03
Mof_N 	N 	0.6398	0.94228	0.9088	-0.164
Mof_O 	O 	0.6407	0.93165	0.88337	-0.525
Mof_B 	B 	0.6457	0.9554	0.86304	1.47
Mof_O 	O 	0.6112	0.07154	0.00317	-0.554
Mof_N 	N 	0.6052	0.0584	0.97851	-0.165
Mof_C 	C 	0.5727	0.0645	0.96934	0.097
Mof_H 	H 	0.5571	0.0772	0.9798	0.018
Mof_C 	C 	0.5577	0.0538	0.94447	-0.206
Mof_C 	C 	0.578	0.0357	0.92574	0.291
Mof_C 	C 	0.5581	0.0268	0.90216	-0.198
Mof_C 	C 	0.5203	0.0345	0.89872	0.156
Mof_H 	H 	0.5075	0.0278	0.8831	-0.025
Mof_C 	C 	0.5005	0.0516	0.91702	-0.313
Mof_C 	C 	0.5199	0.061	0.93926	0.157
Mof_H 	H 	0.507	0.0731	0.9518	-0.047
Mof_C 	C 	0.5748	0.008	0.88172	0.1
Mof_H 	H 	0.561	0.0056	0.8656	0.035
Mof_N 	N 	0.6063	0.99458	0.88373	-0.168
Mof_O 	O 	0.6147	0.97881	0.86128	-0.497
Mof_C 	C 	0.6458	0.9378	0.83514	-0.628
Mof_C 	C 	0.6137	0.9359	0.81886	0.326
Mof_H 	H 	0.5915	0.9459	0.8242	-0.066
Mof_C 	C 	0.6136	0.9197	0.79512	-0.244
Mof_H 	H 	0.5912	0.9179	0.7848	0.125
Mof_C 	C 	0.6462	0.90612	0.78644	0.087
Mof_C 	C 	0.6786	0.9084	0.80171	-0.255
Mof_H 	H 	0.701	0.8991	0.796	0.121
Mof_C 	C 	0.6781	0.9243	0.82556	0.329
Mof_H 	H 	0.7007	0.9261	0.8357	-0.087
Mof_C 	C 	0.6365	0.1192	0.12373	0.299
Mof_O 	O 	0.64858	0.14647	0.12776	-0.47
Mof_O 	O 	0.62	0.1044	0.14072	-0.493
Mof_O 	O 	0.6379	0.97838	0.95522	-0.568
Mof_C 	C 	0.624	0.863	0.0089	0.322
Mof_O 	O 	0.6122	0.02853	0.92989	-0.552
Mof_C 	C 	0.4593	0.0608	0.9133	0.692
Mof_C 	C 	0.4543	0.0966	0.9157	-0.928
Mof_H 	H 	0.4643	0.1037	0.9328	0.281
Mof_H 	H 	0.4278	0.1019	0.914	0.282
Mof_H 	H 	0.4679	0.107	0.9016	0.3
Mof_C 	C 	0.4367	0.0462	0.9355	-0.951
Mof_H 	H 	0.4477	0.0523	0.9526	0.295
Mof_H 	H 	0.4371	0.0234	0.9339	0.297
Mof_H 	H 	0.4108	0.0536	0.9342	0.289
Mof_C 	C 	0.4434	0.0521	0.8867	-1
Mof_H 	H 	0.4584	0.0618	0.873	0.33
Mof_H 	H 	0.4176	0.0596	0.885	0.305
Mof_H 	H 	0.4439	0.0293	0.8847	0.307
Mof_C 	C 	0.6464	0.89016	0.76006	0.309
Mof_O 	O 	0.61526	0.88711	0.74811	-0.48
Mof_O 	O 	0.67775	0.88083	0.75214	-0.473
Mof_O 	O 	0.6748	0.0738	0.0032	-0.35
Mof_C 	C 	0.652	0.1223	0.0756	-0.053
Mof_H 	H 	0.6612	0.1429	0.0781	0.049
Mof_C 	C 	0.6535	0.1084	0.051	0.128
Mof_H 	H 	0.6638	0.1199	0.0369	-0.027
Mof_C 	C 	0.6241	0.063	0.0674	-0.054
Mof_H 	H 	0.6136	0.0429	0.0646	0.033
Mof_C 	C 	0.6227	0.0761	0.0923	-0.258
Mof_H 	H 	0.6121	0.0648	0.1063	0.095
Mof_N 	N 	0.6821	0.0583	0.9807	-0.065
Mof_C 	C 	0.7113	0.0695	0.9708	0.032
Mof_H 	H 	0.7242	0.0856	0.9803	0.033
Mof_C 	C 	0.7263	0.0595	0.946	-0.027
Mof_C 	C 	0.7092	0.0365	0.929	0.046
Mof_C 	C 	0.7263	0.0308	0.9043	0.097
Mof_C 	C 	0.759	0.0468	0.8977	-0.117
Mof_H 	H 	0.7695	0.0431	0.881	0.056
Mof_C 	C 	0.776	0.0677	0.9148	0.04
Mof_C 	C 	0.7594	0.0738	0.9384	-0.067
Mof_H 	H 	0.771	0.0884	0.9501	0.041
Mof_C 	C 	0.712	0.009	0.8848	-0.208
Mof_H 	H 	0.7257	0.007	0.8691	0.101
Mof_N 	N 	0.683	0.9923	0.8866	-0.033
Mof_O 	O 	0.6781	0.9756	0.8639	-0.159
Mof_O 	O 	0.6807	0.0217	0.9359	-0.178
Mof_C 	C 	0.8128	0.0834	0.9077	0.065
Mof_C 	C 	0.8036	0.1183	0.9077	-0.455
Mof_H 	H 	0.7966	0.1248	0.9254	0.148
Mof_H 	H 	0.7828	0.1224	0.8952	0.153
Mof_H 	H 	0.8255	0.1302	0.9024	0.134
Mof_C 	C 	0.8435	0.0756	0.9279	-0.093
Mof_H 	H 	0.8359	0.0825	0.9454	-0.048
Mof_H 	H 	0.8665	0.0865	0.9233	0.031
Mof_H 	H 	0.8478	0.053	0.9281	0.094
Mof_C 	C 	0.8238	0.0731	0.8804	-0.493
Mof_H 	H 	0.8037	0.0783	0.8677	0.155
Mof_H 	H 	0.828	0.0505	0.8804	0.197
Mof_H 	H 	0.8467	0.0839	0.8756	0.14
Mof_C 	C 	0.2757	0.22874	0.69831	-0.699
Mof_C 	C 	0.2809	0.25323	0.7162	0.38
Mof_H 	H 	0.3001	0.2513	0.7293	-0.088
Mof_C 	C 	0.2595	0.27994	0.7158	-0.284
Mof_H 	H 	0.2637	0.2958	0.7287	0.133
Mof_C 	C 	0.2316	0.28364	0.69642	0.104
Mof_C 	C 	0.2248	0.2594	0.67872	-0.293
Mof_H 	H 	0.2053	0.2611	0.6657	0.131
Mof_C 	C 	0.2465	0.23282	0.68018	0.393
Mof_H 	H 	0.2411	0.2164	0.6681	-0.108
Mof_B 	B 	0.303	0.199	0.6979	1.627
Mof_O 	O 	0.2792	0.17068	0.69656	-0.546
Mof_N 	N 	0.2984	0.14175	0.6946	-0.166
Mof_C 	C 	0.2761	0.1187	0.6949	0.087
Mof_H 	H 	0.2503	0.1232	0.6968	0.024
Mof_C 	C 	0.2866	0.08624	0.69279	-0.164
Mof_C 	C 	0.3239	0.07626	0.68964	0.266
Mof_C 	C 	0.32978	0.04342	0.68668	-0.151
Mof_C 	C 	0.29925	0.02243	0.68702	0.066
Mof_H 	H 	0.3038	0.0007	0.685	0.009
Mof_C 	C 	0.26308	0.03269	0.69016	-0.158
Mof_C 	C 	0.2574	0.06469	0.6927	0.069
Mof_H 	H 	0.2327	0.0722	0.6944	-0.001
Mof_C 	C 	0.36685	0.02971	0.68506	0.078
Mof_H 	H 	0.3678	0.0078	0.6822	0.045
Mof_N 	N 	0.39797	0.04355	0.68698	-0.158
Mof_O 	O 	0.42785	0.02338	0.68552	-0.512
Mof_B 	B 	0.4657	0.037	0.689	1.518
Mof_O 	O 	0.3236	0.20378	0.67433	-0.574
Mof_N 	N 	0.3514	0.182	0.66957	-0.167
Mof_C 	C 	0.3675	0.1879	0.6482	0.089
Mof_H 	H 	0.3594	0.2061	0.639	0.03
Mof_C 	C 	0.3967	0.1698	0.63654	-0.177
Mof_C 	C 	0.4119	0.1424	0.64841	0.288
Mof_C 	C 	0.4387	0.12564	0.63328	-0.172
Mof_C 	C 	0.4493	0.1365	0.60865	0.085
Mof_H 	H 	0.4674	0.125	0.5993	-0.006
Mof_C 	C 	0.4345	0.1634	0.59725	-0.161
Mof_C 	C 	0.4087	0.1793	0.6119	0.081
Mof_H 	H 	0.3984	0.198	0.6047	-0.003
Mof_C 	C 	0.4559	0.09709	0.64246	0.079
Mof_H 	H 	0.4729	0.0876	0.6309	0.021
Mof_N 	N 	0.4512	0.08319	0.66396	-0.174
Mof_O 	O 	0.47453	0.05828	0.66732	-0.56
Mof_O 	O 	0.3247	0.19989	0.72242	-0.566
Mof_N 	N 	0.3503	0.1756	0.72597	-0.161
Mof_C 	C 	0.3651	0.1764	0.7488	0.06
Mof_H 	H 	0.3565	0.1925	0.76	0.046
Mof_C 	C 	0.3932	0.1559	0.76007	-0.104
Mof_C 	C 	0.408	0.1304	0.74513	0.216
Mof_C 	C 	0.4346	0.1109	0.75843	-0.092
Mof_C 	C 	0.4454	0.1172	0.78459	-0.067
Mof_C 	C 	0.4056	0.1606	0.78597	-0.029
Mof_C 	C 	0.4521	0.0839	0.74598	0.041
Mof_H 	H 	0.4674	0.0709	0.7569	0.06
Mof_N 	N 	0.4486	0.07657	0.72179	-0.161
Mof_O 	O 	0.4718	0.05159	0.71524	-0.525
Mof_C 	C 	0.49466	0.00858	0.68908	-0.652
Mof_C 	C 	0.4885	0.98039	0.702	0.357
Mof_H 	H 	0.4654	0.9773	0.7104	-0.083
Mof_C 	C 	0.51489	0.95678	0.70287	-0.255
Mof_H 	H 	0.5098	0.9378	0.7118	0.127
Mof_C 	C 	0.54888	0.96076	0.69076	0.08
Mof_C 	C 	0.5555	0.988	0.67729	-0.251
Mof_H 	H 	0.5783	0.9907	0.6684	0.11
Mof_C 	C 	0.52885	0.01151	0.67665	0.336
Mof_H 	H 	0.534	0.0303	0.6674	-0.096
Mof_C 	C 	0.2102	0.3135	0.6935	0.317
Mof_O 	O 	0.21588	0.33349	0.71125	-0.491
Mof_O 	O 	0.18756	0.31551	0.67429	-0.495
Mof_O 	O 	0.35116	0.09579	0.6889	-0.539
Mof_C 	C 	0.2302	0.01017	0.6919	0.348
Mof_O 	O 	0.4006	0.13215	0.67004	-0.564
Mof_C 	C 	0.4473	0.1751	0.5704	0.353
Mof_O 	O 	0.398	0.12589	0.72078	-0.537
Mof_C 	C 	0.57818	0.93564	0.69207	0.35
Mof_O 	O 	0.56901	0.90965	0.70123	-0.481
Mof_O 	O 	0.60982	0.9425	0.68503	-0.495
Mof_C 	C 	0.4343	0.1437	0.7981	0.135
Mof_C 	C 	0.2218	0.99	0.6684	-0.171
Mof_H 	H 	0.245	0.9812	0.662	-0.007
Mof_H 	H 	0.2097	0.0026	0.6545	0.076
Mof_H 	H 	0.205	0.973	0.6734	0.041
Mof_C 	C 	0.2414	0.9873	0.7154	-0.538
Mof_H 	H 	0.2472	0.9996	0.7312	0.181
Mof_H 	H 	0.2633	0.9751	0.7107	0.177
Mof_H 	H 	0.2206	0.9732	0.7187	0.176
Mof_C 	C 	0.1944	0.0238	0.702	-0.288
Mof_H 	H 	0.2001	0.037	0.7173	-0.061
Mof_H 	H 	0.1777	0.0069	0.707	0.099
Mof_H 	H 	0.1824	0.0365	0.6881	0.108
Mof_C 	C 	0.426	0.2034	0.5595	-0.21
Mof_H 	H 	0.4263	0.2201	0.5726	0.056
Mof_H 	H 	0.4001	0.1974	0.5553	0.077
Mof_H 	H 	0.4379	0.2107	0.5435	0.055
Mof_C 	C 	0.4871	0.1874	0.5772	-0.217
Mof_H 	H 	0.5024	0.1703	0.5844	0.058
Mof_H 	H 	0.4857	0.2042	0.5902	-0.003
Mof_H 	H 	0.4984	0.1955	0.5612	0.073
Mof_C 	C 	0.4483	0.1476	0.5513	-0.371
Mof_H 	H 	0.4623	0.1303	0.5594	0.001
Mof_H 	H 	0.4606	0.1542	0.5351	0.12
Mof_H 	H 	0.4228	0.1408	0.5469	0.234
Mof_C 	C 	0.4561	0.1563	0.8223	-0.181
Mof_C 	C 	0.4408	0.187	0.8322	0.058
Mof_H 	H 	0.4431	0.203	0.8185	0.018
Mof_H 	H 	0.455	0.1935	0.8481	0.012
Mof_H 	H 	0.4145	0.1844	0.8364	-0.125
Mof_C 	C 	0.4527	0.1312	0.8434	1.216
Mof_H 	H 	0.4626	0.1114	0.8369	-1.573
Mof_H 	H 	0.4263	0.1285	0.8476	-0.181
Mof_H 	H 	0.4668	0.1376	0.8593	-0.382
Mof_C 	C 	0.4974	0.1623	0.8176	-0.015
Mof_H 	H 	0.509	0.1431	0.8111	0.007
Mof_H 	H 	0.5099	0.1687	0.8341	0.047
Mof_H 	H 	0.4999	0.1789	0.8045	0.02
Mof_C 	C 	0.5922	0.8637	0.0285	-0.196
Mof_H 	H 	0.5956	0.8817	0.0402	0.071
Mof_H 	H 	0.5925	0.8444	0.0388	0.057
Mof_H 	H 	0.5683	0.8656	0.0188	0.041
Mof_C 	C 	0.6184	0.8348	0.9906	-0.184
Mof_H 	H 	0.6386	0.8341	0.978	0.058
Mof_H 	H 	0.5944	0.8367	0.9811	0.06
Mof_H 	H 	0.6186	0.8156	0.0011	0.051
Mof_C 	C 	0.6613	0.856	0.0239	-0.33
Mof_H 	H 	0.667	0.8731	0.0362	0.093
Mof_H 	H 	0.6814	0.8541	0.0113	0.057
Mof_H 	H 	0.6591	0.8364	0.0337	0.103
Mof_C 	C 	0.7679	0.0105	0.6918	0.298
Mof_H 	H 	0.7603	0.0304	0.6854	-0.071
Mof_C 	C 	0.7417	0.9867	0.6929	0.145
Mof_H 	H 	0.7166	0.9906	0.6875	-0.017
Mof_C 	C 	0.7878	0.9528	0.712	-0.097
Mof_H 	H 	0.7949	0.9334	0.7196	0.059
Mof_C 	C 	0.8134	0.977	0.7111	0.067
Mof_H 	H 	0.8378	0.9737	0.7185	-0.004
Mof_C 	C 	0.8881	0.1796	0.8438	-0.194
Mof_H 	H 	0.9144	0.1735	0.8431	0.129
Mof_H 	H 	0.8811	0.1819	0.8622	0.069
Mof_H 	H 	0.8844	0.1996	0.8347	-0.058
Mof_C 	C 	0.8227	0.1623	0.8309	-0.147
Mof_H 	H 	0.8089	0.1453	0.8221	0.072
Mof_H 	H 	0.8179	0.182	0.8215	0.045
Mof_H 	H 	0.8146	0.1642	0.849	0.06
Mof_C 	C 	0.8723	0.1256	0.8482	-0.597
Mof_H 	H 	0.8578	0.1079	0.8412	0.171
Mof_H 	H 	0.8652	0.1298	0.8663	0.176
Mof_H 	H 	0.8989	0.1206	0.8479	0.152
Mof_O 	O 	0.6825	0.0632	0.0092	-0.204
Mof_C 	C 	0.6104	0.0737	0.0625	0.281
Mof_H 	H 	0.5903	0.0609	0.0564	-0.074
Mof_C 	C 	0.6086	0.087	0.0872	0.105
Mof_H 	H 	0.5878	0.083	0.0979	0.002
Mof_C 	C 	0.6662	0.1136	0.0797	-0.093
Mof_H 	H 	0.6848	0.1283	0.0851	0.048
Mof_C 	C 	0.6677	0.0994	0.0553	0.092
Mof_H 	H 	0.688	0.1041	0.0443	-0.011
Mof_N 	N 	0.6903	0.0486	0.9848	-0.101
Mof_C 	C 	0.7242	0.053	0.9792	-0.016
Mof_H 	H 	0.7394	0.0644	0.9915	0.043
Mof_C 	C 	0.7417	0.0419	0.9554	-0.045
Mof_C 	C 	0.722	0.0236	0.9357	0.116
Mof_C 	C 	0.7432	0.0117	0.9143	-0.181
Mof_C 	C 	0.7814	0.0187	0.913	0.065
Mof_H 	H 	0.7952	0.0101	0.899	-0.012
Mof_C 	C 	0.7997	0.038	0.9315	-0.076
Mof_C 	C 	0.7795	0.0486	0.9525	0.007
Mof_H 	H 	0.792	0.0609	0.9656	0.016
Mof_C 	C 	0.7264	0.9939	0.893	0.214
Mof_H 	H 	0.7428	0.9863	0.88	-0.04
Mof_N 	N 	0.6921	0.9872	0.8898	-0.108
Mof_O 	O 	0.6836	0.969	0.8679	-0.34
Mof_O 	O 	0.6866	0.0189	0.9366	-0.275
Mof_C 	C 	0.8407	0.0465	0.9273	0.118
Mof_C 	C 	0.8585	0.0631	0.9504	-0.52
Mof_H 	H 	0.8553	0.0506	0.9664	0.164
Mof_H 	H 	0.8467	0.0836	0.9526	0.222
Mof_H 	H 	0.8852	0.0659	0.9474	0.155
Mof_C 	C 	0.8628	0.016	0.924	-0.462
Mof_H 	H 	0.8522	0.0042	0.909	0.141
Mof_H 	H 	0.8612	0.0033	0.94	0.148
Mof_H 	H 	0.889	0.0209	0.9207	0.135
Mof_C 	C 	0.8439	0.0638	0.9011	-0.149
Mof_H 	H 	0.8317	0.0515	0.8871	-0.019
Mof_H 	H 	0.8704	0.0666	0.8972	0.034
Mof_H 	H 	0.8318	0.0843	0.9023	0.143
Mof_C 	C 	0.5844	0.8503	0.0009	-0.348
Mof_H 	H 	0.5826	0.8479	0.9817	0.093
Mof_H 	H 	0.5654	0.8651	0.0066	0.104
Mof_H 	H 	0.5805	0.83	0.0093	0.113
Mof_C 	C 	0.6518	0.8382	0.001	-0.193
Mof_H 	H 	0.6514	0.8362	0.9817	0.041
Mof_H 	H 	0.6451	0.8181	0.0088	0.055
Mof_H 	H 	0.6769	0.8443	0.0072	0.083
Mof_C 	C 	0.6246	0.866	0.0386	-0.176
Mof_H 	H 	0.6066	0.882	0.0437	0.019
Mof_H 	H 	0.6497	0.872	0.0448	0.049
Mof_H 	H 	0.6179	0.8459	0.0464	0.049
Mof_C 	C 	0.2	0.0202	0.6709	-0.363
Mof_H 	H 	0.1921	0.0417	0.6743	0.079
Mof_H 	H 	0.1784	0.0062	0.6718	0.099
Mof_H 	H 	0.2104	0.0189	0.6533	0.082
Mof_C 	C 	0.2402	0.9771	0.6848	-0.169
Mof_H 	H 	0.2523	0.9769	0.6677	0.112
Mof_H 	H 	0.2174	0.9643	0.6836	0.054
Mof_H 	H 	0.2572	0.9684	0.6983	0.03
Mof_C 	C 	0.2112	0.0117	0.7183	-0.032
Mof_H 	H 	0.2051	0.0335	0.7223	0.159
Mof_H 	H 	0.228	0.0033	0.7321	0.001
Mof_H 	H 	0.1882	0.9992	0.7174	-0.013
Mof_C 	C 	0.4558	0.2101	0.5717	-0.342
Mof_H 	H 	0.4343	0.2213	0.5787	0.092
Mof_H 	H 	0.4609	0.2179	0.554	0.107
Mof_H 	H 	0.4777	0.2137	0.5833	0.158
Mof_C 	C 	0.4801	0.1567	0.5597	-0.26
Mof_H 	H 	0.4738	0.1344	0.5591	0.167
Mof_H 	H 	0.5022	0.1598	0.5712	0.078
Mof_H 	H 	0.4853	0.164	0.5419	0.061
Mof_C 	C 	0.4157	0.17	0.5495	-0.116
Mof_H 	H 	0.4097	0.1477	0.5483	-0.087
Mof_H 	H 	0.4239	0.1775	0.5323	0.049
Mof_H 	H 	0.3934	0.1817	0.5545	0.026
Mof_C 	C 	0.4285	0.1399	0.7996	0.045
Mof_C 	C 	0.4286	0.1377	0.8297	-0.66
Mof_C 	C 	0.417	0.1683	0.842	0.378
Mof_H 	H 	0.3922	0.1743	0.8351	-0.032
Mof_H 	H 	0.4351	0.1846	0.8377	-0.066
Mof_H 	H 	0.4162	0.1659	0.8612	-0.096
Mof_C 	C 	0.4669	0.126	0.839	0.629
Mof_H 	H 	0.4724	0.1062	0.8303	1.017
Mof_H 	H 	0.467	0.1228	0.8581	-0.083
Mof_H 	H 	0.4859	0.1415	0.8347	-0.279
Mof_C 	C 	0.3999	0.1142	0.8401	0.297
Mof_H 	H 	0.4051	0.0934	0.8331	-0.046
Mof_H 	H 	0.3747	0.1207	0.8344	-0.058
Mof_H 	H 	0.4016	0.1137	0.8594	-0.053
Mof_Zn	Zn	0.61411	0.40853	0.30203	1.2
Mof_Zn	Zn	0.56608	0.35294	0.30369	1.198
Mof_Zn	Zn	0.14252	0.35585	0.30492	1.199
Mof_Zn	Zn	0.08986	0.40824	0.30788	1.195
Mof_Zn	Zn	0.85613	0.47468	0.03419	1.193
Mof_Zn	Zn	0.85575	0.5089	0.0843	1.191
Mof_Zn	Zn	0.89609	0.62328	0.28849	1.217
Mof_Zn	Zn	0.84691	0.5824	0.32737	1.181
Mof_Zn	Zn	0.80781	0.62564	0.28468	1.21
Mof_Zn	Zn	0.85266	0.65473	0.33414	1.206
Mof_O 	O 	0.8507	0.62221	0.30789	-0.959
Mof_C 	C 	0.4884	0.26552	0.30556	-0.644
Mof_C 	C 	0.49	0.24141	0.28685	0.342
Mof_H 	H 	0.5069	0.2434	0.2729	-0.073
Mof_C 	C 	0.4679	0.21493	0.28792	-0.254
Mof_H 	H 	0.4693	0.1995	0.2745	0.127
Mof_C 	C 	0.4436	0.2108	0.30837	0.089
Mof_C 	C 	0.4408	0.23448	0.32695	-0.259
Mof_H 	H 	0.4241	0.2322	0.341	0.122
Mof_C 	C 	0.4622	0.26133	0.32524	0.339
Mof_H 	H 	0.459	0.2775	0.3378	-0.088
Mof_B 	B 	0.5148	0.2958	0.3047	1.539
Mof_O 	O 	0.54603	0.28962	0.32412	-0.517
Mof_N 	N 	0.5719	0.31302	0.32771	-0.167
Mof_C 	C 	0.5953	0.3073	0.3461	0.094
Mof_H 	H 	0.5928	0.2877	0.3547	0.024
Mof_C 	C 	0.6254	0.3272	0.3557	-0.201
Mof_C 	C 	0.634	0.3563	0.3435	0.301
Mof_C 	C 	0.6654	0.3732	0.3549	-0.201
Mof_C 	C 	0.6846	0.3626	0.3775	0.14
Mof_H 	H 	0.7043	0.3749	0.3849	-0.035
Mof_C 	C 	0.6754	0.3346	0.3894	-0.282
Mof_C 	C 	0.6459	0.3175	0.3781	0.137
Mof_H 	H 	0.6394	0.2982	0.3861	-0.036
Mof_C 	C 	0.6775	0.4021	0.3437	0.103
Mof_H 	H 	0.7002	0.4106	0.3506	0.021
Mof_N 	N 	0.6611	0.4176	0.3256	-0.168
Mof_O 	O 	0.6807	0.44437	0.32061	-0.545
Mof_B 	B 	0.6654	0.4662	0.301	1.531
Mof_O 	O 	0.49202	0.32215	0.31328	-0.541
Mof_N 	N 	0.5095	0.35155	0.31296	-0.172
Mof_C 	C 	0.4867	0.37312	0.3184	0.1
Mof_H 	H 	0.4619	0.3668	0.3219	0.02
Mof_C 	C 	0.4943	0.40669	0.3198	-0.206
Mof_C 	C 	0.5305	0.41916	0.3162	0.29
Mof_C 	C 	0.5342	0.45201	0.3177	-0.205
Mof_C 	C 	0.5023	0.471	0.321	0.148
Mof_H 	H 	0.5053	0.493	0.321	-0.041
Mof_C 	C 	0.4668	0.45875	0.3243	-0.308
Mof_C 	C 	0.4644	0.42636	0.3247	0.157
Mof_H 	H 	0.4411	0.4171	0.3286	-0.049
Mof_C 	C 	0.5689	0.4688	0.3141	0.098
Mof_H 	H 	0.5686	0.4909	0.3161	0.019
Mof_N 	N 	0.5996	0.45597	0.3084	-0.17
Mof_O 	O 	0.62846	0.47845	0.30608	-0.549
Mof_O 	O 	0.52751	0.2985	0.27787	-0.54
Mof_N 	N 	0.5518	0.32243	0.27252	-0.159
Mof_C 	C 	0.5616	0.32137	0.24876	0.082
Mof_H 	H 	0.5507	0.3054	0.238	0.042
Mof_C 	C 	0.5881	0.34232	0.23636	-0.146
Mof_C 	C 	0.6036	0.36876	0.24993	0.249
Mof_C 	C 	0.6294	0.38767	0.2357	-0.155
Mof_C 	C 	0.639	0.379	0.21024	0.064
Mof_H 	H 	0.6568	0.3914	0.2015	-0.007
Mof_C 	C 	0.6241	0.3534	0.19706	-0.157
Mof_C 	C 	0.5982	0.3354	0.21039	0.065
Mof_H 	H 	0.587	0.3179	0.2017	0.011
Mof_C 	C 	0.6469	0.4153	0.24693	0.075
Mof_H 	H 	0.6621	0.4272	0.2356	0.023
Mof_N 	N 	0.644	0.4254	0.27024	-0.168
Mof_O 	O 	0.6658	0.4522	0.27429	-0.529
Mof_C 	C 	0.6949	0.49403	0.30001	-0.568
Mof_C 	C 	0.748	0.54311	0.29822	-0.028
Mof_C 	C 	0.4198	0.1819	0.30998	0.322
Mof_O 	O 	0.42269	0.16238	0.29185	-0.491
Mof_O 	O 	0.39757	0.18103	0.3288	-0.478
Mof_O 	O 	0.6166	0.36583	0.32314	-0.556
Mof_C 	C 	0.6963	0.3226	0.4141	0.612
Mof_O 	O 	0.55866	0.40084	0.31153	-0.551
Mof_C 	C 	0.432	0.4795	0.3266	0.669
Mof_C 	C 	0.4058	0.4764	0.3013	-0.824
Mof_H 	H 	0.4187	0.4846	0.286	0.257
Mof_H 	H 	0.3994	0.4544	0.2984	0.26
Mof_H 	H 	0.3829	0.4885	0.3038	0.241
Mof_C 	C 	0.406	0.4659	0.3458	-0.971
Mof_H 	H 	0.4031	0.4435	0.3423	0.293
Mof_H 	H 	0.4161	0.469	0.3637	0.286
Mof_H 	H 	0.3817	0.4762	0.3439	0.284
Mof_C 	C 	0.4419	0.5136	0.3271	-0.965
Mof_H 	H 	0.4593	0.5181	0.313	0.293
Mof_H 	H 	0.4192	0.5261	0.3244	0.285
Mof_H 	H 	0.4536	0.5189	0.3442	0.287
Mof_O 	O 	0.59467	0.37603	0.27388	-0.538
Mof_C 	C 	0.6358	0.3449	0.16918	0.357
Mof_C 	C 	0.7763	0.56839	0.2963	0.335
Mof_O 	O 	0.80915	0.56142	0.30389	-0.519
Mof_O 	O 	0.76771	0.59485	0.28711	-0.484
Mof_C 	C 	0.7241	0.4966	0.3191	-0.101
Mof_H 	H 	0.7259	0.4818	0.3329	0.054
Mof_C 	C 	0.7503	0.5204	0.318	-0.271
Mof_H 	H 	0.77	0.5213	0.3308	0.093
Mof_C 	C 	0.7186	0.5418	0.2799	-0.028
Mof_H 	H 	0.716	0.5574	0.2667	0.025
Mof_C 	C 	0.6932	0.5175	0.2811	0.133
Mof_H 	H 	0.6734	0.5169	0.2683	-0.037
Mof_C 	C 	0.6057	0.3491	0.1484	0.008
Mof_H 	H 	0.5823	0.34	0.1546	-0.062
Mof_H 	H 	0.6021	0.3714	0.1449	0.041
Mof_H 	H 	0.613	0.3385	0.1322	-0.013
Mof_C 	C 	0.6433	0.3087	0.1685	-0.479
Mof_H 	H 	0.6629	0.3034	0.1815	0.15
Mof_H 	H 	0.6203	0.2974	0.1725	0.247
Mof_H 	H 	0.6513	0.3027	0.1509	0.159
Mof_C 	C 	0.6732	0.3582	0.1615	-0.208
Mof_H 	H 	0.6915	0.3547	0.1759	0.039
Mof_H 	H 	0.6815	0.3478	0.1456	0.045
Mof_H 	H 	0.6706	0.3807	0.1582	0.065
Mof_C 	C 	0.6711	0.325	0.438	-0.856
Mof_H 	H 	0.6477	0.3138	0.4343	0.26
Mof_H 	H 	0.6839	0.3156	0.4534	0.249
Mof_H 	H 	0.6658	0.347	0.4417	0.259
Mof_C 	C 	0.7328	0.3398	0.4197	-0.889
Mof_H 	H 	0.7449	0.3313	0.4357	0.261
Mof_H 	H 	0.7493	0.3372	0.4048	0.27
Mof_H 	H 	0.7277	0.3621	0.4223	0.269
Mof_C 	C 	0.704	0.2874	0.4107	-0.861
Mof_H 	H 	0.6804	0.2764	0.4071	0.265
Mof_H 	H 	0.7207	0.2843	0.396	0.264
Mof_H 	H 	0.7158	0.2792	0.4269	0.253
Mof_C 	C 	0.8596	0.4217	0.95388	-0.597
Mof_C 	C 	0.8627	0.3937	0.90355	-0.015
Mof_B 	B 	0.8564	0.4389	0.98147	1.573
Mof_O 	O 	0.8582	0.47199	0.9751	-0.556
Mof_N 	N 	0.8605	0.4934	0.99588	-0.162
Mof_C 	C 	0.862	0.5213	0.98808	0.082
Mof_H 	H 	0.8618	0.5246	0.9696	0.018
Mof_C 	C 	0.864	0.54887	0.00468	-0.173
Mof_C 	C 	0.863	0.5477	0.03275	0.28
Mof_C 	C 	0.866	0.5767	0.0465	-0.174
Mof_C 	C 	0.8708	0.6042	0.03208	0.073
Mof_H 	H 	0.874	0.6232	0.0416	-0.003
Mof_C 	C 	0.8711	0.6056	0.00522	-0.159
Mof_C 	C 	0.8682	0.5778	0.9917	0.069
Mof_H 	H 	0.8691	0.578	0.973	-0.012
Mof_C 	C 	0.8641	0.5794	0.07461	0.079
Mof_H 	H 	0.8661	0.6	0.0816	0.03
Mof_N 	N 	0.8602	0.55772	0.0912	-0.164
Mof_O 	O 	0.8593	0.56835	0.11663	-0.525
Mof_B 	B 	0.8543	0.5446	0.13696	1.47
Mof_O 	O 	0.8888	0.42846	0.99683	-0.554
Mof_N 	N 	0.8948	0.4416	0.02149	-0.165
Mof_C 	C 	0.9273	0.4355	0.03066	0.097
Mof_H 	H 	0.9429	0.4228	0.0202	0.018
Mof_C 	C 	0.9423	0.4462	0.05553	-0.206
Mof_C 	C 	0.922	0.4643	0.07426	0.291
Mof_C 	C 	0.9419	0.4732	0.09784	-0.198
Mof_C 	C 	0.9797	0.4655	0.10128	0.156
Mof_H 	H 	0.9925	0.4722	0.1169	-0.025
Mof_C 	C 	0.9995	0.4484	0.08298	-0.313
Mof_C 	C 	0.9801	0.439	0.06074	0.157
Mof_H 	H 	0.993	0.4269	0.0482	-0.047
Mof_C 	C 	0.9252	0.492	0.11828	0.1
Mof_H 	H 	0.939	0.4944	0.1344	0.035
Mof_N 	N 	0.8937	0.50542	0.11627	-0.168
Mof_O 	O 	0.8853	0.52119	0.13872	-0.497
Mof_C 	C 	0.8542	0.5622	0.16486	-0.628
Mof_C 	C 	0.8863	0.5641	0.18114	0.326
Mof_H 	H 	0.9085	0.5541	0.1758	-0.066
Mof_C 	C 	0.8864	0.5803	0.20488	-0.244
Mof_H 	H 	0.9088	0.5821	0.2152	0.125
Mof_C 	C 	0.8538	0.59388	0.21356	0.087
Mof_C 	C 	0.8214	0.5916	0.19829	-0.255
Mof_H 	H 	0.799	0.6009	0.204	0.121
Mof_C 	C 	0.8219	0.5757	0.17444	0.329
Mof_H 	H 	0.7993	0.5739	0.1643	-0.087
Mof_C 	C 	0.8635	0.3808	0.87627	0.299
Mof_O 	O 	0.85142	0.35353	0.87224	-0.47
Mof_O 	O 	0.88	0.3956	0.85928	-0.493
Mof_O 	O 	0.8621	0.52162	0.04478	-0.568
Mof_C 	C 	0.876	0.637	0.9911	0.322
Mof_O 	O 	0.8878	0.47147	0.07011	-0.552
Mof_C 	C 	0.0407	0.4392	0.0867	0.692
Mof_C 	C 	0.0457	0.4034	0.0843	-0.928
Mof_H 	H 	0.0357	0.3963	0.0672	0.281
Mof_H 	H 	0.0722	0.3981	0.086	0.282
Mof_H 	H 	0.0321	0.393	0.0984	0.3
Mof_C 	C 	0.0633	0.4538	0.0645	-0.951
Mof_H 	H 	0.0523	0.4477	0.0474	0.295
Mof_H 	H 	0.0629	0.4766	0.0661	0.297
Mof_H 	H 	0.0892	0.4464	0.0658	0.289
Mof_C 	C 	0.0566	0.4479	0.1133	-1
Mof_H 	H 	0.0416	0.4382	0.127	0.33
Mof_H 	H 	0.0824	0.4404	0.115	0.305
Mof_H 	H 	0.0561	0.4707	0.1153	0.307
Mof_C 	C 	0.8536	0.60984	0.23994	0.309
Mof_O 	O 	0.88474	0.61289	0.25189	-0.48
Mof_O 	O 	0.82225	0.61917	0.24786	-0.473
Mof_O 	O 	0.8252	0.4262	0.9968	-0.35
Mof_C 	C 	0.848	0.3777	0.9244	-0.053
Mof_H 	H 	0.8388	0.3571	0.9219	0.049
Mof_C 	C 	0.8465	0.3916	0.949	0.128
Mof_H 	H 	0.8362	0.3801	0.9631	-0.027
Mof_C 	C 	0.8759	0.437	0.9326	-0.054
Mof_H 	H 	0.8864	0.4571	0.9354	0.033
Mof_C 	C 	0.8773	0.4239	0.9077	-0.258
Mof_H 	H 	0.8879	0.4352	0.8937	0.095
Mof_N 	N 	0.8179	0.4417	0.0193	-0.065
Mof_C 	C 	0.7887	0.4305	0.0292	0.032
Mof_H 	H 	0.7758	0.4144	0.0197	0.033
Mof_C 	C 	0.7737	0.4405	0.054	-0.027
Mof_C 	C 	0.7908	0.4635	0.071	0.046
Mof_C 	C 	0.7737	0.4692	0.0957	0.097
Mof_C 	C 	0.741	0.4532	0.1023	-0.117
Mof_H 	H 	0.7305	0.4569	0.119	0.056
Mof_C 	C 	0.724	0.4323	0.0852	0.04
Mof_C 	C 	0.7406	0.4262	0.0616	-0.067
Mof_H 	H 	0.729	0.4116	0.0499	0.041
Mof_C 	C 	0.788	0.491	0.1152	-0.208
Mof_H 	H 	0.7743	0.493	0.1309	0.101
Mof_N 	N 	0.817	0.5077	0.1134	-0.033
Mof_O 	O 	0.8219	0.5244	0.1361	-0.159
Mof_O 	O 	0.8193	0.4783	0.0641	-0.178
Mof_C 	C 	0.6872	0.4166	0.0923	0.065
Mof_C 	C 	0.6964	0.3817	0.0923	-0.455
Mof_H 	H 	0.7034	0.3752	0.0746	0.148
Mof_H 	H 	0.7172	0.3776	0.1048	0.153
Mof_H 	H 	0.6745	0.3698	0.0976	0.134
Mof_C 	C 	0.6565	0.4244	0.0721	-0.093
Mof_H 	H 	0.6641	0.4175	0.0546	-0.048
Mof_H 	H 	0.6335	0.4135	0.0767	0.031
Mof_H 	H 	0.6522	0.447	0.0719	0.094
Mof_C 	C 	0.6762	0.4269	0.1196	-0.493
Mof_H 	H 	0.6963	0.4217	0.1323	0.155
Mof_H 	H 	0.672	0.4495	0.1196	0.197
Mof_H 	H 	0.6533	0.4161	0.1244	0.14
Mof_C 	C 	0.2243	0.27126	0.30169	-0.699
Mof_C 	C 	0.2191	0.24677	0.2838	0.38
Mof_H 	H 	0.1999	0.2487	0.2707	-0.089
Mof_C 	C 	0.2405	0.22006	0.2842	-0.284
Mof_H 	H 	0.2363	0.2042	0.2713	0.133
Mof_C 	C 	0.2684	0.21636	0.30358	0.104
Mof_C 	C 	0.2752	0.2406	0.32128	-0.293
Mof_H 	H 	0.2947	0.2389	0.3343	0.131
Mof_C 	C 	0.2535	0.26718	0.31982	0.393
Mof_H 	H 	0.2589	0.2836	0.3319	-0.108
Mof_B 	B 	0.197	0.301	0.3021	1.627
Mof_O 	O 	0.2208	0.32932	0.30344	-0.546
Mof_N 	N 	0.2016	0.35825	0.3054	-0.166
Mof_C 	C 	0.2239	0.3813	0.3051	0.087
Mof_H 	H 	0.2497	0.3768	0.3032	0.024
Mof_C 	C 	0.2134	0.41376	0.30721	-0.164
Mof_C 	C 	0.1761	0.42374	0.31036	0.266
Mof_C 	C 	0.17022	0.45658	0.31332	-0.151
Mof_C 	C 	0.20075	0.47757	0.31298	0.066
Mof_H 	H 	0.1962	0.4993	0.315	0.009
Mof_C 	C 	0.23692	0.46731	0.30984	-0.158
Mof_C 	C 	0.2426	0.43531	0.3073	0.069
Mof_H 	H 	0.2673	0.4278	0.3056	-0.001
Mof_C 	C 	0.13315	0.47029	0.31494	0.078
Mof_H 	H 	0.1322	0.4922	0.3178	0.045
Mof_N 	N 	0.10203	0.45645	0.31302	-0.158
Mof_O 	O 	0.07215	0.47662	0.31448	-0.512
Mof_B 	B 	0.0343	0.463	0.311	1.518
Mof_O 	O 	0.1764	0.29622	0.32567	-0.574
Mof_N 	N 	0.1486	0.318	0.33043	-0.167
Mof_C 	C 	0.1325	0.3121	0.3518	0.089
Mof_H 	H 	0.1406	0.2939	0.361	0.03
Mof_C 	C 	0.1033	0.3302	0.36346	-0.177
Mof_C 	C 	0.0881	0.3576	0.35159	0.288
Mof_C 	C 	0.0613	0.37436	0.36672	-0.172
Mof_C 	C 	0.0507	0.3635	0.39135	0.085
Mof_H 	H 	0.0326	0.375	0.4007	-0.006
Mof_C 	C 	0.0655	0.3366	0.40275	-0.161
Mof_C 	C 	0.0913	0.3207	0.3881	0.081
Mof_H 	H 	0.1016	0.302	0.3953	-0.003
Mof_C 	C 	0.0441	0.40291	0.35754	0.079
Mof_H 	H 	0.0271	0.4124	0.3691	0.021
Mof_N 	N 	0.0488	0.41681	0.33604	-0.174
Mof_O 	O 	0.02547	0.44172	0.33268	-0.56
Mof_O 	O 	0.1753	0.30011	0.27758	-0.566
Mof_N 	N 	0.1497	0.3244	0.27403	-0.161
Mof_C 	C 	0.1349	0.3236	0.2512	0.06
Mof_H 	H 	0.1435	0.3075	0.24	0.046
Mof_C 	C 	0.1068	0.3441	0.23993	-0.104
Mof_C 	C 	0.092	0.3696	0.25487	0.216
Mof_C 	C 	0.0654	0.3891	0.24157	-0.092
Mof_C 	C 	0.0546	0.3828	0.21541	-0.067
Mof_C 	C 	0.0944	0.3394	0.21403	-0.029
Mof_C 	C 	0.0479	0.4161	0.25402	0.041
Mof_H 	H 	0.0326	0.4291	0.2431	0.06
Mof_N 	N 	0.0514	0.42343	0.27821	-0.161
Mof_O 	O 	0.0282	0.44841	0.28476	-0.525
Mof_C 	C 	0.00534	0.49142	0.31092	-0.652
Mof_C 	C 	0.0115	0.51961	0.298	0.357
Mof_H 	H 	0.0346	0.5227	0.2896	-0.083
Mof_C 	C 	0.98511	0.54322	0.29713	-0.255
Mof_H 	H 	0.9902	0.5622	0.2882	0.127
Mof_C 	C 	0.95112	0.53924	0.30924	0.08
Mof_C 	C 	0.9445	0.512	0.32271	-0.251
Mof_H 	H 	0.9217	0.5093	0.3316	0.11
Mof_C 	C 	0.97115	0.48849	0.32335	0.336
Mof_H 	H 	0.966	0.4697	0.3326	-0.096
Mof_C 	C 	0.2898	0.1865	0.3065	0.317
Mof_O 	O 	0.28412	0.16651	0.28875	-0.491
Mof_O 	O 	0.31244	0.18449	0.32571	-0.495
Mof_O 	O 	0.14884	0.40421	0.3111	-0.539
Mof_C 	C 	0.2698	0.48983	0.3081	0.348
Mof_O 	O 	0.0994	0.36785	0.32996	-0.564
Mof_C 	C 	0.0527	0.3249	0.4296	0.353
Mof_O 	O 	0.102	0.37411	0.27922	-0.537
Mof_C 	C 	0.92182	0.56436	0.30793	0.35
Mof_O 	O 	0.93099	0.59035	0.29877	-0.481
Mof_O 	O 	0.89018	0.5575	0.31497	-0.495
Mof_C 	C 	0.0657	0.3563	0.2019	0.135
Mof_C 	C 	0.2782	0.51	0.3316	-0.171
Mof_H 	H 	0.255	0.5188	0.338	-0.007
Mof_H 	H 	0.2903	0.4974	0.3455	0.076
Mof_H 	H 	0.295	0.527	0.3266	0.041
Mof_C 	C 	0.2586	0.5127	0.2846	-0.538
Mof_H 	H 	0.2528	0.5004	0.2688	0.181
Mof_H 	H 	0.2367	0.5249	0.2893	0.177
Mof_H 	H 	0.2794	0.5268	0.2813	0.176
Mof_C 	C 	0.3056	0.4762	0.298	-0.288
Mof_H 	H 	0.2999	0.463	0.2827	-0.061
Mof_H 	H 	0.3223	0.4931	0.293	0.099
Mof_H 	H 	0.3176	0.4635	0.3119	0.108
Mof_C 	C 	0.074	0.2966	0.4405	-0.21
Mof_H 	H 	0.0737	0.2799	0.4274	0.056
Mof_H 	H 	0.0999	0.3026	0.4447	0.077
Mof_H 	H 	0.0621	0.2893	0.4565	0.055
Mof_C 	C 	0.0129	0.3126	0.4228	-0.217
Mof_H 	H 	0.9976	0.3297	0.4156	0.058
Mof_H 	H 	0.0143	0.2958	0.4098	-0.003
Mof_H 	H 	0.0016	0.3045	0.4388	0.073
Mof_C 	C 	0.0517	0.3524	0.4487	-0.371
Mof_H 	H 	0.0377	0.3697	0.4406	0.001
Mof_H 	H 	0.0394	0.3458	0.4649	0.12
Mof_H 	H 	0.0772	0.3592	0.4531	0.234
Mof_C 	C 	0.0439	0.3437	0.1777	-0.181
Mof_C 	C 	0.0592	0.313	0.1678	0.058
Mof_H 	H 	0.0569	0.297	0.1815	0.018
Mof_H 	H 	0.045	0.3065	0.1519	0.012
Mof_H 	H 	0.0855	0.3156	0.1636	-0.125
Mof_C 	C 	0.0473	0.3688	0.1566	1.216
Mof_H 	H 	0.0374	0.3886	0.1631	-1.573
Mof_H 	H 	0.0737	0.3715	0.1524	-0.181
Mof_H 	H 	0.0332	0.3624	0.1407	-0.382
Mof_C 	C 	0.0026	0.3377	0.1824	-0.015
Mof_H 	H 	0.991	0.3569	0.1889	0.007
Mof_H 	H 	0.9901	0.3313	0.1659	0.047
Mof_H 	H 	0.0001	0.3211	0.1955	0.02
Mof_C 	C 	0.9078	0.6363	0.9715	-0.196
Mof_H 	H 	0.9044	0.6183	0.9598	0.071
Mof_H 	H 	0.9075	0.6556	0.9612	0.057
Mof_H 	H 	0.9317	0.6344	0.9812	0.041
Mof_C 	C 	0.8816	0.6652	0.0094	-0.184
Mof_H 	H 	0.8614	0.6659	0.022	0.058
Mof_H 	H 	0.9056	0.6633	0.0189	0.06
Mof_H 	H 	0.8814	0.6844	0.9989	0.051
Mof_C 	C 	0.8387	0.644	0.9761	-0.33
Mof_H 	H 	0.833	0.6269	0.9638	0.093
Mof_H 	H 	0.8186	0.6459	0.9887	0.057
Mof_H 	H 	0.8409	0.6636	0.9663	0.103
Mof_C 	C 	0.7321	0.4895	0.3082	0.298
Mof_H 	H 	0.7397	0.4696	0.3146	-0.071
Mof_C 	C 	0.7583	0.5133	0.3071	0.145
Mof_H 	H 	0.7834	0.5094	0.3125	-0.017
Mof_C 	C 	0.7122	0.5472	0.288	-0.097
Mof_H 	H 	0.7051	0.5666	0.2804	0.059
Mof_C 	C 	0.6866	0.523	0.2889	0.067
Mof_H 	H 	0.6622	0.5263	0.2815	-0.004
Mof_C 	C 	0.6119	0.3204	0.1562	-0.194
Mof_H 	H 	0.5856	0.3265	0.1569	0.129
Mof_H 	H 	0.6189	0.3181	0.1378	0.069
Mof_H 	H 	0.6156	0.3004	0.1653	-0.058
Mof_C 	C 	0.6773	0.3377	0.1691	-0.147
Mof_H 	H 	0.6911	0.3547	0.1779	0.072
Mof_H 	H 	0.6821	0.318	0.1785	0.045
Mof_H 	H 	0.6854	0.3358	0.151	0.06
Mof_C 	C 	0.6277	0.3744	0.1518	-0.597
Mof_H 	H 	0.6422	0.3921	0.1588	0.171
Mof_H 	H 	0.6348	0.3702	0.1337	0.176
Mof_H 	H 	0.6011	0.3794	0.1521	0.152
Mof_O 	O 	0.8175	0.4368	0.9908	-0.204
Mof_C 	C 	0.8896	0.4263	0.9375	0.281
Mof_H 	H 	0.9097	0.4391	0.9436	-0.074
Mof_C 	C 	0.8914	0.413	0.9128	0.105
Mof_H 	H 	0.9122	0.417	0.9021	0.002
Mof_C 	C 	0.8338	0.3864	0.9203	-0.093
Mof_H 	H 	0.8152	0.3717	0.9149	0.048
Mof_C 	C 	0.8323	0.4006	0.9447	0.092
Mof_H 	H 	0.812	0.3959	0.9557	-0.011
Mof_N 	N 	0.8097	0.4514	0.0152	-0.101
Mof_C 	C 	0.7758	0.447	0.0208	-0.016
Mof_H 	H 	0.7606	0.4356	0.0085	0.043
Mof_C 	C 	0.7583	0.4581	0.0446	-0.045
Mof_C 	C 	0.778	0.4764	0.0643	0.116
Mof_C 	C 	0.7568	0.4883	0.0857	-0.181
Mof_C 	C 	0.7186	0.4813	0.087	0.065
Mof_H 	H 	0.7048	0.4899	0.101	-0.012
Mof_C 	C 	0.7003	0.462	0.0685	-0.076
Mof_C 	C 	0.7205	0.4514	0.0475	0.007
Mof_H 	H 	0.708	0.4391	0.0344	0.016
Mof_C 	C 	0.7736	0.5061	0.107	0.214
Mof_H 	H 	0.7572	0.5137	0.12	-0.04
Mof_N 	N 	0.8079	0.5128	0.1102	-0.108
Mof_O 	O 	0.8164	0.531	0.1321	-0.34
Mof_O 	O 	0.8134	0.4811	0.0634	-0.275
Mof_C 	C 	0.6593	0.4535	0.0727	0.118
Mof_C 	C 	0.6415	0.4369	0.0496	-0.52
Mof_H 	H 	0.6447	0.4494	0.0336	0.164
Mof_H 	H 	0.6533	0.4164	0.0474	0.222
Mof_H 	H 	0.6148	0.4341	0.0526	0.155
Mof_C 	C 	0.6372	0.484	0.076	-0.462
Mof_H 	H 	0.6478	0.4958	0.091	0.141
Mof_H 	H 	0.6388	0.4967	0.06	0.148
Mof_H 	H 	0.611	0.4791	0.0793	0.135
Mof_C 	C 	0.6561	0.4362	0.0989	-0.149
Mof_H 	H 	0.6683	0.4485	0.1129	-0.019
Mof_H 	H 	0.6296	0.4334	0.1028	0.034
Mof_H 	H 	0.6682	0.4157	0.0977	0.143
Mof_C 	C 	0.9156	0.6497	0.9991	-0.348
Mof_H 	H 	0.9174	0.6521	0.0183	0.093
Mof_H 	H 	0.9346	0.6349	0.9934	0.104
Mof_H 	H 	0.9195	0.67	0.9907	0.113
Mof_C 	C 	0.8482	0.6618	0.999	-0.193
Mof_H 	H 	0.8486	0.6638	0.0183	0.041
Mof_H 	H 	0.8549	0.6819	0.9912	0.055
Mof_H 	H 	0.8231	0.6557	0.9928	0.083
Mof_C 	C 	0.8754	0.634	0.9614	-0.176
Mof_H 	H 	0.8934	0.618	0.9563	0.019
Mof_H 	H 	0.8503	0.628	0.9552	0.049
Mof_H 	H 	0.8821	0.6541	0.9536	0.049
Mof_C 	C 	0.3	0.4798	0.3291	-0.363
Mof_H 	H 	0.3079	0.4583	0.3257	0.079
Mof_H 	H 	0.3216	0.4938	0.3282	0.099
Mof_H 	H 	0.2896	0.4811	0.3467	0.082
Mof_C 	C 	0.2598	0.5229	0.3152	-0.169
Mof_H 	H 	0.2477	0.5231	0.3323	0.112
Mof_H 	H 	0.2826	0.5357	0.3164	0.054
Mof_H 	H 	0.2428	0.5316	0.3017	0.03
Mof_C 	C 	0.2888	0.4883	0.2817	-0.032
Mof_H 	H 	0.2949	0.4665	0.2777	0.159
Mof_H 	H 	0.272	0.4967	0.2679	0.001
Mof_H 	H 	0.3118	0.5008	0.2826	-0.013
Mof_C 	C 	0.0442	0.2899	0.4283	-0.342
Mof_H 	H 	0.0657	0.2787	0.4213	0.092
Mof_H 	H 	0.0391	0.2821	0.446	0.107
Mof_H 	H 	0.0223	0.2863	0.4167	0.158
Mof_C 	C 	0.0199	0.3433	0.4403	-0.26
Mof_H 	H 	0.0262	0.3656	0.4409	0.167
Mof_H 	H 	0.9978	0.3402	0.4288	0.078
Mof_H 	H 	0.0147	0.336	0.4581	0.061
Mof_C 	C 	0.0843	0.33	0.4505	-0.116
Mof_H 	H 	0.0903	0.3523	0.4517	-0.087
Mof_H 	H 	0.0761	0.3225	0.4677	0.049
Mof_H 	H 	0.1066	0.3183	0.4455	0.026
Mof_C 	C 	0.0715	0.3601	0.2004	0.045
Mof_C 	C 	0.0714	0.3623	0.1703	-0.66
Mof_C 	C 	0.083	0.3317	0.158	0.378
Mof_H 	H 	0.1078	0.3257	0.1649	-0.032
Mof_H 	H 	0.0649	0.3154	0.1623	-0.066
Mof_H 	H 	0.0838	0.3341	0.1388	-0.096
Mof_C 	C 	0.0331	0.374	0.161	0.629
Mof_H 	H 	0.0276	0.3938	0.1697	1.017
Mof_H 	H 	0.033	0.3772	0.1419	-0.083
Mof_H 	H 	0.0141	0.3585	0.1653	-0.279
Mof_C 	C 	0.1001	0.3858	0.1599	0.297
Mof_H 	H 	0.0949	0.4066	0.1669	-0.046
Mof_H 	H 	0.1253	0.3793	0.1656	-0.058
Mof_H 	H 	0.0984	0.3863	0.1406	-0.053
Mof_Zn	Zn	0.11411	0.90853	0.30203	1.2
Mof_Zn	Zn	0.06608	0.85294	0.30369	1.198
Mof_Zn	Zn	0.64252	0.85585	0.30492	1.199
Mof_Zn	Zn	0.58986	0.90824	0.30788	1.195
Mof_Zn	Zn	0.35613	0.97468	0.03419	1.193
Mof_Zn	Zn	0.35575	0.0089	0.0843	1.191
Mof_Zn	Zn	0.39609	0.12328	0.28849	1.217
Mof_Zn	Zn	0.34691	0.0824	0.32737	1.181
Mof_Zn	Zn	0.30781	0.12564	0.28468	1.21
Mof_Zn	Zn	0.35266	0.15473	0.33414	1.206
Mof_O 	O 	0.3507	0.12221	0.30789	-0.959
Mof_C 	C 	0.9884	0.76552	0.30556	-0.644
Mof_C 	C 	0.99	0.74141	0.28685	0.342
Mof_H 	H 	0.0069	0.7434	0.2729	-0.073
Mof_C 	C 	0.9679	0.71493	0.28792	-0.254
Mof_H 	H 	0.9693	0.6995	0.2745	0.127
Mof_C 	C 	0.9436	0.7108	0.30837	0.089
Mof_C 	C 	0.9408	0.73448	0.32695	-0.259
Mof_H 	H 	0.9241	0.7322	0.341	0.122
Mof_C 	C 	0.9622	0.76133	0.32524	0.339
Mof_H 	H 	0.959	0.7775	0.3378	-0.088
Mof_B 	B 	0.0148	0.7958	0.3047	1.539
Mof_O 	O 	0.04603	0.78962	0.32412	-0.517
Mof_N 	N 	0.0719	0.81302	0.32771	-0.167
Mof_C 	C 	0.0953	0.8073	0.3461	0.094
Mof_H 	H 	0.0928	0.7877	0.3547	0.024
Mof_C 	C 	0.1254	0.8272	0.3557	-0.201
Mof_C 	C 	0.134	0.8563	0.3435	0.301
Mof_C 	C 	0.1654	0.8732	0.3549	-0.201
Mof_C 	C 	0.1846	0.8626	0.3775	0.14
Mof_H 	H 	0.2043	0.8749	0.3849	-0.035
Mof_C 	C 	0.1754	0.8346	0.3894	-0.282
Mof_C 	C 	0.1459	0.8175	0.3781	0.137
Mof_H 	H 	0.1394	0.7982	0.3861	-0.036
Mof_C 	C 	0.1775	0.9021	0.3437	0.103
Mof_H 	H 	0.2002	0.9106	0.3506	0.021
Mof_N 	N 	0.1611	0.9176	0.3256	-0.168
Mof_O 	O 	0.1807	0.94437	0.32061	-0.545
Mof_B 	B 	0.1654	0.9662	0.301	1.531
Mof_O 	O 	0.99202	0.82215	0.31328	-0.541
Mof_N 	N 	0.0095	0.85155	0.31296	-0.172
Mof_C 	C 	0.9867	0.87312	0.3184	0.1
Mof_H 	H 	0.9619	0.8668	0.3219	0.02
Mof_C 	C 	0.9943	0.90669	0.3198	-0.206
Mof_C 	C 	0.0305	0.91916	0.3162	0.29
Mof_C 	C 	0.0342	0.95201	0.3177	-0.205
Mof_C 	C 	0.0023	0.971	0.321	0.148
Mof_H 	H 	0.0053	0.993	0.321	-0.041
Mof_C 	C 	0.9668	0.95875	0.3243	-0.308
Mof_C 	C 	0.9644	0.92636	0.3247	0.157
Mof_H 	H 	0.9411	0.9171	0.3286	-0.049
Mof_C 	C 	0.0689	0.9688	0.3141	0.098
Mof_H 	H 	0.0686	0.9909	0.3161	0.019
Mof_N 	N 	0.0996	0.95597	0.3084	-0.17
Mof_O 	O 	0.12846	0.97845	0.30608	-0.549
Mof_O 	O 	0.02751	0.7985	0.27787	-0.54
Mof_N 	N 	0.0518	0.82243	0.27252	-0.159
Mof_C 	C 	0.0616	0.82137	0.24876	0.082
Mof_H 	H 	0.0507	0.8054	0.238	0.042
Mof_C 	C 	0.0881	0.84232	0.23636	-0.146
Mof_C 	C 	0.1036	0.86876	0.24993	0.249
Mof_C 	C 	0.1294	0.88767	0.2357	-0.155
Mof_C 	C 	0.139	0.879	0.21024	0.064
Mof_H 	H 	0.1568	0.8914	0.2015	-0.007
Mof_C 	C 	0.1241	0.8534	0.19706	-0.157
Mof_C 	C 	0.0982	0.8354	0.21039	0.065
Mof_H 	H 	0.087	0.8179	0.2017	0.011
Mof_C 	C 	0.1469	0.9153	0.24693	0.075
Mof_H 	H 	0.1621	0.9272	0.2356	0.023
Mof_N 	N 	0.144	0.9254	0.27024	-0.168
Mof_O 	O 	0.1658	0.9522	0.27429	-0.529
Mof_C 	C 	0.1949	0.99403	0.30001	-0.568
Mof_C 	C 	0.248	0.04311	0.29822	-0.028
Mof_C 	C 	0.9198	0.6819	0.30998	0.322
Mof_O 	O 	0.92269	0.66238	0.29185	-0.491
Mof_O 	O 	0.89757	0.68103	0.3288	-0.478
Mof_O 	O 	0.1166	0.86583	0.32314	-0.556
Mof_C 	C 	0.1963	0.8226	0.4141	0.612
Mof_O 	O 	0.05866	0.90084	0.31153	-0.551
Mof_C 	C 	0.932	0.9795	0.3266	0.669
Mof_C 	C 	0.9058	0.9764	0.3013	-0.824
Mof_H 	H 	0.9187	0.9846	0.286	0.257
Mof_H 	H 	0.8994	0.9544	0.2984	0.26
Mof_H 	H 	0.8829	0.9885	0.3038	0.241
Mof_C 	C 	0.906	0.9659	0.3458	-0.971
Mof_H 	H 	0.9031	0.9435	0.3423	0.293
Mof_H 	H 	0.9161	0.969	0.3637	0.286
Mof_H 	H 	0.8817	0.9762	0.3439	0.284
Mof_C 	C 	0.9419	0.0136	0.3271	-0.965
Mof_H 	H 	0.9593	0.0181	0.313	0.293
Mof_H 	H 	0.9192	0.0261	0.3244	0.285
Mof_H 	H 	0.9536	0.0189	0.3442	0.287
Mof_O 	O 	0.09467	0.87603	0.27388	-0.538
Mof_C 	C 	0.1358	0.8449	0.16918	0.357
Mof_C 	C 	0.2763	0.06839	0.2963	0.335
Mof_O 	O 	0.30915	0.06142	0.30389	-0.519
Mof_O 	O 	0.26771	0.09485	0.28711	-0.484
Mof_C 	C 	0.2241	0.9966	0.3191	-0.101
Mof_H 	H 	0.2259	0.9818	0.3329	0.054
Mof_C 	C 	0.2503	0.0204	0.318	-0.271
Mof_H 	H 	0.27	0.0213	0.3308	0.093
Mof_C 	C 	0.2186	0.0418	0.2799	-0.028
Mof_H 	H 	0.216	0.0574	0.2667	0.025
Mof_C 	C 	0.1932	0.0175	0.2811	0.133
Mof_H 	H 	0.1734	0.0169	0.2683	-0.037
Mof_C 	C 	0.1057	0.8491	0.1484	0.008
Mof_H 	H 	0.0823	0.84	0.1546	-0.062
Mof_H 	H 	0.1021	0.8714	0.1449	0.041
Mof_H 	H 	0.113	0.8385	0.1322	-0.013
Mof_C 	C 	0.1433	0.8087	0.1685	-0.479
Mof_H 	H 	0.1629	0.8034	0.1815	0.15
Mof_H 	H 	0.1203	0.7974	0.1725	0.247
Mof_H 	H 	0.1513	0.8027	0.1509	0.159
Mof_C 	C 	0.1732	0.8582	0.1615	-0.208
Mof_H 	H 	0.1915	0.8547	0.1759	0.039
Mof_H 	H 	0.1815	0.8478	0.1456	0.045
Mof_H 	H 	0.1706	0.8807	0.1582	0.065
Mof_C 	C 	0.1711	0.825	0.438	-0.856
Mof_H 	H 	0.1477	0.8138	0.4343	0.26
Mof_H 	H 	0.1839	0.8156	0.4534	0.249
Mof_H 	H 	0.1658	0.847	0.4417	0.259
Mof_C 	C 	0.2328	0.8398	0.4197	-0.889
Mof_H 	H 	0.2449	0.8313	0.4357	0.261
Mof_H 	H 	0.2493	0.8372	0.4048	0.27
Mof_H 	H 	0.2277	0.8621	0.4223	0.269
Mof_C 	C 	0.204	0.7874	0.4107	-0.861
Mof_H 	H 	0.1804	0.7764	0.4071	0.265
Mof_H 	H 	0.2207	0.7843	0.396	0.264
Mof_H 	H 	0.2158	0.7792	0.4269	0.253
Mof_C 	C 	0.3596	0.9217	0.95388	-0.597
Mof_C 	C 	0.3627	0.8937	0.90355	-0.015
Mof_B 	B 	0.3564	0.9389	0.98147	1.573
Mof_O 	O 	0.3582	0.97199	0.9751	-0.556
Mof_N 	N 	0.3605	0.9934	0.99588	-0.162
Mof_C 	C 	0.362	0.0213	0.98808	0.082
Mof_H 	H 	0.3618	0.0246	0.9696	0.018
Mof_C 	C 	0.364	0.04887	0.00468	-0.173
Mof_C 	C 	0.363	0.0477	0.03275	0.28
Mof_C 	C 	0.366	0.0767	0.0465	-0.174
Mof_C 	C 	0.3708	0.1042	0.03208	0.073
Mof_H 	H 	0.374	0.1232	0.0416	-0.003
Mof_C 	C 	0.3711	0.1056	0.00522	-0.159
Mof_C 	C 	0.3682	0.0778	0.9917	0.069
Mof_H 	H 	0.3691	0.078	0.973	-0.012
Mof_C 	C 	0.3641	0.0794	0.07461	0.079
Mof_H 	H 	0.3661	0.1	0.0816	0.03
Mof_N 	N 	0.3602	0.05772	0.0912	-0.164
Mof_O 	O 	0.3593	0.06835	0.11663	-0.525
Mof_B 	B 	0.3543	0.0446	0.13696	1.47
Mof_O 	O 	0.3888	0.92846	0.99683	-0.554
Mof_N 	N 	0.3948	0.9416	0.02149	-0.165
Mof_C 	C 	0.4273	0.9355	0.03066	0.097
Mof_H 	H 	0.4429	0.9228	0.0202	0.018
Mof_C 	C 	0.4423	0.9462	0.05553	-0.206
Mof_C 	C 	0.422	0.9643	0.07426	0.291
Mof_C 	C 	0.4419	0.9732	0.09784	-0.198
Mof_C 	C 	0.4797	0.9655	0.10128	0.156
Mof_H 	H 	0.4925	0.9722	0.1169	-0.025
Mof_C 	C 	0.4995	0.9484	0.08298	-0.313
Mof_C 	C 	0.4801	0.939	0.06074	0.157
Mof_H 	H 	0.493	0.9269	0.0482	-0.047
Mof_C 	C 	0.4252	0.992	0.11828	0.1
Mof_H 	H 	0.439	0.9944	0.1344	0.035
Mof_N 	N 	0.3937	0.00542	0.11627	-0.168
Mof_O 	O 	0.3853	0.02119	0.13872	-0.497
Mof_C 	C 	0.3542	0.0622	0.16486	-0.628
Mof_C 	C 	0.3863	0.0641	0.18114	0.326
Mof_H 	H 	0.4085	0.0541	0.1758	-0.066
Mof_C 	C 	0.3864	0.0803	0.20488	-0.244
Mof_H 	H 	0.4088	0.0821	0.2152	0.125
Mof_C 	C 	0.3538	0.09388	0.21356	0.087
Mof_C 	C 	0.3214	0.0916	0.19829	-0.255
Mof_H 	H 	0.299	0.1009	0.204	0.121
Mof_C 	C 	0.3219	0.0757	0.17444	0.329
Mof_H 	H 	0.2993	0.0739	0.1643	-0.087
Mof_C 	C 	0.3635	0.8808	0.87627	0.299
Mof_O 	O 	0.35142	0.85353	0.87224	-0.47
Mof_O 	O 	0.38	0.8956	0.85928	-0.493
Mof_O 	O 	0.3621	0.02162	0.04478	-0.568
Mof_C 	C 	0.376	0.137	0.9911	0.322
Mof_O 	O 	0.3878	0.97147	0.07011	-0.552
Mof_C 	C 	0.5407	0.9392	0.0867	0.692
Mof_C 	C 	0.5457	0.9034	0.0843	-0.928
Mof_H 	H 	0.5357	0.8963	0.0672	0.281
Mof_H 	H 	0.5722	0.8981	0.086	0.282
Mof_H 	H 	0.5321	0.893	0.0984	0.3
Mof_C 	C 	0.5633	0.9538	0.0645	-0.951
Mof_H 	H 	0.5523	0.9477	0.0474	0.295
Mof_H 	H 	0.5629	0.9766	0.0661	0.297
Mof_H 	H 	0.5892	0.9464	0.0658	0.289
Mof_C 	C 	0.5566	0.9479	0.1133	-1
Mof_H 	H 	0.5416	0.9382	0.127	0.33
Mof_H 	H 	0.5824	0.9404	0.115	0.305
Mof_H 	H 	0.5561	0.9707	0.1153	0.307
Mof_C 	C 	0.3536	0.10984	0.23994	0.309
Mof_O 	O 	0.38474	0.11289	0.25189	-0.48
Mof_O 	O 	0.32225	0.11917	0.24786	-0.473
Mof_O 	O 	0.3252	0.9262	0.9968	-0.35
Mof_C 	C 	0.348	0.8777	0.9244	-0.053
Mof_H 	H 	0.3388	0.8571	0.9219	0.049
Mof_C 	C 	0.3465	0.8916	0.949	0.128
Mof_H 	H 	0.3362	0.8801	0.9631	-0.027
Mof_C 	C 	0.3759	0.937	0.9326	-0.054
Mof_H 	H 	0.3864	0.9571	0.9354	0.033
Mof_C 	C 	0.3773	0.9239	0.9077	-0.258
Mof_H 	H 	0.3879	0.9352	0.8937	0.095
Mof_N 	N 	0.3179	0.9417	0.0193	-0.065
Mof_C 	C 	0.2887	0.9305	0.0292	0.032
Mof_H 	H 	0.2758	0.9144	0.0197	0.033
Mof_C 	C 	0.2737	0.9405	0.054	-0.027
Mof_C 	C 	0.2908	0.9635	0.071	0.046
Mof_C 	C 	0.2737	0.9692	0.0957	0.097
Mof_C 	C 	0.241	0.9532	0.1023	-0.117
Mof_H 	H 	0.2305	0.9569	0.119	0.056
Mof_C 	C 	0.224	0.9323	0.0852	0.04
Mof_C 	C 	0.2406	0.9262	0.0616	-0.067
Mof_H 	H 	0.229	0.9116	0.0499	0.041
Mof_C 	C 	0.288	0.991	0.1152	-0.208
Mof_H 	H 	0.2743	0.993	0.1309	0.101
Mof_N 	N 	0.317	0.0077	0.1134	-0.033
Mof_O 	O 	0.3219	0.0244	0.1361	-0.159
Mof_O 	O 	0.3193	0.9783	0.0641	-0.178
Mof_C 	C 	0.1872	0.9166	0.0923	0.065
Mof_C 	C 	0.1964	0.8817	0.0923	-0.455
Mof_H 	H 	0.2034	0.8752	0.0746	0.148
Mof_H 	H 	0.2172	0.8776	0.1048	0.153
Mof_H 	H 	0.1745	0.8698	0.0976	0.134
Mof_C 	C 	0.1565	0.9244	0.0721	-0.093
Mof_H 	H 	0.1641	0.9175	0.0546	-0.048
Mof_H 	H 	0.1335	0.9135	0.0767	0.031
Mof_H 	H 	0.1522	0.947	0.0719	0.094
Mof_C 	C 	0.1762	0.9269	0.1196	-0.493
Mof_H 	H 	0.1963	0.9217	0.1323	0.155
Mof_H 	H 	0.172	0.9495	0.1196	0.197
Mof_H 	H 	0.1533	0.9161	0.1244	0.14
Mof_C 	C 	0.7243	0.77126	0.30169	-0.699
Mof_C 	C 	0.7191	0.74677	0.2838	0.38
Mof_H 	H 	0.6999	0.7487	0.2707	-0.088
Mof_C 	C 	0.7405	0.72006	0.2842	-0.284
Mof_H 	H 	0.7363	0.7042	0.2713	0.133
Mof_C 	C 	0.7684	0.71636	0.30358	0.104
Mof_C 	C 	0.7752	0.7406	0.32128	-0.293
Mof_H 	H 	0.7947	0.7389	0.3343	0.131
Mof_C 	C 	0.7535	0.76718	0.31982	0.393
Mof_H 	H 	0.7589	0.7836	0.3319	-0.108
Mof_B 	B 	0.697	0.801	0.3021	1.627
Mof_O 	O 	0.7208	0.82932	0.30344	-0.546
Mof_N 	N 	0.7016	0.85825	0.3054	-0.166
Mof_C 	C 	0.7239	0.8813	0.3051	0.087
Mof_H 	H 	0.7497	0.8768	0.3032	0.024
Mof_C 	C 	0.7134	0.91376	0.30721	-0.164
Mof_C 	C 	0.6761	0.92374	0.31036	0.266
Mof_C 	C 	0.67022	0.95658	0.31332	-0.151
Mof_C 	C 	0.70075	0.97757	0.31298	0.066
Mof_H 	H 	0.6962	0.9993	0.315	0.009
Mof_C 	C 	0.73692	0.96731	0.30984	-0.158
Mof_C 	C 	0.7426	0.93531	0.3073	0.069
Mof_H 	H 	0.7673	0.9278	0.3056	-0.001
Mof_C 	C 	0.63315	0.97029	0.31494	0.078
Mof_H 	H 	0.6322	0.9922	0.3178	0.045
Mof_N 	N 	0.60203	0.95645	0.31302	-0.158
Mof_O 	O 	0.57215	0.97662	0.31448	-0.512
Mof_B 	B 	0.5343	0.963	0.311	1.518
Mof_O 	O 	0.6764	0.79622	0.32567	-0.574
Mof_N 	N 	0.6486	0.818	0.33043	-0.167
Mof_C 	C 	0.6325	0.8121	0.3518	0.089
Mof_H 	H 	0.6406	0.7939	0.361	0.03
Mof_C 	C 	0.6033	0.8302	0.36346	-0.177
Mof_C 	C 	0.5881	0.8576	0.35159	0.288
Mof_C 	C 	0.5613	0.87436	0.36672	-0.172
Mof_C 	C 	0.5507	0.8635	0.39135	0.085
Mof_H 	H 	0.5326	0.875	0.4007	-0.006
Mof_C 	C 	0.5655	0.8366	0.40275	-0.161
Mof_C 	C 	0.5913	0.8207	0.3881	0.081
Mof_H 	H 	0.6016	0.802	0.3953	-0.003
Mof_C 	C 	0.5441	0.90291	0.35754	0.079
Mof_H 	H 	0.5271	0.9124	0.3691	0.021
Mof_N 	N 	0.5488	0.91681	0.33604	-0.174
Mof_O 	O 	0.52547	0.94172	0.33268	-0.56
Mof_O 	O 	0.6753	0.80011	0.27758	-0.566
Mof_N 	N 	0.6497	0.8244	0.27403	-0.161
Mof_C 	C 	0.6349	0.8236	0.2512	0.06
Mof_H 	H 	0.6435	0.8075	0.24	0.046
Mof_C 	C 	0.6068	0.8441	0.23993	-0.104
Mof_C 	C 	0.592	0.8696	0.25487	0.216
Mof_C 	C 	0.5654	0.8891	0.24157	-0.092
Mof_C 	C 	0.5546	0.8828	0.21541	-0.067
Mof_C 	C 	0.5944	0.8394	0.21403	-0.029
Mof_C 	C 	0.5479	0.9161	0.25402	0.041
Mof_H 	H 	0.5326	0.9291	0.2431	0.06
Mof_N 	N 	0.5514	0.92343	0.27821	-0.161
Mof_O 	O 	0.5282	0.94841	0.28476	-0.525
Mof_C 	C 	0.50534	0.99142	0.31092	-0.652
Mof_C 	C 	0.5115	0.01961	0.298	0.357
Mof_H 	H 	0.5346	0.0227	0.2896	-0.083
Mof_C 	C 	0.48511	0.04322	0.29713	-0.255
Mof_H 	H 	0.4902	0.0622	0.2882	0.127
Mof_C 	C 	0.45112	0.03924	0.30924	0.08
Mof_C 	C 	0.4445	0.012	0.32271	-0.251
Mof_H 	H 	0.4217	0.0093	0.3316	0.11
Mof_C 	C 	0.47115	0.98849	0.32335	0.336
Mof_H 	H 	0.466	0.9697	0.3326	-0.096
Mof_C 	C 	0.7898	0.6865	0.3065	0.317
Mof_O 	O 	0.78412	0.66651	0.28875	-0.491
Mof_O 	O 	0.81244	0.68449	0.32571	-0.495
Mof_O 	O 	0.64884	0.90421	0.3111	-0.539
Mof_C 	C 	0.7698	0.98983	0.3081	0.348
Mof_O 	O 	0.5994	0.86785	0.32996	-0.564
Mof_C 	C 	0.5527	0.8249	0.4296	0.353
Mof_O 	O 	0.602	0.87411	0.27922	-0.537
Mof_C 	C 	0.42182	0.06436	0.30793	0.35
Mof_O 	O 	0.43099	0.09035	0.29877	-0.481
Mof_O 	O 	0.39018	0.0575	0.31497	-0.495
Mof_C 	C 	0.5657	0.8563	0.2019	0.135
Mof_C 	C 	0.7782	0.01	0.3316	-0.171
Mof_H 	H 	0.755	0.0188	0.338	-0.007
Mof_H 	H 	0.7903	0.9974	0.3455	0.076
Mof_H 	H 	0.795	0.027	0.3266	0.041
Mof_C 	C 	0.7586	0.0127	0.2846	-0.538
Mof_H 	H 	0.7528	0.0004	0.2688	0.181
Mof_H 	H 	0.7367	0.0249	0.2893	0.177
Mof_H 	H 	0.7794	0.0268	0.2813	0.176
Mof_C 	C 	0.8056	0.9762	0.298	-0.288
Mof_H 	H 	0.7999	0.963	0.2827	-0.061
Mof_H 	H 	0.8223	0.9931	0.293	0.099
Mof_H 	H 	0.8176	0.9635	0.3119	0.108
Mof_C 	C 	0.574	0.7966	0.4405	-0.21
Mof_H 	H 	0.5737	0.7799	0.4274	0.056
Mof_H 	H 	0.5999	0.8026	0.4447	0.077
Mof_H 	H 	0.5621	0.7893	0.4565	0.055
Mof_C 	C 	0.5129	0.8126	0.4228	-0.217
Mof_H 	H 	0.4976	0.8297	0.4156	0.058
Mof_H 	H 	0.5143	0.7958	0.4098	-0.003
Mof_H 	H 	0.5016	0.8045	0.4388	0.073
Mof_C 	C 	0.5517	0.8524	0.4487	-0.371
Mof_H 	H 	0.5377	0.8697	0.4406	0.001
Mof_H 	H 	0.5394	0.8458	0.4649	0.12
Mof_H 	H 	0.5772	0.8592	0.4531	0.234
Mof_C 	C 	0.5439	0.8437	0.1777	-0.181
Mof_C 	C 	0.5592	0.813	0.1678	0.058
Mof_H 	H 	0.5569	0.797	0.1815	0.018
Mof_H 	H 	0.545	0.8065	0.1519	0.012
Mof_H 	H 	0.5855	0.8156	0.1636	-0.125
Mof_C 	C 	0.5473	0.8688	0.1566	1.216
Mof_H 	H 	0.5374	0.8886	0.1631	-1.573
Mof_H 	H 	0.5737	0.8715	0.1524	-0.181
Mof_H 	H 	0.5332	0.8624	0.1407	-0.382
Mof_C 	C 	0.5026	0.8377	0.1824	-0.015
Mof_H 	H 	0.491	0.8569	0.1889	0.007
Mof_H 	H 	0.4901	0.8313	0.1659	0.047
Mof_H 	H 	0.5001	0.8211	0.1955	0.02
Mof_C 	C 	0.4078	0.1363	0.9715	-0.196
Mof_H 	H 	0.4044	0.1183	0.9598	0.071
Mof_H 	H 	0.4075	0.1556	0.9612	0.057
Mof_H 	H 	0.4317	0.1344	0.9812	0.041
Mof_C 	C 	0.3816	0.1652	0.0094	-0.184
Mof_H 	H 	0.3614	0.1659	0.022	0.058
Mof_H 	H 	0.4056	0.1633	0.0189	0.06
Mof_H 	H 	0.3814	0.1844	0.9989	0.051
Mof_C 	C 	0.3387	0.144	0.9761	-0.33
Mof_H 	H 	0.333	0.1269	0.9638	0.093
Mof_H 	H 	0.3186	0.1459	0.9887	0.057
Mof_H 	H 	0.3409	0.1636	0.9663	0.103
Mof_C 	C 	0.2321	0.9895	0.3082	0.298
Mof_H 	H 	0.2397	0.9696	0.3146	-0.071
Mof_C 	C 	0.2583	0.0133	0.3071	0.145
Mof_H 	H 	0.2834	0.0094	0.3125	-0.017
Mof_C 	C 	0.2122	0.0472	0.288	-0.097
Mof_H 	H 	0.2051	0.0666	0.2804	0.059
Mof_C 	C 	0.1866	0.023	0.2889	0.067
Mof_H 	H 	0.1622	0.0263	0.2815	-0.004
Mof_C 	C 	0.1119	0.8204	0.1562	-0.194
Mof_H 	H 	0.0856	0.8265	0.1569	0.129
Mof_H 	H 	0.1189	0.8181	0.1378	0.069
Mof_H 	H 	0.1156	0.8004	0.1653	-0.058
Mof_C 	C 	0.1773	0.8377	0.1691	-0.147
Mof_H 	H 	0.1911	0.8547	0.1779	0.072
Mof_H 	H 	0.1821	0.818	0.1785	0.045
Mof_H 	H 	0.1854	0.8358	0.151	0.06
Mof_C 	C 	0.1277	0.8744	0.1518	-0.597
Mof_H 	H 	0.1422	0.8921	0.1588	0.171
Mof_H 	H 	0.1348	0.8702	0.1337	0.176
Mof_H 	H 	0.1011	0.8794	0.1521	0.152
Mof_O 	O 	0.3175	0.9368	0.9908	-0.204
Mof_C 	C 	0.3896	0.9263	0.9375	0.281
Mof_H 	H 	0.4097	0.9391	0.9436	-0.074
Mof_C 	C 	0.3914	0.913	0.9128	0.105
Mof_H 	H 	0.4122	0.917	0.9021	0.002
Mof_C 	C 	0.3338	0.8864	0.9203	-0.093
Mof_H 	H 	0.3152	0.8717	0.9149	0.048
Mof_C 	C 	0.3323	0.9006	0.9447	0.092
Mof_H 	H 	0.312	0.8959	0.9557	-0.011
Mof_N 	N 	0.3097	0.9514	0.0152	-0.101
Mof_C 	C 	0.2758	0.947	0.0208	-0.016
Mof_H 	H 	0.2606	0.9356	0.0085	0.043
Mof_C 	C 	0.2583	0.9581	0.0446	-0.045
Mof_C 	C 	0.278	0.9764	0.0643	0.116
Mof_C 	C 	0.2568	0.9883	0.0857	-0.181
Mof_C 	C 	0.2186	0.9813	0.087	0.065
Mof_H 	H 	0.2048	0.9899	0.101	-0.012
Mof_C 	C 	0.2003	0.962	0.0685	-0.076
Mof_C 	C 	0.2205	0.9514	0.0475	0.007
Mof_H 	H 	0.208	0.9391	0.0344	0.016
Mof_C 	C 	0.2736	0.0061	0.107	0.214
Mof_H 	H 	0.2572	0.0137	0.12	-0.04
Mof_N 	N 	0.3079	0.0128	0.1102	-0.108
Mof_O 	O 	0.3164	0.031	0.1321	-0.34
Mof_O 	O 	0.3134	0.9811	0.0634	-0.275
Mof_C 	C 	0.1593	0.9535	0.0727	0.118
Mof_C 	C 	0.1415	0.9369	0.0496	-0.52
Mof_H 	H 	0.1447	0.9494	0.0336	0.164
Mof_H 	H 	0.1533	0.9164	0.0474	0.222
Mof_H 	H 	0.1148	0.9341	0.0526	0.155
Mof_C 	C 	0.1372	0.984	0.076	-0.462
Mof_H 	H 	0.1478	0.9958	0.091	0.141
Mof_H 	H 	0.1388	0.9967	0.06	0.148
Mof_H 	H 	0.111	0.9791	0.0793	0.135
Mof_C 	C 	0.1561	0.9362	0.0989	-0.149
Mof_H 	H 	0.1683	0.9485	0.1129	-0.019
Mof_H 	H 	0.1296	0.9334	0.1028	0.034
Mof_H 	H 	0.1682	0.9157	0.0977	0.143
Mof_C 	C 	0.4156	0.1497	0.9991	-0.348
Mof_H 	H 	0.4174	0.1521	0.0183	0.093
Mof_H 	H 	0.4346	0.1349	0.9934	0.104
Mof_H 	H 	0.4195	0.17	0.9907	0.113
Mof_C 	C 	0.3482	0.1618	0.999	-0.193
Mof_H 	H 	0.3486	0.1638	0.0183	0.041
Mof_H 	H 	0.3549	0.1819	0.9912	0.055
Mof_H 	H 	0.3231	0.1557	0.9928	0.083
Mof_C 	C 	0.3754	0.134	0.9614	-0.176
Mof_H 	H 	0.3934	0.118	0.9563	0.019
Mof_H 	H 	0.3503	0.128	0.9552	0.049
Mof_H 	H 	0.3821	0.1541	0.9536	0.049
Mof_C 	C 	0.8	0.9798	0.3291	-0.363
Mof_H 	H 	0.8079	0.9583	0.3257	0.079
Mof_H 	H 	0.8216	0.9938	0.3282	0.099
Mof_H 	H 	0.7896	0.9811	0.3467	0.082
Mof_C 	C 	0.7598	0.0229	0.3152	-0.169
Mof_H 	H 	0.7477	0.0231	0.3323	0.112
Mof_H 	H 	0.7826	0.0357	0.3164	0.054
Mof_H 	H 	0.7428	0.0316	0.3017	0.03
Mof_C 	C 	0.7888	0.9883	0.2817	-0.032
Mof_H 	H 	0.7949	0.9665	0.2777	0.159
Mof_H 	H 	0.772	0.9967	0.2679	0.001
Mof_H 	H 	0.8118	0.0008	0.2826	-0.013
Mof_C 	C 	0.5442	0.7899	0.4283	-0.342
Mof_H 	H 	0.5657	0.7787	0.4213	0.092
Mof_H 	H 	0.5391	0.7821	0.446	0.107
Mof_H 	H 	0.5223	0.7863	0.4167	0.158
Mof_C 	C 	0.5199	0.8433	0.4403	-0.26
Mof_H 	H 	0.5262	0.8656	0.4409	0.167
Mof_H 	H 	0.4978	0.8402	0.4288	0.078
Mof_H 	H 	0.5147	0.836	0.4581	0.061
Mof_C 	C 	0.5843	0.83	0.4505	-0.116
Mof_H 	H 	0.5903	0.8523	0.4517	-0.087
Mof_H 	H 	0.5761	0.8225	0.4677	0.049
Mof_H 	H 	0.6066	0.8183	0.4455	0.026
Mof_C 	C 	0.5715	0.8601	0.2004	0.045
Mof_C 	C 	0.5714	0.8623	0.1703	-0.66
Mof_C 	C 	0.583	0.8317	0.158	0.378
Mof_H 	H 	0.6078	0.8257	0.1649	-0.032
Mof_H 	H 	0.5649	0.8154	0.1623	-0.066
Mof_H 	H 	0.5838	0.8341	0.1388	-0.096
Mof_C 	C 	0.5331	0.874	0.161	0.629
Mof_H 	H 	0.5276	0.8938	0.1697	1.017
Mof_H 	H 	0.533	0.8772	0.1419	-0.083
Mof_H 	H 	0.5141	0.8585	0.1653	-0.279
Mof_C 	C 	0.6001	0.8858	0.1599	0.297
Mof_H 	H 	0.5949	0.9066	0.1669	-0.046
Mof_H 	H 	0.6253	0.8793	0.1656	-0.058
Mof_H 	H 	0.5984	0.8863	0.1406	-0.053
Mof_Zn	Zn	0.61411	0.59147	0.80203	1.2
Mof_Zn	Zn	0.56608	0.64706	0.80369	1.198
Mof_Zn	Zn	0.14252	0.64415	0.80492	1.199
Mof_Zn	Zn	0.08986	0.59176	0.80788	1.195
Mof_Zn	Zn	0.85613	0.52532	0.53419	1.193
Mof_Zn	Zn	0.85575	0.4911	0.5843	1.191
Mof_Zn	Zn	0.89609	0.37672	0.78849	1.217
Mof_Zn	Zn	0.84691	0.4176	0.82737	1.181
Mof_Zn	Zn	0.80781	0.37436	0.78468	1.21
Mof_Zn	Zn	0.85266	0.34527	0.83414	1.206
Mof_O 	O 	0.8507	0.37779	0.80789	-0.959
Mof_C 	C 	0.4884	0.73448	0.80556	-0.644
Mof_C 	C 	0.49	0.75859	0.78685	0.342
Mof_H 	H 	0.5069	0.7566	0.7729	-0.073
Mof_C 	C 	0.4679	0.78507	0.78792	-0.254
Mof_H 	H 	0.4693	0.8005	0.7745	0.127
Mof_C 	C 	0.4436	0.7892	0.80837	0.089
Mof_C 	C 	0.4408	0.76552	0.82695	-0.259
Mof_H 	H 	0.4241	0.7678	0.841	0.122
Mof_C 	C 	0.4622	0.73867	0.82524	0.339
Mof_H 	H 	0.459	0.7225	0.8378	-0.088
Mof_B 	B 	0.5148	0.7042	0.8047	1.539
Mof_O 	O 	0.54603	0.71038	0.82412	-0.517
Mof_N 	N 	0.5719	0.68698	0.82771	-0.167
Mof_C 	C 	0.5953	0.6927	0.8461	0.094
Mof_H 	H 	0.5928	0.7123	0.8547	0.024
Mof_C 	C 	0.6254	0.6728	0.8557	-0.201
Mof_C 	C 	0.634	0.6437	0.8435	0.301
Mof_C 	C 	0.6654	0.6268	0.8549	-0.201
Mof_C 	C 	0.6846	0.6374	0.8775	0.14
Mof_H 	H 	0.7043	0.6251	0.8849	-0.035
Mof_C 	C 	0.6754	0.6654	0.8894	-0.282
Mof_C 	C 	0.6459	0.6825	0.8781	0.137
Mof_H 	H 	0.6394	0.7018	0.8861	-0.036
Mof_C 	C 	0.6775	0.5979	0.8437	0.103
Mof_H 	H 	0.7002	0.5894	0.8506	0.021
Mof_N 	N 	0.6611	0.5824	0.8256	-0.168
Mof_O 	O 	0.6807	0.55563	0.82061	-0.545
Mof_B 	B 	0.6654	0.5338	0.801	1.531
Mof_O 	O 	0.49202	0.67785	0.81328	-0.541
Mof_N 	N 	0.5095	0.64845	0.81296	-0.172
Mof_C 	C 	0.4867	0.62688	0.8184	0.1
Mof_H 	H 	0.4619	0.6332	0.8219	0.02
Mof_C 	C 	0.4943	0.59331	0.8198	-0.206
Mof_C 	C 	0.5305	0.58084	0.8162	0.29
Mof_C 	C 	0.5342	0.54799	0.8177	-0.205
Mof_C 	C 	0.5023	0.529	0.821	0.148
Mof_H 	H 	0.5053	0.507	0.821	-0.041
Mof_C 	C 	0.4668	0.54125	0.8243	-0.308
Mof_C 	C 	0.4644	0.57364	0.8247	0.157
Mof_H 	H 	0.4411	0.5829	0.8286	-0.049
Mof_C 	C 	0.5689	0.5312	0.8141	0.098
Mof_H 	H 	0.5686	0.5091	0.8161	0.019
Mof_N 	N 	0.5996	0.54403	0.8084	-0.17
Mof_O 	O 	0.62846	0.52155	0.80608	-0.549
Mof_O 	O 	0.52751	0.7015	0.77787	-0.54
Mof_N 	N 	0.5518	0.67757	0.77252	-0.159
Mof_C 	C 	0.5616	0.67863	0.74876	0.082
Mof_H 	H 	0.5507	0.6946	0.738	0.042
Mof_C 	C 	0.5881	0.65768	0.73636	-0.146
Mof_C 	C 	0.6036	0.63124	0.74993	0.249
Mof_C 	C 	0.6294	0.61233	0.7357	-0.155
Mof_C 	C 	0.639	0.621	0.71024	0.064
Mof_H 	H 	0.6568	0.6086	0.7015	-0.007
Mof_C 	C 	0.6241	0.6466	0.69706	-0.157
Mof_C 	C 	0.5982	0.6646	0.71039	0.065
Mof_H 	H 	0.587	0.6821	0.7017	0.011
Mof_C 	C 	0.6469	0.5847	0.74693	0.075
Mof_H 	H 	0.6621	0.5728	0.7356	0.023
Mof_N 	N 	0.644	0.5746	0.77024	-0.168
Mof_O 	O 	0.6658	0.5478	0.77429	-0.529
Mof_C 	C 	0.6949	0.50597	0.80001	-0.568
Mof_C 	C 	0.748	0.45689	0.79822	-0.028
Mof_C 	C 	0.4198	0.8181	0.80998	0.322
Mof_O 	O 	0.42269	0.83762	0.79185	-0.491
Mof_O 	O 	0.39757	0.81897	0.8288	-0.478
Mof_O 	O 	0.6166	0.63417	0.82314	-0.556
Mof_C 	C 	0.6963	0.6774	0.9141	0.612
Mof_O 	O 	0.55866	0.59916	0.81153	-0.551
Mof_C 	C 	0.432	0.5205	0.8266	0.669
Mof_C 	C 	0.4058	0.5236	0.8013	-0.824
Mof_H 	H 	0.4187	0.5154	0.786	0.257
Mof_H 	H 	0.3994	0.5456	0.7984	0.26
Mof_H 	H 	0.3829	0.5115	0.8038	0.241
Mof_C 	C 	0.406	0.5341	0.8458	-0.971
Mof_H 	H 	0.4031	0.5565	0.8423	0.293
Mof_H 	H 	0.4161	0.531	0.8637	0.286
Mof_H 	H 	0.3817	0.5238	0.8439	0.284
Mof_C 	C 	0.4419	0.4864	0.8271	-0.965
Mof_H 	H 	0.4593	0.4819	0.813	0.293
Mof_H 	H 	0.4192	0.4739	0.8244	0.285
Mof_H 	H 	0.4536	0.4811	0.8442	0.287
Mof_O 	O 	0.59467	0.62397	0.77388	-0.538
Mof_C 	C 	0.6358	0.6551	0.66918	0.357
Mof_C 	C 	0.7763	0.43161	0.7963	0.335
Mof_O 	O 	0.80915	0.43858	0.80389	-0.519
Mof_O 	O 	0.76771	0.40515	0.78711	-0.484
Mof_C 	C 	0.7241	0.5034	0.8191	-0.101
Mof_H 	H 	0.7259	0.5182	0.8329	0.054
Mof_C 	C 	0.7503	0.4796	0.818	-0.271
Mof_H 	H 	0.77	0.4787	0.8308	0.093
Mof_C 	C 	0.7186	0.4582	0.7799	-0.028
Mof_H 	H 	0.716	0.4426	0.7667	0.025
Mof_C 	C 	0.6932	0.4825	0.7811	0.133
Mof_H 	H 	0.6734	0.4831	0.7683	-0.037
Mof_C 	C 	0.6057	0.6509	0.6484	0.008
Mof_H 	H 	0.5823	0.66	0.6546	-0.062
Mof_H 	H 	0.6021	0.6286	0.6449	0.041
Mof_H 	H 	0.613	0.6615	0.6322	-0.013
Mof_C 	C 	0.6433	0.6913	0.6685	-0.479
Mof_H 	H 	0.6629	0.6966	0.6815	0.15
Mof_H 	H 	0.6203	0.7026	0.6725	0.247
Mof_H 	H 	0.6513	0.6973	0.6509	0.159
Mof_C 	C 	0.6732	0.6418	0.6615	-0.208
Mof_H 	H 	0.6915	0.6453	0.6759	0.039
Mof_H 	H 	0.6815	0.6522	0.6456	0.045
Mof_H 	H 	0.6706	0.6193	0.6582	0.065
Mof_C 	C 	0.6711	0.675	0.938	-0.856
Mof_H 	H 	0.6477	0.6862	0.9343	0.26
Mof_H 	H 	0.6839	0.6844	0.9534	0.249
Mof_H 	H 	0.6658	0.653	0.9417	0.259
Mof_C 	C 	0.7328	0.6602	0.9197	-0.889
Mof_H 	H 	0.7449	0.6687	0.9357	0.261
Mof_H 	H 	0.7493	0.6628	0.9048	0.27
Mof_H 	H 	0.7277	0.6379	0.9223	0.269
Mof_C 	C 	0.704	0.7126	0.9107	-0.861
Mof_H 	H 	0.6804	0.7236	0.9071	0.265
Mof_H 	H 	0.7207	0.7157	0.896	0.264
Mof_H 	H 	0.7158	0.7208	0.9269	0.253
Mof_C 	C 	0.8596	0.5783	0.45388	-0.597
Mof_C 	C 	0.8627	0.6063	0.40355	-0.015
Mof_B 	B 	0.8564	0.5611	0.48147	1.573
Mof_O 	O 	0.8582	0.52801	0.4751	-0.556
Mof_N 	N 	0.8605	0.5066	0.49588	-0.162
Mof_C 	C 	0.862	0.4787	0.48808	0.082
Mof_H 	H 	0.8618	0.4754	0.4696	0.018
Mof_C 	C 	0.864	0.45113	0.50468	-0.173
Mof_C 	C 	0.863	0.4523	0.53275	0.28
Mof_C 	C 	0.866	0.4233	0.5465	-0.174
Mof_C 	C 	0.8708	0.3958	0.53208	0.073
Mof_H 	H 	0.874	0.3768	0.5416	-0.003
Mof_C 	C 	0.8711	0.3944	0.50522	-0.159
Mof_C 	C 	0.8682	0.4222	0.4917	0.069
Mof_H 	H 	0.8691	0.422	0.473	-0.012
Mof_C 	C 	0.8641	0.4206	0.57461	0.079
Mof_H 	H 	0.8661	0.4	0.5816	0.03
Mof_N 	N 	0.8602	0.44228	0.5912	-0.164
Mof_O 	O 	0.8593	0.43165	0.61663	-0.525
Mof_B 	B 	0.8543	0.4554	0.63696	1.47
Mof_O 	O 	0.8888	0.57154	0.49683	-0.554
Mof_N 	N 	0.8948	0.5584	0.52149	-0.165
Mof_C 	C 	0.9273	0.5645	0.53066	0.097
Mof_H 	H 	0.9429	0.5772	0.5202	0.018
Mof_C 	C 	0.9423	0.5538	0.55553	-0.206
Mof_C 	C 	0.922	0.5357	0.57426	0.291
Mof_C 	C 	0.9419	0.5268	0.59784	-0.198
Mof_C 	C 	0.9797	0.5345	0.60128	0.156
Mof_H 	H 	0.9925	0.5278	0.6169	-0.025
Mof_C 	C 	0.9995	0.5516	0.58298	-0.313
Mof_C 	C 	0.9801	0.561	0.56074	0.157
Mof_H 	H 	0.993	0.5731	0.5482	-0.047
Mof_C 	C 	0.9252	0.508	0.61828	0.1
Mof_H 	H 	0.939	0.5056	0.6344	0.035
Mof_N 	N 	0.8937	0.49458	0.61627	-0.168
Mof_O 	O 	0.8853	0.47881	0.63872	-0.497
Mof_C 	C 	0.8542	0.4378	0.66486	-0.628
Mof_C 	C 	0.8863	0.4359	0.68114	0.326
Mof_H 	H 	0.9085	0.4459	0.6758	-0.066
Mof_C 	C 	0.8864	0.4197	0.70488	-0.244
Mof_H 	H 	0.9088	0.4179	0.7152	0.125
Mof_C 	C 	0.8538	0.40612	0.71356	0.087
Mof_C 	C 	0.8214	0.4084	0.69829	-0.255
Mof_H 	H 	0.799	0.3991	0.704	0.121
Mof_C 	C 	0.8219	0.4243	0.67444	0.329
Mof_H 	H 	0.7993	0.4261	0.6643	-0.087
Mof_C 	C 	0.8635	0.6192	0.37627	0.299
Mof_O 	O 	0.85142	0.64647	0.37224	-0.47
Mof_O 	O 	0.88	0.6044	0.35928	-0.493
Mof_O 	O 	0.8621	0.47838	0.54478	-0.568
Mof_C 	C 	0.876	0.363	0.4911	0.322
Mof_O 	O 	0.8878	0.52853	0.57011	-0.552
Mof_C 	C 	0.0407	0.5608	0.5867	0.692
Mof_C 	C 	0.0457	0.5966	0.5843	-0.928
Mof_H 	H 	0.0357	0.6037	0.5672	0.281
Mof_H 	H 	0.0722	0.6019	0.586	0.282
Mof_H 	H 	0.0321	0.607	0.5984	0.3
Mof_C 	C 	0.0633	0.5462	0.5645	-0.951
Mof_H 	H 	0.0523	0.5523	0.5474	0.295
Mof_H 	H 	0.0629	0.5234	0.5661	0.297
Mof_H 	H 	0.0892	0.5536	0.5658	0.289
Mof_C 	C 	0.0566	0.5521	0.6133	-1
Mof_H 	H 	0.0416	0.5618	0.627	0.33
Mof_H 	H 	0.0824	0.5596	0.615	0.305
Mof_H 	H 	0.0561	0.5293	0.6153	0.307
Mof_C 	C 	0.8536	0.39016	0.73994	0.309
Mof_O 	O 	0.88474	0.38711	0.75189	-0.48
Mof_O 	O 	0.82225	0.38083	0.74786	-0.473
Mof_O 	O 	0.8252	0.5738	0.4968	-0.35
Mof_C 	C 	0.848	0.6223	0.4244	-0.053
Mof_H 	H 	0.8388	0.6429	0.4219	0.049
Mof_C 	C 	0.8465	0.6084	0.449	0.128
Mof_H 	H 	0.8362	0.6199	0.4631	-0.027
Mof_C 	C 	0.8759	0.563	0.4326	-0.054
Mof_H 	H 	0.8864	0.5429	0.4354	0.033
Mof_C 	C 	0.8773	0.5761	0.4077	-0.258
Mof_H 	H 	0.8879	0.5648	0.3937	0.095
Mof_N 	N 	0.8179	0.5583	0.5193	-0.065
Mof_C 	C 	0.7887	0.5695	0.5292	0.032
Mof_H 	H 	0.7758	0.5856	0.5197	0.033
Mof_C 	C 	0.7737	0.5595	0.554	-0.027
Mof_C 	C 	0.7908	0.5365	0.571	0.046
Mof_C 	C 	0.7737	0.5308	0.5957	0.097
Mof_C 	C 	0.741	0.5468	0.6023	-0.117
Mof_H 	H 	0.7305	0.5431	0.619	0.056
Mof_C 	C 	0.724	0.5677	0.5852	0.04
Mof_C 	C 	0.7406	0.5738	0.5616	-0.067
Mof_H 	H 	0.729	0.5884	0.5499	0.041
Mof_C 	C 	0.788	0.509	0.6152	-0.208
Mof_H 	H 	0.7743	0.507	0.6309	0.101
Mof_N 	N 	0.817	0.4923	0.6134	-0.033
Mof_O 	O 	0.8219	0.4756	0.6361	-0.159
Mof_O 	O 	0.8193	0.5217	0.5641	-0.178
Mof_C 	C 	0.6872	0.5834	0.5923	0.065
Mof_C 	C 	0.6964	0.6183	0.5923	-0.455
Mof_H 	H 	0.7034	0.6248	0.5746	0.148
Mof_H 	H 	0.7172	0.6224	0.6048	0.153
Mof_H 	H 	0.6745	0.6302	0.5976	0.134
Mof_C 	C 	0.6565	0.5756	0.5721	-0.093
Mof_H 	H 	0.6641	0.5825	0.5546	-0.048
Mof_H 	H 	0.6335	0.5865	0.5767	0.031
Mof_H 	H 	0.6522	0.553	0.5719	0.094
Mof_C 	C 	0.6762	0.5731	0.6196	-0.493
Mof_H 	H 	0.6963	0.5783	0.6323	0.155
Mof_H 	H 	0.672	0.5505	0.6196	0.197
Mof_H 	H 	0.6533	0.5839	0.6244	0.14
Mof_C 	C 	0.2243	0.72874	0.80169	-0.699
Mof_C 	C 	0.2191	0.75323	0.7838	0.38
Mof_H 	H 	0.1999	0.7513	0.7707	-0.089
Mof_C 	C 	0.2405	0.77994	0.7842	-0.284
Mof_H 	H 	0.2363	0.7958	0.7713	0.133
Mof_C 	C 	0.2684	0.78364	0.80358	0.104
Mof_C 	C 	0.2752	0.7594	0.82128	-0.293
Mof_H 	H 	0.2947	0.7611	0.8343	0.131
Mof_C 	C 	0.2535	0.73282	0.81982	0.393
Mof_H 	H 	0.2589	0.7164	0.8319	-0.108
Mof_B 	B 	0.197	0.699	0.8021	1.627
Mof_O 	O 	0.2208	0.67068	0.80344	-0.546
Mof_N 	N 	0.2016	0.64175	0.8054	-0.166
Mof_C 	C 	0.2239	0.6187	0.8051	0.087
Mof_H 	H 	0.2497	0.6232	0.8032	0.024
Mof_C 	C 	0.2134	0.58624	0.80721	-0.164
Mof_C 	C 	0.1761	0.57626	0.81036	0.266
Mof_C 	C 	0.17022	0.54342	0.81332	-0.151
Mof_C 	C 	0.20075	0.52243	0.81298	0.066
Mof_H 	H 	0.1962	0.5007	0.815	0.009
Mof_C 	C 	0.23692	0.53269	0.80984	-0.158
Mof_C 	C 	0.2426	0.56469	0.8073	0.069
Mof_H 	H 	0.2673	0.5722	0.8056	-0.001
Mof_C 	C 	0.13315	0.52971	0.81494	0.078
Mof_H 	H 	0.1322	0.5078	0.8178	0.045
Mof_N 	N 	0.10203	0.54355	0.81302	-0.158
Mof_O 	O 	0.07215	0.52338	0.81448	-0.512
Mof_B 	B 	0.0343	0.537	0.811	1.518
Mof_O 	O 	0.1764	0.70378	0.82567	-0.574
Mof_N 	N 	0.1486	0.682	0.83043	-0.167
Mof_C 	C 	0.1325	0.6879	0.8518	0.089
Mof_H 	H 	0.1406	0.7061	0.861	0.03
Mof_C 	C 	0.1033	0.6698	0.86346	-0.177
Mof_C 	C 	0.0881	0.6424	0.85159	0.288
Mof_C 	C 	0.0613	0.62564	0.86672	-0.172
Mof_C 	C 	0.0507	0.6365	0.89135	0.085
Mof_H 	H 	0.0326	0.625	0.9007	-0.006
Mof_C 	C 	0.0655	0.6634	0.90275	-0.161
Mof_C 	C 	0.0913	0.6793	0.8881	0.081
Mof_H 	H 	0.1016	0.698	0.8953	-0.003
Mof_C 	C 	0.0441	0.59709	0.85754	0.079
Mof_H 	H 	0.0271	0.5876	0.8691	0.021
Mof_N 	N 	0.0488	0.58319	0.83604	-0.174
Mof_O 	O 	0.02547	0.55828	0.83268	-0.56
Mof_O 	O 	0.1753	0.69989	0.77758	-0.566
Mof_N 	N 	0.1497	0.6756	0.77403	-0.161
Mof_C 	C 	0.1349	0.6764	0.7512	0.06
Mof_H 	H 	0.1435	0.6925	0.74	0.046
Mof_C 	C 	0.1068	0.6559	0.73993	-0.104
Mof_C 	C 	0.092	0.6304	0.75487	0.216
Mof_C 	C 	0.0654	0.6109	0.74157	-0.092
Mof_C 	C 	0.0546	0.6172	0.71541	-0.067
Mof_C 	C 	0.0944	0.6606	0.71403	-0.029
Mof_C 	C 	0.0479	0.5839	0.75402	0.041
Mof_H 	H 	0.0326	0.5709	0.7431	0.06
Mof_N 	N 	0.0514	0.57657	0.77821	-0.161
Mof_O 	O 	0.0282	0.55159	0.78476	-0.525
Mof_C 	C 	0.00534	0.50858	0.81092	-0.652
Mof_C 	C 	0.0115	0.48039	0.798	0.357
Mof_H 	H 	0.0346	0.4773	0.7896	-0.083
Mof_C 	C 	0.98511	0.45678	0.79713	-0.255
Mof_H 	H 	0.9902	0.4378	0.7882	0.127
Mof_C 	C 	0.95112	0.46076	0.80924	0.08
Mof_C 	C 	0.9445	0.488	0.82271	-0.251
Mof_H 	H 	0.9217	0.4907	0.8316	0.11
Mof_C 	C 	0.97115	0.51151	0.82335	0.336
Mof_H 	H 	0.966	0.5303	0.8326	-0.096
Mof_C 	C 	0.2898	0.8135	0.8065	0.317
Mof_O 	O 	0.28412	0.83349	0.78875	-0.491
Mof_O 	O 	0.31244	0.81551	0.82571	-0.495
Mof_O 	O 	0.14884	0.59579	0.8111	-0.539
Mof_C 	C 	0.2698	0.51017	0.8081	0.348
Mof_O 	O 	0.0994	0.63215	0.82996	-0.564
Mof_C 	C 	0.0527	0.6751	0.9296	0.353
Mof_O 	O 	0.102	0.62589	0.77922	-0.537
Mof_C 	C 	0.92182	0.43564	0.80793	0.35
Mof_O 	O 	0.93099	0.40965	0.79877	-0.481
Mof_O 	O 	0.89018	0.4425	0.81497	-0.495
Mof_C 	C 	0.0657	0.6437	0.7019	0.135
Mof_C 	C 	0.2782	0.49	0.8316	-0.171
Mof_H 	H 	0.255	0.4812	0.838	-0.007
Mof_H 	H 	0.2903	0.5026	0.8455	0.076
Mof_H 	H 	0.295	0.473	0.8266	0.041
Mof_C 	C 	0.2586	0.4873	0.7846	-0.538
Mof_H 	H 	0.2528	0.4996	0.7688	0.181
Mof_H 	H 	0.2367	0.4751	0.7893	0.177
Mof_H 	H 	0.2794	0.4732	0.7813	0.176
Mof_C 	C 	0.3056	0.5238	0.798	-0.288
Mof_H 	H 	0.2999	0.537	0.7827	-0.061
Mof_H 	H 	0.3223	0.5069	0.793	0.099
Mof_H 	H 	0.3176	0.5365	0.8119	0.108
Mof_C 	C 	0.074	0.7034	0.9405	-0.21
Mof_H 	H 	0.0737	0.7201	0.9274	0.056
Mof_H 	H 	0.0999	0.6974	0.9447	0.077
Mof_H 	H 	0.0621	0.7107	0.9565	0.055
Mof_C 	C 	0.0129	0.6874	0.9228	-0.217
Mof_H 	H 	0.9976	0.6703	0.9156	0.058
Mof_H 	H 	0.0143	0.7042	0.9098	-0.003
Mof_H 	H 	0.0016	0.6955	0.9388	0.073
Mof_C 	C 	0.0517	0.6476	0.9487	-0.371
Mof_H 	H 	0.0377	0.6303	0.9406	0.001
Mof_H 	H 	0.0394	0.6542	0.9649	0.12
Mof_H 	H 	0.0772	0.6408	0.9531	0.234
Mof_C 	C 	0.0439	0.6563	0.6777	-0.181
Mof_C 	C 	0.0592	0.687	0.6678	0.058
Mof_H 	H 	0.0569	0.703	0.6815	0.018
Mof_H 	H 	0.045	0.6935	0.6519	0.012
Mof_H 	H 	0.0855	0.6844	0.6636	-0.125
Mof_C 	C 	0.0473	0.6312	0.6566	1.216
Mof_H 	H 	0.0374	0.6114	0.6631	-1.573
Mof_H 	H 	0.0737	0.6285	0.6524	-0.181
Mof_H 	H 	0.0332	0.6376	0.6407	-0.382
Mof_C 	C 	0.0026	0.6623	0.6824	-0.015
Mof_H 	H 	0.991	0.6431	0.6889	0.007
Mof_H 	H 	0.9901	0.6687	0.6659	0.047
Mof_H 	H 	0.0001	0.6789	0.6955	0.02
Mof_C 	C 	0.9078	0.3637	0.4715	-0.196
Mof_H 	H 	0.9044	0.3817	0.4598	0.071
Mof_H 	H 	0.9075	0.3444	0.4612	0.057
Mof_H 	H 	0.9317	0.3656	0.4812	0.041
Mof_C 	C 	0.8816	0.3348	0.5094	-0.184
Mof_H 	H 	0.8614	0.3341	0.522	0.058
Mof_H 	H 	0.9056	0.3367	0.5189	0.06
Mof_H 	H 	0.8814	0.3156	0.4989	0.051
Mof_C 	C 	0.8387	0.356	0.4761	-0.33
Mof_H 	H 	0.833	0.3731	0.4638	0.093
Mof_H 	H 	0.8186	0.3541	0.4887	0.057
Mof_H 	H 	0.8409	0.3364	0.4663	0.103
Mof_C 	C 	0.7321	0.5105	0.8082	0.298
Mof_H 	H 	0.7397	0.5304	0.8146	-0.071
Mof_C 	C 	0.7583	0.4867	0.8071	0.145
Mof_H 	H 	0.7834	0.4906	0.8125	-0.017
Mof_C 	C 	0.7122	0.4528	0.788	-0.097
Mof_H 	H 	0.7051	0.4334	0.7804	0.059
Mof_C 	C 	0.6866	0.477	0.7889	0.067
Mof_H 	H 	0.6622	0.4737	0.7815	-0.004
Mof_C 	C 	0.6119	0.6796	0.6562	-0.194
Mof_H 	H 	0.5856	0.6735	0.6569	0.129
Mof_H 	H 	0.6189	0.6819	0.6378	0.069
Mof_H 	H 	0.6156	0.6996	0.6653	-0.058
Mof_C 	C 	0.6773	0.6623	0.6691	-0.147
Mof_H 	H 	0.6911	0.6453	0.6779	0.072
Mof_H 	H 	0.6821	0.682	0.6785	0.045
Mof_H 	H 	0.6854	0.6642	0.651	0.06
Mof_C 	C 	0.6277	0.6256	0.6518	-0.597
Mof_H 	H 	0.6422	0.6079	0.6588	0.171
Mof_H 	H 	0.6348	0.6298	0.6337	0.176
Mof_H 	H 	0.6011	0.6206	0.6521	0.152
Mof_O 	O 	0.8175	0.5632	0.4908	-0.204
Mof_C 	C 	0.8896	0.5737	0.4375	0.281
Mof_H 	H 	0.9097	0.5609	0.4436	-0.074
Mof_C 	C 	0.8914	0.587	0.4128	0.105
Mof_H 	H 	0.9122	0.583	0.4021	0.002
Mof_C 	C 	0.8338	0.6136	0.4203	-0.093
Mof_H 	H 	0.8152	0.6283	0.4149	0.048
Mof_C 	C 	0.8323	0.5994	0.4447	0.092
Mof_H 	H 	0.812	0.6041	0.4557	-0.011
Mof_N 	N 	0.8097	0.5486	0.5152	-0.101
Mof_C 	C 	0.7758	0.553	0.5208	-0.016
Mof_H 	H 	0.7606	0.5644	0.5085	0.043
Mof_C 	C 	0.7583	0.5419	0.5446	-0.045
Mof_C 	C 	0.778	0.5236	0.5643	0.116
Mof_C 	C 	0.7568	0.5117	0.5857	-0.181
Mof_C 	C 	0.7186	0.5187	0.587	0.065
Mof_H 	H 	0.7048	0.5101	0.601	-0.012
Mof_C 	C 	0.7003	0.538	0.5685	-0.076
Mof_C 	C 	0.7205	0.5486	0.5475	0.007
Mof_H 	H 	0.708	0.5609	0.5344	0.016
Mof_C 	C 	0.7736	0.4939	0.607	0.214
Mof_H 	H 	0.7572	0.4863	0.62	-0.04
Mof_N 	N 	0.8079	0.4872	0.6102	-0.108
Mof_O 	O 	0.8164	0.469	0.6321	-0.34
Mof_O 	O 	0.8134	0.5189	0.5634	-0.275
Mof_C 	C 	0.6593	0.5465	0.5727	0.118
Mof_C 	C 	0.6415	0.5631	0.5496	-0.52
Mof_H 	H 	0.6447	0.5506	0.5336	0.164
Mof_H 	H 	0.6533	0.5836	0.5474	0.222
Mof_H 	H 	0.6148	0.5659	0.5526	0.155
Mof_C 	C 	0.6372	0.516	0.576	-0.462
Mof_H 	H 	0.6478	0.5042	0.591	0.141
Mof_H 	H 	0.6388	0.5033	0.56	0.148
Mof_H 	H 	0.611	0.5209	0.5793	0.135
Mof_C 	C 	0.6561	0.5638	0.5989	-0.149
Mof_H 	H 	0.6683	0.5515	0.6129	-0.019
Mof_H 	H 	0.6296	0.5666	0.6028	0.034
Mof_H 	H 	0.6682	0.5843	0.5977	0.143
Mof_C 	C 	0.9156	0.3503	0.4991	-0.348
Mof_H 	H 	0.9174	0.3479	0.5183	0.093
Mof_H 	H 	0.9346	0.3651	0.4934	0.104
Mof_H 	H 	0.9195	0.33	0.4907	0.113
Mof_C 	C 	0.8482	0.3382	0.499	-0.193
Mof_H 	H 	0.8486	0.3362	0.5183	0.041
Mof_H 	H 	0.8549	0.3181	0.4912	0.055
Mof_H 	H 	0.8231	0.3443	0.4928	0.083
Mof_C 	C 	0.8754	0.366	0.4614	-0.176
Mof_H 	H 	0.8934	0.382	0.4563	0.019
Mof_H 	H 	0.8503	0.372	0.4552	0.049
Mof_H 	H 	0.8821	0.3459	0.4536	0.049
Mof_C 	C 	0.3	0.5202	0.8291	-0.363
Mof_H 	H 	0.3079	0.5417	0.8257	0.079
Mof_H 	H 	0.3216	0.5062	0.8282	0.099
Mof_H 	H 	0.2896	0.5189	0.8467	0.082
Mof_C 	C 	0.2598	0.4771	0.8152	-0.169
Mof_H 	H 	0.2477	0.4769	0.8323	0.112
Mof_H 	H 	0.2826	0.4643	0.8164	0.054
Mof_H 	H 	0.2428	0.4684	0.8017	0.03
Mof_C 	C 	0.2888	0.5117	0.7817	-0.032
Mof_H 	H 	0.2949	0.5335	0.7777	0.159
Mof_H 	H 	0.272	0.5033	0.7679	0.001
Mof_H 	H 	0.3118	0.4992	0.7826	-0.013
Mof_C 	C 	0.0442	0.7101	0.9283	-0.342
Mof_H 	H 	0.0657	0.7213	0.9213	0.092
Mof_H 	H 	0.0391	0.7179	0.946	0.107
Mof_H 	H 	0.0223	0.7137	0.9167	0.158
Mof_C 	C 	0.0199	0.6567	0.9403	-0.26
Mof_H 	H 	0.0262	0.6344	0.9409	0.167
Mof_H 	H 	0.9978	0.6598	0.9288	0.078
Mof_H 	H 	0.0147	0.664	0.9581	0.061
Mof_C 	C 	0.0843	0.67	0.9505	-0.116
Mof_H 	H 	0.0903	0.6477	0.9517	-0.087
Mof_H 	H 	0.0761	0.6775	0.9677	0.049
Mof_H 	H 	0.1066	0.6817	0.9455	0.026
Mof_C 	C 	0.0715	0.6399	0.7004	0.045
Mof_C 	C 	0.0714	0.6377	0.6703	-0.66
Mof_C 	C 	0.083	0.6683	0.658	0.378
Mof_H 	H 	0.1078	0.6743	0.6649	-0.032
Mof_H 	H 	0.0649	0.6846	0.6623	-0.066
Mof_H 	H 	0.0838	0.6659	0.6388	-0.096
Mof_C 	C 	0.0331	0.626	0.661	0.629
Mof_H 	H 	0.0276	0.6062	0.6697	1.017
Mof_H 	H 	0.033	0.6228	0.6419	-0.083
Mof_H 	H 	0.0141	0.6415	0.6653	-0.279
Mof_C 	C 	0.1001	0.6142	0.6599	0.297
Mof_H 	H 	0.0949	0.5934	0.6669	-0.046
Mof_H 	H 	0.1253	0.6207	0.6656	-0.058
Mof_H 	H 	0.0984	0.6137	0.6406	-0.053
Mof_Zn	Zn	0.11411	0.09147	0.80203	1.2
Mof_Zn	Zn	0.06608	0.14706	0.80369	1.198
Mof_Zn	Zn	0.64252	0.14415	0.80492	1.199
Mof_Zn	Zn	0.58986	0.09176	0.80788	1.195
Mof_Zn	Zn	0.35613	0.02532	0.53419	1.193
Mof_Zn	Zn	0.35575	0.9911	0.5843	1.191
Mof_Zn	Zn	0.39609	0.87672	0.78849	1.217
Mof_Zn	Zn	0.34691	0.9176	0.82737	1.181
Mof_Zn	Zn	0.30781	0.87436	0.78468	1.21
Mof_Zn	Zn	0.35266	0.84527	0.83414	1.206
Mof_O 	O 	0.3507	0.87779	0.80789	-0.959
Mof_C 	C 	0.9884	0.23448	0.80556	-0.644
Mof_C 	C 	0.99	0.25859	0.78685	0.342
Mof_H 	H 	0.0069	0.2566	0.7729	-0.073
Mof_C 	C 	0.9679	0.28507	0.78792	-0.254
Mof_H 	H 	0.9693	0.3005	0.7745	0.127
Mof_C 	C 	0.9436	0.2892	0.80837	0.089
Mof_C 	C 	0.9408	0.26552	0.82695	-0.259
Mof_H 	H 	0.9241	0.2678	0.841	0.122
Mof_C 	C 	0.9622	0.23867	0.82524	0.339
Mof_H 	H 	0.959	0.2225	0.8378	-0.088
Mof_B 	B 	0.0148	0.2042	0.8047	1.539
Mof_O 	O 	0.04603	0.21038	0.82412	-0.517
Mof_N 	N 	0.0719	0.18698	0.82771	-0.167
Mof_C 	C 	0.0953	0.1927	0.8461	0.094
Mof_H 	H 	0.0928	0.2123	0.8547	0.024
Mof_C 	C 	0.1254	0.1728	0.8557	-0.201
Mof_C 	C 	0.134	0.1437	0.8435	0.301
Mof_C 	C 	0.1654	0.1268	0.8549	-0.201
Mof_C 	C 	0.1846	0.1374	0.8775	0.14
Mof_H 	H 	0.2043	0.1251	0.8849	-0.035
Mof_C 	C 	0.1754	0.1654	0.8894	-0.282
Mof_C 	C 	0.1459	0.1825	0.8781	0.137
Mof_H 	H 	0.1394	0.2018	0.8861	-0.036
Mof_C 	C 	0.1775	0.0979	0.8437	0.103
Mof_H 	H 	0.2002	0.0894	0.8506	0.021
Mof_N 	N 	0.1611	0.0824	0.8256	-0.168
Mof_O 	O 	0.1807	0.05563	0.82061	-0.545
Mof_B 	B 	0.1654	0.0338	0.801	1.531
Mof_O 	O 	0.99202	0.17785	0.81328	-0.541
Mof_N 	N 	0.0095	0.14845	0.81296	-0.172
Mof_C 	C 	0.9867	0.12688	0.8184	0.1
Mof_H 	H 	0.9619	0.1332	0.8219	0.02
Mof_C 	C 	0.9943	0.09331	0.8198	-0.206
Mof_C 	C 	0.0305	0.08084	0.8162	0.29
Mof_C 	C 	0.0342	0.04799	0.8177	-0.205
Mof_C 	C 	0.0023	0.029	0.821	0.148
Mof_H 	H 	0.0053	0.007	0.821	-0.041
Mof_C 	C 	0.9668	0.04125	0.8243	-0.308
Mof_C 	C 	0.9644	0.07364	0.8247	0.157
Mof_H 	H 	0.9411	0.0829	0.8286	-0.049
Mof_C 	C 	0.0689	0.0312	0.8141	0.098
Mof_H 	H 	0.0686	0.0091	0.8161	0.019
Mof_N 	N 	0.0996	0.04403	0.8084	-0.17
Mof_O 	O 	0.12846	0.02155	0.80608	-0.549
Mof_O 	O 	0.02751	0.2015	0.77787	-0.54
Mof_N 	N 	0.0518	0.17757	0.77252	-0.159
Mof_C 	C 	0.0616	0.17863	0.74876	0.082
Mof_H 	H 	0.0507	0.1946	0.738	0.042
Mof_C 	C 	0.0881	0.15768	0.73636	-0.146
Mof_C 	C 	0.1036	0.13124	0.74993	0.249
Mof_C 	C 	0.1294	0.11233	0.7357	-0.155
Mof_C 	C 	0.139	0.121	0.71024	0.064
Mof_H 	H 	0.1568	0.1086	0.7015	-0.007
Mof_C 	C 	0.1241	0.1466	0.69706	-0.157
Mof_C 	C 	0.0982	0.1646	0.71039	0.065
Mof_H 	H 	0.087	0.1821	0.7017	0.011
Mof_C 	C 	0.1469	0.0847	0.74693	0.075
Mof_H 	H 	0.1621	0.0728	0.7356	0.023
Mof_N 	N 	0.144	0.0746	0.77024	-0.168
Mof_O 	O 	0.1658	0.0478	0.77429	-0.529
Mof_C 	C 	0.1949	0.00597	0.80001	-0.568
Mof_C 	C 	0.248	0.95689	0.79822	-0.028
Mof_C 	C 	0.9198	0.3181	0.80998	0.322
Mof_O 	O 	0.92269	0.33762	0.79185	-0.491
Mof_O 	O 	0.89757	0.31897	0.8288	-0.478
Mof_O 	O 	0.1166	0.13417	0.82314	-0.556
Mof_C 	C 	0.1963	0.1774	0.9141	0.612
Mof_O 	O 	0.05866	0.09916	0.81153	-0.551
Mof_C 	C 	0.932	0.0205	0.8266	0.669
Mof_C 	C 	0.9058	0.0236	0.8013	-0.824
Mof_H 	H 	0.9187	0.0154	0.786	0.257
Mof_H 	H 	0.8994	0.0456	0.7984	0.26
Mof_H 	H 	0.8829	0.0115	0.8038	0.241
Mof_C 	C 	0.906	0.0341	0.8458	-0.971
Mof_H 	H 	0.9031	0.0565	0.8423	0.293
Mof_H 	H 	0.9161	0.031	0.8637	0.286
Mof_H 	H 	0.8817	0.0238	0.8439	0.284
Mof_C 	C 	0.9419	0.9864	0.8271	-0.965
Mof_H 	H 	0.9593	0.9819	0.813	0.293
Mof_H 	H 	0.9192	0.9739	0.8244	0.285
Mof_H 	H 	0.9536	0.9811	0.8442	0.287
Mof_O 	O 	0.09467	0.12397	0.77388	-0.538
Mof_C 	C 	0.1358	0.1551	0.66918	0.357
Mof_C 	C 	0.2763	0.93161	0.7963	0.335
Mof_O 	O 	0.30915	0.93858	0.80389	-0.519
Mof_O 	O 	0.26771	0.90515	0.78711	-0.484
Mof_C 	C 	0.2241	0.0034	0.8191	-0.101
Mof_H 	H 	0.2259	0.0182	0.8329	0.054
Mof_C 	C 	0.2503	0.9796	0.818	-0.271
Mof_H 	H 	0.27	0.9787	0.8308	0.093
Mof_C 	C 	0.2186	0.9582	0.7799	-0.028
Mof_H 	H 	0.216	0.9426	0.7667	0.025
Mof_C 	C 	0.1932	0.9825	0.7811	0.133
Mof_H 	H 	0.1734	0.9831	0.7683	-0.037
Mof_C 	C 	0.1057	0.1509	0.6484	0.008
Mof_H 	H 	0.0823	0.16	0.6546	-0.062
Mof_H 	H 	0.1021	0.1286	0.6449	0.041
Mof_H 	H 	0.113	0.1615	0.6322	-0.013
Mof_C 	C 	0.1433	0.1913	0.6685	-0.479
Mof_H 	H 	0.1629	0.1966	0.6815	0.15
Mof_H 	H 	0.1203	0.2026	0.6725	0.247
Mof_H 	H 	0.1513	0.1973	0.6509	0.159
Mof_C 	C 	0.1732	0.1418	0.6615	-0.208
Mof_H 	H 	0.1915	0.1453	0.6759	0.039
Mof_H 	H 	0.1815	0.1522	0.6456	0.045
Mof_H 	H 	0.1706	0.1193	0.6582	0.065
Mof_C 	C 	0.1711	0.175	0.938	-0.856
Mof_H 	H 	0.1477	0.1862	0.9343	0.26
Mof_H 	H 	0.1839	0.1844	0.9534	0.249
Mof_H 	H 	0.1658	0.153	0.9417	0.259
Mof_C 	C 	0.2328	0.1602	0.9197	-0.889
Mof_H 	H 	0.2449	0.1687	0.9357	0.261
Mof_H 	H 	0.2493	0.1628	0.9048	0.27
Mof_H 	H 	0.2277	0.1379	0.9223	0.269
Mof_C 	C 	0.204	0.2126	0.9107	-0.861
Mof_H 	H 	0.1804	0.2236	0.9071	0.265
Mof_H 	H 	0.2207	0.2157	0.896	0.264
Mof_H 	H 	0.2158	0.2208	0.9269	0.253
Mof_C 	C 	0.3596	0.0783	0.45388	-0.597
Mof_C 	C 	0.3627	0.1063	0.40355	-0.015
Mof_B 	B 	0.3564	0.0611	0.48147	1.573
Mof_O 	O 	0.3582	0.02801	0.4751	-0.556
Mof_N 	N 	0.3605	0.0066	0.49588	-0.162
Mof_C 	C 	0.362	0.9787	0.48808	0.082
Mof_H 	H 	0.3618	0.9754	0.4696	0.018
Mof_C 	C 	0.364	0.95113	0.50468	-0.173
Mof_C 	C 	0.363	0.9523	0.53275	0.28
Mof_C 	C 	0.366	0.9233	0.5465	-0.174
Mof_C 	C 	0.3708	0.8958	0.53208	0.073
Mof_H 	H 	0.374	0.8768	0.5416	-0.003
Mof_C 	C 	0.3711	0.8944	0.50522	-0.159
Mof_C 	C 	0.3682	0.9222	0.4917	0.069
Mof_H 	H 	0.3691	0.922	0.473	-0.012
Mof_C 	C 	0.3641	0.9206	0.57461	0.079
Mof_H 	H 	0.3661	0.9	0.5816	0.03
Mof_N 	N 	0.3602	0.94228	0.5912	-0.164
Mof_O 	O 	0.3593	0.93165	0.61663	-0.525
Mof_B 	B 	0.3543	0.9554	0.63696	1.47
Mof_O 	O 	0.3888	0.07154	0.49683	-0.554
Mof_N 	N 	0.3948	0.0584	0.52149	-0.165
Mof_C 	C 	0.4273	0.0645	0.53066	0.097
Mof_H 	H 	0.4429	0.0772	0.5202	0.018
Mof_C 	C 	0.4423	0.0538	0.55553	-0.206
Mof_C 	C 	0.422	0.0357	0.57426	0.291
Mof_C 	C 	0.4419	0.0268	0.59784	-0.198
Mof_C 	C 	0.4797	0.0345	0.60128	0.156
Mof_H 	H 	0.4925	0.0278	0.6169	-0.025
Mof_C 	C 	0.4995	0.0516	0.58298	-0.313
Mof_C 	C 	0.4801	0.061	0.56074	0.157
Mof_H 	H 	0.493	0.0731	0.5482	-0.047
Mof_C 	C 	0.4252	0.008	0.61828	0.1
Mof_H 	H 	0.439	0.0056	0.6344	0.035
Mof_N 	N 	0.3937	0.99458	0.61627	-0.168
Mof_O 	O 	0.3853	0.97881	0.63872	-0.497
Mof_C 	C 	0.3542	0.9378	0.66486	-0.628
Mof_C 	C 	0.3863	0.9359	0.68114	0.326
Mof_H 	H 	0.4085	0.9459	0.6758	-0.066
Mof_C 	C 	0.3864	0.9197	0.70488	-0.244
Mof_H 	H 	0.4088	0.9179	0.7152	0.125
Mof_C 	C 	0.3538	0.90612	0.71356	0.087
Mof_C 	C 	0.3214	0.9084	0.69829	-0.255
Mof_H 	H 	0.299	0.8991	0.704	0.121
Mof_C 	C 	0.3219	0.9243	0.67444	0.329
Mof_H 	H 	0.2993	0.9261	0.6643	-0.087
Mof_C 	C 	0.3635	0.1192	0.37627	0.299
Mof_O 	O 	0.35142	0.14647	0.37224	-0.47
Mof_O 	O 	0.38	0.1044	0.35928	-0.493
Mof_O 	O 	0.3621	0.97838	0.54478	-0.568
Mof_C 	C 	0.376	0.863	0.4911	0.322
Mof_O 	O 	0.3878	0.02853	0.57011	-0.552
Mof_C 	C 	0.5407	0.0608	0.5867	0.692
Mof_C 	C 	0.5457	0.0966	0.5843	-0.928
Mof_H 	H 	0.5357	0.1037	0.5672	0.281
Mof_H 	H 	0.5722	0.1019	0.586	0.282
Mof_H 	H 	0.5321	0.107	0.5984	0.3
Mof_C 	C 	0.5633	0.0462	0.5645	-0.951
Mof_H 	H 	0.5523	0.0523	0.5474	0.295
Mof_H 	H 	0.5629	0.0234	0.5661	0.297
Mof_H 	H 	0.5892	0.0536	0.5658	0.289
Mof_C 	C 	0.5566	0.0521	0.6133	-1
Mof_H 	H 	0.5416	0.0618	0.627	0.33
Mof_H 	H 	0.5824	0.0596	0.615	0.305
Mof_H 	H 	0.5561	0.0293	0.6153	0.307
Mof_C 	C 	0.3536	0.89016	0.73994	0.309
Mof_O 	O 	0.38474	0.88711	0.75189	-0.48
Mof_O 	O 	0.32225	0.88083	0.74786	-0.473
Mof_O 	O 	0.3252	0.0738	0.4968	-0.35
Mof_C 	C 	0.348	0.1223	0.4244	-0.053
Mof_H 	H 	0.3388	0.1429	0.4219	0.049
Mof_C 	C 	0.3465	0.1084	0.449	0.128
Mof_H 	H 	0.3362	0.1199	0.4631	-0.027
Mof_C 	C 	0.3759	0.063	0.4326	-0.054
Mof_H 	H 	0.3864	0.0429	0.4354	0.033
Mof_C 	C 	0.3773	0.0761	0.4077	-0.258
Mof_H 	H 	0.3879	0.0648	0.3937	0.095
Mof_N 	N 	0.3179	0.0583	0.5193	-0.065
Mof_C 	C 	0.2887	0.0695	0.5292	0.032
Mof_H 	H 	0.2758	0.0856	0.5197	0.033
Mof_C 	C 	0.2737	0.0595	0.554	-0.027
Mof_C 	C 	0.2908	0.0365	0.571	0.046
Mof_C 	C 	0.2737	0.0308	0.5957	0.097
Mof_C 	C 	0.241	0.0468	0.6023	-0.117
Mof_H 	H 	0.2305	0.0431	0.619	0.056
Mof_C 	C 	0.224	0.0677	0.5852	0.04
Mof_C 	C 	0.2406	0.0738	0.5616	-0.067
Mof_H 	H 	0.229	0.0884	0.5499	0.041
Mof_C 	C 	0.288	0.009	0.6152	-0.208
Mof_H 	H 	0.2743	0.007	0.6309	0.101
Mof_N 	N 	0.317	0.9923	0.6134	-0.033
Mof_O 	O 	0.3219	0.9756	0.6361	-0.159
Mof_O 	O 	0.3193	0.0217	0.5641	-0.178
Mof_C 	C 	0.1872	0.0834	0.5923	0.065
Mof_C 	C 	0.1964	0.1183	0.5923	-0.455
Mof_H 	H 	0.2034	0.1248	0.5746	0.148
Mof_H 	H 	0.2172	0.1224	0.6048	0.153
Mof_H 	H 	0.1745	0.1302	0.5976	0.134
Mof_C 	C 	0.1565	0.0756	0.5721	-0.093
Mof_H 	H 	0.1641	0.0825	0.5546	-0.048
Mof_H 	H 	0.1335	0.0865	0.5767	0.031
Mof_H 	H 	0.1522	0.053	0.5719	0.094
Mof_C 	C 	0.1762	0.0731	0.6196	-0.493
Mof_H 	H 	0.1963	0.0783	0.6323	0.155
Mof_H 	H 	0.172	0.0505	0.6196	0.197
Mof_H 	H 	0.1533	0.0839	0.6244	0.14
Mof_C 	C 	0.7243	0.22874	0.80169	-0.699
Mof_C 	C 	0.7191	0.25323	0.7838	0.38
Mof_H 	H 	0.6999	0.2513	0.7707	-0.088
Mof_C 	C 	0.7405	0.27994	0.7842	-0.284
Mof_H 	H 	0.7363	0.2958	0.7713	0.133
Mof_C 	C 	0.7684	0.28364	0.80358	0.104
Mof_C 	C 	0.7752	0.2594	0.82128	-0.293
Mof_H 	H 	0.7947	0.2611	0.8343	0.131
Mof_C 	C 	0.7535	0.23282	0.81982	0.393
Mof_H 	H 	0.7589	0.2164	0.8319	-0.108
Mof_B 	B 	0.697	0.199	0.8021	1.627
Mof_O 	O 	0.7208	0.17068	0.80344	-0.546
Mof_N 	N 	0.7016	0.14175	0.8054	-0.166
Mof_C 	C 	0.7239	0.1187	0.8051	0.087
Mof_H 	H 	0.7497	0.1232	0.8032	0.024
Mof_C 	C 	0.7134	0.08624	0.80721	-0.164
Mof_C 	C 	0.6761	0.07626	0.81036	0.266
Mof_C 	C 	0.67022	0.04342	0.81332	-0.151
Mof_C 	C 	0.70075	0.02243	0.81298	0.066
Mof_H 	H 	0.6962	0.0007	0.815	0.009
Mof_C 	C 	0.73692	0.03269	0.80984	-0.158
Mof_C 	C 	0.7426	0.06469	0.8073	0.069
Mof_H 	H 	0.7673	0.0722	0.8056	-0.001
Mof_C 	C 	0.63315	0.02971	0.81494	0.078
Mof_H 	H 	0.6322	0.0078	0.8178	0.045
Mof_N 	N 	0.60203	0.04355	0.81302	-0.158
Mof_O 	O 	0.57215	0.02338	0.81448	-0.512
Mof_B 	B 	0.5343	0.037	0.811	1.518
Mof_O 	O 	0.6764	0.20378	0.82567	-0.574
Mof_N 	N 	0.6486	0.182	0.83043	-0.167
Mof_C 	C 	0.6325	0.1879	0.8518	0.089
Mof_H 	H 	0.6406	0.2061	0.861	0.03
Mof_C 	C 	0.6033	0.1698	0.86346	-0.177
Mof_C 	C 	0.5881	0.1424	0.85159	0.288
Mof_C 	C 	0.5613	0.12564	0.86672	-0.172
Mof_C 	C 	0.5507	0.1365	0.89135	0.085
Mof_H 	H 	0.5326	0.125	0.9007	-0.006
Mof_C 	C 	0.5655	0.1634	0.90275	-0.161
Mof_C 	C 	0.5913	0.1793	0.8881	0.081
Mof_H 	H 	0.6016	0.198	0.8953	-0.003
Mof_C 	C 	0.5441	0.09709	0.85754	0.079
Mof_H 	H 	0.5271	0.0876	0.8691	0.021
Mof_N 	N 	0.5488	0.08319	0.83604	-0.174
Mof_O 	O 	0.52547	0.05828	0.83268	-0.56
Mof_O 	O 	0.6753	0.19989	0.77758	-0.566
Mof_N 	N 	0.6497	0.1756	0.77403	-0.161
Mof_C 	C 	0.6349	0.1764	0.7512	0.06
Mof_H 	H 	0.6435	0.1925	0.74	0.046
Mof_C 	C 	0.6068	0.1559	0.73993	-0.104
Mof_C 	C 	0.592	0.1304	0.75487	0.216
Mof_C 	C 	0.5654	0.1109	0.74157	-0.092
Mof_C 	C 	0.5546	0.1172	0.71541	-0.067
Mof_C 	C 	0.5944	0.1606	0.71403	-0.029
Mof_C 	C 	0.5479	0.0839	0.75402	0.041
Mof_H 	H 	0.5326	0.0709	0.7431	0.06
Mof_N 	N 	0.5514	0.07657	0.77821	-0.161
Mof_O 	O 	0.5282	0.05159	0.78476	-0.525
Mof_C 	C 	0.50534	0.00858	0.81092	-0.652
Mof_C 	C 	0.5115	0.98039	0.798	0.357
Mof_H 	H 	0.5346	0.9773	0.7896	-0.083
Mof_C 	C 	0.48511	0.95678	0.79713	-0.255
Mof_H 	H 	0.4902	0.9378	0.7882	0.127
Mof_C 	C 	0.45112	0.96076	0.80924	0.08
Mof_C 	C 	0.4445	0.988	0.82271	-0.251
Mof_H 	H 	0.4217	0.9907	0.8316	0.11
Mof_C 	C 	0.47115	0.01151	0.82335	0.336
Mof_H 	H 	0.466	0.0303	0.8326	-0.096
Mof_C 	C 	0.7898	0.3135	0.8065	0.317
Mof_O 	O 	0.78412	0.33349	0.78875	-0.491
Mof_O 	O 	0.81244	0.31551	0.82571	-0.495
Mof_O 	O 	0.64884	0.09579	0.8111	-0.539
Mof_C 	C 	0.7698	0.01017	0.8081	0.348
Mof_O 	O 	0.5994	0.13215	0.82996	-0.564
Mof_C 	C 	0.5527	0.1751	0.9296	0.353
Mof_O 	O 	0.602	0.12589	0.77922	-0.537
Mof_C 	C 	0.42182	0.93564	0.80793	0.35
Mof_O 	O 	0.43099	0.90965	0.79877	-0.481
Mof_O 	O 	0.39018	0.9425	0.81497	-0.495
Mof_C 	C 	0.5657	0.1437	0.7019	0.135
Mof_C 	C 	0.7782	0.99	0.8316	-0.171
Mof_H 	H 	0.755	0.9812	0.838	-0.007
Mof_H 	H 	0.7903	0.0026	0.8455	0.076
Mof_H 	H 	0.795	0.973	0.8266	0.041
Mof_C 	C 	0.7586	0.9873	0.7846	-0.538
Mof_H 	H 	0.7528	0.9996	0.7688	0.181
Mof_H 	H 	0.7367	0.9751	0.7893	0.177
Mof_H 	H 	0.7794	0.9732	0.7813	0.176
Mof_C 	C 	0.8056	0.0238	0.798	-0.288
Mof_H 	H 	0.7999	0.037	0.7827	-0.061
Mof_H 	H 	0.8223	0.0069	0.793	0.099
Mof_H 	H 	0.8176	0.0365	0.8119	0.108
Mof_C 	C 	0.574	0.2034	0.9405	-0.21
Mof_H 	H 	0.5737	0.2201	0.9274	0.056
Mof_H 	H 	0.5999	0.1974	0.9447	0.077
Mof_H 	H 	0.5621	0.2107	0.9565	0.055
Mof_C 	C 	0.5129	0.1874	0.9228	-0.217
Mof_H 	H 	0.4976	0.1703	0.9156	0.058
Mof_H 	H 	0.5143	0.2042	0.9098	-0.002
Mof_H 	H 	0.5016	0.1955	0.9388	0.073
Mof_C 	C 	0.5517	0.1476	0.9487	-0.371
Mof_H 	H 	0.5377	0.1303	0.9406	0.001
Mof_H 	H 	0.5394	0.1542	0.9649	0.12
Mof_H 	H 	0.5772	0.1408	0.9531	0.234
Mof_C 	C 	0.5439	0.1563	0.6777	-0.181
Mof_C 	C 	0.5592	0.187	0.6678	0.058
Mof_H 	H 	0.5569	0.203	0.6815	0.018
Mof_H 	H 	0.545	0.1935	0.6519	0.012
Mof_H 	H 	0.5855	0.1844	0.6636	-0.125
Mof_C 	C 	0.5473	0.1312	0.6566	1.216
Mof_H 	H 	0.5374	0.1114	0.6631	-1.573
Mof_H 	H 	0.5737	0.1285	0.6524	-0.181
Mof_H 	H 	0.5332	0.1376	0.6407	-0.382
Mof_C 	C 	0.5026	0.1623	0.6824	-0.015
Mof_H 	H 	0.491	0.1431	0.6889	0.007
Mof_H 	H 	0.4901	0.1687	0.6659	0.047
Mof_H 	H 	0.5001	0.1789	0.6955	0.02
Mof_C 	C 	0.4078	0.8637	0.4715	-0.196
Mof_H 	H 	0.4044	0.8817	0.4598	0.071
Mof_H 	H 	0.4075	0.8444	0.4612	0.057
Mof_H 	H 	0.4317	0.8656	0.4812	0.041
Mof_C 	C 	0.3816	0.8348	0.5094	-0.184
Mof_H 	H 	0.3614	0.8341	0.522	0.058
Mof_H 	H 	0.4056	0.8367	0.5189	0.06
Mof_H 	H 	0.3814	0.8156	0.4989	0.051
Mof_C 	C 	0.3387	0.856	0.4761	-0.33
Mof_H 	H 	0.333	0.8731	0.4638	0.093
Mof_H 	H 	0.3186	0.8541	0.4887	0.057
Mof_H 	H 	0.3409	0.8364	0.4663	0.103
Mof_C 	C 	0.2321	0.0105	0.8082	0.298
Mof_H 	H 	0.2397	0.0304	0.8146	-0.071
Mof_C 	C 	0.2583	0.9867	0.8071	0.145
Mof_H 	H 	0.2834	0.9906	0.8125	-0.017
Mof_C 	C 	0.2122	0.9528	0.788	-0.097
Mof_H 	H 	0.2051	0.9334	0.7804	0.059
Mof_C 	C 	0.1866	0.977	0.7889	0.067
Mof_H 	H 	0.1622	0.9737	0.7815	-0.004
Mof_C 	C 	0.1119	0.1796	0.6562	-0.194
Mof_H 	H 	0.0856	0.1735	0.6569	0.129
Mof_H 	H 	0.1189	0.1819	0.6378	0.069
Mof_H 	H 	0.1156	0.1996	0.6653	-0.058
Mof_C 	C 	0.1773	0.1623	0.6691	-0.147
Mof_H 	H 	0.1911	0.1453	0.6779	0.072
Mof_H 	H 	0.1821	0.182	0.6785	0.045
Mof_H 	H 	0.1854	0.1642	0.651	0.06
Mof_C 	C 	0.1277	0.1256	0.6518	-0.597
Mof_H 	H 	0.1422	0.1079	0.6588	0.171
Mof_H 	H 	0.1348	0.1298	0.6337	0.176
Mof_H 	H 	0.1011	0.1206	0.6521	0.152
Mof_O 	O 	0.3175	0.0632	0.4908	-0.204
Mof_C 	C 	0.3896	0.0737	0.4375	0.281
Mof_H 	H 	0.4097	0.0609	0.4436	-0.074
Mof_C 	C 	0.3914	0.087	0.4128	0.105
Mof_H 	H 	0.4122	0.083	0.4021	0.002
Mof_C 	C 	0.3338	0.1136	0.4203	-0.093
Mof_H 	H 	0.3152	0.1283	0.4149	0.048
Mof_C 	C 	0.3323	0.0994	0.4447	0.092
Mof_H 	H 	0.312	0.1041	0.4557	-0.011
Mof_N 	N 	0.3097	0.0486	0.5152	-0.101
Mof_C 	C 	0.2758	0.053	0.5208	-0.016
Mof_H 	H 	0.2606	0.0644	0.5085	0.043
Mof_C 	C 	0.2583	0.0419	0.5446	-0.045
Mof_C 	C 	0.278	0.0236	0.5643	0.116
Mof_C 	C 	0.2568	0.0117	0.5857	-0.181
Mof_C 	C 	0.2186	0.0187	0.587	0.065
Mof_H 	H 	0.2048	0.0101	0.601	-0.012
Mof_C 	C 	0.2003	0.038	0.5685	-0.076
Mof_C 	C 	0.2205	0.0486	0.5475	0.007
Mof_H 	H 	0.208	0.0609	0.5344	0.016
Mof_C 	C 	0.2736	0.9939	0.607	0.214
Mof_H 	H 	0.2572	0.9863	0.62	-0.04
Mof_N 	N 	0.3079	0.9872	0.6102	-0.108
Mof_O 	O 	0.3164	0.969	0.6321	-0.34
Mof_O 	O 	0.3134	0.0189	0.5634	-0.275
Mof_C 	C 	0.1593	0.0465	0.5727	0.118
Mof_C 	C 	0.1415	0.0631	0.5496	-0.52
Mof_H 	H 	0.1447	0.0506	0.5336	0.164
Mof_H 	H 	0.1533	0.0836	0.5474	0.222
Mof_H 	H 	0.1148	0.0659	0.5526	0.155
Mof_C 	C 	0.1372	0.016	0.576	-0.462
Mof_H 	H 	0.1478	0.0042	0.591	0.141
Mof_H 	H 	0.1388	0.0033	0.56	0.148
Mof_H 	H 	0.111	0.0209	0.5793	0.135
Mof_C 	C 	0.1561	0.0638	0.5989	-0.149
Mof_H 	H 	0.1683	0.0515	0.6129	-0.019
Mof_H 	H 	0.1296	0.0666	0.6028	0.034
Mof_H 	H 	0.1682	0.0843	0.5977	0.143
Mof_C 	C 	0.4156	0.8503	0.4991	-0.348
Mof_H 	H 	0.4174	0.8479	0.5183	0.093
Mof_H 	H 	0.4346	0.8651	0.4934	0.104
Mof_H 	H 	0.4195	0.83	0.4907	0.113
Mof_C 	C 	0.3482	0.8382	0.499	-0.193
Mof_H 	H 	0.3486	0.8362	0.5183	0.041
Mof_H 	H 	0.3549	0.8181	0.4912	0.055
Mof_H 	H 	0.3231	0.8443	0.4928	0.083
Mof_C 	C 	0.3754	0.866	0.4614	-0.176
Mof_H 	H 	0.3934	0.882	0.4563	0.019
Mof_H 	H 	0.3503	0.872	0.4552	0.049
Mof_H 	H 	0.3821	0.8459	0.4536	0.049
Mof_C 	C 	0.8	0.0202	0.8291	-0.363
Mof_H 	H 	0.8079	0.0417	0.8257	0.079
Mof_H 	H 	0.8216	0.0062	0.8282	0.099
Mof_H 	H 	0.7896	0.0189	0.8467	0.082
Mof_C 	C 	0.7598	0.9771	0.8152	-0.169
Mof_H 	H 	0.7477	0.9769	0.8323	0.112
Mof_H 	H 	0.7826	0.9643	0.8164	0.054
Mof_H 	H 	0.7428	0.9684	0.8017	0.03
Mof_C 	C 	0.7888	0.0117	0.7817	-0.032
Mof_H 	H 	0.7949	0.0335	0.7777	0.159
Mof_H 	H 	0.772	0.0033	0.7679	0.001
Mof_H 	H 	0.8118	0.9992	0.7826	-0.013
Mof_C 	C 	0.5442	0.2101	0.9283	-0.342
Mof_H 	H 	0.5657	0.2213	0.9213	0.092
Mof_H 	H 	0.5391	0.2179	0.946	0.107
Mof_H 	H 	0.5223	0.2137	0.9167	0.158
Mof_C 	C 	0.5199	0.1567	0.9403	-0.26
Mof_H 	H 	0.5262	0.1344	0.9409	0.167
Mof_H 	H 	0.4978	0.1598	0.9288	0.078
Mof_H 	H 	0.5147	0.164	0.9581	0.061
Mof_C 	C 	0.5843	0.17	0.9505	-0.116
Mof_H 	H 	0.5903	0.1477	0.9517	-0.087
Mof_H 	H 	0.5761	0.1775	0.9677	0.049
Mof_H 	H 	0.6066	0.1817	0.9455	0.026
Mof_C 	C 	0.5715	0.1399	0.7004	0.045
Mof_C 	C 	0.5714	0.1377	0.6703	-0.66
Mof_C 	C 	0.583	0.1683	0.658	0.378
Mof_H 	H 	0.6078	0.1743	0.6649	-0.032
Mof_H 	H 	0.5649	0.1846	0.6623	-0.066
Mof_H 	H 	0.5838	0.1659	0.6388	-0.096
Mof_C 	C 	0.5331	0.126	0.661	0.629
Mof_H 	H 	0.5276	0.1062	0.6697	1.017
Mof_H 	H 	0.533	0.1228	0.6419	-0.083
Mof_H 	H 	0.5141	0.1415	0.6653	-0.279
Mof_C 	C 	0.6001	0.1142	0.6599	0.297
Mof_H 	H 	0.5949	0.0934	0.6669	-0.046
Mof_H 	H 	0.6253	0.1207	0.6656	-0.058
Mof_H 	H 	0.5984	0.1137	0.6406	-0.053
_end
