data_functionalizedCrystal
_audit_creation_method	'EQeq! by Chris Wilmer'
_symmetry_space_group_name_H-M	'P1'
_symmetry_Int_Tables_number	1
_symmetry_cell_setting	triclinic
loop_
_symmetry_equiv_pos_as_xyz
  x,y,z
_cell_length_a	21.983
_cell_length_b	21.983
_cell_length_c	21.983
_cell_angle_alpha	90
_cell_angle_beta	90
_cell_angle_gamma	90
loop_
_atom_site_label
_atom_site_type_symbol
_atom_site_fract_x
_atom_site_fract_y
_atom_site_fract_z
_atom_site_charge
Mof_C 	C 	0.55777	0.00058	0.62807	0
Mof_C 	C 	0.50199	0.0001	0.65941	-0.045
Mof_C 	C 	0.44609	0.99969	0.62843	-0.004
Mof_C 	C 	0.44554	2e-05	0.56392	0.01
Mof_C 	C 	0.50138	0.00024	0.53124	-0.006
Mof_C 	C 	0.55764	0.0004	0.56337	0.007
Mof_C 	C 	0.61217	0.00036	0.52984	-0.038
Mof_C 	C 	0.61174	8e-05	0.4664	-0.039
Mof_C 	C 	0.55675	6e-05	0.43351	0.004
Mof_C 	C 	0.5009	0.00029	0.46622	-0.002
Mof_C 	C 	0.39055	0.00012	0.5312	-0.039
Mof_C 	C 	0.39007	0.00048	0.46777	-0.035
Mof_C 	C 	0.44459	0.00053	0.43417	0.005
Mof_C 	C 	0.44432	0.0008	0.36949	0.005
Mof_C 	C 	0.50004	0.00031	0.33802	-0.052
Mof_C 	C 	0.5561	0.99981	0.36888	0.005
Mof_H 	H 	0.6559	0.00043	0.55251	0.042
Mof_H 	H 	0.6552	0.99998	0.44323	0.043
Mof_H 	H 	0.34715	1e-05	0.55446	0.044
Mof_H 	H 	0.34631	0.00061	0.44517	0.042
Mof_H 	H 	0.50197	2e-05	0.70879	0.047
Mof_H 	H 	0.49977	0.00031	0.2886	0.047
Mof_C 	C 	0.44224	0.372	0.00067	0.005
Mof_C 	C 	0.49796	0.34065	0.00014	-0.051
Mof_C 	C 	0.55383	0.37161	0.9997	0.005
Mof_C 	C 	0.55443	0.4361	4e-05	0.004
Mof_C 	C 	0.49862	0.46879	0.00031	-0.002
Mof_C 	C 	0.44235	0.43668	0.0005	0.005
Mof_C 	C 	0.38781	0.4702	0.00051	-0.036
Mof_C 	C 	0.38826	0.53363	0.00025	-0.038
Mof_C 	C 	0.44327	0.56649	0.00019	0.009
Mof_C 	C 	0.4991	0.53377	0.00036	-0.005
Mof_C 	C 	0.60944	0.46879	0.0001	-0.034
Mof_C 	C 	0.60994	0.5322	0.00047	-0.038
Mof_C 	C 	0.55542	0.5658	0.00057	0.008
Mof_C 	C 	0.55566	0.63045	0.00085	0.002
Mof_C 	C 	0.5	0.66194	0.00042	-0.047
Mof_C 	C 	0.44397	0.6311	0.99996	-0
Mof_H 	H 	0.34409	0.44753	0.00061	0.041
Mof_H 	H 	0.34481	0.55683	0.00018	0.042
Mof_H 	H 	0.65283	0.4455	0.99995	0.04
Mof_H 	H 	0.6537	0.55481	0.00057	0.043
Mof_H 	H 	0.49798	0.29126	5e-05	0.047
Mof_H 	H 	0.50028	0.71136	0.00042	0.047
Mof_C 	C 	0.00048	0.36959	0.44442	-0.001
Mof_C 	C 	1e-05	0.33807	0.50004	-0.04
Mof_C 	C 	0.99966	0.36893	0.55605	-0.005
Mof_C 	C 	3e-05	0.43351	0.55676	0.012
Mof_C 	C 	0.00025	0.46621	0.50095	-0.006
Mof_C 	C 	0.00036	0.43421	0.44465	0.009
Mof_C 	C 	0.00033	0.46778	0.39012	-0.039
Mof_C 	C 	0.00012	0.53116	0.39062	-0.036
Mof_C 	C 	0.00014	0.56381	0.44564	0.003
Mof_C 	C 	0.00034	0.53115	0.50144	-0.001
Mof_C 	C 	0.00017	0.46633	0.61179	-0.039
Mof_C 	C 	0.00055	0.52973	0.61224	-0.035
Mof_C 	C 	0.00061	0.56323	0.55769	0.004
Mof_C 	C 	0.0009	0.62786	0.55779	0.005
Mof_C 	C 	0.00045	0.65925	0.5021	-0.052
Mof_C 	C 	0.99996	0.62826	0.44626	0.005
Mof_H 	H 	0.00036	0.44519	0.34635	0.042
Mof_H 	H 	2e-05	0.55444	0.34722	0.041
Mof_H 	H 	7e-05	0.44314	0.65524	0.044
Mof_H 	H 	0.0007	0.55239	0.65598	0.042
Mof_H 	H 	0.99991	0.28865	0.49975	0.043
Mof_H 	H 	0.00046	0.70864	0.50209	0.047
Mof_O 	O 	0.84386	0.00176	0.91858	-0.642
Mof_O 	O 	0.15624	0.99799	0.91919	-0.645
Mof_O 	O 	0.99762	0.08141	0.8429	-0.651
Mof_O 	O 	0.00255	0.91781	0.84308	-0.648
Mof_O 	O 	0.00211	0.842	0.91582	-0.631
Mof_O 	O 	0.99789	0.15755	0.91533	-0.633
Mof_O 	O 	0.08411	0.99806	0.84333	-0.628
Mof_O 	O 	0.91623	0.00131	0.84298	-0.625
Mof_Zr	Zr	0.0001	0.99974	0.89258	3.235
Mof_O 	O 	0.05476	0.94418	0.945	-1.274
Mof_O 	O 	0.9454	0.05563	0.94466	-1.273
Mof_C 	C 	0.85993	0.00253	0.86186	0.47
Mof_C 	C 	0.14031	0.99692	0.86246	0.473
Mof_C 	C 	0.99658	0.13817	0.85909	0.477
Mof_C 	C 	0.0034	0.86108	0.85949	0.474
Mof_H 	H 	0.08062	0.08113	0.91908	0.322
Mof_O 	O 	0.05427	0.05557	0.94505	-1.494
Mof_H 	H 	0.91943	0.91855	0.91909	0.318
Mof_O 	O 	0.94576	0.94418	0.94503	-1.508
Mof_O 	O 	0.1562	0.00252	0.08131	-0.642
Mof_O 	O 	0.84373	0.99766	0.08083	-0.639
Mof_O 	O 	0.08401	0.15805	0.00163	-0.636
Mof_O 	O 	0.08454	0.84238	0.99851	-0.634
Mof_O 	O 	0.91576	0.84204	0.00197	-0.627
Mof_O 	O 	0.91554	0.15766	0.99804	-0.636
Mof_O 	O 	0.00205	0.08195	0.15711	-0.649
Mof_O 	O 	0.99759	0.91847	0.15718	-0.646
Mof_O 	O 	0.00159	0.15788	0.08449	-0.629
Mof_O 	O 	0.9982	0.84238	0.08471	-0.627
Mof_O 	O 	0.15597	0.08178	0.00227	-0.639
Mof_O 	O 	0.84387	0.08111	0.99741	-0.641
Mof_O 	O 	0.84393	0.91843	0.00217	-0.635
Mof_O 	O 	0.15616	0.919	0.99805	-0.64
Mof_O 	O 	0.08395	0.00198	0.15703	-0.624
Mof_O 	O 	0.91582	0.99835	0.15674	-0.621
Mof_Zr	Zr	0.10555	0.00025	0.0002	3.238
Mof_Zr	Zr	0.89443	0.99981	0.99983	3.237
Mof_Zr	Zr	0.99986	0.10924	0.99995	3.233
Mof_Zr	Zr	0.0001	0.89074	0.00018	3.233
Mof_Zr	Zr	0.99992	0.00017	0.10752	3.235
Mof_O 	O 	0.9454	0.94421	0.05527	-1.267
Mof_O 	O 	0.05453	0.05605	0.05535	-1.274
Mof_C 	C 	0.14024	0.00335	0.13804	0.469
Mof_C 	C 	0.85962	0.99688	0.13757	0.469
Mof_C 	C 	0.14015	0.13866	0.00293	0.472
Mof_C 	C 	0.14058	0.86209	0.99723	0.473
Mof_C 	C 	0.85963	0.86155	0.00314	0.469
Mof_C 	C 	0.85951	0.138	0.99662	0.474
Mof_C 	C 	0.00289	0.13869	0.14082	0.474
Mof_C 	C 	0.99677	0.86172	0.14093	0.474
Mof_H 	H 	0.9191	0.08109	0.08077	0.318
Mof_O 	O 	0.94553	0.05554	0.05487	-1.506
Mof_H 	H 	0.08073	0.91912	0.08116	0.317
Mof_O 	O 	0.05433	0.9446	0.05514	-1.506
Mof_C 	C 	0.2923	0.00429	0.26465	0.054
Mof_C 	C 	0.23269	0.99587	0.28642	-0.082
Mof_C 	C 	0.1827	0.99639	0.24603	0.041
Mof_C 	C 	0.19158	0.00512	0.1831	-0.128
Mof_C 	C 	0.25167	0.01427	0.16222	0.046
Mof_C 	C 	0.30111	0.01383	0.20236	-0.083
Mof_C 	C 	0.34512	0.00275	0.30487	-0.032
Mof_C 	C 	0.39102	0.00173	0.33592	-0.004
Mof_H 	H 	0.22484	0.98849	0.33449	0.052
Mof_H 	H 	0.13738	0.98917	0.26392	0.033
Mof_H 	H 	0.26092	0.0216	0.1144	0.039
Mof_H 	H 	0.34656	0.02061	0.18452	0.053
Mof_C 	C 	0.70752	0.99602	0.26364	0.057
Mof_C 	C 	0.69885	0.9857	0.20149	-0.083
Mof_C 	C 	0.74834	0.98518	0.1615	0.046
Mof_C 	C 	0.80828	0.99505	0.18246	-0.124
Mof_C 	C 	0.81701	0.0045	0.24528	0.037
Mof_C 	C 	0.76697	0.00509	0.28551	-0.085
Mof_C 	C 	0.65474	0.9977	0.30369	-0.032
Mof_C 	C 	0.60899	0.99882	0.33483	-0.003
Mof_H 	H 	0.65348	0.97839	0.18365	0.054
Mof_H 	H 	0.73927	0.97726	0.11373	0.04
Mof_H 	H 	0.86224	0.01228	0.26317	0.033
Mof_H 	H 	0.77464	0.01307	0.33352	0.052
Mof_C 	C 	0.70889	0.0035	0.73408	0.054
Mof_C 	C 	0.76882	0.99678	0.71265	-0.083
Mof_C 	C 	0.81841	0.99715	0.75348	0.042
Mof_C 	C 	0.80883	0.00406	0.81655	-0.13
Mof_C 	C 	0.74839	0.01139	0.83714	0.046
Mof_C 	C 	0.69934	0.01109	0.79653	-0.083
Mof_C 	C 	0.65653	0.00224	0.6933	-0.033
Mof_C 	C 	0.61092	0.00137	0.66185	-0.002
Mof_H 	H 	0.77724	0.99091	0.66446	0.053
Mof_H 	H 	0.86401	0.99138	0.7358	0.035
Mof_H 	H 	0.73861	0.01722	0.88506	0.039
Mof_H 	H 	0.6536	0.01651	0.81411	0.054
Mof_C 	C 	0.29196	0.99598	0.73596	0.048
Mof_C 	C 	0.23237	0.0043	0.71419	-0.077
Mof_C 	C 	0.1825	0.00377	0.7546	0.052
Mof_C 	C 	0.19155	0.99513	0.8175	-0.139
Mof_C 	C 	0.25163	0.98605	0.83838	0.048
Mof_C 	C 	0.30096	0.98651	0.79821	-0.084
Mof_C 	C 	0.34454	0.99757	0.6957	-0.033
Mof_C 	C 	0.39015	0.99866	0.66442	-0.003
Mof_H 	H 	0.22447	0.01162	0.66612	0.053
Mof_H 	H 	0.13715	0.01092	0.73677	0.035
Mof_H 	H 	0.26092	0.9788	0.88621	0.038
Mof_H 	H 	0.34646	0.9798	0.81596	0.052
Mof_C 	C 	0.29134	0.26599	0.00375	0.049
Mof_C 	C 	0.23155	0.28746	0.9963	-0.078
Mof_C 	C 	0.18194	0.24672	0.99672	0.051
Mof_C 	C 	0.19138	0.18373	0.00442	-0.137
Mof_C 	C 	0.25168	0.16308	0.01246	0.048
Mof_C 	C 	0.30079	0.20361	0.01211	-0.083
Mof_C 	C 	0.34365	0.30672	0.00242	-0.032
Mof_C 	C 	0.38917	0.33821	0.0015	-0.005
Mof_H 	H 	0.22325	0.33559	0.98981	0.053
Mof_H 	H 	0.13643	0.26442	0.99034	0.035
Mof_H 	H 	0.2613	0.1152	0.01889	0.038
Mof_H 	H 	0.34646	0.18605	0.01808	0.053
Mof_C 	C 	0.29284	0.73645	0.99642	0.054
Mof_C 	C 	0.30153	0.79868	0.98655	-0.084
Mof_C 	C 	0.252	0.83862	0.98608	0.047
Mof_C 	C 	0.19208	0.81747	0.99553	-0.132
Mof_C 	C 	0.18338	0.75459	0.00461	0.045
Mof_C 	C 	0.23342	0.71444	0.00516	-0.082
Mof_C 	C 	0.34553	0.6964	0.99798	-0.034
Mof_C 	C 	0.39117	0.66519	0.99902	-0.002
Mof_H 	H 	0.34691	0.8166	0.97954	0.053
Mof_H 	H 	0.26101	0.88645	0.97849	0.038
Mof_H 	H 	0.13816	0.73658	0.0121	0.033
Mof_H 	H 	0.22578	0.66637	0.0128	0.052
Mof_C 	C 	0.70743	0.73535	0.00414	0.059
Mof_C 	C 	0.76699	0.71346	0.9959	-0.086
Mof_C 	C 	0.81698	0.75377	0.99636	0.036
Mof_C 	C 	0.80815	0.81674	0.00485	-0.123
Mof_C 	C 	0.74809	0.83777	0.01376	0.045
Mof_C 	C 	0.69863	0.79768	0.01338	-0.083
Mof_C 	C 	0.6547	0.69514	0.0027	-0.033
Mof_C 	C 	0.60889	0.66404	0.00172	-0.001
Mof_H 	H 	0.7748	0.66535	0.98873	0.052
Mof_H 	H 	0.86228	0.73578	0.98929	0.033
Mof_H 	H 	0.73892	0.88565	0.02086	0.04
Mof_H 	H 	0.65317	0.81558	0.01999	0.054
Mof_C 	C 	0.7077	0.26403	0.99582	0.053
Mof_C 	C 	0.76714	0.28582	0.00486	-0.083
Mof_C 	C 	0.81704	0.24552	0.00428	0.046
Mof_C 	C 	0.80815	0.18271	0.99487	-0.134
Mof_C 	C 	0.74822	0.16178	0.98511	0.048
Mof_C 	C 	0.69883	0.20188	0.98561	-0.084
Mof_C 	C 	0.65518	0.30424	0.99748	-0.032
Mof_C 	C 	0.60966	0.33559	0.99862	-0.004
Mof_H 	H 	0.77491	0.33382	0.01278	0.053
Mof_H 	H 	0.86229	0.26336	0.01202	0.034
Mof_H 	H 	0.73911	0.11401	0.97726	0.038
Mof_H 	H 	0.6534	0.18415	0.97837	0.054
Mof_C 	C 	0.00386	0.26517	0.29254	0.055
Mof_C 	C 	0.99428	0.28685	0.2331	-0.084
Mof_C 	C 	0.99482	0.24649	0.18316	0.044
Mof_C 	C 	0.00472	0.18375	0.19201	-0.132
Mof_C 	C 	0.01504	0.163	0.25194	0.048
Mof_C 	C 	0.01457	0.20311	0.30131	-0.084
Mof_C 	C 	0.00228	0.30524	0.34528	-0.034
Mof_C 	C 	0.0013	0.33614	0.39117	-0
Mof_H 	H 	0.98596	0.33479	0.22537	0.053
Mof_H 	H 	0.98664	0.26422	0.13794	0.033
Mof_H 	H 	0.02331	0.11532	0.2611	0.039
Mof_H 	H 	0.02224	0.18543	0.34669	0.054
Mof_C 	C 	0.99564	0.26407	0.70729	0.05
Mof_C 	C 	0.98384	0.20219	0.69873	-0.085
Mof_C 	C 	0.98326	0.16225	0.74819	0.05
Mof_C 	C 	0.99456	0.18304	0.80791	-0.141
Mof_C 	C 	0.00544	0.24563	0.81655	0.054
Mof_C 	C 	0.00609	0.28581	0.76654	-0.079
Mof_C 	C 	0.99747	0.30395	0.65457	-0.035
Mof_C 	C 	0.99864	0.33496	0.60885	-0.001
Mof_H 	H 	0.97546	0.18453	0.65347	0.053
Mof_H 	H 	0.97418	0.11466	0.73927	0.038
Mof_H 	H 	0.01439	0.26332	0.86163	0.034
Mof_H 	H 	0.01523	0.33364	0.77404	0.053
Mof_C 	C 	0.0043	0.73344	0.70877	0.055
Mof_C 	C 	0.01343	0.79566	0.69926	-0.084
Mof_C 	C 	0.01386	0.83623	0.74827	0.047
Mof_C 	C 	0.0051	0.81577	0.80853	-0.131
Mof_C 	C 	0.99669	0.7529	0.81807	0.043
Mof_C 	C 	0.9962	0.7121	0.76853	-0.084
Mof_C 	C 	0.0028	0.69282	0.65648	-0.033
Mof_C 	C 	0.0018	0.66153	0.61087	-0.003
Mof_H 	H 	0.01992	0.81308	0.6536	0.053
Mof_H 	H 	0.02087	0.88401	0.73857	0.038
Mof_H 	H 	0.98973	0.73538	0.86357	0.033
Mof_H 	H 	0.9891	0.66406	0.77682	0.052
Mof_C 	C 	0.99599	0.73538	0.29229	0.058
Mof_C 	C 	0.00583	0.71376	0.23291	-0.086
Mof_C 	C 	0.00518	0.75411	0.18307	0.039
Mof_C 	C 	0.9949	0.81676	0.19202	-0.127
Mof_C 	C 	0.98426	0.83746	0.25189	0.047
Mof_C 	C 	0.98484	0.79733	0.30118	-0.084
Mof_C 	C 	0.99776	0.6953	0.34482	-0.033
Mof_C 	C 	0.99892	0.66415	0.39042	-0.003
Mof_H 	H 	0.01446	0.66587	0.22518	0.053
Mof_H 	H 	0.01361	0.73649	0.13786	0.033
Mof_H 	H 	0.9757	0.8851	0.26104	0.04
Mof_H 	H 	0.97696	0.81489	0.34657	0.054
_end
