data_functionalizedCrystal
_audit_creation_method	'EQeq! by Chris Wilmer'
_symmetry_space_group_name_H-M	'P1'
_symmetry_Int_Tables_number	1
_symmetry_cell_setting	triclinic
loop_
_symmetry_equiv_pos_as_xyz
  x,y,z
_cell_length_a	8.5525
_cell_length_b	25.287
_cell_length_c	17.827
_cell_angle_alpha	90
_cell_angle_beta	90
_cell_angle_gamma	90
loop_
_atom_site_label
_atom_site_type_symbol
_atom_site_fract_x
_atom_site_fract_y
_atom_site_fract_z
_atom_site_charge
Mof_Gd	Gd	0.16435	0.97638	0.21692	1.951
Mof_Gd	Gd	0.66435	0.02362	0.28308	1.952
Mof_Gd	Gd	0.66435	0.47638	0.78308	1.951
Mof_Gd	Gd	0.16435	0.52362	0.71692	1.951
Mof_Ag	Ag	0.46123	0.2731	0.04865	0.541
Mof_Ag	Ag	0.96123	0.7269	0.45135	0.539
Mof_Ag	Ag	0.96123	0.7731	0.95135	0.537
Mof_Ag	Ag	0.46123	0.2269	0.54865	0.541
Mof_H 	H 	0.3991	0.1404	0.4189	0.036
Mof_H 	H 	0.6834	0.2029	0.1596	0.034
Mof_H 	H 	0.0622	0.0966	0.6433	0.144
Mof_H 	H 	0.246	0.1629	0.6731	-0.021
Mof_H 	H 	0.8824	0.0686	0.004	0.072
Mof_H 	H 	0.9665	0.0455	0.5081	0.076
Mof_H 	H 	0.5574	0.2063	0.8997	-0.015
Mof_H 	H 	0.7207	0.1314	0.8944	0.158
Mof_H 	H 	0.8991	0.8596	0.0811	0.036
Mof_H 	H 	0.1834	0.7971	0.3404	0.035
Mof_H 	H 	0.5622	0.9034	0.8567	0.144
Mof_H 	H 	0.746	0.8371	0.8269	-0.021
Mof_H 	H 	0.3824	0.9314	0.496	0.072
Mof_H 	H 	0.4665	0.9545	0.9919	0.077
Mof_H 	H 	0.0574	0.7937	0.6003	-0.014
Mof_H 	H 	0.2207	0.8686	0.6056	0.158
Mof_H 	H 	0.8991	0.6404	0.5811	0.036
Mof_H 	H 	0.1834	0.7029	0.8404	0.035
Mof_H 	H 	0.5622	0.5966	0.3567	0.144
Mof_H 	H 	0.746	0.6629	0.3269	-0.021
Mof_H 	H 	0.3824	0.5686	0.996	0.072
Mof_H 	H 	0.4665	0.5455	0.4919	0.077
Mof_H 	H 	0.0574	0.7063	0.1003	-0.014
Mof_H 	H 	0.2207	0.6314	0.1056	0.158
Mof_H 	H 	0.3991	0.3596	0.9189	0.036
Mof_H 	H 	0.6834	0.2971	0.6596	0.034
Mof_H 	H 	0.0622	0.4034	0.1433	0.144
Mof_H 	H 	0.246	0.3371	0.1731	-0.021
Mof_H 	H 	0.8824	0.4314	0.504	0.072
Mof_H 	H 	0.9665	0.4545	0.0081	0.077
Mof_H 	H 	0.5574	0.2937	0.3997	-0.015
Mof_H 	H 	0.7207	0.3686	0.3944	0.158
Mof_C 	C 	0.9507	0.0479	0.1452	0.35
Mof_C 	C 	0.865	0.0936	0.1116	-0.049
Mof_C 	C 	0.1053	0.0566	0.4178	-0.053
Mof_C 	C 	0.0098	0.0181	0.3719	0.421
Mof_C 	C 	0.3085	0.0746	0.3149	0.424
Mof_C 	C 	0.24	0.084	0.3906	-0.086
Mof_C 	C 	0.3146	0.1209	0.4366	-0.041
Mof_C 	C 	0.7202	0.1757	0.1292	-0.07
Mof_C 	C 	0.6896	0.1753	0.0526	0.018
Mof_C 	C 	0.3397	0.8626	0.2583	0.355
Mof_C 	C 	0.2319	0.1477	0.6261	0.133
Mof_C 	C 	0.8408	0.0946	0.0351	-0.089
Mof_C 	C 	0.0543	0.0633	0.4905	-0.08
Mof_C 	C 	0.8064	0.1348	0.1588	-0.081
Mof_C 	C 	0.2609	0.1279	0.5091	0.022
Mof_C 	C 	0.1385	0.0975	0.5368	0.098
Mof_C 	C 	0.7514	0.1362	0.0057	0.069
Mof_C 	C 	0.6082	0.1909	0.9403	0.136
Mof_C 	C 	0.4507	0.9521	0.3548	0.349
Mof_C 	C 	0.365	0.9064	0.3884	-0.049
Mof_C 	C 	0.6053	0.9434	0.0822	-0.052
Mof_C 	C 	0.5098	0.9819	0.1281	0.42
Mof_C 	C 	0.8085	0.9254	0.1851	0.425
Mof_C 	C 	0.74	0.916	0.1094	-0.086
Mof_C 	C 	0.8146	0.8791	0.0634	-0.041
Mof_C 	C 	0.2202	0.8243	0.3708	-0.07
Mof_C 	C 	0.1896	0.8247	0.4474	0.018
Mof_C 	C 	0.8397	0.1374	0.2417	0.355
Mof_C 	C 	0.7319	0.8523	0.8739	0.132
Mof_C 	C 	0.3408	0.9054	0.4649	-0.089
Mof_C 	C 	0.5543	0.9367	0.0095	-0.081
Mof_C 	C 	0.3064	0.8652	0.3412	-0.082
Mof_C 	C 	0.7609	0.8721	0.9909	0.021
Mof_C 	C 	0.6385	0.9025	0.9632	0.099
Mof_C 	C 	0.2514	0.8638	0.4943	0.068
Mof_C 	C 	0.1082	0.8091	0.5597	0.136
Mof_C 	C 	0.4507	0.5479	0.8548	0.349
Mof_C 	C 	0.365	0.5936	0.8884	-0.049
Mof_C 	C 	0.6053	0.5566	0.5822	-0.052
Mof_C 	C 	0.5098	0.5181	0.6281	0.42
Mof_C 	C 	0.8085	0.5746	0.6851	0.425
Mof_C 	C 	0.74	0.584	0.6094	-0.086
Mof_C 	C 	0.8146	0.6209	0.5634	-0.041
Mof_C 	C 	0.2202	0.6757	0.8708	-0.07
Mof_C 	C 	0.1896	0.6753	0.9474	0.018
Mof_C 	C 	0.8397	0.3626	0.7417	0.355
Mof_C 	C 	0.7319	0.6477	0.3739	0.132
Mof_C 	C 	0.3408	0.5946	0.9649	-0.089
Mof_C 	C 	0.5543	0.5633	0.5095	-0.08
Mof_C 	C 	0.3064	0.6348	0.8412	-0.082
Mof_C 	C 	0.7609	0.6279	0.4909	0.022
Mof_C 	C 	0.6385	0.5975	0.4632	0.098
Mof_C 	C 	0.2514	0.6362	0.9943	0.069
Mof_C 	C 	0.1082	0.6909	0.0597	0.135
Mof_C 	C 	0.9507	0.4521	0.6452	0.35
Mof_C 	C 	0.865	0.4064	0.6116	-0.049
Mof_C 	C 	0.1053	0.4434	0.9178	-0.052
Mof_C 	C 	0.0098	0.4819	0.8719	0.42
Mof_C 	C 	0.3085	0.4254	0.8149	0.424
Mof_C 	C 	0.24	0.416	0.8906	-0.086
Mof_C 	C 	0.3146	0.3791	0.9366	-0.041
Mof_C 	C 	0.7202	0.3243	0.6292	-0.07
Mof_C 	C 	0.6896	0.3247	0.5526	0.018
Mof_C 	C 	0.3397	0.6374	0.7583	0.355
Mof_C 	C 	0.2319	0.3523	0.1261	0.132
Mof_C 	C 	0.8408	0.4054	0.5351	-0.088
Mof_C 	C 	0.0543	0.4367	0.9905	-0.081
Mof_C 	C 	0.8064	0.3652	0.6588	-0.081
Mof_C 	C 	0.2609	0.3721	0.0091	0.021
Mof_C 	C 	0.1385	0.4025	0.0368	0.098
Mof_C 	C 	0.7514	0.3638	0.5057	0.069
Mof_C 	C 	0.6082	0.3091	0.4403	0.136
Mof_N 	N 	0.1263	0.11028	0.6116	-0.229
Mof_N 	N 	0.3139	0.1608	0.5664	-0.216
Mof_N 	N 	0.5982	0.2089	0.0092	-0.215
Mof_N 	N 	0.6989	0.1483	0.9349	-0.232
Mof_N 	N 	0.6263	0.88972	0.8884	-0.229
Mof_N 	N 	0.8139	0.8392	0.9336	-0.216
Mof_N 	N 	0.0982	0.7911	0.4908	-0.214
Mof_N 	N 	0.1989	0.8517	0.5651	-0.232
Mof_N 	N 	0.6263	0.61028	0.3884	-0.229
Mof_N 	N 	0.8139	0.6608	0.4336	-0.216
Mof_N 	N 	0.0982	0.7089	0.9908	-0.214
Mof_N 	N 	0.1989	0.6483	0.0651	-0.232
Mof_N 	N 	0.1263	0.38972	0.1116	-0.229
Mof_N 	N 	0.3139	0.3392	0.0664	-0.216
Mof_N 	N 	0.5982	0.2911	0.5092	-0.215
Mof_N 	N 	0.6989	0.3517	0.4349	-0.232
Mof_O 	O 	0.0774	0.97937	0.3402	-0.491
Mof_O 	O 	0.9114	0.03151	0.2108	-0.516
Mof_O 	O 	0.0618	0.0266	0.1114	-0.415
Mof_O 	O 	0.8653	0.02476	0.3725	-0.473
Mof_O 	O 	0.2223	0.06118	0.261	-0.475
Mof_O 	O 	0.2467	0.88789	0.2146	-0.438
Mof_O 	O 	0.4467	0.8348	0.2351	-0.279
Mof_O 	O 	0.4541	0.08098	0.3085	-0.472
Mof_O 	O 	0.5774	0.02063	0.1598	-0.491
Mof_O 	O 	0.4114	0.96849	0.2892	-0.516
Mof_O 	O 	0.5618	0.9734	0.3886	-0.415
Mof_O 	O 	0.3653	0.97524	0.1275	-0.473
Mof_O 	O 	0.7223	0.93882	0.239	-0.475
Mof_O 	O 	0.7467	0.11211	0.2854	-0.439
Mof_O 	O 	0.9467	0.1652	0.2649	-0.278
Mof_O 	O 	0.9541	0.91902	0.1915	-0.472
Mof_O 	O 	0.5774	0.47937	0.6598	-0.491
Mof_O 	O 	0.4114	0.53151	0.7892	-0.516
Mof_O 	O 	0.5618	0.5266	0.8886	-0.415
Mof_O 	O 	0.3653	0.52476	0.6275	-0.473
Mof_O 	O 	0.7223	0.56118	0.739	-0.475
Mof_O 	O 	0.7467	0.38789	0.7854	-0.439
Mof_O 	O 	0.9467	0.3348	0.7649	-0.278
Mof_O 	O 	0.9541	0.58098	0.6915	-0.473
Mof_O 	O 	0.0774	0.52063	0.8402	-0.491
Mof_O 	O 	0.9114	0.46849	0.7108	-0.516
Mof_O 	O 	0.0618	0.4734	0.6114	-0.416
Mof_O 	O 	0.8653	0.47524	0.8725	-0.473
Mof_O 	O 	0.2223	0.43882	0.761	-0.475
Mof_O 	O 	0.2467	0.61211	0.7146	-0.438
Mof_O 	O 	0.4467	0.6652	0.7351	-0.279
Mof_O 	O 	0.4541	0.41902	0.8085	-0.472
Mof_Gd	Gd	0.33565	0.52362	0.21692	1.951
Mof_Gd	Gd	0.83565	0.47638	0.28308	1.951
Mof_Gd	Gd	0.83565	0.02362	0.78308	1.95
Mof_Gd	Gd	0.33565	0.97638	0.71692	1.951
Mof_Ag	Ag	0.03877	0.2269	0.04865	0.537
Mof_Ag	Ag	0.53877	0.7731	0.45135	0.541
Mof_Ag	Ag	0.53877	0.7269	0.95135	0.541
Mof_Ag	Ag	0.03877	0.2731	0.54865	0.539
Mof_H 	H 	0.1009	0.3596	0.4189	0.036
Mof_H 	H 	0.8166	0.2971	0.1596	0.035
Mof_H 	H 	0.4378	0.4034	0.6433	0.144
Mof_H 	H 	0.254	0.3371	0.6731	-0.021
Mof_H 	H 	0.6176	0.4314	0.004	0.072
Mof_H 	H 	0.5335	0.4545	0.5081	0.077
Mof_H 	H 	0.9426	0.2937	0.8997	-0.014
Mof_H 	H 	0.7793	0.3686	0.8944	0.158
Mof_H 	H 	0.6009	0.6404	0.0811	0.036
Mof_H 	H 	0.3166	0.7029	0.3404	0.034
Mof_H 	H 	0.9378	0.5966	0.8567	0.144
Mof_H 	H 	0.754	0.6629	0.8269	-0.021
Mof_H 	H 	0.1176	0.5686	0.496	0.072
Mof_H 	H 	0.0335	0.5455	0.9919	0.077
Mof_H 	H 	0.4426	0.7063	0.6003	-0.015
Mof_H 	H 	0.2793	0.6314	0.6056	0.158
Mof_H 	H 	0.6009	0.8596	0.5811	0.036
Mof_H 	H 	0.3166	0.7971	0.8404	0.034
Mof_H 	H 	0.9378	0.9034	0.3567	0.144
Mof_H 	H 	0.754	0.8371	0.3269	-0.021
Mof_H 	H 	0.1176	0.9314	0.996	0.072
Mof_H 	H 	0.0335	0.9545	0.4919	0.076
Mof_H 	H 	0.4426	0.7937	0.1003	-0.015
Mof_H 	H 	0.2793	0.8686	0.1056	0.158
Mof_H 	H 	0.1009	0.1404	0.9189	0.036
Mof_H 	H 	0.8166	0.2029	0.6596	0.035
Mof_H 	H 	0.4378	0.0966	0.1433	0.144
Mof_H 	H 	0.254	0.1629	0.1731	-0.021
Mof_H 	H 	0.6176	0.0686	0.504	0.072
Mof_H 	H 	0.5335	0.0455	0.0081	0.077
Mof_H 	H 	0.9426	0.2063	0.3997	-0.014
Mof_H 	H 	0.7793	0.1314	0.3944	0.158
Mof_C 	C 	0.5493	0.4521	0.1452	0.349
Mof_C 	C 	0.635	0.4064	0.1116	-0.049
Mof_C 	C 	0.3947	0.4434	0.4178	-0.052
Mof_C 	C 	0.4902	0.4819	0.3719	0.42
Mof_C 	C 	0.1915	0.4254	0.3149	0.425
Mof_C 	C 	0.26	0.416	0.3906	-0.086
Mof_C 	C 	0.1854	0.3791	0.4366	-0.041
Mof_C 	C 	0.7798	0.3243	0.1292	-0.07
Mof_C 	C 	0.8104	0.3247	0.0526	0.018
Mof_C 	C 	0.1603	0.6374	0.2583	0.355
Mof_C 	C 	0.2681	0.3523	0.6261	0.132
Mof_C 	C 	0.6592	0.4054	0.0351	-0.089
Mof_C 	C 	0.4457	0.4367	0.4905	-0.08
Mof_C 	C 	0.6936	0.3652	0.1588	-0.082
Mof_C 	C 	0.2391	0.3721	0.5091	0.022
Mof_C 	C 	0.3615	0.4025	0.5368	0.098
Mof_C 	C 	0.7486	0.3638	0.0057	0.069
Mof_C 	C 	0.8918	0.3091	0.9403	0.135
Mof_C 	C 	0.0493	0.5479	0.3548	0.35
Mof_C 	C 	0.135	0.5936	0.3884	-0.049
Mof_C 	C 	0.8947	0.5566	0.0822	-0.052
Mof_C 	C 	0.9902	0.5181	0.1281	0.42
Mof_C 	C 	0.6915	0.5746	0.1851	0.424
Mof_C 	C 	0.76	0.584	0.1094	-0.086
Mof_C 	C 	0.6854	0.6209	0.0634	-0.041
Mof_C 	C 	0.2798	0.6757	0.3708	-0.07
Mof_C 	C 	0.3104	0.6753	0.4474	0.018
Mof_C 	C 	0.6603	0.3626	0.2417	0.355
Mof_C 	C 	0.7681	0.6477	0.8739	0.132
Mof_C 	C 	0.1592	0.5946	0.4649	-0.088
Mof_C 	C 	0.9457	0.5633	0.0095	-0.081
Mof_C 	C 	0.1936	0.6348	0.3412	-0.081
Mof_C 	C 	0.7391	0.6279	0.9909	0.021
Mof_C 	C 	0.8615	0.5975	0.9632	0.098
Mof_C 	C 	0.2486	0.6362	0.4943	0.069
Mof_C 	C 	0.3918	0.6909	0.5597	0.136
Mof_C 	C 	0.0493	0.9521	0.8548	0.35
Mof_C 	C 	0.135	0.9064	0.8884	-0.049
Mof_C 	C 	0.8947	0.9434	0.5822	-0.053
Mof_C 	C 	0.9902	0.9819	0.6281	0.421
Mof_C 	C 	0.6915	0.9254	0.6851	0.424
Mof_C 	C 	0.76	0.916	0.6094	-0.086
Mof_C 	C 	0.6854	0.8791	0.5634	-0.041
Mof_C 	C 	0.2798	0.8243	0.8708	-0.07
Mof_C 	C 	0.3104	0.8247	0.9474	0.018
Mof_C 	C 	0.6603	0.1374	0.7417	0.355
Mof_C 	C 	0.7681	0.8523	0.3739	0.133
Mof_C 	C 	0.1592	0.9054	0.9649	-0.089
Mof_C 	C 	0.9457	0.9367	0.5095	-0.08
Mof_C 	C 	0.1936	0.8652	0.8412	-0.081
Mof_C 	C 	0.7391	0.8721	0.4909	0.022
Mof_C 	C 	0.8615	0.9025	0.4632	0.098
Mof_C 	C 	0.2486	0.8638	0.9943	0.069
Mof_C 	C 	0.3918	0.8091	0.0597	0.136
Mof_C 	C 	0.5493	0.0479	0.6452	0.349
Mof_C 	C 	0.635	0.0936	0.6116	-0.049
Mof_C 	C 	0.3947	0.0566	0.9178	-0.052
Mof_C 	C 	0.4902	0.0181	0.8719	0.42
Mof_C 	C 	0.1915	0.0746	0.8149	0.425
Mof_C 	C 	0.26	0.084	0.8906	-0.086
Mof_C 	C 	0.1854	0.1209	0.9366	-0.041
Mof_C 	C 	0.7798	0.1757	0.6292	-0.07
Mof_C 	C 	0.8104	0.1753	0.5526	0.018
Mof_C 	C 	0.1603	0.8626	0.7583	0.355
Mof_C 	C 	0.2681	0.1477	0.1261	0.132
Mof_C 	C 	0.6592	0.0946	0.5351	-0.089
Mof_C 	C 	0.4457	0.0633	0.9905	-0.081
Mof_C 	C 	0.6936	0.1348	0.6588	-0.082
Mof_C 	C 	0.2391	0.1279	0.0091	0.021
Mof_C 	C 	0.3615	0.0975	0.0368	0.099
Mof_C 	C 	0.7486	0.1362	0.5057	0.068
Mof_C 	C 	0.8918	0.1909	0.4403	0.136
Mof_N 	N 	0.3737	0.38972	0.6116	-0.229
Mof_N 	N 	0.1861	0.3392	0.5664	-0.216
Mof_N 	N 	0.9018	0.2911	0.0092	-0.214
Mof_N 	N 	0.8011	0.3517	0.9349	-0.232
Mof_N 	N 	0.8737	0.61028	0.8884	-0.229
Mof_N 	N 	0.6861	0.6608	0.9336	-0.216
Mof_N 	N 	0.4018	0.7089	0.4908	-0.215
Mof_N 	N 	0.3011	0.6483	0.5651	-0.232
Mof_N 	N 	0.8737	0.88972	0.3884	-0.229
Mof_N 	N 	0.6861	0.8392	0.4336	-0.216
Mof_N 	N 	0.4018	0.7911	0.9908	-0.215
Mof_N 	N 	0.3011	0.8517	0.0651	-0.232
Mof_N 	N 	0.3737	0.11028	0.1116	-0.229
Mof_N 	N 	0.1861	0.1608	0.0664	-0.216
Mof_N 	N 	0.9018	0.2089	0.5092	-0.214
Mof_N 	N 	0.8011	0.1483	0.4349	-0.232
Mof_O 	O 	0.4226	0.52063	0.3402	-0.491
Mof_O 	O 	0.5886	0.46849	0.2108	-0.516
Mof_O 	O 	0.4382	0.4734	0.1114	-0.415
Mof_O 	O 	0.6347	0.47524	0.3725	-0.473
Mof_O 	O 	0.2777	0.43882	0.261	-0.475
Mof_O 	O 	0.2533	0.61211	0.2146	-0.439
Mof_O 	O 	0.0533	0.6652	0.2351	-0.278
Mof_O 	O 	0.0459	0.41902	0.3085	-0.473
Mof_O 	O 	0.9226	0.47937	0.1598	-0.491
Mof_O 	O 	0.0886	0.53151	0.2892	-0.516
Mof_O 	O 	0.9382	0.5266	0.3886	-0.416
Mof_O 	O 	0.1347	0.52476	0.1275	-0.473
Mof_O 	O 	0.7777	0.56118	0.239	-0.475
Mof_O 	O 	0.7533	0.38789	0.2854	-0.438
Mof_O 	O 	0.5533	0.3348	0.2649	-0.279
Mof_O 	O 	0.5459	0.58098	0.1915	-0.472
Mof_O 	O 	0.9226	0.02063	0.6598	-0.491
Mof_O 	O 	0.0886	0.96849	0.7892	-0.516
Mof_O 	O 	0.9382	0.9734	0.8886	-0.415
Mof_O 	O 	0.1347	0.97524	0.6275	-0.473
Mof_O 	O 	0.7777	0.93882	0.739	-0.475
Mof_O 	O 	0.7533	0.11211	0.7854	-0.438
Mof_O 	O 	0.5533	0.1652	0.7649	-0.279
Mof_O 	O 	0.5459	0.91902	0.6915	-0.472
Mof_O 	O 	0.4226	0.97937	0.8402	-0.491
Mof_O 	O 	0.5886	0.03151	0.7108	-0.516
Mof_O 	O 	0.4382	0.0266	0.6114	-0.415
Mof_O 	O 	0.6347	0.02476	0.8725	-0.473
Mof_O 	O 	0.2777	0.06118	0.761	-0.475
Mof_O 	O 	0.2533	0.88789	0.7146	-0.439
Mof_O 	O 	0.0533	0.8348	0.7351	-0.278
Mof_O 	O 	0.0459	0.08098	0.8085	-0.472
_end
