data_functionalizedCrystal
_audit_creation_method	'EQeq! by Chris Wilmer'
_symmetry_space_group_name_H-M	'P1'
_symmetry_Int_Tables_number	1
_symmetry_cell_setting	triclinic
loop_
_symmetry_equiv_pos_as_xyz
  x,y,z
_cell_length_a	35.1511
_cell_length_b	35.1511
_cell_length_c	22.1891
_cell_angle_alpha	90
_cell_angle_beta	90
_cell_angle_gamma	120
loop_
_atom_site_label
_atom_site_type_symbol
_atom_site_fract_x
_atom_site_fract_y
_atom_site_fract_z
_atom_site_charge
Mof_O 	O 	0.52515	0.55366	0.43137	-0.413
Mof_O 	O 	0.51124	0.56719	0.52533	-0.415
Mof_C 	C 	0.52385	0.57827	0.47188	0.373
Mof_C 	C 	0.53901	0.62485	0.45404	-0.149
Mof_C 	C 	0.5396	0.65458	0.4956	0.086
Mof_H 	H 	0.53	0.6454	0.5348	0.009
Mof_C 	C 	0.5543	0.69761	0.47961	-0.177
Mof_H 	H 	0.5544	0.7171	0.5081	0.1
Mof_C 	C 	0.56906	0.7124	0.42115	0.139
Mof_C 	C 	0.56797	0.68246	0.38	-0.18
Mof_H 	H 	0.5773	0.6914	0.3407	0.094
Mof_C 	C 	0.55317	0.63921	0.39628	0.09
Mof_H 	H 	0.5528	0.6196	0.3678	0.014
Mof_C 	C 	0.58794	0.75921	0.40424	-0.097
Mof_C 	C 	0.62601	0.77924	0.37	-0.03
Mof_H 	H 	0.6389	0.7627	0.3589	0.04
Mof_H 	H 	0.4892	0.7222	0.3959	-0.184
Mof_H 	H 	0.4573	0.7509	0.4906	0.396
Mof_O 	O 	0.19182	0.88699	0.7647	-0.413
Mof_O 	O 	0.17791	0.90052	0.85866	-0.415
Mof_C 	C 	0.19052	0.9116	0.80521	0.373
Mof_C 	C 	0.20568	0.95818	0.78737	-0.149
Mof_C 	C 	0.20627	0.98791	0.82893	0.086
Mof_H 	H 	0.19667	0.97873	0.86813	0.009
Mof_C 	C 	0.22097	0.03094	0.81294	-0.177
Mof_H 	H 	0.22107	0.05043	0.84143	0.1
Mof_C 	C 	0.23573	0.04573	0.75448	0.139
Mof_C 	C 	0.23464	0.01579	0.71333	-0.18
Mof_H 	H 	0.24397	0.02473	0.67403	0.094
Mof_C 	C 	0.21984	0.97254	0.72961	0.089
Mof_H 	H 	0.21947	0.95293	0.70113	0.014
Mof_C 	C 	0.25461	0.09254	0.73757	-0.097
Mof_C 	C 	0.29268	0.11257	0.70333	-0.03
Mof_H 	H 	0.30557	0.09603	0.69223	0.04
Mof_H 	H 	0.15587	0.05553	0.72923	-0.184
Mof_H 	H 	0.12397	0.08423	0.82393	0.397
Mof_O 	O 	0.85848	0.22033	0.09804	-0.412
Mof_O 	O 	0.84457	0.23386	0.192	-0.414
Mof_C 	C 	0.85718	0.24494	0.13855	0.374
Mof_C 	C 	0.87234	0.29152	0.12071	-0.148
Mof_C 	C 	0.87293	0.32125	0.16227	0.087
Mof_H 	H 	0.86333	0.31207	0.20147	0.01
Mof_C 	C 	0.88763	0.36428	0.14628	-0.176
Mof_H 	H 	0.88773	0.38377	0.17477	0.101
Mof_C 	C 	0.90239	0.37907	0.08782	0.14
Mof_C 	C 	0.9013	0.34913	0.04667	-0.179
Mof_H 	H 	0.91063	0.35807	0.00737	0.095
Mof_C 	C 	0.8865	0.30588	0.06295	0.091
Mof_H 	H 	0.88613	0.28627	0.03447	0.015
Mof_C 	C 	0.92127	0.42588	0.07091	-0.096
Mof_C 	C 	0.95934	0.44591	0.03667	-0.029
Mof_H 	H 	0.97223	0.42937	0.02557	0.041
Mof_H 	H 	0.82253	0.38887	0.06257	-0.183
Mof_H 	H 	0.79063	0.41757	0.15727	0.397
Mof_O 	O 	0.44634	0.97149	0.43137	-0.412
Mof_O 	O 	0.43281	0.94405	0.52533	-0.414
Mof_C 	C 	0.42173	0.94558	0.47188	0.374
Mof_C 	C 	0.37515	0.91416	0.45404	-0.148
Mof_C 	C 	0.34542	0.88502	0.4956	0.087
Mof_H 	H 	0.3546	0.8846	0.5348	0.01
Mof_C 	C 	0.30239	0.85669	0.47961	-0.176
Mof_H 	H 	0.2829	0.8373	0.5081	0.101
Mof_C 	C 	0.2876	0.85666	0.42115	0.14
Mof_C 	C 	0.31754	0.88551	0.38	-0.179
Mof_H 	H 	0.3086	0.8859	0.3407	0.095
Mof_C 	C 	0.36079	0.91396	0.39628	0.091
Mof_H 	H 	0.3804	0.9332	0.3678	0.015
Mof_C 	C 	0.24079	0.82873	0.40424	-0.096
Mof_C 	C 	0.22076	0.84677	0.37	-0.029
Mof_H 	H 	0.2373	0.8762	0.3589	0.041
Mof_H 	H 	0.2778	0.767	0.3959	-0.183
Mof_H 	H 	0.2491	0.7064	0.4906	0.398
Mof_O 	O 	0.11301	0.30482	0.7647	-0.412
Mof_O 	O 	0.09948	0.27738	0.85866	-0.414
Mof_C 	C 	0.0884	0.27891	0.80521	0.374
Mof_C 	C 	0.04182	0.24749	0.78737	-0.148
Mof_C 	C 	0.01209	0.21835	0.82893	0.087
Mof_H 	H 	0.02127	0.21793	0.86813	0.01
Mof_C 	C 	0.96906	0.19002	0.81294	-0.176
Mof_H 	H 	0.94957	0.17063	0.84143	0.101
Mof_C 	C 	0.95427	0.18999	0.75448	0.139
Mof_C 	C 	0.98421	0.21884	0.71333	-0.178
Mof_H 	H 	0.97527	0.21923	0.67403	0.095
Mof_C 	C 	0.02746	0.24729	0.72961	0.09
Mof_H 	H 	0.04707	0.26653	0.70113	0.015
Mof_C 	C 	0.90746	0.16206	0.73757	-0.095
Mof_C 	C 	0.88743	0.1801	0.70333	-0.029
Mof_H 	H 	0.90397	0.20953	0.69223	0.041
Mof_H 	H 	0.94447	0.10033	0.72923	-0.183
Mof_H 	H 	0.91577	0.03973	0.82393	0.397
Mof_O 	O 	0.77967	0.63816	0.09804	-0.412
Mof_O 	O 	0.76614	0.61072	0.192	-0.414
Mof_C 	C 	0.75506	0.61225	0.13855	0.374
Mof_C 	C 	0.70848	0.58083	0.12071	-0.148
Mof_C 	C 	0.67875	0.55169	0.16227	0.087
Mof_H 	H 	0.68793	0.55127	0.20147	0.01
Mof_C 	C 	0.63572	0.52336	0.14628	-0.176
Mof_H 	H 	0.61623	0.50397	0.17477	0.101
Mof_C 	C 	0.62093	0.52333	0.08782	0.14
Mof_C 	C 	0.65087	0.55218	0.04667	-0.179
Mof_H 	H 	0.64193	0.55257	0.00737	0.095
Mof_C 	C 	0.69412	0.58063	0.06295	0.091
Mof_H 	H 	0.71373	0.59987	0.03447	0.015
Mof_C 	C 	0.57412	0.4954	0.07091	-0.096
Mof_C 	C 	0.55409	0.51344	0.03667	-0.029
Mof_H 	H 	0.57063	0.54287	0.02557	0.041
Mof_H 	H 	0.61113	0.43367	0.06257	-0.183
Mof_H 	H 	0.58243	0.37307	0.15727	0.398
Mof_O 	O 	0.02851	0.47485	0.43137	-0.412
Mof_O 	O 	0.05595	0.48876	0.52533	-0.414
Mof_C 	C 	0.05442	0.47615	0.47188	0.374
Mof_C 	C 	0.08584	0.46099	0.45404	-0.148
Mof_C 	C 	0.11498	0.4604	0.4956	0.087
Mof_H 	H 	0.1154	0.47	0.5348	0.01
Mof_C 	C 	0.14331	0.4457	0.47961	-0.176
Mof_H 	H 	0.1627	0.4456	0.5081	0.101
Mof_C 	C 	0.14334	0.43094	0.42115	0.14
Mof_C 	C 	0.11449	0.43203	0.38	-0.179
Mof_H 	H 	0.1141	0.4227	0.3407	0.095
Mof_C 	C 	0.08604	0.44683	0.39628	0.091
Mof_H 	H 	0.0668	0.4472	0.3678	0.015
Mof_C 	C 	0.17127	0.41206	0.40424	-0.096
Mof_C 	C 	0.15323	0.37399	0.37	-0.029
Mof_H 	H 	0.1238	0.3611	0.3589	0.041
Mof_H 	H 	0.233	0.5108	0.3959	-0.183
Mof_H 	H 	0.2936	0.5427	0.4906	0.398
Mof_O 	O 	0.69518	0.80818	0.7647	-0.412
Mof_O 	O 	0.72262	0.82209	0.85866	-0.414
Mof_C 	C 	0.72109	0.80948	0.80521	0.374
Mof_C 	C 	0.75251	0.79432	0.78737	-0.148
Mof_C 	C 	0.78165	0.79373	0.82893	0.087
Mof_H 	H 	0.78207	0.80333	0.86813	0.01
Mof_C 	C 	0.80998	0.77903	0.81294	-0.176
Mof_H 	H 	0.82937	0.77893	0.84143	0.101
Mof_C 	C 	0.81001	0.76427	0.75448	0.14
Mof_C 	C 	0.78116	0.76536	0.71333	-0.179
Mof_H 	H 	0.78077	0.75603	0.67403	0.095
Mof_C 	C 	0.75271	0.78016	0.72961	0.091
Mof_H 	H 	0.73347	0.78053	0.70113	0.015
Mof_C 	C 	0.83794	0.74539	0.73757	-0.096
Mof_C 	C 	0.8199	0.70732	0.70333	-0.029
Mof_H 	H 	0.79047	0.69443	0.69223	0.041
Mof_H 	H 	0.89967	0.84413	0.72923	-0.183
Mof_H 	H 	0.96027	0.87603	0.82393	0.397
Mof_O 	O 	0.36184	0.14152	0.09804	-0.412
Mof_O 	O 	0.38928	0.15543	0.192	-0.414
Mof_C 	C 	0.38775	0.14282	0.13855	0.374
Mof_C 	C 	0.41917	0.12766	0.12071	-0.148
Mof_C 	C 	0.44831	0.12707	0.16227	0.087
Mof_H 	H 	0.44873	0.13667	0.20147	0.01
Mof_C 	C 	0.47664	0.11237	0.14628	-0.176
Mof_H 	H 	0.49603	0.11227	0.17477	0.101
Mof_C 	C 	0.47667	0.09761	0.08782	0.14
Mof_C 	C 	0.44782	0.0987	0.04667	-0.179
Mof_H 	H 	0.44743	0.08937	0.00737	0.095
Mof_C 	C 	0.41937	0.1135	0.06295	0.091
Mof_H 	H 	0.40013	0.11387	0.03447	0.015
Mof_C 	C 	0.5046	0.07873	0.07091	-0.096
Mof_C 	C 	0.48656	0.04066	0.03667	-0.029
Mof_H 	H 	0.45713	0.02777	0.02557	0.041
Mof_H 	H 	0.56633	0.17747	0.06257	-0.183
Mof_H 	H 	0.62693	0.20937	0.15727	0.398
Mof_O 	O 	0.55366	0.52515	0.56863	-0.412
Mof_O 	O 	0.56719	0.51124	0.47467	-0.414
Mof_C 	C 	0.57827	0.52385	0.52812	0.374
Mof_C 	C 	0.62485	0.53901	0.54596	-0.148
Mof_C 	C 	0.65458	0.5396	0.5044	0.087
Mof_H 	H 	0.6454	0.53	0.4652	0.01
Mof_C 	C 	0.69761	0.5543	0.52039	-0.176
Mof_H 	H 	0.7171	0.5544	0.4919	0.101
Mof_C 	C 	0.7124	0.56906	0.57885	0.14
Mof_C 	C 	0.68246	0.56797	0.62	-0.179
Mof_H 	H 	0.6914	0.5773	0.6593	0.095
Mof_C 	C 	0.63921	0.55317	0.60372	0.091
Mof_H 	H 	0.6196	0.5528	0.6322	0.015
Mof_C 	C 	0.75921	0.58794	0.59576	-0.096
Mof_C 	C 	0.77924	0.62601	0.63	-0.029
Mof_H 	H 	0.7627	0.6389	0.6411	0.041
Mof_H 	H 	0.7222	0.4892	0.6041	-0.183
Mof_H 	H 	0.7509	0.4573	0.5094	0.397
Mof_O 	O 	0.22033	0.85848	0.90196	-0.412
Mof_O 	O 	0.23386	0.84457	0.808	-0.414
Mof_C 	C 	0.24494	0.85718	0.86145	0.374
Mof_C 	C 	0.29152	0.87234	0.87929	-0.148
Mof_C 	C 	0.32125	0.87293	0.83773	0.087
Mof_H 	H 	0.31207	0.86333	0.79853	0.01
Mof_C 	C 	0.36428	0.88763	0.85372	-0.176
Mof_H 	H 	0.38377	0.88773	0.82523	0.101
Mof_C 	C 	0.37907	0.90239	0.91218	0.14
Mof_C 	C 	0.34913	0.9013	0.95333	-0.179
Mof_H 	H 	0.35807	0.91063	0.99263	0.095
Mof_C 	C 	0.30588	0.8865	0.93705	0.091
Mof_H 	H 	0.28627	0.88613	0.96553	0.015
Mof_C 	C 	0.42588	0.92127	0.92909	-0.096
Mof_C 	C 	0.44591	0.95934	0.96333	-0.029
Mof_H 	H 	0.42937	0.97223	0.97443	0.041
Mof_H 	H 	0.38887	0.82253	0.93743	-0.183
Mof_H 	H 	0.41757	0.79063	0.84273	0.397
Mof_O 	O 	0.88699	0.19182	0.2353	-0.412
Mof_O 	O 	0.90052	0.17791	0.14134	-0.414
Mof_C 	C 	0.9116	0.19052	0.19479	0.374
Mof_C 	C 	0.95818	0.20568	0.21263	-0.148
Mof_C 	C 	0.98791	0.20627	0.17107	0.087
Mof_H 	H 	0.97873	0.19667	0.13187	0.01
Mof_C 	C 	0.03094	0.22097	0.18706	-0.176
Mof_H 	H 	0.05043	0.22107	0.15857	0.101
Mof_C 	C 	0.04573	0.23573	0.24552	0.14
Mof_C 	C 	0.01579	0.23464	0.28667	-0.179
Mof_H 	H 	0.02473	0.24397	0.32597	0.095
Mof_C 	C 	0.97254	0.21984	0.27039	0.09
Mof_H 	H 	0.95293	0.21947	0.29887	0.015
Mof_C 	C 	0.09254	0.25461	0.26243	-0.096
Mof_C 	C 	0.11257	0.29268	0.29667	-0.029
Mof_H 	H 	0.09603	0.30557	0.30777	0.041
Mof_H 	H 	0.05553	0.15587	0.27077	-0.183
Mof_H 	H 	0.08423	0.12397	0.17607	0.398
Mof_O 	O 	0.97149	0.44634	0.56863	-0.412
Mof_O 	O 	0.94405	0.43281	0.47467	-0.414
Mof_C 	C 	0.94558	0.42173	0.52812	0.374
Mof_C 	C 	0.91416	0.37515	0.54596	-0.148
Mof_C 	C 	0.88502	0.34542	0.5044	0.087
Mof_H 	H 	0.8846	0.3546	0.4652	0.01
Mof_C 	C 	0.85669	0.30239	0.52039	-0.176
Mof_H 	H 	0.8373	0.2829	0.4919	0.101
Mof_C 	C 	0.85666	0.2876	0.57885	0.14
Mof_C 	C 	0.88551	0.31754	0.62	-0.179
Mof_H 	H 	0.8859	0.3086	0.6593	0.095
Mof_C 	C 	0.91396	0.36079	0.60372	0.091
Mof_H 	H 	0.9332	0.3804	0.6322	0.015
Mof_C 	C 	0.82873	0.24079	0.59576	-0.096
Mof_C 	C 	0.84677	0.22076	0.63	-0.029
Mof_H 	H 	0.8762	0.2373	0.6411	0.041
Mof_H 	H 	0.767	0.2778	0.6041	-0.183
Mof_H 	H 	0.7064	0.2491	0.5094	0.398
Mof_O 	O 	0.63816	0.77967	0.90196	-0.412
Mof_O 	O 	0.61072	0.76614	0.808	-0.414
Mof_C 	C 	0.61225	0.75506	0.86145	0.374
Mof_C 	C 	0.58083	0.70848	0.87929	-0.148
Mof_C 	C 	0.55169	0.67875	0.83773	0.087
Mof_H 	H 	0.55127	0.68793	0.79853	0.01
Mof_C 	C 	0.52336	0.63572	0.85372	-0.176
Mof_H 	H 	0.50397	0.61623	0.82523	0.101
Mof_C 	C 	0.52333	0.62093	0.91218	0.14
Mof_C 	C 	0.55218	0.65087	0.95333	-0.179
Mof_H 	H 	0.55257	0.64193	0.99263	0.095
Mof_C 	C 	0.58063	0.69412	0.93705	0.091
Mof_H 	H 	0.59987	0.71373	0.96553	0.015
Mof_C 	C 	0.4954	0.57412	0.92909	-0.096
Mof_C 	C 	0.51344	0.55409	0.96333	-0.029
Mof_H 	H 	0.54287	0.57063	0.97443	0.041
Mof_H 	H 	0.43367	0.61113	0.93743	-0.183
Mof_H 	H 	0.37307	0.58243	0.84273	0.398
Mof_O 	O 	0.30482	0.11301	0.2353	-0.412
Mof_O 	O 	0.27738	0.09948	0.14134	-0.414
Mof_C 	C 	0.27891	0.0884	0.19479	0.374
Mof_C 	C 	0.24749	0.04182	0.21263	-0.148
Mof_C 	C 	0.21835	0.01209	0.17107	0.087
Mof_H 	H 	0.21793	0.02127	0.13187	0.01
Mof_C 	C 	0.19002	0.96906	0.18706	-0.176
Mof_H 	H 	0.17063	0.94957	0.15857	0.101
Mof_C 	C 	0.18999	0.95427	0.24552	0.139
Mof_C 	C 	0.21884	0.98421	0.28667	-0.178
Mof_H 	H 	0.21923	0.97527	0.32597	0.095
Mof_C 	C 	0.24729	0.02746	0.27039	0.09
Mof_H 	H 	0.26653	0.04707	0.29887	0.015
Mof_C 	C 	0.16206	0.90746	0.26243	-0.095
Mof_C 	C 	0.1801	0.88743	0.29667	-0.029
Mof_H 	H 	0.20953	0.90397	0.30777	0.041
Mof_H 	H 	0.10033	0.94447	0.27077	-0.183
Mof_H 	H 	0.03973	0.91577	0.17607	0.397
Mof_O 	O 	0.47485	0.02851	0.56863	-0.412
Mof_O 	O 	0.48876	0.05595	0.47467	-0.414
Mof_C 	C 	0.47615	0.05442	0.52812	0.374
Mof_C 	C 	0.46099	0.08584	0.54596	-0.148
Mof_C 	C 	0.4604	0.11498	0.5044	0.087
Mof_H 	H 	0.47	0.1154	0.4652	0.01
Mof_C 	C 	0.4457	0.14331	0.52039	-0.176
Mof_H 	H 	0.4456	0.1627	0.4919	0.101
Mof_C 	C 	0.43094	0.14334	0.57885	0.14
Mof_C 	C 	0.43203	0.11449	0.62	-0.179
Mof_H 	H 	0.4227	0.1141	0.6593	0.095
Mof_C 	C 	0.44683	0.08604	0.60372	0.091
Mof_H 	H 	0.4472	0.0668	0.6322	0.015
Mof_C 	C 	0.41206	0.17127	0.59576	-0.096
Mof_C 	C 	0.37399	0.15323	0.63	-0.029
Mof_H 	H 	0.3611	0.1238	0.6411	0.041
Mof_H 	H 	0.5108	0.233	0.6041	-0.183
Mof_H 	H 	0.5427	0.2936	0.5094	0.398
Mof_O 	O 	0.14152	0.36184	0.90196	-0.412
Mof_O 	O 	0.15543	0.38928	0.808	-0.414
Mof_C 	C 	0.14282	0.38775	0.86145	0.374
Mof_C 	C 	0.12766	0.41917	0.87929	-0.148
Mof_C 	C 	0.12707	0.44831	0.83773	0.087
Mof_H 	H 	0.13667	0.44873	0.79853	0.01
Mof_C 	C 	0.11237	0.47664	0.85372	-0.176
Mof_H 	H 	0.11227	0.49603	0.82523	0.101
Mof_C 	C 	0.09761	0.47667	0.91218	0.14
Mof_C 	C 	0.0987	0.44782	0.95333	-0.179
Mof_H 	H 	0.08937	0.44743	0.99263	0.095
Mof_C 	C 	0.1135	0.41937	0.93705	0.091
Mof_H 	H 	0.11387	0.40013	0.96553	0.015
Mof_C 	C 	0.07873	0.5046	0.92909	-0.096
Mof_C 	C 	0.04066	0.48656	0.96333	-0.029
Mof_H 	H 	0.02777	0.45713	0.97443	0.041
Mof_H 	H 	0.17747	0.56633	0.93743	-0.183
Mof_H 	H 	0.20937	0.62693	0.84273	0.398
Mof_O 	O 	0.80818	0.69518	0.2353	-0.412
Mof_O 	O 	0.82209	0.72262	0.14134	-0.414
Mof_C 	C 	0.80948	0.72109	0.19479	0.374
Mof_C 	C 	0.79432	0.75251	0.21263	-0.148
Mof_C 	C 	0.79373	0.78165	0.17107	0.087
Mof_H 	H 	0.80333	0.78207	0.13187	0.01
Mof_C 	C 	0.77903	0.80998	0.18706	-0.176
Mof_H 	H 	0.77893	0.82937	0.15857	0.101
Mof_C 	C 	0.76427	0.81001	0.24552	0.14
Mof_C 	C 	0.76536	0.78116	0.28667	-0.179
Mof_H 	H 	0.75603	0.78077	0.32597	0.095
Mof_C 	C 	0.78016	0.75271	0.27039	0.091
Mof_H 	H 	0.78053	0.73347	0.29887	0.015
Mof_C 	C 	0.74539	0.83794	0.26243	-0.096
Mof_C 	C 	0.70732	0.8199	0.29667	-0.029
Mof_H 	H 	0.69443	0.79047	0.30777	0.041
Mof_H 	H 	0.84413	0.89967	0.27077	-0.183
Mof_H 	H 	0.87603	0.96027	0.17607	0.397
Mof_O 	O 	0.47485	0.44634	0.56863	-0.412
Mof_O 	O 	0.48876	0.43281	0.47467	-0.414
Mof_C 	C 	0.47615	0.42173	0.52812	0.374
Mof_C 	C 	0.46099	0.37515	0.54596	-0.148
Mof_C 	C 	0.4604	0.34542	0.5044	0.087
Mof_H 	H 	0.47	0.3546	0.4652	0.01
Mof_C 	C 	0.4457	0.30239	0.52039	-0.176
Mof_H 	H 	0.4456	0.2829	0.4919	0.101
Mof_C 	C 	0.43094	0.2876	0.57885	0.14
Mof_C 	C 	0.43203	0.31754	0.62	-0.179
Mof_H 	H 	0.4227	0.3086	0.6593	0.095
Mof_C 	C 	0.44683	0.36079	0.60372	0.091
Mof_H 	H 	0.4472	0.3804	0.6322	0.015
Mof_C 	C 	0.41206	0.24079	0.59576	-0.096
Mof_C 	C 	0.37399	0.22076	0.63	-0.029
Mof_H 	H 	0.3611	0.2373	0.6411	0.041
Mof_H 	H 	0.5108	0.2778	0.6041	-0.183
Mof_H 	H 	0.5427	0.2491	0.5094	0.397
Mof_O 	O 	0.14152	0.77967	0.90196	-0.412
Mof_O 	O 	0.15543	0.76614	0.808	-0.414
Mof_C 	C 	0.14282	0.75506	0.86145	0.374
Mof_C 	C 	0.12766	0.70848	0.87929	-0.148
Mof_C 	C 	0.12707	0.67875	0.83773	0.087
Mof_H 	H 	0.13667	0.68793	0.79853	0.01
Mof_C 	C 	0.11237	0.63572	0.85372	-0.176
Mof_H 	H 	0.11227	0.61623	0.82523	0.101
Mof_C 	C 	0.09761	0.62093	0.91218	0.14
Mof_C 	C 	0.0987	0.65087	0.95333	-0.179
Mof_H 	H 	0.08937	0.64193	0.99263	0.095
Mof_C 	C 	0.1135	0.69412	0.93705	0.091
Mof_H 	H 	0.11387	0.71373	0.96553	0.015
Mof_C 	C 	0.07873	0.57412	0.92909	-0.096
Mof_C 	C 	0.04066	0.55409	0.96333	-0.029
Mof_H 	H 	0.02777	0.57063	0.97443	0.041
Mof_H 	H 	0.17747	0.61113	0.93743	-0.183
Mof_H 	H 	0.20937	0.58243	0.84273	0.397
Mof_O 	O 	0.80818	0.11301	0.2353	-0.412
Mof_O 	O 	0.82209	0.09948	0.14134	-0.414
Mof_C 	C 	0.80948	0.0884	0.19479	0.374
Mof_C 	C 	0.79432	0.04182	0.21263	-0.148
Mof_C 	C 	0.79373	0.01209	0.17107	0.087
Mof_H 	H 	0.80333	0.02127	0.13187	0.01
Mof_C 	C 	0.77903	0.96906	0.18706	-0.176
Mof_H 	H 	0.77893	0.94957	0.15857	0.101
Mof_C 	C 	0.76427	0.95427	0.24552	0.14
Mof_C 	C 	0.76536	0.98421	0.28667	-0.179
Mof_H 	H 	0.75603	0.97527	0.32597	0.095
Mof_C 	C 	0.78016	0.02746	0.27039	0.09
Mof_H 	H 	0.78053	0.04707	0.29887	0.015
Mof_C 	C 	0.74539	0.90746	0.26243	-0.096
Mof_C 	C 	0.70732	0.88743	0.29667	-0.029
Mof_H 	H 	0.69443	0.90397	0.30777	0.041
Mof_H 	H 	0.84413	0.94447	0.27077	-0.183
Mof_H 	H 	0.87603	0.91577	0.17607	0.398
Mof_O 	O 	0.55366	0.02851	0.56863	-0.412
Mof_O 	O 	0.56719	0.05595	0.47467	-0.414
Mof_C 	C 	0.57827	0.05442	0.52812	0.374
Mof_C 	C 	0.62485	0.08584	0.54596	-0.148
Mof_C 	C 	0.65458	0.11498	0.5044	0.087
Mof_H 	H 	0.6454	0.1154	0.4652	0.01
Mof_C 	C 	0.69761	0.14331	0.52039	-0.176
Mof_H 	H 	0.7171	0.1627	0.4919	0.101
Mof_C 	C 	0.7124	0.14334	0.57885	0.14
Mof_C 	C 	0.68246	0.11449	0.62	-0.179
Mof_H 	H 	0.6914	0.1141	0.6593	0.095
Mof_C 	C 	0.63921	0.08604	0.60372	0.091
Mof_H 	H 	0.6196	0.0668	0.6322	0.015
Mof_C 	C 	0.75921	0.17127	0.59576	-0.096
Mof_C 	C 	0.77924	0.15323	0.63	-0.029
Mof_H 	H 	0.7627	0.1238	0.6411	0.041
Mof_H 	H 	0.7222	0.233	0.6041	-0.183
Mof_H 	H 	0.7509	0.2936	0.5094	0.398
Mof_O 	O 	0.22033	0.36184	0.90196	-0.412
Mof_O 	O 	0.23386	0.38928	0.808	-0.414
Mof_C 	C 	0.24494	0.38775	0.86145	0.374
Mof_C 	C 	0.29152	0.41917	0.87929	-0.148
Mof_C 	C 	0.32125	0.44831	0.83773	0.087
Mof_H 	H 	0.31207	0.44873	0.79853	0.01
Mof_C 	C 	0.36428	0.47664	0.85372	-0.176
Mof_H 	H 	0.38377	0.49603	0.82523	0.101
Mof_C 	C 	0.37907	0.47667	0.91218	0.14
Mof_C 	C 	0.34913	0.44782	0.95333	-0.179
Mof_H 	H 	0.35807	0.44743	0.99263	0.095
Mof_C 	C 	0.30588	0.41937	0.93705	0.091
Mof_H 	H 	0.28627	0.40013	0.96553	0.015
Mof_C 	C 	0.42588	0.5046	0.92909	-0.096
Mof_C 	C 	0.44591	0.48656	0.96333	-0.029
Mof_H 	H 	0.42937	0.45713	0.97443	0.041
Mof_H 	H 	0.38887	0.56633	0.93743	-0.183
Mof_H 	H 	0.41757	0.62693	0.84273	0.398
Mof_O 	O 	0.88699	0.69518	0.2353	-0.412
Mof_O 	O 	0.90052	0.72262	0.14134	-0.414
Mof_C 	C 	0.9116	0.72109	0.19479	0.374
Mof_C 	C 	0.95818	0.75251	0.21263	-0.148
Mof_C 	C 	0.98791	0.78165	0.17107	0.087
Mof_H 	H 	0.97873	0.78207	0.13187	0.01
Mof_C 	C 	0.03094	0.80998	0.18706	-0.176
Mof_H 	H 	0.05043	0.82937	0.15857	0.101
Mof_C 	C 	0.04573	0.81001	0.24552	0.139
Mof_C 	C 	0.01579	0.78116	0.28667	-0.178
Mof_H 	H 	0.02473	0.78077	0.32597	0.095
Mof_C 	C 	0.97254	0.75271	0.27039	0.09
Mof_H 	H 	0.95293	0.73347	0.29887	0.015
Mof_C 	C 	0.09254	0.83794	0.26243	-0.095
Mof_C 	C 	0.11257	0.8199	0.29667	-0.029
Mof_H 	H 	0.09603	0.79047	0.30777	0.041
Mof_H 	H 	0.05553	0.89967	0.27077	-0.183
Mof_H 	H 	0.08423	0.96027	0.17607	0.397
Mof_O 	O 	0.97149	0.52515	0.56863	-0.412
Mof_O 	O 	0.94405	0.51124	0.47467	-0.414
Mof_C 	C 	0.94558	0.52385	0.52812	0.374
Mof_C 	C 	0.91416	0.53901	0.54596	-0.148
Mof_C 	C 	0.88502	0.5396	0.5044	0.087
Mof_H 	H 	0.8846	0.53	0.4652	0.01
Mof_C 	C 	0.85669	0.5543	0.52039	-0.176
Mof_H 	H 	0.8373	0.5544	0.4919	0.101
Mof_C 	C 	0.85666	0.56906	0.57885	0.14
Mof_C 	C 	0.88551	0.56797	0.62	-0.179
Mof_H 	H 	0.8859	0.5773	0.6593	0.095
Mof_C 	C 	0.91396	0.55317	0.60372	0.091
Mof_H 	H 	0.9332	0.5528	0.6322	0.015
Mof_C 	C 	0.82873	0.58794	0.59576	-0.096
Mof_C 	C 	0.84677	0.62601	0.63	-0.029
Mof_H 	H 	0.8762	0.6389	0.6411	0.041
Mof_H 	H 	0.767	0.4892	0.6041	-0.183
Mof_H 	H 	0.7064	0.4573	0.5094	0.398
Mof_O 	O 	0.63816	0.85848	0.90196	-0.412
Mof_O 	O 	0.61072	0.84457	0.808	-0.414
Mof_C 	C 	0.61225	0.85718	0.86145	0.374
Mof_C 	C 	0.58083	0.87234	0.87929	-0.148
Mof_C 	C 	0.55169	0.87293	0.83773	0.087
Mof_H 	H 	0.55127	0.86333	0.79853	0.01
Mof_C 	C 	0.52336	0.88763	0.85372	-0.176
Mof_H 	H 	0.50397	0.88773	0.82523	0.101
Mof_C 	C 	0.52333	0.90239	0.91218	0.14
Mof_C 	C 	0.55218	0.9013	0.95333	-0.179
Mof_H 	H 	0.55257	0.91063	0.99263	0.095
Mof_C 	C 	0.58063	0.8865	0.93705	0.091
Mof_H 	H 	0.59987	0.88613	0.96553	0.015
Mof_C 	C 	0.4954	0.92127	0.92909	-0.096
Mof_C 	C 	0.51344	0.95934	0.96333	-0.029
Mof_H 	H 	0.54287	0.97223	0.97443	0.041
Mof_H 	H 	0.43367	0.82253	0.93743	-0.183
Mof_H 	H 	0.37307	0.79063	0.84273	0.398
Mof_O 	O 	0.30482	0.19182	0.2353	-0.412
Mof_O 	O 	0.27738	0.17791	0.14134	-0.414
Mof_C 	C 	0.27891	0.19052	0.19479	0.374
Mof_C 	C 	0.24749	0.20568	0.21263	-0.148
Mof_C 	C 	0.21835	0.20627	0.17107	0.087
Mof_H 	H 	0.21793	0.19667	0.13187	0.01
Mof_C 	C 	0.19002	0.22097	0.18706	-0.176
Mof_H 	H 	0.17063	0.22107	0.15857	0.101
Mof_C 	C 	0.18999	0.23573	0.24552	0.14
Mof_C 	C 	0.21884	0.23464	0.28667	-0.179
Mof_H 	H 	0.21923	0.24397	0.32597	0.095
Mof_C 	C 	0.24729	0.21984	0.27039	0.091
Mof_H 	H 	0.26653	0.21947	0.29887	0.015
Mof_C 	C 	0.16206	0.25461	0.26243	-0.096
Mof_C 	C 	0.1801	0.29268	0.29667	-0.029
Mof_H 	H 	0.20953	0.30557	0.30777	0.041
Mof_H 	H 	0.10033	0.15587	0.27077	-0.183
Mof_H 	H 	0.03973	0.12397	0.17607	0.397
Mof_O 	O 	0.44634	0.47485	0.43137	-0.412
Mof_O 	O 	0.43281	0.48876	0.52533	-0.414
Mof_C 	C 	0.42173	0.47615	0.47188	0.374
Mof_C 	C 	0.37515	0.46099	0.45404	-0.148
Mof_C 	C 	0.34542	0.4604	0.4956	0.087
Mof_H 	H 	0.3546	0.47	0.5348	0.01
Mof_C 	C 	0.30239	0.4457	0.47961	-0.176
Mof_H 	H 	0.2829	0.4456	0.5081	0.101
Mof_C 	C 	0.2876	0.43094	0.42115	0.14
Mof_C 	C 	0.31754	0.43203	0.38	-0.179
Mof_H 	H 	0.3086	0.4227	0.3407	0.095
Mof_C 	C 	0.36079	0.44683	0.39628	0.091
Mof_H 	H 	0.3804	0.4472	0.3678	0.015
Mof_C 	C 	0.24079	0.41206	0.40424	-0.096
Mof_C 	C 	0.22076	0.37399	0.37	-0.029
Mof_H 	H 	0.2373	0.3611	0.3589	0.041
Mof_H 	H 	0.2778	0.5108	0.3959	-0.183
Mof_H 	H 	0.2491	0.5427	0.4906	0.397
Mof_O 	O 	0.11301	0.80818	0.7647	-0.412
Mof_O 	O 	0.09948	0.82209	0.85866	-0.414
Mof_C 	C 	0.0884	0.80948	0.80521	0.374
Mof_C 	C 	0.04182	0.79432	0.78737	-0.148
Mof_C 	C 	0.01209	0.79373	0.82893	0.087
Mof_H 	H 	0.02127	0.80333	0.86813	0.01
Mof_C 	C 	0.96906	0.77903	0.81294	-0.176
Mof_H 	H 	0.94957	0.77893	0.84143	0.101
Mof_C 	C 	0.95427	0.76427	0.75448	0.14
Mof_C 	C 	0.98421	0.76536	0.71333	-0.179
Mof_H 	H 	0.97527	0.75603	0.67403	0.095
Mof_C 	C 	0.02746	0.78016	0.72961	0.09
Mof_H 	H 	0.04707	0.78053	0.70113	0.015
Mof_C 	C 	0.90746	0.74539	0.73757	-0.096
Mof_C 	C 	0.88743	0.70732	0.70333	-0.029
Mof_H 	H 	0.90397	0.69443	0.69223	0.041
Mof_H 	H 	0.94447	0.84413	0.72923	-0.183
Mof_H 	H 	0.91577	0.87603	0.82393	0.398
Mof_O 	O 	0.77967	0.14152	0.09804	-0.412
Mof_O 	O 	0.76614	0.15543	0.192	-0.414
Mof_C 	C 	0.75506	0.14282	0.13855	0.374
Mof_C 	C 	0.70848	0.12766	0.12071	-0.148
Mof_C 	C 	0.67875	0.12707	0.16227	0.087
Mof_H 	H 	0.68793	0.13667	0.20147	0.01
Mof_C 	C 	0.63572	0.11237	0.14628	-0.176
Mof_H 	H 	0.61623	0.11227	0.17477	0.101
Mof_C 	C 	0.62093	0.09761	0.08782	0.14
Mof_C 	C 	0.65087	0.0987	0.04667	-0.179
Mof_H 	H 	0.64193	0.08937	0.00737	0.095
Mof_C 	C 	0.69412	0.1135	0.06295	0.091
Mof_H 	H 	0.71373	0.11387	0.03447	0.015
Mof_C 	C 	0.57412	0.07873	0.07091	-0.096
Mof_C 	C 	0.55409	0.04066	0.03667	-0.029
Mof_H 	H 	0.57063	0.02777	0.02557	0.041
Mof_H 	H 	0.61113	0.17747	0.06257	-0.183
Mof_H 	H 	0.58243	0.20937	0.15727	0.397
Mof_O 	O 	0.02851	0.55366	0.43137	-0.412
Mof_O 	O 	0.05595	0.56719	0.52533	-0.414
Mof_C 	C 	0.05442	0.57827	0.47188	0.374
Mof_C 	C 	0.08584	0.62485	0.45404	-0.148
Mof_C 	C 	0.11498	0.65458	0.4956	0.087
Mof_H 	H 	0.1154	0.6454	0.5348	0.01
Mof_C 	C 	0.14331	0.69761	0.47961	-0.176
Mof_H 	H 	0.1627	0.7171	0.5081	0.101
Mof_C 	C 	0.14334	0.7124	0.42115	0.14
Mof_C 	C 	0.11449	0.68246	0.38	-0.179
Mof_H 	H 	0.1141	0.6914	0.3407	0.095
Mof_C 	C 	0.08604	0.63921	0.39628	0.091
Mof_H 	H 	0.0668	0.6196	0.3678	0.015
Mof_C 	C 	0.17127	0.75921	0.40424	-0.096
Mof_C 	C 	0.15323	0.77924	0.37	-0.029
Mof_H 	H 	0.1238	0.7627	0.3589	0.041
Mof_H 	H 	0.233	0.7222	0.3959	-0.183
Mof_H 	H 	0.2936	0.7509	0.4906	0.398
Mof_O 	O 	0.69518	0.88699	0.7647	-0.412
Mof_O 	O 	0.72262	0.90052	0.85866	-0.414
Mof_C 	C 	0.72109	0.9116	0.80521	0.374
Mof_C 	C 	0.75251	0.95818	0.78737	-0.148
Mof_C 	C 	0.78165	0.98791	0.82893	0.087
Mof_H 	H 	0.78207	0.97873	0.86813	0.01
Mof_C 	C 	0.80998	0.03094	0.81294	-0.176
Mof_H 	H 	0.82937	0.05043	0.84143	0.101
Mof_C 	C 	0.81001	0.04573	0.75448	0.139
Mof_C 	C 	0.78116	0.01579	0.71333	-0.178
Mof_H 	H 	0.78077	0.02473	0.67403	0.095
Mof_C 	C 	0.75271	0.97254	0.72961	0.09
Mof_H 	H 	0.73347	0.95293	0.70113	0.015
Mof_C 	C 	0.83794	0.09254	0.73757	-0.095
Mof_C 	C 	0.8199	0.11257	0.70333	-0.029
Mof_H 	H 	0.79047	0.09603	0.69223	0.041
Mof_H 	H 	0.89967	0.05553	0.72923	-0.183
Mof_H 	H 	0.96027	0.08423	0.82393	0.397
Mof_O 	O 	0.36184	0.22033	0.09804	-0.412
Mof_O 	O 	0.38928	0.23386	0.192	-0.414
Mof_C 	C 	0.38775	0.24494	0.13855	0.374
Mof_C 	C 	0.41917	0.29152	0.12071	-0.148
Mof_C 	C 	0.44831	0.32125	0.16227	0.087
Mof_H 	H 	0.44873	0.31207	0.20147	0.01
Mof_C 	C 	0.47664	0.36428	0.14628	-0.176
Mof_H 	H 	0.49603	0.38377	0.17477	0.101
Mof_C 	C 	0.47667	0.37907	0.08782	0.14
Mof_C 	C 	0.44782	0.34913	0.04667	-0.179
Mof_H 	H 	0.44743	0.35807	0.00737	0.095
Mof_C 	C 	0.41937	0.30588	0.06295	0.091
Mof_H 	H 	0.40013	0.28627	0.03447	0.015
Mof_C 	C 	0.5046	0.42588	0.07091	-0.096
Mof_C 	C 	0.48656	0.44591	0.03667	-0.029
Mof_H 	H 	0.45713	0.42937	0.02557	0.041
Mof_H 	H 	0.56633	0.38887	0.06257	-0.183
Mof_H 	H 	0.62693	0.41757	0.15727	0.398
Mof_O 	O 	0.52515	0.97149	0.43137	-0.412
Mof_O 	O 	0.51124	0.94405	0.52533	-0.414
Mof_C 	C 	0.52385	0.94558	0.47188	0.374
Mof_C 	C 	0.53901	0.91416	0.45404	-0.148
Mof_C 	C 	0.5396	0.88502	0.4956	0.087
Mof_H 	H 	0.53	0.8846	0.5348	0.01
Mof_C 	C 	0.5543	0.85669	0.47961	-0.176
Mof_H 	H 	0.5544	0.8373	0.5081	0.101
Mof_C 	C 	0.56906	0.85666	0.42115	0.14
Mof_C 	C 	0.56797	0.88551	0.38	-0.179
Mof_H 	H 	0.5773	0.8859	0.3407	0.095
Mof_C 	C 	0.55317	0.91396	0.39628	0.091
Mof_H 	H 	0.5528	0.9332	0.3678	0.015
Mof_C 	C 	0.58794	0.82873	0.40424	-0.096
Mof_C 	C 	0.62601	0.84677	0.37	-0.029
Mof_H 	H 	0.6389	0.8762	0.3589	0.041
Mof_H 	H 	0.4892	0.767	0.3959	-0.183
Mof_H 	H 	0.4573	0.7064	0.4906	0.398
Mof_O 	O 	0.19182	0.30482	0.7647	-0.412
Mof_O 	O 	0.17791	0.27738	0.85866	-0.414
Mof_C 	C 	0.19052	0.27891	0.80521	0.374
Mof_C 	C 	0.20568	0.24749	0.78737	-0.148
Mof_C 	C 	0.20627	0.21835	0.82893	0.087
Mof_H 	H 	0.19667	0.21793	0.86813	0.01
Mof_C 	C 	0.22097	0.19002	0.81294	-0.176
Mof_H 	H 	0.22107	0.17063	0.84143	0.101
Mof_C 	C 	0.23573	0.18999	0.75448	0.14
Mof_C 	C 	0.23464	0.21884	0.71333	-0.179
Mof_H 	H 	0.24397	0.21923	0.67403	0.095
Mof_C 	C 	0.21984	0.24729	0.72961	0.091
Mof_H 	H 	0.21947	0.26653	0.70113	0.015
Mof_C 	C 	0.25461	0.16206	0.73757	-0.096
Mof_C 	C 	0.29268	0.1801	0.70333	-0.029
Mof_H 	H 	0.30557	0.20953	0.69223	0.041
Mof_H 	H 	0.15587	0.10033	0.72923	-0.183
Mof_H 	H 	0.12397	0.03973	0.82393	0.397
Mof_O 	O 	0.85848	0.63816	0.09804	-0.412
Mof_O 	O 	0.84457	0.61072	0.192	-0.414
Mof_C 	C 	0.85718	0.61225	0.13855	0.374
Mof_C 	C 	0.87234	0.58083	0.12071	-0.148
Mof_C 	C 	0.87293	0.55169	0.16227	0.087
Mof_H 	H 	0.86333	0.55127	0.20147	0.01
Mof_C 	C 	0.88763	0.52336	0.14628	-0.176
Mof_H 	H 	0.88773	0.50397	0.17477	0.101
Mof_C 	C 	0.90239	0.52333	0.08782	0.14
Mof_C 	C 	0.9013	0.55218	0.04667	-0.179
Mof_H 	H 	0.91063	0.55257	0.00737	0.095
Mof_C 	C 	0.8865	0.58063	0.06295	0.091
Mof_H 	H 	0.88613	0.59987	0.03447	0.015
Mof_C 	C 	0.92127	0.4954	0.07091	-0.096
Mof_C 	C 	0.95934	0.51344	0.03667	-0.029
Mof_H 	H 	0.97223	0.54287	0.02557	0.041
Mof_H 	H 	0.82253	0.43367	0.06257	-0.183
Mof_H 	H 	0.79063	0.37307	0.15727	0.398
Mof_Cu	Cu	0.50796	0.49204	0.44492	0.904
Mof_Cu	Cu	0.17463	0.82537	0.77825	0.904
Mof_Cu	Cu	0.84129	0.15871	0.11159	0.904
Mof_Cu	Cu	0.50796	0.01592	0.44492	0.904
Mof_Cu	Cu	0.17463	0.34925	0.77825	0.904
Mof_Cu	Cu	0.84129	0.68259	0.11159	0.904
Mof_Cu	Cu	0.98408	0.49204	0.44492	0.904
Mof_Cu	Cu	0.65075	0.82537	0.77825	0.904
Mof_Cu	Cu	0.31741	0.15871	0.11159	0.904
Mof_Cu	Cu	0.49204	0.50796	0.55508	0.904
Mof_Cu	Cu	0.15871	0.84129	0.88841	0.904
Mof_Cu	Cu	0.82537	0.17463	0.22175	0.904
Mof_Cu	Cu	0.01592	0.50796	0.55508	0.904
Mof_Cu	Cu	0.68259	0.84129	0.88841	0.904
Mof_Cu	Cu	0.34925	0.17463	0.22175	0.904
Mof_Cu	Cu	0.49204	0.98408	0.55508	0.904
Mof_Cu	Cu	0.15871	0.31741	0.88841	0.904
Mof_Cu	Cu	0.82537	0.65075	0.22175	0.904
Mof_O 	O 	0.5303	0.76515	0.45507	-0.362
Mof_C 	C 	0.64605	0.82302	0.35136	-0.001
Mof_C 	C 	0.56904	0.78452	0.42042	0.183
Mof_C 	C 	0.49082	0.74541	0.4213	0.707
Mof_C 	C 	0.45507	0.72753	0.4658	-1.242
Mof_H 	H 	0.4273	0.71365	0.4452	0.384
Mof_O 	O 	0.19697	0.09848	0.7884	-0.362
Mof_C 	C 	0.31272	0.15636	0.68469	-0.001
Mof_C 	C 	0.23571	0.11785	0.75375	0.183
Mof_C 	C 	0.15749	0.07874	0.75463	0.707
Mof_C 	C 	0.12174	0.06087	0.79913	-1.242
Mof_H 	H 	0.09397	0.04698	0.77853	0.384
Mof_O 	O 	0.86363	0.43182	0.12174	-0.362
Mof_C 	C 	0.97938	0.48969	0.01803	-0.001
Mof_C 	C 	0.90237	0.45119	0.08709	0.183
Mof_C 	C 	0.82415	0.41208	0.08797	0.707
Mof_C 	C 	0.7884	0.3942	0.13247	-1.242
Mof_H 	H 	0.76063	0.38032	0.11187	0.384
Mof_O 	O 	0.23485	0.76515	0.45507	-0.362
Mof_C 	C 	0.17698	0.82302	0.35136	-0.001
Mof_C 	C 	0.21548	0.78452	0.42042	0.183
Mof_C 	C 	0.25459	0.74541	0.4213	0.707
Mof_C 	C 	0.27247	0.72753	0.4658	-1.243
Mof_H 	H 	0.28635	0.71365	0.4452	0.385
Mof_O 	O 	0.90152	0.09848	0.7884	-0.362
Mof_C 	C 	0.84364	0.15636	0.68469	-0.001
Mof_C 	C 	0.88215	0.11785	0.75375	0.183
Mof_C 	C 	0.92126	0.07874	0.75463	0.707
Mof_C 	C 	0.93913	0.06087	0.79913	-1.241
Mof_H 	H 	0.95302	0.04698	0.77853	0.384
Mof_O 	O 	0.56818	0.43182	0.12174	-0.362
Mof_C 	C 	0.51031	0.48969	0.01803	-0.001
Mof_C 	C 	0.54881	0.45119	0.08709	0.183
Mof_C 	C 	0.58792	0.41208	0.08797	0.707
Mof_C 	C 	0.6058	0.3942	0.13247	-1.243
Mof_H 	H 	0.61968	0.38032	0.11187	0.385
Mof_O 	O 	0.23485	0.4697	0.45507	-0.362
Mof_C 	C 	0.17698	0.35395	0.35136	-0.001
Mof_C 	C 	0.21548	0.43096	0.42042	0.183
Mof_C 	C 	0.25459	0.50918	0.4213	0.707
Mof_C 	C 	0.27247	0.54493	0.4658	-1.242
Mof_H 	H 	0.28635	0.5727	0.4452	0.384
Mof_O 	O 	0.90152	0.80303	0.7884	-0.362
Mof_C 	C 	0.84364	0.68728	0.68469	-0.001
Mof_C 	C 	0.88215	0.76429	0.75375	0.183
Mof_C 	C 	0.92126	0.84251	0.75463	0.707
Mof_C 	C 	0.93913	0.87826	0.79913	-1.242
Mof_H 	H 	0.95302	0.90603	0.77853	0.384
Mof_O 	O 	0.56818	0.13637	0.12174	-0.362
Mof_C 	C 	0.51031	0.02062	0.01803	-0.001
Mof_C 	C 	0.54881	0.09763	0.08709	0.183
Mof_C 	C 	0.58792	0.17585	0.08797	0.707
Mof_C 	C 	0.6058	0.2116	0.13247	-1.242
Mof_H 	H 	0.61968	0.23937	0.11187	0.384
Mof_O 	O 	0.76515	0.5303	0.54493	-0.362
Mof_C 	C 	0.82302	0.64605	0.64864	-0.001
Mof_C 	C 	0.78452	0.56904	0.57958	0.183
Mof_C 	C 	0.74541	0.49082	0.5787	0.707
Mof_C 	C 	0.72753	0.45507	0.5342	-1.242
Mof_H 	H 	0.71365	0.4273	0.5548	0.384
Mof_O 	O 	0.43182	0.86363	0.87826	-0.362
Mof_C 	C 	0.48969	0.97938	0.98197	-0.001
Mof_C 	C 	0.45119	0.90237	0.91291	0.183
Mof_C 	C 	0.41208	0.82415	0.91203	0.707
Mof_C 	C 	0.3942	0.7884	0.86753	-1.242
Mof_H 	H 	0.38032	0.76063	0.88813	0.384
Mof_O 	O 	0.09848	0.19697	0.2116	-0.362
Mof_C 	C 	0.15636	0.31272	0.31531	-0.001
Mof_C 	C 	0.11785	0.23571	0.24625	0.183
Mof_C 	C 	0.07874	0.15749	0.24537	0.707
Mof_C 	C 	0.06087	0.12174	0.20087	-1.242
Mof_H 	H 	0.04698	0.09397	0.22147	0.384
Mof_O 	O 	0.76515	0.23485	0.54493	-0.362
Mof_C 	C 	0.82302	0.17698	0.64864	-0.001
Mof_C 	C 	0.78452	0.21548	0.57958	0.183
Mof_C 	C 	0.74541	0.25459	0.5787	0.707
Mof_C 	C 	0.72753	0.27247	0.5342	-1.243
Mof_H 	H 	0.71365	0.28635	0.5548	0.385
Mof_O 	O 	0.43182	0.56818	0.87826	-0.362
Mof_C 	C 	0.48969	0.51031	0.98197	-0.001
Mof_C 	C 	0.45119	0.54881	0.91291	0.183
Mof_C 	C 	0.41208	0.58792	0.91203	0.707
Mof_C 	C 	0.3942	0.6058	0.86753	-1.243
Mof_H 	H 	0.38032	0.61968	0.88813	0.385
Mof_O 	O 	0.09848	0.90152	0.2116	-0.362
Mof_C 	C 	0.15636	0.84364	0.31531	-0.001
Mof_C 	C 	0.11785	0.88215	0.24625	0.183
Mof_C 	C 	0.07874	0.92126	0.24537	0.707
Mof_C 	C 	0.06087	0.93913	0.20087	-1.241
Mof_H 	H 	0.04698	0.95302	0.22147	0.384
Mof_O 	O 	0.4697	0.23485	0.54493	-0.362
Mof_C 	C 	0.35395	0.17698	0.64864	-0.001
Mof_C 	C 	0.43096	0.21548	0.57958	0.183
Mof_C 	C 	0.50918	0.25459	0.5787	0.707
Mof_C 	C 	0.54493	0.27247	0.5342	-1.242
Mof_H 	H 	0.5727	0.28635	0.5548	0.384
Mof_O 	O 	0.13637	0.56818	0.87826	-0.362
Mof_C 	C 	0.02062	0.51031	0.98197	-0.001
Mof_C 	C 	0.09763	0.54881	0.91291	0.183
Mof_C 	C 	0.17585	0.58792	0.91203	0.707
Mof_C 	C 	0.2116	0.6058	0.86753	-1.242
Mof_H 	H 	0.23937	0.61968	0.88813	0.384
Mof_O 	O 	0.80303	0.90152	0.2116	-0.362
Mof_C 	C 	0.68728	0.84364	0.31531	-0.001
Mof_C 	C 	0.76429	0.88215	0.24625	0.183
Mof_C 	C 	0.84251	0.92126	0.24537	0.707
Mof_C 	C 	0.87826	0.93913	0.20087	-1.242
Mof_H 	H 	0.90603	0.95302	0.22147	0.384
_end
