# CIF file generated by openbabel 3.1.0, see https://openbabel.org
data_I
_chemical_name_common 'image0'
_cell_length_a 24.6663
_cell_length_b 24.6663
_cell_length_c 17.6314
_cell_angle_alpha 90
_cell_angle_beta 90
_cell_angle_gamma 90
_space_group_name_H-M_alt 'P 1'
_space_group_name_Hall 'P 1'
loop_
    _symmetry_equiv_pos_as_xyz
    x,y,z
loop_
    _atom_site_label
    _atom_site_type_symbol
    _atom_site_fract_x
    _atom_site_fract_y
    _atom_site_fract_z
    _atom_site_occupancy
    Ni1      Ni       0.25915    0.01862    0.02529    1.000
    O1       O        0.30204    0.86192    0.96500    1.000
    O2       O        0.25859    0.18571    0.03860    1.000
    N1       N        0.18531    0.01434    0.99043    1.000
    N2       N        0.26397    0.94360    0.99867    1.000
    N3       N        0.24342    0.09399    0.03830    1.000
    N4       N        0.35685    0.93279    0.99479    1.000
    H1       H        0.35660    0.96030    0.01540    1.000
    N5       N        0.32947    0.12794    0.02270    1.000
    H2       H        0.33830    0.09670    0.03630    1.000
    C1       C        0.16799    0.95770    0.00346    1.000
    H3       H        0.13380    0.95040    0.97590    1.000
    H4       H        0.16150    0.95170    0.05820    1.000
    C2       C        0.21196    0.91991    0.97563    1.000
    H5       H        0.20750    0.88350    0.99840    1.000
    H6       H        0.21030    0.91640    0.91970    1.000
    C3       C        0.30670    0.91043    0.98614    1.000
    C4       C        0.40658    0.90144    0.98955    1.000
    H7       H        0.40150    0.87330    0.94940    1.000
    C5       C        0.42052    0.87276    0.06298    1.000
    H8       H        0.39060    0.84870    0.07740    1.000
    H9       H        0.42640    0.89970    0.10300    1.000
    H10      H        0.45360    0.85130    0.05600    1.000
    C6       C        0.45128    0.93921    0.96399    1.000
    H11      H        0.44070    0.95680    0.91640    1.000
    H12      H        0.48470    0.91840    0.95610    1.000
    H13      H        0.45750    0.96690    0.00300    1.000
    C7       C        0.15593    0.05267    0.04036    1.000
    H14      H        0.15470    0.03840    0.09280    1.000
    H15      H        0.11820    0.05740    0.02220    1.000
    C8       C        0.18536    0.10655    0.03904    1.000
    H16      H        0.17520    0.12750    0.99330    1.000
    H17      H        0.17600    0.12820    0.08450    1.000
    C9       C        0.27578    0.13759    0.03502    1.000
    C10      C        0.37095    0.16868    0.03261    1.000
    H18      H        0.35510    0.20580    0.02750    1.000
    C11      C        0.40420    0.16530    0.10010    1.000
    H19      H        0.38190    0.17290    0.14490    1.000
    H20      H        0.43360    0.19200    0.09690    1.000
    H21      H        0.41970    0.12880    0.10420    1.000
    C12      C        0.41290    0.15560    0.95990    1.000
    H22      H        0.39260    0.15710    0.91220    1.000
    H23      H        0.42860    0.11940    0.96610    1.000
    H24      H        0.44190    0.18270    0.95890    1.000
    C13      C        0.17893    0.02962    0.90933    1.000
    H25      H        0.19060    0.06720    0.90210    1.000
    H26      H        0.14080    0.02610    0.89460    1.000
    H27      H        0.20120    0.00560    0.87780    1.000
    C14      C        0.37060    0.18430    0.12430    1.000
    C15      C        0.42110    0.15260    0.00810    1.000
    H28      H        0.36040    0.20020    0.00420    1.000
    H29      H        0.33390    0.19530    0.13940    1.000
    H30      H        0.39590    0.21430    0.13350    1.000
    H31      H        0.38170    0.15270    0.15400    1.000
    H32      H        0.41950    0.14390    0.95400    1.000
    H33      H        0.43260    0.12050    0.03660    1.000
    H34      H        0.44720    0.18200    0.01630    1.000
    Ni2      Ni       0.75915    0.51862    0.52529    1.000
    O3       O        0.80204    0.36192    0.46500    1.000
    O4       O        0.75859    0.68571    0.53860    1.000
    N6       N        0.68531    0.51434    0.49043    1.000
    N7       N        0.76397    0.44360    0.49867    1.000
    N8       N        0.74342    0.59399    0.53830    1.000
    N9       N        0.85685    0.43279    0.49479    1.000
    H35      H        0.85660    0.46030    0.51540    1.000
    N10      N        0.82947    0.62794    0.52270    1.000
    H36      H        0.83830    0.59670    0.53630    1.000
    C16      C        0.66799    0.45770    0.50346    1.000
    H37      H        0.63380    0.45040    0.47590    1.000
    H38      H        0.66150    0.45170    0.55820    1.000
    C17      C        0.71196    0.41991    0.47563    1.000
    H39      H        0.70750    0.38350    0.49840    1.000
    H40      H        0.71030    0.41640    0.41970    1.000
    C18      C        0.80670    0.41043    0.48614    1.000
    C19      C        0.90658    0.40144    0.48955    1.000
    H41      H        0.90150    0.37330    0.44940    1.000
    C20      C        0.92052    0.37276    0.56298    1.000
    H42      H        0.89060    0.34870    0.57740    1.000
    H43      H        0.92640    0.39970    0.60300    1.000
    H44      H        0.95360    0.35130    0.55600    1.000
    C21      C        0.95128    0.43921    0.46399    1.000
    H45      H        0.94070    0.45680    0.41640    1.000
    H46      H        0.98470    0.41840    0.45610    1.000
    H47      H        0.95750    0.46690    0.50300    1.000
    C22      C        0.65593    0.55267    0.54036    1.000
    H48      H        0.65470    0.53840    0.59280    1.000
    H49      H        0.61820    0.55740    0.52220    1.000
    C23      C        0.68536    0.60655    0.53904    1.000
    H50      H        0.67520    0.62750    0.49330    1.000
    H51      H        0.67600    0.62820    0.58450    1.000
    C24      C        0.77578    0.63759    0.53502    1.000
    C25      C        0.87095    0.66868    0.53261    1.000
    H52      H        0.85510    0.70580    0.52750    1.000
    C26      C        0.90420    0.66530    0.60010    1.000
    H53      H        0.88190    0.67290    0.64490    1.000
    H54      H        0.93360    0.69200    0.59690    1.000
    H55      H        0.91970    0.62880    0.60420    1.000
    C27      C        0.91290    0.65560    0.45990    1.000
    H56      H        0.89260    0.65710    0.41220    1.000
    H57      H        0.92860    0.61940    0.46610    1.000
    H58      H        0.94190    0.68270    0.45890    1.000
    C28      C        0.67893    0.52962    0.40933    1.000
    H59      H        0.69060    0.56720    0.40210    1.000
    H60      H        0.64080    0.52610    0.39460    1.000
    H61      H        0.70120    0.50560    0.37780    1.000
    C29      C        0.87060    0.68430    0.62430    1.000
    C30      C        0.92110    0.65260    0.50810    1.000
    H62      H        0.86040    0.70020    0.50420    1.000
    H63      H        0.83390    0.69530    0.63940    1.000
    H64      H        0.89590    0.71430    0.63350    1.000
    H65      H        0.88170    0.65270    0.65400    1.000
    H66      H        0.91950    0.64390    0.45400    1.000
    H67      H        0.93260    0.62050    0.53660    1.000
    H68      H        0.94720    0.68200    0.51630    1.000
    Ni3      Ni       0.74085    0.98138    0.02529    1.000
    O5       O        0.69796    0.13808    0.96500    1.000
    O6       O        0.74141    0.81429    0.03860    1.000
    N11      N        0.81469    0.98566    0.99043    1.000
    N12      N        0.73603    0.05640    0.99867    1.000
    N13      N        0.75658    0.90601    0.03830    1.000
    N14      N        0.64315    0.06721    0.99479    1.000
    H69      H        0.64340    0.03970    0.01540    1.000
    N15      N        0.67053    0.87206    0.02270    1.000
    H70      H        0.66170    0.90330    0.03630    1.000
    C31      C        0.83201    0.04230    0.00346    1.000
    H71      H        0.86620    0.04960    0.97590    1.000
    H72      H        0.83850    0.04830    0.05820    1.000
    C32      C        0.78804    0.08009    0.97563    1.000
    H73      H        0.79250    0.11650    0.99840    1.000
    H74      H        0.78970    0.08360    0.91970    1.000
    C33      C        0.69330    0.08957    0.98614    1.000
    C34      C        0.59342    0.09856    0.98955    1.000
    H75      H        0.59850    0.12670    0.94940    1.000
    C35      C        0.57948    0.12724    0.06298    1.000
    H76      H        0.60940    0.15130    0.07740    1.000
    H77      H        0.57360    0.10030    0.10300    1.000
    H78      H        0.54640    0.14870    0.05600    1.000
    C36      C        0.54872    0.06079    0.96399    1.000
    H79      H        0.55930    0.04320    0.91640    1.000
    H80      H        0.51530    0.08160    0.95610    1.000
    H81      H        0.54250    0.03310    0.00300    1.000
    C37      C        0.84407    0.94733    0.04036    1.000
    H82      H        0.84530    0.96160    0.09280    1.000
    H83      H        0.88180    0.94260    0.02220    1.000
    C38      C        0.81464    0.89345    0.03904    1.000
    H84      H        0.82480    0.87250    0.99330    1.000
    H85      H        0.82400    0.87180    0.08450    1.000
    C39      C        0.72422    0.86241    0.03502    1.000
    C40      C        0.62905    0.83132    0.03261    1.000
    H86      H        0.64490    0.79420    0.02750    1.000
    C41      C        0.59580    0.83470    0.10010    1.000
    H87      H        0.61810    0.82710    0.14490    1.000
    H88      H        0.56640    0.80800    0.09690    1.000
    H89      H        0.58030    0.87120    0.10420    1.000
    C42      C        0.58710    0.84440    0.95990    1.000
    H90      H        0.60740    0.84290    0.91220    1.000
    H91      H        0.57140    0.88060    0.96610    1.000
    H92      H        0.55810    0.81730    0.95890    1.000
    C43      C        0.82107    0.97038    0.90933    1.000
    H93      H        0.80940    0.93280    0.90210    1.000
    H94      H        0.85920    0.97390    0.89460    1.000
    H95      H        0.79880    0.99440    0.87780    1.000
    C44      C        0.62940    0.81570    0.12430    1.000
    C45      C        0.57890    0.84740    0.00810    1.000
    H96      H        0.63960    0.79980    0.00420    1.000
    H97      H        0.66610    0.80470    0.13940    1.000
    H98      H        0.60410    0.78570    0.13350    1.000
    H99      H        0.61830    0.84730    0.15400    1.000
    H100     H        0.58050    0.85610    0.95400    1.000
    H101     H        0.56740    0.87950    0.03660    1.000
    H102     H        0.55280    0.81800    0.01630    1.000
    Ni4      Ni       0.24085    0.48138    0.52529    1.000
    O7       O        0.19796    0.63808    0.46500    1.000
    O8       O        0.24141    0.31429    0.53860    1.000
    N16      N        0.31469    0.48566    0.49043    1.000
    N17      N        0.23603    0.55640    0.49867    1.000
    N18      N        0.25658    0.40601    0.53830    1.000
    N19      N        0.14315    0.56721    0.49479    1.000
    H103     H        0.14340    0.53970    0.51540    1.000
    N20      N        0.17053    0.37206    0.52270    1.000
    H104     H        0.16170    0.40330    0.53630    1.000
    C46      C        0.33201    0.54230    0.50346    1.000
    H105     H        0.36620    0.54960    0.47590    1.000
    H106     H        0.33850    0.54830    0.55820    1.000
    C47      C        0.28804    0.58009    0.47563    1.000
    H107     H        0.29250    0.61650    0.49840    1.000
    H108     H        0.28970    0.58360    0.41970    1.000
    C48      C        0.19330    0.58957    0.48614    1.000
    C49      C        0.09342    0.59856    0.48955    1.000
    H109     H        0.09850    0.62670    0.44940    1.000
    C50      C        0.07948    0.62724    0.56298    1.000
    H110     H        0.10940    0.65130    0.57740    1.000
    H111     H        0.07360    0.60030    0.60300    1.000
    H112     H        0.04640    0.64870    0.55600    1.000
    C51      C        0.04872    0.56079    0.46399    1.000
    H113     H        0.05930    0.54320    0.41640    1.000
    H114     H        0.01530    0.58160    0.45610    1.000
    H115     H        0.04250    0.53310    0.50300    1.000
    C52      C        0.34407    0.44733    0.54036    1.000
    H116     H        0.34530    0.46160    0.59280    1.000
    H117     H        0.38180    0.44260    0.52220    1.000
    C53      C        0.31464    0.39345    0.53904    1.000
    H118     H        0.32480    0.37250    0.49330    1.000
    H119     H        0.32400    0.37180    0.58450    1.000
    C54      C        0.22422    0.36241    0.53502    1.000
    C55      C        0.12905    0.33132    0.53261    1.000
    H120     H        0.14490    0.29420    0.52750    1.000
    C56      C        0.09580    0.33470    0.60010    1.000
    H121     H        0.11810    0.32710    0.64490    1.000
    H122     H        0.06640    0.30800    0.59690    1.000
    H123     H        0.08030    0.37120    0.60420    1.000
    C57      C        0.08710    0.34440    0.45990    1.000
    H124     H        0.10740    0.34290    0.41220    1.000
    H125     H        0.07140    0.38060    0.46610    1.000
    H126     H        0.05810    0.31730    0.45890    1.000
    C58      C        0.32107    0.47038    0.40933    1.000
    H127     H        0.30940    0.43280    0.40210    1.000
    H128     H        0.35920    0.47390    0.39460    1.000
    H129     H        0.29880    0.49440    0.37780    1.000
    C59      C        0.12940    0.31570    0.62430    1.000
    C60      C        0.07890    0.34740    0.50810    1.000
    H130     H        0.13960    0.29980    0.50420    1.000
    H131     H        0.16610    0.30470    0.63940    1.000
    H132     H        0.10410    0.28570    0.63350    1.000
    H133     H        0.11830    0.34730    0.65400    1.000
    H134     H        0.08050    0.35610    0.45400    1.000
    H135     H        0.06740    0.37950    0.53660    1.000
    H136     H        0.05280    0.31800    0.51630    1.000
    Ni5      Ni       0.01862    0.74085    0.97471    1.000
    O9       O        0.86192    0.69796    0.03500    1.000
    O10      O        0.18571    0.74141    0.96140    1.000
    N21      N        0.01434    0.81469    0.00957    1.000
    N22      N        0.94360    0.73603    0.00133    1.000
    N23      N        0.09399    0.75658    0.96170    1.000
    N24      N        0.93279    0.64315    0.00521    1.000
    H137     H        0.96030    0.64340    0.98460    1.000
    N25      N        0.12794    0.67053    0.97730    1.000
    H138     H        0.09670    0.66170    0.96370    1.000
    C61      C        0.95770    0.83201    0.99654    1.000
    H139     H        0.95040    0.86620    0.02410    1.000
    H140     H        0.95170    0.83850    0.94180    1.000
    C62      C        0.91991    0.78804    0.02437    1.000
    H141     H        0.88350    0.79250    0.00160    1.000
    H142     H        0.91640    0.78970    0.08030    1.000
    C63      C        0.91043    0.69330    0.01386    1.000
    C64      C        0.90144    0.59342    0.01045    1.000
    H143     H        0.87330    0.59850    0.05060    1.000
    C65      C        0.87276    0.57948    0.93702    1.000
    H144     H        0.84870    0.60940    0.92260    1.000
    H145     H        0.89970    0.57360    0.89700    1.000
    H146     H        0.85130    0.54640    0.94400    1.000
    C66      C        0.93921    0.54872    0.03601    1.000
    H147     H        0.95680    0.55930    0.08360    1.000
    H148     H        0.91840    0.51530    0.04390    1.000
    H149     H        0.96690    0.54250    0.99700    1.000
    C67      C        0.05267    0.84407    0.95964    1.000
    H150     H        0.03840    0.84530    0.90720    1.000
    H151     H        0.05740    0.88180    0.97780    1.000
    C68      C        0.10655    0.81464    0.96096    1.000
    H152     H        0.12750    0.82480    0.00670    1.000
    H153     H        0.12820    0.82400    0.91550    1.000
    C69      C        0.13759    0.72422    0.96498    1.000
    C70      C        0.16868    0.62905    0.96739    1.000
    H154     H        0.20580    0.64490    0.97250    1.000
    C71      C        0.16530    0.59580    0.89990    1.000
    H155     H        0.17290    0.61810    0.85510    1.000
    H156     H        0.19200    0.56640    0.90310    1.000
    H157     H        0.12880    0.58030    0.89580    1.000
    C72      C        0.15560    0.58710    0.04010    1.000
    H158     H        0.15710    0.60740    0.08780    1.000
    H159     H        0.11940    0.57140    0.03390    1.000
    H160     H        0.18270    0.55810    0.04110    1.000
    C73      C        0.02962    0.82107    0.09067    1.000
    H161     H        0.06720    0.80940    0.09790    1.000
    H162     H        0.02610    0.85920    0.10540    1.000
    H163     H        0.00560    0.79880    0.12220    1.000
    C74      C        0.18430    0.62940    0.87570    1.000
    C75      C        0.15260    0.57890    0.99190    1.000
    H164     H        0.20020    0.63960    0.99580    1.000
    H165     H        0.19530    0.66610    0.86060    1.000
    H166     H        0.21430    0.60410    0.86650    1.000
    H167     H        0.15270    0.61830    0.84600    1.000
    H168     H        0.14390    0.58050    0.04600    1.000
    H169     H        0.12050    0.56740    0.96340    1.000
    H170     H        0.18200    0.55280    0.98370    1.000
    Ni6      Ni       0.51862    0.24085    0.47471    1.000
    O11      O        0.36192    0.19796    0.53500    1.000
    O12      O        0.68571    0.24141    0.46140    1.000
    N26      N        0.51434    0.31469    0.50957    1.000
    N27      N        0.44360    0.23603    0.50133    1.000
    N28      N        0.59399    0.25658    0.46170    1.000
    N29      N        0.43279    0.14315    0.50521    1.000
    H171     H        0.46030    0.14340    0.48460    1.000
    N30      N        0.62794    0.17053    0.47730    1.000
    H172     H        0.59670    0.16170    0.46370    1.000
    C76      C        0.45770    0.33201    0.49654    1.000
    H173     H        0.45040    0.36620    0.52410    1.000
    H174     H        0.45170    0.33850    0.44180    1.000
    C77      C        0.41991    0.28804    0.52437    1.000
    H175     H        0.38350    0.29250    0.50160    1.000
    H176     H        0.41640    0.28970    0.58030    1.000
    C78      C        0.41043    0.19330    0.51386    1.000
    C79      C        0.40144    0.09342    0.51045    1.000
    H177     H        0.37330    0.09850    0.55060    1.000
    C80      C        0.37276    0.07948    0.43702    1.000
    H178     H        0.34870    0.10940    0.42260    1.000
    H179     H        0.39970    0.07360    0.39700    1.000
    H180     H        0.35130    0.04640    0.44400    1.000
    C81      C        0.43921    0.04872    0.53601    1.000
    H181     H        0.45680    0.05930    0.58360    1.000
    H182     H        0.41840    0.01530    0.54390    1.000
    H183     H        0.46690    0.04250    0.49700    1.000
    C82      C        0.55267    0.34407    0.45964    1.000
    H184     H        0.53840    0.34530    0.40720    1.000
    H185     H        0.55740    0.38180    0.47780    1.000
    C83      C        0.60655    0.31464    0.46096    1.000
    H186     H        0.62750    0.32480    0.50670    1.000
    H187     H        0.62820    0.32400    0.41550    1.000
    C84      C        0.63759    0.22422    0.46498    1.000
    C85      C        0.66868    0.12905    0.46739    1.000
    H188     H        0.70580    0.14490    0.47250    1.000
    C86      C        0.66530    0.09580    0.39990    1.000
    H189     H        0.67290    0.11810    0.35510    1.000
    H190     H        0.69200    0.06640    0.40310    1.000
    H191     H        0.62880    0.08030    0.39580    1.000
    C87      C        0.65560    0.08710    0.54010    1.000
    H192     H        0.65710    0.10740    0.58780    1.000
    H193     H        0.61940    0.07140    0.53390    1.000
    H194     H        0.68270    0.05810    0.54110    1.000
    C88      C        0.52962    0.32107    0.59067    1.000
    H195     H        0.56720    0.30940    0.59790    1.000
    H196     H        0.52610    0.35920    0.60540    1.000
    H197     H        0.50560    0.29880    0.62220    1.000
    C89      C        0.68430    0.12940    0.37570    1.000
    C90      C        0.65260    0.07890    0.49190    1.000
    H198     H        0.70020    0.13960    0.49580    1.000
    H199     H        0.69530    0.16610    0.36060    1.000
    H200     H        0.71430    0.10410    0.36650    1.000
    H201     H        0.65270    0.11830    0.34600    1.000
    H202     H        0.64390    0.08050    0.54600    1.000
    H203     H        0.62050    0.06740    0.46340    1.000
    H204     H        0.68200    0.05280    0.48370    1.000
    Ni7      Ni       0.98138    0.25915    0.97471    1.000
    O13      O        0.13808    0.30204    0.03500    1.000
    O14      O        0.81429    0.25859    0.96140    1.000
    N31      N        0.98566    0.18531    0.00957    1.000
    N32      N        0.05640    0.26397    0.00133    1.000
    N33      N        0.90601    0.24342    0.96170    1.000
    N34      N        0.06721    0.35685    0.00521    1.000
    H205     H        0.03970    0.35660    0.98460    1.000
    N35      N        0.87206    0.32947    0.97730    1.000
    H206     H        0.90330    0.33830    0.96370    1.000
    C91      C        0.04230    0.16799    0.99654    1.000
    H207     H        0.04960    0.13380    0.02410    1.000
    H208     H        0.04830    0.16150    0.94180    1.000
    C92      C        0.08009    0.21196    0.02437    1.000
    H209     H        0.11650    0.20750    0.00160    1.000
    H210     H        0.08360    0.21030    0.08030    1.000
    C93      C        0.08957    0.30670    0.01386    1.000
    C94      C        0.09856    0.40658    0.01045    1.000
    H211     H        0.12670    0.40150    0.05060    1.000
    C95      C        0.12724    0.42052    0.93702    1.000
    H212     H        0.15130    0.39060    0.92260    1.000
    H213     H        0.10030    0.42640    0.89700    1.000
    H214     H        0.14870    0.45360    0.94400    1.000
    C96      C        0.06079    0.45128    0.03601    1.000
    H215     H        0.04320    0.44070    0.08360    1.000
    H216     H        0.08160    0.48470    0.04390    1.000
    H217     H        0.03310    0.45750    0.99700    1.000
    C97      C        0.94733    0.15593    0.95964    1.000
    H218     H        0.96160    0.15470    0.90720    1.000
    H219     H        0.94260    0.11820    0.97780    1.000
    C98      C        0.89345    0.18536    0.96096    1.000
    H220     H        0.87250    0.17520    0.00670    1.000
    H221     H        0.87180    0.17600    0.91550    1.000
    C99      C        0.86241    0.27578    0.96498    1.000
    C100     C        0.83132    0.37095    0.96739    1.000
    H222     H        0.79420    0.35510    0.97250    1.000
    C101     C        0.83470    0.40420    0.89990    1.000
    H223     H        0.82710    0.38190    0.85510    1.000
    H224     H        0.80800    0.43360    0.90310    1.000
    H225     H        0.87120    0.41970    0.89580    1.000
    C102     C        0.84440    0.41290    0.04010    1.000
    H226     H        0.84290    0.39260    0.08780    1.000
    H227     H        0.88060    0.42860    0.03390    1.000
    H228     H        0.81730    0.44190    0.04110    1.000
    C103     C        0.97038    0.17893    0.09067    1.000
    H229     H        0.93280    0.19060    0.09790    1.000
    H230     H        0.97390    0.14080    0.10540    1.000
    H231     H        0.99440    0.20120    0.12220    1.000
    C104     C        0.81570    0.37060    0.87570    1.000
    C105     C        0.84740    0.42110    0.99190    1.000
    H232     H        0.79980    0.36040    0.99580    1.000
    H233     H        0.80470    0.33390    0.86060    1.000
    H234     H        0.78570    0.39590    0.86650    1.000
    H235     H        0.84730    0.38170    0.84600    1.000
    H236     H        0.85610    0.41950    0.04600    1.000
    H237     H        0.87950    0.43260    0.96340    1.000
    H238     H        0.81800    0.44720    0.98370    1.000
    Ni8      Ni       0.48138    0.75915    0.47471    1.000
    O15      O        0.63808    0.80204    0.53500    1.000
    O16      O        0.31429    0.75859    0.46140    1.000
    N36      N        0.48566    0.68531    0.50957    1.000
    N37      N        0.55640    0.76397    0.50133    1.000
    N38      N        0.40601    0.74342    0.46170    1.000
    N39      N        0.56721    0.85685    0.50521    1.000
    H239     H        0.53970    0.85660    0.48460    1.000
    N40      N        0.37206    0.82947    0.47730    1.000
    H240     H        0.40330    0.83830    0.46370    1.000
    C106     C        0.54230    0.66799    0.49654    1.000
    H241     H        0.54960    0.63380    0.52410    1.000
    H242     H        0.54830    0.66150    0.44180    1.000
    C107     C        0.58009    0.71196    0.52437    1.000
    H243     H        0.61650    0.70750    0.50160    1.000
    H244     H        0.58360    0.71030    0.58030    1.000
    C108     C        0.58957    0.80670    0.51386    1.000
    C109     C        0.59856    0.90658    0.51045    1.000
    H245     H        0.62670    0.90150    0.55060    1.000
    C110     C        0.62724    0.92052    0.43702    1.000
    H246     H        0.65130    0.89060    0.42260    1.000
    H247     H        0.60030    0.92640    0.39700    1.000
    H248     H        0.64870    0.95360    0.44400    1.000
    C111     C        0.56079    0.95128    0.53601    1.000
    H249     H        0.54320    0.94070    0.58360    1.000
    H250     H        0.58160    0.98470    0.54390    1.000
    H251     H        0.53310    0.95750    0.49700    1.000
    C112     C        0.44733    0.65593    0.45964    1.000
    H252     H        0.46160    0.65470    0.40720    1.000
    H253     H        0.44260    0.61820    0.47780    1.000
    C113     C        0.39345    0.68536    0.46096    1.000
    H254     H        0.37250    0.67520    0.50670    1.000
    H255     H        0.37180    0.67600    0.41550    1.000
    C114     C        0.36241    0.77578    0.46498    1.000
    C115     C        0.33132    0.87095    0.46739    1.000
    H256     H        0.29420    0.85510    0.47250    1.000
    C116     C        0.33470    0.90420    0.39990    1.000
    H257     H        0.32710    0.88190    0.35510    1.000
    H258     H        0.30800    0.93360    0.40310    1.000
    H259     H        0.37120    0.91970    0.39580    1.000
    C117     C        0.34440    0.91290    0.54010    1.000
    H260     H        0.34290    0.89260    0.58780    1.000
    H261     H        0.38060    0.92860    0.53390    1.000
    H262     H        0.31730    0.94190    0.54110    1.000
    C118     C        0.47038    0.67893    0.59067    1.000
    H263     H        0.43280    0.69060    0.59790    1.000
    H264     H        0.47390    0.64080    0.60540    1.000
    H265     H        0.49440    0.70120    0.62220    1.000
    C119     C        0.31570    0.87060    0.37570    1.000
    C120     C        0.34740    0.92110    0.49190    1.000
    H266     H        0.29980    0.86040    0.49580    1.000
    H267     H        0.30470    0.83390    0.36060    1.000
    H268     H        0.28570    0.89590    0.36650    1.000
    H269     H        0.34730    0.88170    0.34600    1.000
    H270     H        0.35610    0.91950    0.54600    1.000
    H271     H        0.37950    0.93260    0.46340    1.000
    H272     H        0.31800    0.94720    0.48370    1.000
    Ni9      Ni       0.24085    0.01862    0.72471    1.000
    O17      O        0.19796    0.86192    0.78500    1.000
    O18      O        0.24141    0.18571    0.71140    1.000
    N41      N        0.31469    0.01434    0.75957    1.000
    N42      N        0.23603    0.94360    0.75133    1.000
    N43      N        0.25658    0.09399    0.71170    1.000
    N44      N        0.14315    0.93279    0.75521    1.000
    H273     H        0.14340    0.96030    0.73460    1.000
    N45      N        0.17053    0.12794    0.72730    1.000
    H274     H        0.16170    0.09670    0.71370    1.000
    C121     C        0.33201    0.95770    0.74654    1.000
    H275     H        0.36620    0.95040    0.77410    1.000
    H276     H        0.33850    0.95170    0.69180    1.000
    C122     C        0.28804    0.91991    0.77437    1.000
    H277     H        0.29250    0.88350    0.75160    1.000
    H278     H        0.28970    0.91640    0.83030    1.000
    C123     C        0.19330    0.91043    0.76386    1.000
    C124     C        0.09342    0.90144    0.76045    1.000
    H279     H        0.09850    0.87330    0.80060    1.000
    C125     C        0.07948    0.87276    0.68702    1.000
    H280     H        0.10940    0.84870    0.67260    1.000
    H281     H        0.07360    0.89970    0.64700    1.000
    H282     H        0.04640    0.85130    0.69400    1.000
    C126     C        0.04872    0.93921    0.78601    1.000
    H283     H        0.05930    0.95680    0.83360    1.000
    H284     H        0.01530    0.91840    0.79390    1.000
    H285     H        0.04250    0.96690    0.74700    1.000
    C127     C        0.34407    0.05267    0.70964    1.000
    H286     H        0.34530    0.03840    0.65720    1.000
    H287     H        0.38180    0.05740    0.72780    1.000
    C128     C        0.31464    0.10655    0.71096    1.000
    H288     H        0.32480    0.12750    0.75670    1.000
    H289     H        0.32400    0.12820    0.66550    1.000
    C129     C        0.22422    0.13759    0.71498    1.000
    C130     C        0.12905    0.16868    0.71739    1.000
    H290     H        0.14490    0.20580    0.72250    1.000
    C131     C        0.09580    0.16530    0.64990    1.000
    H291     H        0.11810    0.17290    0.60510    1.000
    H292     H        0.06640    0.19200    0.65310    1.000
    H293     H        0.08030    0.12880    0.64580    1.000
    C132     C        0.08710    0.15560    0.79010    1.000
    H294     H        0.10740    0.15710    0.83780    1.000
    H295     H        0.07140    0.11940    0.78390    1.000
    H296     H        0.05810    0.18270    0.79110    1.000
    C133     C        0.32107    0.02962    0.84067    1.000
    H297     H        0.30940    0.06720    0.84790    1.000
    H298     H        0.35920    0.02610    0.85540    1.000
    H299     H        0.29880    0.00560    0.87220    1.000
    C134     C        0.12940    0.18430    0.62570    1.000
    C135     C        0.07890    0.15260    0.74190    1.000
    H300     H        0.13960    0.20020    0.74580    1.000
    H301     H        0.16610    0.19530    0.61060    1.000
    H302     H        0.10410    0.21430    0.61650    1.000
    H303     H        0.11830    0.15270    0.59600    1.000
    H304     H        0.08050    0.14390    0.79600    1.000
    H305     H        0.06740    0.12050    0.71340    1.000
    H306     H        0.05280    0.18200    0.73370    1.000
    Ni10     Ni       0.74085    0.51862    0.22471    1.000
    O19      O        0.69796    0.36192    0.28500    1.000
    O20      O        0.74141    0.68571    0.21140    1.000
    N46      N        0.81469    0.51434    0.25957    1.000
    N47      N        0.73603    0.44360    0.25133    1.000
    N48      N        0.75658    0.59399    0.21170    1.000
    N49      N        0.64315    0.43279    0.25521    1.000
    H307     H        0.64340    0.46030    0.23460    1.000
    N50      N        0.67053    0.62794    0.22730    1.000
    H308     H        0.66170    0.59670    0.21370    1.000
    C136     C        0.83201    0.45770    0.24654    1.000
    H309     H        0.86620    0.45040    0.27410    1.000
    H310     H        0.83850    0.45170    0.19180    1.000
    C137     C        0.78804    0.41991    0.27437    1.000
    H311     H        0.79250    0.38350    0.25160    1.000
    H312     H        0.78970    0.41640    0.33030    1.000
    C138     C        0.69330    0.41043    0.26386    1.000
    C139     C        0.59342    0.40144    0.26045    1.000
    H313     H        0.59850    0.37330    0.30060    1.000
    C140     C        0.57948    0.37276    0.18702    1.000
    H314     H        0.60940    0.34870    0.17260    1.000
    H315     H        0.57360    0.39970    0.14700    1.000
    H316     H        0.54640    0.35130    0.19400    1.000
    C141     C        0.54872    0.43921    0.28601    1.000
    H317     H        0.55930    0.45680    0.33360    1.000
    H318     H        0.51530    0.41840    0.29390    1.000
    H319     H        0.54250    0.46690    0.24700    1.000
    C142     C        0.84407    0.55267    0.20964    1.000
    H320     H        0.84530    0.53840    0.15720    1.000
    H321     H        0.88180    0.55740    0.22780    1.000
    C143     C        0.81464    0.60655    0.21096    1.000
    H322     H        0.82480    0.62750    0.25670    1.000
    H323     H        0.82400    0.62820    0.16550    1.000
    C144     C        0.72422    0.63759    0.21498    1.000
    C145     C        0.62905    0.66868    0.21739    1.000
    H324     H        0.64490    0.70580    0.22250    1.000
    C146     C        0.59580    0.66530    0.14990    1.000
    H325     H        0.61810    0.67290    0.10510    1.000
    H326     H        0.56640    0.69200    0.15310    1.000
    H327     H        0.58030    0.62880    0.14580    1.000
    C147     C        0.58710    0.65560    0.29010    1.000
    H328     H        0.60740    0.65710    0.33780    1.000
    H329     H        0.57140    0.61940    0.28390    1.000
    H330     H        0.55810    0.68270    0.29110    1.000
    C148     C        0.82107    0.52962    0.34067    1.000
    H331     H        0.80940    0.56720    0.34790    1.000
    H332     H        0.85920    0.52610    0.35540    1.000
    H333     H        0.79880    0.50560    0.37220    1.000
    C149     C        0.62940    0.68430    0.12570    1.000
    C150     C        0.57890    0.65260    0.24190    1.000
    H334     H        0.63960    0.70020    0.24580    1.000
    H335     H        0.66610    0.69530    0.11060    1.000
    H336     H        0.60410    0.71430    0.11650    1.000
    H337     H        0.61830    0.65270    0.09600    1.000
    H338     H        0.58050    0.64390    0.29600    1.000
    H339     H        0.56740    0.62050    0.21340    1.000
    H340     H        0.55280    0.68200    0.23370    1.000
    Ni11     Ni       0.75915    0.98138    0.72471    1.000
    O21      O        0.80204    0.13808    0.78500    1.000
    O22      O        0.75859    0.81429    0.71140    1.000
    N51      N        0.68531    0.98566    0.75957    1.000
    N52      N        0.76397    0.05640    0.75133    1.000
    N53      N        0.74342    0.90601    0.71170    1.000
    N54      N        0.85685    0.06721    0.75521    1.000
    H341     H        0.85660    0.03970    0.73460    1.000
    N55      N        0.82947    0.87206    0.72730    1.000
    H342     H        0.83830    0.90330    0.71370    1.000
    C151     C        0.66799    0.04230    0.74654    1.000
    H343     H        0.63380    0.04960    0.77410    1.000
    H344     H        0.66150    0.04830    0.69180    1.000
    C152     C        0.71196    0.08009    0.77437    1.000
    H345     H        0.70750    0.11650    0.75160    1.000
    H346     H        0.71030    0.08360    0.83030    1.000
    C153     C        0.80670    0.08957    0.76386    1.000
    C154     C        0.90658    0.09856    0.76045    1.000
    H347     H        0.90150    0.12670    0.80060    1.000
    C155     C        0.92052    0.12724    0.68702    1.000
    H348     H        0.89060    0.15130    0.67260    1.000
    H349     H        0.92640    0.10030    0.64700    1.000
    H350     H        0.95360    0.14870    0.69400    1.000
    C156     C        0.95128    0.06079    0.78601    1.000
    H351     H        0.94070    0.04320    0.83360    1.000
    H352     H        0.98470    0.08160    0.79390    1.000
    H353     H        0.95750    0.03310    0.74700    1.000
    C157     C        0.65593    0.94733    0.70964    1.000
    H354     H        0.65470    0.96160    0.65720    1.000
    H355     H        0.61820    0.94260    0.72780    1.000
    C158     C        0.68536    0.89345    0.71096    1.000
    H356     H        0.67520    0.87250    0.75670    1.000
    H357     H        0.67600    0.87180    0.66550    1.000
    C159     C        0.77578    0.86241    0.71498    1.000
    C160     C        0.87095    0.83132    0.71739    1.000
    H358     H        0.85510    0.79420    0.72250    1.000
    C161     C        0.90420    0.83470    0.64990    1.000
    H359     H        0.88190    0.82710    0.60510    1.000
    H360     H        0.93360    0.80800    0.65310    1.000
    H361     H        0.91970    0.87120    0.64580    1.000
    C162     C        0.91290    0.84440    0.79010    1.000
    H362     H        0.89260    0.84290    0.83780    1.000
    H363     H        0.92860    0.88060    0.78390    1.000
    H364     H        0.94190    0.81730    0.79110    1.000
    C163     C        0.67893    0.97038    0.84067    1.000
    H365     H        0.69060    0.93280    0.84790    1.000
    H366     H        0.64080    0.97390    0.85540    1.000
    H367     H        0.70120    0.99440    0.87220    1.000
    C164     C        0.87060    0.81570    0.62570    1.000
    C165     C        0.92110    0.84740    0.74190    1.000
    H368     H        0.86040    0.79980    0.74580    1.000
    H369     H        0.83390    0.80470    0.61060    1.000
    H370     H        0.89590    0.78570    0.61650    1.000
    H371     H        0.88170    0.84730    0.59600    1.000
    H372     H        0.91950    0.85610    0.79600    1.000
    H373     H        0.93260    0.87950    0.71340    1.000
    H374     H        0.94720    0.81800    0.73370    1.000
    Ni12     Ni       0.25915    0.48138    0.22471    1.000
    O23      O        0.30204    0.63808    0.28500    1.000
    O24      O        0.25859    0.31429    0.21140    1.000
    N56      N        0.18531    0.48566    0.25957    1.000
    N57      N        0.26397    0.55640    0.25133    1.000
    N58      N        0.24342    0.40601    0.21170    1.000
    N59      N        0.35685    0.56721    0.25521    1.000
    H375     H        0.35660    0.53970    0.23460    1.000
    N60      N        0.32947    0.37206    0.22730    1.000
    H376     H        0.33830    0.40330    0.21370    1.000
    C166     C        0.16799    0.54230    0.24654    1.000
    H377     H        0.13380    0.54960    0.27410    1.000
    H378     H        0.16150    0.54830    0.19180    1.000
    C167     C        0.21196    0.58009    0.27437    1.000
    H379     H        0.20750    0.61650    0.25160    1.000
    H380     H        0.21030    0.58360    0.33030    1.000
    C168     C        0.30670    0.58957    0.26386    1.000
    C169     C        0.40658    0.59856    0.26045    1.000
    H381     H        0.40150    0.62670    0.30060    1.000
    C170     C        0.42052    0.62724    0.18702    1.000
    H382     H        0.39060    0.65130    0.17260    1.000
    H383     H        0.42640    0.60030    0.14700    1.000
    H384     H        0.45360    0.64870    0.19400    1.000
    C171     C        0.45128    0.56079    0.28601    1.000
    H385     H        0.44070    0.54320    0.33360    1.000
    H386     H        0.48470    0.58160    0.29390    1.000
    H387     H        0.45750    0.53310    0.24700    1.000
    C172     C        0.15593    0.44733    0.20964    1.000
    H388     H        0.15470    0.46160    0.15720    1.000
    H389     H        0.11820    0.44260    0.22780    1.000
    C173     C        0.18536    0.39345    0.21096    1.000
    H390     H        0.17520    0.37250    0.25670    1.000
    H391     H        0.17600    0.37180    0.16550    1.000
    C174     C        0.27578    0.36241    0.21498    1.000
    C175     C        0.37095    0.33132    0.21739    1.000
    H392     H        0.35510    0.29420    0.22250    1.000
    C176     C        0.40420    0.33470    0.14990    1.000
    H393     H        0.38190    0.32710    0.10510    1.000
    H394     H        0.43360    0.30800    0.15310    1.000
    H395     H        0.41970    0.37120    0.14580    1.000
    C177     C        0.41290    0.34440    0.29010    1.000
    H396     H        0.39260    0.34290    0.33780    1.000
    H397     H        0.42860    0.38060    0.28390    1.000
    H398     H        0.44190    0.31730    0.29110    1.000
    C178     C        0.17893    0.47038    0.34067    1.000
    H399     H        0.19060    0.43280    0.34790    1.000
    H400     H        0.14080    0.47390    0.35540    1.000
    H401     H        0.20120    0.49440    0.37220    1.000
    C179     C        0.37060    0.31570    0.12570    1.000
    C180     C        0.42110    0.34740    0.24190    1.000
    H402     H        0.36040    0.29980    0.24580    1.000
    H403     H        0.33390    0.30470    0.11060    1.000
    H404     H        0.39590    0.28570    0.11650    1.000
    H405     H        0.38170    0.34730    0.09600    1.000
    H406     H        0.41950    0.35610    0.29600    1.000
    H407     H        0.43260    0.37950    0.21340    1.000
    H408     H        0.44720    0.31800    0.23370    1.000
    Ni13     Ni       0.48138    0.74085    0.77529    1.000
    O25      O        0.63808    0.69796    0.71500    1.000
    O26      O        0.31429    0.74141    0.78860    1.000
    N61      N        0.48566    0.81469    0.74043    1.000
    N62      N        0.55640    0.73603    0.74867    1.000
    N63      N        0.40601    0.75658    0.78830    1.000
    N64      N        0.56721    0.64315    0.74479    1.000
    H409     H        0.53970    0.64340    0.76540    1.000
    N65      N        0.37206    0.67053    0.77270    1.000
    H410     H        0.40330    0.66170    0.78630    1.000
    C181     C        0.54230    0.83201    0.75346    1.000
    H411     H        0.54960    0.86620    0.72590    1.000
    H412     H        0.54830    0.83850    0.80820    1.000
    C182     C        0.58009    0.78804    0.72563    1.000
    H413     H        0.61650    0.79250    0.74840    1.000
    H414     H        0.58360    0.78970    0.66970    1.000
    C183     C        0.58957    0.69330    0.73614    1.000
    C184     C        0.59856    0.59342    0.73955    1.000
    H415     H        0.62670    0.59850    0.69940    1.000
    C185     C        0.62724    0.57948    0.81298    1.000
    H416     H        0.65130    0.60940    0.82740    1.000
    H417     H        0.60030    0.57360    0.85300    1.000
    H418     H        0.64870    0.54640    0.80600    1.000
    C186     C        0.56079    0.54872    0.71399    1.000
    H419     H        0.54320    0.55930    0.66640    1.000
    H420     H        0.58160    0.51530    0.70610    1.000
    H421     H        0.53310    0.54250    0.75300    1.000
    C187     C        0.44733    0.84407    0.79036    1.000
    H422     H        0.46160    0.84530    0.84280    1.000
    H423     H        0.44260    0.88180    0.77220    1.000
    C188     C        0.39345    0.81464    0.78904    1.000
    H424     H        0.37250    0.82480    0.74330    1.000
    H425     H        0.37180    0.82400    0.83450    1.000
    C189     C        0.36241    0.72422    0.78502    1.000
    C190     C        0.33132    0.62905    0.78261    1.000
    H426     H        0.29420    0.64490    0.77750    1.000
    C191     C        0.33470    0.59580    0.85010    1.000
    H427     H        0.32710    0.61810    0.89490    1.000
    H428     H        0.30800    0.56640    0.84690    1.000
    H429     H        0.37120    0.58030    0.85420    1.000
    C192     C        0.34440    0.58710    0.70990    1.000
    H430     H        0.34290    0.60740    0.66220    1.000
    H431     H        0.38060    0.57140    0.71610    1.000
    H432     H        0.31730    0.55810    0.70890    1.000
    C193     C        0.47038    0.82107    0.65933    1.000
    H433     H        0.43280    0.80940    0.65210    1.000
    H434     H        0.47390    0.85920    0.64460    1.000
    H435     H        0.49440    0.79880    0.62780    1.000
    C194     C        0.31570    0.62940    0.87430    1.000
    C195     C        0.34740    0.57890    0.75810    1.000
    H436     H        0.29980    0.63960    0.75420    1.000
    H437     H        0.30470    0.66610    0.88940    1.000
    H438     H        0.28570    0.60410    0.88350    1.000
    H439     H        0.34730    0.61830    0.90400    1.000
    H440     H        0.35610    0.58050    0.70400    1.000
    H441     H        0.37950    0.56740    0.78660    1.000
    H442     H        0.31800    0.55280    0.76630    1.000
    Ni14     Ni       0.98138    0.24085    0.27529    1.000
    O27      O        0.13808    0.19796    0.21500    1.000
    O28      O        0.81429    0.24141    0.28860    1.000
    N66      N        0.98566    0.31469    0.24043    1.000
    N67      N        0.05640    0.23603    0.24867    1.000
    N68      N        0.90601    0.25658    0.28830    1.000
    N69      N        0.06721    0.14315    0.24479    1.000
    H443     H        0.03970    0.14340    0.26540    1.000
    N70      N        0.87206    0.17053    0.27270    1.000
    H444     H        0.90330    0.16170    0.28630    1.000
    C196     C        0.04230    0.33201    0.25346    1.000
    H445     H        0.04960    0.36620    0.22590    1.000
    H446     H        0.04830    0.33850    0.30820    1.000
    C197     C        0.08009    0.28804    0.22563    1.000
    H447     H        0.11650    0.29250    0.24840    1.000
    H448     H        0.08360    0.28970    0.16970    1.000
    C198     C        0.08957    0.19330    0.23614    1.000
    C199     C        0.09856    0.09342    0.23955    1.000
    H449     H        0.12670    0.09850    0.19940    1.000
    C200     C        0.12724    0.07948    0.31298    1.000
    H450     H        0.15130    0.10940    0.32740    1.000
    H451     H        0.10030    0.07360    0.35300    1.000
    H452     H        0.14870    0.04640    0.30600    1.000
    C201     C        0.06079    0.04872    0.21399    1.000
    H453     H        0.04320    0.05930    0.16640    1.000
    H454     H        0.08160    0.01530    0.20610    1.000
    H455     H        0.03310    0.04250    0.25300    1.000
    C202     C        0.94733    0.34407    0.29036    1.000
    H456     H        0.96160    0.34530    0.34280    1.000
    H457     H        0.94260    0.38180    0.27220    1.000
    C203     C        0.89345    0.31464    0.28904    1.000
    H458     H        0.87250    0.32480    0.24330    1.000
    H459     H        0.87180    0.32400    0.33450    1.000
    C204     C        0.86241    0.22422    0.28502    1.000
    C205     C        0.83132    0.12905    0.28261    1.000
    H460     H        0.79420    0.14490    0.27750    1.000
    C206     C        0.83470    0.09580    0.35010    1.000
    H461     H        0.82710    0.11810    0.39490    1.000
    H462     H        0.80800    0.06640    0.34690    1.000
    H463     H        0.87120    0.08030    0.35420    1.000
    C207     C        0.84440    0.08710    0.20990    1.000
    H464     H        0.84290    0.10740    0.16220    1.000
    H465     H        0.88060    0.07140    0.21610    1.000
    H466     H        0.81730    0.05810    0.20890    1.000
    C208     C        0.97038    0.32107    0.15933    1.000
    H467     H        0.93280    0.30940    0.15210    1.000
    H468     H        0.97390    0.35920    0.14460    1.000
    H469     H        0.99440    0.29880    0.12780    1.000
    C209     C        0.81570    0.12940    0.37430    1.000
    C210     C        0.84740    0.07890    0.25810    1.000
    H470     H        0.79980    0.13960    0.25420    1.000
    H471     H        0.80470    0.16610    0.38940    1.000
    H472     H        0.78570    0.10410    0.38350    1.000
    H473     H        0.84730    0.11830    0.40400    1.000
    H474     H        0.85610    0.08050    0.20400    1.000
    H475     H        0.87950    0.06740    0.28660    1.000
    H476     H        0.81800    0.05280    0.26630    1.000
    Ni15     Ni       0.51862    0.25915    0.77529    1.000
    O29      O        0.36192    0.30204    0.71500    1.000
    O30      O        0.68571    0.25859    0.78860    1.000
    N71      N        0.51434    0.18531    0.74043    1.000
    N72      N        0.44360    0.26397    0.74867    1.000
    N73      N        0.59399    0.24342    0.78830    1.000
    N74      N        0.43279    0.35685    0.74479    1.000
    H477     H        0.46030    0.35660    0.76540    1.000
    N75      N        0.62794    0.32947    0.77270    1.000
    H478     H        0.59670    0.33830    0.78630    1.000
    C211     C        0.45770    0.16799    0.75346    1.000
    H479     H        0.45040    0.13380    0.72590    1.000
    H480     H        0.45170    0.16150    0.80820    1.000
    C212     C        0.41991    0.21196    0.72563    1.000
    H481     H        0.38350    0.20750    0.74840    1.000
    H482     H        0.41640    0.21030    0.66970    1.000
    C213     C        0.41043    0.30670    0.73614    1.000
    C214     C        0.40144    0.40658    0.73955    1.000
    H483     H        0.37330    0.40150    0.69940    1.000
    C215     C        0.37276    0.42052    0.81298    1.000
    H484     H        0.34870    0.39060    0.82740    1.000
    H485     H        0.39970    0.42640    0.85300    1.000
    H486     H        0.35130    0.45360    0.80600    1.000
    C216     C        0.43921    0.45128    0.71399    1.000
    H487     H        0.45680    0.44070    0.66640    1.000
    H488     H        0.41840    0.48470    0.70610    1.000
    H489     H        0.46690    0.45750    0.75300    1.000
    C217     C        0.55267    0.15593    0.79036    1.000
    H490     H        0.53840    0.15470    0.84280    1.000
    H491     H        0.55740    0.11820    0.77220    1.000
    C218     C        0.60655    0.18536    0.78904    1.000
    H492     H        0.62750    0.17520    0.74330    1.000
    H493     H        0.62820    0.17600    0.83450    1.000
    C219     C        0.63759    0.27578    0.78502    1.000
    C220     C        0.66868    0.37095    0.78261    1.000
    H494     H        0.70580    0.35510    0.77750    1.000
    C221     C        0.66530    0.40420    0.85010    1.000
    H495     H        0.67290    0.38190    0.89490    1.000
    H496     H        0.69200    0.43360    0.84690    1.000
    H497     H        0.62880    0.41970    0.85420    1.000
    C222     C        0.65560    0.41290    0.70990    1.000
    H498     H        0.65710    0.39260    0.66220    1.000
    H499     H        0.61940    0.42860    0.71610    1.000
    H500     H        0.68270    0.44190    0.70890    1.000
    C223     C        0.52962    0.17893    0.65933    1.000
    H501     H        0.56720    0.19060    0.65210    1.000
    H502     H        0.52610    0.14080    0.64460    1.000
    H503     H        0.50560    0.20120    0.62780    1.000
    C224     C        0.68430    0.37060    0.87430    1.000
    C225     C        0.65260    0.42110    0.75810    1.000
    H504     H        0.70020    0.36040    0.75420    1.000
    H505     H        0.69530    0.33390    0.88940    1.000
    H506     H        0.71430    0.39590    0.88350    1.000
    H507     H        0.65270    0.38170    0.90400    1.000
    H508     H        0.64390    0.41950    0.70400    1.000
    H509     H        0.62050    0.43260    0.78660    1.000
    H510     H        0.68200    0.44720    0.76630    1.000
    Ni16     Ni       0.01862    0.75915    0.27529    1.000
    O31      O        0.86192    0.80204    0.21500    1.000
    O32      O        0.18571    0.75859    0.28860    1.000
    N76      N        0.01434    0.68531    0.24043    1.000
    N77      N        0.94360    0.76397    0.24867    1.000
    N78      N        0.09399    0.74342    0.28830    1.000
    N79      N        0.93279    0.85685    0.24479    1.000
    H511     H        0.96030    0.85660    0.26540    1.000
    N80      N        0.12794    0.82947    0.27270    1.000
    H512     H        0.09670    0.83830    0.28630    1.000
    C226     C        0.95770    0.66799    0.25346    1.000
    H513     H        0.95040    0.63380    0.22590    1.000
    H514     H        0.95170    0.66150    0.30820    1.000
    C227     C        0.91991    0.71196    0.22563    1.000
    H515     H        0.88350    0.70750    0.24840    1.000
    H516     H        0.91640    0.71030    0.16970    1.000
    C228     C        0.91043    0.80670    0.23614    1.000
    C229     C        0.90144    0.90658    0.23955    1.000
    H517     H        0.87330    0.90150    0.19940    1.000
    C230     C        0.87276    0.92052    0.31298    1.000
    H518     H        0.84870    0.89060    0.32740    1.000
    H519     H        0.89970    0.92640    0.35300    1.000
    H520     H        0.85130    0.95360    0.30600    1.000
    C231     C        0.93921    0.95128    0.21399    1.000
    H521     H        0.95680    0.94070    0.16640    1.000
    H522     H        0.91840    0.98470    0.20610    1.000
    H523     H        0.96690    0.95750    0.25300    1.000
    C232     C        0.05267    0.65593    0.29036    1.000
    H524     H        0.03840    0.65470    0.34280    1.000
    H525     H        0.05740    0.61820    0.27220    1.000
    C233     C        0.10655    0.68536    0.28904    1.000
    H526     H        0.12750    0.67520    0.24330    1.000
    H527     H        0.12820    0.67600    0.33450    1.000
    C234     C        0.13759    0.77578    0.28502    1.000
    C235     C        0.16868    0.87095    0.28261    1.000
    H528     H        0.20580    0.85510    0.27750    1.000
    C236     C        0.16530    0.90420    0.35010    1.000
    H529     H        0.17290    0.88190    0.39490    1.000
    H530     H        0.19200    0.93360    0.34690    1.000
    H531     H        0.12880    0.91970    0.35420    1.000
    C237     C        0.15560    0.91290    0.20990    1.000
    H532     H        0.15710    0.89260    0.16220    1.000
    H533     H        0.11940    0.92860    0.21610    1.000
    H534     H        0.18270    0.94190    0.20890    1.000
    C238     C        0.02962    0.67893    0.15933    1.000
    H535     H        0.06720    0.69060    0.15210    1.000
    H536     H        0.02610    0.64080    0.14460    1.000
    H537     H        0.00560    0.70120    0.12780    1.000
    C239     C        0.18430    0.87060    0.37430    1.000
    C240     C        0.15260    0.92110    0.25810    1.000
    H538     H        0.20020    0.86040    0.25420    1.000
    H539     H        0.19530    0.83390    0.38940    1.000
    H540     H        0.21430    0.89590    0.38350    1.000
    H541     H        0.15270    0.88170    0.40400    1.000
    H542     H        0.14390    0.91950    0.20400    1.000
    H543     H        0.12050    0.93260    0.28660    1.000
    H544     H        0.18200    0.94720    0.26630    1.000
    K1       K        0.25000    0.79833    0.87500    1.000
    K2       K        0.75000    0.29833    0.37500    1.000
    K3       K        0.75000    0.20167    0.87500    1.000
    K4       K        0.25000    0.70167    0.37500    1.000
    K5       K        0.79833    0.75000    0.12500    1.000
    K6       K        0.29833    0.25000    0.62500    1.000
    K7       K        0.20167    0.25000    0.12500    1.000
    K8       K        0.70167    0.75000    0.62500    1.000
