data_functionalizedCrystal
_audit_creation_method	'EQeq! by Chris Wilmer'
_symmetry_space_group_name_H-M	'P1'
_symmetry_Int_Tables_number	1
_symmetry_cell_setting	triclinic
loop_
_symmetry_equiv_pos_as_xyz
  x,y,z
_cell_length_a	21.5599
_cell_length_b	21.5599
_cell_length_c	12.8974
_cell_angle_alpha	90
_cell_angle_beta	90
_cell_angle_gamma	90
loop_
_atom_site_label
_atom_site_type_symbol
_atom_site_fract_x
_atom_site_fract_y
_atom_site_fract_z
_atom_site_charge
Mof_Cu	Cu	0.05812	0.31314	0.68584	0.897
Mof_O 	O 	0.14595	0.26221	0.5602	-0.471
Mof_O 	O 	0.05305	0.30172	0.5316	-0.383
Mof_O 	O 	0.09439	0.39404	0.6654	-0.364
Mof_N 	N 	0.16338	0.22898	0.3652	-0.212
Mof_H 	H 	0.1632	0.1935	0.3243	0.075
Mof_N 	N 	0.09811	0.31818	0.8261	-0.232
Mof_H 	H 	0.1213	0.282	0.8327	0.069
Mof_C 	C 	0.0996	0.27183	0.5021	0.336
Mof_C 	C 	0.09797	0.2431	0.3957	-0.165
Mof_H 	H 	0.0793	0.273	0.3452	0.095
Mof_C 	C 	0.0597	0.1843	0.3989	0.003
Mof_C 	C 	0.19123	0.2805	0.3038	-0.102
Mof_H 	H 	0.2353	0.2708	0.2894	0.021
Mof_H 	H 	0.19	0.3191	0.3455	0.041
Mof_C 	C 	0.15759	0.2914	0.202	0.037
Mof_C 	C 	0.1541	0.2461	0.1272	-0.07
Mof_H 	H 	0.1751	0.2079	0.1379	0.034
Mof_C 	C 	0.1213	0.2545	0.038	-0.069
Mof_H 	H 	0.1192	0.2218	0.9887	0.034
Mof_C 	C 	0.09101	0.3095	0.0179	0.036
Mof_C 	C 	0.0959	0.3562	0.0923	-0.068
Mof_H 	H 	0.0761	0.3949	0.0807	0.044
Mof_C 	C 	0.1285	0.347	0.1814	-0.073
Mof_H 	H 	0.1313	0.3798	0.2305	0.051
Mof_C 	C 	0.12908	0.41378	0.7368	0.317
Mof_C 	C 	0.14388	0.36931	0.826	-0.012
Mof_H 	H 	0.1412	0.3923	0.8932	0.034
Mof_C 	C 	0.20992	0.343	0.813	-0.414
Mof_H 	H 	0.2128	0.304	0.8534	0.133
Mof_H 	H 	0.2159	0.3321	0.7391	0.13
Mof_C 	C 	0.2625	0.3846	0.8456	0.565
Mof_H 	H 	0.2577	0.4248	0.8078	-0.149
Mof_C 	C 	0.2627	0.3987	0.9594	-0.861
Mof_H 	H 	0.2979	0.4259	0.9757	0.253
Mof_H 	H 	0.2666	0.36	0.9987	0.253
Mof_H 	H 	0.2239	0.4195	0.9783	0.272
Mof_C 	C 	0.3234	0.3565	0.8125	-0.848
Mof_H 	H 	0.3575	0.3837	0.8339	0.248
Mof_H 	H 	0.3239	0.3519	0.7369	0.245
Mof_H 	H 	0.3284	0.3158	0.8451	0.247
Mof_C 	C 	0.0563	0.3193	0.9175	-0.106
Mof_H 	H 	0.0246	0.2865	0.9098	0.035
Mof_H 	H 	0.0347	0.3598	0.92	0.056
Mof_O 	O 	0.15396	0.46528	0.7381	-0.357
Mof_C 	C 	0.0242	0.1667	0.3035	-0.241
Mof_H 	H 	0.0564	0.1509	0.2544	0.085
Mof_C 	C 	0.9892	0.2162	0.2418	0.137
Mof_H 	H 	0.9601	0.2378	0.2877	-0.191
Mof_H 	H 	0.9663	0.1965	0.1851	0.024
Mof_H 	H 	0.0189	0.2461	0.2132	-0.022
Mof_C 	C 	0.981	0.1115	0.3207	0.249
Mof_H 	H 	0.0027	0.0795	0.3608	0.042
Mof_H 	H 	0.9684	0.0943	0.2535	-0.106
Mof_H 	H 	0.9441	0.1251	0.3589	0.196
Mof_C 	C 	0.9934	0.1838	0.3935	0.122
Mof_H 	H 	0.9785	0.2056	0.4573	-0.022
Mof_C 	C 	0.9706	0.116	0.403	-0.807
Mof_H 	H 	0.9839	0.0924	0.342	0.025
Mof_H 	H 	0.9252	0.1154	0.4075	0.127
Mof_H 	H 	0.9882	0.0972	0.4656	0.252
Mof_C 	C 	0.971	0.2229	0.3017	0.219
Mof_H 	H 	0.9958	0.261	0.2974	-0.005
Mof_H 	H 	0.9273	0.2337	0.3115	0.018
Mof_H 	H 	0.9758	0.1992	0.2374	-0.129
Mof_Cu	Cu	0.94188	0.68686	0.68584	0.896
Mof_O 	O 	0.85405	0.73779	0.5602	-0.472
Mof_O 	O 	0.94695	0.69828	0.5316	-0.384
Mof_O 	O 	0.90561	0.60596	0.6654	-0.365
Mof_N 	N 	0.83662	0.77102	0.3652	-0.213
Mof_H 	H 	0.8368	0.8065	0.3243	0.074
Mof_N 	N 	0.90189	0.68182	0.8261	-0.233
Mof_H 	H 	0.8787	0.718	0.8327	0.068
Mof_C 	C 	0.9004	0.72817	0.5021	0.335
Mof_C 	C 	0.90203	0.7569	0.3957	-0.166
Mof_H 	H 	0.9207	0.727	0.3452	0.094
Mof_C 	C 	0.9403	0.8157	0.3989	0.002
Mof_C 	C 	0.80877	0.7195	0.3038	-0.103
Mof_H 	H 	0.7647	0.7292	0.2894	0.02
Mof_H 	H 	0.81	0.6809	0.3455	0.04
Mof_C 	C 	0.84241	0.7086	0.202	0.036
Mof_C 	C 	0.8459	0.7539	0.1272	-0.071
Mof_H 	H 	0.8249	0.7921	0.1379	0.033
Mof_C 	C 	0.8787	0.7455	0.038	-0.07
Mof_H 	H 	0.8808	0.7782	0.9887	0.033
Mof_C 	C 	0.90899	0.6905	0.0179	0.036
Mof_C 	C 	0.9041	0.6438	0.0923	-0.068
Mof_H 	H 	0.9239	0.6051	0.0807	0.044
Mof_C 	C 	0.8715	0.653	0.1814	-0.073
Mof_H 	H 	0.8687	0.6202	0.2305	0.051
Mof_C 	C 	0.87092	0.58622	0.7368	0.317
Mof_C 	C 	0.85612	0.63069	0.826	-0.012
Mof_H 	H 	0.8588	0.6077	0.8932	0.034
Mof_C 	C 	0.79008	0.657	0.813	-0.414
Mof_H 	H 	0.7872	0.696	0.8534	0.133
Mof_H 	H 	0.7841	0.6679	0.7391	0.13
Mof_C 	C 	0.7375	0.6154	0.8456	0.565
Mof_H 	H 	0.7423	0.5752	0.8078	-0.149
Mof_C 	C 	0.7373	0.6013	0.9594	-0.861
Mof_H 	H 	0.7021	0.5741	0.9757	0.253
Mof_H 	H 	0.7334	0.64	0.9987	0.253
Mof_H 	H 	0.7761	0.5805	0.9783	0.272
Mof_C 	C 	0.6766	0.6435	0.8125	-0.848
Mof_H 	H 	0.6425	0.6163	0.8339	0.248
Mof_H 	H 	0.6761	0.6481	0.7369	0.245
Mof_H 	H 	0.6716	0.6842	0.8451	0.247
Mof_C 	C 	0.9437	0.6807	0.9175	-0.106
Mof_H 	H 	0.9754	0.7135	0.9098	0.035
Mof_H 	H 	0.9653	0.6402	0.92	0.056
Mof_O 	O 	0.84604	0.53472	0.7381	-0.357
Mof_C 	C 	0.9758	0.8333	0.3035	-0.241
Mof_H 	H 	0.9436	0.8491	0.2544	0.085
Mof_C 	C 	0.0108	0.7838	0.2418	0.137
Mof_H 	H 	0.0399	0.7622	0.2877	-0.191
Mof_H 	H 	0.0337	0.8035	0.1851	0.024
Mof_H 	H 	0.9811	0.7539	0.2132	-0.022
Mof_C 	C 	0.019	0.8885	0.3207	0.249
Mof_H 	H 	0.9973	0.9205	0.3608	0.042
Mof_H 	H 	0.0316	0.9057	0.2535	-0.106
Mof_H 	H 	0.0559	0.8749	0.3589	0.196
Mof_C 	C 	0.0066	0.8162	0.3935	0.122
Mof_H 	H 	0.0215	0.7944	0.4573	-0.022
Mof_C 	C 	0.0294	0.884	0.403	-0.807
Mof_H 	H 	0.0161	0.9076	0.342	0.025
Mof_H 	H 	0.0748	0.8846	0.4075	0.127
Mof_H 	H 	0.0118	0.9028	0.4656	0.252
Mof_C 	C 	0.029	0.7771	0.3017	0.219
Mof_H 	H 	0.0042	0.739	0.2974	-0.005
Mof_H 	H 	0.0727	0.7663	0.3115	0.018
Mof_H 	H 	0.0242	0.8008	0.2374	-0.129
Mof_Cu	Cu	0.18686	0.55812	0.68584	0.896
Mof_O 	O 	0.23779	0.64595	0.5602	-0.472
Mof_O 	O 	0.19828	0.55305	0.5316	-0.384
Mof_O 	O 	0.10596	0.59439	0.6654	-0.365
Mof_N 	N 	0.27102	0.66338	0.3652	-0.213
Mof_H 	H 	0.3065	0.6632	0.3243	0.074
Mof_N 	N 	0.18182	0.59811	0.8261	-0.233
Mof_H 	H 	0.218	0.6213	0.8327	0.068
Mof_C 	C 	0.22817	0.5996	0.5021	0.335
Mof_C 	C 	0.2569	0.59797	0.3957	-0.166
Mof_H 	H 	0.227	0.5793	0.3452	0.094
Mof_C 	C 	0.3157	0.5597	0.3989	0.002
Mof_C 	C 	0.2195	0.69123	0.3038	-0.103
Mof_H 	H 	0.2292	0.7353	0.2894	0.02
Mof_H 	H 	0.1809	0.69	0.3455	0.04
Mof_C 	C 	0.2086	0.65759	0.202	0.036
Mof_C 	C 	0.2539	0.6541	0.1272	-0.071
Mof_H 	H 	0.2921	0.6751	0.1379	0.033
Mof_C 	C 	0.2455	0.6213	0.038	-0.07
Mof_H 	H 	0.2782	0.6192	0.9887	0.033
Mof_C 	C 	0.1905	0.59101	0.0179	0.036
Mof_C 	C 	0.1438	0.5959	0.0923	-0.068
Mof_H 	H 	0.1051	0.5761	0.0807	0.044
Mof_C 	C 	0.153	0.6285	0.1814	-0.073
Mof_H 	H 	0.1202	0.6313	0.2305	0.051
Mof_C 	C 	0.08622	0.62908	0.7368	0.317
Mof_C 	C 	0.13069	0.64388	0.826	-0.012
Mof_H 	H 	0.1077	0.6412	0.8932	0.034
Mof_C 	C 	0.157	0.70992	0.813	-0.414
Mof_H 	H 	0.196	0.7128	0.8534	0.133
Mof_H 	H 	0.1679	0.7159	0.7391	0.13
Mof_C 	C 	0.1154	0.7625	0.8456	0.565
Mof_H 	H 	0.0752	0.7577	0.8078	-0.149
Mof_C 	C 	0.1013	0.7627	0.9594	-0.861
Mof_H 	H 	0.0741	0.7979	0.9757	0.253
Mof_H 	H 	0.14	0.7666	0.9987	0.253
Mof_H 	H 	0.0805	0.7239	0.9783	0.271
Mof_C 	C 	0.1435	0.8234	0.8125	-0.847
Mof_H 	H 	0.1163	0.8575	0.8339	0.248
Mof_H 	H 	0.1481	0.8239	0.7369	0.245
Mof_H 	H 	0.1842	0.8284	0.8451	0.247
Mof_C 	C 	0.1807	0.5563	0.9175	-0.106
Mof_H 	H 	0.2135	0.5246	0.9098	0.035
Mof_H 	H 	0.1402	0.5347	0.92	0.056
Mof_O 	O 	0.03472	0.65396	0.7381	-0.357
Mof_C 	C 	0.3333	0.5242	0.3035	-0.241
Mof_H 	H 	0.3491	0.5564	0.2544	0.085
Mof_C 	C 	0.2838	0.4892	0.2418	0.137
Mof_H 	H 	0.2622	0.4601	0.2877	-0.191
Mof_H 	H 	0.3035	0.4663	0.1851	0.024
Mof_H 	H 	0.2539	0.5189	0.2132	-0.022
Mof_C 	C 	0.3885	0.481	0.3207	0.249
Mof_H 	H 	0.4205	0.5027	0.3608	0.042
Mof_H 	H 	0.4057	0.4684	0.2535	-0.106
Mof_H 	H 	0.3749	0.4441	0.3589	0.196
Mof_C 	C 	0.3162	0.4934	0.3935	0.122
Mof_H 	H 	0.2944	0.4785	0.4573	-0.022
Mof_C 	C 	0.384	0.4706	0.403	-0.807
Mof_H 	H 	0.4076	0.4839	0.342	0.025
Mof_H 	H 	0.3846	0.4252	0.4075	0.127
Mof_H 	H 	0.4028	0.4882	0.4656	0.252
Mof_C 	C 	0.2771	0.471	0.3017	0.219
Mof_H 	H 	0.239	0.4958	0.2974	-0.005
Mof_H 	H 	0.2663	0.4273	0.3115	0.018
Mof_H 	H 	0.3008	0.4758	0.2374	-0.129
Mof_Cu	Cu	0.81314	0.44188	0.68584	0.896
Mof_O 	O 	0.76221	0.35405	0.5602	-0.472
Mof_O 	O 	0.80172	0.44695	0.5316	-0.384
Mof_O 	O 	0.89404	0.40561	0.6654	-0.365
Mof_N 	N 	0.72898	0.33662	0.3652	-0.213
Mof_H 	H 	0.6935	0.3368	0.3243	0.074
Mof_N 	N 	0.81818	0.40189	0.8261	-0.233
Mof_H 	H 	0.782	0.3787	0.8327	0.068
Mof_C 	C 	0.77183	0.4004	0.5021	0.335
Mof_C 	C 	0.7431	0.40203	0.3957	-0.166
Mof_H 	H 	0.773	0.4207	0.3452	0.094
Mof_C 	C 	0.6843	0.4403	0.3989	0.002
Mof_C 	C 	0.7805	0.30877	0.3038	-0.103
Mof_H 	H 	0.7708	0.2647	0.2894	0.02
Mof_H 	H 	0.8191	0.31	0.3455	0.04
Mof_C 	C 	0.7914	0.34241	0.202	0.036
Mof_C 	C 	0.7461	0.3459	0.1272	-0.071
Mof_H 	H 	0.7079	0.3249	0.1379	0.033
Mof_C 	C 	0.7545	0.3787	0.038	-0.07
Mof_H 	H 	0.7218	0.3808	0.9887	0.033
Mof_C 	C 	0.8095	0.40899	0.0179	0.036
Mof_C 	C 	0.8562	0.4041	0.0923	-0.068
Mof_H 	H 	0.8949	0.4239	0.0807	0.044
Mof_C 	C 	0.847	0.3715	0.1814	-0.073
Mof_H 	H 	0.8798	0.3687	0.2305	0.051
Mof_C 	C 	0.91378	0.37092	0.7368	0.317
Mof_C 	C 	0.86931	0.35612	0.826	-0.012
Mof_H 	H 	0.8923	0.3588	0.8932	0.034
Mof_C 	C 	0.843	0.29008	0.813	-0.414
Mof_H 	H 	0.804	0.2872	0.8534	0.133
Mof_H 	H 	0.8321	0.2841	0.7391	0.13
Mof_C 	C 	0.8846	0.2375	0.8456	0.565
Mof_H 	H 	0.9248	0.2423	0.8078	-0.149
Mof_C 	C 	0.8987	0.2373	0.9594	-0.861
Mof_H 	H 	0.9259	0.2021	0.9757	0.253
Mof_H 	H 	0.86	0.2334	0.9987	0.253
Mof_H 	H 	0.9195	0.2761	0.9783	0.271
Mof_C 	C 	0.8565	0.1766	0.8125	-0.847
Mof_H 	H 	0.8837	0.1425	0.8339	0.248
Mof_H 	H 	0.8519	0.1761	0.7369	0.245
Mof_H 	H 	0.8158	0.1716	0.8451	0.247
Mof_C 	C 	0.8193	0.4437	0.9175	-0.106
Mof_H 	H 	0.7865	0.4754	0.9098	0.035
Mof_H 	H 	0.8598	0.4653	0.92	0.056
Mof_O 	O 	0.96528	0.34604	0.7381	-0.357
Mof_C 	C 	0.6667	0.4758	0.3035	-0.241
Mof_H 	H 	0.6509	0.4436	0.2544	0.085
Mof_C 	C 	0.7162	0.5108	0.2418	0.137
Mof_H 	H 	0.7378	0.5399	0.2877	-0.191
Mof_H 	H 	0.6965	0.5337	0.1851	0.024
Mof_H 	H 	0.7461	0.4811	0.2132	-0.022
Mof_C 	C 	0.6115	0.519	0.3207	0.249
Mof_H 	H 	0.5795	0.4973	0.3608	0.042
Mof_H 	H 	0.5943	0.5316	0.2535	-0.106
Mof_H 	H 	0.6251	0.5559	0.3589	0.196
Mof_C 	C 	0.6838	0.5066	0.3935	0.122
Mof_H 	H 	0.7056	0.5215	0.4573	-0.022
Mof_C 	C 	0.616	0.5294	0.403	-0.807
Mof_H 	H 	0.5924	0.5161	0.342	0.025
Mof_H 	H 	0.6154	0.5748	0.4075	0.127
Mof_H 	H 	0.5972	0.5118	0.4656	0.252
Mof_C 	C 	0.7229	0.529	0.3017	0.219
Mof_H 	H 	0.761	0.5042	0.2974	-0.005
Mof_H 	H 	0.7337	0.5727	0.3115	0.018
Mof_H 	H 	0.6992	0.5242	0.2374	-0.129
Mof_Cu	Cu	0.44188	0.81314	0.31416	0.896
Mof_O 	O 	0.35405	0.76221	0.4398	-0.472
Mof_O 	O 	0.44695	0.80172	0.4684	-0.384
Mof_O 	O 	0.40561	0.89404	0.3346	-0.365
Mof_N 	N 	0.33662	0.72898	0.6348	-0.213
Mof_H 	H 	0.3368	0.6935	0.6757	0.074
Mof_N 	N 	0.40189	0.81818	0.1739	-0.233
Mof_H 	H 	0.3787	0.782	0.1673	0.068
Mof_C 	C 	0.4004	0.77183	0.4979	0.335
Mof_C 	C 	0.40203	0.7431	0.6043	-0.166
Mof_H 	H 	0.4207	0.773	0.6548	0.094
Mof_C 	C 	0.4403	0.6843	0.6011	0.002
Mof_C 	C 	0.30877	0.7805	0.6962	-0.103
Mof_H 	H 	0.2647	0.7708	0.7106	0.02
Mof_H 	H 	0.31	0.8191	0.6545	0.04
Mof_C 	C 	0.34241	0.7914	0.798	0.036
Mof_C 	C 	0.3459	0.7461	0.8728	-0.071
Mof_H 	H 	0.3249	0.7079	0.8621	0.033
Mof_C 	C 	0.3787	0.7545	0.962	-0.07
Mof_H 	H 	0.3808	0.7218	0.0113	0.033
Mof_C 	C 	0.40899	0.8095	0.9821	0.036
Mof_C 	C 	0.4041	0.8562	0.9077	-0.068
Mof_H 	H 	0.4239	0.8949	0.9193	0.044
Mof_C 	C 	0.3715	0.847	0.8186	-0.073
Mof_H 	H 	0.3687	0.8798	0.7695	0.051
Mof_C 	C 	0.37092	0.91378	0.2632	0.317
Mof_C 	C 	0.35612	0.86931	0.174	-0.012
Mof_H 	H 	0.3588	0.8923	0.1068	0.034
Mof_C 	C 	0.29008	0.843	0.187	-0.414
Mof_H 	H 	0.2872	0.804	0.1466	0.133
Mof_H 	H 	0.2841	0.8321	0.2609	0.13
Mof_C 	C 	0.2375	0.8846	0.1544	0.565
Mof_H 	H 	0.2423	0.9248	0.1922	-0.149
Mof_C 	C 	0.2373	0.8987	0.0406	-0.861
Mof_H 	H 	0.2021	0.9259	0.0243	0.253
Mof_H 	H 	0.2334	0.86	0.0013	0.253
Mof_H 	H 	0.2761	0.9195	0.0217	0.271
Mof_C 	C 	0.1766	0.8565	0.1875	-0.847
Mof_H 	H 	0.1425	0.8837	0.1661	0.248
Mof_H 	H 	0.1761	0.8519	0.2631	0.245
Mof_H 	H 	0.1716	0.8158	0.1549	0.247
Mof_C 	C 	0.4437	0.8193	0.0825	-0.106
Mof_H 	H 	0.4754	0.7865	0.0902	0.035
Mof_H 	H 	0.4653	0.8598	0.08	0.056
Mof_O 	O 	0.34604	0.96528	0.2619	-0.357
Mof_C 	C 	0.4758	0.6667	0.6965	-0.241
Mof_H 	H 	0.4436	0.6509	0.7456	0.085
Mof_C 	C 	0.5108	0.7162	0.7582	0.137
Mof_H 	H 	0.5399	0.7378	0.7123	-0.191
Mof_H 	H 	0.5337	0.6965	0.8149	0.024
Mof_H 	H 	0.4811	0.7461	0.7868	-0.022
Mof_C 	C 	0.519	0.6115	0.6793	0.249
Mof_H 	H 	0.4973	0.5795	0.6392	0.042
Mof_H 	H 	0.5316	0.5943	0.7465	-0.106
Mof_H 	H 	0.5559	0.6251	0.6411	0.196
Mof_C 	C 	0.5066	0.6838	0.6065	0.122
Mof_H 	H 	0.5215	0.7056	0.5427	-0.022
Mof_C 	C 	0.5294	0.616	0.597	-0.807
Mof_H 	H 	0.5161	0.5924	0.658	0.025
Mof_H 	H 	0.5748	0.6154	0.5925	0.127
Mof_H 	H 	0.5118	0.5972	0.5344	0.252
Mof_C 	C 	0.529	0.7229	0.6983	0.219
Mof_H 	H 	0.5042	0.761	0.7026	-0.005
Mof_H 	H 	0.5727	0.7337	0.6885	0.018
Mof_H 	H 	0.5242	0.6992	0.7626	-0.129
Mof_Cu	Cu	0.55812	0.18686	0.31416	0.896
Mof_O 	O 	0.64595	0.23779	0.4398	-0.472
Mof_O 	O 	0.55305	0.19828	0.4684	-0.384
Mof_O 	O 	0.59439	0.10596	0.3346	-0.365
Mof_N 	N 	0.66338	0.27102	0.6348	-0.213
Mof_H 	H 	0.6632	0.3065	0.6757	0.074
Mof_N 	N 	0.59811	0.18182	0.1739	-0.233
Mof_H 	H 	0.6213	0.218	0.1673	0.068
Mof_C 	C 	0.5996	0.22817	0.4979	0.335
Mof_C 	C 	0.59797	0.2569	0.6043	-0.166
Mof_H 	H 	0.5793	0.227	0.6548	0.094
Mof_C 	C 	0.5597	0.3157	0.6011	0.002
Mof_C 	C 	0.69123	0.2195	0.6962	-0.103
Mof_H 	H 	0.7353	0.2292	0.7106	0.02
Mof_H 	H 	0.69	0.1809	0.6545	0.04
Mof_C 	C 	0.65759	0.2086	0.798	0.036
Mof_C 	C 	0.6541	0.2539	0.8728	-0.071
Mof_H 	H 	0.6751	0.2921	0.8621	0.033
Mof_C 	C 	0.6213	0.2455	0.962	-0.07
Mof_H 	H 	0.6192	0.2782	0.0113	0.033
Mof_C 	C 	0.59101	0.1905	0.9821	0.036
Mof_C 	C 	0.5959	0.1438	0.9077	-0.068
Mof_H 	H 	0.5761	0.1051	0.9193	0.044
Mof_C 	C 	0.6285	0.153	0.8186	-0.073
Mof_H 	H 	0.6313	0.1202	0.7695	0.051
Mof_C 	C 	0.62908	0.08622	0.2632	0.317
Mof_C 	C 	0.64388	0.13069	0.174	-0.012
Mof_H 	H 	0.6412	0.1077	0.1068	0.034
Mof_C 	C 	0.70992	0.157	0.187	-0.414
Mof_H 	H 	0.7128	0.196	0.1466	0.133
Mof_H 	H 	0.7159	0.1679	0.2609	0.13
Mof_C 	C 	0.7625	0.1154	0.1544	0.565
Mof_H 	H 	0.7577	0.0752	0.1922	-0.149
Mof_C 	C 	0.7627	0.1013	0.0406	-0.861
Mof_H 	H 	0.7979	0.0741	0.0243	0.253
Mof_H 	H 	0.7666	0.14	0.0013	0.253
Mof_H 	H 	0.7239	0.0805	0.0217	0.271
Mof_C 	C 	0.8234	0.1435	0.1875	-0.847
Mof_H 	H 	0.8575	0.1163	0.1661	0.248
Mof_H 	H 	0.8239	0.1481	0.2631	0.245
Mof_H 	H 	0.8284	0.1842	0.1549	0.247
Mof_C 	C 	0.5563	0.1807	0.0825	-0.106
Mof_H 	H 	0.5246	0.2135	0.0902	0.035
Mof_H 	H 	0.5347	0.1402	0.08	0.056
Mof_O 	O 	0.65396	0.03472	0.2619	-0.357
Mof_C 	C 	0.5242	0.3333	0.6965	-0.241
Mof_H 	H 	0.5564	0.3491	0.7456	0.085
Mof_C 	C 	0.4892	0.2838	0.7582	0.137
Mof_H 	H 	0.4601	0.2622	0.7123	-0.191
Mof_H 	H 	0.4663	0.3035	0.8149	0.024
Mof_H 	H 	0.5189	0.2539	0.7868	-0.022
Mof_C 	C 	0.481	0.3885	0.6793	0.249
Mof_H 	H 	0.5027	0.4205	0.6392	0.042
Mof_H 	H 	0.4684	0.4057	0.7465	-0.106
Mof_H 	H 	0.4441	0.3749	0.6411	0.196
Mof_C 	C 	0.4934	0.3162	0.6065	0.122
Mof_H 	H 	0.4785	0.2944	0.5427	-0.022
Mof_C 	C 	0.4706	0.384	0.597	-0.807
Mof_H 	H 	0.4839	0.4076	0.658	0.025
Mof_H 	H 	0.4252	0.3846	0.5925	0.127
Mof_H 	H 	0.4882	0.4028	0.5344	0.252
Mof_C 	C 	0.471	0.2771	0.6983	0.219
Mof_H 	H 	0.4958	0.239	0.7026	-0.005
Mof_H 	H 	0.4273	0.2663	0.6885	0.018
Mof_H 	H 	0.4758	0.3008	0.7626	-0.129
Mof_Cu	Cu	0.31314	0.05812	0.31416	0.896
Mof_O 	O 	0.26221	0.14595	0.4398	-0.472
Mof_O 	O 	0.30172	0.05305	0.4684	-0.384
Mof_O 	O 	0.39404	0.09439	0.3346	-0.365
Mof_N 	N 	0.22898	0.16338	0.6348	-0.213
Mof_H 	H 	0.1935	0.1632	0.6757	0.074
Mof_N 	N 	0.31818	0.09811	0.1739	-0.233
Mof_H 	H 	0.282	0.1213	0.1673	0.068
Mof_C 	C 	0.27183	0.0996	0.4979	0.335
Mof_C 	C 	0.2431	0.09797	0.6043	-0.166
Mof_H 	H 	0.273	0.0793	0.6548	0.094
Mof_C 	C 	0.1843	0.0597	0.6011	0.002
Mof_C 	C 	0.2805	0.19123	0.6962	-0.103
Mof_H 	H 	0.2708	0.2353	0.7106	0.02
Mof_H 	H 	0.3191	0.19	0.6545	0.04
Mof_C 	C 	0.2914	0.15759	0.798	0.036
Mof_C 	C 	0.2461	0.1541	0.8728	-0.071
Mof_H 	H 	0.2079	0.1751	0.8621	0.033
Mof_C 	C 	0.2545	0.1213	0.962	-0.07
Mof_H 	H 	0.2218	0.1192	0.0113	0.033
Mof_C 	C 	0.3095	0.09101	0.9821	0.036
Mof_C 	C 	0.3562	0.0959	0.9077	-0.068
Mof_H 	H 	0.3949	0.0761	0.9193	0.044
Mof_C 	C 	0.347	0.1285	0.8186	-0.073
Mof_H 	H 	0.3798	0.1313	0.7695	0.051
Mof_C 	C 	0.41378	0.12908	0.2632	0.317
Mof_C 	C 	0.36931	0.14388	0.174	-0.012
Mof_H 	H 	0.3923	0.1412	0.1068	0.034
Mof_C 	C 	0.343	0.20992	0.187	-0.414
Mof_H 	H 	0.304	0.2128	0.1466	0.133
Mof_H 	H 	0.3321	0.2159	0.2609	0.13
Mof_C 	C 	0.3846	0.2625	0.1544	0.565
Mof_H 	H 	0.4248	0.2577	0.1922	-0.149
Mof_C 	C 	0.3987	0.2627	0.0406	-0.861
Mof_H 	H 	0.4259	0.2979	0.0243	0.253
Mof_H 	H 	0.36	0.2666	0.0013	0.253
Mof_H 	H 	0.4195	0.2239	0.0217	0.272
Mof_C 	C 	0.3565	0.3234	0.1875	-0.848
Mof_H 	H 	0.3837	0.3575	0.1661	0.248
Mof_H 	H 	0.3519	0.3239	0.2631	0.245
Mof_H 	H 	0.3158	0.3284	0.1549	0.247
Mof_C 	C 	0.3193	0.0563	0.0825	-0.106
Mof_H 	H 	0.2865	0.0246	0.0902	0.035
Mof_H 	H 	0.3598	0.0347	0.08	0.056
Mof_O 	O 	0.46528	0.15396	0.2619	-0.357
Mof_C 	C 	0.1667	0.0242	0.6965	-0.241
Mof_H 	H 	0.1509	0.0564	0.7456	0.085
Mof_C 	C 	0.2162	0.9892	0.7582	0.137
Mof_H 	H 	0.2378	0.9601	0.7123	-0.191
Mof_H 	H 	0.1965	0.9663	0.8149	0.024
Mof_H 	H 	0.2461	0.0189	0.7868	-0.022
Mof_C 	C 	0.1115	0.981	0.6793	0.249
Mof_H 	H 	0.0795	0.0027	0.6392	0.042
Mof_H 	H 	0.0943	0.9684	0.7465	-0.106
Mof_H 	H 	0.1251	0.9441	0.6411	0.196
Mof_C 	C 	0.1838	0.9934	0.6065	0.122
Mof_H 	H 	0.2056	0.9785	0.5427	-0.022
Mof_C 	C 	0.116	0.9706	0.597	-0.807
Mof_H 	H 	0.0924	0.9839	0.658	0.025
Mof_H 	H 	0.1154	0.9252	0.5925	0.127
Mof_H 	H 	0.0972	0.9882	0.5344	0.252
Mof_C 	C 	0.2229	0.971	0.6983	0.219
Mof_H 	H 	0.261	0.9958	0.7026	-0.005
Mof_H 	H 	0.2337	0.9273	0.6885	0.018
Mof_H 	H 	0.1992	0.9758	0.7626	-0.129
Mof_Cu	Cu	0.68686	0.94188	0.31416	0.896
Mof_O 	O 	0.73779	0.85405	0.4398	-0.472
Mof_O 	O 	0.69828	0.94695	0.4684	-0.384
Mof_O 	O 	0.60596	0.90561	0.3346	-0.365
Mof_N 	N 	0.77102	0.83662	0.6348	-0.213
Mof_H 	H 	0.8065	0.8368	0.6757	0.074
Mof_N 	N 	0.68182	0.90189	0.1739	-0.233
Mof_H 	H 	0.718	0.8787	0.1673	0.068
Mof_C 	C 	0.72817	0.9004	0.4979	0.335
Mof_C 	C 	0.7569	0.90203	0.6043	-0.166
Mof_H 	H 	0.727	0.9207	0.6548	0.094
Mof_C 	C 	0.8157	0.9403	0.6011	0.002
Mof_C 	C 	0.7195	0.80877	0.6962	-0.103
Mof_H 	H 	0.7292	0.7647	0.7106	0.02
Mof_H 	H 	0.6809	0.81	0.6545	0.04
Mof_C 	C 	0.7086	0.84241	0.798	0.036
Mof_C 	C 	0.7539	0.8459	0.8728	-0.071
Mof_H 	H 	0.7921	0.8249	0.8621	0.033
Mof_C 	C 	0.7455	0.8787	0.962	-0.07
Mof_H 	H 	0.7782	0.8808	0.0113	0.033
Mof_C 	C 	0.6905	0.90899	0.9821	0.036
Mof_C 	C 	0.6438	0.9041	0.9077	-0.068
Mof_H 	H 	0.6051	0.9239	0.9193	0.044
Mof_C 	C 	0.653	0.8715	0.8186	-0.073
Mof_H 	H 	0.6202	0.8687	0.7695	0.051
Mof_C 	C 	0.58622	0.87092	0.2632	0.317
Mof_C 	C 	0.63069	0.85612	0.174	-0.012
Mof_H 	H 	0.6077	0.8588	0.1068	0.034
Mof_C 	C 	0.657	0.79008	0.187	-0.414
Mof_H 	H 	0.696	0.7872	0.1466	0.133
Mof_H 	H 	0.6679	0.7841	0.2609	0.13
Mof_C 	C 	0.6154	0.7375	0.1544	0.565
Mof_H 	H 	0.5752	0.7423	0.1922	-0.149
Mof_C 	C 	0.6013	0.7373	0.0406	-0.861
Mof_H 	H 	0.5741	0.7021	0.0243	0.253
Mof_H 	H 	0.64	0.7334	0.0013	0.253
Mof_H 	H 	0.5805	0.7761	0.0217	0.272
Mof_C 	C 	0.6435	0.6766	0.1875	-0.848
Mof_H 	H 	0.6163	0.6425	0.1661	0.248
Mof_H 	H 	0.6481	0.6761	0.2631	0.245
Mof_H 	H 	0.6842	0.6716	0.1549	0.247
Mof_C 	C 	0.6807	0.9437	0.0825	-0.106
Mof_H 	H 	0.7135	0.9754	0.0902	0.035
Mof_H 	H 	0.6402	0.9653	0.08	0.056
Mof_O 	O 	0.53472	0.84604	0.2619	-0.357
Mof_C 	C 	0.8333	0.9758	0.6965	-0.241
Mof_H 	H 	0.8491	0.9436	0.7456	0.085
Mof_C 	C 	0.7838	0.0108	0.7582	0.137
Mof_H 	H 	0.7622	0.0399	0.7123	-0.191
Mof_H 	H 	0.8035	0.0337	0.8149	0.024
Mof_H 	H 	0.7539	0.9811	0.7868	-0.022
Mof_C 	C 	0.8885	0.019	0.6793	0.249
Mof_H 	H 	0.9205	0.9973	0.6392	0.042
Mof_H 	H 	0.9057	0.0316	0.7465	-0.106
Mof_H 	H 	0.8749	0.0559	0.6411	0.196
Mof_C 	C 	0.8162	0.0066	0.6065	0.122
Mof_H 	H 	0.7944	0.0215	0.5427	-0.022
Mof_C 	C 	0.884	0.0294	0.597	-0.807
Mof_H 	H 	0.9076	0.0161	0.658	0.025
Mof_H 	H 	0.8846	0.0748	0.5925	0.127
Mof_H 	H 	0.9028	0.0118	0.5344	0.252
Mof_C 	C 	0.7771	0.029	0.6983	0.219
Mof_H 	H 	0.739	0.0042	0.7026	-0.005
Mof_H 	H 	0.7663	0.0727	0.6885	0.018
Mof_H 	H 	0.8008	0.0242	0.7626	-0.129
Mof_Cu	Cu	0.20947	0.20947	0.5	0.879
Mof_Cu	Cu	0.79053	0.79053	0.5	0.879
Mof_Cu	Cu	0.29053	0.70947	0.5	0.879
Mof_Cu	Cu	0.70947	0.29053	0.5	0.879
_end
