data_functionalizedCrystal
_audit_creation_method	'EQeq! by Chris Wilmer'
_symmetry_space_group_name_H-M	'P1'
_symmetry_Int_Tables_number	1
_symmetry_cell_setting	triclinic
loop_
_symmetry_equiv_pos_as_xyz
  x,y,z
_cell_length_a	27.1319
_cell_length_b	27.1319
_cell_length_c	27.1319
_cell_angle_alpha	90
_cell_angle_beta	90
_cell_angle_gamma	90
loop_
_atom_site_label
_atom_site_type_symbol
_atom_site_fract_x
_atom_site_fract_y
_atom_site_fract_z
_atom_site_charge
Mof_In	In	0.22442	0.31585	0.25716	3.487
Mof_O 	O 	0.25176	0.28311	0.19612	-1.334
Mof_O 	O 	0.19773	0.34344	0.31897	-0.874
Mof_O 	O 	0.16189	0.32846	0.22104	-0.82
Mof_O 	O 	0.14324	0.25527	0.18432	-0.401
Mof_O 	O 	0.25345	0.37971	0.23609	-0.872
Mof_C 	C 	0.05213	0.29579	0.14839	0.041
Mof_H 	H 	0.05684	0.25635	0.14532	0.043
Mof_C 	C 	0.13337	0.30212	0.19403	0.492
Mof_C 	C 	0.08764	0.3249	0.17257	-0.131
Mof_C 	C 	0.0094	0.31691	0.12813	-0.07
Mof_H 	H 	0.98279	0.29267	0.11097	0.053
Mof_C 	C 	0.00074	0.36813	0.1307	0.033
Mof_C 	C 	0.03646	0.39722	0.15507	-0.075
Mof_H 	H 	0.03219	0.43675	0.1575	0.053
Mof_C 	C 	0.07894	0.37593	0.17591	0.051
Mof_H 	H 	0.10525	0.39968	0.19424	0.035
Mof_C 	C 	0.29859	0.51003	0.1612	-0.08
Mof_H 	H 	0.29406	0.5123	0.1217	0.054
Mof_O 	O 	0.29	0.40532	0.30505	-0.566
Mof_C 	C 	0.28105	0.46764	0.18522	0.057
Mof_H 	H 	0.26327	0.43925	0.16357	0.04
Mof_C 	C 	0.93336	0.43341	0.12886	-0.057
Mof_H 	H 	0.94971	0.44963	0.16134	0.048
Mof_C 	C 	0.9551	0.39087	0.10811	0.017
Mof_C 	C 	0.34426	0.59217	0.16165	0.013
Mof_C 	C 	0.3235	0.54745	0.18744	0.036
Mof_C 	C 	0.27606	0.4131	0.26035	0.538
Mof_C 	C 	0.32179	0.61142	0.11881	-0.055
Mof_H 	H 	0.2896	0.59327	0.10407	0.044
Mof_C 	C 	0.28858	0.46084	0.23607	-0.168
Mof_C 	C 	0.31247	0.49839	0.26256	0.053
Mof_H 	H 	0.31928	0.49449	0.3017	0.026
Mof_O 	O 	0.26213	0.38458	0.35033	-0.541
Mof_C 	C 	0.21602	0.372	0.35156	0.54
Mof_C 	C 	0.32917	0.54113	0.2388	-0.083
Mof_H 	H 	0.34691	0.56908	0.26096	0.053
Mof_C 	C 	0.13177	0.383	0.38941	0.063
Mof_H 	H 	0.11532	0.36544	0.35756	0.038
Mof_C 	C 	0.18299	0.39108	0.39141	-0.168
Mof_C 	C 	0.08767	0.43144	0.51462	0.014
Mof_C 	C 	0.04634	0.40204	0.52635	-0.056
Mof_H 	H 	0.03803	0.37026	0.50383	0.047
Mof_C 	C 	0.20245	0.41364	0.43381	0.054
Mof_H 	H 	0.24181	0.41934	0.43729	0.023
Mof_C 	C 	0.10099	0.39685	0.42864	-0.082
Mof_H 	H 	0.06174	0.39052	0.42504	0.058
Mof_C 	C 	0.17174	0.42697	0.47337	-0.08
Mof_H 	H 	0.18862	0.44239	0.50605	0.052
Mof_C 	C 	0.12042	0.41856	0.47163	0.037
Mof_N 	N 	0.24856	0.33658	0.09342	0.022
Mof_O 	O 	0.16987	0.14042	0.21993	-0.175
Mof_O 	O 	0.37955	0.38408	0.37899	-0.469
Mof_In	In	0.27542	0.68437	0.75706	3.491
Mof_O 	O 	0.24839	0.71733	0.69601	-1.337
Mof_O 	O 	0.30238	0.65626	0.81846	-0.872
Mof_O 	O 	0.33775	0.6715	0.72062	-0.819
Mof_O 	O 	0.35683	0.74469	0.68421	-0.402
Mof_O 	O 	0.24622	0.62075	0.73578	-0.874
Mof_C 	C 	0.44777	0.70381	0.64846	0.043
Mof_H 	H 	0.44308	0.74325	0.64507	0.044
Mof_C 	C 	0.36643	0.69778	0.69377	0.495
Mof_C 	C 	0.41209	0.67486	0.67257	-0.131
Mof_C 	C 	0.49059	0.68252	0.62866	-0.07
Mof_H 	H 	0.51734	0.70665	0.61158	0.054
Mof_C 	C 	0.49909	0.63129	0.63158	0.034
Mof_C 	C 	0.46317	0.60235	0.65571	-0.075
Mof_H 	H 	0.46734	0.5628	0.65828	0.054
Mof_C 	C 	0.4206	0.6238	0.67611	0.052
Mof_H 	H 	0.39403	0.60019	0.69424	0.035
Mof_C 	C 	0.20176	0.49002	0.66098	-0.08
Mof_H 	H 	0.20647	0.48748	0.62149	0.054
Mof_O 	O 	0.20971	0.59515	0.80478	-0.567
Mof_C 	C 	0.21905	0.53254	0.68497	0.056
Mof_H 	H 	0.23674	0.56093	0.66318	0.041
Mof_C 	C 	0.56653	0.56607	0.63042	-0.056
Mof_H 	H 	0.55015	0.55013	0.66303	0.048
Mof_C 	C 	0.5447	0.6084	0.60932	0.017
Mof_C 	C 	0.15623	0.40782	0.66162	0.013
Mof_C 	C 	0.17697	0.45259	0.68731	0.036
Mof_C 	C 	0.2236	0.58736	0.76005	0.538
Mof_C 	C 	0.17884	0.38832	0.61898	-0.055
Mof_H 	H 	0.21124	0.40627	0.6044	0.044
Mof_C 	C 	0.21145	0.53942	0.73581	-0.167
Mof_C 	C 	0.18759	0.50187	0.76232	0.053
Mof_H 	H 	0.18067	0.50596	0.80136	0.027
Mof_O 	O 	0.23771	0.61577	0.85026	-0.544
Mof_C 	C 	0.28394	0.62795	0.8512	0.542
Mof_C 	C 	0.17112	0.45902	0.73862	-0.083
Mof_H 	H 	0.15351	0.43103	0.76087	0.054
Mof_C 	C 	0.36815	0.61602	0.88858	0.063
Mof_H 	H 	0.38465	0.63299	0.85646	0.039
Mof_C 	C 	0.31687	0.60843	0.89085	-0.168
Mof_C 	C 	0.41208	0.56905	0.01427	0.013
Mof_C 	C 	0.4534	0.59861	0.02572	-0.056
Mof_H 	H 	0.46142	0.63049	0.00319	0.046
Mof_C 	C 	0.29733	0.58607	0.93335	0.055
Mof_H 	H 	0.25801	0.58043	0.93681	0.023
Mof_C 	C 	0.39887	0.60257	0.92793	-0.083
Mof_H 	H 	0.43807	0.60883	0.92432	0.057
Mof_C 	C 	0.32801	0.57301	0.973	-0.08
Mof_H 	H 	0.31109	0.55793	0.00579	0.052
Mof_C 	C 	0.37932	0.58143	0.97117	0.037
Mof_N 	N 	0.26725	0.67589	0.59959	0.024
Mof_O 	O 	0.33054	0.8597	0.71984	-0.177
Mof_O 	O 	0.12053	0.61671	0.87913	-0.469
Mof_In	In	0.77535	0.81551	0.24339	3.475
Mof_O 	O 	0.74806	0.78267	0.30428	-1.335
Mof_O 	O 	0.80241	0.84373	0.18178	-0.865
Mof_O 	O 	0.83759	0.82847	0.27981	-0.82
Mof_O 	O 	0.85658	0.75531	0.31637	-0.4
Mof_O 	O 	0.74612	0.8794	0.26455	-0.868
Mof_C 	C 	0.94767	0.79613	0.35187	0.044
Mof_H 	H 	0.94301	0.75669	0.35508	0.046
Mof_C 	C 	0.86619	0.80224	0.30678	0.494
Mof_C 	C 	0.91192	0.82518	0.32794	-0.13
Mof_C 	C 	0.99053	0.81737	0.37164	-0.07
Mof_H 	H 	0.01731	0.79316	0.38858	0.054
Mof_C 	C 	0.99903	0.86862	0.36897	0.034
Mof_C 	C 	0.96316	0.89762	0.34482	-0.074
Mof_H 	H 	0.96737	0.93718	0.34231	0.053
Mof_C 	C 	0.92053	0.8762	0.32441	0.051
Mof_H 	H 	0.89403	0.89987	0.30626	0.033
Mof_C 	C 	0.70174	0.01049	0.33908	-0.08
Mof_H 	H 	0.70637	0.01298	0.37859	0.054
Mof_O 	O 	0.70975	0.90496	0.19549	-0.565
Mof_C 	C 	0.71895	0.96784	0.31522	0.056
Mof_H 	H 	0.73659	0.93948	0.33709	0.04
Mof_C 	C 	0.06637	0.93409	0.37093	-0.057
Mof_H 	H 	0.05005	0.95045	0.33851	0.049
Mof_C 	C 	0.0446	0.89141	0.39151	0.017
Mof_C 	C 	0.65647	0.09296	0.3384	0.013
Mof_C 	C 	0.67713	0.04802	0.31272	0.036
Mof_C 	C 	0.72354	0.91281	0.24023	0.536
Mof_C 	C 	0.67854	0.11188	0.38158	-0.054
Mof_H 	H 	0.71057	0.09362	0.39655	0.044
Mof_C 	C 	0.71146	0.96086	0.26436	-0.167
Mof_C 	C 	0.68784	0.9985	0.23778	0.052
Mof_H 	H 	0.68105	0.99443	0.19865	0.027
Mof_O 	O 	0.73792	0.88447	0.15025	-0.542
Mof_C 	C 	0.78406	0.8722	0.1491	0.538
Mof_C 	C 	0.6715	0.04151	0.26138	-0.083
Mof_H 	H 	0.65413	0.0695	0.23897	0.053
Mof_C 	C 	0.86822	0.88384	0.1112	0.06
Mof_H 	H 	0.88481	0.8666	0.14312	0.042
Mof_C 	C 	0.81695	0.8916	0.10926	-0.167
Mof_C 	C 	0.91177	0.93146	0.98548	0.015
Mof_C 	C 	0.95306	0.90197	0.97377	-0.057
Mof_H 	H 	0.9612	0.87008	0.99622	0.047
Mof_C 	C 	0.79729	0.91417	0.06692	0.054
Mof_H 	H 	0.75794	0.91993	0.06363	0.023
Mof_C 	C 	0.8988	0.89754	0.07177	-0.081
Mof_H 	H 	0.93805	0.89128	0.07521	0.059
Mof_C 	C 	0.82782	0.92741	0.02718	-0.08
Mof_H 	H 	0.81078	0.94273	0.99454	0.052
Mof_C 	C 	0.87913	0.91893	0.02868	0.036
Mof_N 	N 	0.74666	0.8293	0.41318	0.023
Mof_O 	O 	0.83068	0.64043	0.28044	-0.175
Mof_O 	O 	0.62095	0.88336	0.1207	-0.469
Mof_In	In	0.72506	0.18258	0.74337	3.484
Mof_O 	O 	0.7522	0.2158	0.80377	-1.34
Mof_O 	O 	0.69772	0.15324	0.6827	-0.87
Mof_O 	O 	0.66206	0.17283	0.7813	-0.833
Mof_O 	O 	0.64092	0.24528	0.81531	-0.563
Mof_O 	O 	0.75444	0.1196	0.76429	-0.892
Mof_C 	C 	0.55131	0.20514	0.85252	0.06
Mof_H 	H 	0.55617	0.24462	0.85587	0.035
Mof_C 	C 	0.63259	0.19951	0.80736	0.572
Mof_C 	C 	0.58712	0.17635	0.82855	-0.165
Mof_C 	C 	0.50861	0.18362	0.87212	-0.079
Mof_H 	H 	0.48156	0.20769	0.88902	0.056
Mof_C 	C 	0.50049	0.13229	0.8693	0.04
Mof_C 	C 	0.53653	0.10346	0.84536	-0.083
Mof_H 	H 	0.53264	0.06382	0.84276	0.055
Mof_C 	C 	0.57899	0.12521	0.82509	0.065
Mof_H 	H 	0.60578	0.10174	0.80709	0.027
Mof_C 	C 	0.7996	0.98921	0.83936	-0.081
Mof_H 	H 	0.79496	0.98681	0.87883	0.054
Mof_O 	O 	0.79145	0.09474	0.69546	-0.586
Mof_C 	C 	0.7825	0.03175	0.81527	0.057
Mof_H 	H 	0.76491	0.0601	0.83706	0.04
Mof_C 	C 	0.43348	0.0665	0.87099	-0.056
Mof_H 	H 	0.44993	0.05037	0.8385	0.048
Mof_C 	C 	0.45504	0.10918	0.89175	0.015
Mof_C 	C 	0.8447	0.90692	0.83894	0.013
Mof_C 	C 	0.82404	0.95159	0.8131	0.036
Mof_C 	C 	0.77745	0.08664	0.73997	0.552
Mof_C 	C 	0.82242	0.88775	0.88188	-0.055
Mof_H 	H 	0.79027	0.9059	0.89666	0.044
Mof_C 	C 	0.78991	0.03865	0.76426	-0.17
Mof_C 	C 	0.81379	0.00087	0.73794	0.053
Mof_H 	H 	0.82061	0.00475	0.69888	0.026
Mof_O 	O 	0.76321	0.11638	0.64811	-0.553
Mof_C 	C 	0.71662	0.12693	0.6485	0.551
Mof_C 	C 	0.82997	0.95788	0.76175	-0.083
Mof_H 	H 	0.84739	0.9298	0.7395	0.053
Mof_C 	C 	0.63202	0.11545	0.61129	0.062
Mof_H 	H 	0.61567	0.13294	0.6433	0.035
Mof_C 	C 	0.68332	0.10769	0.60889	-0.17
Mof_C 	C 	0.58749	0.06812	0.4857	0.013
Mof_C 	C 	0.54627	0.09772	0.47396	-0.056
Mof_H 	H 	0.53784	0.12936	0.49671	0.046
Mof_C 	C 	0.70255	0.0853	0.5663	0.056
Mof_H 	H 	0.74189	0.07971	0.56265	0.025
Mof_C 	C 	0.60113	0.10189	0.57208	-0.085
Mof_H 	H 	0.56198	0.10863	0.57562	0.057
Mof_C 	C 	0.67165	0.07213	0.5268	-0.081
Mof_H 	H 	0.68853	0.05726	0.4939	0.052
Mof_C 	C 	0.62038	0.08043	0.52883	0.038
Mof_N 	N 	0.76102	0.17624	0.90936	0.024
Mof_O 	O 	0.7135	0.32277	0.85944	-0.204
Mof_O 	O 	0.88022	0.11666	0.62176	-0.473
Mof_In	In	0.2579	0.22569	0.31717	3.485
Mof_O 	O 	0.19688	0.25224	0.28361	-1.333
Mof_O 	O 	0.3173	0.2019	0.35274	-0.885
Mof_O 	O 	0.22274	0.16222	0.32925	-0.815
Mof_O 	O 	0.18535	0.14297	0.25667	-0.411
Mof_O 	O 	0.23517	0.2551	0.38063	-0.878
Mof_C 	C 	0.15042	0.05215	0.29684	0.043
Mof_H 	H 	0.14755	0.05675	0.2574	0.044
Mof_C 	C 	0.19582	0.13336	0.30328	0.498
Mof_C 	C 	0.17466	0.0877	0.32604	-0.133
Mof_C 	C 	0.12971	0.00977	0.31792	-0.071
Mof_H 	H 	0.11254	0.98321	0.29363	0.054
Mof_C 	C 	0.13185	0.00134	0.36913	0.034
Mof_C 	C 	0.15625	0.03697	0.39832	-0.075
Mof_H 	H 	0.1583	0.03271	0.43787	0.054
Mof_C 	C 	0.17757	0.07919	0.37712	0.054
Mof_H 	H 	0.19577	0.10555	0.40095	0.037
Mof_C 	C 	0.15867	0.29986	0.51292	-0.085
Mof_H 	H 	0.11932	0.29433	0.51635	0.056
Mof_O 	O 	0.29414	0.30862	0.40237	-0.722
Mof_C 	C 	0.18182	0.28353	0.46953	0.07
Mof_H 	H 	0.15967	0.26595	0.44142	0.044
Mof_C 	C 	0.12974	0.93394	0.43404	-0.057
Mof_H 	H 	0.16228	0.95013	0.45022	0.048
Mof_C 	C 	0.10899	0.95589	0.39164	0.017
Mof_C 	C 	0.16026	0.34578	0.59514	0.011
Mof_C 	C 	0.18533	0.32504	0.54993	0.041
Mof_C 	C 	0.25534	0.28406	0.41199	0.624
Mof_C 	C 	0.11769	0.32325	0.61485	-0.054
Mof_H 	H 	0.10306	0.2909	0.59699	0.044
Mof_C 	C 	0.2321	0.29269	0.46121	-0.199
Mof_C 	C 	0.25916	0.31591	0.49888	0.068
Mof_H 	H 	0.29811	0.32332	0.49409	0.022
Mof_O 	O 	0.37088	0.26504	0.36228	-0.562
Mof_C 	C 	0.35824	0.21936	0.36843	0.573
Mof_C 	C 	0.23637	0.33136	0.5425	-0.09
Mof_H 	H 	0.25917	0.34881	0.57023	0.055
Mof_C 	C 	0.39187	0.13358	0.38287	0.066
Mof_H 	H 	0.35973	0.11798	0.36503	0.033
Mof_C 	C 	0.39582	0.18489	0.38943	-0.179
Mof_C 	C 	0.51597	0.0873	0.43282	0.013
Mof_C 	C 	0.52745	0.04609	0.40343	-0.055
Mof_H 	H 	0.5049	0.0379	0.37161	0.047
Mof_C 	C 	0.43867	0.20341	0.41204	0.061
Mof_H 	H 	0.44331	0.24268	0.41731	0.027
Mof_C 	C 	0.43009	0.10193	0.39767	-0.085
Mof_H 	H 	0.4256	0.06276	0.39168	0.058
Mof_C 	C 	0.47689	0.1719	0.42669	-0.084
Mof_H 	H 	0.50992	0.18811	0.44204	0.052
Mof_C 	C 	0.47355	0.12058	0.41942	0.039
Mof_N 	N 	0.09108	0.22811	0.34731	0.022
Mof_O 	O 	0.21912	0.16806	0.14185	-0.174
Mof_In	In	0.75801	0.27438	0.68372	3.533
Mof_O 	O 	0.69796	0.24475	0.71355	-1.359
Mof_O 	O 	0.81731	0.29876	0.64821	-0.903
Mof_O 	O 	0.7225	0.33751	0.67309	-0.83
Mof_O 	O 	0.68049	0.35351	0.7439	-0.398
Mof_O 	O 	0.73558	0.24599	0.61926	-0.883
Mof_C 	C 	0.6487	0.44691	0.70531	0.047
Mof_H 	H 	0.64512	0.44175	0.74478	0.045
Mof_C 	C 	0.69395	0.36527	0.69861	0.509
Mof_C 	C 	0.67347	0.41146	0.67617	-0.132
Mof_C 	C 	0.62853	0.48981	0.6841	-0.071
Mof_H 	H 	0.61108	0.51611	0.70827	0.054
Mof_C 	C 	0.6316	0.49848	0.63291	0.035
Mof_C 	C 	0.65623	0.46297	0.60391	-0.075
Mof_H 	H 	0.65889	0.467	0.56439	0.054
Mof_C 	C 	0.67704	0.42049	0.62521	0.054
Mof_H 	H 	0.69524	0.39408	0.60176	0.034
Mof_C 	C 	0.6582	0.19965	0.48815	-0.09
Mof_H 	H 	0.6188	0.20482	0.48506	0.054
Mof_O 	O 	0.79296	0.19104	0.59848	-0.722
Mof_C 	C 	0.68142	0.21612	0.5315	0.076
Mof_H 	H 	0.65948	0.23346	0.55996	0.03
Mof_C 	C 	0.62981	0.56556	0.56722	-0.057
Mof_H 	H 	0.66234	0.54921	0.55114	0.047
Mof_C 	C 	0.6091	0.54398	0.60992	0.017
Mof_C 	C 	0.65996	0.1543	0.40552	0.01
Mof_C 	C 	0.68493	0.17475	0.45095	0.043
Mof_C 	C 	0.75498	0.21657	0.58825	0.64
Mof_C 	C 	0.61782	0.17738	0.3856	-0.054
Mof_H 	H 	0.60314	0.20944	0.40391	0.043
Mof_C 	C 	0.73174	0.20747	0.53937	-0.211
Mof_C 	C 	0.75892	0.18444	0.50163	0.074
Mof_H 	H 	0.79803	0.17739	0.50607	0.02
Mof_O 	O 	0.87006	0.2354	0.63665	-0.578
Mof_C 	C 	0.85767	0.28119	0.63139	0.584
Mof_C 	C 	0.73606	0.16888	0.45805	-0.094
Mof_H 	H 	0.75873	0.15164	0.4301	0.056
Mof_C 	C 	0.89162	0.36718	0.6172	0.066
Mof_H 	H 	0.85977	0.38282	0.63533	0.027
Mof_C 	C 	0.89509	0.31581	0.61048	-0.185
Mof_C 	C 	0.01588	0.41282	0.56718	0.012
Mof_C 	C 	0.02733	0.45435	0.59629	-0.055
Mof_H 	H 	0.00457	0.46287	0.62787	0.045
Mof_C 	C 	0.93784	0.29712	0.58768	0.064
Mof_H 	H 	0.94252	0.25782	0.58239	0.028
Mof_C 	C 	0.93	0.39867	0.60226	-0.088
Mof_H 	H 	0.9257	0.4378	0.60828	0.056
Mof_C 	C 	0.97624	0.32847	0.57302	-0.085
Mof_H 	H 	0.0092	0.31207	0.55756	0.053
Mof_C 	C 	0.97333	0.37976	0.58052	0.04
Mof_N 	N 	0.57941	0.2703	0.66482	0.022
Mof_In	In	0.24259	0.77453	0.81732	3.489
Mof_O 	O 	0.30328	0.74797	0.78344	-1.333
Mof_O 	O 	0.18338	0.79873	0.85334	-0.877
Mof_O 	O 	0.2786	0.83749	0.82954	-0.812
Mof_O 	O 	0.31569	0.85694	0.75683	-0.408
Mof_O 	O 	0.26552	0.74499	0.88055	-0.881
Mof_C 	C 	0.3505	0.94774	0.79706	0.045
Mof_H 	H 	0.35337	0.94315	0.75759	0.045
Mof_C 	C 	0.30562	0.86634	0.8036	0.502
Mof_C 	C 	0.32666	0.91208	0.82637	-0.13
Mof_C 	C 	0.37076	0.99043	0.81804	-0.07
Mof_H 	H 	0.38767	0.01711	0.79372	0.054
Mof_C 	C 	0.36851	0.99887	0.86927	0.035
Mof_C 	C 	0.34446	0.96311	0.8985	-0.074
Mof_H 	H 	0.34232	0.96736	0.93809	0.055
Mof_C 	C 	0.3236	0.92061	0.87734	0.056
Mof_H 	H 	0.3056	0.89415	0.90116	0.038
Mof_C 	C 	0.34195	0.69999	0.01277	-0.086
Mof_H 	H 	0.38125	0.70559	0.01616	0.055
Mof_O 	O 	0.20642	0.69172	0.90239	-0.723
Mof_C 	C 	0.31878	0.71662	0.96948	0.071
Mof_H 	H 	0.3407	0.73476	0.94161	0.044
Mof_C 	C 	0.37027	0.06632	0.93418	-0.056
Mof_H 	H 	0.33771	0.0499	0.95037	0.049
Mof_C 	C 	0.39105	0.04452	0.89175	0.017
Mof_C 	C 	0.34023	0.65397	0.09492	0.011
Mof_C 	C 	0.31525	0.67454	0.04961	0.041
Mof_C 	C 	0.24532	0.71612	0.91194	0.627
Mof_C 	C 	0.38251	0.67685	0.11471	-0.055
Mof_H 	H 	0.39709	0.70918	0.09679	0.044
Mof_C 	C 	0.26855	0.70731	0.96108	-0.2
Mof_C 	C 	0.24148	0.68379	0.99857	0.069
Mof_H 	H 	0.20256	0.67636	0.99378	0.021
Mof_O 	O 	0.12968	0.73573	0.86279	-0.56
Mof_C 	C 	0.14242	0.78136	0.86916	0.569
Mof_C 	C 	0.26424	0.6682	0.04219	-0.091
Mof_H 	H 	0.24152	0.65066	0.06983	0.055
Mof_C 	C 	0.10922	0.86721	0.88567	0.064
Mof_H 	H 	0.14204	0.88314	0.8695	0.043
Mof_C 	C 	0.10473	0.81573	0.8904	-0.175
Mof_C 	C 	0.98382	0.91285	0.93317	0.014
Mof_C 	C 	0.97265	0.9545	0.90415	-0.056
Mof_H 	H 	0.99581	0.96317	0.87289	0.048
Mof_C 	C 	0.06125	0.79696	0.91162	0.059
Mof_H 	H 	0.05616	0.7576	0.91571	0.028
Mof_C 	C 	0.07064	0.89874	0.90016	-0.082
Mof_H 	H 	0.07544	0.93808	0.89549	0.06
Mof_C 	C 	0.02287	0.82835	0.92618	-0.082
Mof_H 	H 	0.98946	0.81194	0.94048	0.052
Mof_C 	C 	0.02649	0.87976	0.92009	0.038
Mof_N 	N 	0.41781	0.77062	0.86609	0.02
Mof_O 	O 	0.28108	0.8326	0.64203	-0.176
Mof_In	In	0.74253	0.7254	0.1831	3.491
Mof_O 	O 	0.80314	0.752	0.21698	-1.335
Mof_O 	O 	0.68355	0.70153	0.14648	-0.877
Mof_O 	O 	0.77812	0.66216	0.17097	-0.814
Mof_O 	O 	0.8153	0.64274	0.24363	-0.405
Mof_O 	O 	0.76598	0.7548	0.1201	-0.888
Mof_C 	C 	0.85024	0.55192	0.20325	0.045
Mof_H 	H 	0.85334	0.55659	0.24271	0.045
Mof_C 	C 	0.80503	0.63324	0.19693	0.502
Mof_C 	C 	0.82604	0.58749	0.17411	-0.13
Mof_C 	C 	0.8706	0.50933	0.18213	-0.07
Mof_H 	H 	0.88775	0.48274	0.2064	0.054
Mof_C 	C 	0.86813	0.50087	0.13095	0.035
Mof_C 	C 	0.84382	0.53652	0.1018	-0.074
Mof_H 	H 	0.84154	0.53231	0.06223	0.054
Mof_C 	C 	0.82285	0.5789	0.12307	0.053
Mof_H 	H 	0.80464	0.60533	0.09935	0.035
Mof_C 	C 	0.8432	0.80035	0.98846	-0.088
Mof_H 	H 	0.88262	0.7954	0.98522	0.055
Mof_O 	O 	0.70711	0.80828	0.09793	-0.723
Mof_C 	C 	0.82008	0.78401	0.03193	0.072
Mof_H 	H 	0.84224	0.76703	0.06048	0.034
Mof_C 	C 	0.86988	0.43352	0.06584	-0.057
Mof_H 	H 	0.83736	0.44987	0.04978	0.049
Mof_C 	C 	0.89077	0.45532	0.10826	0.017
Mof_C 	C 	0.84103	0.84529	0.90573	0.011
Mof_C 	C 	0.81624	0.82481	0.95113	0.042
Mof_C 	C 	0.74603	0.78373	0.08863	0.628
Mof_C 	C 	0.8832	0.82239	0.88582	-0.054
Mof_H 	H 	0.89784	0.7901	0.90382	0.044
Mof_C 	C 	0.76957	0.79239	0.03968	-0.204
Mof_C 	C 	0.74233	0.81483	0.00169	0.07
Mof_H 	H 	0.70322	0.82157	0.00611	0.021
Mof_O 	O 	0.62994	0.76455	0.13699	-0.563
Mof_C 	C 	0.64274	0.719	0.13046	0.571
Mof_C 	C 	0.7651	0.83032	0.95807	-0.092
Mof_H 	H 	0.74228	0.84708	0.93	0.055
Mof_C 	C 	0.60998	0.63327	0.11275	0.063
Mof_H 	H 	0.64303	0.61732	0.12835	0.043
Mof_C 	C 	0.60518	0.68479	0.1088	-0.175
Mof_C 	C 	0.48431	0.58776	0.06618	0.013
Mof_C 	C 	0.47321	0.54623	0.09541	-0.055
Mof_H 	H 	0.49654	0.53763	0.12657	0.047
Mof_C 	C 	0.56151	0.70364	0.08803	0.06
Mof_H 	H 	0.55622	0.74301	0.08443	0.029
Mof_C 	C 	0.5714	0.60177	0.09828	-0.082
Mof_H 	H 	0.57637	0.56239	0.10241	0.059
Mof_C 	C 	0.52312	0.67228	0.07346	-0.082
Mof_H 	H 	0.48952	0.68868	0.05959	0.052
Mof_C 	C 	0.527	0.62083	0.079	0.038
Mof_N 	N 	0.90782	0.75184	0.18389	0.024
Mof_O 	O 	0.78092	0.66762	0.3585	-0.177
Mof_In	In	0.31605	0.2592	0.22417	3.464
Mof_O 	O 	0.28488	0.19784	0.25332	-1.324
Mof_O 	O 	0.34399	0.32113	0.19805	-0.897
Mof_O 	O 	0.32809	0.22218	0.16191	-0.81
Mof_O 	O 	0.2559	0.18363	0.14366	-0.405
Mof_O 	O 	0.38495	0.24359	0.24585	-0.86
Mof_C 	C 	0.29595	0.14923	0.05254	0.046
Mof_H 	H 	0.25642	0.14626	0.05716	0.045
Mof_C 	C 	0.30236	0.1944	0.13366	0.503
Mof_C 	C 	0.32516	0.1732	0.08806	-0.131
Mof_C 	C 	0.31703	0.12899	0.00991	-0.071
Mof_H 	H 	0.29273	0.112	0.98319	0.055
Mof_C 	C 	0.36817	0.13138	0.00153	0.035
Mof_C 	C 	0.3974	0.15547	0.03724	-0.075
Mof_H 	H 	0.43697	0.15764	0.03304	0.054
Mof_C 	C 	0.37617	0.17636	0.07958	0.054
Mof_H 	H 	0.39992	0.1945	0.10608	0.036
Mof_C 	C 	0.51439	0.16034	0.29303	-0.082
Mof_H 	H 	0.51777	0.12132	0.28583	0.054
Mof_O 	O 	0.39903	0.28511	0.31658	-0.577
Mof_C 	C 	0.4718	0.18437	0.27582	0.062
Mof_H 	H 	0.44449	0.1634	0.25585	0.038
Mof_C 	C 	0.43317	0.1297	0.93427	-0.056
Mof_H 	H 	0.44927	0.16224	0.95061	0.048
Mof_C 	C 	0.39082	0.10879	0.95603	0.017
Mof_C 	C 	0.59477	0.15972	0.34232	0.012
Mof_C 	C 	0.55035	0.18573	0.32099	0.039
Mof_C 	C 	0.41344	0.25663	0.28121	0.57
Mof_C 	C 	0.61446	0.11728	0.31957	-0.055
Mof_H 	H 	0.59703	0.10307	0.28681	0.044
Mof_C 	C 	0.46299	0.23394	0.28755	-0.178
Mof_C 	C 	0.49953	0.25989	0.31352	0.063
Mof_H 	H 	0.49397	0.29828	0.3231	0.019
Mof_O 	O 	0.37019	0.36543	0.26267	-0.721
Mof_C 	C 	0.36659	0.35821	0.21626	0.639
Mof_C 	C 	0.54275	0.23651	0.32921	-0.086
Mof_H 	H 	0.56973	0.25851	0.34853	0.054
Mof_C 	C 	0.3812	0.39243	0.13085	0.079
Mof_H 	H 	0.36307	0.3606	0.11493	0.034
Mof_C 	C 	0.38776	0.39603	0.18218	-0.207
Mof_C 	C 	0.4319	0.51618	0.08534	0.012
Mof_C 	C 	0.40186	0.52806	0.04458	-0.055
Mof_H 	H 	0.37006	0.50543	0.03657	0.047
Mof_C 	C 	0.41171	0.43805	0.20088	0.072
Mof_H 	H 	0.41726	0.44232	0.24014	0.018
Mof_C 	C 	0.39677	0.43049	0.09938	-0.092
Mof_H 	H 	0.39094	0.42623	0.06013	0.06
Mof_C 	C 	0.42695	0.47621	0.16955	-0.091
Mof_H 	H 	0.44313	0.50875	0.18598	0.053
Mof_C 	C 	0.41897	0.47352	0.11831	0.044
Mof_N 	N 	0.33701	0.08275	0.23728	0.02
Mof_O 	O 	0.14102	0.21796	0.17014	-0.179
Mof_In	In	0.68388	0.75838	0.27585	3.466
Mof_O 	O 	0.71551	0.69726	0.2468	-1.324
Mof_O 	O 	0.65549	0.82016	0.30182	-0.893
Mof_O 	O 	0.67167	0.72083	0.33801	-0.805
Mof_O 	O 	0.74399	0.6827	0.35649	-0.406
Mof_O 	O 	0.6156	0.74243	0.25354	-0.871
Mof_C 	C 	0.70376	0.64774	0.44762	0.043
Mof_H 	H 	0.74321	0.64469	0.44287	0.045
Mof_C 	C 	0.69739	0.69307	0.36631	0.496
Mof_C 	C 	0.67457	0.6718	0.412	-0.131
Mof_C 	C 	0.68274	0.62766	0.49044	-0.07
Mof_H 	H 	0.70709	0.6107	0.51706	0.053
Mof_C 	C 	0.63159	0.63022	0.49909	0.034
Mof_C 	C 	0.60238	0.6544	0.46336	-0.074
Mof_H 	H 	0.56284	0.6568	0.46766	0.054
Mof_C 	C 	0.62356	0.67512	0.42078	0.051
Mof_H 	H 	0.59981	0.69334	0.39437	0.036
Mof_C 	C 	0.48773	0.65813	0.20407	-0.084
Mof_H 	H 	0.48502	0.61872	0.20938	0.053
Mof_O 	O 	0.60156	0.78423	0.18292	-0.581
Mof_C 	C 	0.53049	0.682	0.22107	0.065
Mof_H 	H 	0.55886	0.66053	0.239	0.033
Mof_C 	C 	0.56654	0.62875	0.56661	-0.057
Mof_H 	H 	0.5503	0.66108	0.55005	0.049
Mof_C 	C 	0.60903	0.60788	0.54492	0.017
Mof_C 	C 	0.40606	0.65864	0.15744	0.012
Mof_C 	C 	0.4507	0.68429	0.1784	0.04
Mof_C 	C 	0.5873	0.75543	0.21808	0.577
Mof_C 	C 	0.38663	0.61608	0.18008	-0.055
Mof_H 	H 	0.40453	0.60161	0.21251	0.043
Mof_C 	C 	0.53811	0.73225	0.21151	-0.182
Mof_C 	C 	0.50065	0.75876	0.18752	0.065
Mof_H 	H 	0.50552	0.79757	0.17945	0.019
Mof_O 	O 	0.62947	0.86452	0.23702	-0.72
Mof_C 	C 	0.63286	0.85721	0.28345	0.636
Mof_C 	C 	0.45738	0.73543	0.17196	-0.087
Mof_H 	H 	0.42962	0.75773	0.15407	0.055
Mof_C 	C 	0.6165	0.89088	0.36883	0.078
Mof_H 	H 	0.63266	0.85819	0.38489	0.042
Mof_C 	C 	0.61172	0.89519	0.31738	-0.204
Mof_C 	C 	0.56821	0.01559	0.41415	0.012
Mof_C 	C 	0.59767	0.02697	0.4555	-0.056
Mof_H 	H 	0.62896	0.00387	0.46403	0.048
Mof_C 	C 	0.58963	0.93814	0.29838	0.072
Mof_H 	H 	0.58536	0.94301	0.25903	0.019
Mof_C 	C 	0.60145	0.92921	0.40022	-0.089
Mof_H 	H 	0.60594	0.92441	0.43956	0.062
Mof_C 	C 	0.57472	0.97644	0.32967	-0.089
Mof_H 	H 	0.55993	0.00959	0.31321	0.054
Mof_C 	C 	0.58115	0.97306	0.3811	0.043
Mof_N 	N 	0.66973	0.57547	0.24302	0.022
Mof_O 	O 	0.85887	0.71797	0.33051	-0.179
Mof_In	In	0.81546	0.24231	0.77552	3.499
Mof_O 	O 	0.78064	0.30305	0.74885	-1.328
Mof_O 	O 	0.84449	0.18125	0.80285	-0.888
Mof_O 	O 	0.82788	0.27962	0.83699	-0.814
Mof_O 	O 	0.75329	0.3144	0.85566	-0.359
Mof_O 	O 	0.88357	0.25944	0.75278	-0.879
Mof_C 	C 	0.79514	0.35218	0.94644	0.041
Mof_H 	H 	0.75574	0.35568	0.9417	0.046
Mof_C 	C 	0.80135	0.30631	0.86524	0.487
Mof_C 	C 	0.8241	0.32803	0.91078	-0.122
Mof_C 	C 	0.81636	0.37177	0.98944	-0.067
Mof_H 	H 	0.79217	0.38875	0.01621	0.054
Mof_C 	C 	0.86756	0.3687	0.99815	0.034
Mof_C 	C 	0.89649	0.34453	0.96232	-0.072
Mof_H 	H 	0.93603	0.34171	0.96672	0.054
Mof_C 	C 	0.87512	0.32431	0.91958	0.052
Mof_H 	H 	0.89885	0.30599	0.89324	0.039
Mof_C 	C 	0.01172	0.34318	0.70314	-0.086
Mof_H 	H 	0.01437	0.38266	0.70765	0.053
Mof_O 	O 	0.89929	0.21545	0.68401	-0.595
Mof_C 	C 	0.96875	0.31959	0.72006	0.067
Mof_H 	H 	0.93984	0.34138	0.73686	0.027
Mof_C 	C 	0.93307	0.37023	0.06559	-0.057
Mof_H 	H 	0.9492	0.33771	0.04921	0.048
Mof_C 	C 	0.89044	0.39097	0.04387	0.018
Mof_C 	C 	0.09395	0.34187	0.65733	0.012
Mof_C 	C 	0.0491	0.3166	0.67831	0.041
Mof_C 	C 	0.91267	0.24552	0.71833	0.585
Mof_C 	C 	0.11356	0.38434	0.67984	-0.055
Mof_H 	H 	0.09548	0.39913	0.7121	0.043
Mof_C 	C 	0.96167	0.26901	0.7117	-0.187
Mof_C 	C 	0.99939	0.24215	0.68863	0.068
Mof_H 	H 	0.99481	0.20312	0.68141	0.018
Mof_O 	O 	0.87106	0.13639	0.73816	-0.722
Mof_C 	C 	0.8674	0.14413	0.78462	0.627
Mof_C 	C 	0.04264	0.26534	0.67287	-0.089
Mof_H 	H 	0.07062	0.2429	0.65564	0.055
Mof_C 	C 	0.88206	0.1094	0.87015	0.075
Mof_H 	H 	0.86439	0.14133	0.88632	0.041
Mof_C 	C 	0.88864	0.10622	0.81875	-0.199
Mof_C 	C 	0.93149	0.98464	0.91456	0.013
Mof_C 	C 	0.90147	0.97258	0.95534	-0.056
Mof_H 	H 	0.86971	0.99524	0.96344	0.047
Mof_C 	C 	0.91237	0.06415	0.79979	0.069
Mof_H 	H 	0.91822	0.06027	0.76056	0.02
Mof_C 	C 	0.89702	0.07081	0.9013	-0.088
Mof_H 	H 	0.89115	0.07474	0.94057	0.061
Mof_C 	C 	0.927	0.02551	0.83076	-0.088
Mof_H 	H 	0.94297	0.99299	0.81403	0.053
Mof_C 	C 	0.91883	0.02771	0.88198	0.042
Mof_N 	N 	0.81758	0.42473	0.76822	0.019
Mof_O 	O 	0.65481	0.34662	0.77517	-0.186
Mof_In	In	0.18422	0.74141	0.72432	3.47
Mof_O 	O 	0.21569	0.80261	0.75348	-1.325
Mof_O 	O 	0.15595	0.67963	0.69822	-0.897
Mof_O 	O 	0.17221	0.77839	0.66196	-0.813
Mof_O 	O 	0.24438	0.81688	0.64373	-0.408
Mof_O 	O 	0.11568	0.75732	0.74604	-0.869
Mof_C 	C 	0.20423	0.85112	0.5523	0.044
Mof_H 	H 	0.2437	0.85421	0.55695	0.045
Mof_C 	C 	0.19794	0.8061	0.63368	0.497
Mof_C 	C 	0.17513	0.82712	0.58798	-0.135
Mof_C 	C 	0.18307	0.8712	0.50959	-0.071
Mof_H 	H 	0.2073	0.88823	0.4829	0.054
Mof_C 	C 	0.13185	0.86867	0.50123	0.034
Mof_C 	C 	0.10275	0.84447	0.53697	-0.076
Mof_H 	H 	0.06319	0.84216	0.53279	0.053
Mof_C 	C 	0.12408	0.82374	0.57942	0.051
Mof_H 	H 	0.10043	0.80561	0.60591	0.034
Mof_C 	C 	0.98774	0.84123	0.79578	-0.084
Mof_H 	H 	0.985	0.88066	0.79065	0.054
Mof_O 	O 	0.10154	0.71574	0.8168	-0.584
Mof_C 	C 	0.03032	0.81745	0.77836	0.065
Mof_H 	H 	0.05846	0.83899	0.76022	0.034
Mof_C 	C 	0.06658	0.87066	0.43392	-0.057
Mof_H 	H 	0.05046	0.83805	0.45018	0.048
Mof_C 	C 	0.10906	0.89134	0.45578	0.017
Mof_C 	C 	0.90649	0.84052	0.84291	0.012
Mof_C 	C 	0.95094	0.81495	0.82166	0.04
Mof_C 	C 	0.0873	0.74431	0.78146	0.577
Mof_C 	C 	0.88697	0.88301	0.82035	-0.055
Mof_H 	H 	0.90477	0.89743	0.78785	0.044
Mof_C 	C 	0.03804	0.76723	0.78785	-0.182
Mof_C 	C 	0.00077	0.74058	0.81194	0.065
Mof_H 	H 	0.00576	0.70177	0.81988	0.018
Mof_O 	O 	0.12954	0.63545	0.76286	-0.721
Mof_C 	C 	0.13313	0.6427	0.71645	0.639
Mof_C 	C 	0.95761	0.76382	0.8279	-0.088
Mof_H 	H 	0.92999	0.74149	0.84595	0.055
Mof_C 	C 	0.11729	0.60899	0.63097	0.079
Mof_H 	H 	0.13389	0.64152	0.61492	0.036
Mof_C 	C 	0.11198	0.60485	0.68241	-0.207
Mof_C 	C 	0.06835	0.48445	0.58572	0.011
Mof_C 	C 	0.09805	0.4726	0.5447	-0.055
Mof_H 	H 	0.12971	0.49537	0.5364	0.047
Mof_C 	C 	0.08932	0.56218	0.70129	0.072
Mof_H 	H 	0.08452	0.55748	0.74062	0.019
Mof_C 	C 	0.1022	0.57067	0.59955	-0.092
Mof_H 	H 	0.10711	0.57522	0.56021	0.06
Mof_C 	C 	0.07439	0.5239	0.66998	-0.091
Mof_H 	H 	0.05917	0.49093	0.68644	0.053
Mof_C 	C 	0.08135	0.52706	0.61864	0.044
Mof_N 	N 	0.16278	0.92319	0.75185	0.022
Mof_O 	O 	0.35902	0.78201	0.66979	-0.18
Mof_Nd	Nd	0.21351	0.21271	0.2135	2.044
Mof_Nd	Nd	0.33052	0.33434	0.33102	3.046
Mof_O 	O 	0.28387	0.28498	0.28417	-2.129
Mof_Nd	Nd	0.28685	0.78759	0.71349	2.06
Mof_Nd	Nd	0.16963	0.66629	0.83109	3.05
Mof_O 	O 	0.21629	0.71548	0.78418	-2.137
Mof_Nd	Nd	0.78666	0.71239	0.2869	2.054
Mof_Nd	Nd	0.6698	0.83377	0.16897	3.051
Mof_O 	O 	0.71618	0.78449	0.21611	-2.132
Mof_Nd	Nd	0.70867	0.28248	0.78517	2.03
Mof_Nd	Nd	0.8311	0.16612	0.66964	3.085
Mof_O 	O 	0.78432	0.21506	0.71636	-2.148
Mof_O 	O 	0.6869	0.55758	0.19975	-0.107
Mof_O 	O 	0.64504	0.61745	0.23237	-0.112
Mof_O 	O 	0.70961	0.58872	0.26989	-0.104
Mof_O 	O 	0.30903	0.6494	0.59329	-0.102
Mof_O 	O 	0.2707	0.71557	0.56958	-0.099
Mof_O 	O 	0.22977	0.64795	0.58224	-0.104
Mof_O 	O 	0.39431	0.80819	0.88899	-0.105
Mof_O 	O 	0.38306	0.73666	0.85493	-0.095
Mof_O 	O 	0.43467	0.78859	0.82273	-0.099
Mof_O 	O 	0.52972	0.27351	0.66222	-0.096
Mof_O 	O 	0.59746	0.31374	0.64824	-0.102
Mof_O 	O 	0.59099	0.26752	0.71323	-0.102
Mof_O 	O 	0.75398	0.12812	0.92044	-0.105
Mof_O 	O 	0.78857	0.19556	0.94616	-0.102
Mof_O 	O 	0.71632	0.19823	0.91185	-0.1
Mof_O 	O 	0.77013	0.41156	0.77598	-0.104
Mof_O 	O 	0.82449	0.4679	0.79222	-0.096
Mof_O 	O 	0.84586	0.39079	0.79138	-0.106
Mof_O 	O 	0.15374	0.95479	0.78935	-0.106
Mof_O 	O 	0.21227	0.91753	0.74948	-0.105
Mof_O 	O 	0.14399	0.8791	0.7655	-0.112
Mof_O 	O 	0.77599	0.81232	0.44976	-0.097
Mof_O 	O 	0.7313	0.87469	0.427	-0.106
Mof_O 	O 	0.70627	0.80009	0.4126	-0.101
Mof_O 	O 	0.24204	0.28794	0.08453	-0.099
Mof_O 	O 	0.25593	0.35835	0.04916	-0.101
Mof_O 	O 	0.20515	0.35389	0.11083	-0.102
Mof_O 	O 	0.37334	0.05003	0.22748	-0.101
Mof_O 	O 	0.35934	0.12548	0.24987	-0.11
Mof_O 	O 	0.31327	0.09114	0.19423	-0.103
Mof_O 	O 	0.05789	0.1909	0.34672	-0.097
Mof_O 	O 	0.13248	0.20986	0.36819	-0.102
Mof_O 	O 	0.07334	0.26267	0.3786	-0.106
Mof_O 	O 	0.94044	0.75634	0.22134	-0.101
Mof_O 	O 	0.90171	0.70298	0.17601	-0.1
Mof_O 	O 	0.93004	0.77027	0.14322	-0.104
_end
