data_functionalizedCrystal
_audit_creation_method	'EQeq! by Chris Wilmer'
_symmetry_space_group_name_H-M	'P1'
_symmetry_Int_Tables_number	1
_symmetry_cell_setting	triclinic
loop_
_symmetry_equiv_pos_as_xyz
  x,y,z
_cell_length_a	21.348
_cell_length_b	7.132
_cell_length_c	15.175
_cell_angle_alpha	90
_cell_angle_beta	90
_cell_angle_gamma	90
loop_
_atom_site_label
_atom_site_type_symbol
_atom_site_fract_x
_atom_site_fract_y
_atom_site_fract_z
_atom_site_charge
Mof_N 	N 	0.4336	0.1525	0.4382	-0.217
Mof_C 	C 	0.3874	0.9013	0.6096	0.17
Mof_H 	H 	0.3764	0.0256	0.6199	-0.075
Mof_C 	C 	0.2573	0.6114	0.6843	-0.065
Mof_C 	C 	0.2951	0.6115	0.7591	-0.049
Mof_H 	H 	0.262	0.5197	0.6385	0.043
Mof_H 	H 	0.3266	0.5163	0.7651	0.043
Mof_N 	N 	0.9336	0.6525	0.9382	-0.184
Mof_C 	C 	0.8874	0.4013	0.1096	0.098
Mof_H 	H 	0.8764	0.5256	0.1199	-0.03
Mof_C 	C 	0.7573	0.1114	0.1843	-0.064
Mof_C 	C 	0.7951	0.1115	0.2591	-0.05
Mof_H 	H 	0.762	0.0197	0.1385	0.025
Mof_H 	H 	0.8266	0.0163	0.2651	0.036
Mof_N 	N 	0.5664	0.3475	0.4382	-0.225
Mof_C 	C 	0.6126	0.5987	0.6096	0.107
Mof_H 	H 	0.6236	0.4744	0.6199	-0.032
Mof_C 	C 	0.7427	0.8886	0.6843	-0.059
Mof_C 	C 	0.7049	0.8885	0.7591	-0.049
Mof_H 	H 	0.738	0.9803	0.6385	0.057
Mof_H 	H 	0.6734	0.9837	0.7651	0.055
Mof_N 	N 	0.0664	0.8475	0.9382	-0.213
Mof_C 	C 	0.1126	0.0987	0.1096	0.027
Mof_H 	H 	0.1236	0.9744	0.1199	0.005
Mof_C 	C 	0.2427	0.3886	0.1843	-0.06
Mof_C 	C 	0.2049	0.3885	0.2591	-0.05
Mof_H 	H 	0.238	0.4803	0.1385	0.035
Mof_H 	H 	0.1734	0.4837	0.2651	0.036
Mof_N 	N 	0.5664	0.6525	0.5618	-0.223
Mof_C 	C 	0.6126	0.4013	0.3904	0.102
Mof_H 	H 	0.6236	0.5256	0.3801	-0.029
Mof_C 	C 	0.7427	0.1114	0.3157	-0.06
Mof_C 	C 	0.7049	0.1115	0.2409	-0.057
Mof_H 	H 	0.738	0.0197	0.3615	0.037
Mof_H 	H 	0.6734	0.0163	0.2349	0.027
Mof_N 	N 	0.0664	0.1525	0.0618	-0.237
Mof_C 	C 	0.1126	0.9013	0.8904	0.171
Mof_H 	H 	0.1236	0.0256	0.8801	-0.069
Mof_C 	C 	0.2427	0.6114	0.8157	-0.062
Mof_C 	C 	0.2049	0.6115	0.7409	-0.057
Mof_H 	H 	0.238	0.5197	0.8615	0.056
Mof_H 	H 	0.1734	0.5163	0.7349	0.035
Mof_N 	N 	0.4336	0.8475	0.5618	-0.227
Mof_C 	C 	0.3874	0.0987	0.3904	0.039
Mof_H 	H 	0.3764	0.9744	0.3801	0.014
Mof_C 	C 	0.2573	0.3886	0.3157	-0.063
Mof_C 	C 	0.2951	0.3885	0.2409	-0.057
Mof_H 	H 	0.262	0.4803	0.3615	0.046
Mof_H 	H 	0.3266	0.4837	0.2349	0.038
Mof_N 	N 	0.9336	0.3475	0.0618	-0.216
Mof_C 	C 	0.8874	0.5987	0.8904	0.118
Mof_H 	H 	0.8764	0.4744	0.8801	-0.018
Mof_C 	C 	0.7573	0.8886	0.8157	-0.063
Mof_C 	C 	0.7951	0.8885	0.7409	-0.056
Mof_H 	H 	0.762	0.9803	0.8615	0.068
Mof_H 	H 	0.8266	0.9837	0.7349	0.058
Mof_N 	N 	0.5664	0.8475	0.5618	-0.227
Mof_C 	C 	0.6126	0.0987	0.3904	0.04
Mof_H 	H 	0.6236	0.9744	0.3801	0.014
Mof_C 	C 	0.7427	0.3886	0.3157	-0.058
Mof_C 	C 	0.7049	0.3885	0.2409	-0.057
Mof_H 	H 	0.738	0.4803	0.3615	0.049
Mof_H 	H 	0.6734	0.4837	0.2349	0.038
Mof_N 	N 	0.0664	0.3475	0.0618	-0.244
Mof_C 	C 	0.1126	0.5987	0.8904	0.11
Mof_H 	H 	0.1236	0.4744	0.8801	-0.026
Mof_C 	C 	0.2427	0.8886	0.8157	-0.06
Mof_C 	C 	0.2049	0.8885	0.7409	-0.057
Mof_H 	H 	0.238	0.9803	0.8615	0.067
Mof_H 	H 	0.1734	0.9837	0.7349	0.047
Mof_N 	N 	0.4336	0.6525	0.5618	-0.223
Mof_C 	C 	0.3874	0.4013	0.3904	0.101
Mof_H 	H 	0.3764	0.5256	0.3801	-0.03
Mof_C 	C 	0.2573	0.1114	0.3157	-0.064
Mof_C 	C 	0.2951	0.1115	0.2409	-0.058
Mof_H 	H 	0.262	0.0197	0.3615	0.034
Mof_H 	H 	0.3266	0.0163	0.2349	0.027
Mof_N 	N 	0.9336	0.1525	0.0618	-0.209
Mof_C 	C 	0.8874	0.9013	0.8904	0.177
Mof_H 	H 	0.8764	0.0256	0.8801	-0.06
Mof_C 	C 	0.7573	0.6114	0.8157	-0.064
Mof_C 	C 	0.7951	0.6115	0.7409	-0.057
Mof_H 	H 	0.762	0.5197	0.8615	0.057
Mof_H 	H 	0.8266	0.5163	0.7349	0.047
Mof_N 	N 	0.4336	0.3475	0.4382	-0.225
Mof_C 	C 	0.3874	0.5987	0.6096	0.107
Mof_H 	H 	0.3764	0.4744	0.6199	-0.033
Mof_C 	C 	0.2573	0.8886	0.6843	-0.063
Mof_C 	C 	0.2951	0.8885	0.7591	-0.049
Mof_H 	H 	0.262	0.9803	0.6385	0.054
Mof_H 	H 	0.3266	0.9837	0.7651	0.055
Mof_N 	N 	0.9336	0.8475	0.9382	-0.188
Mof_C 	C 	0.8874	0.0987	0.1096	0.038
Mof_H 	H 	0.8764	0.9744	0.1199	0.013
Mof_C 	C 	0.7573	0.3886	0.1843	-0.062
Mof_C 	C 	0.7951	0.3885	0.2591	-0.05
Mof_H 	H 	0.762	0.4803	0.1385	0.036
Mof_H 	H 	0.8266	0.4837	0.2651	0.048
Mof_N 	N 	0.5664	0.1525	0.4382	-0.218
Mof_C 	C 	0.6126	0.9013	0.6096	0.169
Mof_H 	H 	0.6236	0.0256	0.6199	-0.076
Mof_C 	C 	0.7427	0.6114	0.6843	-0.061
Mof_C 	C 	0.7049	0.6115	0.7591	-0.049
Mof_H 	H 	0.738	0.5197	0.6385	0.046
Mof_H 	H 	0.6734	0.5163	0.7651	0.043
Mof_N 	N 	0.0664	0.6525	0.9382	-0.209
Mof_C 	C 	0.1126	0.4013	0.1096	0.089
Mof_H 	H 	0.1236	0.5256	0.1199	-0.039
Mof_C 	C 	0.2427	0.1114	0.1843	-0.061
Mof_C 	C 	0.2049	0.1115	0.2591	-0.05
Mof_H 	H 	0.238	0.0197	0.1385	0.023
Mof_H 	H 	0.1734	0.0163	0.2651	0.024
Mof_Cu	Cu	0.5	0	0.5	0.811
Mof_Cu	Cu	-0	0.5	-0	0.766
Mof_Cu	Cu	0.5	0.5	0.5	0.826
Mof_Cu	Cu	-0	0	-0	0.752
Mof_N 	N 	0.3571	0.75	0.6435	-0.172
Mof_C 	C 	0.3017	0.75	0.6967	0.116
Mof_N 	N 	0.8571	0.25	0.1435	-0.152
Mof_C 	C 	0.8017	0.25	0.1967	0.103
Mof_N 	N 	0.6429	0.75	0.6435	-0.171
Mof_C 	C 	0.6983	0.75	0.6967	0.114
Mof_N 	N 	0.1429	0.25	0.1435	-0.153
Mof_C 	C 	0.1983	0.25	0.1967	0.096
Mof_N 	N 	0.6429	0.25	0.3565	-0.153
Mof_C 	C 	0.6983	0.25	0.3033	0.105
Mof_N 	N 	0.1429	0.75	0.8565	-0.173
Mof_C 	C 	0.1983	0.75	0.8033	0.12
Mof_N 	N 	0.3571	0.25	0.3565	-0.154
Mof_C 	C 	0.3017	0.25	0.3033	0.108
Mof_N 	N 	0.8571	0.75	0.8565	-0.171
Mof_C 	C 	0.8017	0.75	0.8033	0.126
_end
