data_functionalizedCrystal
_audit_creation_method	'EQeq! by Chris Wilmer'
_symmetry_space_group_name_H-M	'P1'
_symmetry_Int_Tables_number	1
_symmetry_cell_setting	triclinic
loop_
_symmetry_equiv_pos_as_xyz
  x,y,z
_cell_length_a	18.618
_cell_length_b	11.259
_cell_length_c	19.86
_cell_angle_alpha	90
_cell_angle_beta	114.96
_cell_angle_gamma	90
loop_
_atom_site_label
_atom_site_type_symbol
_atom_site_fract_x
_atom_site_fract_y
_atom_site_fract_z
_atom_site_charge
Mof_Ni	Ni	0.42077	0.55016	0.04874	1.113
Mof_O 	O 	0.3721	0.55426	0.93806	-0.433
Mof_O 	O 	0.46003	0.44311	0.91572	-0.443
Mof_O 	O 	0.30982	0.45463	0.56227	-0.35
Mof_O 	O 	0.42838	0.45053	0.65604	-0.374
Mof_O 	O 	0.10746	0.5889	0.74605	-0.438
Mof_O 	O 	0.07839	0.5592	0.62639	-0.293
Mof_C 	C 	0.34216	0.5024	0.81462	-0.137
Mof_C 	C 	0.37109	0.4764	0.76221	0.046
Mof_H 	H 	0.4252	0.4554	0.7778	0.044
Mof_C 	C 	0.32036	0.4812	0.68634	-0.101
Mof_C 	C 	0.23987	0.5088	0.6637	0.047
Mof_H 	H 	0.2053	0.5102	0.6123	0.04
Mof_C 	C 	0.2099	0.5344	0.71635	-0.127
Mof_C 	C 	0.26245	0.5318	0.79138	0.065
Mof_H 	H 	0.2434	0.5506	0.8276	0.031
Mof_C 	C 	0.39654	0.4996	0.89566	0.387
Mof_C 	C 	0.3547	0.4604	0.63226	0.293
Mof_C 	C 	0.1258	0.5628	0.69415	0.356
Mof_N 	N 	0.41878	0.3656	0.05052	-0.223
Mof_N 	N 	0.42062	0.7341	0.04829	-0.211
Mof_C 	C 	0.363	0.3028	0.99468	0.074
Mof_H 	H 	0.3231	0.3452	0.9552	0.005
Mof_C 	C 	0.3614	0.1813	0.99232	-0.126
Mof_H 	H 	0.321	0.1413	0.9519	0.067
Mof_C 	C 	0.4195	0.1159	0.04982	0.057
Mof_C 	C 	0.4754	0.1795	0.10688	-0.126
Mof_H 	H 	0.5158	0.1394	0.1472	0.069
Mof_C 	C 	0.4724	0.3037	0.10533	0.077
Mof_H 	H 	0.511	0.3459	0.1459	0.004
Mof_C 	C 	0.4828	0.798	0.0891	0.037
Mof_H 	H 	0.5303	0.7575	0.1193	0.02
Mof_C 	C 	0.4834	0.9196	0.0906	-0.036
Mof_H 	H 	0.5307	0.9591	0.1224	0.036
Mof_C 	C 	0.3541	0.9184	0.0029	-0.037
Mof_H 	H 	0.3071	0.9573	0.9701	0.035
Mof_C 	C 	0.3575	0.7947	0.0048	0.02
Mof_H 	H 	0.3118	0.7518	0.973	0.018
Mof_C 	C 	0.4199	0.9855	0.04919	0.029
Mof_C 	C 	0.934	0.3431	0.7145	0.087
Mof_H 	H 	0.8861	0.3858	0.6888	-0.005
Mof_C 	C 	0.9311	0.2224	0.7127	-0.07
Mof_H 	H 	0.882	0.1832	0.686	0.054
Mof_C 	C 	0.937	0.8393	0.7085	0.081
Mof_H 	H 	0.89	0.7978	0.678	-0.004
Mof_C 	C 	0.9352	0.9615	0.7068	-0.064
Mof_H 	H 	0.8882	0.0017	0.6751	0.051
Mof_C 	C 	0.4522	0.7975	0.1101	0.003
Mof_H 	H 	0.4741	0.7551	0.1557	0.029
Mof_C 	C 	0.4559	0.918	0.1138	-0.065
Mof_H 	H 	0.483	0.9564	0.1604	0.045
Mof_C 	C 	0.396	0.9222	0.9857	-0.069
Mof_H 	H 	0.3805	0.9629	0.9398	0.047
Mof_C 	C 	0.392	0.8011	0.9859	0.016
Mof_H 	H 	0.3688	0.7615	0.9394	0.026
Mof_C 	C 	0.9954	0.3359	0.8054	0.026
Mof_H 	H 	0.9915	0.3767	0.8456	0.027
Mof_C 	C 	0.9959	0.2155	0.8077	-0.026
Mof_H 	H 	0.9935	0.1743	0.8484	0.046
Mof_C 	C 	0.9885	0.8363	0.802	0.039
Mof_H 	H 	0.9791	0.7942	0.839	0.015
Mof_C 	C 	0.9898	0.9552	0.8035	-0.033
Mof_H 	H 	0.9835	0.9944	0.843	0.046
Mof_Ni	Ni	0.57923	0.55016	0.45126	1.114
Mof_O 	O 	0.6279	0.55426	0.56194	-0.43
Mof_O 	O 	0.53997	0.44311	0.58428	-0.442
Mof_O 	O 	0.69018	0.45463	0.93773	-0.345
Mof_O 	O 	0.57162	0.45053	0.84396	-0.372
Mof_O 	O 	0.89254	0.5889	0.75395	-0.423
Mof_O 	O 	0.92161	0.5592	0.87361	-0.273
Mof_C 	C 	0.65784	0.5024	0.68538	-0.133
Mof_C 	C 	0.62891	0.4764	0.73779	0.044
Mof_H 	H 	0.5748	0.4554	0.7222	0.046
Mof_C 	C 	0.67964	0.4812	0.81366	-0.096
Mof_C 	C 	0.76013	0.5088	0.8363	0.043
Mof_H 	H 	0.7947	0.5102	0.8877	0.046
Mof_C 	C 	0.7901	0.5344	0.78365	-0.12
Mof_C 	C 	0.73755	0.5318	0.70862	0.06
Mof_H 	H 	0.7566	0.5506	0.6724	0.034
Mof_C 	C 	0.60346	0.4996	0.60434	0.386
Mof_C 	C 	0.6453	0.4604	0.86774	0.292
Mof_C 	C 	0.8742	0.5628	0.80585	0.349
Mof_N 	N 	0.58122	0.3656	0.44948	-0.224
Mof_N 	N 	0.57938	0.7341	0.45171	-0.211
Mof_C 	C 	0.637	0.3028	0.50532	0.075
Mof_H 	H 	0.6769	0.3452	0.5448	0.006
Mof_C 	C 	0.6386	0.1813	0.50768	-0.123
Mof_H 	H 	0.679	0.1413	0.5481	0.068
Mof_C 	C 	0.5805	0.1159	0.45018	0.055
Mof_C 	C 	0.5246	0.1795	0.39312	-0.125
Mof_H 	H 	0.4842	0.1394	0.3528	0.069
Mof_C 	C 	0.5276	0.3037	0.39467	0.076
Mof_H 	H 	0.489	0.3459	0.3541	0.004
Mof_C 	C 	0.5172	0.798	0.4109	0.032
Mof_H 	H 	0.4697	0.7575	0.3807	0.021
Mof_C 	C 	0.5166	0.9196	0.4094	-0.04
Mof_H 	H 	0.4693	0.9591	0.3776	0.037
Mof_C 	C 	0.6459	0.9184	0.4971	-0.046
Mof_H 	H 	0.6929	0.9573	0.5299	0.041
Mof_C 	C 	0.6425	0.7947	0.4952	0.017
Mof_H 	H 	0.6882	0.7518	0.527	0.022
Mof_C 	C 	0.5801	0.9855	0.45081	0.03
Mof_C 	C 	0.066	0.3431	0.7855	0.05
Mof_H 	H 	0.1139	0.3858	0.8112	-0
Mof_C 	C 	0.0689	0.2224	0.7873	-0.102
Mof_H 	H 	0.118	0.1832	0.814	0.058
Mof_C 	C 	0.063	0.8393	0.7915	0.043
Mof_H 	H 	0.11	0.7978	0.822	-0
Mof_C 	C 	0.0648	0.9615	0.7932	-0.1
Mof_H 	H 	0.1118	0.0017	0.8249	0.054
Mof_C 	C 	0.5478	0.7975	0.3899	0.008
Mof_H 	H 	0.5259	0.7551	0.3443	0.028
Mof_C 	C 	0.5441	0.918	0.3862	-0.061
Mof_H 	H 	0.517	0.9564	0.3396	0.044
Mof_C 	C 	0.604	0.9222	0.5143	-0.061
Mof_H 	H 	0.6195	0.9629	0.5602	0.045
Mof_C 	C 	0.608	0.8011	0.5141	0.02
Mof_H 	H 	0.6312	0.7615	0.5606	0.025
Mof_C 	C 	0.0046	0.3359	0.6946	-0.013
Mof_H 	H 	0.0085	0.3767	0.6544	0.025
Mof_C 	C 	0.0041	0.2155	0.6923	-0.059
Mof_H 	H 	0.0065	0.1743	0.6516	0.042
Mof_C 	C 	0.0115	0.8363	0.698	0.002
Mof_H 	H 	0.0209	0.7942	0.661	0.013
Mof_C 	C 	0.0102	0.9552	0.6965	-0.07
Mof_H 	H 	0.0165	0.9944	0.657	0.045
Mof_Ni	Ni	0.57923	0.44984	0.95126	1.113
Mof_O 	O 	0.6279	0.44574	0.06194	-0.429
Mof_O 	O 	0.53997	0.55689	0.08428	-0.441
Mof_O 	O 	0.69018	0.54537	0.43773	-0.345
Mof_O 	O 	0.57162	0.54947	0.34396	-0.372
Mof_O 	O 	0.89254	0.4111	0.25395	-0.423
Mof_O 	O 	0.92161	0.4408	0.37361	-0.272
Mof_C 	C 	0.65784	0.4976	0.18538	-0.133
Mof_C 	C 	0.62891	0.5236	0.23779	0.044
Mof_H 	H 	0.5748	0.5446	0.2222	0.046
Mof_C 	C 	0.67964	0.5188	0.31366	-0.096
Mof_C 	C 	0.76013	0.4912	0.3363	0.043
Mof_H 	H 	0.7947	0.4898	0.3877	0.047
Mof_C 	C 	0.7901	0.4656	0.28365	-0.12
Mof_C 	C 	0.73755	0.4682	0.20862	0.06
Mof_H 	H 	0.7566	0.4494	0.1724	0.034
Mof_C 	C 	0.60346	0.5004	0.10434	0.386
Mof_C 	C 	0.6453	0.5396	0.36774	0.292
Mof_C 	C 	0.8742	0.4372	0.30585	0.349
Mof_N 	N 	0.58122	0.6344	0.94948	-0.224
Mof_N 	N 	0.57938	0.2659	0.95171	-0.211
Mof_C 	C 	0.637	0.6972	0.00532	0.076
Mof_H 	H 	0.6769	0.6548	0.0448	0.006
Mof_C 	C 	0.6386	0.8187	0.00768	-0.121
Mof_H 	H 	0.679	0.8587	0.0481	0.067
Mof_C 	C 	0.5805	0.8841	0.95018	0.054
Mof_C 	C 	0.5246	0.8205	0.89312	-0.125
Mof_H 	H 	0.4842	0.8606	0.8528	0.069
Mof_C 	C 	0.5276	0.6963	0.89467	0.076
Mof_H 	H 	0.489	0.6541	0.8541	0.004
Mof_C 	C 	0.5172	0.202	0.9109	0.027
Mof_H 	H 	0.4697	0.2425	0.8807	0.022
Mof_C 	C 	0.5166	0.0804	0.9094	-0.045
Mof_H 	H 	0.4693	0.0409	0.8776	0.038
Mof_C 	C 	0.6459	0.0816	0.9971	-0.058
Mof_H 	H 	0.6929	0.0427	0.0299	0.046
Mof_C 	C 	0.6425	0.2053	0.9952	0.011
Mof_H 	H 	0.6882	0.2482	0.027	0.025
Mof_C 	C 	0.5801	0.0145	0.95081	0.029
Mof_C 	C 	0.066	0.6569	0.2855	0.05
Mof_H 	H 	0.1139	0.6142	0.3112	-0
Mof_C 	C 	0.0689	0.7776	0.2873	-0.102
Mof_H 	H 	0.118	0.8168	0.314	0.058
Mof_C 	C 	0.063	0.1607	0.2915	0.043
Mof_H 	H 	0.11	0.2022	0.322	-0
Mof_C 	C 	0.0648	0.0385	0.2932	-0.101
Mof_H 	H 	0.1118	0.9983	0.3249	0.055
Mof_C 	C 	0.5478	0.2025	0.8899	0.013
Mof_H 	H 	0.5259	0.2449	0.8443	0.026
Mof_C 	C 	0.5441	0.082	0.8862	-0.057
Mof_H 	H 	0.517	0.0436	0.8396	0.042
Mof_C 	C 	0.604	0.0778	0.0143	-0.049
Mof_H 	H 	0.6195	0.0371	0.0602	0.042
Mof_C 	C 	0.608	0.1989	0.0141	0.026
Mof_H 	H 	0.6312	0.2385	0.0606	0.023
Mof_C 	C 	0.0046	0.6641	0.1946	-0.013
Mof_H 	H 	0.0085	0.6233	0.1544	0.025
Mof_C 	C 	0.0041	0.7845	0.1923	-0.059
Mof_H 	H 	0.0065	0.8257	0.1516	0.042
Mof_C 	C 	0.0115	0.1637	0.198	0.002
Mof_H 	H 	0.0209	0.2058	0.161	0.013
Mof_C 	C 	0.0102	0.0448	0.1965	-0.07
Mof_H 	H 	0.0165	0.0056	0.157	0.045
Mof_Ni	Ni	0.42077	0.44984	0.54874	1.113
Mof_O 	O 	0.3721	0.44574	0.43806	-0.431
Mof_O 	O 	0.46003	0.55689	0.41572	-0.442
Mof_O 	O 	0.30982	0.54537	0.06227	-0.348
Mof_O 	O 	0.42838	0.54947	0.15604	-0.373
Mof_O 	O 	0.10746	0.4111	0.24605	-0.437
Mof_O 	O 	0.07839	0.4408	0.12639	-0.292
Mof_C 	C 	0.34216	0.4976	0.31462	-0.136
Mof_C 	C 	0.37109	0.5236	0.26221	0.046
Mof_H 	H 	0.4252	0.5446	0.2778	0.045
Mof_C 	C 	0.32036	0.5188	0.18634	-0.1
Mof_C 	C 	0.23987	0.4912	0.1637	0.047
Mof_H 	H 	0.2053	0.4898	0.1123	0.04
Mof_C 	C 	0.2099	0.4656	0.21635	-0.127
Mof_C 	C 	0.26245	0.4682	0.29138	0.065
Mof_H 	H 	0.2434	0.4494	0.3276	0.031
Mof_C 	C 	0.39654	0.5004	0.39566	0.387
Mof_C 	C 	0.3547	0.5396	0.13226	0.293
Mof_C 	C 	0.1258	0.4372	0.19415	0.356
Mof_N 	N 	0.41878	0.6344	0.55052	-0.224
Mof_N 	N 	0.42062	0.2659	0.54829	-0.211
Mof_C 	C 	0.363	0.6972	0.49468	0.074
Mof_H 	H 	0.3231	0.6548	0.4552	0.005
Mof_C 	C 	0.3614	0.8187	0.49232	-0.123
Mof_H 	H 	0.321	0.8587	0.4519	0.066
Mof_C 	C 	0.4195	0.8841	0.54982	0.054
Mof_C 	C 	0.4754	0.8205	0.60688	-0.125
Mof_H 	H 	0.5158	0.8606	0.6472	0.069
Mof_C 	C 	0.4724	0.6963	0.60533	0.076
Mof_H 	H 	0.511	0.6541	0.6459	0.004
Mof_C 	C 	0.4828	0.202	0.5891	0.034
Mof_H 	H 	0.5303	0.2425	0.6193	0.021
Mof_C 	C 	0.4834	0.0804	0.5906	-0.039
Mof_H 	H 	0.5307	0.0409	0.6224	0.037
Mof_C 	C 	0.3541	0.0816	0.5029	-0.047
Mof_H 	H 	0.3071	0.0427	0.4701	0.039
Mof_C 	C 	0.3575	0.2053	0.5048	0.016
Mof_H 	H 	0.3118	0.2482	0.473	0.02
Mof_C 	C 	0.4199	0.0145	0.54919	0.029
Mof_C 	C 	0.934	0.6569	0.2145	0.087
Mof_H 	H 	0.8861	0.6142	0.1888	-0.005
Mof_C 	C 	0.9311	0.7776	0.2127	-0.07
Mof_H 	H 	0.882	0.8168	0.186	0.054
Mof_C 	C 	0.937	0.1607	0.2085	0.081
Mof_H 	H 	0.89	0.2022	0.178	-0.004
Mof_C 	C 	0.9352	0.0385	0.2068	-0.064
Mof_H 	H 	0.8882	0.9983	0.1751	0.051
Mof_C 	C 	0.4522	0.2025	0.6101	0.007
Mof_H 	H 	0.4741	0.2449	0.6557	0.028
Mof_C 	C 	0.4559	0.082	0.6138	-0.062
Mof_H 	H 	0.483	0.0436	0.6604	0.044
Mof_C 	C 	0.396	0.0778	0.4857	-0.06
Mof_H 	H 	0.3805	0.0371	0.4398	0.045
Mof_C 	C 	0.392	0.1989	0.4859	0.02
Mof_H 	H 	0.3688	0.2385	0.4394	0.025
Mof_C 	C 	0.9954	0.6641	0.3054	0.026
Mof_H 	H 	0.9915	0.6233	0.3456	0.027
Mof_C 	C 	0.9959	0.7845	0.3077	-0.026
Mof_H 	H 	0.9935	0.8257	0.3484	0.046
Mof_C 	C 	0.9885	0.1637	0.302	0.039
Mof_H 	H 	0.9791	0.2058	0.339	0.015
Mof_C 	C 	0.9898	0.0448	0.3035	-0.033
Mof_H 	H 	0.9835	0.0056	0.343	0.046
Mof_Ni	Ni	4.26544e-33	0.59049	0.75	1.051
Mof_N 	N 	4.26544e-33	0.4041	0.75	-0.26
Mof_N 	N 	6.02436e-17	0.7759	0.75	-0.263
Mof_C 	C 	4.26544e-33	0.1554	0.75	0.02
Mof_C 	C 	4.26544e-33	0.0241	0.75	0.027
Mof_Ni	Ni	1.50609e-17	0.40951	0.25	1.051
Mof_N 	N 	1.50609e-17	0.5959	0.25	-0.26
Mof_N 	N 	-1.50609e-17	0.2241	0.25	-0.263
Mof_C 	C 	1.42181e-33	0.8446	0.25	0.02
Mof_C 	C 	1.50609e-17	0.9759	0.25	0.028
_end
