# CIF file generated by openbabel 3.1.0, see https://openbabel.org
data_I
_chemical_name_common 'ECUDEM_clean'
_cell_length_a 8.431
_cell_length_b 10.841
_cell_length_c 11.114
_cell_angle_alpha 64.43
_cell_angle_beta 80.44
_cell_angle_gamma 73.82
_space_group_name_H-M_alt 'P 1'
_space_group_name_Hall 'P 1'
loop_
    _symmetry_equiv_pos_as_xyz
    x,y,z
loop_
    _atom_site_label
    _atom_site_type_symbol
    _atom_site_fract_x
    _atom_site_fract_y
    _atom_site_fract_z
    _atom_site_occupancy
    Sm1      Sm       0.74862    0.00371    0.00223    1.000
    Sm2      Sm       0.25138    0.99629    0.99777    1.000
    H1       H        0.75080    0.95380    0.51880    1.000
    H2       H        0.09760    0.60620    0.52030    1.000
    H3       H        0.76270    0.56940    0.82410    1.000
    H4       H        0.52750    0.76200    0.81580    1.000
    H5       H        0.50890    0.90840    0.68800    1.000
    H6       H        0.02290    0.96440    0.37560    1.000
    H7       H        0.11890    0.82560    0.35200    1.000
    H8       H        0.06720    0.37370    0.67500    1.000
    H9       H        0.93050    0.35440    0.79540    1.000
    H10      H        0.24920    0.04620    0.48120    1.000
    H11      H        0.90240    0.39380    0.47970    1.000
    H12      H        0.23730    0.43060    0.17590    1.000
    H13      H        0.47250    0.23800    0.18420    1.000
    H14      H        0.49110    0.09160    0.31200    1.000
    H15      H        0.97710    0.03560    0.62440    1.000
    H16      H        0.88110    0.17440    0.64800    1.000
    H17      H        0.93280    0.62630    0.32500    1.000
    H18      H        0.06950    0.64560    0.20460    1.000
    C1       C        0.73100    0.76800    0.68280    1.000
    C2       C        0.79700    0.85550    0.55910    1.000
    C3       C        0.93200    0.79100    0.49920    1.000
    C4       C        0.00200    0.64700    0.56100    1.000
    C5       C        0.93400    0.56100    0.68060    1.000
    C6       C        0.80500    0.62500    0.73900    1.000
    C7       C        0.58700    0.83500    0.75500    1.000
    C8       C        0.63600    0.89900    0.83370    1.000
    C9       C        0.00900    0.87900    0.37000    1.000
    C10      C        0.88750    0.92300    0.25300    1.000
    C11      C        0.01700    0.40600    0.74600    1.000
    C12      C        0.14900    0.36700    0.84100    1.000
    C13      C        0.26900    0.23200    0.31720    1.000
    C14      C        0.20300    0.14450    0.44090    1.000
    C15      C        0.06800    0.20900    0.50080    1.000
    C16      C        0.99800    0.35300    0.43900    1.000
    C17      C        0.06600    0.43900    0.31940    1.000
    C18      C        0.19500    0.37500    0.26100    1.000
    C19      C        0.41300    0.16500    0.24500    1.000
    C20      C        0.36400    0.10100    0.16630    1.000
    C21      C        0.99100    0.12100    0.63000    1.000
    C22      C        0.11250    0.07700    0.74700    1.000
    C23      C        0.98300    0.59400    0.25400    1.000
    C24      C        0.85100    0.63300    0.15900    1.000
    O1       O        0.52830    0.93880    0.91400    1.000
    O2       O        0.78000    0.91310    0.82390    1.000
    O3       O        0.70730    0.99050    0.22770    1.000
    O4       O        0.00090    0.94880    0.13110    1.000
    O5       O        0.21500    0.23720    0.88850    1.000
    O6       O        0.18300    0.45800    0.86100    1.000
    O7       O        0.47170    0.06120    0.08600    1.000
    O8       O        0.22000    0.08690    0.17610    1.000
    O9       O        0.29270    0.00950    0.77230    1.000
    O10      O        0.99910    0.05120    0.86890    1.000
    O11      O        0.78500    0.76280    0.11150    1.000
    O12      O        0.81700    0.54200    0.13900    1.000
