data_functionalizedCrystal
_audit_creation_method	'EQeq! by Chris Wilmer'
_symmetry_space_group_name_H-M	'P1'
_symmetry_Int_Tables_number	1
_symmetry_cell_setting	triclinic
loop_
_symmetry_equiv_pos_as_xyz
  x,y,z
_cell_length_a	6.8096
_cell_length_b	12.27
_cell_length_c	14.134
_cell_angle_alpha	84.323
_cell_angle_beta	78.295
_cell_angle_gamma	79.696
loop_
_atom_site_label
_atom_site_type_symbol
_atom_site_fract_x
_atom_site_fract_y
_atom_site_fract_z
_atom_site_charge
Mof_Zn	Zn	0.37202	0.26792	0.69083	1.195
Mof_N 	N 	0.2367	0.1752	0.6143	-0.202
Mof_N 	N 	0.585	0.3593	0.6097	-0.273
Mof_O 	O 	0.54	0.151	0.757	-0.487
Mof_O 	O 	0.1609	0.3827	0.7536	-0.486
Mof_C 	C 	0.3347	0.1285	0.5284	-0.7
Mof_C 	C 	0.057	0.1484	0.6519	-0.555
Mof_C 	C 	0.7154	0.3201	0.5305	0.236
Mof_C 	C 	0.6251	0.4425	0.6509	0.07
Mof_C 	C 	0.0587	0.3425	0.8326	0.028
Mof_H 	H 	0.4661	0.1429	0.5011	0.232
Mof_C 	C 	0.2471	0.061	0.4805	-0.452
Mof_C 	C 	0.9589	0.0802	0.6106	-1.878
Mof_H 	H 	0.9897	0.1776	0.7111	0.465
Mof_H 	H 	0.6963	0.2554	0.5054	-0.031
Mof_C 	C 	0.8781	0.3733	0.4848	-0.005
Mof_C 	C 	0.7859	0.499	0.6104	-0.112
Mof_H 	H 	0.5422	0.4646	0.7097	-0.031
Mof_C 	C 	0.9142	0.4258	0.8954	0.146
Mof_O 	O 	0.0714	0.2428	0.8578	-0.35
Mof_H 	H 	0.3158	0.0324	0.4213	0.107
Mof_C 	C 	0.0499	0.0368	0.5242	-0.664
Mof_H 	H 	0.8308	0.0642	0.6421	0.478
Mof_H 	H 	0.9656	0.3449	0.4292	0.133
Mof_C 	C 	0.9114	0.4715	0.5229	0.445
Mof_H 	H 	0.8097	0.5569	0.6432	0.074
Mof_C 	C 	0.8014	0.3994	0.9886	0.062
Mof_C 	C 	0.8767	0.544	0.8792	-0.289
Mof_H 	H 	0.7966	0.3274	0.0178	0.029
Mof_C 	C 	0.6974	0.4993	0.0302	-0.381
Mof_C 	C 	0.7415	0.5875	0.9629	0.12
Mof_H 	H 	0.9312	0.5854	0.8236	0.193
Mof_H 	H 	0.6139	0.5053	0.0918	0.17
Mof_H 	H 	0.6905	0.663	0.9714	0.003
Mof_C 	C 	0.4204	0.8175	0.1633	0.225
Mof_C 	C 	0.3277	0.909	0.1002	0.008
Mof_O 	O 	0.4581	0.7209	0.1389	-0.311
Mof_C 	C 	0.2726	0.025	0.1172	-0.377
Mof_C 	C 	0.2969	0.8971	0.0057	-0.281
Mof_H 	H 	0.2776	0.058	0.1738	0.076
Mof_C 	C 	0.2088	0.081	0.0324	-0.212
Mof_C 	C 	0.2253	0.0019	0.9644	-0.153
Mof_H 	H 	0.3205	0.8298	0.9755	0.122
Mof_H 	H 	0.1635	0.1576	0.0235	0.008
Mof_H 	H 	0.194	0.0166	0.9021	-0.01
Mof_C 	C 	0.251	0.1794	0.5223	0.577
Mof_H 	H 	0.3259	0.2313	0.4849	-0.188
Mof_C 	C 	0.163	0.1115	0.4728	0.664
Mof_H 	H 	0.1827	0.1179	0.4049	-0.24
Mof_C 	C 	0.0102	0.0415	0.6255	2.055
Mof_H 	H 	0.9183	0.9991	0.6644	-0.375
Mof_C 	C 	0.107	0.1084	0.6677	0.074
Mof_H 	H 	0.0826	0.1083	0.7356	-0.2
Mof_C 	C 	0.6439	0.3716	0.5136	-0.102
Mof_H 	H 	0.5751	0.3395	0.475	0.029
Mof_C 	C 	0.8005	0.4287	0.4662	-0.284
Mof_H 	H 	0.8303	0.438	0.3982	0.18
Mof_C 	C 	0.8437	0.4723	0.6205	-0.13
Mof_H 	H 	0.9005	0.5118	0.6589	0.151
Mof_C 	C 	0.688	0.4128	0.6618	0.035
Mof_H 	H 	0.6493	0.4086	0.7296	0.032
Mof_Zn	Zn	0.62798	0.73208	0.30917	1.209
Mof_N 	N 	0.7633	0.8248	0.3857	-0.306
Mof_N 	N 	0.415	0.6407	0.3903	-0.225
Mof_O 	O 	0.46	0.849	0.243	-0.42
Mof_O 	O 	0.8391	0.6173	0.2464	-0.43
Mof_C 	C 	0.6653	0.8715	0.4716	0.616
Mof_C 	C 	0.943	0.8516	0.3481	0.541
Mof_C 	C 	0.2846	0.6799	0.4695	-0.19
Mof_C 	C 	0.3749	0.5575	0.3491	-0.083
Mof_C 	C 	0.9413	0.6575	0.1674	0.587
Mof_H 	H 	0.5339	0.8571	0.4989	-0.193
Mof_C 	C 	0.7529	0.939	0.5195	0.123
Mof_C 	C 	0.0411	0.9198	0.3894	1.805
Mof_H 	H 	0.0103	0.8224	0.2889	-0.423
Mof_H 	H 	0.3037	0.7446	0.4946	0.017
Mof_C 	C 	0.1219	0.6267	0.5152	-0.189
Mof_C 	C 	0.2141	0.501	0.3896	0.003
Mof_H 	H 	0.4578	0.5354	0.2903	0.043
Mof_C 	C 	0.0858	0.5742	0.1046	-0.427
Mof_O 	O 	0.9286	0.7572	0.1422	-0.276
Mof_H 	H 	0.6842	0.9676	0.5787	0.04
Mof_C 	C 	0.9501	0.9632	0.4758	0.703
Mof_H 	H 	0.1692	0.9358	0.3579	-0.402
Mof_H 	H 	0.0344	0.6551	0.5708	-0.032
Mof_C 	C 	0.0886	0.5285	0.4771	-0.411
Mof_H 	H 	0.1903	0.4431	0.3568	-0.012
Mof_C 	C 	0.1986	0.6006	0.0114	-0.314
Mof_C 	C 	0.1233	0.456	0.1208	0.003
Mof_H 	H 	0.2034	0.6726	0.9822	0.097
Mof_C 	C 	0.3026	0.5007	0.9698	0.081
Mof_C 	C 	0.2585	0.4125	0.0371	-0.396
Mof_H 	H 	0.0688	0.4146	0.1764	-0.077
Mof_H 	H 	0.3861	0.4947	0.9082	-0.011
Mof_H 	H 	0.3095	0.337	0.0286	0.116
Mof_C 	C 	0.5796	0.1825	0.8367	0.363
Mof_C 	C 	0.6723	0.091	0.8998	-0.29
Mof_O 	O 	0.5419	0.2791	0.8611	-0.295
Mof_C 	C 	0.7274	0.975	0.8828	0.065
Mof_C 	C 	0.7031	0.1029	0.9943	0.007
Mof_H 	H 	0.7224	0.942	0.8262	0.045
Mof_C 	C 	0.7912	0.919	0.9676	-0.098
Mof_C 	C 	0.7747	0.9981	0.0356	-0.123
Mof_H 	H 	0.6795	0.1702	0.0245	-0.001
Mof_H 	H 	0.8365	0.8424	0.9765	0.123
Mof_H 	H 	0.806	0.9834	0.0979	0.16
Mof_C 	C 	0.749	0.8206	0.4777	-0.407
Mof_H 	H 	0.6741	0.7687	0.5151	0.133
Mof_C 	C 	0.837	0.8885	0.5272	-0.544
Mof_H 	H 	0.8173	0.8821	0.5951	0.249
Mof_C 	C 	0.9898	0.9585	0.3745	-2.165
Mof_H 	H 	0.0817	0.0009	0.3356	0.448
Mof_C 	C 	0.893	0.8916	0.3323	-0.012
Mof_H 	H 	0.9174	0.8917	0.2644	0.221
Mof_C 	C 	0.3561	0.6284	0.4864	0.141
Mof_H 	H 	0.4249	0.6605	0.525	-0.032
Mof_C 	C 	0.1995	0.5713	0.5338	0.257
Mof_H 	H 	0.1697	0.562	0.6018	-0.127
Mof_C 	C 	0.1563	0.5277	0.3795	0.065
Mof_H 	H 	0.0995	0.4882	0.3411	-0.08
Mof_C 	C 	0.312	0.5872	0.3382	0.025
Mof_H 	H 	0.3507	0.5914	0.2704	0
Mof_Co	Co	-0	0.5	-0	0.989
Mof_Co	Co	0.5	0	-0	1.053
_end
