data_functionalizedCrystal
_audit_creation_method	'EQeq! by Chris Wilmer'
_symmetry_space_group_name_H-M	'P1'
_symmetry_Int_Tables_number	1
_symmetry_cell_setting	triclinic
loop_
_symmetry_equiv_pos_as_xyz
  x,y,z
_cell_length_a	13.0177
_cell_length_b	13.0177
_cell_length_c	15.002
_cell_angle_alpha	83.6956
_cell_angle_beta	83.6956
_cell_angle_gamma	61.732
loop_
_atom_site_label
_atom_site_type_symbol
_atom_site_fract_x
_atom_site_fract_y
_atom_site_fract_z
_atom_site_charge
Mof_Eu	Eu	0.98978	0.34902	0.52719	2.065
Mof_Eu	Eu	0.34902	0.98978	0.02719	2.039
Mof_Eu	Eu	0.01022	0.65098	0.47281	2.065
Mof_Eu	Eu	0.65098	0.01022	0.97281	2.039
Mof_H 	H 	0.7809	0.7353	0.2355	0.005
Mof_H 	H 	0.7028	0.5204	0.6417	0.012
Mof_H 	H 	0.7091	0.4765	0.3383	0.056
Mof_H 	H 	0.2909	0.5235	0.6617	0.056
Mof_H 	H 	0.5235	0.2909	0.1617	0.057
Mof_H 	H 	0.2972	0.4796	0.3583	0.012
Mof_H 	H 	0.4796	0.2972	0.8583	0.012
Mof_H 	H 	0.7353	0.7809	0.7355	0.007
Mof_H 	H 	0.2647	0.2191	0.2645	0.007
Mof_H 	H 	0.5204	0.7028	0.1417	0.012
Mof_H 	H 	0.2191	0.2647	0.7645	0.005
Mof_H 	H 	0.4765	0.7091	0.8383	0.057
Mof_C 	C 	0.6768	0.5806	0.6801	0.027
Mof_C 	C 	0.3039	0.2633	0.2635	0.093
Mof_C 	C 	0.4666	0.4792	0.7528	0.001
Mof_C 	C 	0.5334	0.5208	0.2472	0.001
Mof_C 	C 	0.8297	0.6375	0.6064	0.464
Mof_C 	C 	0.5208	0.5334	0.7472	0
Mof_C 	C 	0.4792	0.4666	0.2528	0
Mof_C 	C 	0.3982	0.418	0.7581	-0.023
Mof_C 	C 	0.4194	0.3232	0.8199	0.027
Mof_C 	C 	0.6924	0.5424	0.2994	0.023
Mof_C 	C 	0.3498	0.2674	0.824	-0.172
Mof_C 	C 	0.5626	0.853	0.8624	0.496
Mof_C 	C 	0.418	0.3982	0.2581	-0.022
Mof_C 	C 	0.3076	0.4576	0.7006	0.023
Mof_C 	C 	0.2424	0.3982	0.7018	-0.165
Mof_C 	C 	0.4576	0.3076	0.2006	0.022
Mof_C 	C 	0.7367	0.6961	0.2365	0.095
Mof_C 	C 	0.3982	0.2424	0.2018	-0.162
Mof_C 	C 	0.853	0.5626	0.3624	0.499
Mof_C 	C 	0.6018	0.582	0.2419	-0.023
Mof_C 	C 	0.3232	0.4194	0.3199	0.027
Mof_C 	C 	0.6018	0.7576	0.7982	-0.162
Mof_C 	C 	0.6961	0.7367	0.7365	0.093
Mof_C 	C 	0.2633	0.3039	0.7635	0.095
Mof_C 	C 	0.7326	0.6502	0.676	-0.171
Mof_C 	C 	0.5424	0.6924	0.7994	0.022
Mof_C 	C 	0.147	0.4374	0.6376	0.499
Mof_C 	C 	0.7576	0.6018	0.2982	-0.165
Mof_C 	C 	0.5806	0.6768	0.1801	0.027
Mof_C 	C 	0.3625	0.1703	0.8936	0.463
Mof_C 	C 	0.6375	0.8297	0.1064	0.463
Mof_C 	C 	0.582	0.6018	0.7419	-0.022
Mof_C 	C 	0.1703	0.3625	0.3936	0.464
Mof_C 	C 	0.6502	0.7326	0.176	-0.172
Mof_C 	C 	0.2674	0.3498	0.324	-0.171
Mof_C 	C 	0.4374	0.147	0.1376	0.496
Mof_N 	N 	0.8287	0.2749	0.4699	0.075
Mof_N 	N 	0.7251	0.1713	0.0301	0.078
Mof_N 	N 	0.2749	0.8287	0.9699	0.078
Mof_N 	N 	0.1713	0.7251	0.5301	0.075
Mof_O 	O 	0.0615	0.7813	0.5466	-0.325
Mof_O 	O 	0.8936	0.4586	0.3968	-0.503
Mof_O 	O 	0.2187	0.9385	0.9534	-0.317
Mof_O 	O 	0.7409	0.2403	0.068	-0.124
Mof_O 	O 	0.883	0.6356	0.3786	-0.572
Mof_O 	O 	0.7188	0.8544	0.0914	-0.506
Mof_O 	O 	0.4586	0.8936	0.8968	-0.495
Mof_O 	O 	0.1456	0.2812	0.4086	-0.506
Mof_O 	O 	0.7813	0.0615	0.0466	-0.317
Mof_O 	O 	0.117	0.3644	0.6214	-0.572
Mof_O 	O 	0.2591	0.7597	0.932	-0.124
Mof_O 	O 	0.9385	0.2187	0.4534	-0.325
Mof_O 	O 	0.1174	0.4554	0.4346	-0.619
Mof_O 	O 	0.7941	0.3531	0.5232	-0.312
Mof_O 	O 	0.2812	0.1456	0.9086	-0.506
Mof_O 	O 	0.8544	0.7188	0.5914	-0.506
Mof_O 	O 	0.5414	0.1064	0.1032	-0.495
Mof_O 	O 	0.5446	0.8826	0.0654	-0.617
Mof_O 	O 	0.2059	0.6469	0.4768	-0.312
Mof_O 	O 	0.4554	0.1174	0.9346	-0.617
Mof_O 	O 	0.2403	0.7409	0.568	-0.125
Mof_O 	O 	0.3644	0.117	0.1214	-0.564
Mof_O 	O 	0.6469	0.2059	0.9768	-0.316
Mof_O 	O 	0.3531	0.7941	0.0232	-0.316
Mof_O 	O 	0.8826	0.5446	0.5654	-0.619
Mof_O 	O 	0.6356	0.883	0.8786	-0.564
Mof_O 	O 	0.7597	0.2591	0.432	-0.125
Mof_O 	O 	0.1064	0.5414	0.6032	-0.503
_end
