data_functionalizedCrystal
_audit_creation_method	'EQeq! by Chris Wilmer'
_symmetry_space_group_name_H-M	'P1'
_symmetry_Int_Tables_number	1
_symmetry_cell_setting	triclinic
loop_
_symmetry_equiv_pos_as_xyz
  x,y,z
_cell_length_a	9.444
_cell_length_b	9.156
_cell_length_c	9.756
_cell_angle_alpha	90
_cell_angle_beta	117.459
_cell_angle_gamma	90
loop_
_atom_site_label
_atom_site_type_symbol
_atom_site_fract_x
_atom_site_fract_y
_atom_site_fract_z
_atom_site_charge
Mof_P 	P 	0.8535	0.3447	0.0273	0.772
Mof_P 	P 	0.3296	0.1013	0.0624	0.729
Mof_O 	O 	0.0008	0.4161	0.152	-0.747
Mof_O 	O 	0.7472	0.4493	0.9043	-0.69
Mof_O 	O 	0.7507	0.2687	0.0887	-0.731
Mof_O 	O 	0.2407	0.0604	0.8898	-0.66
Mof_O 	O 	0.3424	0.964	0.1649	-0.371
Mof_O 	O 	0.2279	0.2201	0.0871	-0.685
Mof_O 	O 	0.4972	0.15	0.1127	-0.726
Mof_O 	O 	0.911	0.2241	0.9462	-0.507
Mof_H 	H 	0.9378	0.1651	0.0045	0.244
Mof_H 	H 	0.2667	0.882	0.0951	0.166
Mof_P 	P 	0.6465	0.3447	0.4727	0.819
Mof_P 	P 	0.1704	0.1013	0.4376	0.749
Mof_O 	O 	0.4992	0.4161	0.348	-0.762
Mof_O 	O 	0.7528	0.4493	0.5957	-0.705
Mof_O 	O 	0.7493	0.2687	0.4113	-0.733
Mof_O 	O 	0.2593	0.0604	0.6102	-0.673
Mof_O 	O 	0.1576	0.964	0.3351	-0.385
Mof_O 	O 	0.2721	0.2201	0.4129	-0.688
Mof_O 	O 	0.0028	0.15	0.3873	-0.716
Mof_O 	O 	0.589	0.2241	0.5538	-0.584
Mof_H 	H 	0.5622	0.1651	0.4955	0.31
Mof_H 	H 	0.2333	0.882	0.4049	0.158
Mof_P 	P 	0.1465	0.6553	0.9727	0.772
Mof_P 	P 	0.6704	0.8987	0.9376	0.729
Mof_O 	O 	0.9992	0.5839	0.848	-0.747
Mof_O 	O 	0.2528	0.5507	0.0957	-0.69
Mof_O 	O 	0.2493	0.7313	0.9113	-0.731
Mof_O 	O 	0.7593	0.9396	0.1102	-0.66
Mof_O 	O 	0.6576	0.036	0.8351	-0.371
Mof_O 	O 	0.7721	0.7799	0.9129	-0.685
Mof_O 	O 	0.5028	0.85	0.8873	-0.726
Mof_O 	O 	0.089	0.7759	0.0538	-0.507
Mof_H 	H 	0.0622	0.8349	0.9955	0.244
Mof_H 	H 	0.7333	0.118	0.9049	0.166
Mof_P 	P 	0.3535	0.6553	0.5273	0.819
Mof_P 	P 	0.8296	0.8987	0.5624	0.749
Mof_O 	O 	0.5008	0.5839	0.652	-0.762
Mof_O 	O 	0.2472	0.5507	0.4043	-0.705
Mof_O 	O 	0.2507	0.7313	0.5887	-0.733
Mof_O 	O 	0.7407	0.9396	0.3898	-0.673
Mof_O 	O 	0.8424	0.036	0.6649	-0.385
Mof_O 	O 	0.7279	0.7799	0.5871	-0.688
Mof_O 	O 	0.9972	0.85	0.6127	-0.716
Mof_O 	O 	0.411	0.7759	0.4462	-0.584
Mof_H 	H 	0.4378	0.8349	0.5045	0.31
Mof_H 	H 	0.7667	0.118	0.5951	0.158
Mof_In	In	0.25	0.3906	0.25	3.291
Mof_In	In	0.75	0.6094	0.75	3.291
Mof_In	In	0.75	0.1172	0.25	3.125
Mof_In	In	0.25	0.8828	0.75	3.125
_end
