# CIF file generated by openbabel 3.1.0, see https://openbabel.org
data_I
_chemical_name_common 'EQERIC_clean'
_cell_length_a 10.5835
_cell_length_b 11.6486
_cell_length_c 17.609
_cell_angle_alpha 90
_cell_angle_beta 90
_cell_angle_gamma 110.272
_space_group_name_H-M_alt 'P 1'
_space_group_name_Hall 'P 1'
loop_
    _symmetry_equiv_pos_as_xyz
    x,y,z
loop_
    _atom_site_label
    _atom_site_type_symbol
    _atom_site_fract_x
    _atom_site_fract_y
    _atom_site_fract_z
    _atom_site_occupancy
    Co1      Co       0.98317    0.21628    0.82647    1.000
    Co2      Co       0.51683    0.78372    0.32647    1.000
    Co3      Co       0.01683    0.78372    0.17353    1.000
    Co4      Co       0.48317    0.21628    0.67353    1.000
    H1       H        0.29880    0.63200    0.65410    1.000
    H2       H        0.33870    0.97890    0.60440    1.000
    H3       H        0.12460    0.81510    0.78610    1.000
    H4       H        0.15250    0.44710    0.71260    1.000
    H5       H        0.96620    0.45040    0.90350    1.000
    H6       H        0.35870    0.87290    0.46080    1.000
    H7       H        0.63240    0.71940    0.47720    1.000
    H8       H        0.01940    0.96770    0.77060    1.000
    H9       H        0.27230    0.30130    0.74630    1.000
    H10      H        0.20120    0.36800    0.15410    1.000
    H11      H        0.16130    0.02110    0.10440    1.000
    H12      H        0.37540    0.18490    0.28610    1.000
    H13      H        0.34750    0.55290    0.21260    1.000
    H14      H        0.53380    0.54960    0.40350    1.000
    H15      H        0.14130    0.12710    0.96080    1.000
    H16      H        0.86760    0.28060    0.97720    1.000
    H17      H        0.48060    0.03230    0.27060    1.000
    H18      H        0.22770    0.69870    0.24630    1.000
    H19      H        0.70120    0.36800    0.34590    1.000
    H20      H        0.66130    0.02110    0.39560    1.000
    H21      H        0.87540    0.18490    0.21390    1.000
    H22      H        0.84750    0.55290    0.28740    1.000
    H23      H        0.03380    0.54960    0.09650    1.000
    H24      H        0.64130    0.12710    0.53920    1.000
    H25      H        0.36760    0.28060    0.52280    1.000
    H26      H        0.98060    0.03230    0.22940    1.000
    H27      H        0.72770    0.69870    0.25370    1.000
    H28      H        0.79880    0.63200    0.84590    1.000
    H29      H        0.83870    0.97890    0.89560    1.000
    H30      H        0.62460    0.81510    0.71390    1.000
    H31      H        0.65250    0.44710    0.78740    1.000
    H32      H        0.46620    0.45040    0.59650    1.000
    H33      H        0.85870    0.87290    0.03920    1.000
    H34      H        0.13240    0.71940    0.02280    1.000
    H35      H        0.51940    0.96770    0.72940    1.000
    H36      H        0.77230    0.30130    0.75370    1.000
    C1       C        0.19900    0.70370    0.72663    1.000
    C2       C        0.28030    0.70260    0.66508    1.000
    C3       C        0.33430    0.80510    0.61963    1.000
    C4       C        0.30670    0.91130    0.63624    1.000
    C5       C        0.23230    0.91610    0.69970    1.000
    C6       C        0.17690    0.81240    0.74420    1.000
    C7       C        0.13330    0.59220    0.77053    1.000
    C8       C        0.11770    0.47360    0.75493    1.000
    C9       C        0.01590    0.47570    0.85920    1.000
    C10      C        0.41830    0.79970    0.55411    1.000
    C11      C        0.41490    0.83380    0.48030    1.000
    C12      C        0.56440    0.74960    0.48947    1.000
    C13      C        0.20510    0.02800    0.72223    1.000
    C14      C        0.09510    0.03440    0.75790    1.000
    C15      C        0.23390    0.21650    0.74440    1.000
    C16      C        0.30100    0.29630    0.22663    1.000
    C17      C        0.21970    0.29740    0.16508    1.000
    C18      C        0.16570    0.19490    0.11963    1.000
    C19      C        0.19330    0.08870    0.13624    1.000
    C20      C        0.26770    0.08390    0.19970    1.000
    C21      C        0.32310    0.18760    0.24420    1.000
    C22      C        0.36670    0.40780    0.27053    1.000
    C23      C        0.38230    0.52640    0.25493    1.000
    C24      C        0.48410    0.52430    0.35920    1.000
    C25      C        0.08170    0.20030    0.05411    1.000
    C26      C        0.08510    0.16620    0.98030    1.000
    C27      C        0.93560    0.25040    0.98947    1.000
    C28      C        0.29490    0.97200    0.22223    1.000
    C29      C        0.40490    0.96560    0.25790    1.000
    C30      C        0.26610    0.78350    0.24440    1.000
    C31      C        0.80100    0.29630    0.27337    1.000
    C32      C        0.71970    0.29740    0.33492    1.000
    C33      C        0.66570    0.19490    0.38037    1.000
    C34      C        0.69330    0.08870    0.36376    1.000
    C35      C        0.76770    0.08390    0.30030    1.000
    C36      C        0.82310    0.18760    0.25580    1.000
    C37      C        0.86670    0.40780    0.22947    1.000
    C38      C        0.88230    0.52640    0.24507    1.000
    C39      C        0.98410    0.52430    0.14080    1.000
    C40      C        0.58170    0.20030    0.44589    1.000
    C41      C        0.58510    0.16620    0.51970    1.000
    C42      C        0.43560    0.25040    0.51053    1.000
    C43      C        0.79490    0.97200    0.27777    1.000
    C44      C        0.90490    0.96560    0.24210    1.000
    C45      C        0.76610    0.78350    0.25560    1.000
    C46      C        0.69900    0.70370    0.77337    1.000
    C47      C        0.78030    0.70260    0.83492    1.000
    C48      C        0.83430    0.80510    0.88037    1.000
    C49      C        0.80670    0.91130    0.86376    1.000
    C50      C        0.73230    0.91610    0.80030    1.000
    C51      C        0.67690    0.81240    0.75580    1.000
    C52      C        0.63330    0.59220    0.72947    1.000
    C53      C        0.61770    0.47360    0.74507    1.000
    C54      C        0.51590    0.47570    0.64080    1.000
    C55      C        0.91830    0.79970    0.94589    1.000
    C56      C        0.91490    0.83380    0.01970    1.000
    C57      C        0.06440    0.74960    0.01053    1.000
    C58      C        0.70510    0.02800    0.77777    1.000
    C59      C        0.59510    0.03440    0.74210    1.000
    C60      C        0.73390    0.21650    0.75560    1.000
    N1       N        0.04280    0.39890    0.81138    1.000
    N2       N        0.06660    0.59180    0.83770    1.000
    N3       N        0.50770    0.80130    0.43922    1.000
    N4       N        0.51440    0.74500    0.55956    1.000
    N5       N        0.11210    0.15490    0.77254    1.000
    N6       N        0.29580    0.14590    0.71335    1.000
    N7       N        0.45720    0.60110    0.31138    1.000
    N8       N        0.43340    0.40820    0.33770    1.000
    N9       N        0.99230    0.19870    0.93922    1.000
    N10      N        0.98560    0.25500    0.05956    1.000
    N11      N        0.38790    0.84510    0.27254    1.000
    N12      N        0.20420    0.85410    0.21335    1.000
    N13      N        0.95720    0.60110    0.18862    1.000
    N14      N        0.93340    0.40820    0.16230    1.000
    N15      N        0.49230    0.19870    0.56078    1.000
    N16      N        0.48560    0.25500    0.44044    1.000
    N17      N        0.88790    0.84510    0.22746    1.000
    N18      N        0.70420    0.85410    0.28665    1.000
    N19      N        0.54280    0.39890    0.68862    1.000
    N20      N        0.56660    0.59180    0.66230    1.000
    N21      N        0.00770    0.80130    0.06078    1.000
    N22      N        0.01440    0.74500    0.94044    1.000
    N23      N        0.61210    0.15490    0.72746    1.000
    N24      N        0.79580    0.14590    0.78665    1.000
