# CIF file generated by openbabel 3.1.0, see https://openbabel.org
data_I
_chemical_name_common 'image0'
_cell_length_a 19.608
_cell_length_b 21.133
_cell_length_c 21.571
_cell_angle_alpha 117.428
_cell_angle_beta 100.548
_cell_angle_gamma 99.067
_space_group_name_H-M_alt 'P 1'
_space_group_name_Hall 'P 1'
loop_
    _symmetry_equiv_pos_as_xyz
    x,y,z
loop_
    _atom_site_label
    _atom_site_type_symbol
    _atom_site_fract_x
    _atom_site_fract_y
    _atom_site_fract_z
    _atom_site_occupancy
    Zn1      Zn       0.59857    0.13165    0.09704    1.000
    O1       O        0.71580    0.10420    0.01360    1.000
    O2       O        0.62290    0.23430    0.13410    1.000
    O3       O        0.59560    0.08000    0.99400    1.000
    C1       C        0.46620    0.16900    0.13640    1.000
    H1       H        0.50060    0.20240    0.18260    1.000
    C2       C        0.65130    0.06840    0.97150    1.000
    O4       O        0.74480    0.28550    0.17480    1.000
    O5       O        0.62280    0.07340    0.14080    1.000
    N1       N        0.02510    0.15920    0.07300    1.000
    C3       C        0.56000    0.94560    0.76960    1.000
    H2       H        0.51230    0.92560    0.73740    1.000
    C4       C        0.61820    0.97470    0.31250    1.000
    C5       C        0.62290    0.93470    0.74440    1.000
    C6       C        0.69650    0.00770    0.86250    1.000
    H3       H        0.74400    0.02900    0.89530    1.000
    N2       N        0.59410    0.78810    0.43730    1.000
    C7       C        0.63030    0.09220    0.31870    1.000
    H4       H        0.63580    0.14390    0.34710    1.000
    C8       C        0.61100    0.89450    0.66360    1.000
    C9       C        0.61010    0.92130    0.34140    1.000
    C10      C        0.60930    0.93990    0.23260    1.000
    H5       H        0.60050    0.88770    0.20360    1.000
    C11      C        0.65140    0.50540    0.30380    1.000
    C12      C        0.66790    0.36350    0.21910    1.000
    O6       O        0.61430    0.16830    0.23900    1.000
    C13      C        0.67690    0.63690    0.33730    1.000
    H6       H        0.71050    0.62780    0.30980    1.000
    C14      C        0.71800    0.49860    0.30040    1.000
    H7       H        0.75680    0.54240    0.32270    1.000
    C15      C        0.39960    0.17040    0.12980    1.000
    H8       H        0.38760    0.20730    0.16900    1.000
    C16      C        0.64280    0.02280    0.89290    1.000
    C17      C        0.63710    0.90780    0.44740    1.000
    H9       H        0.66050    0.92830    0.49780    1.000
    C18      C        0.57550    0.84570    0.29830    1.000
    H10      H        0.55380    0.82350    0.24730    1.000
    C19      C        0.65750    0.85140    0.63510    1.000
    H11      H        0.69350    0.84740    0.66810    1.000
    C20      C        0.64200    0.58170    0.34400    1.000
    C21      C        0.59780    0.81950    0.51260    1.000
    C22      C        0.61110    0.71790    0.40590    1.000
    N3       N        0.49040    0.12310    0.08170    1.000
    C23      C        0.62430    0.06140    0.24500    1.000
    C24      C        0.57370    0.65810    0.40880    1.000
    H12      H        0.53600    0.66390    0.43130    1.000
    C25      C        0.57390    0.80290    0.33320    1.000
    H13      H        0.55410    0.75060    0.30410    1.000
    C26      C        0.62160    0.10620    0.20960    1.000
    C27      C        0.57680    0.99190    0.85210    1.000
    H14      H        0.53850    0.99800    0.87370    1.000
    C28      C        0.43820    0.07430    0.01750    1.000
    H15      H        0.45140    0.03960    0.97780    1.000
    C29      C        0.69120    0.96530    0.79010    1.000
    H16      H        0.73230    0.95790    0.77320    1.000
    C30      C        0.64090    0.95310    0.41580    1.000
    H17      H        0.66440    0.00480    0.44520    1.000
    C31      C        0.61390    0.98360    0.20070    1.000
    H18      H        0.61020    0.96220    0.15020    1.000
    C32      C        0.59890    0.83290    0.40480    1.000
    C33      C        0.36530    0.07400    0.00860    1.000
    H19      H        0.33050    0.04250    0.96220    1.000
    C34      C        0.55430    0.89590    0.61120    1.000
    H20      H        0.52080    0.92280    0.62830    1.000
    C35      C        0.67780    0.28830    0.17500    1.000
    C36      C        0.54710    0.85980    0.53740    1.000
    H21      H        0.50950    0.86170    0.50400    1.000
    C37      C        0.62860    0.05030    0.35170    1.000
    H22      H        0.63470    0.07380    0.40280    1.000
    C38      C        0.73280    0.42790    0.26450    1.000
    H23      H        0.78050    0.42280    0.26950    1.000
    C39      C        0.60320    0.37170    0.22670    1.000
    H24      H        0.56290    0.32910    0.20380    1.000
    C40      C        0.26090    0.10240    0.05220    1.000
    H25      H        0.22460    0.05730    0.01840    1.000
    C41      C        0.58900    0.59180    0.38060    1.000
    H26      H        0.56420    0.55280    0.38570    1.000
    C42      C        0.66600    0.70760    0.36910    1.000
    H27      H        0.69360    0.74690    0.36640    1.000
    C43      C        0.34540    0.11860    0.06610    1.000
    C44      C        0.59390    0.44320    0.26840    1.000
    H28      H        0.54720    0.44790    0.27190    1.000
    C45      C        0.65390    0.81610    0.56470    1.000
    H29      H        0.68740    0.78890    0.54850    1.000
    C46      C        0.03400    0.09480    0.05580    1.000
    H30      H        0.99340    0.05500    0.04220    1.000
    C47      C        0.10320    0.08130    0.05640    1.000
    H31      H        0.10950    0.03430    0.04670    1.000
    C48      C        0.08070    0.22480    0.09310    1.000
    H32      H        0.07060    0.27090    0.10530    1.000
    C49      C        0.16190    0.13940    0.07170    1.000
    C50      C        0.25430    0.15700    0.09180    1.000
    H33      H        0.29040    0.20160    0.12730    1.000
    C51      C        0.15160    0.21650    0.09370    1.000
    H34      H        0.19100    0.25730    0.10720    1.000
    Zn2      Zn       0.76627    0.20753    0.09345    1.000
    Zn3      Zn       0.92080    0.17003    0.05586    1.000
    O7       O        0.81000    0.16770    0.15600    1.000
    O8       O        0.88570    0.10840    0.09610    1.000
    N4       N        0.85590    0.81750    0.38570    1.000
    O9       O        0.88260    0.09200    0.95320    1.000
    C52      C        0.84350    0.98560    0.23790    1.000
    O10      O        0.85720    0.24490    0.07990    1.000
    C53      C        0.84280    0.11510    0.13530    1.000
    C54      C        0.80580    0.03620    0.25620    1.000
    H35      H        0.78210    0.04400    0.29280    1.000
    C55      C        0.90450    0.38000    0.17460    1.000
    C56      C        0.88990    0.99570    0.69220    1.000
    O11      O        0.97360    0.29080    0.15370    1.000
    C57      C        0.84370    0.07020    0.17000    1.000
    C58      C        0.85350    0.85660    0.34710    1.000
    C59      C        0.84820    0.94030    0.27710    1.000
    C60      C        0.86200    0.74530    0.35180    1.000
    C61      C        0.88690    0.52130    0.24280    1.000
    C62      C        0.87760    0.60010    0.28320    1.000
    C63      C        0.82250    0.82930    0.49470    1.000
    H36      H        0.78970    0.78100    0.46800    1.000
    C64      C        0.90420    0.86330    0.31270    1.000
    H37      H        0.94210    0.84030    0.31350    1.000
    C65      C        0.86370    0.85970    0.46090    1.000
    C66      C        0.89740    0.71670    0.39200    1.000
    H38      H        0.91790    0.74780    0.44330    1.000
    C67      C        0.80230    0.07580    0.22130    1.000
    H39      H        0.77210    0.10810    0.23060    1.000
    C68      C        0.90070    0.90420    0.27590    1.000
    H40      H        0.93480    0.90660    0.25030    1.000
    O12      O        0.94250    0.19210    0.95760    1.000
    C69      C        0.91450    0.97840    0.57720    1.000
    H41      H        0.94450    0.02800    0.60350    1.000
    C70      C        0.84650    0.39770    0.13950    1.000
    H42      H        0.81470    0.36190    0.09250    1.000
    C71      C        0.90280    0.64560    0.35930    1.000
    H43      H        0.92390    0.62700    0.38840    1.000
    C72      C        0.79880    0.93200    0.31380    1.000
    H44      H        0.76230    0.95700    0.31630    1.000
    C73      C        0.83600    0.70030    0.27750    1.000
    H45      H        0.81350    0.71970    0.24980    1.000
    C74      C        0.94150    0.50470    0.27780    1.000
    H46      H        0.97220    0.54210    0.32480    1.000
    C75      C        0.87880    0.94910    0.61400    1.000
    C76      C        0.83880    0.46750    0.17600    1.000
    H47      H        0.79950    0.47950    0.15500    1.000
    C77      C        0.87950    0.97490    0.18700    1.000
    H48      H        0.90310    0.93670    0.17310    1.000
    C78      C        0.84070    0.62690    0.23970    1.000
    H49      H        0.82070    0.59650    0.18830    1.000
    C79      C        0.90770    0.07250    0.72770    1.000
    H50      H        0.91560    0.09680    0.70090    1.000
    C80      C        0.95300    0.43440    0.24620    1.000
    H51      H        0.99060    0.42300    0.27030    1.000
    C81      C        0.80010    0.89050    0.34580    1.000
    H52      H        0.76350    0.88480    0.36770    1.000
    C82      C        0.90540    0.93420    0.50180    1.000
    H53      H        0.92820    0.95540    0.47790    1.000
    C83      C        0.87400    0.96050    0.73140    1.000
    H54      H        0.85620    0.90800    0.70630    1.000
    C84      C        0.83410    0.87610    0.56980    1.000
    H55      H        0.80900    0.85610    0.59330    1.000
    C85      C        0.88220    0.01830    0.15550    1.000
    H56      H        0.91090    0.01260    0.12330    1.000
    C86      C        0.88400    0.00150    0.80790    1.000
    H57      H        0.87980    0.97700    0.83510    1.000
    C87      C        0.91420    0.11570    0.80330    1.000
    H58      H        0.92800    0.16830    0.82660    1.000
    C88      C        0.90050    0.08150    0.84330    1.000
    C89      C        0.91440    0.30240    0.13550    1.000
    C90      C        0.90760    0.12300    0.92070    1.000
    Zn4      Zn       0.40143    0.86835    0.90296    1.000
    O13      O        0.28420    0.89580    0.98640    1.000
    O14      O        0.37710    0.76570    0.86590    1.000
    O15      O        0.40440    0.92000    0.00600    1.000
    C91      C        0.53380    0.83100    0.86360    1.000
    H59      H        0.49940    0.79760    0.81740    1.000
    C92      C        0.34870    0.93160    0.02850    1.000
    O16      O        0.25520    0.71450    0.82520    1.000
    O17      O        0.37720    0.92660    0.85920    1.000
    N5       N        0.97490    0.84080    0.92700    1.000
    C93      C        0.44000    0.05440    0.23040    1.000
    H60      H        0.48770    0.07440    0.26260    1.000
    C94      C        0.38180    0.02530    0.68750    1.000
    C95      C        0.37710    0.06530    0.25560    1.000
    C96      C        0.30350    0.99230    0.13750    1.000
    H61      H        0.25600    0.97100    0.10470    1.000
    N6       N        0.40590    0.21190    0.56270    1.000
    C97      C        0.36970    0.90780    0.68130    1.000
    H62      H        0.36420    0.85610    0.65290    1.000
    C98      C        0.38900    0.10550    0.33640    1.000
    C99      C        0.38990    0.07870    0.65860    1.000
    C100     C        0.39070    0.06010    0.76740    1.000
    H63      H        0.39950    0.11230    0.79640    1.000
    C101     C        0.34860    0.49460    0.69620    1.000
    C102     C        0.33210    0.63650    0.78090    1.000
    O18      O        0.38570    0.83170    0.76100    1.000
    C103     C        0.32310    0.36310    0.66270    1.000
    H64      H        0.28950    0.37220    0.69020    1.000
    C104     C        0.28200    0.50140    0.69960    1.000
    H65      H        0.24320    0.45760    0.67730    1.000
    C105     C        0.60040    0.82960    0.87020    1.000
    H66      H        0.61240    0.79270    0.83100    1.000
    C106     C        0.35720    0.97720    0.10710    1.000
    C107     C        0.36290    0.09220    0.55260    1.000
    H67      H        0.33950    0.07170    0.50220    1.000
    C108     C        0.42450    0.15430    0.70170    1.000
    H68      H        0.44620    0.17650    0.75270    1.000
    C109     C        0.34250    0.14860    0.36490    1.000
    H69      H        0.30650    0.15260    0.33190    1.000
    C110     C        0.35800    0.41830    0.65600    1.000
    C111     C        0.40220    0.18050    0.48740    1.000
    C112     C        0.38890    0.28210    0.59410    1.000
    N7       N        0.50960    0.87690    0.91830    1.000
    C113     C        0.37570    0.93860    0.75500    1.000
    C114     C        0.42630    0.34190    0.59120    1.000
    H70      H        0.46400    0.33610    0.56870    1.000
    C115     C        0.42610    0.19710    0.66680    1.000
    H71      H        0.44590    0.24940    0.69590    1.000
    C116     C        0.37840    0.89380    0.79040    1.000
    C117     C        0.42320    0.00810    0.14790    1.000
    H72      H        0.46150    0.00200    0.12630    1.000
    C118     C        0.56180    0.92570    0.98250    1.000
    H73      H        0.54860    0.96040    0.02220    1.000
    C119     C        0.30880    0.03470    0.20990    1.000
    H74      H        0.26770    0.04210    0.22680    1.000
    C120     C        0.35910    0.04690    0.58420    1.000
    H75      H        0.33560    0.99520    0.55480    1.000
    C121     C        0.38610    0.01640    0.79930    1.000
    H76      H        0.38980    0.03780    0.84980    1.000
    C122     C        0.40110    0.16710    0.59520    1.000
    C123     C        0.63470    0.92600    0.99140    1.000
    H77      H        0.66950    0.95750    0.03780    1.000
    C124     C        0.44570    0.10410    0.38880    1.000
    H78      H        0.47920    0.07720    0.37170    1.000
    C125     C        0.32220    0.71170    0.82500    1.000
    C126     C        0.45290    0.14020    0.46260    1.000
    H79      H        0.49050    0.13830    0.49600    1.000
    C127     C        0.37140    0.94970    0.64830    1.000
    H80      H        0.36530    0.92620    0.59720    1.000
    C128     C        0.26720    0.57210    0.73550    1.000
    H81      H        0.21950    0.57720    0.73050    1.000
    C129     C        0.39680    0.62830    0.77330    1.000
    H82      H        0.43710    0.67090    0.79620    1.000
    C130     C        0.73910    0.89760    0.94780    1.000
    H83      H        0.77540    0.94270    0.98160    1.000
    C131     C        0.41100    0.40820    0.61940    1.000
    H84      H        0.43580    0.44720    0.61430    1.000
    C132     C        0.33400    0.29240    0.63090    1.000
    H85      H        0.30640    0.25310    0.63360    1.000
    C133     C        0.65460    0.88140    0.93390    1.000
    C134     C        0.40610    0.55680    0.73160    1.000
    H86      H        0.45280    0.55210    0.72810    1.000
    C135     C        0.34610    0.18390    0.43530    1.000
    H87      H        0.31260    0.21110    0.45150    1.000
    C136     C        0.96600    0.90520    0.94420    1.000
    H88      H        0.00660    0.94500    0.95780    1.000
    C137     C        0.89680    0.91870    0.94360    1.000
    H89      H        0.89050    0.96570    0.95330    1.000
    C138     C        0.91930    0.77520    0.90690    1.000
    H90      H        0.92940    0.72910    0.89470    1.000
    C139     C        0.83810    0.86060    0.92830    1.000
    C140     C        0.74570    0.84300    0.90820    1.000
    H91      H        0.70960    0.79840    0.87270    1.000
    C141     C        0.84840    0.78350    0.90630    1.000
    H92      H        0.80900    0.74270    0.89280    1.000
    Zn5      Zn       0.23373    0.79247    0.90655    1.000
    Zn6      Zn       0.07920    0.82997    0.94414    1.000
    O19      O        0.19000    0.83230    0.84400    1.000
    O20      O        0.11430    0.89160    0.90390    1.000
    N8       N        0.14410    0.18250    0.61430    1.000
    O21      O        0.11740    0.90800    0.04680    1.000
    C142     C        0.15650    0.01440    0.76210    1.000
    O22      O        0.14280    0.75510    0.92010    1.000
    C143     C        0.15720    0.88490    0.86470    1.000
    C144     C        0.19420    0.96380    0.74380    1.000
    H93      H        0.21790    0.95600    0.70720    1.000
    C145     C        0.09550    0.62000    0.82540    1.000
    C146     C        0.11010    0.00430    0.30780    1.000
    O23      O        0.02640    0.70920    0.84630    1.000
    C147     C        0.15630    0.92980    0.83000    1.000
    C148     C        0.14650    0.14340    0.65290    1.000
    C149     C        0.15180    0.05970    0.72290    1.000
    C150     C        0.13800    0.25470    0.64820    1.000
    C151     C        0.11310    0.47870    0.75720    1.000
    C152     C        0.12240    0.39990    0.71680    1.000
    C153     C        0.17750    0.17070    0.50530    1.000
    H94      H        0.21030    0.21900    0.53200    1.000
    C154     C        0.09580    0.13670    0.68730    1.000
    H95      H        0.05790    0.15970    0.68650    1.000
    C155     C        0.13630    0.14030    0.53910    1.000
    C156     C        0.10260    0.28330    0.60800    1.000
    H96      H        0.08210    0.25220    0.55670    1.000
    C157     C        0.19770    0.92420    0.77870    1.000
    H97      H        0.22790    0.89190    0.76940    1.000
    C158     C        0.09930    0.09580    0.72410    1.000
    H98      H        0.06520    0.09340    0.74970    1.000
    O24      O        0.05750    0.80790    0.04240    1.000
    C159     C        0.08550    0.02160    0.42280    1.000
    H99      H        0.05550    0.97200    0.39650    1.000
    C160     C        0.15350    0.60230    0.86050    1.000
    H100     H        0.18530    0.63810    0.90750    1.000
    C161     C        0.09720    0.35440    0.64070    1.000
    H101     H        0.07610    0.37300    0.61160    1.000
    C162     C        0.20120    0.06800    0.68620    1.000
    H102     H        0.23770    0.04300    0.68370    1.000
    C163     C        0.16400    0.29970    0.72250    1.000
    H103     H        0.18650    0.28030    0.75020    1.000
    C164     C        0.05850    0.49530    0.72220    1.000
    H104     H        0.02780    0.45790    0.67520    1.000
    C165     C        0.12120    0.05090    0.38600    1.000
    C166     C        0.16120    0.53250    0.82400    1.000
    H105     H        0.20050    0.52050    0.84500    1.000
    C167     C        0.12050    0.02510    0.81300    1.000
    H106     H        0.09690    0.06330    0.82690    1.000
    C168     C        0.15930    0.37310    0.76030    1.000
    H107     H        0.17930    0.40350    0.81170    1.000
    C169     C        0.09230    0.92750    0.27230    1.000
    H108     H        0.08440    0.90320    0.29910    1.000
    C170     C        0.04700    0.56560    0.75380    1.000
    H109     H        0.00940    0.57700    0.72970    1.000
    C171     C        0.19990    0.10950    0.65420    1.000
    H110     H        0.23650    0.11520    0.63230    1.000
    C172     C        0.09460    0.06580    0.49820    1.000
    H111     H        0.07180    0.04460    0.52210    1.000
    C173     C        0.12600    0.03950    0.26860    1.000
    H112     H        0.14380    0.09200    0.29370    1.000
    C174     C        0.16590    0.12390    0.43020    1.000
    H113     H        0.19100    0.14390    0.40670    1.000
    C175     C        0.11780    0.98170    0.84450    1.000
    H114     H        0.08910    0.98740    0.87670    1.000
    C176     C        0.11600    0.99850    0.19210    1.000
    H115     H        0.12020    0.02300    0.16490    1.000
    C177     C        0.08580    0.88430    0.19670    1.000
    H116     H        0.07200    0.83170    0.17340    1.000
    C178     C        0.09950    0.91850    0.15670    1.000
    C179     C        0.08560    0.69760    0.86450    1.000
    C180     C        0.09240    0.87700    0.07930    1.000
