data_functionalizedCrystal
_audit_creation_method	'EQeq! by Chris Wilmer'
_symmetry_space_group_name_H-M	'P1'
_symmetry_Int_Tables_number	1
_symmetry_cell_setting	triclinic
loop_
_symmetry_equiv_pos_as_xyz
  x,y,z
_cell_length_a	7.452
_cell_length_b	14.586
_cell_length_c	16.472
_cell_angle_alpha	90
_cell_angle_beta	90
_cell_angle_gamma	95.46
loop_
_atom_site_label
_atom_site_type_symbol
_atom_site_fract_x
_atom_site_fract_y
_atom_site_fract_z
_atom_site_charge
Mof_Co	Co	0.209	0.67611	0.48647	1.153
Mof_Co	Co	0.18871	0.47251	0.37216	1.157
Mof_Co	Co	0.291	0.82389	0.98647	1.178
Mof_Co	Co	0.31129	0.02749	0.87216	1.13
Mof_Co	Co	0.791	0.32389	0.51353	1.155
Mof_Co	Co	0.81129	0.52749	0.62784	1.167
Mof_Co	Co	0.709	0.17611	0.01353	1.134
Mof_Co	Co	0.68871	0.97251	0.12784	1.192
Mof_Co	Co	0.5	0.5	0.5	1.175
Mof_Co	Co	-0	0	-0	1.112
Mof_H 	H 	0.837	0.4902	0.4759	0.175
Mof_H 	H 	0.4321	0.6696	0.2051	0.051
Mof_H 	H 	0.0505	0.7259	0.225	-0.004
Mof_H 	H 	0.663	0.0098	0.9759	0.193
Mof_H 	H 	0.0679	0.8304	0.7051	0.02
Mof_H 	H 	0.4495	0.7741	0.725	0.039
Mof_H 	H 	0.163	0.5098	0.5241	0.165
Mof_H 	H 	0.5679	0.3304	0.7949	0.045
Mof_H 	H 	0.9495	0.2741	0.775	0.075
Mof_H 	H 	0.337	0.9902	0.0241	0.143
Mof_H 	H 	0.9321	0.1696	0.2949	0.09
Mof_H 	H 	0.5505	0.2259	0.275	0.023
Mof_C 	C 	0.8327	0.6632	0.2805	-0.101
Mof_C 	C 	0.6467	0.6458	0.2756	-0.041
Mof_C 	C 	0.5561	0.6833	0.2101	-0.016
Mof_C 	C 	0.6474	0.7402	0.1527	-0.063
Mof_C 	C 	0.8355	0.756	0.1587	-0.125
Mof_C 	C 	0.9255	0.7163	0.2221	0.087
Mof_C 	C 	0.9437	0.6258	0.3466	0.421
Mof_C 	C 	0.5321	0.5916	0.3372	0.348
Mof_C 	C 	0.5305	0.7785	0.0887	0.341
Mof_C 	C 	0.9514	0.8168	0.1019	0.41
Mof_C 	C 	0.6673	0.8368	0.7805	-0.047
Mof_C 	C 	0.8533	0.8542	0.7756	-0.074
Mof_C 	C 	0.9439	0.8167	0.7101	0.056
Mof_C 	C 	0.8526	0.7598	0.6527	-0.099
Mof_C 	C 	0.6645	0.744	0.6587	-0.077
Mof_C 	C 	0.5745	0.7837	0.7221	0.006
Mof_C 	C 	0.5563	0.8742	0.8466	0.37
Mof_C 	C 	0.9679	0.9084	0.8372	0.378
Mof_C 	C 	0.9695	0.7215	0.5887	0.381
Mof_C 	C 	0.5486	0.6832	0.6019	0.372
Mof_C 	C 	0.1673	0.3368	0.7195	-0.033
Mof_C 	C 	0.3533	0.3542	0.7244	-0.078
Mof_C 	C 	0.4439	0.3167	0.7899	0.013
Mof_C 	C 	0.3526	0.2598	0.8473	-0.096
Mof_C 	C 	0.1645	0.244	0.8413	-0.059
Mof_C 	C 	0.0745	0.2837	0.7779	-0.065
Mof_C 	C 	0.0563	0.3742	0.6534	0.335
Mof_C 	C 	0.4679	0.4084	0.6628	0.357
Mof_C 	C 	0.4695	0.2215	0.9113	0.353
Mof_C 	C 	0.0486	0.1832	0.8981	0.329
Mof_C 	C 	0.3327	0.1632	0.2195	-0.101
Mof_C 	C 	0.1467	0.1458	0.2244	-0.028
Mof_C 	C 	0.0561	0.1833	0.2899	-0.089
Mof_C 	C 	0.1474	0.2402	0.3473	-0.044
Mof_C 	C 	0.3355	0.256	0.3413	-0.121
Mof_C 	C 	0.4255	0.2163	0.2779	0.038
Mof_C 	C 	0.4437	0.1258	0.1534	0.395
Mof_C 	C 	0.0321	0.0916	0.1628	0.304
Mof_C 	C 	0.0305	0.2785	0.4113	0.3
Mof_C 	C 	0.4514	0.3168	0.3981	0.382
Mof_O 	O 	0.9622	0.5394	0.3435	-0.434
Mof_O 	O 	0.0142	0.6798	0.3967	-0.471
Mof_O 	O 	0.3737	0.562	0.3176	-0.471
Mof_O 	O 	0.6029	0.5821	0.4056	-0.433
Mof_O 	O 	0.5203	0.8632	0.0827	-0.507
Mof_O 	O 	0.4329	0.7232	0.0469	-0.403
Mof_O 	O 	0.0939	0.7885	0.0758	-0.47
Mof_O 	O 	0.8997	0.8964	0.0843	-0.518
Mof_O 	O 	0.758	0.4593	0.5172	-0.688
Mof_O 	O 	0.5378	0.9606	0.8435	-0.397
Mof_O 	O 	0.4858	0.8202	0.8967	-0.426
Mof_O 	O 	0.1263	0.938	0.8176	-0.46
Mof_O 	O 	0.8971	0.9179	0.9056	-0.393
Mof_O 	O 	0.9797	0.6368	0.5827	-0.503
Mof_O 	O 	0.0671	0.7768	0.5469	-0.393
Mof_O 	O 	0.4061	0.7115	0.5758	-0.427
Mof_O 	O 	0.6003	0.6036	0.5843	-0.529
Mof_O 	O 	0.742	0.0407	0.0172	-0.748
Mof_O 	O 	0.0378	0.4606	0.6565	-0.434
Mof_O 	O 	0.9858	0.3202	0.6033	-0.419
Mof_O 	O 	0.6263	0.438	0.6824	-0.465
Mof_O 	O 	0.3971	0.4179	0.5944	-0.44
Mof_O 	O 	0.4797	0.1368	0.9173	-0.506
Mof_O 	O 	0.5671	0.2768	0.9531	-0.356
Mof_O 	O 	0.9061	0.2115	0.9242	-0.383
Mof_O 	O 	0.1003	0.1036	0.9157	-0.528
Mof_O 	O 	0.242	0.5407	0.4828	-0.691
Mof_O 	O 	0.4622	0.0394	0.1565	-0.471
Mof_O 	O 	0.5142	0.1798	0.1033	-0.467
Mof_O 	O 	0.8737	0.062	0.1824	-0.459
Mof_O 	O 	0.1029	0.0821	0.0944	-0.457
Mof_O 	O 	0.0203	0.3632	0.4173	-0.508
Mof_O 	O 	0.9329	0.2232	0.4531	-0.359
Mof_O 	O 	0.5939	0.2885	0.4242	-0.435
Mof_O 	O 	0.3997	0.3964	0.4157	-0.534
Mof_O 	O 	0.258	0.9593	0.9828	-0.604
_end
