data_functionalizedCrystal
_audit_creation_method	'EQeq! by Chris Wilmer'
_symmetry_space_group_name_H-M	'P1'
_symmetry_Int_Tables_number	1
_symmetry_cell_setting	triclinic
loop_
_symmetry_equiv_pos_as_xyz
  x,y,z
_cell_length_a	16.8845
_cell_length_b	16.8845
_cell_length_c	16.8845
_cell_angle_alpha	90
_cell_angle_beta	90
_cell_angle_gamma	90
loop_
_atom_site_label
_atom_site_type_symbol
_atom_site_fract_x
_atom_site_fract_y
_atom_site_fract_z
_atom_site_charge
Mof_In	In	0.99224	0.61415	0.54975	2.564
Mof_O 	O 	0.0888	0.5426	0.5056	-0.909
Mof_O 	O 	0.0384	0.7186	0.4996	-0.646
Mof_O 	O 	0.8869	0.6632	0.5968	-0.636
Mof_O 	O 	0.8851	0.58	0.7001	-0.326
Mof_C 	C 	0.1229	0.6271	0.7738	-0.223
Mof_O 	O 	0.9467	0.7432	0.409	-0.318
Mof_O 	O 	0.0536	0.6466	0.6541	-0.658
Mof_C 	C 	0.0583	0.8315	0.4209	-0.161
Mof_C 	C 	0.1248	0.8535	0.4632	0.099
Mof_H 	H 	0.1408	0.8233	0.5065	0.028
Mof_C 	C 	0.0879	0.5951	0.6967	0.538
Mof_C 	C 	0.0099	0.7595	0.4436	0.442
Mof_C 	C 	0.0903	0.6947	0.8094	0.161
Mof_H 	H 	0.0452	0.7183	0.7885	-0.019
Mof_C 	C 	0.8593	0.6378	0.6627	0.412
Mof_C 	C 	0.7503	0.6555	0.7618	0.075
Mof_H 	H 	0.769	0.6113	0.7888	0.03
Mof_C 	C 	0.7893	0.6821	0.6951	-0.156
Mof_O 	O 	0.096	0.5242	0.682	-0.565
Mof_In	In	0.50776	0.38585	0.04975	2.565
Mof_O 	O 	0.4112	0.4574	0.0056	-0.909
Mof_O 	O 	0.4616	0.2814	0.9996	-0.645
Mof_O 	O 	0.6131	0.3368	0.0968	-0.636
Mof_O 	O 	0.6149	0.42	0.2001	-0.326
Mof_C 	C 	0.3771	0.3729	0.2738	-0.225
Mof_O 	O 	0.5533	0.2568	0.909	-0.318
Mof_O 	O 	0.4464	0.3534	0.1541	-0.66
Mof_C 	C 	0.4417	0.1685	0.9209	-0.163
Mof_C 	C 	0.3752	0.1465	0.9632	0.101
Mof_H 	H 	0.3592	0.1767	0.0065	0.025
Mof_C 	C 	0.4121	0.4049	0.1967	0.537
Mof_C 	C 	0.4901	0.2405	0.9436	0.44
Mof_C 	C 	0.4097	0.3053	0.3094	0.161
Mof_H 	H 	0.4548	0.2817	0.2885	-0.021
Mof_C 	C 	0.6407	0.3622	0.1627	0.411
Mof_C 	C 	0.7497	0.3445	0.2618	0.074
Mof_H 	H 	0.731	0.3887	0.2888	0.029
Mof_C 	C 	0.7107	0.3179	0.1951	-0.157
Mof_O 	O 	0.404	0.4758	0.182	-0.566
Mof_In	In	0.00776	0.11415	0.95025	2.568
Mof_O 	O 	0.9112	0.0426	0.9944	-0.908
Mof_O 	O 	0.9616	0.2186	0.0004	-0.648
Mof_O 	O 	0.1131	0.1632	0.9032	-0.637
Mof_O 	O 	0.1149	0.08	0.7999	-0.327
Mof_C 	C 	0.8771	0.1271	0.7262	-0.224
Mof_O 	O 	0.0533	0.2432	0.091	-0.321
Mof_O 	O 	0.9464	0.1466	0.8459	-0.659
Mof_C 	C 	0.9417	0.3315	0.0791	-0.164
Mof_C 	C 	0.8752	0.3535	0.0368	0.1
Mof_H 	H 	0.8592	0.3233	0.9935	0.026
Mof_C 	C 	0.9121	0.0951	0.8033	0.536
Mof_C 	C 	0.9901	0.2595	0.0564	0.444
Mof_C 	C 	0.9097	0.1947	0.6906	0.161
Mof_H 	H 	0.9548	0.2183	0.7115	-0.02
Mof_C 	C 	0.1407	0.1378	0.8373	0.411
Mof_C 	C 	0.2497	0.1555	0.7382	0.074
Mof_H 	H 	0.231	0.1113	0.7112	0.029
Mof_C 	C 	0.2107	0.1821	0.8049	-0.157
Mof_O 	O 	0.904	0.0242	0.818	-0.563
Mof_In	In	0.49224	0.88585	0.45025	2.565
Mof_O 	O 	0.5888	0.9574	0.4944	-0.91
Mof_O 	O 	0.5384	0.7814	0.5004	-0.647
Mof_O 	O 	0.3869	0.8368	0.4032	-0.637
Mof_O 	O 	0.3851	0.92	0.2999	-0.326
Mof_C 	C 	0.6229	0.8729	0.2262	-0.224
Mof_O 	O 	0.4467	0.7568	0.591	-0.318
Mof_O 	O 	0.5536	0.8534	0.3459	-0.66
Mof_C 	C 	0.5583	0.6685	0.5791	-0.161
Mof_C 	C 	0.6248	0.6465	0.5368	0.096
Mof_H 	H 	0.6408	0.6767	0.4935	0.028
Mof_C 	C 	0.5879	0.9049	0.3033	0.537
Mof_C 	C 	0.5099	0.7405	0.5564	0.44
Mof_C 	C 	0.5903	0.8053	0.1906	0.161
Mof_H 	H 	0.5452	0.7817	0.2115	-0.02
Mof_C 	C 	0.3593	0.8622	0.3373	0.411
Mof_C 	C 	0.2503	0.8445	0.2382	0.074
Mof_H 	H 	0.269	0.8887	0.2112	0.029
Mof_C 	C 	0.2893	0.8179	0.3049	-0.157
Mof_O 	O 	0.596	0.9758	0.318	-0.566
Mof_In	In	0.54975	0.99224	0.61415	2.563
Mof_O 	O 	0.5056	0.0888	0.5426	-0.91
Mof_O 	O 	0.4996	0.0384	0.7186	-0.647
Mof_O 	O 	0.5968	0.8869	0.6632	-0.637
Mof_O 	O 	0.7001	0.8851	0.58	-0.327
Mof_C 	C 	0.7738	0.1229	0.6271	-0.224
Mof_O 	O 	0.409	0.9467	0.7432	-0.319
Mof_O 	O 	0.6541	0.0536	0.6466	-0.659
Mof_C 	C 	0.4209	0.0583	0.8315	-0.162
Mof_C 	C 	0.4632	0.1248	0.8535	0.098
Mof_H 	H 	0.5065	0.1408	0.8233	0.027
Mof_C 	C 	0.6967	0.0879	0.5951	0.537
Mof_C 	C 	0.4436	0.0099	0.7595	0.441
Mof_C 	C 	0.8094	0.0903	0.6947	0.16
Mof_H 	H 	0.7885	0.0452	0.7183	-0.02
Mof_C 	C 	0.6627	0.8593	0.6378	0.411
Mof_C 	C 	0.7618	0.7503	0.6555	0.074
Mof_H 	H 	0.7888	0.769	0.6113	0.029
Mof_C 	C 	0.6951	0.7893	0.6821	-0.157
Mof_O 	O 	0.682	0.096	0.5242	-0.566
Mof_In	In	0.04975	0.50776	0.38585	2.564
Mof_O 	O 	0.0056	0.4112	0.4574	-0.91
Mof_O 	O 	0.9996	0.4616	0.2814	-0.646
Mof_O 	O 	0.0968	0.6131	0.3368	-0.637
Mof_O 	O 	0.2001	0.6149	0.42	-0.327
Mof_C 	C 	0.2738	0.3771	0.3729	-0.225
Mof_O 	O 	0.909	0.5533	0.2568	-0.318
Mof_O 	O 	0.1541	0.4464	0.3534	-0.66
Mof_C 	C 	0.9209	0.4417	0.1685	-0.163
Mof_C 	C 	0.9632	0.3752	0.1465	0.101
Mof_H 	H 	0.0065	0.3592	0.1767	0.025
Mof_C 	C 	0.1967	0.4121	0.4049	0.537
Mof_C 	C 	0.9436	0.4901	0.2405	0.44
Mof_C 	C 	0.3094	0.4097	0.3053	0.161
Mof_H 	H 	0.2885	0.4548	0.2817	-0.021
Mof_C 	C 	0.1627	0.6407	0.3622	0.411
Mof_C 	C 	0.2618	0.7497	0.3445	0.074
Mof_H 	H 	0.2888	0.731	0.3887	0.029
Mof_C 	C 	0.1951	0.7107	0.3179	-0.157
Mof_O 	O 	0.182	0.404	0.4758	-0.566
Mof_In	In	0.95025	0.00776	0.11415	2.568
Mof_O 	O 	0.9944	0.9112	0.0426	-0.908
Mof_O 	O 	0.0004	0.9616	0.2186	-0.648
Mof_O 	O 	0.9032	0.1131	0.1632	-0.637
Mof_O 	O 	0.7999	0.1149	0.08	-0.327
Mof_C 	C 	0.7262	0.8771	0.1271	-0.224
Mof_O 	O 	0.091	0.0533	0.2432	-0.321
Mof_O 	O 	0.8459	0.9464	0.1466	-0.659
Mof_C 	C 	0.0791	0.9417	0.3315	-0.164
Mof_C 	C 	0.0368	0.8752	0.3535	0.1
Mof_H 	H 	0.9935	0.8592	0.3233	0.026
Mof_C 	C 	0.8033	0.9121	0.0951	0.536
Mof_C 	C 	0.0564	0.9901	0.2595	0.444
Mof_C 	C 	0.6906	0.9097	0.1947	0.161
Mof_H 	H 	0.7115	0.9548	0.2183	-0.02
Mof_C 	C 	0.8373	0.1407	0.1378	0.411
Mof_C 	C 	0.7382	0.2497	0.1555	0.074
Mof_H 	H 	0.7112	0.231	0.1113	0.029
Mof_C 	C 	0.8049	0.2107	0.1821	-0.157
Mof_O 	O 	0.818	0.904	0.0242	-0.563
Mof_In	In	0.45025	0.49224	0.88585	2.565
Mof_O 	O 	0.4944	0.5888	0.9574	-0.91
Mof_O 	O 	0.5004	0.5384	0.7814	-0.647
Mof_O 	O 	0.4032	0.3869	0.8368	-0.637
Mof_O 	O 	0.2999	0.3851	0.92	-0.326
Mof_C 	C 	0.2262	0.6229	0.8729	-0.224
Mof_O 	O 	0.591	0.4467	0.7568	-0.318
Mof_O 	O 	0.3459	0.5536	0.8534	-0.66
Mof_C 	C 	0.5791	0.5583	0.6685	-0.161
Mof_C 	C 	0.5368	0.6248	0.6465	0.096
Mof_H 	H 	0.4935	0.6408	0.6767	0.028
Mof_C 	C 	0.3033	0.5879	0.9049	0.537
Mof_C 	C 	0.5564	0.5099	0.7405	0.44
Mof_C 	C 	0.1906	0.5903	0.8053	0.161
Mof_H 	H 	0.2115	0.5452	0.7817	-0.02
Mof_C 	C 	0.3373	0.3593	0.8622	0.411
Mof_C 	C 	0.2382	0.2503	0.8445	0.074
Mof_H 	H 	0.2112	0.269	0.8887	0.029
Mof_C 	C 	0.3049	0.2893	0.8179	-0.157
Mof_O 	O 	0.318	0.596	0.9758	-0.566
Mof_In	In	0.61415	0.54975	0.99224	2.563
Mof_O 	O 	0.5426	0.5056	0.0888	-0.91
Mof_O 	O 	0.7186	0.4996	0.0384	-0.647
Mof_O 	O 	0.6632	0.5968	0.8869	-0.637
Mof_O 	O 	0.58	0.7001	0.8851	-0.327
Mof_C 	C 	0.6271	0.7738	0.1229	-0.224
Mof_O 	O 	0.7432	0.409	0.9467	-0.319
Mof_O 	O 	0.6466	0.6541	0.0536	-0.659
Mof_C 	C 	0.8315	0.4209	0.0583	-0.162
Mof_C 	C 	0.8535	0.4632	0.1248	0.098
Mof_H 	H 	0.8233	0.5065	0.1408	0.027
Mof_C 	C 	0.5951	0.6967	0.0879	0.537
Mof_C 	C 	0.7595	0.4436	0.0099	0.441
Mof_C 	C 	0.6947	0.8094	0.0903	0.16
Mof_H 	H 	0.7183	0.7885	0.0452	-0.02
Mof_C 	C 	0.6378	0.6627	0.8593	0.411
Mof_C 	C 	0.6555	0.7618	0.7503	0.074
Mof_H 	H 	0.6113	0.7888	0.769	0.029
Mof_C 	C 	0.6821	0.6951	0.7893	-0.157
Mof_O 	O 	0.5242	0.682	0.096	-0.566
Mof_In	In	0.38585	0.04975	0.50776	2.564
Mof_O 	O 	0.4574	0.0056	0.4112	-0.91
Mof_O 	O 	0.2814	0.9996	0.4616	-0.646
Mof_O 	O 	0.3368	0.0968	0.6131	-0.637
Mof_O 	O 	0.42	0.2001	0.6149	-0.327
Mof_C 	C 	0.3729	0.2738	0.3771	-0.225
Mof_O 	O 	0.2568	0.909	0.5533	-0.318
Mof_O 	O 	0.3534	0.1541	0.4464	-0.66
Mof_C 	C 	0.1685	0.9209	0.4417	-0.163
Mof_C 	C 	0.1465	0.9632	0.3752	0.101
Mof_H 	H 	0.1767	0.0065	0.3592	0.025
Mof_C 	C 	0.4049	0.1967	0.4121	0.537
Mof_C 	C 	0.2405	0.9436	0.4901	0.44
Mof_C 	C 	0.3053	0.3094	0.4097	0.161
Mof_H 	H 	0.2817	0.2885	0.4548	-0.021
Mof_C 	C 	0.3622	0.1627	0.6407	0.411
Mof_C 	C 	0.3445	0.2618	0.7497	0.074
Mof_H 	H 	0.3887	0.2888	0.731	0.029
Mof_C 	C 	0.3179	0.1951	0.7107	-0.157
Mof_O 	O 	0.4758	0.182	0.404	-0.566
Mof_In	In	0.11415	0.95025	0.00776	2.568
Mof_O 	O 	0.0426	0.9944	0.9112	-0.908
Mof_O 	O 	0.2186	0.0004	0.9616	-0.648
Mof_O 	O 	0.1632	0.9032	0.1131	-0.637
Mof_O 	O 	0.08	0.7999	0.1149	-0.327
Mof_C 	C 	0.1271	0.7262	0.8771	-0.224
Mof_O 	O 	0.2432	0.091	0.0533	-0.321
Mof_O 	O 	0.1466	0.8459	0.9464	-0.659
Mof_C 	C 	0.3315	0.0791	0.9417	-0.164
Mof_C 	C 	0.3535	0.0368	0.8752	0.1
Mof_H 	H 	0.3233	0.9935	0.8592	0.026
Mof_C 	C 	0.0951	0.8033	0.9121	0.536
Mof_C 	C 	0.2595	0.0564	0.9901	0.444
Mof_C 	C 	0.1947	0.6906	0.9097	0.161
Mof_H 	H 	0.2183	0.7115	0.9548	-0.02
Mof_C 	C 	0.1378	0.8373	0.1407	0.411
Mof_C 	C 	0.1555	0.7382	0.2497	0.074
Mof_H 	H 	0.1113	0.7112	0.231	0.029
Mof_C 	C 	0.1821	0.8049	0.2107	-0.157
Mof_O 	O 	0.0242	0.818	0.904	-0.563
Mof_In	In	0.88585	0.45025	0.49224	2.565
Mof_O 	O 	0.9574	0.4944	0.5888	-0.91
Mof_O 	O 	0.7814	0.5004	0.5384	-0.647
Mof_O 	O 	0.8368	0.4032	0.3869	-0.637
Mof_O 	O 	0.92	0.2999	0.3851	-0.326
Mof_C 	C 	0.8729	0.2262	0.6229	-0.224
Mof_O 	O 	0.7568	0.591	0.4467	-0.318
Mof_O 	O 	0.8534	0.3459	0.5536	-0.66
Mof_C 	C 	0.6685	0.5791	0.5583	-0.161
Mof_C 	C 	0.6465	0.5368	0.6248	0.096
Mof_H 	H 	0.6767	0.4935	0.6408	0.028
Mof_C 	C 	0.9049	0.3033	0.5879	0.537
Mof_C 	C 	0.7405	0.5564	0.5099	0.44
Mof_C 	C 	0.8053	0.1906	0.5903	0.161
Mof_H 	H 	0.7817	0.2115	0.5452	-0.02
Mof_C 	C 	0.8622	0.3373	0.3593	0.411
Mof_C 	C 	0.8445	0.2382	0.2503	0.074
Mof_H 	H 	0.8887	0.2112	0.269	0.029
Mof_C 	C 	0.8179	0.3049	0.2893	-0.157
Mof_O 	O 	0.9758	0.318	0.596	-0.566
Mof_Sm	Sm	0.08394	0.41606	0.58394	1.838
Mof_O 	O 	0.9398	0.5602	0.4398	-0.985
Mof_Sm	Sm	0.41606	0.58394	0.08394	1.838
Mof_O 	O 	0.5602	0.4398	0.9398	-0.985
Mof_Sm	Sm	0.91606	0.91606	0.91606	1.824
Mof_O 	O 	0.0602	0.0602	0.0602	-0.988
Mof_Sm	Sm	0.58394	0.08394	0.41606	1.838
Mof_O 	O 	0.4398	0.9398	0.5602	-0.985
_end
