# CIF file generated by openbabel 3.1.0, see https://openbabel.org
data_I
_chemical_name_common 'image0'
_cell_length_a 9.4491
_cell_length_b 10.0762
_cell_length_c 11.5763
_cell_angle_alpha 73.093
_cell_angle_beta 89.597
_cell_angle_gamma 80.097
_space_group_name_H-M_alt 'P 1'
_space_group_name_Hall 'P 1'
loop_
    _symmetry_equiv_pos_as_xyz
    x,y,z
loop_
    _atom_site_label
    _atom_site_type_symbol
    _atom_site_fract_x
    _atom_site_fract_y
    _atom_site_fract_z
    _atom_site_occupancy
    Mn1      Mn       0.00947    0.08932    0.16786    1.000
    O1       O        0.03260    0.21219    0.41233    1.000
    O2       O        0.98120    0.28500    0.21232    1.000
    O3       O        0.06970    0.89890    0.12465    1.000
    O4       O        0.99130    0.77700    0.01132    1.000
    O5       O        0.02110    0.54476    0.19814    1.000
    O6       O        0.10431    0.01180    0.66595    1.000
    O7       O        0.23810    0.91860    0.83410    1.000
    O8       O        0.77200    0.95070    0.75945    1.000
    O9       O        0.80125    0.08270    0.57070    1.000
    O10      O        0.48060    0.99780    0.71107    1.000
    C1       C        0.01900    0.30120    0.31110    1.000
    C2       C        0.04930    0.44200    0.30620    1.000
    C3       C        0.09600    0.49530    0.38980    1.000
    H1       H        0.12340    0.44570    0.47190    1.000
    C4       C        0.09620    0.64070    0.33100    1.000
    H2       H        0.12310    0.70710    0.36660    1.000
    C5       C        0.05130    0.66580    0.21560    1.000
    C6       C        0.03450    0.79090    0.10950    1.000
    C7       C        0.22350    0.98640    0.72490    1.000
    C8       C        0.34410    0.04560    0.65800    1.000
    C9       C        0.34560    0.14150    0.55030    1.000
    H3       H        0.26520    0.19030    0.49680    1.000
    C10      C        0.49060    0.15520    0.53230    1.000
    H4       H        0.52640    0.21570    0.46360    1.000
    C11      C        0.56910    0.06770    0.62910    1.000
    C12      C        0.72710    0.03000    0.65650    1.000
    Mn2      Mn       0.99053    0.91068    0.83214    1.000
    O11      O        0.96740    0.78781    0.58767    1.000
    O12      O        0.01880    0.71500    0.78768    1.000
    O13      O        0.93030    0.10110    0.87535    1.000
    O14      O        0.00870    0.22300    0.98868    1.000
    O15      O        0.97890    0.45524    0.80186    1.000
    O16      O        0.89569    0.98820    0.33405    1.000
    O17      O        0.76190    0.08140    0.16590    1.000
    O18      O        0.22800    0.04930    0.24055    1.000
    O19      O        0.19875    0.91730    0.42930    1.000
    O20      O        0.51940    0.00220    0.28893    1.000
    C13      C        0.98100    0.69880    0.68890    1.000
    C14      C        0.95070    0.55800    0.69380    1.000
    C15      C        0.90400    0.50470    0.61020    1.000
    H5       H        0.87660    0.55430    0.52810    1.000
    C16      C        0.90380    0.35930    0.66900    1.000
    H6       H        0.87690    0.29290    0.63340    1.000
    C17      C        0.94870    0.33420    0.78440    1.000
    C18      C        0.96550    0.20910    0.89050    1.000
    C19      C        0.77650    0.01360    0.27510    1.000
    C20      C        0.65590    0.95440    0.34200    1.000
    C21      C        0.65440    0.85850    0.44970    1.000
    H7       H        0.73480    0.80970    0.50320    1.000
    C22      C        0.50940    0.84480    0.46770    1.000
    H8       H        0.47360    0.78430    0.53640    1.000
    C23      C        0.43090    0.93230    0.37090    1.000
    C24      C        0.27290    0.97000    0.34350    1.000
    Mn3      Mn       0.00000    0.00000    0.50000    1.000
