# CIF file generated by openbabel 3.1.0, see https://openbabel.org
data_I
_chemical_name_common 'JOFGOC_clean'
_cell_length_a 13.515
_cell_length_b 16.1819
_cell_length_c 16.1819
_cell_angle_alpha 79.957
_cell_angle_beta 65.317
_cell_angle_gamma 65.3171
_space_group_name_H-M_alt 'P 1'
_space_group_name_Hall 'P 1'
loop_
    _symmetry_equiv_pos_as_xyz
    x,y,z
loop_
    _atom_site_label
    _atom_site_type_symbol
    _atom_site_fract_x
    _atom_site_fract_y
    _atom_site_fract_z
    _atom_site_occupancy
    Cd1      Cd       0.58834    0.79197    0.79444    1.000
    H1       H        0.45420    0.00370    0.73930    1.000
    H2       H        0.74690    0.58880    0.76560    1.000
    H3       H        0.46530    0.16420    0.60020    1.000
    H4       H        0.57660    0.70340    0.00420    1.000
    H5       H        0.36460    0.14920    0.68740    1.000
    H6       H        0.80510    0.41300    0.76720    1.000
    H7       H        0.62230    0.87320    0.45960    1.000
    H8       H        0.96340    0.28480    0.58720    1.000
    H9       H        0.64130    0.56760    0.07320    1.000
    H10      H        0.22310    0.09440    0.71980    1.000
    H11      H        0.33290    0.38510    0.63610    1.000
    H12      H        0.34970    0.20140    0.52480    1.000
    H13      H        0.15450    0.43760    0.62120    1.000
    H14      H        0.19290    0.28730    0.88410    1.000
    H15      H        0.15430    0.27250    0.52370    1.000
    H16      H        0.03150    0.10570    0.77970    1.000
    H17      H        0.51320    0.02890    0.47470    1.000
    H18      H        0.00990    0.34670    0.87370    1.000
    H19      H        0.95670    0.45220    0.68200    1.000
    H20      H        0.86860    0.36280    0.83420    1.000
    H21      H        0.64750    0.78830    0.58370    1.000
    H22      H        0.76720    0.43520    0.98480    1.000
    C1       C        0.52310    0.99393    0.52487    1.000
    C2       C        0.39860    0.29410    0.77170    1.000
    C3       C        0.40763    0.13635    0.62279    1.000
    C4       C        0.62585    0.65144    0.96846    1.000
    C5       C        0.85133    0.20149    0.72785    1.000
    C6       C        0.47238    0.03449    0.60975    1.000
    C7       C        0.28179    0.33091    0.76211    1.000
    C8       C        0.17167    0.13267    0.69239    1.000
    C9       C        0.84898    0.41812    0.79932    1.000
    C10      C        0.07462    0.35278    0.82498    1.000
    C11      C        0.66450    0.57029    0.01031    1.000
    C12      C        0.12995    0.23930    0.57580    1.000
    C13      C        0.18462    0.31868    0.83188    1.000
    C14      C        0.73970    0.49093    0.95747    1.000
    C15      C        0.77175    0.49773    0.86377    1.000
    C16      C        0.21211    0.18253    0.61565    1.000
    C17      C        0.01571    0.24556    0.61342    1.000
    C18      C        0.60205    0.85035    0.59075    1.000
    C19      C        0.97465    0.19566    0.68924    1.000
    C20      C        0.58823    0.90107    0.51587    1.000
    C21      C        0.26884    0.37623    0.68309    1.000
    C22      C        0.72658    0.58367    0.82817    1.000
    C23      C        0.06139    0.39610    0.74512    1.000
    C24      C        0.16144    0.40794    0.67438    1.000
    C25      C        0.05618    0.13942    0.72822    1.000
    C26      C        0.48879    0.97782    0.68200    1.000
    N1       N        0.55242    0.88711    0.67365    1.000
    N2       N        0.32589    0.17814    0.57788    1.000
    N3       N        0.95783    0.42628    0.73286    1.000
    N4       N        0.65569    0.65953    0.87849    1.000
    O1       O        0.47951    0.32222    0.72016    1.000
    O2       O        0.41601    0.23282    0.83096    1.000
    O3       O        0.77812    0.25475    0.69349    1.000
    O4       O        0.81899    0.15065    0.79577    1.000
    Cd2      Cd       0.61969    0.20556    0.79197    1.000
    H23      H        0.86280    0.22030    0.10570    1.000
    H24      H        0.79110    0.92680    0.56760    1.000
    H25      H        0.44890    0.47520    0.20140    1.000
    H26      H        0.66430    0.23440    0.58880    1.000
    H27      H        0.72000    0.99580    0.70340    1.000
    H28      H        0.51980    0.11590    0.28730    1.000
    H29      H        0.78190    0.23280    0.41300    1.000
    H30      H        0.59110    0.31800    0.45220    1.000
    H31      H        0.37050    0.39980    0.16420    1.000
    H32      H        0.48620    0.31260    0.14920    1.000
    H33      H        0.54210    0.26070    0.00370    1.000
    H34      H        0.79760    0.01520    0.43520    1.000
    H35      H        0.76860    0.16580    0.36280    1.000
    H36      H        0.40790    0.37880    0.43760    1.000
    H37      H        0.68250    0.28020    0.09440    1.000
    H38      H        0.50450    0.54040    0.87320    1.000
    H39      H        0.64340    0.12630    0.34670    1.000
    H40      H        0.56420    0.41630    0.78830    1.000
    H41      H        0.45790    0.52530    0.02890    1.000
    H42      H        0.75180    0.41280    0.28480    1.000
    H43      H        0.57320    0.47630    0.27250    1.000
    H44      H        0.28200    0.36390    0.38510    1.000
    C27      C        0.76937    0.04253    0.49093    1.000
    C28      C        0.45602    0.37721    0.13635    1.000
    C29      C        0.48297    0.47513    0.99393    1.000
    C30      C        0.82969    0.31076    0.19566    1.000
    C31      C        0.54760    0.40925    0.85035    1.000
    C32      C        0.30730    0.22830    0.29410    1.000
    C33      C        0.51070    0.48413    0.90107    1.000
    C34      C        0.49670    0.16812    0.31868    1.000
    C35      C        0.57260    0.17502    0.35278    1.000
    C36      C        0.35493    0.31691    0.37623    1.000
    C37      C        0.73052    0.13623    0.49773    1.000
    C38      C        0.73873    0.38658    0.24556    1.000
    C39      C        0.69566    0.30761    0.13267    1.000
    C40      C        0.54251    0.25488    0.39610    1.000
    C41      C        0.68975    0.17183    0.58367    1.000
    C42      C        0.49313    0.39025    0.03449    1.000
    C43      C        0.63075    0.42420    0.23930    1.000
    C44      C        0.94718    0.27215    0.20149    1.000
    C45      C        0.38730    0.23789    0.33091    1.000
    C46      C        0.60536    0.38435    0.18253    1.000
    C47      C        0.73290    0.20068    0.41812    1.000
    C48      C        0.76521    0.98969    0.57029    1.000
    C49      C        0.72271    0.03154    0.65144    1.000
    C50      C        0.80440    0.27178    0.13942    1.000
    C51      C        0.43062    0.32562    0.40794    1.000
    C52      C        0.53339    0.31800    0.97782    1.000
    N5       N        0.56047    0.32635    0.88711    1.000
    N6       N        0.49597    0.42212    0.17814    1.000
    N7       N        0.68478    0.12151    0.65953    1.000
    N8       N        0.61589    0.26714    0.42628    1.000
    O5       O        0.96713    0.30651    0.25475    1.000
    O6       O        0.35117    0.16904    0.23282    1.000
    O7       O        0.03036    0.20423    0.15065    1.000
    O8       O        0.19827    0.27984    0.32222    1.000
    Cd3      Cd       0.17475    0.20803    0.20555    1.000
    H45      H        0.35410    0.61490    0.36390    1.000
    H46      H        0.98530    0.58700    0.23280    1.000
    H47      H        0.09090    0.54780    0.31800    1.000
    H48      H        0.01950    0.21170    0.41630    1.000
    H49      H        0.21330    0.56240    0.37880    1.000
    H50      H        0.91690    0.89430    0.22030    1.000
    H51      H        0.22970    0.83580    0.39980    1.000
    H52      H        0.20120    0.85080    0.31260    1.000
    H53      H        0.18720    0.56480    0.01520    1.000
    H54      H        0.28210    0.43240    0.92680    1.000
    H55      H        0.03730    0.90560    0.28020    1.000
    H56      H        0.19720    0.99630    0.26070    1.000
    H57      H        0.01680    0.97110    0.52530    1.000
    H58      H        0.07590    0.79860    0.47520    1.000
    H59      H        0.28420    0.29660    0.99580    1.000
    H60      H        0.83540    0.71520    0.41280    1.000
    H61      H        0.36430    0.71270    0.11590    1.000
    H62      H        0.95050    0.72750    0.47630    1.000
    H63      H        0.10130    0.41120    0.23440    1.000
    H64      H        0.06560    0.63720    0.16580    1.000
    H65      H        0.95510    0.12680    0.54040    1.000
    H66      H        0.23030    0.65330    0.12630    1.000
    C53      C        0.92382    0.86058    0.27178    1.000
    C54      C        0.01029    0.81747    0.38435    1.000
    C55      C        0.18810    0.50907    0.04253    1.000
    C56      C        0.16677    0.86365    0.37721    1.000
    C57      C        0.24510    0.42971    0.98969    1.000
    C58      C        0.24376    0.59206    0.32562    1.000
    C59      C        0.94505    0.76070    0.42420    1.000
    C60      C        0.85955    0.80434    0.31076    1.000
    C61      C        0.99673    0.86733    0.30761    1.000
    C62      C        0.46440    0.70590    0.22830    1.000
    C63      C        0.24575    0.34856    0.03154    1.000
    C64      C        0.25238    0.64722    0.17502    1.000
    C65      C        0.37481    0.66909    0.23789    1.000
    C66      C        0.33518    0.68132    0.16812    1.000
    C67      C        0.06642    0.58188    0.20068    1.000
    C68      C        0.04190    0.00607    0.47513    1.000
    C69      C        0.32816    0.62377    0.31691    1.000
    C70      C        0.00517    0.09893    0.48413    1.000
    C71      C        0.20261    0.60390    0.25488    1.000
    C72      C        0.87469    0.75444    0.38658    1.000
    C73      C        0.13325    0.50227    0.13623    1.000
    C74      C        0.78067    0.79851    0.27215    1.000
    C75      C        0.04315    0.14965    0.40925    1.000
    C76      C        0.14861    0.02218    0.31800    1.000
    C77      C        0.11662    0.96551    0.39025    1.000
    C78      C        0.13842    0.41633    0.17183    1.000
    N9       N        0.11697    0.57372    0.26714    1.000
    N10      N        0.11318    0.11289    0.32635    1.000
    N11      N        0.08191    0.82186    0.42212    1.000
    N12      N        0.19371    0.34047    0.12151    1.000
    O9       O        0.47979    0.76718    0.16904    1.000
    O10      O        0.72636    0.74525    0.30651    1.000
    O11      O        0.76541    0.84935    0.20423    1.000
    O12      O        0.52189    0.67778    0.27984    1.000
    Cd4      Cd       0.61723    0.79444    0.20802    1.000
    H67      H        0.05710    0.71980    0.90560    1.000
    H68      H        0.36130    0.68200    0.54780    1.000
    H69      H        0.42770    0.76720    0.58700    1.000
    H70      H        0.44940    0.58720    0.71520    1.000
    H71      H        0.48750    0.76560    0.41120    1.000
    H72      H        0.32200    0.52370    0.72750    1.000
    H73      H        0.01210    0.47470    0.97110    1.000
    H74      H        0.12550    0.52480    0.79860    1.000
    H75      H        0.93450    0.60020    0.83580    1.000
    H76      H        0.18880    0.77970    0.89430    1.000
    H77      H        0.11640    0.87370    0.65330    1.000
    H78      H        0.91810    0.45960    0.12680    1.000
    H79      H        0.80650    0.73930    0.99630    1.000
    H80      H        0.41920    0.00420    0.29660    1.000
    H81      H        0.24800    0.98480    0.56480    1.000
    H82      H        0.03100    0.63610    0.61490    1.000
    H83      H        0.29720    0.83420    0.63720    1.000
    H84      H        0.28550    0.07320    0.43240    1.000
    H85      H        0.94800    0.68740    0.85080    1.000
    H86      H        0.92300    0.88410    0.71270    1.000
    H87      H        0.76880    0.58370    0.21170    1.000
    H88      H        0.22430    0.62120    0.56240    1.000
    C79      C        0.35170    0.79932    0.58188    1.000
    C80      C        0.82970    0.77170    0.70590    1.000
    C81      C        0.42082    0.72785    0.79851    1.000
    C82      C        0.95610    0.76211    0.66909    1.000
    C83      C        0.17224    0.61565    0.81747    1.000
    C84      C        0.30283    0.95747    0.50907    1.000
    C85      C        0.16418    0.67438    0.59206    1.000
    C86      C        0.36448    0.86377    0.50227    1.000
    C87      C        0.21560    0.72822    0.86058    1.000
    C88      C        0.33611    0.68924    0.80434    1.000
    C89      C        0.96958    0.62279    0.86365    1.000
    C90      C        0.98350    0.83188    0.68132    1.000
    C91      C        0.37087    0.61342    0.75444    1.000
    C92      C        0.95203    0.52487    0.00607    1.000
    C93      C        0.19349    0.74512    0.60390    1.000
    C94      C        0.32519    0.01031    0.42971    1.000
    C95      C        0.04807    0.68309    0.62377    1.000
    C96      C        0.80720    0.59075    0.14965    1.000
    C97      C        0.91787    0.60975    0.96551    1.000
    C98      C        0.10040    0.82498    0.64722    1.000
    C99      C        0.82921    0.68200    0.02218    1.000
    C100     C        0.89590    0.51587    0.09893    1.000
    C101     C        0.40569    0.96846    0.34856    1.000
    C102     C        0.13594    0.69239    0.86733    1.000
    C103     C        0.44525    0.82817    0.41633    1.000
    C104     C        0.29425    0.57580    0.76070    1.000
    N13      N        0.09623    0.57788    0.82186    1.000
    N14      N        0.77393    0.67365    0.11289    1.000
    N15      N        0.30931    0.73286    0.57372    1.000
    N16      N        0.46582    0.87849    0.34047    1.000
    O13      O        0.75303    0.83096    0.76718    1.000
    O14      O        0.38524    0.79577    0.84935    1.000
    O15      O        0.80033    0.72016    0.67778    1.000
    O16      O        0.52839    0.69349    0.74525    1.000
