data_functionalizedCrystal
_audit_creation_method	'EQeq! by Chris Wilmer'
_symmetry_space_group_name_H-M	'P1'
_symmetry_Int_Tables_number	1
_symmetry_cell_setting	triclinic
loop_
_symmetry_equiv_pos_as_xyz
  x,y,z
_cell_length_a	34.9043
_cell_length_b	14.955
_cell_length_c	30.3469
_cell_angle_alpha	90
_cell_angle_beta	100.074
_cell_angle_gamma	90
loop_
_atom_site_label
_atom_site_type_symbol
_atom_site_fract_x
_atom_site_fract_y
_atom_site_fract_z
_atom_site_charge
Mof_I 	I 	0.97985	0.3452	0.86483	-0.217
Mof_Zn	Zn	0.92055	0.37438	0.90318	1.152
Mof_N 	N 	0.88242	0.445	0.85569	-0.284
Mof_I 	I 	0.8861	0.2684	0.94117	-0.096
Mof_N 	N 	0.93573	0.4806	0.947	-0.269
Mof_C 	C 	0.9106	0.5054	0.9725	0.023
Mof_C 	C 	0.9666	0.5321	0.9468	0.005
Mof_H 	H 	0.8883	0.4692	0.9726	-0.053
Mof_C 	C 	0.915	0.5812	0.9988	-0.129
Mof_C 	C 	0.97308	0.6095	0.9722	-0.11
Mof_H 	H 	0.9851	0.5153	0.9287	-0.059
Mof_C 	C 	0.94695	0.6341	0.9985	0.018
Mof_H 	H 	0.8963	0.5963	0.0169	0.03
Mof_H 	H 	0.9955	0.645	0.9712	-0.063
Mof_C 	C 	0.95193	0.7166	0.0265	0.079
Mof_N 	N 	0.98157	0.7706	0.02177	-0.173
Mof_N 	N 	0.92766	0.7272	0.0554	-0.145
Mof_C 	C 	0.98578	0.8395	0.0503	0.074
Mof_C 	C 	0.93392	0.8005	0.0809	0.089
Mof_C 	C 	0.02014	0.898	0.0505	0.027
Mof_N 	N 	0.96286	0.8585	0.07983	-0.152
Mof_C 	C 	0.90822	0.816	0.1138	0.059
Mof_C 	C 	0.0387	0.9042	0.0162	-0.116
Mof_C 	C 	0.035	0.943	0.0884	-0.162
Mof_C 	C 	0.9127	0.8885	0.1412	-0.121
Mof_C 	C 	0.8784	0.76	0.1173	-0.125
Mof_C 	C 	0.0709	0.9583	0.0185	0.043
Mof_H 	H 	0.0298	0.871	0.9897	-0.026
Mof_H 	H 	0.0227	0.94	0.1139	0.069
Mof_C 	C 	0.0681	0.993	0.0893	0.063
Mof_C 	C 	0.8883	0.9003	0.1715	0.068
Mof_H 	H 	0.9326	0.9309	0.1394	0.051
Mof_C 	C 	0.8554	0.7756	0.1483	0.076
Mof_H 	H 	0.8735	0.7097	0.098	0.054
Mof_H 	H 	0.0836	0.9616	0.9934	-0.035
Mof_N 	N 	0.08467	0.0056	0.0543	-0.28
Mof_H 	H 	0.0796	0.0199	0.1169	-0.031
Mof_N 	N 	0.86102	0.8437	0.1771	-0.286
Mof_H 	H 	0.8914	0.9527	0.1895	-0
Mof_H 	H 	0.8343	0.736	0.1496	-0.075
Mof_Zn	Zn	0.13142	0.09179	0.05935	1.148
Mof_Zn	Zn	0.83033	0.85665	0.22889	1.155
Mof_I 	I 	0.11095	0.22964	0.095	-0.137
Mof_I 	I 	0.15695	0.0761	0.98435	-0.365
Mof_N 	N 	0.17261	0.0263	0.1055	-0.288
Mof_I 	I 	0.88059	0.83269	0.30148	-0.317
Mof_N 	N 	0.81684	0.9919	0.2253	-0.28
Mof_I 	I 	0.77132	0.75916	0.20838	-0.132
Mof_C 	C 	0.1774	0.9397	0.1031	0.045
Mof_C 	C 	0.1971	0.0719	0.1361	0.021
Mof_H 	H 	0.1602	0.9072	0.0811	-0.011
Mof_C 	C 	0.2062	0.8929	0.1312	-0.162
Mof_C 	C 	0.2261	0.0313	0.1652	-0.139
Mof_H 	H 	0.1941	0.1349	0.1377	-0.027
Mof_H 	H 	0.2087	0.83	0.1282	0.076
Mof_C 	C 	0.23109	0.9393	0.1632	0.032
Mof_H 	H 	0.2429	0.0658	0.1867	0.105
Mof_C 	C 	0.26238	0.8952	0.1945	0.099
Mof_N 	N 	0.26802	0.8071	0.18989	-0.14
Mof_N 	N 	0.2827	0.947	0.22648	-0.135
Mof_C 	C 	0.29668	0.7728	0.2197	0.119
Mof_C 	C 	0.31176	0.9055	0.2532	0.106
Mof_C 	C 	0.30338	0.6746	0.2206	0.077
Mof_N 	N 	0.31999	0.8193	0.25125	-0.127
Mof_C 	C 	0.33586	0.9587	0.289	0.062
Mof_C 	C 	0.3312	0.6386	0.2536	-0.126
Mof_C 	C 	0.282	0.6172	0.1914	-0.133
Mof_C 	C 	0.32758	0.047	0.2968	-0.148
Mof_C 	C 	0.3682	0.9199	0.3142	-0.158
Mof_H 	H 	0.3462	0.6761	0.2753	0.092
Mof_C 	C 	0.3371	0.5472	0.2546	0.084
Mof_C 	C 	0.2898	0.5269	0.1947	0.094
Mof_H 	H 	0.2618	0.6392	0.1688	0.077
Mof_C 	C 	0.3509	0.0924	0.3308	0.048
Mof_H 	H 	0.3061	0.076	0.279	0.074
Mof_H 	H 	0.3745	0.8592	0.3096	0.098
Mof_C 	C 	0.391	0.9708	0.3459	0.073
Mof_H 	H 	0.3565	0.5229	0.2773	-0.027
Mof_H 	H 	0.2747	0.488	0.1738	-0.034
Mof_H 	H 	0.3445	0.1524	0.3368	-0.018
Mof_H 	H 	0.4141	0.9449	0.3619	-0.059
Mof_I 	I 	0.97794	0.3322	0.8693	-0.157
Mof_I 	I 	0.8753	0.271	0.94417	-0.319
Mof_I 	I 	0.65412	0.3938	0.4894	-0.13
Mof_I 	I 	0.61487	0.266	0.604	-0.273
Mof_I 	I 	0.3687	0.67	0.7994	-0.107
Mof_I 	I 	0.2631	0.7261	0.6987	-0.267
Mof_I 	I 	0.47985	0.8452	0.86483	-0.218
Mof_Zn	Zn	0.42055	0.87438	0.90318	1.151
Mof_N 	N 	0.38242	0.945	0.85569	-0.286
Mof_I 	I 	0.3861	0.7684	0.94117	-0.097
Mof_N 	N 	0.43573	0.9806	0.947	-0.272
Mof_C 	C 	0.4106	0.0054	0.9725	0.025
Mof_C 	C 	0.4666	0.0321	0.9468	0.006
Mof_H 	H 	0.3883	0.9692	0.9726	-0.056
Mof_C 	C 	0.415	0.0812	0.9988	-0.129
Mof_C 	C 	0.47308	0.1095	0.9722	-0.113
Mof_H 	H 	0.4851	0.0153	0.9287	-0.06
Mof_C 	C 	0.44695	0.1341	0.9985	0.019
Mof_H 	H 	0.3963	0.0963	0.0169	0.028
Mof_H 	H 	0.4955	0.145	0.9712	-0.063
Mof_C 	C 	0.45193	0.2166	0.0265	0.077
Mof_N 	N 	0.48157	0.2706	0.02177	-0.173
Mof_N 	N 	0.42766	0.2272	0.0554	-0.145
Mof_C 	C 	0.48578	0.3395	0.0503	0.073
Mof_C 	C 	0.43392	0.3005	0.0809	0.089
Mof_C 	C 	0.52014	0.398	0.0505	0.026
Mof_N 	N 	0.46286	0.3585	0.07983	-0.153
Mof_C 	C 	0.40822	0.316	0.1138	0.058
Mof_C 	C 	0.5387	0.4042	0.0162	-0.116
Mof_C 	C 	0.535	0.443	0.0884	-0.16
Mof_C 	C 	0.4127	0.3885	0.1412	-0.121
Mof_C 	C 	0.3784	0.26	0.1173	-0.125
Mof_C 	C 	0.5709	0.4583	0.0185	0.041
Mof_H 	H 	0.5298	0.371	0.9897	-0.026
Mof_H 	H 	0.5227	0.44	0.1139	0.068
Mof_C 	C 	0.5681	0.493	0.0893	0.059
Mof_C 	C 	0.3883	0.4003	0.1715	0.068
Mof_H 	H 	0.4326	0.4309	0.1394	0.05
Mof_C 	C 	0.3554	0.2756	0.1483	0.076
Mof_H 	H 	0.3735	0.2097	0.098	0.054
Mof_H 	H 	0.5836	0.4616	0.9934	-0.033
Mof_N 	N 	0.58467	0.5056	0.0543	-0.278
Mof_H 	H 	0.5796	0.5199	0.1169	-0.029
Mof_N 	N 	0.36102	0.3437	0.1771	-0.286
Mof_H 	H 	0.3914	0.4527	0.1895	-0.001
Mof_H 	H 	0.3343	0.236	0.1496	-0.074
Mof_Zn	Zn	0.63142	0.59179	0.05935	1.148
Mof_Zn	Zn	0.33033	0.35665	0.22889	1.155
Mof_I 	I 	0.61095	0.72964	0.095	-0.137
Mof_I 	I 	0.65695	0.5761	0.98435	-0.366
Mof_N 	N 	0.67261	0.5263	0.1055	-0.287
Mof_I 	I 	0.38059	0.33269	0.30148	-0.317
Mof_N 	N 	0.31684	0.4919	0.2253	-0.281
Mof_I 	I 	0.27132	0.25916	0.20838	-0.133
Mof_C 	C 	0.6774	0.4397	0.1031	0.043
Mof_C 	C 	0.6971	0.5719	0.1361	0.02
Mof_H 	H 	0.6602	0.4072	0.0811	-0.011
Mof_C 	C 	0.7062	0.3929	0.1312	-0.161
Mof_C 	C 	0.7261	0.5313	0.1652	-0.137
Mof_H 	H 	0.6941	0.6349	0.1377	-0.026
Mof_H 	H 	0.7087	0.33	0.1282	0.075
Mof_C 	C 	0.73109	0.4393	0.1632	0.029
Mof_H 	H 	0.7429	0.5658	0.1867	0.105
Mof_C 	C 	0.76238	0.3952	0.1945	0.1
Mof_N 	N 	0.76802	0.3071	0.18989	-0.14
Mof_N 	N 	0.7827	0.447	0.22648	-0.135
Mof_C 	C 	0.79668	0.2728	0.2197	0.12
Mof_C 	C 	0.81176	0.4055	0.2532	0.107
Mof_C 	C 	0.80338	0.1746	0.2206	0.076
Mof_N 	N 	0.81999	0.3193	0.25125	-0.127
Mof_C 	C 	0.83586	0.4587	0.289	0.06
Mof_C 	C 	0.8312	0.1386	0.2536	-0.125
Mof_C 	C 	0.782	0.1172	0.1914	-0.132
Mof_C 	C 	0.82758	0.547	0.2968	-0.147
Mof_C 	C 	0.8682	0.4199	0.3142	-0.157
Mof_H 	H 	0.8462	0.1761	0.2753	0.092
Mof_C 	C 	0.8371	0.0472	0.2546	0.083
Mof_C 	C 	0.7898	0.0269	0.1947	0.091
Mof_H 	H 	0.7618	0.1392	0.1688	0.077
Mof_C 	C 	0.8509	0.5924	0.3308	0.048
Mof_H 	H 	0.8061	0.576	0.279	0.074
Mof_H 	H 	0.8745	0.3592	0.3096	0.098
Mof_C 	C 	0.891	0.4708	0.3459	0.072
Mof_H 	H 	0.8565	0.0229	0.2773	-0.027
Mof_H 	H 	0.7747	0.988	0.1738	-0.033
Mof_H 	H 	0.8445	0.6524	0.3368	-0.018
Mof_H 	H 	0.9141	0.4449	0.3619	-0.059
Mof_I 	I 	0.47794	0.8322	0.8693	-0.157
Mof_I 	I 	0.3753	0.771	0.94417	-0.319
Mof_I 	I 	0.15412	0.8938	0.4894	-0.13
Mof_I 	I 	0.11487	0.766	0.604	-0.273
Mof_I 	I 	0.8687	0.17	0.7994	-0.107
Mof_I 	I 	0.7631	0.2261	0.6987	-0.267
Mof_I 	I 	0.97985	0.6548	0.36483	-0.217
Mof_Zn	Zn	0.92055	0.62562	0.40318	1.151
Mof_N 	N 	0.88242	0.555	0.35569	-0.285
Mof_I 	I 	0.8861	0.7316	0.44117	-0.097
Mof_N 	N 	0.93573	0.5194	0.447	-0.27
Mof_C 	C 	0.9106	0.4946	0.4725	0.022
Mof_C 	C 	0.9666	0.4679	0.4468	0.004
Mof_H 	H 	0.8883	0.5308	0.4726	-0.054
Mof_C 	C 	0.915	0.4188	0.4988	-0.129
Mof_C 	C 	0.97308	0.3905	0.4722	-0.111
Mof_H 	H 	0.9851	0.4847	0.4287	-0.06
Mof_C 	C 	0.94695	0.3659	0.4985	0.018
Mof_H 	H 	0.8963	0.4037	0.5169	0.029
Mof_H 	H 	0.9955	0.355	0.4712	-0.064
Mof_C 	C 	0.95193	0.2834	0.5265	0.078
Mof_N 	N 	0.98157	0.2294	0.52177	-0.173
Mof_N 	N 	0.92766	0.2728	0.5554	-0.145
Mof_C 	C 	0.98578	0.1605	0.5503	0.073
Mof_C 	C 	0.93392	0.1995	0.5809	0.089
Mof_C 	C 	0.02014	0.102	0.5505	0.026
Mof_N 	N 	0.96286	0.1415	0.57983	-0.152
Mof_C 	C 	0.90822	0.184	0.6138	0.059
Mof_C 	C 	0.0387	0.0958	0.5162	-0.115
Mof_C 	C 	0.035	0.057	0.5884	-0.161
Mof_C 	C 	0.9127	0.1115	0.6412	-0.121
Mof_C 	C 	0.8784	0.24	0.6173	-0.125
Mof_C 	C 	0.0709	0.0417	0.5185	0.041
Mof_H 	H 	0.0298	0.129	0.4897	-0.026
Mof_H 	H 	0.0227	0.06	0.6139	0.068
Mof_C 	C 	0.0681	0.007	0.5893	0.06
Mof_C 	C 	0.8883	0.0997	0.6715	0.068
Mof_H 	H 	0.9326	0.0691	0.6394	0.05
Mof_C 	C 	0.8554	0.2244	0.6483	0.076
Mof_H 	H 	0.8735	0.2903	0.598	0.054
Mof_H 	H 	0.0836	0.0384	0.4934	-0.033
Mof_N 	N 	0.08467	0.9944	0.5543	-0.279
Mof_H 	H 	0.0796	0.9801	0.6169	-0.03
Mof_N 	N 	0.86102	0.1563	0.6771	-0.286
Mof_H 	H 	0.8914	0.0473	0.6895	-0
Mof_H 	H 	0.8343	0.264	0.6496	-0.075
Mof_Zn	Zn	0.13142	0.90821	0.55935	1.148
Mof_Zn	Zn	0.83033	0.14335	0.72889	1.155
Mof_I 	I 	0.11095	0.77036	0.595	-0.137
Mof_I 	I 	0.15695	0.9239	0.48435	-0.366
Mof_N 	N 	0.17261	0.9737	0.6055	-0.288
Mof_I 	I 	0.88059	0.16731	0.80148	-0.317
Mof_N 	N 	0.81684	0.0081	0.7253	-0.28
Mof_I 	I 	0.77132	0.24084	0.70838	-0.132
Mof_C 	C 	0.1774	0.0603	0.6031	0.044
Mof_C 	C 	0.1971	0.9281	0.6361	0.02
Mof_H 	H 	0.1602	0.0928	0.5811	-0.011
Mof_C 	C 	0.2062	0.1071	0.6312	-0.161
Mof_C 	C 	0.2261	0.9687	0.6652	-0.138
Mof_H 	H 	0.1941	0.8651	0.6377	-0.027
Mof_H 	H 	0.2087	0.17	0.6282	0.076
Mof_C 	C 	0.23109	0.0607	0.6632	0.031
Mof_H 	H 	0.2429	0.9342	0.6867	0.105
Mof_C 	C 	0.26238	0.1048	0.6945	0.1
Mof_N 	N 	0.26802	0.1929	0.68989	-0.14
Mof_N 	N 	0.2827	0.053	0.72648	-0.135
Mof_C 	C 	0.29668	0.2272	0.7197	0.119
Mof_C 	C 	0.31176	0.0945	0.7532	0.106
Mof_C 	C 	0.30338	0.3254	0.7206	0.077
Mof_N 	N 	0.31999	0.1807	0.75125	-0.127
Mof_C 	C 	0.33586	0.0413	0.789	0.062
Mof_C 	C 	0.3312	0.3614	0.7536	-0.126
Mof_C 	C 	0.282	0.3828	0.6914	-0.133
Mof_C 	C 	0.32758	0.953	0.7968	-0.149
Mof_C 	C 	0.3682	0.0801	0.8142	-0.159
Mof_H 	H 	0.3462	0.3239	0.7753	0.092
Mof_C 	C 	0.3371	0.4528	0.7546	0.084
Mof_C 	C 	0.2898	0.4731	0.6947	0.094
Mof_H 	H 	0.2618	0.3608	0.6688	0.077
Mof_C 	C 	0.3509	0.9076	0.8308	0.049
Mof_H 	H 	0.3061	0.924	0.779	0.075
Mof_H 	H 	0.3745	0.1408	0.8096	0.099
Mof_C 	C 	0.391	0.0292	0.8459	0.074
Mof_H 	H 	0.3565	0.4771	0.7773	-0.027
Mof_H 	H 	0.2747	0.512	0.6738	-0.034
Mof_H 	H 	0.3445	0.8476	0.8368	-0.018
Mof_H 	H 	0.4141	0.0551	0.8619	-0.06
Mof_I 	I 	0.97794	0.6678	0.3693	-0.157
Mof_I 	I 	0.8753	0.729	0.44417	-0.319
Mof_I 	I 	0.65412	0.6062	0.9894	-0.13
Mof_I 	I 	0.61487	0.734	0.104	-0.273
Mof_I 	I 	0.3687	0.33	0.2994	-0.107
Mof_I 	I 	0.2631	0.2739	0.1987	-0.267
Mof_I 	I 	0.47985	0.1548	0.36483	-0.217
Mof_Zn	Zn	0.42055	0.12562	0.40318	1.151
Mof_N 	N 	0.38242	0.055	0.35569	-0.286
Mof_I 	I 	0.3861	0.2316	0.44117	-0.097
Mof_N 	N 	0.43573	0.0194	0.447	-0.27
Mof_C 	C 	0.4106	0.9946	0.4725	0.023
Mof_C 	C 	0.4666	0.9679	0.4468	0.004
Mof_H 	H 	0.3883	0.0308	0.4726	-0.054
Mof_C 	C 	0.415	0.9188	0.4988	-0.129
Mof_C 	C 	0.47308	0.8905	0.4722	-0.112
Mof_H 	H 	0.4851	0.9847	0.4287	-0.06
Mof_C 	C 	0.44695	0.8659	0.4985	0.018
Mof_H 	H 	0.3963	0.9037	0.5169	0.029
Mof_H 	H 	0.4955	0.855	0.4712	-0.064
Mof_C 	C 	0.45193	0.7834	0.5265	0.078
Mof_N 	N 	0.48157	0.7294	0.52177	-0.173
Mof_N 	N 	0.42766	0.7728	0.5554	-0.145
Mof_C 	C 	0.48578	0.6605	0.5503	0.073
Mof_C 	C 	0.43392	0.6995	0.5809	0.089
Mof_C 	C 	0.52014	0.602	0.5505	0.026
Mof_N 	N 	0.46286	0.6415	0.57983	-0.153
Mof_C 	C 	0.40822	0.684	0.6138	0.058
Mof_C 	C 	0.5387	0.5958	0.5162	-0.115
Mof_C 	C 	0.535	0.557	0.5884	-0.16
Mof_C 	C 	0.4127	0.6115	0.6412	-0.121
Mof_C 	C 	0.3784	0.74	0.6173	-0.125
Mof_C 	C 	0.5709	0.5417	0.5185	0.04
Mof_H 	H 	0.5298	0.629	0.4897	-0.026
Mof_H 	H 	0.5227	0.56	0.6139	0.068
Mof_C 	C 	0.5681	0.507	0.5893	0.059
Mof_C 	C 	0.3883	0.5997	0.6715	0.068
Mof_H 	H 	0.4326	0.5691	0.6394	0.05
Mof_C 	C 	0.3554	0.7244	0.6483	0.076
Mof_H 	H 	0.3735	0.7903	0.598	0.054
Mof_H 	H 	0.5836	0.5384	0.4934	-0.033
Mof_N 	N 	0.58467	0.4944	0.5543	-0.278
Mof_H 	H 	0.5796	0.4801	0.6169	-0.029
Mof_N 	N 	0.36102	0.6563	0.6771	-0.286
Mof_H 	H 	0.3914	0.5473	0.6895	-0.001
Mof_H 	H 	0.3343	0.764	0.6496	-0.075
Mof_Zn	Zn	0.63142	0.40821	0.55935	1.148
Mof_Zn	Zn	0.33033	0.64335	0.72889	1.155
Mof_I 	I 	0.61095	0.27036	0.595	-0.137
Mof_I 	I 	0.65695	0.4239	0.48435	-0.366
Mof_N 	N 	0.67261	0.4737	0.6055	-0.287
Mof_I 	I 	0.38059	0.66731	0.80148	-0.317
Mof_N 	N 	0.31684	0.5081	0.7253	-0.281
Mof_I 	I 	0.27132	0.74084	0.70838	-0.133
Mof_C 	C 	0.6774	0.5603	0.6031	0.043
Mof_C 	C 	0.6971	0.4281	0.6361	0.02
Mof_H 	H 	0.6602	0.5928	0.5811	-0.011
Mof_C 	C 	0.7062	0.6071	0.6312	-0.161
Mof_C 	C 	0.7261	0.4687	0.6652	-0.137
Mof_H 	H 	0.6941	0.3651	0.6377	-0.026
Mof_H 	H 	0.7087	0.67	0.6282	0.075
Mof_C 	C 	0.73109	0.5607	0.6632	0.029
Mof_H 	H 	0.7429	0.4342	0.6867	0.105
Mof_C 	C 	0.76238	0.6048	0.6945	0.1
Mof_N 	N 	0.76802	0.6929	0.68989	-0.14
Mof_N 	N 	0.7827	0.553	0.72648	-0.135
Mof_C 	C 	0.79668	0.7272	0.7197	0.12
Mof_C 	C 	0.81176	0.5945	0.7532	0.107
Mof_C 	C 	0.80338	0.8254	0.7206	0.076
Mof_N 	N 	0.81999	0.6807	0.75125	-0.127
Mof_C 	C 	0.83586	0.5413	0.789	0.06
Mof_C 	C 	0.8312	0.8614	0.7536	-0.125
Mof_C 	C 	0.782	0.8828	0.6914	-0.132
Mof_C 	C 	0.82758	0.453	0.7968	-0.147
Mof_C 	C 	0.8682	0.5801	0.8142	-0.157
Mof_H 	H 	0.8462	0.8239	0.7753	0.092
Mof_C 	C 	0.8371	0.9528	0.7546	0.083
Mof_C 	C 	0.7898	0.9731	0.6947	0.092
Mof_H 	H 	0.7618	0.8608	0.6688	0.077
Mof_C 	C 	0.8509	0.4076	0.8308	0.048
Mof_H 	H 	0.8061	0.424	0.779	0.074
Mof_H 	H 	0.8745	0.6408	0.8096	0.098
Mof_C 	C 	0.891	0.5292	0.8459	0.072
Mof_H 	H 	0.8565	0.9771	0.7773	-0.027
Mof_H 	H 	0.7747	0.012	0.6738	-0.033
Mof_H 	H 	0.8445	0.3476	0.8368	-0.018
Mof_H 	H 	0.9141	0.5551	0.8619	-0.059
Mof_I 	I 	0.47794	0.1678	0.3693	-0.157
Mof_I 	I 	0.3753	0.229	0.44417	-0.319
Mof_I 	I 	0.15412	0.1062	0.9894	-0.129
Mof_I 	I 	0.11487	0.234	0.104	-0.273
Mof_I 	I 	0.8687	0.83	0.2994	-0.107
Mof_I 	I 	0.7631	0.7739	0.1987	-0.267
Mof_I 	I 	0.02015	0.3452	0.63517	-0.217
Mof_Zn	Zn	0.07945	0.37438	0.59682	1.151
Mof_N 	N 	0.11758	0.445	0.64431	-0.285
Mof_I 	I 	0.1139	0.2684	0.55883	-0.097
Mof_N 	N 	0.06427	0.4806	0.553	-0.27
Mof_C 	C 	0.0894	0.5054	0.5275	0.022
Mof_C 	C 	0.0334	0.5321	0.5532	0.004
Mof_H 	H 	0.1117	0.4692	0.5274	-0.054
Mof_C 	C 	0.085	0.5812	0.5012	-0.129
Mof_C 	C 	0.02692	0.6095	0.5278	-0.111
Mof_H 	H 	0.0149	0.5153	0.5713	-0.06
Mof_C 	C 	0.05305	0.6341	0.5015	0.018
Mof_H 	H 	0.1037	0.5963	0.4831	0.029
Mof_H 	H 	0.0045	0.645	0.5288	-0.064
Mof_C 	C 	0.04807	0.7166	0.4735	0.078
Mof_N 	N 	0.01843	0.7706	0.47823	-0.173
Mof_N 	N 	0.07234	0.7272	0.4446	-0.145
Mof_C 	C 	0.01422	0.8395	0.4497	0.073
Mof_C 	C 	0.06608	0.8005	0.4191	0.089
Mof_C 	C 	0.97986	0.898	0.4495	0.026
Mof_N 	N 	0.03714	0.8585	0.42017	-0.152
Mof_C 	C 	0.09178	0.816	0.3862	0.059
Mof_C 	C 	0.9613	0.9042	0.4838	-0.115
Mof_C 	C 	0.965	0.943	0.4116	-0.161
Mof_C 	C 	0.0873	0.8885	0.3588	-0.121
Mof_C 	C 	0.1216	0.76	0.3827	-0.125
Mof_C 	C 	0.9291	0.9583	0.4815	0.041
Mof_H 	H 	0.9702	0.871	0.5103	-0.026
Mof_H 	H 	0.9773	0.94	0.3861	0.068
Mof_C 	C 	0.9319	0.993	0.4107	0.06
Mof_C 	C 	0.1117	0.9003	0.3285	0.068
Mof_H 	H 	0.0674	0.9309	0.3606	0.05
Mof_C 	C 	0.1446	0.7756	0.3517	0.076
Mof_H 	H 	0.1265	0.7097	0.402	0.054
Mof_H 	H 	0.9164	0.9616	0.5066	-0.033
Mof_N 	N 	0.91533	0.0056	0.4457	-0.279
Mof_H 	H 	0.9204	0.0199	0.3831	-0.03
Mof_N 	N 	0.13898	0.8437	0.3229	-0.286
Mof_H 	H 	0.1086	0.9527	0.3105	-0
Mof_H 	H 	0.1657	0.736	0.3504	-0.075
Mof_Zn	Zn	0.86858	0.09179	0.44065	1.148
Mof_Zn	Zn	0.16967	0.85665	0.27111	1.155
Mof_I 	I 	0.88905	0.22964	0.405	-0.137
Mof_I 	I 	0.84305	0.0761	0.51565	-0.366
Mof_N 	N 	0.82739	0.0263	0.3945	-0.288
Mof_I 	I 	0.11941	0.83269	0.19852	-0.317
Mof_N 	N 	0.18316	0.9919	0.2747	-0.28
Mof_I 	I 	0.22868	0.75916	0.29162	-0.132
Mof_C 	C 	0.8226	0.9397	0.3969	0.044
Mof_C 	C 	0.8029	0.0719	0.3639	0.02
Mof_H 	H 	0.8398	0.9072	0.4189	-0.011
Mof_C 	C 	0.7938	0.8929	0.3688	-0.161
Mof_C 	C 	0.7739	0.0313	0.3348	-0.138
Mof_H 	H 	0.8059	0.1349	0.3623	-0.027
Mof_H 	H 	0.7913	0.83	0.3718	0.076
Mof_C 	C 	0.76891	0.9393	0.3368	0.031
Mof_H 	H 	0.7571	0.0658	0.3133	0.105
Mof_C 	C 	0.73762	0.8952	0.3055	0.1
Mof_N 	N 	0.73198	0.8071	0.31011	-0.14
Mof_N 	N 	0.7173	0.947	0.27352	-0.135
Mof_C 	C 	0.70332	0.7728	0.2803	0.119
Mof_C 	C 	0.68824	0.9055	0.2468	0.106
Mof_C 	C 	0.69662	0.6746	0.2794	0.077
Mof_N 	N 	0.68001	0.8193	0.24875	-0.127
Mof_C 	C 	0.66414	0.9587	0.211	0.062
Mof_C 	C 	0.6688	0.6386	0.2464	-0.126
Mof_C 	C 	0.718	0.6172	0.3086	-0.133
Mof_C 	C 	0.67242	0.047	0.2032	-0.149
Mof_C 	C 	0.6318	0.9199	0.1858	-0.159
Mof_H 	H 	0.6538	0.6761	0.2247	0.092
Mof_C 	C 	0.6629	0.5472	0.2454	0.084
Mof_C 	C 	0.7102	0.5269	0.3053	0.094
Mof_H 	H 	0.7382	0.6392	0.3312	0.077
Mof_C 	C 	0.6491	0.0924	0.1692	0.049
Mof_H 	H 	0.6939	0.076	0.221	0.075
Mof_H 	H 	0.6255	0.8592	0.1904	0.099
Mof_C 	C 	0.609	0.9708	0.1541	0.074
Mof_H 	H 	0.6435	0.5229	0.2227	-0.027
Mof_H 	H 	0.7253	0.488	0.3262	-0.034
Mof_H 	H 	0.6555	0.1524	0.1632	-0.018
Mof_H 	H 	0.5859	0.9449	0.1381	-0.06
Mof_I 	I 	0.02206	0.3322	0.6307	-0.157
Mof_I 	I 	0.1247	0.271	0.55583	-0.319
Mof_I 	I 	0.34588	0.3938	0.0106	-0.13
Mof_I 	I 	0.38513	0.266	0.896	-0.273
Mof_I 	I 	0.6313	0.67	0.7006	-0.107
Mof_I 	I 	0.7369	0.7261	0.8013	-0.267
Mof_I 	I 	0.52015	0.8452	0.63517	-0.217
Mof_Zn	Zn	0.57945	0.87438	0.59682	1.151
Mof_N 	N 	0.61758	0.945	0.64431	-0.286
Mof_I 	I 	0.6139	0.7684	0.55883	-0.097
Mof_N 	N 	0.56427	0.9806	0.553	-0.27
Mof_C 	C 	0.5894	0.0054	0.5275	0.023
Mof_C 	C 	0.5334	0.0321	0.5532	0.004
Mof_H 	H 	0.6117	0.9692	0.5274	-0.054
Mof_C 	C 	0.585	0.0812	0.5012	-0.129
Mof_C 	C 	0.52692	0.1095	0.5278	-0.112
Mof_H 	H 	0.5149	0.0153	0.5713	-0.06
Mof_C 	C 	0.55305	0.1341	0.5015	0.018
Mof_H 	H 	0.6037	0.0963	0.4831	0.029
Mof_H 	H 	0.5045	0.145	0.5288	-0.064
Mof_C 	C 	0.54807	0.2166	0.4735	0.078
Mof_N 	N 	0.51843	0.2706	0.47823	-0.173
Mof_N 	N 	0.57234	0.2272	0.4446	-0.145
Mof_C 	C 	0.51422	0.3395	0.4497	0.073
Mof_C 	C 	0.56608	0.3005	0.4191	0.089
Mof_C 	C 	0.47986	0.398	0.4495	0.026
Mof_N 	N 	0.53714	0.3585	0.42017	-0.153
Mof_C 	C 	0.59178	0.316	0.3862	0.058
Mof_C 	C 	0.4613	0.4042	0.4838	-0.115
Mof_C 	C 	0.465	0.443	0.4116	-0.16
Mof_C 	C 	0.5873	0.3885	0.3588	-0.121
Mof_C 	C 	0.6216	0.26	0.3827	-0.125
Mof_C 	C 	0.4291	0.4583	0.4815	0.04
Mof_H 	H 	0.4702	0.371	0.5103	-0.026
Mof_H 	H 	0.4773	0.44	0.3861	0.068
Mof_C 	C 	0.4319	0.493	0.4107	0.059
Mof_C 	C 	0.6117	0.4003	0.3285	0.068
Mof_H 	H 	0.5674	0.4309	0.3606	0.05
Mof_C 	C 	0.6446	0.2756	0.3517	0.076
Mof_H 	H 	0.6265	0.2097	0.402	0.054
Mof_H 	H 	0.4164	0.4616	0.5066	-0.033
Mof_N 	N 	0.41533	0.5056	0.4457	-0.278
Mof_H 	H 	0.4204	0.5199	0.3831	-0.029
Mof_N 	N 	0.63898	0.3437	0.3229	-0.286
Mof_H 	H 	0.6086	0.4527	0.3105	-0.001
Mof_H 	H 	0.6657	0.236	0.3504	-0.075
Mof_Zn	Zn	0.36858	0.59179	0.44065	1.148
Mof_Zn	Zn	0.66967	0.35665	0.27111	1.155
Mof_I 	I 	0.38905	0.72964	0.405	-0.137
Mof_I 	I 	0.34305	0.5761	0.51565	-0.366
Mof_N 	N 	0.32739	0.5263	0.3945	-0.287
Mof_I 	I 	0.61941	0.33269	0.19852	-0.317
Mof_N 	N 	0.68316	0.4919	0.2747	-0.281
Mof_I 	I 	0.72868	0.25916	0.29162	-0.133
Mof_C 	C 	0.3226	0.4397	0.3969	0.043
Mof_C 	C 	0.3029	0.5719	0.3639	0.02
Mof_H 	H 	0.3398	0.4072	0.4189	-0.011
Mof_C 	C 	0.2938	0.3929	0.3688	-0.161
Mof_C 	C 	0.2739	0.5313	0.3348	-0.137
Mof_H 	H 	0.3059	0.6349	0.3623	-0.026
Mof_H 	H 	0.2913	0.33	0.3718	0.075
Mof_C 	C 	0.26891	0.4393	0.3368	0.029
Mof_H 	H 	0.2571	0.5658	0.3133	0.105
Mof_C 	C 	0.23762	0.3952	0.3055	0.1
Mof_N 	N 	0.23198	0.3071	0.31011	-0.14
Mof_N 	N 	0.2173	0.447	0.27352	-0.135
Mof_C 	C 	0.20332	0.2728	0.2803	0.12
Mof_C 	C 	0.18824	0.4055	0.2468	0.107
Mof_C 	C 	0.19662	0.1746	0.2794	0.076
Mof_N 	N 	0.18001	0.3193	0.24875	-0.127
Mof_C 	C 	0.16414	0.4587	0.211	0.06
Mof_C 	C 	0.1688	0.1386	0.2464	-0.125
Mof_C 	C 	0.218	0.1172	0.3086	-0.132
Mof_C 	C 	0.17242	0.547	0.2032	-0.147
Mof_C 	C 	0.1318	0.4199	0.1858	-0.157
Mof_H 	H 	0.1538	0.1761	0.2247	0.092
Mof_C 	C 	0.1629	0.0472	0.2454	0.083
Mof_C 	C 	0.2102	0.0269	0.3053	0.092
Mof_H 	H 	0.2382	0.1392	0.3312	0.077
Mof_C 	C 	0.1491	0.5924	0.1692	0.048
Mof_H 	H 	0.1939	0.576	0.221	0.074
Mof_H 	H 	0.1255	0.3592	0.1904	0.098
Mof_C 	C 	0.109	0.4708	0.1541	0.072
Mof_H 	H 	0.1435	0.0229	0.2227	-0.027
Mof_H 	H 	0.2253	0.988	0.3262	-0.033
Mof_H 	H 	0.1555	0.6524	0.1632	-0.018
Mof_H 	H 	0.0859	0.4449	0.1381	-0.059
Mof_I 	I 	0.52206	0.8322	0.6307	-0.157
Mof_I 	I 	0.6247	0.771	0.55583	-0.319
Mof_I 	I 	0.84588	0.8938	0.0106	-0.129
Mof_I 	I 	0.88513	0.766	0.896	-0.273
Mof_I 	I 	0.1313	0.17	0.7006	-0.107
Mof_I 	I 	0.2369	0.2261	0.8013	-0.267
Mof_I 	I 	0.02015	0.6548	0.13517	-0.218
Mof_Zn	Zn	0.07945	0.62562	0.09682	1.151
Mof_N 	N 	0.11758	0.555	0.14431	-0.285
Mof_I 	I 	0.1139	0.7316	0.05883	-0.097
Mof_N 	N 	0.06427	0.5194	0.053	-0.27
Mof_C 	C 	0.0894	0.4946	0.0275	0.022
Mof_C 	C 	0.0334	0.4679	0.0532	0.004
Mof_H 	H 	0.1117	0.5308	0.0274	-0.054
Mof_C 	C 	0.085	0.4188	0.0012	-0.13
Mof_C 	C 	0.02692	0.3905	0.0278	-0.111
Mof_H 	H 	0.0149	0.4847	0.0713	-0.06
Mof_C 	C 	0.05305	0.3659	0.0015	0.017
Mof_H 	H 	0.1037	0.4037	0.9831	0.029
Mof_H 	H 	0.0045	0.355	0.0288	-0.064
Mof_C 	C 	0.04807	0.2834	0.9735	0.079
Mof_N 	N 	0.01843	0.2294	0.97823	-0.173
Mof_N 	N 	0.07234	0.2728	0.9446	-0.145
Mof_C 	C 	0.01422	0.1605	0.9497	0.074
Mof_C 	C 	0.06608	0.1995	0.9191	0.089
Mof_C 	C 	0.97986	0.102	0.9495	0.027
Mof_N 	N 	0.03714	0.1415	0.92017	-0.152
Mof_C 	C 	0.09178	0.184	0.8862	0.059
Mof_C 	C 	0.9613	0.0958	0.9838	-0.116
Mof_C 	C 	0.965	0.057	0.9116	-0.162
Mof_C 	C 	0.0873	0.1115	0.8588	-0.121
Mof_C 	C 	0.1216	0.24	0.8827	-0.125
Mof_C 	C 	0.9291	0.0417	0.9815	0.043
Mof_H 	H 	0.9702	0.129	0.0103	-0.026
Mof_H 	H 	0.9773	0.06	0.8861	0.069
Mof_C 	C 	0.9319	0.007	0.9107	0.063
Mof_C 	C 	0.1117	0.0997	0.8285	0.068
Mof_H 	H 	0.0674	0.0691	0.8606	0.051
Mof_C 	C 	0.1446	0.2244	0.8517	0.076
Mof_H 	H 	0.1265	0.2903	0.902	0.054
Mof_H 	H 	0.9164	0.0384	0.0066	-0.035
Mof_N 	N 	0.91533	0.9944	0.9457	-0.28
Mof_H 	H 	0.9204	0.9801	0.8831	-0.031
Mof_N 	N 	0.13898	0.1563	0.8229	-0.286
Mof_H 	H 	0.1086	0.0473	0.8105	-0
Mof_H 	H 	0.1657	0.264	0.8504	-0.075
Mof_Zn	Zn	0.86858	0.90821	0.94065	1.148
Mof_Zn	Zn	0.16967	0.14335	0.77111	1.155
Mof_I 	I 	0.88905	0.77036	0.905	-0.137
Mof_I 	I 	0.84305	0.9239	0.01565	-0.365
Mof_N 	N 	0.82739	0.9737	0.8945	-0.288
Mof_I 	I 	0.11941	0.16731	0.69852	-0.317
Mof_N 	N 	0.18316	0.0081	0.7747	-0.28
Mof_I 	I 	0.22868	0.24084	0.79162	-0.132
Mof_C 	C 	0.8226	0.0603	0.8969	0.045
Mof_C 	C 	0.8029	0.9281	0.8639	0.021
Mof_H 	H 	0.8398	0.0928	0.9189	-0.011
Mof_C 	C 	0.7938	0.1071	0.8688	-0.162
Mof_C 	C 	0.7739	0.9687	0.8348	-0.139
Mof_H 	H 	0.8059	0.8651	0.8623	-0.027
Mof_H 	H 	0.7913	0.17	0.8718	0.076
Mof_C 	C 	0.76891	0.0607	0.8368	0.032
Mof_H 	H 	0.7571	0.9342	0.8133	0.105
Mof_C 	C 	0.73762	0.1048	0.8055	0.099
Mof_N 	N 	0.73198	0.1929	0.81011	-0.14
Mof_N 	N 	0.7173	0.053	0.77352	-0.135
Mof_C 	C 	0.70332	0.2272	0.7803	0.119
Mof_C 	C 	0.68824	0.0945	0.7468	0.106
Mof_C 	C 	0.69662	0.3254	0.7794	0.077
Mof_N 	N 	0.68001	0.1807	0.74875	-0.127
Mof_C 	C 	0.66414	0.0413	0.711	0.062
Mof_C 	C 	0.6688	0.3614	0.7464	-0.126
Mof_C 	C 	0.718	0.3828	0.8086	-0.133
Mof_C 	C 	0.67242	0.953	0.7032	-0.148
Mof_C 	C 	0.6318	0.0801	0.6858	-0.158
Mof_H 	H 	0.6538	0.3239	0.7247	0.092
Mof_C 	C 	0.6629	0.4528	0.7454	0.084
Mof_C 	C 	0.7102	0.4731	0.8053	0.094
Mof_H 	H 	0.7382	0.3608	0.8312	0.077
Mof_C 	C 	0.6491	0.9076	0.6692	0.048
Mof_H 	H 	0.6939	0.924	0.721	0.074
Mof_H 	H 	0.6255	0.1408	0.6904	0.098
Mof_C 	C 	0.609	0.0292	0.6541	0.073
Mof_H 	H 	0.6435	0.4771	0.7227	-0.027
Mof_H 	H 	0.7253	0.512	0.8262	-0.034
Mof_H 	H 	0.6555	0.8476	0.6632	-0.018
Mof_H 	H 	0.5859	0.0551	0.6381	-0.059
Mof_I 	I 	0.02206	0.6678	0.1307	-0.157
Mof_I 	I 	0.1247	0.729	0.05583	-0.319
Mof_I 	I 	0.34588	0.6062	0.5106	-0.13
Mof_I 	I 	0.38513	0.734	0.396	-0.273
Mof_I 	I 	0.6313	0.33	0.2006	-0.107
Mof_I 	I 	0.7369	0.2739	0.3013	-0.267
Mof_I 	I 	0.52015	0.1548	0.13517	-0.218
Mof_Zn	Zn	0.57945	0.12562	0.09682	1.151
Mof_N 	N 	0.61758	0.055	0.14431	-0.286
Mof_I 	I 	0.6139	0.2316	0.05883	-0.097
Mof_N 	N 	0.56427	0.0194	0.053	-0.272
Mof_C 	C 	0.5894	0.9946	0.0275	0.025
Mof_C 	C 	0.5334	0.9679	0.0532	0.006
Mof_H 	H 	0.6117	0.0308	0.0274	-0.056
Mof_C 	C 	0.585	0.9188	0.0012	-0.129
Mof_C 	C 	0.52692	0.8905	0.0278	-0.113
Mof_H 	H 	0.5149	0.9847	0.0713	-0.06
Mof_C 	C 	0.55305	0.8659	0.0015	0.019
Mof_H 	H 	0.6037	0.9037	0.9831	0.028
Mof_H 	H 	0.5045	0.855	0.0288	-0.063
Mof_C 	C 	0.54807	0.7834	0.9735	0.077
Mof_N 	N 	0.51843	0.7294	0.97823	-0.173
Mof_N 	N 	0.57234	0.7728	0.9446	-0.145
Mof_C 	C 	0.51422	0.6605	0.9497	0.073
Mof_C 	C 	0.56608	0.6995	0.9191	0.089
Mof_C 	C 	0.47986	0.602	0.9495	0.026
Mof_N 	N 	0.53714	0.6415	0.92017	-0.153
Mof_C 	C 	0.59178	0.684	0.8862	0.058
Mof_C 	C 	0.4613	0.5958	0.9838	-0.116
Mof_C 	C 	0.465	0.557	0.9116	-0.16
Mof_C 	C 	0.5873	0.6115	0.8588	-0.121
Mof_C 	C 	0.6216	0.74	0.8827	-0.125
Mof_C 	C 	0.4291	0.5417	0.9815	0.041
Mof_H 	H 	0.4702	0.629	0.0103	-0.026
Mof_H 	H 	0.4773	0.56	0.8861	0.068
Mof_C 	C 	0.4319	0.507	0.9107	0.059
Mof_C 	C 	0.6117	0.5997	0.8285	0.068
Mof_H 	H 	0.5674	0.5691	0.8606	0.05
Mof_C 	C 	0.6446	0.7244	0.8517	0.076
Mof_H 	H 	0.6265	0.7903	0.902	0.054
Mof_H 	H 	0.4164	0.5384	0.0066	-0.033
Mof_N 	N 	0.41533	0.4944	0.9457	-0.278
Mof_H 	H 	0.4204	0.4801	0.8831	-0.029
Mof_N 	N 	0.63898	0.6563	0.8229	-0.286
Mof_H 	H 	0.6086	0.5473	0.8105	-0.001
Mof_H 	H 	0.6657	0.764	0.8504	-0.074
Mof_Zn	Zn	0.36858	0.40821	0.94065	1.148
Mof_Zn	Zn	0.66967	0.64335	0.77111	1.155
Mof_I 	I 	0.38905	0.27036	0.905	-0.137
Mof_I 	I 	0.34305	0.4239	0.01565	-0.366
Mof_N 	N 	0.32739	0.4737	0.8945	-0.287
Mof_I 	I 	0.61941	0.66731	0.69852	-0.317
Mof_N 	N 	0.68316	0.5081	0.7747	-0.281
Mof_I 	I 	0.72868	0.74084	0.79162	-0.133
Mof_C 	C 	0.3226	0.5603	0.8969	0.043
Mof_C 	C 	0.3029	0.4281	0.8639	0.02
Mof_H 	H 	0.3398	0.5928	0.9189	-0.011
Mof_C 	C 	0.2938	0.6071	0.8688	-0.161
Mof_C 	C 	0.2739	0.4687	0.8348	-0.137
Mof_H 	H 	0.3059	0.3651	0.8623	-0.026
Mof_H 	H 	0.2913	0.67	0.8718	0.075
Mof_C 	C 	0.26891	0.5607	0.8368	0.029
Mof_H 	H 	0.2571	0.4342	0.8133	0.105
Mof_C 	C 	0.23762	0.6048	0.8055	0.1
Mof_N 	N 	0.23198	0.6929	0.81011	-0.14
Mof_N 	N 	0.2173	0.553	0.77352	-0.135
Mof_C 	C 	0.20332	0.7272	0.7803	0.12
Mof_C 	C 	0.18824	0.5945	0.7468	0.107
Mof_C 	C 	0.19662	0.8254	0.7794	0.076
Mof_N 	N 	0.18001	0.6807	0.74875	-0.127
Mof_C 	C 	0.16414	0.5413	0.711	0.06
Mof_C 	C 	0.1688	0.8614	0.7464	-0.125
Mof_C 	C 	0.218	0.8828	0.8086	-0.132
Mof_C 	C 	0.17242	0.453	0.7032	-0.147
Mof_C 	C 	0.1318	0.5801	0.6858	-0.157
Mof_H 	H 	0.1538	0.8239	0.7247	0.092
Mof_C 	C 	0.1629	0.9528	0.7454	0.083
Mof_C 	C 	0.2102	0.9731	0.8053	0.091
Mof_H 	H 	0.2382	0.8608	0.8312	0.077
Mof_C 	C 	0.1491	0.4076	0.6692	0.048
Mof_H 	H 	0.1939	0.424	0.721	0.074
Mof_H 	H 	0.1255	0.6408	0.6904	0.098
Mof_C 	C 	0.109	0.5292	0.6541	0.072
Mof_H 	H 	0.1435	0.9771	0.7227	-0.027
Mof_H 	H 	0.2253	0.012	0.8262	-0.033
Mof_H 	H 	0.1555	0.3476	0.6632	-0.018
Mof_H 	H 	0.0859	0.5551	0.6381	-0.059
Mof_I 	I 	0.52206	0.1678	0.1307	-0.157
Mof_I 	I 	0.6247	0.229	0.05583	-0.319
Mof_I 	I 	0.84588	0.1062	0.5106	-0.13
Mof_I 	I 	0.88513	0.234	0.396	-0.273
Mof_I 	I 	0.1313	0.83	0.2006	-0.107
Mof_I 	I 	0.2369	0.7739	0.3013	-0.267
Mof_C 	C 	0.5521	0.776	0.232	-0.343
Mof_C 	C 	0.5617	0.699	0.2498	0.223
Mof_C 	C 	0.5941	0.6918	0.2922	0.076
Mof_C 	C 	0.6081	0.777	0.3172	0.536
Mof_C 	C 	0.5963	0.8566	0.2947	1.42
Mof_O 	O 	0.5682	0.8536	0.2548	0.725
Mof_C 	C 	0.6097	0.938	0.305	-0.182
Mof_C 	C 	0.6327	0.9476	0.3504	-0.048
Mof_C 	C 	0.6426	0.8653	0.374	0.744
Mof_C 	C 	0.6352	0.7764	0.3576	0.628
Mof_C 	C 	0.5244	0.797	0.1905	-0.049
Mof_C 	C 	0.506	0.8783	0.1859	-1.908
Mof_H 	H 	0.5114	0.9221	0.2088	-0.01
Mof_C 	C 	0.4787	0.8961	0.1461	3.947
Mof_H 	H 	0.4681	0.9545	0.1413	-1.006
Mof_C 	C 	0.4671	0.8296	0.1139	-1.446
Mof_C 	C 	0.4844	0.7423	0.1225	-8.81
Mof_C 	C 	0.514	0.7295	0.1589	3.783
Mof_H 	H 	0.5275	0.6741	0.1622	-3.414
Mof_O 	O 	0.5969	0.6139	0.3104	-0.164
Mof_O 	O 	0.5898	0.0083	0.2886	0.244
Mof_C 	C 	0.5942	0.076	0.2658	-0.855
Mof_H 	H 	0.5704	0.1125	0.2618	0.776
Mof_H 	H 	0.6161	0.1118	0.2814	1.342
Mof_H 	H 	0.5996	0.058	0.2365	0.16
Mof_O 	O 	0.6318	0.022	0.3745	-0.699
Mof_C 	C 	0.6671	0.072	0.3853	-0.464
Mof_H 	H 	0.6627	0.1247	0.4029	0.159
Mof_H 	H 	0.6873	0.0345	0.4027	4.898
Mof_H 	H 	0.6756	0.0911	0.3576	2.445
Mof_O 	O 	0.4421	0.8367	0.0797	-0.104
Mof_C 	C 	0.4199	0.923	0.0753	-2.679
Mof_H 	H 	0.401	0.9221	0.0474	0.821
Mof_H 	H 	0.4063	0.9292	0.1007	0.89
Mof_H 	H 	0.438	0.9726	0.0749	0.57
Mof_O 	O 	0.4771	0.6902	0.088	1.826
Mof_C 	C 	0.486	0.5968	0.099	-2.973
Mof_H 	H 	0.4797	0.5605	0.0718	0.89
Mof_H 	H 	0.5133	0.5904	0.112	0.646
Mof_H 	H 	0.4697	0.5766	0.1207	0.618
Mof_O 	O 	0.5423	0.631	0.2341	-0.226
Mof_C 	C 	0.5726	0.571	0.2141	-0.106
Mof_H 	H 	0.5597	0.5159	0.2013	0.173
Mof_H 	H 	0.5825	0.604	0.1908	0.119
Mof_H 	H 	0.5942	0.5547	0.238	0.076
Mof_O 	O 	0.6719	0.866	0.4134	-0.299
Mof_C 	C 	0.6512	0.899	0.4467	-0.252
Mof_H 	H 	0.6689	0.9019	0.4756	0.008
Mof_H 	H 	0.6411	0.9587	0.4383	-0.094
Mof_H 	H 	0.6296	0.8586	0.4492	0.066
Mof_O 	O 	0.6531	0.7166	0.3737	-0.208
Mof_C 	C 	0.649	0.645	0.4025	-0.004
Mof_H 	H 	0.6723	0.6086	0.4076	0.027
Mof_H 	H 	0.6437	0.6685	0.4312	0.015
Mof_H 	H 	0.6265	0.6078	0.3889	0.114
Mof_C 	C 	0.4853	0.462	0.2279	-0.246
Mof_H 	H 	0.4892	0.5155	0.2101	0.007
Mof_H 	H 	0.4584	0.4628	0.2341	0.138
Mof_C 	C 	0.492	0.376	0.2014	-0.334
Mof_H 	H 	0.4739	0.3762	0.1722	0.123
Mof_H 	H 	0.5188	0.3743	0.1959	0.301
Mof_C 	C 	0.4834	0.295	0.2295	-0.005
Mof_H 	H 	0.4836	0.2391	0.2122	0.024
Mof_H 	H 	0.4578	0.3012	0.239	0.028
Mof_C 	C 	0.5933	0.79	0.2897	-0.948
Mof_C 	C 	0.5896	0.7086	0.3015	0.106
Mof_C 	C 	0.5662	0.641	0.2679	0.133
Mof_C 	C 	0.5512	0.676	0.2206	-0.187
Mof_C 	C 	0.5477	0.767	0.2169	0.791
Mof_O 	O 	0.5693	0.8229	0.2509	-0.971
Mof_C 	C 	0.5297	0.812	0.1825	-0.622
Mof_C 	C 	0.5031	0.76	0.1492	-0.766
Mof_C 	C 	0.5096	0.664	0.151	3.494
Mof_C 	C 	0.5259	0.619	0.1911	0.366
Mof_C 	C 	0.6159	0.8601	0.3179	-1.136
Mof_C 	C 	0.644	0.844	0.3543	-0.134
Mof_H 	H 	0.6477	0.7854	0.3667	-0.411
Mof_C 	C 	0.6682	0.9181	0.3738	-0.918
Mof_H 	H 	0.6913	0.9082	0.3949	0.141
Mof_C 	C 	0.656	0.0057	0.3601	0.839
Mof_C 	C 	0.6289	0.0171	0.3193	0.415
Mof_C 	C 	0.6038	0.947	0.3042	-0.002
Mof_H 	H 	0.5795	0.9574	0.2853	-0.171
Mof_O 	O 	0.5649	0.5586	0.2793	-0.208
Mof_O 	O 	0.5292	0.899	0.1838	0.503
Mof_C 	C 	0.5109	0.954	0.205	1.081
Mof_H 	H 	0.5177	0.015	0.1976	-0.394
Mof_H 	H 	0.4828	0.9447	0.1952	-0.299
Mof_H 	H 	0.518	0.9435	0.2369	-0.248
Mof_O 	O 	0.4821	0.791	0.1112	7.357
Mof_C 	C 	0.467	0.88	0.114	-6.071
Mof_H 	H 	0.452	0.8976	0.0847	2.567
Mof_H 	H 	0.4499	0.8819	0.1364	1.075
Mof_H 	H 	0.4885	0.9222	0.1224	0.583
Mof_O 	O 	0.681	0.0646	0.3694	-2.987
Mof_C 	C 	0.7079	0.062	0.412	-11.409
Mof_H 	H 	0.7257	0.1127	0.414	3.613
Mof_H 	H 	0.6931	0.0643	0.4366	2.335
Mof_H 	H 	0.7228	0.0059	0.4139	2.898
Mof_O 	O 	0.6214	0.0945	0.3006	-1.336
Mof_C 	C 	0.5792	0.101	0.2816	-1.162
Mof_H 	H 	0.5738	0.1599	0.2675	-0.064
Mof_H 	H 	0.5721	0.0542	0.2591	0.345
Mof_H 	H 	0.564	0.094	0.3056	0.403
Mof_O 	O 	0.6176	0.6566	0.3287	-0.11
Mof_C 	C 	0.6135	0.659	0.3753	-0.377
Mof_H 	H 	0.6337	0.622	0.3929	0.025
Mof_H 	H 	0.6162	0.721	0.3861	0.096
Mof_H 	H 	0.5878	0.6363	0.3784	0.23
Mof_O 	O 	0.4829	0.606	0.122	0.597
Mof_C 	C 	0.4436	0.635	0.122	-1.048
Mof_H 	H 	0.4255	0.5961	0.1026	0.212
Mof_H 	H 	0.438	0.6333	0.1524	0.317
Mof_H 	H 	0.4406	0.6968	0.1106	0.74
Mof_O 	O 	0.5276	0.544	0.1917	-0.545
Mof_C 	C 	0.515	0.465	0.2098	0.441
Mof_H 	H 	0.5266	0.4131	0.1975	-0.291
Mof_H 	H 	0.5227	0.4657	0.2424	-0.017
Mof_H 	H 	0.4864	0.461	0.2021	0.047
Mof_C 	C 	0.4479	0.776	0.268	-0.343
Mof_C 	C 	0.4383	0.699	0.2502	0.224
Mof_C 	C 	0.4059	0.6918	0.2078	0.076
Mof_C 	C 	0.3919	0.777	0.1828	0.536
Mof_C 	C 	0.4037	0.8566	0.2053	1.42
Mof_O 	O 	0.4318	0.8536	0.2452	0.725
Mof_C 	C 	0.3903	0.938	0.195	-0.182
Mof_C 	C 	0.3673	0.9476	0.1496	-0.047
Mof_C 	C 	0.3574	0.8653	0.126	0.744
Mof_C 	C 	0.3648	0.7764	0.1424	0.628
Mof_C 	C 	0.4756	0.797	0.3095	-0.049
Mof_C 	C 	0.494	0.8783	0.3141	-1.908
Mof_H 	H 	0.4886	0.9221	0.2912	-0.011
Mof_C 	C 	0.5213	0.8961	0.3539	3.948
Mof_H 	H 	0.5319	0.9545	0.3587	-1.007
Mof_C 	C 	0.5329	0.8296	0.3861	-1.446
Mof_C 	C 	0.5156	0.7423	0.3775	-8.811
Mof_C 	C 	0.486	0.7295	0.3411	3.784
Mof_H 	H 	0.4725	0.6741	0.3378	-3.414
Mof_O 	O 	0.4031	0.6139	0.1896	-0.164
Mof_O 	O 	0.4102	0.0083	0.2114	0.243
Mof_C 	C 	0.4058	0.076	0.2342	-0.855
Mof_H 	H 	0.4296	0.1125	0.2382	0.775
Mof_H 	H 	0.3839	0.1118	0.2186	1.341
Mof_H 	H 	0.4004	0.058	0.2635	0.16
Mof_O 	O 	0.3682	0.022	0.1255	-0.698
Mof_C 	C 	0.3329	0.072	0.1147	-0.464
Mof_H 	H 	0.3373	0.1247	0.0971	0.158
Mof_H 	H 	0.3127	0.0345	0.0973	4.895
Mof_H 	H 	0.3244	0.0911	0.1424	2.442
Mof_O 	O 	0.5579	0.8367	0.4203	-0.104
Mof_C 	C 	0.5801	0.923	0.4247	-2.679
Mof_H 	H 	0.599	0.9221	0.4526	0.82
Mof_H 	H 	0.5937	0.9292	0.3993	0.89
Mof_H 	H 	0.562	0.9726	0.4251	0.57
Mof_O 	O 	0.5229	0.6902	0.412	1.827
Mof_C 	C 	0.514	0.5968	0.401	-2.974
Mof_H 	H 	0.5203	0.5605	0.4282	0.89
Mof_H 	H 	0.4867	0.5904	0.388	0.646
Mof_H 	H 	0.5303	0.5766	0.3793	0.618
Mof_O 	O 	0.4577	0.631	0.2659	-0.225
Mof_C 	C 	0.4274	0.571	0.2859	-0.106
Mof_H 	H 	0.4403	0.5159	0.2987	0.173
Mof_H 	H 	0.4175	0.604	0.3092	0.119
Mof_H 	H 	0.4058	0.5547	0.262	0.076
Mof_O 	O 	0.3281	0.866	0.0866	-0.299
Mof_C 	C 	0.3488	0.899	0.0533	-0.252
Mof_H 	H 	0.3311	0.9019	0.0244	0.009
Mof_H 	H 	0.3589	0.9587	0.0617	-0.094
Mof_H 	H 	0.3704	0.8586	0.0508	0.066
Mof_O 	O 	0.3469	0.7166	0.1263	-0.208
Mof_C 	C 	0.351	0.645	0.0975	-0.004
Mof_H 	H 	0.3277	0.6086	0.0924	0.027
Mof_H 	H 	0.3563	0.6685	0.0688	0.015
Mof_H 	H 	0.3735	0.6078	0.1111	0.114
Mof_C 	C 	0.5147	0.462	0.2721	-0.247
Mof_H 	H 	0.5108	0.5155	0.2899	0.007
Mof_H 	H 	0.5416	0.4628	0.2659	0.138
Mof_C 	C 	0.508	0.376	0.2986	-0.333
Mof_H 	H 	0.5261	0.3762	0.3278	0.123
Mof_H 	H 	0.4812	0.3743	0.3041	0.3
Mof_C 	C 	0.5166	0.295	0.2705	-0.005
Mof_H 	H 	0.5164	0.2391	0.2878	0.024
Mof_H 	H 	0.5422	0.3012	0.261	0.028
Mof_C 	C 	0.4067	0.79	0.2103	-0.949
Mof_C 	C 	0.4104	0.7086	0.1985	0.106
Mof_C 	C 	0.4338	0.641	0.2321	0.133
Mof_C 	C 	0.4488	0.676	0.2794	-0.187
Mof_C 	C 	0.4523	0.767	0.2831	0.791
Mof_O 	O 	0.4307	0.8229	0.2491	-0.971
Mof_C 	C 	0.4703	0.812	0.3175	-0.622
Mof_C 	C 	0.4969	0.76	0.3508	-0.766
Mof_C 	C 	0.4904	0.664	0.349	3.494
Mof_C 	C 	0.4741	0.619	0.3089	0.366
Mof_C 	C 	0.3841	0.8601	0.1821	-1.135
Mof_C 	C 	0.356	0.844	0.1457	-0.135
Mof_H 	H 	0.3523	0.7854	0.1333	-0.411
Mof_C 	C 	0.3318	0.9181	0.1262	-0.917
Mof_H 	H 	0.3087	0.9082	0.1051	0.141
Mof_C 	C 	0.344	0.0057	0.1399	0.837
Mof_C 	C 	0.3711	0.0171	0.1807	0.415
Mof_C 	C 	0.3962	0.947	0.1958	-0.003
Mof_H 	H 	0.4205	0.9574	0.2147	-0.171
Mof_O 	O 	0.4351	0.5586	0.2207	-0.208
Mof_O 	O 	0.4708	0.899	0.3162	0.503
Mof_C 	C 	0.4891	0.954	0.295	1.082
Mof_H 	H 	0.4823	0.015	0.3024	-0.393
Mof_H 	H 	0.5172	0.9447	0.3048	-0.299
Mof_H 	H 	0.482	0.9435	0.2631	-0.249
Mof_O 	O 	0.5179	0.791	0.3888	7.358
Mof_C 	C 	0.533	0.88	0.386	-6.072
Mof_H 	H 	0.548	0.8976	0.4153	2.568
Mof_H 	H 	0.5501	0.8819	0.3636	1.075
Mof_H 	H 	0.5115	0.9222	0.3776	0.583
Mof_O 	O 	0.319	0.0646	0.1306	-2.984
Mof_C 	C 	0.2921	0.062	0.088	-11.402
Mof_H 	H 	0.2743	0.1127	0.086	3.611
Mof_H 	H 	0.3069	0.0643	0.0634	2.334
Mof_H 	H 	0.2772	0.0059	0.0861	2.895
Mof_O 	O 	0.3786	0.0945	0.1994	-1.336
Mof_C 	C 	0.4208	0.101	0.2184	-1.161
Mof_H 	H 	0.4262	0.1599	0.2325	-0.064
Mof_H 	H 	0.4279	0.0542	0.2409	0.345
Mof_H 	H 	0.436	0.094	0.1944	0.403
Mof_O 	O 	0.3824	0.6566	0.1713	-0.11
Mof_C 	C 	0.3865	0.659	0.1247	-0.377
Mof_H 	H 	0.3663	0.622	0.1071	0.025
Mof_H 	H 	0.3838	0.721	0.1139	0.095
Mof_H 	H 	0.4122	0.6363	0.1216	0.23
Mof_O 	O 	0.5171	0.606	0.378	0.597
Mof_C 	C 	0.5564	0.635	0.378	-1.048
Mof_H 	H 	0.5745	0.5961	0.3974	0.212
Mof_H 	H 	0.562	0.6333	0.3476	0.317
Mof_H 	H 	0.5594	0.6968	0.3894	0.74
Mof_O 	O 	0.4724	0.544	0.3083	-0.545
Mof_C 	C 	0.485	0.465	0.2902	0.441
Mof_H 	H 	0.4734	0.4131	0.3025	-0.291
Mof_H 	H 	0.4773	0.4657	0.2576	-0.017
Mof_H 	H 	0.5136	0.461	0.2979	0.047
Mof_C 	C 	0.0521	0.276	0.232	-0.343
Mof_C 	C 	0.0617	0.199	0.2498	0.222
Mof_C 	C 	0.0941	0.1918	0.2922	0.076
Mof_C 	C 	0.1081	0.277	0.3172	0.535
Mof_C 	C 	0.0963	0.3566	0.2947	1.419
Mof_O 	O 	0.0682	0.3536	0.2548	0.724
Mof_C 	C 	0.1097	0.438	0.305	-0.182
Mof_C 	C 	0.1327	0.4476	0.3504	-0.049
Mof_C 	C 	0.1426	0.3653	0.374	0.742
Mof_C 	C 	0.1352	0.2764	0.3576	0.627
Mof_C 	C 	0.0244	0.297	0.1905	-0.049
Mof_C 	C 	0.006	0.3783	0.1859	-1.911
Mof_H 	H 	0.0114	0.4221	0.2088	-0.011
Mof_C 	C 	0.9787	0.3961	0.1461	3.953
Mof_H 	H 	0.9681	0.4545	0.1413	-1.008
Mof_C 	C 	0.9671	0.3296	0.1139	-1.448
Mof_C 	C 	0.9844	0.2423	0.1225	-8.817
Mof_C 	C 	0.014	0.2295	0.1589	3.785
Mof_H 	H 	0.0275	0.1741	0.1622	-3.416
Mof_O 	O 	0.0969	0.1139	0.3104	-0.164
Mof_O 	O 	0.0898	0.5083	0.2886	0.246
Mof_C 	C 	0.0942	0.576	0.2658	-0.858
Mof_H 	H 	0.0704	0.6125	0.2618	0.778
Mof_H 	H 	0.1161	0.6118	0.2814	1.344
Mof_H 	H 	0.0996	0.558	0.2365	0.161
Mof_O 	O 	0.1318	0.522	0.3745	-0.698
Mof_C 	C 	0.1671	0.572	0.3853	-0.465
Mof_H 	H 	0.1627	0.6247	0.4029	0.159
Mof_H 	H 	0.1873	0.5345	0.4027	4.898
Mof_H 	H 	0.1756	0.5911	0.3576	2.445
Mof_O 	O 	0.9421	0.3367	0.0797	-0.104
Mof_C 	C 	0.9199	0.423	0.0753	-2.68
Mof_H 	H 	0.901	0.4221	0.0474	0.821
Mof_H 	H 	0.9063	0.4292	0.1007	0.891
Mof_H 	H 	0.938	0.4726	0.0749	0.57
Mof_O 	O 	0.9771	0.1902	0.088	1.828
Mof_C 	C 	0.986	0.0968	0.099	-2.974
Mof_H 	H 	0.9797	0.0605	0.0718	0.89
Mof_H 	H 	0.0133	0.0904	0.112	0.646
Mof_H 	H 	0.9697	0.0766	0.1207	0.618
Mof_O 	O 	0.0423	0.131	0.2341	-0.227
Mof_C 	C 	0.0726	0.071	0.2141	-0.105
Mof_H 	H 	0.0597	0.0159	0.2013	0.173
Mof_H 	H 	0.0825	0.104	0.1908	0.119
Mof_H 	H 	0.0942	0.0547	0.238	0.075
Mof_O 	O 	0.1719	0.366	0.4134	-0.299
Mof_C 	C 	0.1512	0.399	0.4467	-0.251
Mof_H 	H 	0.1689	0.4019	0.4756	0.008
Mof_H 	H 	0.1411	0.4587	0.4383	-0.094
Mof_H 	H 	0.1296	0.3586	0.4492	0.066
Mof_O 	O 	0.1531	0.2166	0.3737	-0.208
Mof_C 	C 	0.149	0.145	0.4025	-0.004
Mof_H 	H 	0.1723	0.1086	0.4076	0.027
Mof_H 	H 	0.1437	0.1685	0.4312	0.015
Mof_H 	H 	0.1265	0.1078	0.3889	0.114
Mof_C 	C 	0.9853	0.962	0.2279	-0.244
Mof_H 	H 	0.9892	0.0155	0.2101	0.005
Mof_H 	H 	0.9584	0.9628	0.2341	0.136
Mof_C 	C 	0.992	0.876	0.2014	-0.343
Mof_H 	H 	0.9739	0.8762	0.1722	0.127
Mof_H 	H 	0.0188	0.8743	0.1959	0.308
Mof_C 	C 	0.9834	0.795	0.2295	0.003
Mof_H 	H 	0.9836	0.7391	0.2122	0.022
Mof_H 	H 	0.9578	0.8012	0.239	0.026
Mof_C 	C 	0.0933	0.29	0.2897	-0.946
Mof_C 	C 	0.0896	0.2086	0.3015	0.106
Mof_C 	C 	0.0662	0.141	0.2679	0.135
Mof_C 	C 	0.0512	0.176	0.2206	-0.186
Mof_C 	C 	0.0477	0.267	0.2169	0.792
Mof_O 	O 	0.0693	0.3229	0.2509	-0.971
Mof_C 	C 	0.0297	0.312	0.1825	-0.621
Mof_C 	C 	0.0031	0.26	0.1492	-0.766
Mof_C 	C 	0.0096	0.164	0.151	3.496
Mof_C 	C 	0.0259	0.119	0.1911	0.368
Mof_C 	C 	0.1159	0.3601	0.3179	-1.134
Mof_C 	C 	0.144	0.344	0.3543	-0.132
Mof_H 	H 	0.1477	0.2854	0.3667	-0.411
Mof_C 	C 	0.1682	0.4181	0.3738	-0.918
Mof_H 	H 	0.1913	0.4082	0.3949	0.14
Mof_C 	C 	0.156	0.5057	0.3601	0.84
Mof_C 	C 	0.1289	0.5171	0.3193	0.415
Mof_C 	C 	0.1038	0.447	0.3042	-0.003
Mof_H 	H 	0.0795	0.4574	0.2853	-0.172
Mof_O 	O 	0.0649	0.0586	0.2793	-0.209
Mof_O 	O 	0.0292	0.399	0.1838	0.504
Mof_C 	C 	0.0109	0.454	0.205	1.084
Mof_H 	H 	0.0177	0.515	0.1976	-0.394
Mof_H 	H 	0.9828	0.4447	0.1952	-0.3
Mof_H 	H 	0.018	0.4435	0.2369	-0.249
Mof_O 	O 	0.9821	0.291	0.1112	7.363
Mof_C 	C 	0.967	0.38	0.114	-6.077
Mof_H 	H 	0.952	0.3976	0.0847	2.57
Mof_H 	H 	0.9499	0.3819	0.1364	1.075
Mof_H 	H 	0.9885	0.4222	0.1224	0.583
Mof_O 	O 	0.181	0.5646	0.3694	-2.988
Mof_C 	C 	0.2079	0.562	0.412	-11.41
Mof_H 	H 	0.2257	0.6127	0.414	3.613
Mof_H 	H 	0.1931	0.5643	0.4366	2.335
Mof_H 	H 	0.2228	0.5059	0.4139	2.898
Mof_O 	O 	0.1214	0.5945	0.3006	-1.338
Mof_C 	C 	0.0792	0.601	0.2816	-1.164
Mof_H 	H 	0.0738	0.6599	0.2675	-0.064
Mof_H 	H 	0.0721	0.5542	0.2591	0.346
Mof_H 	H 	0.064	0.594	0.3056	0.403
Mof_O 	O 	0.1176	0.1566	0.3287	-0.11
Mof_C 	C 	0.1135	0.159	0.3753	-0.377
Mof_H 	H 	0.1337	0.122	0.3929	0.025
Mof_H 	H 	0.1162	0.221	0.3861	0.096
Mof_H 	H 	0.0878	0.1363	0.3784	0.23
Mof_O 	O 	0.9829	0.106	0.122	0.598
Mof_C 	C 	0.9436	0.135	0.122	-1.048
Mof_H 	H 	0.9255	0.0961	0.1026	0.212
Mof_H 	H 	0.938	0.1333	0.1524	0.317
Mof_H 	H 	0.9406	0.1968	0.1106	0.74
Mof_O 	O 	0.0276	0.044	0.1917	-0.549
Mof_C 	C 	0.015	0.965	0.2098	0.454
Mof_H 	H 	0.0266	0.9131	0.1975	-0.3
Mof_H 	H 	0.0227	0.9657	0.2424	-0.021
Mof_H 	H 	0.9864	0.961	0.2021	0.045
Mof_C 	C 	0.9479	0.276	0.268	-0.343
Mof_C 	C 	0.9383	0.199	0.2502	0.222
Mof_C 	C 	0.9059	0.1918	0.2078	0.076
Mof_C 	C 	0.8919	0.277	0.1828	0.537
Mof_C 	C 	0.9037	0.3566	0.2053	1.423
Mof_O 	O 	0.9318	0.3536	0.2452	0.727
Mof_C 	C 	0.8903	0.438	0.195	-0.183
Mof_C 	C 	0.8673	0.4476	0.1496	-0.049
Mof_C 	C 	0.8574	0.3653	0.126	0.745
Mof_C 	C 	0.8648	0.2764	0.1424	0.629
Mof_C 	C 	0.9756	0.297	0.3095	-0.049
Mof_C 	C 	0.994	0.3783	0.3141	-1.905
Mof_H 	H 	0.9886	0.4221	0.2912	-0.011
Mof_C 	C 	0.0213	0.3961	0.3539	3.946
Mof_H 	H 	0.0319	0.4545	0.3587	-1.006
Mof_C 	C 	0.0329	0.3296	0.3861	-1.446
Mof_C 	C 	0.0156	0.2423	0.3775	-8.814
Mof_C 	C 	0.986	0.2295	0.3411	3.786
Mof_H 	H 	0.9725	0.1741	0.3378	-3.415
Mof_O 	O 	0.9031	0.1139	0.1896	-0.164
Mof_O 	O 	0.9102	0.5083	0.2114	0.247
Mof_C 	C 	0.9058	0.576	0.2342	-0.859
Mof_H 	H 	0.9296	0.6125	0.2382	0.778
Mof_H 	H 	0.8839	0.6118	0.2186	1.344
Mof_H 	H 	0.9004	0.558	0.2635	0.161
Mof_O 	O 	0.8682	0.522	0.1255	-0.699
Mof_C 	C 	0.8329	0.572	0.1147	-0.465
Mof_H 	H 	0.8373	0.6247	0.0971	0.159
Mof_H 	H 	0.8127	0.5345	0.0973	4.899
Mof_H 	H 	0.8244	0.5911	0.1424	2.446
Mof_O 	O 	0.0579	0.3367	0.4203	-0.105
Mof_C 	C 	0.0801	0.423	0.4247	-2.679
Mof_H 	H 	0.099	0.4221	0.4526	0.82
Mof_H 	H 	0.0937	0.4292	0.3993	0.89
Mof_H 	H 	0.062	0.4726	0.4251	0.569
Mof_O 	O 	0.0229	0.1902	0.412	1.827
Mof_C 	C 	0.014	0.0968	0.401	-2.975
Mof_H 	H 	0.0203	0.0605	0.4282	0.891
Mof_H 	H 	0.9867	0.0904	0.388	0.647
Mof_H 	H 	0.0303	0.0766	0.3793	0.618
Mof_O 	O 	0.9577	0.131	0.2659	-0.226
Mof_C 	C 	0.9274	0.071	0.2859	-0.106
Mof_H 	H 	0.9403	0.0159	0.2987	0.173
Mof_H 	H 	0.9175	0.104	0.3092	0.119
Mof_H 	H 	0.9058	0.0547	0.262	0.076
Mof_O 	O 	0.8281	0.366	0.0866	-0.299
Mof_C 	C 	0.8488	0.399	0.0533	-0.251
Mof_H 	H 	0.8311	0.4019	0.0244	0.008
Mof_H 	H 	0.8589	0.4587	0.0617	-0.094
Mof_H 	H 	0.8704	0.3586	0.0508	0.066
Mof_O 	O 	0.8469	0.2166	0.1263	-0.208
Mof_C 	C 	0.851	0.145	0.0975	-0.003
Mof_H 	H 	0.8277	0.1086	0.0924	0.027
Mof_H 	H 	0.8563	0.1685	0.0688	0.015
Mof_H 	H 	0.8735	0.1078	0.1111	0.114
Mof_C 	C 	0.0147	0.962	0.2721	-0.252
Mof_H 	H 	0.0108	0.0155	0.2899	0.01
Mof_H 	H 	0.0416	0.9628	0.2659	0.14
Mof_C 	C 	0.008	0.876	0.2986	-0.321
Mof_H 	H 	0.0261	0.8762	0.3278	0.119
Mof_H 	H 	0.9812	0.8743	0.3041	0.29
Mof_C 	C 	0.0166	0.795	0.2705	-0.014
Mof_H 	H 	0.0164	0.7391	0.2878	0.027
Mof_H 	H 	0.0422	0.8012	0.261	0.03
Mof_C 	C 	0.9067	0.29	0.2103	-0.95
Mof_C 	C 	0.9104	0.2086	0.1985	0.107
Mof_C 	C 	0.9338	0.141	0.2321	0.134
Mof_C 	C 	0.9488	0.176	0.2794	-0.185
Mof_C 	C 	0.9523	0.267	0.2831	0.793
Mof_O 	O 	0.9307	0.3229	0.2491	-0.973
Mof_C 	C 	0.9703	0.312	0.3175	-0.623
Mof_C 	C 	0.9969	0.26	0.3508	-0.767
Mof_C 	C 	0.9904	0.164	0.349	3.496
Mof_C 	C 	0.9741	0.119	0.3089	0.363
Mof_C 	C 	0.8841	0.3601	0.1821	-1.137
Mof_C 	C 	0.856	0.344	0.1457	-0.134
Mof_H 	H 	0.8523	0.2854	0.1333	-0.412
Mof_C 	C 	0.8318	0.4181	0.1262	-0.92
Mof_H 	H 	0.8087	0.4082	0.1051	0.141
Mof_C 	C 	0.844	0.5057	0.1399	0.84
Mof_C 	C 	0.8711	0.5171	0.1807	0.415
Mof_C 	C 	0.8962	0.447	0.1958	-0.003
Mof_H 	H 	0.9205	0.4574	0.2147	-0.173
Mof_O 	O 	0.9351	0.0586	0.2207	-0.208
Mof_O 	O 	0.9708	0.399	0.3162	0.502
Mof_C 	C 	0.9891	0.454	0.295	1.081
Mof_H 	H 	0.9823	0.515	0.3024	-0.393
Mof_H 	H 	0.0172	0.4447	0.3048	-0.3
Mof_H 	H 	0.982	0.4435	0.2631	-0.248
Mof_O 	O 	0.0179	0.291	0.3888	7.36
Mof_C 	C 	0.033	0.38	0.386	-6.074
Mof_H 	H 	0.048	0.3976	0.4153	2.568
Mof_H 	H 	0.0501	0.3819	0.3636	1.076
Mof_H 	H 	0.0115	0.4222	0.3776	0.584
Mof_O 	O 	0.819	0.5646	0.1306	-2.989
Mof_C 	C 	0.7921	0.562	0.088	-11.412
Mof_H 	H 	0.7743	0.6127	0.086	3.614
Mof_H 	H 	0.8069	0.5643	0.0634	2.336
Mof_H 	H 	0.7772	0.5059	0.0861	2.898
Mof_O 	O 	0.8786	0.5945	0.1994	-1.338
Mof_C 	C 	0.9208	0.601	0.2184	-1.165
Mof_H 	H 	0.9262	0.6599	0.2325	-0.064
Mof_H 	H 	0.9279	0.5542	0.2409	0.346
Mof_H 	H 	0.936	0.594	0.1944	0.404
Mof_O 	O 	0.8824	0.1566	0.1713	-0.11
Mof_C 	C 	0.8865	0.159	0.1247	-0.376
Mof_H 	H 	0.8663	0.122	0.1071	0.025
Mof_H 	H 	0.8838	0.221	0.1139	0.095
Mof_H 	H 	0.9122	0.1363	0.1216	0.23
Mof_O 	O 	0.0171	0.106	0.378	0.597
Mof_C 	C 	0.0564	0.135	0.378	-1.048
Mof_H 	H 	0.0745	0.0961	0.3974	0.212
Mof_H 	H 	0.062	0.1333	0.3476	0.317
Mof_H 	H 	0.0594	0.1968	0.3894	0.74
Mof_O 	O 	0.9724	0.044	0.3083	-0.541
Mof_C 	C 	0.985	0.965	0.2902	0.423
Mof_H 	H 	0.9734	0.9131	0.3025	-0.279
Mof_H 	H 	0.9773	0.9657	0.2576	-0.01
Mof_H 	H 	0.0136	0.961	0.2979	0.052
Mof_C 	C 	0.4479	0.224	0.768	-0.343
Mof_C 	C 	0.4383	0.301	0.7502	0.223
Mof_C 	C 	0.4059	0.3082	0.7078	0.076
Mof_C 	C 	0.3919	0.223	0.6828	0.536
Mof_C 	C 	0.4037	0.1434	0.7053	1.42
Mof_O 	O 	0.4318	0.1464	0.7452	0.725
Mof_C 	C 	0.3903	0.062	0.695	-0.182
Mof_C 	C 	0.3673	0.0524	0.6496	-0.048
Mof_C 	C 	0.3574	0.1347	0.626	0.744
Mof_C 	C 	0.3648	0.2236	0.6424	0.628
Mof_C 	C 	0.4756	0.203	0.8095	-0.049
Mof_C 	C 	0.494	0.1217	0.8141	-1.908
Mof_H 	H 	0.4886	0.0779	0.7912	-0.01
Mof_C 	C 	0.5213	0.1039	0.8539	3.947
Mof_H 	H 	0.5319	0.0455	0.8587	-1.006
Mof_C 	C 	0.5329	0.1704	0.8861	-1.446
Mof_C 	C 	0.5156	0.2577	0.8775	-8.81
Mof_C 	C 	0.486	0.2705	0.8411	3.783
Mof_H 	H 	0.4725	0.3259	0.8378	-3.414
Mof_O 	O 	0.4031	0.3861	0.6896	-0.164
Mof_O 	O 	0.4102	0.9917	0.7114	0.244
Mof_C 	C 	0.4058	0.924	0.7342	-0.855
Mof_H 	H 	0.4296	0.8875	0.7382	0.776
Mof_H 	H 	0.3839	0.8882	0.7186	1.342
Mof_H 	H 	0.4004	0.942	0.7635	0.16
Mof_O 	O 	0.3682	0.978	0.6255	-0.699
Mof_C 	C 	0.3329	0.928	0.6147	-0.464
Mof_H 	H 	0.3373	0.8753	0.5971	0.159
Mof_H 	H 	0.3127	0.9655	0.5973	4.898
Mof_H 	H 	0.3244	0.9089	0.6424	2.445
Mof_O 	O 	0.5579	0.1633	0.9203	-0.104
Mof_C 	C 	0.5801	0.077	0.9247	-2.679
Mof_H 	H 	0.599	0.0779	0.9526	0.821
Mof_H 	H 	0.5937	0.0708	0.8993	0.89
Mof_H 	H 	0.562	0.0274	0.9251	0.57
Mof_O 	O 	0.5229	0.3098	0.912	1.826
Mof_C 	C 	0.514	0.4032	0.901	-2.973
Mof_H 	H 	0.5203	0.4395	0.9282	0.89
Mof_H 	H 	0.4867	0.4096	0.888	0.646
Mof_H 	H 	0.5303	0.4234	0.8793	0.618
Mof_O 	O 	0.4577	0.369	0.7659	-0.226
Mof_C 	C 	0.4274	0.429	0.7859	-0.106
Mof_H 	H 	0.4403	0.4841	0.7987	0.173
Mof_H 	H 	0.4175	0.396	0.8092	0.119
Mof_H 	H 	0.4058	0.4453	0.762	0.076
Mof_O 	O 	0.3281	0.134	0.5866	-0.299
Mof_C 	C 	0.3488	0.101	0.5533	-0.252
Mof_H 	H 	0.3311	0.0981	0.5244	0.008
Mof_H 	H 	0.3589	0.0413	0.5617	-0.094
Mof_H 	H 	0.3704	0.1414	0.5508	0.066
Mof_O 	O 	0.3469	0.2834	0.6263	-0.208
Mof_C 	C 	0.351	0.355	0.5975	-0.004
Mof_H 	H 	0.3277	0.3914	0.5924	0.027
Mof_H 	H 	0.3563	0.3315	0.5688	0.015
Mof_H 	H 	0.3735	0.3922	0.6111	0.114
Mof_C 	C 	0.5147	0.538	0.7721	-0.246
Mof_H 	H 	0.5108	0.4845	0.7899	0.007
Mof_H 	H 	0.5416	0.5372	0.7659	0.138
Mof_C 	C 	0.508	0.624	0.7986	-0.334
Mof_H 	H 	0.5261	0.6238	0.8278	0.123
Mof_H 	H 	0.4812	0.6257	0.8041	0.301
Mof_C 	C 	0.5166	0.705	0.7705	-0.005
Mof_H 	H 	0.5164	0.7609	0.7878	0.024
Mof_H 	H 	0.5422	0.6988	0.761	0.028
Mof_C 	C 	0.4067	0.21	0.7103	-0.948
Mof_C 	C 	0.4104	0.2914	0.6985	0.106
Mof_C 	C 	0.4338	0.359	0.7321	0.133
Mof_C 	C 	0.4488	0.324	0.7794	-0.187
Mof_C 	C 	0.4523	0.233	0.7831	0.791
Mof_O 	O 	0.4307	0.1771	0.7491	-0.971
Mof_C 	C 	0.4703	0.188	0.8175	-0.622
Mof_C 	C 	0.4969	0.24	0.8508	-0.766
Mof_C 	C 	0.4904	0.336	0.849	3.494
Mof_C 	C 	0.4741	0.381	0.8089	0.366
Mof_C 	C 	0.3841	0.1399	0.6821	-1.136
Mof_C 	C 	0.356	0.156	0.6457	-0.134
Mof_H 	H 	0.3523	0.2146	0.6333	-0.411
Mof_C 	C 	0.3318	0.0819	0.6262	-0.918
Mof_H 	H 	0.3087	0.0918	0.6051	0.141
Mof_C 	C 	0.344	0.9943	0.6399	0.839
Mof_C 	C 	0.3711	0.9829	0.6807	0.415
Mof_C 	C 	0.3962	0.053	0.6958	-0.002
Mof_H 	H 	0.4205	0.0426	0.7147	-0.171
Mof_O 	O 	0.4351	0.4414	0.7207	-0.208
Mof_O 	O 	0.4708	0.101	0.8162	0.503
Mof_C 	C 	0.4891	0.046	0.795	1.081
Mof_H 	H 	0.4823	0.985	0.8024	-0.394
Mof_H 	H 	0.5172	0.0553	0.8048	-0.299
Mof_H 	H 	0.482	0.0565	0.7631	-0.248
Mof_O 	O 	0.5179	0.209	0.8888	7.357
Mof_C 	C 	0.533	0.12	0.886	-6.071
Mof_H 	H 	0.548	0.1024	0.9153	2.567
Mof_H 	H 	0.5501	0.1181	0.8636	1.075
Mof_H 	H 	0.5115	0.0778	0.8776	0.583
Mof_O 	O 	0.319	0.9354	0.6306	-2.987
Mof_C 	C 	0.2921	0.938	0.588	-11.409
Mof_H 	H 	0.2743	0.8873	0.586	3.613
Mof_H 	H 	0.3069	0.9357	0.5634	2.335
Mof_H 	H 	0.2772	0.9941	0.5861	2.898
Mof_O 	O 	0.3786	0.9055	0.6994	-1.336
Mof_C 	C 	0.4208	0.899	0.7184	-1.162
Mof_H 	H 	0.4262	0.8401	0.7325	-0.064
Mof_H 	H 	0.4279	0.9458	0.7409	0.345
Mof_H 	H 	0.436	0.906	0.6944	0.403
Mof_O 	O 	0.3824	0.3434	0.6713	-0.11
Mof_C 	C 	0.3865	0.341	0.6247	-0.377
Mof_H 	H 	0.3663	0.378	0.6071	0.025
Mof_H 	H 	0.3838	0.279	0.6139	0.096
Mof_H 	H 	0.4122	0.3637	0.6216	0.23
Mof_O 	O 	0.5171	0.394	0.878	0.597
Mof_C 	C 	0.5564	0.365	0.878	-1.048
Mof_H 	H 	0.5745	0.4039	0.8974	0.212
Mof_H 	H 	0.562	0.3667	0.8476	0.317
Mof_H 	H 	0.5594	0.3032	0.8894	0.74
Mof_O 	O 	0.4724	0.456	0.8083	-0.545
Mof_C 	C 	0.485	0.535	0.7902	0.441
Mof_H 	H 	0.4734	0.5869	0.8025	-0.291
Mof_H 	H 	0.4773	0.5343	0.7576	-0.017
Mof_H 	H 	0.5136	0.539	0.7979	0.047
Mof_C 	C 	0.5521	0.224	0.732	-0.343
Mof_C 	C 	0.5617	0.301	0.7498	0.224
Mof_C 	C 	0.5941	0.3082	0.7922	0.076
Mof_C 	C 	0.6081	0.223	0.8172	0.536
Mof_C 	C 	0.5963	0.1434	0.7947	1.42
Mof_O 	O 	0.5682	0.1464	0.7548	0.725
Mof_C 	C 	0.6097	0.062	0.805	-0.182
Mof_C 	C 	0.6327	0.0524	0.8504	-0.047
Mof_C 	C 	0.6426	0.1347	0.874	0.744
Mof_C 	C 	0.6352	0.2236	0.8576	0.628
Mof_C 	C 	0.5244	0.203	0.6905	-0.049
Mof_C 	C 	0.506	0.1217	0.6859	-1.908
Mof_H 	H 	0.5114	0.0779	0.7088	-0.011
Mof_C 	C 	0.4787	0.1039	0.6461	3.948
Mof_H 	H 	0.4681	0.0455	0.6413	-1.007
Mof_C 	C 	0.4671	0.1704	0.6139	-1.446
Mof_C 	C 	0.4844	0.2577	0.6225	-8.811
Mof_C 	C 	0.514	0.2705	0.6589	3.784
Mof_H 	H 	0.5275	0.3259	0.6622	-3.414
Mof_O 	O 	0.5969	0.3861	0.8104	-0.164
Mof_O 	O 	0.5898	0.9917	0.7886	0.243
Mof_C 	C 	0.5942	0.924	0.7658	-0.855
Mof_H 	H 	0.5704	0.8875	0.7618	0.775
Mof_H 	H 	0.6161	0.8882	0.7814	1.341
Mof_H 	H 	0.5996	0.942	0.7365	0.16
Mof_O 	O 	0.6318	0.978	0.8745	-0.698
Mof_C 	C 	0.6671	0.928	0.8853	-0.464
Mof_H 	H 	0.6627	0.8753	0.9029	0.158
Mof_H 	H 	0.6873	0.9655	0.9027	4.895
Mof_H 	H 	0.6756	0.9089	0.8576	2.442
Mof_O 	O 	0.4421	0.1633	0.5797	-0.104
Mof_C 	C 	0.4199	0.077	0.5753	-2.679
Mof_H 	H 	0.401	0.0779	0.5474	0.82
Mof_H 	H 	0.4063	0.0708	0.6007	0.89
Mof_H 	H 	0.438	0.0274	0.5749	0.57
Mof_O 	O 	0.4771	0.3098	0.588	1.827
Mof_C 	C 	0.486	0.4032	0.599	-2.974
Mof_H 	H 	0.4797	0.4395	0.5718	0.89
Mof_H 	H 	0.5133	0.4096	0.612	0.646
Mof_H 	H 	0.4697	0.4234	0.6207	0.618
Mof_O 	O 	0.5423	0.369	0.7341	-0.225
Mof_C 	C 	0.5726	0.429	0.7141	-0.106
Mof_H 	H 	0.5597	0.4841	0.7013	0.173
Mof_H 	H 	0.5825	0.396	0.6908	0.119
Mof_H 	H 	0.5942	0.4453	0.738	0.076
Mof_O 	O 	0.6719	0.134	0.9134	-0.299
Mof_C 	C 	0.6512	0.101	0.9467	-0.252
Mof_H 	H 	0.6689	0.0981	0.9756	0.009
Mof_H 	H 	0.6411	0.0413	0.9383	-0.094
Mof_H 	H 	0.6296	0.1414	0.9492	0.066
Mof_O 	O 	0.6531	0.2834	0.8737	-0.208
Mof_C 	C 	0.649	0.355	0.9025	-0.004
Mof_H 	H 	0.6723	0.3914	0.9076	0.027
Mof_H 	H 	0.6437	0.3315	0.9312	0.015
Mof_H 	H 	0.6265	0.3922	0.8889	0.114
Mof_C 	C 	0.4853	0.538	0.7279	-0.247
Mof_H 	H 	0.4892	0.4845	0.7101	0.007
Mof_H 	H 	0.4584	0.5372	0.7341	0.138
Mof_C 	C 	0.492	0.624	0.7014	-0.333
Mof_H 	H 	0.4739	0.6238	0.6722	0.123
Mof_H 	H 	0.5188	0.6257	0.6959	0.3
Mof_C 	C 	0.4834	0.705	0.7295	-0.005
Mof_H 	H 	0.4836	0.7609	0.7122	0.024
Mof_H 	H 	0.4578	0.6988	0.739	0.028
Mof_C 	C 	0.5933	0.21	0.7897	-0.949
Mof_C 	C 	0.5896	0.2914	0.8015	0.106
Mof_C 	C 	0.5662	0.359	0.7679	0.133
Mof_C 	C 	0.5512	0.324	0.7206	-0.187
Mof_C 	C 	0.5477	0.233	0.7169	0.791
Mof_O 	O 	0.5693	0.1771	0.7509	-0.971
Mof_C 	C 	0.5297	0.188	0.6825	-0.622
Mof_C 	C 	0.5031	0.24	0.6492	-0.766
Mof_C 	C 	0.5096	0.336	0.651	3.494
Mof_C 	C 	0.5259	0.381	0.6911	0.366
Mof_C 	C 	0.6159	0.1399	0.8179	-1.135
Mof_C 	C 	0.644	0.156	0.8543	-0.135
Mof_H 	H 	0.6477	0.2146	0.8667	-0.411
Mof_C 	C 	0.6682	0.0819	0.8738	-0.917
Mof_H 	H 	0.6913	0.0918	0.8949	0.141
Mof_C 	C 	0.656	0.9943	0.8601	0.837
Mof_C 	C 	0.6289	0.9829	0.8193	0.415
Mof_C 	C 	0.6038	0.053	0.8042	-0.003
Mof_H 	H 	0.5795	0.0426	0.7853	-0.171
Mof_O 	O 	0.5649	0.4414	0.7793	-0.208
Mof_O 	O 	0.5292	0.101	0.6838	0.503
Mof_C 	C 	0.5109	0.046	0.705	1.082
Mof_H 	H 	0.5177	0.985	0.6976	-0.393
Mof_H 	H 	0.4828	0.0553	0.6952	-0.299
Mof_H 	H 	0.518	0.0565	0.7369	-0.249
Mof_O 	O 	0.4821	0.209	0.6112	7.358
Mof_C 	C 	0.467	0.12	0.614	-6.072
Mof_H 	H 	0.452	0.1024	0.5847	2.568
Mof_H 	H 	0.4499	0.1181	0.6364	1.075
Mof_H 	H 	0.4885	0.0778	0.6224	0.583
Mof_O 	O 	0.681	0.9354	0.8694	-2.984
Mof_C 	C 	0.7079	0.938	0.912	-11.402
Mof_H 	H 	0.7257	0.8873	0.914	3.611
Mof_H 	H 	0.6931	0.9357	0.9366	2.334
Mof_H 	H 	0.7228	0.9941	0.9139	2.895
Mof_O 	O 	0.6214	0.9055	0.8006	-1.336
Mof_C 	C 	0.5792	0.899	0.7816	-1.161
Mof_H 	H 	0.5738	0.8401	0.7675	-0.064
Mof_H 	H 	0.5721	0.9458	0.7591	0.345
Mof_H 	H 	0.564	0.906	0.8056	0.403
Mof_O 	O 	0.6176	0.3434	0.8287	-0.11
Mof_C 	C 	0.6135	0.341	0.8753	-0.377
Mof_H 	H 	0.6337	0.378	0.8929	0.025
Mof_H 	H 	0.6162	0.279	0.8861	0.095
Mof_H 	H 	0.5878	0.3637	0.8784	0.23
Mof_O 	O 	0.4829	0.394	0.622	0.597
Mof_C 	C 	0.4436	0.365	0.622	-1.048
Mof_H 	H 	0.4255	0.4039	0.6026	0.212
Mof_H 	H 	0.438	0.3667	0.6524	0.317
Mof_H 	H 	0.4406	0.3032	0.6106	0.74
Mof_O 	O 	0.5276	0.456	0.6917	-0.545
Mof_C 	C 	0.515	0.535	0.7098	0.441
Mof_H 	H 	0.5266	0.5869	0.6975	-0.291
Mof_H 	H 	0.5227	0.5343	0.7424	-0.017
Mof_H 	H 	0.4864	0.539	0.7021	0.047
Mof_C 	C 	0.9479	0.724	0.768	-0.343
Mof_C 	C 	0.9383	0.801	0.7502	0.222
Mof_C 	C 	0.9059	0.8082	0.7078	0.076
Mof_C 	C 	0.8919	0.723	0.6828	0.535
Mof_C 	C 	0.9037	0.6434	0.7053	1.419
Mof_O 	O 	0.9318	0.6464	0.7452	0.724
Mof_C 	C 	0.8903	0.562	0.695	-0.182
Mof_C 	C 	0.8673	0.5524	0.6496	-0.049
Mof_C 	C 	0.8574	0.6347	0.626	0.742
Mof_C 	C 	0.8648	0.7236	0.6424	0.627
Mof_C 	C 	0.9756	0.703	0.8095	-0.049
Mof_C 	C 	0.994	0.6217	0.8141	-1.911
Mof_H 	H 	0.9886	0.5779	0.7912	-0.011
Mof_C 	C 	0.0213	0.6039	0.8539	3.953
Mof_H 	H 	0.0319	0.5455	0.8587	-1.008
Mof_C 	C 	0.0329	0.6704	0.8861	-1.448
Mof_C 	C 	0.0156	0.7577	0.8775	-8.817
Mof_C 	C 	0.986	0.7705	0.8411	3.785
Mof_H 	H 	0.9725	0.8259	0.8378	-3.416
Mof_O 	O 	0.9031	0.8861	0.6896	-0.164
Mof_O 	O 	0.9102	0.4917	0.7114	0.246
Mof_C 	C 	0.9058	0.424	0.7342	-0.858
Mof_H 	H 	0.9296	0.3875	0.7382	0.778
Mof_H 	H 	0.8839	0.3882	0.7186	1.344
Mof_H 	H 	0.9004	0.442	0.7635	0.161
Mof_O 	O 	0.8682	0.478	0.6255	-0.698
Mof_C 	C 	0.8329	0.428	0.6147	-0.465
Mof_H 	H 	0.8373	0.3753	0.5971	0.159
Mof_H 	H 	0.8127	0.4655	0.5973	4.898
Mof_H 	H 	0.8244	0.4089	0.6424	2.445
Mof_O 	O 	0.0579	0.6633	0.9203	-0.104
Mof_C 	C 	0.0801	0.577	0.9247	-2.68
Mof_H 	H 	0.099	0.5779	0.9526	0.821
Mof_H 	H 	0.0937	0.5708	0.8993	0.891
Mof_H 	H 	0.062	0.5274	0.9251	0.57
Mof_O 	O 	0.0229	0.8098	0.912	1.828
Mof_C 	C 	0.014	0.9032	0.901	-2.974
Mof_H 	H 	0.0203	0.9395	0.9282	0.89
Mof_H 	H 	0.9867	0.9096	0.888	0.646
Mof_H 	H 	0.0303	0.9234	0.8793	0.618
Mof_O 	O 	0.9577	0.869	0.7659	-0.227
Mof_C 	C 	0.9274	0.929	0.7859	-0.105
Mof_H 	H 	0.9403	0.9841	0.7987	0.173
Mof_H 	H 	0.9175	0.896	0.8092	0.119
Mof_H 	H 	0.9058	0.9453	0.762	0.075
Mof_O 	O 	0.8281	0.634	0.5866	-0.299
Mof_C 	C 	0.8488	0.601	0.5533	-0.251
Mof_H 	H 	0.8311	0.5981	0.5244	0.008
Mof_H 	H 	0.8589	0.5413	0.5617	-0.094
Mof_H 	H 	0.8704	0.6414	0.5508	0.066
Mof_O 	O 	0.8469	0.7834	0.6263	-0.208
Mof_C 	C 	0.851	0.855	0.5975	-0.004
Mof_H 	H 	0.8277	0.8914	0.5924	0.027
Mof_H 	H 	0.8563	0.8315	0.5688	0.015
Mof_H 	H 	0.8735	0.8922	0.6111	0.114
Mof_C 	C 	0.0147	0.038	0.7721	-0.244
Mof_H 	H 	0.0108	0.9845	0.7899	0.005
Mof_H 	H 	0.0416	0.0372	0.7659	0.136
Mof_C 	C 	0.008	0.124	0.7986	-0.343
Mof_H 	H 	0.0261	0.1238	0.8278	0.127
Mof_H 	H 	0.9812	0.1257	0.8041	0.308
Mof_C 	C 	0.0166	0.205	0.7705	0.003
Mof_H 	H 	0.0164	0.2609	0.7878	0.022
Mof_H 	H 	0.0422	0.1988	0.761	0.026
Mof_C 	C 	0.9067	0.71	0.7103	-0.946
Mof_C 	C 	0.9104	0.7914	0.6985	0.106
Mof_C 	C 	0.9338	0.859	0.7321	0.135
Mof_C 	C 	0.9488	0.824	0.7794	-0.186
Mof_C 	C 	0.9523	0.733	0.7831	0.792
Mof_O 	O 	0.9307	0.6771	0.7491	-0.971
Mof_C 	C 	0.9703	0.688	0.8175	-0.621
Mof_C 	C 	0.9969	0.74	0.8508	-0.766
Mof_C 	C 	0.9904	0.836	0.849	3.496
Mof_C 	C 	0.9741	0.881	0.8089	0.368
Mof_C 	C 	0.8841	0.6399	0.6821	-1.134
Mof_C 	C 	0.856	0.656	0.6457	-0.132
Mof_H 	H 	0.8523	0.7146	0.6333	-0.411
Mof_C 	C 	0.8318	0.5819	0.6262	-0.918
Mof_H 	H 	0.8087	0.5918	0.6051	0.14
Mof_C 	C 	0.844	0.4943	0.6399	0.84
Mof_C 	C 	0.8711	0.4829	0.6807	0.415
Mof_C 	C 	0.8962	0.553	0.6958	-0.003
Mof_H 	H 	0.9205	0.5426	0.7147	-0.172
Mof_O 	O 	0.9351	0.9414	0.7207	-0.209
Mof_O 	O 	0.9708	0.601	0.8162	0.504
Mof_C 	C 	0.9891	0.546	0.795	1.084
Mof_H 	H 	0.9823	0.485	0.8024	-0.394
Mof_H 	H 	0.0172	0.5553	0.8048	-0.3
Mof_H 	H 	0.982	0.5565	0.7631	-0.249
Mof_O 	O 	0.0179	0.709	0.8888	7.363
Mof_C 	C 	0.033	0.62	0.886	-6.077
Mof_H 	H 	0.048	0.6024	0.9153	2.57
Mof_H 	H 	0.0501	0.6181	0.8636	1.075
Mof_H 	H 	0.0115	0.5778	0.8776	0.583
Mof_O 	O 	0.819	0.4354	0.6306	-2.988
Mof_C 	C 	0.7921	0.438	0.588	-11.41
Mof_H 	H 	0.7743	0.3873	0.586	3.613
Mof_H 	H 	0.8069	0.4357	0.5634	2.335
Mof_H 	H 	0.7772	0.4941	0.5861	2.898
Mof_O 	O 	0.8786	0.4055	0.6994	-1.338
Mof_C 	C 	0.9208	0.399	0.7184	-1.164
Mof_H 	H 	0.9262	0.3401	0.7325	-0.064
Mof_H 	H 	0.9279	0.4458	0.7409	0.346
Mof_H 	H 	0.936	0.406	0.6944	0.403
Mof_O 	O 	0.8824	0.8434	0.6713	-0.11
Mof_C 	C 	0.8865	0.841	0.6247	-0.377
Mof_H 	H 	0.8663	0.878	0.6071	0.025
Mof_H 	H 	0.8838	0.779	0.6139	0.096
Mof_H 	H 	0.9122	0.8637	0.6216	0.23
Mof_O 	O 	0.0171	0.894	0.878	0.598
Mof_C 	C 	0.0564	0.865	0.878	-1.048
Mof_H 	H 	0.0745	0.9039	0.8974	0.212
Mof_H 	H 	0.062	0.8667	0.8476	0.317
Mof_H 	H 	0.0594	0.8032	0.8894	0.74
Mof_O 	O 	0.9724	0.956	0.8083	-0.549
Mof_C 	C 	0.985	0.035	0.7902	0.454
Mof_H 	H 	0.9734	0.0869	0.8025	-0.3
Mof_H 	H 	0.9773	0.0343	0.7576	-0.021
Mof_H 	H 	0.0136	0.039	0.7979	0.045
Mof_C 	C 	0.0521	0.724	0.732	-0.343
Mof_C 	C 	0.0617	0.801	0.7498	0.222
Mof_C 	C 	0.0941	0.8082	0.7922	0.076
Mof_C 	C 	0.1081	0.723	0.8172	0.537
Mof_C 	C 	0.0963	0.6434	0.7947	1.423
Mof_O 	O 	0.0682	0.6464	0.7548	0.727
Mof_C 	C 	0.1097	0.562	0.805	-0.183
Mof_C 	C 	0.1327	0.5524	0.8504	-0.049
Mof_C 	C 	0.1426	0.6347	0.874	0.745
Mof_C 	C 	0.1352	0.7236	0.8576	0.629
Mof_C 	C 	0.0244	0.703	0.6905	-0.049
Mof_C 	C 	0.006	0.6217	0.6859	-1.905
Mof_H 	H 	0.0114	0.5779	0.7088	-0.011
Mof_C 	C 	0.9787	0.6039	0.6461	3.946
Mof_H 	H 	0.9681	0.5455	0.6413	-1.006
Mof_C 	C 	0.9671	0.6704	0.6139	-1.446
Mof_C 	C 	0.9844	0.7577	0.6225	-8.814
Mof_C 	C 	0.014	0.7705	0.6589	3.786
Mof_H 	H 	0.0275	0.8259	0.6622	-3.415
Mof_O 	O 	0.0969	0.8861	0.8104	-0.164
Mof_O 	O 	0.0898	0.4917	0.7886	0.247
Mof_C 	C 	0.0942	0.424	0.7658	-0.859
Mof_H 	H 	0.0704	0.3875	0.7618	0.778
Mof_H 	H 	0.1161	0.3882	0.7814	1.344
Mof_H 	H 	0.0996	0.442	0.7365	0.161
Mof_O 	O 	0.1318	0.478	0.8745	-0.699
Mof_C 	C 	0.1671	0.428	0.8853	-0.465
Mof_H 	H 	0.1627	0.3753	0.9029	0.159
Mof_H 	H 	0.1873	0.4655	0.9027	4.899
Mof_H 	H 	0.1756	0.4089	0.8576	2.446
Mof_O 	O 	0.9421	0.6633	0.5797	-0.105
Mof_C 	C 	0.9199	0.577	0.5753	-2.679
Mof_H 	H 	0.901	0.5779	0.5474	0.82
Mof_H 	H 	0.9063	0.5708	0.6007	0.89
Mof_H 	H 	0.938	0.5274	0.5749	0.569
Mof_O 	O 	0.9771	0.8098	0.588	1.827
Mof_C 	C 	0.986	0.9032	0.599	-2.975
Mof_H 	H 	0.9797	0.9395	0.5718	0.891
Mof_H 	H 	0.0133	0.9096	0.612	0.647
Mof_H 	H 	0.9697	0.9234	0.6207	0.618
Mof_O 	O 	0.0423	0.869	0.7341	-0.226
Mof_C 	C 	0.0726	0.929	0.7141	-0.106
Mof_H 	H 	0.0597	0.9841	0.7013	0.173
Mof_H 	H 	0.0825	0.896	0.6908	0.119
Mof_H 	H 	0.0942	0.9453	0.738	0.076
Mof_O 	O 	0.1719	0.634	0.9134	-0.299
Mof_C 	C 	0.1512	0.601	0.9467	-0.251
Mof_H 	H 	0.1689	0.5981	0.9756	0.008
Mof_H 	H 	0.1411	0.5413	0.9383	-0.094
Mof_H 	H 	0.1296	0.6414	0.9492	0.066
Mof_O 	O 	0.1531	0.7834	0.8737	-0.208
Mof_C 	C 	0.149	0.855	0.9025	-0.003
Mof_H 	H 	0.1723	0.8914	0.9076	0.027
Mof_H 	H 	0.1437	0.8315	0.9312	0.015
Mof_H 	H 	0.1265	0.8922	0.8889	0.114
Mof_C 	C 	0.9853	0.038	0.7279	-0.252
Mof_H 	H 	0.9892	0.9845	0.7101	0.01
Mof_H 	H 	0.9584	0.0372	0.7341	0.14
Mof_C 	C 	0.992	0.124	0.7014	-0.321
Mof_H 	H 	0.9739	0.1238	0.6722	0.119
Mof_H 	H 	0.0188	0.1257	0.6959	0.29
Mof_C 	C 	0.9834	0.205	0.7295	-0.014
Mof_H 	H 	0.9836	0.2609	0.7122	0.027
Mof_H 	H 	0.9578	0.1988	0.739	0.03
Mof_C 	C 	0.0933	0.71	0.7897	-0.95
Mof_C 	C 	0.0896	0.7914	0.8015	0.107
Mof_C 	C 	0.0662	0.859	0.7679	0.134
Mof_C 	C 	0.0512	0.824	0.7206	-0.185
Mof_C 	C 	0.0477	0.733	0.7169	0.793
Mof_O 	O 	0.0693	0.6771	0.7509	-0.973
Mof_C 	C 	0.0297	0.688	0.6825	-0.623
Mof_C 	C 	0.0031	0.74	0.6492	-0.767
Mof_C 	C 	0.0096	0.836	0.651	3.496
Mof_C 	C 	0.0259	0.881	0.6911	0.363
Mof_C 	C 	0.1159	0.6399	0.8179	-1.137
Mof_C 	C 	0.144	0.656	0.8543	-0.134
Mof_H 	H 	0.1477	0.7146	0.8667	-0.412
Mof_C 	C 	0.1682	0.5819	0.8738	-0.92
Mof_H 	H 	0.1913	0.5918	0.8949	0.141
Mof_C 	C 	0.156	0.4943	0.8601	0.84
Mof_C 	C 	0.1289	0.4829	0.8193	0.415
Mof_C 	C 	0.1038	0.553	0.8042	-0.003
Mof_H 	H 	0.0795	0.5426	0.7853	-0.173
Mof_O 	O 	0.0649	0.9414	0.7793	-0.208
Mof_O 	O 	0.0292	0.601	0.6838	0.502
Mof_C 	C 	0.0109	0.546	0.705	1.081
Mof_H 	H 	0.0177	0.485	0.6976	-0.393
Mof_H 	H 	0.9828	0.5553	0.6952	-0.3
Mof_H 	H 	0.018	0.5565	0.7369	-0.248
Mof_O 	O 	0.9821	0.709	0.6112	7.36
Mof_C 	C 	0.967	0.62	0.614	-6.074
Mof_H 	H 	0.952	0.6024	0.5847	2.568
Mof_H 	H 	0.9499	0.6181	0.6364	1.076
Mof_H 	H 	0.9885	0.5778	0.6224	0.584
Mof_O 	O 	0.181	0.4354	0.8694	-2.989
Mof_C 	C 	0.2079	0.438	0.912	-11.412
Mof_H 	H 	0.2257	0.3873	0.914	3.614
Mof_H 	H 	0.1931	0.4357	0.9366	2.336
Mof_H 	H 	0.2228	0.4941	0.9139	2.898
Mof_O 	O 	0.1214	0.4055	0.8006	-1.338
Mof_C 	C 	0.0792	0.399	0.7816	-1.165
Mof_H 	H 	0.0738	0.3401	0.7675	-0.064
Mof_H 	H 	0.0721	0.4458	0.7591	0.346
Mof_H 	H 	0.064	0.406	0.8056	0.404
Mof_O 	O 	0.1176	0.8434	0.8287	-0.11
Mof_C 	C 	0.1135	0.841	0.8753	-0.376
Mof_H 	H 	0.1337	0.878	0.8929	0.025
Mof_H 	H 	0.1162	0.779	0.8861	0.095
Mof_H 	H 	0.0878	0.8637	0.8784	0.23
Mof_O 	O 	0.9829	0.894	0.622	0.597
Mof_C 	C 	0.9436	0.865	0.622	-1.048
Mof_H 	H 	0.9255	0.9039	0.6026	0.212
Mof_H 	H 	0.938	0.8667	0.6524	0.317
Mof_H 	H 	0.9406	0.8032	0.6106	0.74
Mof_O 	O 	0.0276	0.956	0.6917	-0.541
Mof_C 	C 	0.015	0.035	0.7098	0.423
Mof_H 	H 	0.0266	0.0869	0.6975	-0.279
Mof_H 	H 	0.0227	0.0343	0.7424	-0.01
Mof_H 	H 	0.9864	0.039	0.7021	0.052
_end
