# CIF file generated by openbabel 3.1.0, see https://openbabel.org
data_I
_chemical_name_common 'image0'
_cell_length_a 9.7284
_cell_length_b 10.4717
_cell_length_c 16.4594
_cell_angle_alpha 90
_cell_angle_beta 112.511
_cell_angle_gamma 90
_space_group_name_H-M_alt 'P 1'
_space_group_name_Hall 'P 1'
loop_
    _symmetry_equiv_pos_as_xyz
    x,y,z
loop_
    _atom_site_label
    _atom_site_type_symbol
    _atom_site_fract_x
    _atom_site_fract_y
    _atom_site_fract_z
    _atom_site_occupancy
    C1       C        0.67840    0.05730    0.96910    1.000
    H1       H        0.60870    0.11400    0.93230    1.000
    C2       C        0.64340    0.92980    0.96990    1.000
    H2       H        0.54990    0.89990    0.93370    1.000
    C3       C        0.74640    0.84840    0.02380    1.000
    H3       H        0.72370    0.76240    0.02500    1.000
    C4       C        0.88530    0.89340    0.07700    1.000
    H4       H        0.95560    0.83720    0.11390    1.000
    C5       C        0.92070    0.02060    0.07600    1.000
    C6       C        0.06770    0.07560    0.12970    1.000
    H5       H        0.09290    0.13970    0.09510    1.000
    H6       H        0.14210    0.00870    0.14360    1.000
    C7       C        0.92840    0.96830    0.46730    1.000
    C8       C        0.51770    0.93870    0.52740    1.000
    Tb1      Tb       0.17873    0.89252    0.39314    1.000
    N1       N        0.81460    0.09940    0.02220    1.000
    O1       O        0.06000    0.04520    0.29084    1.000
    O2       O        0.23490    0.20920    0.27100    1.000
    H7       H        0.28670    0.16910    0.31480    1.000
    O3       O        0.95960    0.25010    0.20993    1.000
    O4       O        0.84580    0.22210    0.01776    1.000
    O5       O        0.81430    0.97980    0.48470    1.000
    O6       O        0.93740    0.91230    0.40331    1.000
    O7       O        0.42380    0.85130    0.50520    1.000
    O8       O        0.64070    0.93670    0.59170    1.000
    P1       P        0.07489    0.14779    0.23106    1.000
    C9       C        0.32160    0.55730    0.53090    1.000
    H8       H        0.39130    0.61400    0.56770    1.000
    C10      C        0.35660    0.42980    0.53010    1.000
    H9       H        0.45010    0.39990    0.56630    1.000
    C11      C        0.25360    0.34840    0.47620    1.000
    H10      H        0.27630    0.26240    0.47500    1.000
    C12      C        0.11470    0.39340    0.42300    1.000
    H11      H        0.04440    0.33720    0.38610    1.000
    C13      C        0.07930    0.52060    0.42400    1.000
    C14      C        0.93230    0.57560    0.37030    1.000
    H12      H        0.90710    0.63970    0.40490    1.000
    H13      H        0.85790    0.50870    0.35640    1.000
    C15      C        0.07160    0.46830    0.03270    1.000
    C16      C        0.48230    0.43870    0.97260    1.000
    Tb2      Tb       0.82127    0.39252    0.10686    1.000
    N2       N        0.18540    0.59940    0.47780    1.000
    O9       O        0.94000    0.54520    0.20916    1.000
    O10      O        0.76510    0.70920    0.22900    1.000
    H14      H        0.71330    0.66910    0.18520    1.000
    O11      O        0.04040    0.75010    0.29007    1.000
    O12      O        0.15420    0.72210    0.48224    1.000
    O13      O        0.18570    0.47980    0.01530    1.000
    O14      O        0.06260    0.41230    0.09669    1.000
    O15      O        0.57620    0.35130    0.99480    1.000
    O16      O        0.35930    0.43670    0.90830    1.000
    P2       P        0.92511    0.64779    0.26894    1.000
    C17      C        0.32160    0.94270    0.03090    1.000
    H15      H        0.39130    0.88600    0.06770    1.000
    C18      C        0.35660    0.07020    0.03010    1.000
    H16      H        0.45010    0.10010    0.06630    1.000
    C19      C        0.25360    0.15160    0.97620    1.000
    H17      H        0.27630    0.23760    0.97500    1.000
    C20      C        0.11470    0.10660    0.92300    1.000
    H18      H        0.04440    0.16280    0.88610    1.000
    C21      C        0.07930    0.97940    0.92400    1.000
    C22      C        0.93230    0.92440    0.87030    1.000
    H19      H        0.90710    0.86030    0.90490    1.000
    H20      H        0.85790    0.99130    0.85640    1.000
    C23      C        0.07160    0.03170    0.53270    1.000
    C24      C        0.48230    0.06130    0.47260    1.000
    Tb3      Tb       0.82127    0.10748    0.60686    1.000
    N3       N        0.18540    0.90060    0.97780    1.000
    O17      O        0.94000    0.95480    0.70916    1.000
    O18      O        0.76510    0.79080    0.72900    1.000
    H21      H        0.71330    0.83090    0.68520    1.000
    O19      O        0.04040    0.74990    0.79007    1.000
    O20      O        0.15420    0.77790    0.98224    1.000
    O21      O        0.18570    0.02020    0.51530    1.000
    O22      O        0.06260    0.08770    0.59669    1.000
    O23      O        0.57620    0.14870    0.49480    1.000
    O24      O        0.35930    0.06330    0.40830    1.000
    P3       P        0.92511    0.85221    0.76894    1.000
    C25      C        0.67840    0.44270    0.46910    1.000
    H22      H        0.60870    0.38600    0.43230    1.000
    C26      C        0.64340    0.57020    0.46990    1.000
    H23      H        0.54990    0.60010    0.43370    1.000
    C27      C        0.74640    0.65160    0.52380    1.000
    H24      H        0.72370    0.73760    0.52500    1.000
    C28      C        0.88530    0.60660    0.57700    1.000
    H25      H        0.95560    0.66280    0.61390    1.000
    C29      C        0.92070    0.47940    0.57600    1.000
    C30      C        0.06770    0.42440    0.62970    1.000
    H26      H        0.09290    0.36030    0.59510    1.000
    H27      H        0.14210    0.49130    0.64360    1.000
    C31      C        0.92840    0.53170    0.96730    1.000
    C32      C        0.51770    0.56130    0.02740    1.000
    Tb4      Tb       0.17873    0.60748    0.89314    1.000
    N4       N        0.81460    0.40060    0.52220    1.000
    O25      O        0.06000    0.45480    0.79084    1.000
    O26      O        0.23490    0.29080    0.77100    1.000
    H28      H        0.28670    0.33090    0.81480    1.000
    O27      O        0.95960    0.24990    0.70993    1.000
    O28      O        0.84580    0.27790    0.51776    1.000
    O29      O        0.81430    0.52020    0.98470    1.000
    O30      O        0.93740    0.58770    0.90331    1.000
    O31      O        0.42380    0.64870    0.00520    1.000
    O32      O        0.64070    0.56330    0.09170    1.000
    P4       P        0.07489    0.35221    0.73106    1.000
