data_functionalizedCrystal
_audit_creation_method	'EQeq! by Chris Wilmer'
_symmetry_space_group_name_H-M	'P1'
_symmetry_Int_Tables_number	1
_symmetry_cell_setting	triclinic
loop_
_symmetry_equiv_pos_as_xyz
  x,y,z
_cell_length_a	32.0941
_cell_length_b	32.0941
_cell_length_c	32.0941
_cell_angle_alpha	90
_cell_angle_beta	90
_cell_angle_gamma	90
loop_
_atom_site_label
_atom_site_type_symbol
_atom_site_fract_x
_atom_site_fract_y
_atom_site_fract_z
_atom_site_charge
Mof_O 	O 	0.8965	0.5175	0.4962	-0.188
Mof_O 	O 	0.91371	0.48141	0.44098	-0.198
Mof_C 	C 	0.7876	0.40476	0.4909	0.113
Mof_C 	C 	0.7964	0.436	0.5194	-0.143
Mof_H 	H 	0.7798	0.4388	0.5437	0.091
Mof_C 	C 	0.8548	0.4577	0.4785	-0.09
Mof_C 	C 	0.8287	0.4626	0.5128	0.056
Mof_H 	H 	0.8334	0.4849	0.5317	0.041
Mof_C 	C 	0.8446	0.427	0.451	0.064
Mof_H 	H 	0.8604	0.4247	0.4261	0.039
Mof_C 	C 	0.8917	0.4879	0.4709	0.31
Mof_C 	C 	0.8135	0.3999	0.4572	-0.147
Mof_H 	H 	0.8094	0.3774	0.4383	0.093
Mof_O 	O 	0.3965	0.0175	0.9962	-0.187
Mof_O 	O 	0.41371	0.98141	0.94098	-0.198
Mof_C 	C 	0.2876	0.90476	0.9909	0.11
Mof_C 	C 	0.2964	0.936	0.0194	-0.141
Mof_H 	H 	0.2798	0.9388	0.0437	0.091
Mof_C 	C 	0.3548	0.9577	0.9785	-0.09
Mof_C 	C 	0.3287	0.9626	0.0128	0.056
Mof_H 	H 	0.3334	0.9849	0.0317	0.041
Mof_C 	C 	0.3446	0.927	0.951	0.063
Mof_H 	H 	0.3604	0.9247	0.9261	0.039
Mof_C 	C 	0.3917	0.9879	0.9709	0.309
Mof_C 	C 	0.3135	0.8999	0.9572	-0.146
Mof_H 	H 	0.3094	0.8774	0.9383	0.093
Mof_O 	O 	0.6035	0.4825	0.9962	-0.188
Mof_O 	O 	0.58629	0.51859	0.94098	-0.199
Mof_C 	C 	0.7124	0.59524	0.9909	0.109
Mof_C 	C 	0.7036	0.564	0.0194	-0.142
Mof_H 	H 	0.7202	0.5612	0.0437	0.09
Mof_C 	C 	0.6452	0.5423	0.9785	-0.091
Mof_C 	C 	0.6713	0.5374	0.0128	0.055
Mof_H 	H 	0.6666	0.5151	0.0317	0.04
Mof_C 	C 	0.6554	0.573	0.951	0.063
Mof_H 	H 	0.6396	0.5753	0.9261	0.038
Mof_C 	C 	0.6083	0.5121	0.9709	0.309
Mof_C 	C 	0.6865	0.6001	0.9572	-0.147
Mof_H 	H 	0.6906	0.6226	0.9383	0.092
Mof_O 	O 	0.1035	0.9825	0.4962	-0.19
Mof_O 	O 	0.08629	0.01859	0.44098	-0.199
Mof_C 	C 	0.2124	0.09524	0.4909	0.112
Mof_C 	C 	0.2036	0.064	0.5194	-0.144
Mof_H 	H 	0.2202	0.0612	0.5437	0.09
Mof_C 	C 	0.1452	0.0423	0.4785	-0.091
Mof_C 	C 	0.1713	0.0374	0.5128	0.055
Mof_H 	H 	0.1666	0.0151	0.5317	0.04
Mof_C 	C 	0.1554	0.073	0.451	0.063
Mof_H 	H 	0.1396	0.0753	0.4261	0.038
Mof_C 	C 	0.1083	0.0121	0.4709	0.31
Mof_C 	C 	0.1865	0.1001	0.4572	-0.149
Mof_H 	H 	0.1906	0.1226	0.4383	0.092
Mof_O 	O 	0.1035	0.0175	0.0038	-0.187
Mof_O 	O 	0.08629	0.98141	0.05902	-0.199
Mof_C 	C 	0.2124	0.90476	0.0091	0.112
Mof_C 	C 	0.2036	0.936	0.9806	-0.144
Mof_H 	H 	0.2202	0.9388	0.9563	0.09
Mof_C 	C 	0.1452	0.9577	0.0215	-0.089
Mof_C 	C 	0.1713	0.9626	0.9872	0.053
Mof_H 	H 	0.1666	0.9849	0.9683	0.04
Mof_C 	C 	0.1554	0.927	0.049	0.062
Mof_H 	H 	0.1396	0.9247	0.0739	0.038
Mof_C 	C 	0.1083	0.9879	0.0291	0.308
Mof_C 	C 	0.1865	0.8999	0.0428	-0.148
Mof_H 	H 	0.1906	0.8774	0.0617	0.092
Mof_O 	O 	0.6035	0.5175	0.5038	-0.189
Mof_O 	O 	0.58629	0.48141	0.55902	-0.199
Mof_C 	C 	0.7124	0.40476	0.5091	0.112
Mof_C 	C 	0.7036	0.436	0.4806	-0.144
Mof_H 	H 	0.7202	0.4388	0.4563	0.09
Mof_C 	C 	0.6452	0.4577	0.5215	-0.091
Mof_C 	C 	0.6713	0.4626	0.4872	0.055
Mof_H 	H 	0.6666	0.4849	0.4683	0.04
Mof_C 	C 	0.6554	0.427	0.549	0.063
Mof_H 	H 	0.6396	0.4247	0.5739	0.038
Mof_C 	C 	0.6083	0.4879	0.5291	0.309
Mof_C 	C 	0.6865	0.3999	0.5428	-0.148
Mof_H 	H 	0.6906	0.3774	0.5617	0.092
Mof_O 	O 	0.3965	0.9825	0.5038	-0.19
Mof_O 	O 	0.41371	0.01859	0.55902	-0.199
Mof_C 	C 	0.2876	0.09524	0.5091	0.112
Mof_C 	C 	0.2964	0.064	0.4806	-0.144
Mof_H 	H 	0.2798	0.0612	0.4563	0.09
Mof_C 	C 	0.3548	0.0423	0.5215	-0.091
Mof_C 	C 	0.3287	0.0374	0.4872	0.055
Mof_H 	H 	0.3334	0.0151	0.4683	0.04
Mof_C 	C 	0.3446	0.073	0.549	0.063
Mof_H 	H 	0.3604	0.0753	0.5739	0.038
Mof_C 	C 	0.3917	0.0121	0.5291	0.31
Mof_C 	C 	0.3135	0.1001	0.5428	-0.149
Mof_H 	H 	0.3094	0.1226	0.5617	0.092
Mof_O 	O 	0.8965	0.4825	0.0038	-0.189
Mof_O 	O 	0.91371	0.51859	0.05902	-0.199
Mof_C 	C 	0.7876	0.59524	0.0091	0.112
Mof_C 	C 	0.7964	0.564	0.9806	-0.144
Mof_H 	H 	0.7798	0.5612	0.9563	0.09
Mof_C 	C 	0.8548	0.5423	0.0215	-0.09
Mof_C 	C 	0.8287	0.5374	0.9872	0.053
Mof_H 	H 	0.8334	0.5151	0.9683	0.04
Mof_C 	C 	0.8446	0.573	0.049	0.063
Mof_H 	H 	0.8604	0.5753	0.0739	0.038
Mof_C 	C 	0.8917	0.5121	0.0291	0.309
Mof_C 	C 	0.8135	0.6001	0.0428	-0.148
Mof_H 	H 	0.8094	0.6226	0.0617	0.092
Mof_O 	O 	0.4962	0.8965	0.5175	-0.189
Mof_O 	O 	0.44098	0.91371	0.48141	-0.199
Mof_C 	C 	0.4909	0.7876	0.40476	0.112
Mof_C 	C 	0.5194	0.7964	0.436	-0.144
Mof_H 	H 	0.5437	0.7798	0.4388	0.09
Mof_C 	C 	0.4785	0.8548	0.4577	-0.091
Mof_C 	C 	0.5128	0.8287	0.4626	0.055
Mof_H 	H 	0.5317	0.8334	0.4849	0.04
Mof_C 	C 	0.451	0.8446	0.427	0.063
Mof_H 	H 	0.4261	0.8604	0.4247	0.038
Mof_C 	C 	0.4709	0.8917	0.4879	0.309
Mof_C 	C 	0.4572	0.8135	0.3999	-0.148
Mof_H 	H 	0.4383	0.8094	0.3774	0.092
Mof_O 	O 	0.9962	0.3965	0.0175	-0.188
Mof_O 	O 	0.94098	0.41371	0.98141	-0.199
Mof_C 	C 	0.9909	0.2876	0.90476	0.109
Mof_C 	C 	0.0194	0.2964	0.936	-0.142
Mof_H 	H 	0.0437	0.2798	0.9388	0.09
Mof_C 	C 	0.9785	0.3548	0.9577	-0.091
Mof_C 	C 	0.0128	0.3287	0.9626	0.055
Mof_H 	H 	0.0317	0.3334	0.9849	0.04
Mof_C 	C 	0.951	0.3446	0.927	0.062
Mof_H 	H 	0.9261	0.3604	0.9247	0.038
Mof_C 	C 	0.9709	0.3917	0.9879	0.308
Mof_C 	C 	0.9572	0.3135	0.8999	-0.147
Mof_H 	H 	0.9383	0.3094	0.8774	0.092
Mof_O 	O 	0.9962	0.6035	0.4825	-0.189
Mof_O 	O 	0.94098	0.58629	0.51859	-0.199
Mof_C 	C 	0.9909	0.7124	0.59524	0.109
Mof_C 	C 	0.0194	0.7036	0.564	-0.142
Mof_H 	H 	0.0437	0.7202	0.5612	0.09
Mof_C 	C 	0.9785	0.6452	0.5423	-0.091
Mof_C 	C 	0.0128	0.6713	0.5374	0.055
Mof_H 	H 	0.0317	0.6666	0.5151	0.04
Mof_C 	C 	0.951	0.6554	0.573	0.063
Mof_H 	H 	0.9261	0.6396	0.5753	0.038
Mof_C 	C 	0.9709	0.6083	0.5121	0.309
Mof_C 	C 	0.9572	0.6865	0.6001	-0.147
Mof_H 	H 	0.9383	0.6906	0.6226	0.092
Mof_O 	O 	0.4962	0.1035	0.9825	-0.19
Mof_O 	O 	0.44098	0.08629	0.01859	-0.199
Mof_C 	C 	0.4909	0.2124	0.09524	0.112
Mof_C 	C 	0.5194	0.2036	0.064	-0.144
Mof_H 	H 	0.5437	0.2202	0.0612	0.09
Mof_C 	C 	0.4785	0.1452	0.0423	-0.091
Mof_C 	C 	0.5128	0.1713	0.0374	0.055
Mof_H 	H 	0.5317	0.1666	0.0151	0.04
Mof_C 	C 	0.451	0.1554	0.073	0.063
Mof_H 	H 	0.4261	0.1396	0.0753	0.038
Mof_C 	C 	0.4709	0.1083	0.0121	0.31
Mof_C 	C 	0.4572	0.1865	0.1001	-0.149
Mof_H 	H 	0.4383	0.1906	0.1226	0.092
Mof_O 	O 	0.0038	0.1035	0.0175	-0.187
Mof_O 	O 	0.05902	0.08629	0.98141	-0.199
Mof_C 	C 	0.0091	0.2124	0.90476	0.112
Mof_C 	C 	0.9806	0.2036	0.936	-0.144
Mof_H 	H 	0.9563	0.2202	0.9388	0.09
Mof_C 	C 	0.0215	0.1452	0.9577	-0.089
Mof_C 	C 	0.9872	0.1713	0.9626	0.053
Mof_H 	H 	0.9683	0.1666	0.9849	0.04
Mof_C 	C 	0.049	0.1554	0.927	0.062
Mof_H 	H 	0.0739	0.1396	0.9247	0.038
Mof_C 	C 	0.0291	0.1083	0.9879	0.308
Mof_C 	C 	0.0428	0.1865	0.8999	-0.148
Mof_H 	H 	0.0617	0.1906	0.8774	0.092
Mof_O 	O 	0.5038	0.6035	0.5175	-0.189
Mof_O 	O 	0.55902	0.58629	0.48141	-0.199
Mof_C 	C 	0.5091	0.7124	0.40476	0.112
Mof_C 	C 	0.4806	0.7036	0.436	-0.144
Mof_H 	H 	0.4563	0.7202	0.4388	0.09
Mof_C 	C 	0.5215	0.6452	0.4577	-0.091
Mof_C 	C 	0.4872	0.6713	0.4626	0.055
Mof_H 	H 	0.4683	0.6666	0.4849	0.04
Mof_C 	C 	0.549	0.6554	0.427	0.063
Mof_H 	H 	0.5739	0.6396	0.4247	0.038
Mof_C 	C 	0.5291	0.6083	0.4879	0.309
Mof_C 	C 	0.5428	0.6865	0.3999	-0.148
Mof_H 	H 	0.5617	0.6906	0.3774	0.092
Mof_O 	O 	0.5038	0.3965	0.9825	-0.19
Mof_O 	O 	0.55902	0.41371	0.01859	-0.199
Mof_C 	C 	0.5091	0.2876	0.09524	0.112
Mof_C 	C 	0.4806	0.2964	0.064	-0.144
Mof_H 	H 	0.4563	0.2798	0.0612	0.09
Mof_C 	C 	0.5215	0.3548	0.0423	-0.091
Mof_C 	C 	0.4872	0.3287	0.0374	0.055
Mof_H 	H 	0.4683	0.3334	0.0151	0.04
Mof_C 	C 	0.549	0.3446	0.073	0.063
Mof_H 	H 	0.5739	0.3604	0.0753	0.038
Mof_C 	C 	0.5291	0.3917	0.0121	0.31
Mof_C 	C 	0.5428	0.3135	0.1001	-0.149
Mof_H 	H 	0.5617	0.3094	0.1226	0.092
Mof_O 	O 	0.0038	0.8965	0.4825	-0.189
Mof_O 	O 	0.05902	0.91371	0.51859	-0.199
Mof_C 	C 	0.0091	0.7876	0.59524	0.112
Mof_C 	C 	0.9806	0.7964	0.564	-0.144
Mof_H 	H 	0.9563	0.7798	0.5612	0.09
Mof_C 	C 	0.0215	0.8548	0.5423	-0.09
Mof_C 	C 	0.9872	0.8287	0.5374	0.053
Mof_H 	H 	0.9683	0.8334	0.5151	0.04
Mof_C 	C 	0.049	0.8446	0.573	0.063
Mof_H 	H 	0.0739	0.8604	0.5753	0.038
Mof_C 	C 	0.0291	0.8917	0.5121	0.309
Mof_C 	C 	0.0428	0.8135	0.6001	-0.148
Mof_H 	H 	0.0617	0.8094	0.6226	0.092
Mof_O 	O 	0.5175	0.4962	0.8965	-0.189
Mof_O 	O 	0.48141	0.44098	0.91371	-0.199
Mof_C 	C 	0.40476	0.4909	0.7876	0.112
Mof_C 	C 	0.436	0.5194	0.7964	-0.144
Mof_H 	H 	0.4388	0.5437	0.7798	0.09
Mof_C 	C 	0.4577	0.4785	0.8548	-0.091
Mof_C 	C 	0.4626	0.5128	0.8287	0.055
Mof_H 	H 	0.4849	0.5317	0.8334	0.04
Mof_C 	C 	0.427	0.451	0.8446	0.063
Mof_H 	H 	0.4247	0.4261	0.8604	0.038
Mof_C 	C 	0.4879	0.4709	0.8917	0.309
Mof_C 	C 	0.3999	0.4572	0.8135	-0.148
Mof_H 	H 	0.3774	0.4383	0.8094	0.092
Mof_O 	O 	0.0175	0.9962	0.3965	-0.188
Mof_O 	O 	0.98141	0.94098	0.41371	-0.199
Mof_C 	C 	0.90476	0.9909	0.2876	0.109
Mof_C 	C 	0.936	0.0194	0.2964	-0.142
Mof_H 	H 	0.9388	0.0437	0.2798	0.09
Mof_C 	C 	0.9577	0.9785	0.3548	-0.091
Mof_C 	C 	0.9626	0.0128	0.3287	0.055
Mof_H 	H 	0.9849	0.0317	0.3334	0.04
Mof_C 	C 	0.927	0.951	0.3446	0.062
Mof_H 	H 	0.9247	0.9261	0.3604	0.038
Mof_C 	C 	0.9879	0.9709	0.3917	0.308
Mof_C 	C 	0.8999	0.9572	0.3135	-0.147
Mof_H 	H 	0.8774	0.9383	0.3094	0.092
Mof_O 	O 	0.4825	0.9962	0.6035	-0.189
Mof_O 	O 	0.51859	0.94098	0.58629	-0.199
Mof_C 	C 	0.59524	0.9909	0.7124	0.109
Mof_C 	C 	0.564	0.0194	0.7036	-0.142
Mof_H 	H 	0.5612	0.0437	0.7202	0.09
Mof_C 	C 	0.5423	0.9785	0.6452	-0.091
Mof_C 	C 	0.5374	0.0128	0.6713	0.055
Mof_H 	H 	0.5151	0.0317	0.6666	0.04
Mof_C 	C 	0.573	0.951	0.6554	0.063
Mof_H 	H 	0.5753	0.9261	0.6396	0.038
Mof_C 	C 	0.5121	0.9709	0.6083	0.309
Mof_C 	C 	0.6001	0.9572	0.6865	-0.147
Mof_H 	H 	0.6226	0.9383	0.6906	0.092
Mof_O 	O 	0.9825	0.4962	0.1035	-0.19
Mof_O 	O 	0.01859	0.44098	0.08629	-0.199
Mof_C 	C 	0.09524	0.4909	0.2124	0.112
Mof_C 	C 	0.064	0.5194	0.2036	-0.144
Mof_H 	H 	0.0612	0.5437	0.2202	0.09
Mof_C 	C 	0.0423	0.4785	0.1452	-0.091
Mof_C 	C 	0.0374	0.5128	0.1713	0.055
Mof_H 	H 	0.0151	0.5317	0.1666	0.04
Mof_C 	C 	0.073	0.451	0.1554	0.063
Mof_H 	H 	0.0753	0.4261	0.1396	0.038
Mof_C 	C 	0.0121	0.4709	0.1083	0.31
Mof_C 	C 	0.1001	0.4572	0.1865	-0.149
Mof_H 	H 	0.1226	0.4383	0.1906	0.092
Mof_O 	O 	0.0175	0.0038	0.1035	-0.187
Mof_O 	O 	0.98141	0.05902	0.08629	-0.199
Mof_C 	C 	0.90476	0.0091	0.2124	0.112
Mof_C 	C 	0.936	0.9806	0.2036	-0.144
Mof_H 	H 	0.9388	0.9563	0.2202	0.09
Mof_C 	C 	0.9577	0.0215	0.1452	-0.089
Mof_C 	C 	0.9626	0.9872	0.1713	0.053
Mof_H 	H 	0.9849	0.9683	0.1666	0.04
Mof_C 	C 	0.927	0.049	0.1554	0.062
Mof_H 	H 	0.9247	0.0739	0.1396	0.038
Mof_C 	C 	0.9879	0.0291	0.1083	0.308
Mof_C 	C 	0.8999	0.0428	0.1865	-0.148
Mof_H 	H 	0.8774	0.0617	0.1906	0.092
Mof_O 	O 	0.5175	0.5038	0.6035	-0.189
Mof_O 	O 	0.48141	0.55902	0.58629	-0.199
Mof_C 	C 	0.40476	0.5091	0.7124	0.112
Mof_C 	C 	0.436	0.4806	0.7036	-0.144
Mof_H 	H 	0.4388	0.4563	0.7202	0.09
Mof_C 	C 	0.4577	0.5215	0.6452	-0.091
Mof_C 	C 	0.4626	0.4872	0.6713	0.055
Mof_H 	H 	0.4849	0.4683	0.6666	0.04
Mof_C 	C 	0.427	0.549	0.6554	0.063
Mof_H 	H 	0.4247	0.5739	0.6396	0.038
Mof_C 	C 	0.4879	0.5291	0.6083	0.309
Mof_C 	C 	0.3999	0.5428	0.6865	-0.148
Mof_H 	H 	0.3774	0.5617	0.6906	0.092
Mof_O 	O 	0.9825	0.5038	0.3965	-0.19
Mof_O 	O 	0.01859	0.55902	0.41371	-0.199
Mof_C 	C 	0.09524	0.5091	0.2876	0.112
Mof_C 	C 	0.064	0.4806	0.2964	-0.144
Mof_H 	H 	0.0612	0.4563	0.2798	0.09
Mof_C 	C 	0.0423	0.5215	0.3548	-0.091
Mof_C 	C 	0.0374	0.4872	0.3287	0.055
Mof_H 	H 	0.0151	0.4683	0.3334	0.04
Mof_C 	C 	0.073	0.549	0.3446	0.063
Mof_H 	H 	0.0753	0.5739	0.3604	0.038
Mof_C 	C 	0.0121	0.5291	0.3917	0.31
Mof_C 	C 	0.1001	0.5428	0.3135	-0.149
Mof_H 	H 	0.1226	0.5617	0.3094	0.092
Mof_O 	O 	0.4825	0.0038	0.8965	-0.189
Mof_O 	O 	0.51859	0.05902	0.91371	-0.199
Mof_C 	C 	0.59524	0.0091	0.7876	0.112
Mof_C 	C 	0.564	0.9806	0.7964	-0.144
Mof_H 	H 	0.5612	0.9563	0.7798	0.09
Mof_C 	C 	0.5423	0.0215	0.8548	-0.09
Mof_C 	C 	0.5374	0.9872	0.8287	0.053
Mof_H 	H 	0.5151	0.9683	0.8334	0.04
Mof_C 	C 	0.573	0.049	0.8446	0.063
Mof_H 	H 	0.5753	0.0739	0.8604	0.038
Mof_C 	C 	0.5121	0.0291	0.8917	0.309
Mof_C 	C 	0.6001	0.0428	0.8135	-0.148
Mof_H 	H 	0.6226	0.0617	0.8094	0.092
Mof_O 	O 	0.7675	0.1465	0.7462	-0.189
Mof_O 	O 	0.73141	0.16371	0.69098	-0.199
Mof_C 	C 	0.65476	0.0376	0.7409	0.111
Mof_C 	C 	0.686	0.0464	0.7694	-0.143
Mof_H 	H 	0.6888	0.0298	0.7937	0.09
Mof_C 	C 	0.7077	0.1048	0.7285	-0.091
Mof_C 	C 	0.7126	0.0787	0.7628	0.054
Mof_H 	H 	0.7349	0.0834	0.7817	0.04
Mof_C 	C 	0.677	0.0946	0.701	0.063
Mof_H 	H 	0.6747	0.1104	0.6761	0.038
Mof_C 	C 	0.7379	0.1417	0.7209	0.309
Mof_C 	C 	0.6499	0.0635	0.7072	-0.148
Mof_H 	H 	0.6274	0.0594	0.6883	0.092
Mof_O 	O 	0.2675	0.6465	0.2462	-0.189
Mof_O 	O 	0.23141	0.66371	0.19098	-0.199
Mof_C 	C 	0.15476	0.5376	0.2409	0.112
Mof_C 	C 	0.186	0.5464	0.2694	-0.144
Mof_H 	H 	0.1888	0.5298	0.2937	0.09
Mof_C 	C 	0.2077	0.6048	0.2285	-0.091
Mof_C 	C 	0.2126	0.5787	0.2628	0.055
Mof_H 	H 	0.2349	0.5834	0.2817	0.04
Mof_C 	C 	0.177	0.5946	0.201	0.063
Mof_H 	H 	0.1747	0.6104	0.1761	0.038
Mof_C 	C 	0.2379	0.6417	0.2209	0.309
Mof_C 	C 	0.1499	0.5635	0.2072	-0.148
Mof_H 	H 	0.1274	0.5594	0.1883	0.092
Mof_O 	O 	0.7325	0.8535	0.2462	-0.189
Mof_O 	O 	0.76859	0.83629	0.19098	-0.199
Mof_C 	C 	0.84524	0.9624	0.2409	0.11
Mof_C 	C 	0.814	0.9536	0.2694	-0.143
Mof_H 	H 	0.8112	0.9702	0.2937	0.09
Mof_C 	C 	0.7923	0.8952	0.2285	-0.09
Mof_C 	C 	0.7874	0.9213	0.2628	0.054
Mof_H 	H 	0.7651	0.9166	0.2817	0.04
Mof_C 	C 	0.823	0.9054	0.201	0.062
Mof_H 	H 	0.8253	0.8896	0.1761	0.038
Mof_C 	C 	0.7621	0.8583	0.2209	0.309
Mof_C 	C 	0.8501	0.9365	0.2072	-0.147
Mof_H 	H 	0.8726	0.9406	0.1883	0.092
Mof_O 	O 	0.2325	0.3535	0.7462	-0.189
Mof_O 	O 	0.26859	0.33629	0.69098	-0.199
Mof_C 	C 	0.34524	0.4624	0.7409	0.112
Mof_C 	C 	0.314	0.4536	0.7694	-0.144
Mof_H 	H 	0.3112	0.4702	0.7937	0.09
Mof_C 	C 	0.2923	0.3952	0.7285	-0.091
Mof_C 	C 	0.2874	0.4213	0.7628	0.055
Mof_H 	H 	0.2651	0.4166	0.7817	0.04
Mof_C 	C 	0.323	0.4054	0.701	0.063
Mof_H 	H 	0.3253	0.3896	0.6761	0.038
Mof_C 	C 	0.2621	0.3583	0.7209	0.309
Mof_C 	C 	0.3501	0.4365	0.7072	-0.148
Mof_H 	H 	0.3726	0.4406	0.6883	0.092
Mof_O 	O 	0.2675	0.3535	0.2538	-0.189
Mof_O 	O 	0.23141	0.33629	0.30902	-0.199
Mof_C 	C 	0.15476	0.4624	0.2591	0.112
Mof_C 	C 	0.186	0.4536	0.2306	-0.144
Mof_H 	H 	0.1888	0.4702	0.2063	0.09
Mof_C 	C 	0.2077	0.3952	0.2715	-0.091
Mof_C 	C 	0.2126	0.4213	0.2372	0.055
Mof_H 	H 	0.2349	0.4166	0.2183	0.04
Mof_C 	C 	0.177	0.4054	0.299	0.063
Mof_H 	H 	0.1747	0.3896	0.3239	0.038
Mof_C 	C 	0.2379	0.3583	0.2791	0.309
Mof_C 	C 	0.1499	0.4365	0.2928	-0.148
Mof_H 	H 	0.1274	0.4406	0.3117	0.092
Mof_O 	O 	0.7675	0.8535	0.7538	-0.189
Mof_O 	O 	0.73141	0.83629	0.80902	-0.199
Mof_C 	C 	0.65476	0.9624	0.7591	0.11
Mof_C 	C 	0.686	0.9536	0.7306	-0.143
Mof_H 	H 	0.6888	0.9702	0.7063	0.09
Mof_C 	C 	0.7077	0.8952	0.7715	-0.09
Mof_C 	C 	0.7126	0.9213	0.7372	0.054
Mof_H 	H 	0.7349	0.9166	0.7183	0.04
Mof_C 	C 	0.677	0.9054	0.799	0.062
Mof_H 	H 	0.6747	0.8896	0.8239	0.038
Mof_C 	C 	0.7379	0.8583	0.7791	0.309
Mof_C 	C 	0.6499	0.9365	0.7928	-0.148
Mof_H 	H 	0.6274	0.9406	0.8117	0.092
Mof_O 	O 	0.2325	0.6465	0.7538	-0.189
Mof_O 	O 	0.26859	0.66371	0.80902	-0.199
Mof_C 	C 	0.34524	0.5376	0.7591	0.112
Mof_C 	C 	0.314	0.5464	0.7306	-0.144
Mof_H 	H 	0.3112	0.5298	0.7063	0.09
Mof_C 	C 	0.2923	0.6048	0.7715	-0.091
Mof_C 	C 	0.2874	0.5787	0.7372	0.055
Mof_H 	H 	0.2651	0.5834	0.7183	0.04
Mof_C 	C 	0.323	0.5946	0.799	0.063
Mof_H 	H 	0.3253	0.6104	0.8239	0.038
Mof_C 	C 	0.2621	0.6417	0.7791	0.309
Mof_C 	C 	0.3501	0.5635	0.7928	-0.148
Mof_H 	H 	0.3726	0.5594	0.8117	0.092
Mof_O 	O 	0.7325	0.1465	0.2538	-0.189
Mof_O 	O 	0.76859	0.16371	0.30902	-0.199
Mof_C 	C 	0.84524	0.0376	0.2591	0.111
Mof_C 	C 	0.814	0.0464	0.2306	-0.143
Mof_H 	H 	0.8112	0.0298	0.2063	0.09
Mof_C 	C 	0.7923	0.1048	0.2715	-0.09
Mof_C 	C 	0.7874	0.0787	0.2372	0.054
Mof_H 	H 	0.7651	0.0834	0.2183	0.04
Mof_C 	C 	0.823	0.0946	0.299	0.063
Mof_H 	H 	0.8253	0.1104	0.3239	0.038
Mof_C 	C 	0.7621	0.1417	0.2791	0.309
Mof_C 	C 	0.8501	0.0635	0.2928	-0.148
Mof_H 	H 	0.8726	0.0594	0.3117	0.092
Mof_O 	O 	0.1465	0.7462	0.7675	-0.189
Mof_O 	O 	0.16371	0.69098	0.73141	-0.199
Mof_C 	C 	0.0376	0.7409	0.65476	0.111
Mof_C 	C 	0.0464	0.7694	0.686	-0.143
Mof_H 	H 	0.0298	0.7937	0.6888	0.09
Mof_C 	C 	0.1048	0.7285	0.7077	-0.091
Mof_C 	C 	0.0787	0.7628	0.7126	0.054
Mof_H 	H 	0.0834	0.7817	0.7349	0.04
Mof_C 	C 	0.0946	0.701	0.677	0.063
Mof_H 	H 	0.1104	0.6761	0.6747	0.038
Mof_C 	C 	0.1417	0.7209	0.7379	0.309
Mof_C 	C 	0.0635	0.7072	0.6499	-0.148
Mof_H 	H 	0.0594	0.6883	0.6274	0.092
Mof_O 	O 	0.6465	0.2462	0.2675	-0.189
Mof_O 	O 	0.66371	0.19098	0.23141	-0.199
Mof_C 	C 	0.5376	0.2409	0.15476	0.112
Mof_C 	C 	0.5464	0.2694	0.186	-0.144
Mof_H 	H 	0.5298	0.2937	0.1888	0.09
Mof_C 	C 	0.6048	0.2285	0.2077	-0.091
Mof_C 	C 	0.5787	0.2628	0.2126	0.055
Mof_H 	H 	0.5834	0.2817	0.2349	0.04
Mof_C 	C 	0.5946	0.201	0.177	0.063
Mof_H 	H 	0.6104	0.1761	0.1747	0.038
Mof_C 	C 	0.6417	0.2209	0.2379	0.309
Mof_C 	C 	0.5635	0.2072	0.1499	-0.148
Mof_H 	H 	0.5594	0.1883	0.1274	0.092
Mof_O 	O 	0.8535	0.2462	0.7325	-0.189
Mof_O 	O 	0.83629	0.19098	0.76859	-0.199
Mof_C 	C 	0.9624	0.2409	0.84524	0.11
Mof_C 	C 	0.9536	0.2694	0.814	-0.143
Mof_H 	H 	0.9702	0.2937	0.8112	0.09
Mof_C 	C 	0.8952	0.2285	0.7923	-0.09
Mof_C 	C 	0.9213	0.2628	0.7874	0.054
Mof_H 	H 	0.9166	0.2817	0.7651	0.04
Mof_C 	C 	0.9054	0.201	0.823	0.062
Mof_H 	H 	0.8896	0.1761	0.8253	0.038
Mof_C 	C 	0.8583	0.2209	0.7621	0.309
Mof_C 	C 	0.9365	0.2072	0.8501	-0.147
Mof_H 	H 	0.9406	0.1883	0.8726	0.092
Mof_O 	O 	0.3535	0.7462	0.2325	-0.189
Mof_O 	O 	0.33629	0.69098	0.26859	-0.199
Mof_C 	C 	0.4624	0.7409	0.34524	0.112
Mof_C 	C 	0.4536	0.7694	0.314	-0.144
Mof_H 	H 	0.4702	0.7937	0.3112	0.09
Mof_C 	C 	0.3952	0.7285	0.2923	-0.091
Mof_C 	C 	0.4213	0.7628	0.2874	0.055
Mof_H 	H 	0.4166	0.7817	0.2651	0.04
Mof_C 	C 	0.4054	0.701	0.323	0.063
Mof_H 	H 	0.3896	0.6761	0.3253	0.038
Mof_C 	C 	0.3583	0.7209	0.2621	0.309
Mof_C 	C 	0.4365	0.7072	0.3501	-0.148
Mof_H 	H 	0.4406	0.6883	0.3726	0.092
Mof_O 	O 	0.3535	0.2538	0.2675	-0.189
Mof_O 	O 	0.33629	0.30902	0.23141	-0.199
Mof_C 	C 	0.4624	0.2591	0.15476	0.112
Mof_C 	C 	0.4536	0.2306	0.186	-0.144
Mof_H 	H 	0.4702	0.2063	0.1888	0.09
Mof_C 	C 	0.3952	0.2715	0.2077	-0.091
Mof_C 	C 	0.4213	0.2372	0.2126	0.055
Mof_H 	H 	0.4166	0.2183	0.2349	0.04
Mof_C 	C 	0.4054	0.299	0.177	0.063
Mof_H 	H 	0.3896	0.3239	0.1747	0.038
Mof_C 	C 	0.3583	0.2791	0.2379	0.309
Mof_C 	C 	0.4365	0.2928	0.1499	-0.148
Mof_H 	H 	0.4406	0.3117	0.1274	0.092
Mof_O 	O 	0.8535	0.7538	0.7675	-0.189
Mof_O 	O 	0.83629	0.80902	0.73141	-0.199
Mof_C 	C 	0.9624	0.7591	0.65476	0.11
Mof_C 	C 	0.9536	0.7306	0.686	-0.143
Mof_H 	H 	0.9702	0.7063	0.6888	0.09
Mof_C 	C 	0.8952	0.7715	0.7077	-0.09
Mof_C 	C 	0.9213	0.7372	0.7126	0.054
Mof_H 	H 	0.9166	0.7183	0.7349	0.04
Mof_C 	C 	0.9054	0.799	0.677	0.062
Mof_H 	H 	0.8896	0.8239	0.6747	0.038
Mof_C 	C 	0.8583	0.7791	0.7379	0.309
Mof_C 	C 	0.9365	0.7928	0.6499	-0.148
Mof_H 	H 	0.9406	0.8117	0.6274	0.092
Mof_O 	O 	0.6465	0.7538	0.2325	-0.189
Mof_O 	O 	0.66371	0.80902	0.26859	-0.199
Mof_C 	C 	0.5376	0.7591	0.34524	0.112
Mof_C 	C 	0.5464	0.7306	0.314	-0.144
Mof_H 	H 	0.5298	0.7063	0.3112	0.09
Mof_C 	C 	0.6048	0.7715	0.2923	-0.091
Mof_C 	C 	0.5787	0.7372	0.2874	0.055
Mof_H 	H 	0.5834	0.7183	0.2651	0.04
Mof_C 	C 	0.5946	0.799	0.323	0.063
Mof_H 	H 	0.6104	0.8239	0.3253	0.038
Mof_C 	C 	0.6417	0.7791	0.2621	0.309
Mof_C 	C 	0.5635	0.7928	0.3501	-0.148
Mof_H 	H 	0.5594	0.8117	0.3726	0.092
Mof_O 	O 	0.1465	0.2538	0.7325	-0.189
Mof_O 	O 	0.16371	0.30902	0.76859	-0.199
Mof_C 	C 	0.0376	0.2591	0.84524	0.111
Mof_C 	C 	0.0464	0.2306	0.814	-0.143
Mof_H 	H 	0.0298	0.2063	0.8112	0.09
Mof_C 	C 	0.1048	0.2715	0.7923	-0.09
Mof_C 	C 	0.0787	0.2372	0.7874	0.054
Mof_H 	H 	0.0834	0.2183	0.7651	0.04
Mof_C 	C 	0.0946	0.299	0.823	0.063
Mof_H 	H 	0.1104	0.3239	0.8253	0.038
Mof_C 	C 	0.1417	0.2791	0.7621	0.309
Mof_C 	C 	0.0635	0.2928	0.8501	-0.148
Mof_H 	H 	0.0594	0.3117	0.8726	0.092
Mof_O 	O 	0.7462	0.7675	0.1465	-0.189
Mof_O 	O 	0.69098	0.73141	0.16371	-0.199
Mof_C 	C 	0.7409	0.65476	0.0376	0.111
Mof_C 	C 	0.7694	0.686	0.0464	-0.143
Mof_H 	H 	0.7937	0.6888	0.0298	0.09
Mof_C 	C 	0.7285	0.7077	0.1048	-0.091
Mof_C 	C 	0.7628	0.7126	0.0787	0.054
Mof_H 	H 	0.7817	0.7349	0.0834	0.04
Mof_C 	C 	0.701	0.677	0.0946	0.063
Mof_H 	H 	0.6761	0.6747	0.1104	0.038
Mof_C 	C 	0.7209	0.7379	0.1417	0.309
Mof_C 	C 	0.7072	0.6499	0.0635	-0.148
Mof_H 	H 	0.6883	0.6274	0.0594	0.092
Mof_O 	O 	0.2462	0.2675	0.6465	-0.189
Mof_O 	O 	0.19098	0.23141	0.66371	-0.199
Mof_C 	C 	0.2409	0.15476	0.5376	0.112
Mof_C 	C 	0.2694	0.186	0.5464	-0.144
Mof_H 	H 	0.2937	0.1888	0.5298	0.09
Mof_C 	C 	0.2285	0.2077	0.6048	-0.091
Mof_C 	C 	0.2628	0.2126	0.5787	0.055
Mof_H 	H 	0.2817	0.2349	0.5834	0.04
Mof_C 	C 	0.201	0.177	0.5946	0.063
Mof_H 	H 	0.1761	0.1747	0.6104	0.038
Mof_C 	C 	0.2209	0.2379	0.6417	0.309
Mof_C 	C 	0.2072	0.1499	0.5635	-0.148
Mof_H 	H 	0.1883	0.1274	0.5594	0.092
Mof_O 	O 	0.2462	0.7325	0.8535	-0.189
Mof_O 	O 	0.19098	0.76859	0.83629	-0.199
Mof_C 	C 	0.2409	0.84524	0.9624	0.11
Mof_C 	C 	0.2694	0.814	0.9536	-0.143
Mof_H 	H 	0.2937	0.8112	0.9702	0.09
Mof_C 	C 	0.2285	0.7923	0.8952	-0.09
Mof_C 	C 	0.2628	0.7874	0.9213	0.054
Mof_H 	H 	0.2817	0.7651	0.9166	0.04
Mof_C 	C 	0.201	0.823	0.9054	0.062
Mof_H 	H 	0.1761	0.8253	0.8896	0.038
Mof_C 	C 	0.2209	0.7621	0.8583	0.309
Mof_C 	C 	0.2072	0.8501	0.9365	-0.147
Mof_H 	H 	0.1883	0.8726	0.9406	0.092
Mof_O 	O 	0.7462	0.2325	0.3535	-0.189
Mof_O 	O 	0.69098	0.26859	0.33629	-0.199
Mof_C 	C 	0.7409	0.34524	0.4624	0.112
Mof_C 	C 	0.7694	0.314	0.4536	-0.144
Mof_H 	H 	0.7937	0.3112	0.4702	0.09
Mof_C 	C 	0.7285	0.2923	0.3952	-0.091
Mof_C 	C 	0.7628	0.2874	0.4213	0.055
Mof_H 	H 	0.7817	0.2651	0.4166	0.04
Mof_C 	C 	0.701	0.323	0.4054	0.063
Mof_H 	H 	0.6761	0.3253	0.3896	0.038
Mof_C 	C 	0.7209	0.2621	0.3583	0.309
Mof_C 	C 	0.7072	0.3501	0.4365	-0.148
Mof_H 	H 	0.6883	0.3726	0.4406	0.092
Mof_O 	O 	0.2538	0.2675	0.3535	-0.189
Mof_O 	O 	0.30902	0.23141	0.33629	-0.199
Mof_C 	C 	0.2591	0.15476	0.4624	0.112
Mof_C 	C 	0.2306	0.186	0.4536	-0.144
Mof_H 	H 	0.2063	0.1888	0.4702	0.09
Mof_C 	C 	0.2715	0.2077	0.3952	-0.091
Mof_C 	C 	0.2372	0.2126	0.4213	0.055
Mof_H 	H 	0.2183	0.2349	0.4166	0.04
Mof_C 	C 	0.299	0.177	0.4054	0.063
Mof_H 	H 	0.3239	0.1747	0.3896	0.038
Mof_C 	C 	0.2791	0.2379	0.3583	0.309
Mof_C 	C 	0.2928	0.1499	0.4365	-0.148
Mof_H 	H 	0.3117	0.1274	0.4406	0.092
Mof_O 	O 	0.7538	0.7675	0.8535	-0.189
Mof_O 	O 	0.80902	0.73141	0.83629	-0.199
Mof_C 	C 	0.7591	0.65476	0.9624	0.11
Mof_C 	C 	0.7306	0.686	0.9536	-0.143
Mof_H 	H 	0.7063	0.6888	0.9702	0.09
Mof_C 	C 	0.7715	0.7077	0.8952	-0.09
Mof_C 	C 	0.7372	0.7126	0.9213	0.054
Mof_H 	H 	0.7183	0.7349	0.9166	0.04
Mof_C 	C 	0.799	0.677	0.9054	0.062
Mof_H 	H 	0.8239	0.6747	0.8896	0.038
Mof_C 	C 	0.7791	0.7379	0.8583	0.309
Mof_C 	C 	0.7928	0.6499	0.9365	-0.148
Mof_H 	H 	0.8117	0.6274	0.9406	0.092
Mof_O 	O 	0.7538	0.2325	0.6465	-0.189
Mof_O 	O 	0.80902	0.26859	0.66371	-0.199
Mof_C 	C 	0.7591	0.34524	0.5376	0.112
Mof_C 	C 	0.7306	0.314	0.5464	-0.144
Mof_H 	H 	0.7063	0.3112	0.5298	0.09
Mof_C 	C 	0.7715	0.2923	0.6048	-0.091
Mof_C 	C 	0.7372	0.2874	0.5787	0.055
Mof_H 	H 	0.7183	0.2651	0.5834	0.04
Mof_C 	C 	0.799	0.323	0.5946	0.063
Mof_H 	H 	0.8239	0.3253	0.6104	0.038
Mof_C 	C 	0.7791	0.2621	0.6417	0.309
Mof_C 	C 	0.7928	0.3501	0.5635	-0.148
Mof_H 	H 	0.8117	0.3726	0.5594	0.092
Mof_O 	O 	0.2538	0.7325	0.1465	-0.189
Mof_O 	O 	0.30902	0.76859	0.16371	-0.199
Mof_C 	C 	0.2591	0.84524	0.0376	0.111
Mof_C 	C 	0.2306	0.814	0.0464	-0.143
Mof_H 	H 	0.2063	0.8112	0.0298	0.09
Mof_C 	C 	0.2715	0.7923	0.1048	-0.09
Mof_C 	C 	0.2372	0.7874	0.0787	0.054
Mof_H 	H 	0.2183	0.7651	0.0834	0.04
Mof_C 	C 	0.299	0.823	0.0946	0.063
Mof_H 	H 	0.3239	0.8253	0.1104	0.038
Mof_C 	C 	0.2791	0.7621	0.1417	0.309
Mof_C 	C 	0.2928	0.8501	0.0635	-0.148
Mof_H 	H 	0.3117	0.8726	0.0594	0.092
Mof_U 	U 	0.95755	0.54245	0.45755	0.011
Mof_U 	U 	0.45755	0.04245	0.95755	0.011
Mof_U 	U 	0.54245	0.45755	0.95755	0.011
Mof_U 	U 	0.04245	0.95755	0.45755	0.011
Mof_U 	U 	0.04245	0.04245	0.04245	0.012
Mof_U 	U 	0.54245	0.54245	0.54245	0.011
Mof_U 	U 	0.45755	0.95755	0.54245	0.011
Mof_U 	U 	0.95755	0.45755	0.04245	0.011
Mof_U 	U 	0.79245	0.20755	0.70755	0.011
Mof_U 	U 	0.29245	0.70755	0.20755	0.011
Mof_U 	U 	0.70755	0.79245	0.20755	0.011
Mof_U 	U 	0.20755	0.29245	0.70755	0.011
Mof_U 	U 	0.29245	0.29245	0.29245	0.011
Mof_U 	U 	0.79245	0.79245	0.79245	0.011
Mof_U 	U 	0.20755	0.70755	0.79245	0.011
Mof_U 	U 	0.70755	0.20755	0.29245	0.011
Mof_C 	C 	0.75	0.375	0.5	-0.128
Mof_C 	C 	0.75	0.625	-0	-0.126
Mof_C 	C 	0.25	0.875	-0	-0.126
Mof_C 	C 	0.25	0.125	0.5	-0.128
Mof_C 	C 	0.5	0.75	0.375	-0.128
Mof_C 	C 	1.45612e-32	0.75	0.625	-0.126
Mof_C 	C 	1.54986e-32	0.25	0.875	-0.126
Mof_C 	C 	0.5	0.25	0.125	-0.128
Mof_C 	C 	0.375	0.5	0.75	-0.128
Mof_C 	C 	0.625	0	0.75	-0.126
Mof_C 	C 	0.875	0	0.25	-0.126
Mof_C 	C 	0.125	0.5	0.25	-0.128
_end
