# CIF file generated by openbabel 3.1.0, see https://openbabel.org
data_I
_chemical_name_common 'image0'
_cell_length_a 9.489
_cell_length_b 12.76
_cell_length_c 13.117
_cell_angle_alpha 75.88
_cell_angle_beta 72.93
_cell_angle_gamma 69.65
_space_group_name_H-M_alt 'P 1'
_space_group_name_Hall 'P 1'
loop_
    _symmetry_equiv_pos_as_xyz
    x,y,z
loop_
    _atom_site_label
    _atom_site_type_symbol
    _atom_site_fract_x
    _atom_site_fract_y
    _atom_site_fract_z
    _atom_site_occupancy
    Cu1      Cu       0.74626    0.46285    0.05426    1.000
    N1       N        0.34160    0.52410    0.77730    1.000
    C1       C        0.25410    0.56280    0.70570    1.000
    H1       H        0.14910    0.59760    0.72960    1.000
    C2       C        0.31190    0.55390    0.59690    1.000
    H2       H        0.24580    0.58210    0.54980    1.000
    C3       C        0.46550    0.50390    0.55890    1.000
    C4       C        0.55540    0.46430    0.63170    1.000
    H3       H        0.66100    0.42990    0.60970    1.000
    C5       C        0.48900    0.47540    0.73870    1.000
    H4       H        0.55300    0.44630    0.78710    1.000
    C6       C        0.96450    0.05730    0.01480    1.000
    C7       C        0.03590    0.10580    0.05940    1.000
    H5       H        0.86940    0.93530    0.92360    1.000
    C8       C        0.96580    0.21660    0.07880    1.000
    H6       H        0.98300    0.75220    0.89160    1.000
    N2       N        0.83000    0.28100    0.05790    1.000
    C9       C        0.23870    0.76660    0.98480    1.000
    H7       H        0.33460    0.72440    0.99930    1.000
    C10      C        0.17540    0.87570    0.00880    1.000
    H8       H        0.22710    0.90390    0.04080    1.000
    C11      C        0.55650    0.49690    0.00910    1.000
    N3       N        0.06120    0.50370    0.98760    1.000
    Cu2      Cu       0.25374    0.53715    0.94574    1.000
    N4       N        0.65840    0.47590    0.22270    1.000
    C12      C        0.74590    0.43720    0.29430    1.000
    H9       H        0.85090    0.40240    0.27040    1.000
    C13      C        0.68810    0.44610    0.40310    1.000
    H10      H        0.75420    0.41790    0.45020    1.000
    C14      C        0.53450    0.49610    0.44110    1.000
    C15      C        0.44460    0.53570    0.36830    1.000
    H11      H        0.33900    0.57010    0.39030    1.000
    C16      C        0.51100    0.52460    0.26130    1.000
    H12      H        0.44700    0.55370    0.21290    1.000
    C17      C        0.03550    0.94270    0.98520    1.000
    C18      C        0.96410    0.89420    0.94060    1.000
    H13      H        0.13060    0.06470    0.07640    1.000
    C19      C        0.03420    0.78340    0.92120    1.000
    H14      H        0.01700    0.24780    0.10840    1.000
    N5       N        0.17000    0.71900    0.94210    1.000
    C20      C        0.76130    0.23340    0.01520    1.000
    H15      H        0.66540    0.27560    0.00070    1.000
    C21      C        0.82460    0.12430    0.99120    1.000
    H16      H        0.77290    0.09610    0.95920    1.000
    C22      C        0.44350    0.50310    0.99090    1.000
    N6       N        0.93880    0.49630    0.01240    1.000
