# CIF file generated by openbabel 3.1.0, see https://openbabel.org
data_I
_chemical_name_common 'image0'
_cell_length_a 10.6646
_cell_length_b 11.0897
_cell_length_c 14.724
_cell_angle_alpha 106.806
_cell_angle_beta 95.727
_cell_angle_gamma 113.001
_space_group_name_H-M_alt 'P 1'
_space_group_name_Hall 'P 1'
loop_
    _symmetry_equiv_pos_as_xyz
    x,y,z
loop_
    _atom_site_label
    _atom_site_type_symbol
    _atom_site_fract_x
    _atom_site_fract_y
    _atom_site_fract_z
    _atom_site_occupancy
    C1       C        0.10870    0.06330    0.34218    1.000
    C2       C        0.11200    0.92390    0.31551    1.000
    C3       C        0.07270    0.84230    0.37328    1.000
    C4       C        0.08360    0.71650    0.35063    1.000
    C5       C        0.12690    0.66810    0.26692    1.000
    C6       C        0.16110    0.74970    0.20938    1.000
    C7       C        0.15730    0.87780    0.23258    1.000
    C8       C        0.05070    0.63170    0.41542    1.000
    C9       C        0.69380    0.77790    0.14905    1.000
    C10      C        0.60860    0.73860    0.22020    1.000
    C11      C        0.49260    0.60780    0.18762    1.000
    C12      C        0.41010    0.56810    0.25071    1.000
    C13      C        0.44110    0.66040    0.34624    1.000
    C14      C        0.55530    0.79010    0.37585    1.000
    C15      C        0.64190    0.83220    0.31549    1.000
    C16      C        0.29000    0.42440    0.21497    1.000
    N1       N        0.58540    0.89100    0.47593    1.000
    N2       N        0.20050    0.69540    0.11827    1.000
    O1       O        0.14834    0.13663    0.28843    1.000
    O2       O        0.07225    0.11076    0.41791    1.000
    O3       O        0.96898    0.64902    0.46855    1.000
    O4       O        0.10471    0.54886    0.41382    1.000
    O5       O        0.19908    0.39655    0.26423    1.000
    O6       O        0.28776    0.33805    0.13684    1.000
    O7       O        0.80675    0.89082    0.17874    1.000
    O8       O        0.64835    0.69821    0.05988    1.000
    O9       O        0.97867    0.92612    0.90341    1.000
    O10      O        0.25026    0.77666    0.07559    1.000
    O11      O        0.18390    0.57394    0.09112    1.000
    O12      O        0.54300    0.84430    0.53819    1.000
    O13      O        0.65078    0.01633    0.48968    1.000
    U1       U        0.10777    0.33038    0.38917    1.000
    U2       U        0.84097    0.85126    0.00962    1.000
    H1       H        0.71800    0.92900    0.34400    1.000
    H2       H        0.47000    0.54100    0.12520    1.000
    H3       H        0.39100    0.64700    0.39230    1.000
    H4       H        0.04100    0.87000    0.42220    1.000
    H5       H        0.13200    0.58700    0.24700    1.000
    H6       H        0.18100    0.91900    0.19370    1.000
    C17      C        0.89130    0.93670    0.65782    1.000
    C18      C        0.88800    0.07610    0.68449    1.000
    C19      C        0.92730    0.15770    0.62672    1.000
    C20      C        0.91640    0.28350    0.64937    1.000
    C21      C        0.87310    0.33190    0.73308    1.000
    C22      C        0.83890    0.25030    0.79062    1.000
    C23      C        0.84270    0.12220    0.76742    1.000
    C24      C        0.94930    0.36830    0.58458    1.000
    C25      C        0.30620    0.22210    0.85095    1.000
    C26      C        0.39140    0.26140    0.77980    1.000
    C27      C        0.50740    0.39220    0.81238    1.000
    C28      C        0.58990    0.43190    0.74929    1.000
    C29      C        0.55890    0.33960    0.65376    1.000
    C30      C        0.44470    0.20990    0.62415    1.000
    C31      C        0.35810    0.16780    0.68451    1.000
    C32      C        0.71000    0.57560    0.78503    1.000
    N3       N        0.41460    0.10900    0.52407    1.000
    N4       N        0.79950    0.30460    0.88173    1.000
    O14      O        0.85166    0.86337    0.71157    1.000
    O15      O        0.92775    0.88924    0.58209    1.000
    O16      O        0.03102    0.35098    0.53145    1.000
    O17      O        0.89529    0.45114    0.58618    1.000
    O18      O        0.80092    0.60345    0.73577    1.000
    O19      O        0.71224    0.66195    0.86316    1.000
    O20      O        0.19325    0.10918    0.82126    1.000
    O21      O        0.35165    0.30179    0.94012    1.000
    O22      O        0.02133    0.07388    0.09659    1.000
    O23      O        0.74974    0.22334    0.92441    1.000
    O24      O        0.81610    0.42606    0.90888    1.000
    O25      O        0.45700    0.15570    0.46181    1.000
    O26      O        0.34922    0.98367    0.51032    1.000
    U3       U        0.89223    0.66962    0.61083    1.000
    U4       U        0.15903    0.14874    0.99038    1.000
    H7       H        0.28200    0.07100    0.65600    1.000
    H8       H        0.53000    0.45900    0.87480    1.000
    H9       H        0.60900    0.35300    0.60770    1.000
    H10      H        0.95900    0.13000    0.57780    1.000
    H11      H        0.86800    0.41300    0.75300    1.000
    H12      H        0.81900    0.08100    0.80630    1.000
