data_functionalizedCrystal
_audit_creation_method	'EQeq! by Chris Wilmer'
_symmetry_space_group_name_H-M	'P1'
_symmetry_Int_Tables_number	1
_symmetry_cell_setting	triclinic
loop_
_symmetry_equiv_pos_as_xyz
  x,y,z
_cell_length_a	12.702
_cell_length_b	9.365
_cell_length_c	11.253
_cell_angle_alpha	90
_cell_angle_beta	90
_cell_angle_gamma	90
loop_
_atom_site_label
_atom_site_type_symbol
_atom_site_fract_x
_atom_site_fract_y
_atom_site_fract_z
_atom_site_charge
Mof_P 	P 	0.42472	0.5116	0.20056	0.709
Mof_O 	O 	0.2378	0.8682	0.1124	-0.456
Mof_O 	O 	0.5141	0.5306	0.1095	-0.475
Mof_H 	H 	0.5697	0.5032	0.1386	0.282
Mof_O 	O 	0.3732	0.3678	0.1767	-0.518
Mof_O 	O 	0.3449	0.6299	0.1768	-0.545
Mof_O 	O 	0.1534	0.0148	0.9559	-0.316
Mof_O 	O 	0.031	0.4773	0.3247	-0.491
Mof_P 	P 	0.07528	0.4884	0.20056	0.624
Mof_O 	O 	0.2622	0.1318	0.1124	-0.562
Mof_O 	O 	0.9859	0.4694	0.1095	-0.362
Mof_H 	H 	0.9303	0.4968	0.1386	0.276
Mof_O 	O 	0.1268	0.6322	0.1767	-0.502
Mof_O 	O 	0.1551	0.3701	0.1768	-0.549
Mof_O 	O 	0.3466	0.9852	0.9559	-0.16
Mof_O 	O 	0.469	0.5227	0.3247	-0.49
Mof_P 	P 	0.07528	0.0116	0.29944	0.51
Mof_O 	O 	0.2622	0.3682	0.3876	-0.577
Mof_O 	O 	0.9859	0.0306	0.3905	-0.35
Mof_H 	H 	0.9303	0.0032	0.3614	0.241
Mof_O 	O 	0.1268	0.8678	0.3233	-0.406
Mof_O 	O 	0.1551	0.1299	0.3232	-0.545
Mof_O 	O 	0.3466	0.5148	0.5441	-0.46
Mof_O 	O 	0.469	0.9773	0.1753	-0.382
Mof_P 	P 	0.42472	0.9884	0.29944	0.791
Mof_O 	O 	0.2378	0.6318	0.3876	-0.566
Mof_O 	O 	0.5141	0.9694	0.3905	-0.43
Mof_H 	H 	0.5697	0.9968	0.3614	0.319
Mof_O 	O 	0.3732	0.1322	0.3233	-0.583
Mof_O 	O 	0.3449	0.8701	0.3232	-0.519
Mof_O 	O 	0.1534	0.4852	0.5441	-0.457
Mof_O 	O 	0.031	0.0227	0.1753	-0.47
Mof_P 	P 	0.57528	0.4884	0.79944	0.711
Mof_O 	O 	0.7622	0.1318	0.8876	-0.549
Mof_O 	O 	0.4859	0.4694	0.8905	-0.411
Mof_H 	H 	0.4303	0.4968	0.8614	0.29
Mof_O 	O 	0.6268	0.6322	0.8233	-0.47
Mof_O 	O 	0.6551	0.3701	0.8232	-0.521
Mof_O 	O 	0.8466	0.9852	0.0441	-0.264
Mof_O 	O 	0.969	0.5227	0.6753	-0.41
Mof_P 	P 	0.92472	0.5116	0.79944	0.772
Mof_O 	O 	0.7378	0.8682	0.8876	-0.458
Mof_O 	O 	0.0141	0.5306	0.8905	-0.503
Mof_H 	H 	0.0697	0.5032	0.8614	0.296
Mof_O 	O 	0.8732	0.3678	0.8233	-0.472
Mof_O 	O 	0.8449	0.6299	0.8232	-0.51
Mof_O 	O 	0.6534	0.0148	0.0441	-0.509
Mof_O 	O 	0.531	0.4773	0.6753	-0.488
Mof_P 	P 	0.92472	0.9884	0.70056	0.845
Mof_O 	O 	0.7378	0.6318	0.6124	-0.567
Mof_O 	O 	0.0141	0.9694	0.6095	-0.527
Mof_H 	H 	0.0697	0.9968	0.6386	0.329
Mof_O 	O 	0.8732	0.1322	0.6767	-0.563
Mof_O 	O 	0.8449	0.8701	0.6768	-0.513
Mof_O 	O 	0.6534	0.4852	0.4559	-0.464
Mof_O 	O 	0.531	0.0227	0.8247	-0.429
Mof_P 	P 	0.57528	0.0116	0.70056	0.598
Mof_O 	O 	0.7622	0.3682	0.6124	-0.574
Mof_O 	O 	0.4859	0.0306	0.6095	-0.471
Mof_H 	H 	0.4303	0.0032	0.6386	0.25
Mof_O 	O 	0.6268	0.8678	0.6767	-0.41
Mof_O 	O 	0.6551	0.1299	0.6768	-0.548
Mof_O 	O 	0.8466	0.5148	0.4559	-0.392
Mof_O 	O 	0.969	0.9773	0.8247	-0.275
Mof_Ti	Ti	0.25799	0.25	0.25	1.931
Mof_Ti	Ti	0.24201	0.75	0.25	1.947
Mof_Ti	Ti	0.74201	0.75	0.75	1.986
Mof_Ti	Ti	0.75799	0.25	0.75	1.971
Mof_Ti	Ti	-0	0	-0	0.76
Mof_Ti	Ti	0.5	0	-0	0.963
Mof_Ti	Ti	0.5	0.5	0.5	1.393
Mof_Ti	Ti	6.37541e-33	0.5	0.5	1.194
Mof_P 	P 	0.25	-2.94661e-34	0.0337	0.372
Mof_P 	P 	0.25	0.5	0.4663	0.723
Mof_P 	P 	0.75	9.42914e-33	0.9663	0.664
Mof_P 	P 	0.75	0.5	0.5337	0.722
_end
