# CIF file generated by openbabel 3.1.0, see https://openbabel.org
data_I
_chemical_name_common 'image0'
_cell_length_a 38.8511
_cell_length_b 38.8511
_cell_length_c 18.7521
_cell_angle_alpha 90
_cell_angle_beta 90
_cell_angle_gamma 90
_space_group_name_H-M_alt 'P 1'
_space_group_name_Hall 'P 1'
loop_
    _symmetry_equiv_pos_as_xyz
    x,y,z
loop_
    _atom_site_label
    _atom_site_type_symbol
    _atom_site_fract_x
    _atom_site_fract_y
    _atom_site_fract_z
    _atom_site_occupancy
    Zr1      Zr       0.99006    0.81077    0.08577    1.000
    Zr2      Zr       0.94490    0.73612    0.03495    1.000
    Zr3      Zr       0.03524    0.73631    0.03584    1.000
    C1       C        0.04710    0.84360    0.19020    1.000
    C2       C        0.06340    0.87610    0.22140    1.000
    C3       C        0.08540    0.87560    0.27870    1.000
    H1       H        0.09126    0.85465    0.29942    1.000
    C4       C        0.09880    0.90500    0.30570    1.000
    H2       H        0.11185    0.90398    0.34721    1.000
    C5       C        0.09360    0.93560    0.27380    1.000
    C6       C        0.07270    0.93740    0.21150    1.000
    H3       H        0.06986    0.95804    0.18698    1.000
    C7       C        0.05640    0.90710    0.18840    1.000
    H4       H        0.04092    0.90793    0.15068    1.000
    C8       C        0.06470    0.15380    0.19120    1.000
    C9       C        0.07750    0.12220    0.21710    1.000
    C10      C        0.06860    0.09090    0.18810    1.000
    H5       H        0.05552    0.09028    0.14659    1.000
    C11      C        0.07890    0.06020    0.22030    1.000
    H6       H        0.06850    0.03968    0.20618    1.000
    C12      C        0.10190    0.05930    0.26830    1.000
    C13      C        0.11230    0.09000    0.29800    1.000
    H7       H        0.12794    0.08977    0.33544    1.000
    C14      C        0.10030    0.12020    0.27410    1.000
    H8       H        0.10747    0.14039    0.29618    1.000
    C15      C        0.21190    0.99030    0.65240    1.000
    C16      C        0.19550    0.99150    0.58060    1.000
    C17      C        0.18510    0.96040    0.54570    1.000
    H9       H        0.19008    0.93914    0.56622    1.000
    C18      C        0.16850    0.96190    0.48450    1.000
    H10      H        0.16189    0.94146    0.46283    1.000
    C19      C        0.16030    0.99380    0.44990    1.000
    C20      C        0.16970    0.02310    0.47710    1.000
    H11      H        0.16578    0.04380    0.45372    1.000
    C21      C        0.18710    0.02170    0.54730    1.000
    H12      H        0.19268    0.04231    0.56971    1.000
    C22      C        0.13940    0.99470    0.38350    1.000
    C23      C        0.11170    0.02590    0.30670    1.000
    C24      C        0.10800    0.96720    0.29720    1.000
    C25      C        0.82412    0.74210    0.06295    1.000
    H13      H        0.83606    0.73734    0.02113    1.000
    C26      C        0.78827    0.74210    0.06295    1.000
    H14      H        0.77632    0.73736    0.02113    1.000
    N1       N        0.12720    0.96450    0.35950    1.000
    N2       N        0.09890    0.99680    0.27260    1.000
    N3       N        0.13180    0.02610    0.36000    1.000
    O1       O        0.02610    0.84750    0.13980    1.000
    O2       O        0.05480    0.81698    0.22460    1.000
    O3       O        0.04461    0.15271    0.13910    1.000
    O4       O        0.07355    0.18210    0.22320    1.000
    O5       O        0.21910    0.01902    0.67720    1.000
    O6       O        0.21870    0.96137    0.67910    1.000
    O7       O        0.99038    0.76754    0.01590    1.000
    O8       O        0.99039    0.70730    0.05500    1.000
    O9       O        0.03540    0.78130    0.10110    1.000
    O10      O        0.94530    0.77968    0.10400    1.000
    O11      O        0.09000    0.73900    0.06070    1.000
    O12      O        0.88896    0.73800    0.05360    1.000
    H15      H        0.15195    0.75782    0.17047    1.000
    H16      H        0.15195    0.72709    0.11629    1.000
    H17      H        0.15195    0.76510    0.08824    1.000
    Zr4      Zr       0.49006    0.31077    0.58577    1.000
    Zr5      Zr       0.44490    0.23612    0.53495    1.000
    Zr6      Zr       0.53524    0.23631    0.53584    1.000
    C27      C        0.54710    0.34360    0.69020    1.000
    C28      C        0.56340    0.37610    0.72140    1.000
    C29      C        0.58540    0.37560    0.77870    1.000
    H18      H        0.59126    0.35465    0.79942    1.000
    C30      C        0.59880    0.40500    0.80570    1.000
    H19      H        0.61185    0.40398    0.84721    1.000
    C31      C        0.59360    0.43560    0.77380    1.000
    C32      C        0.57270    0.43740    0.71150    1.000
    H20      H        0.56986    0.45804    0.68698    1.000
    C33      C        0.55640    0.40710    0.68840    1.000
    H21      H        0.54092    0.40793    0.65068    1.000
    C34      C        0.56470    0.65380    0.69120    1.000
    C35      C        0.57750    0.62220    0.71710    1.000
    C36      C        0.56860    0.59090    0.68810    1.000
    H22      H        0.55552    0.59028    0.64659    1.000
    C37      C        0.57890    0.56020    0.72030    1.000
    H23      H        0.56850    0.53968    0.70618    1.000
    C38      C        0.60190    0.55930    0.76830    1.000
    C39      C        0.61230    0.59000    0.79800    1.000
    H24      H        0.62794    0.58977    0.83544    1.000
    C40      C        0.60030    0.62020    0.77410    1.000
    H25      H        0.60747    0.64039    0.79618    1.000
    C41      C        0.71190    0.49030    0.15240    1.000
    C42      C        0.69550    0.49150    0.08060    1.000
    C43      C        0.68510    0.46040    0.04570    1.000
    H26      H        0.69008    0.43914    0.06622    1.000
    C44      C        0.66850    0.46190    0.98450    1.000
    H27      H        0.66189    0.44146    0.96283    1.000
    C45      C        0.66030    0.49380    0.94990    1.000
    C46      C        0.66970    0.52310    0.97710    1.000
    H28      H        0.66578    0.54380    0.95372    1.000
    C47      C        0.68710    0.52170    0.04730    1.000
    H29      H        0.69268    0.54231    0.06971    1.000
    C48      C        0.63940    0.49470    0.88350    1.000
    C49      C        0.61170    0.52590    0.80670    1.000
    C50      C        0.60800    0.46720    0.79720    1.000
    C51      C        0.32412    0.24210    0.56295    1.000
    H30      H        0.33606    0.23734    0.52113    1.000
    C52      C        0.28827    0.24210    0.56295    1.000
    H31      H        0.27632    0.23736    0.52113    1.000
    N4       N        0.62720    0.46450    0.85950    1.000
    N5       N        0.59890    0.49680    0.77260    1.000
    N6       N        0.63180    0.52610    0.86000    1.000
    O13      O        0.52610    0.34750    0.63980    1.000
    O14      O        0.55480    0.31698    0.72460    1.000
    O15      O        0.54461    0.65271    0.63910    1.000
    O16      O        0.57355    0.68210    0.72320    1.000
    O17      O        0.71910    0.51902    0.17720    1.000
    O18      O        0.71870    0.46137    0.17910    1.000
    O19      O        0.49038    0.26754    0.51590    1.000
    O20      O        0.49039    0.20730    0.55500    1.000
    O21      O        0.53540    0.28130    0.60110    1.000
    O22      O        0.44530    0.27968    0.60400    1.000
    O23      O        0.59000    0.23900    0.56070    1.000
    O24      O        0.38896    0.23800    0.55360    1.000
    H32      H        0.65195    0.25782    0.67047    1.000
    H33      H        0.65195    0.22709    0.61629    1.000
    H34      H        0.65195    0.26510    0.58824    1.000
    Zr7      Zr       0.00994    0.18923    0.08577    1.000
    Zr8      Zr       0.05510    0.26388    0.03495    1.000
    Zr9      Zr       0.96476    0.26369    0.03584    1.000
    C53      C        0.95290    0.15640    0.19020    1.000
    C54      C        0.93660    0.12390    0.22140    1.000
    C55      C        0.91460    0.12440    0.27870    1.000
    H35      H        0.90874    0.14535    0.29942    1.000
    C56      C        0.90120    0.09500    0.30570    1.000
    H36      H        0.88815    0.09602    0.34721    1.000
    C57      C        0.90640    0.06440    0.27380    1.000
    C58      C        0.92730    0.06260    0.21150    1.000
    H37      H        0.93014    0.04196    0.18698    1.000
    C59      C        0.94360    0.09290    0.18840    1.000
    H38      H        0.95908    0.09207    0.15068    1.000
    C60      C        0.93530    0.84620    0.19120    1.000
    C61      C        0.92250    0.87780    0.21710    1.000
    C62      C        0.93140    0.90910    0.18810    1.000
    H39      H        0.94448    0.90972    0.14659    1.000
    C63      C        0.92110    0.93980    0.22030    1.000
    H40      H        0.93150    0.96032    0.20618    1.000
    C64      C        0.89810    0.94070    0.26830    1.000
    C65      C        0.88770    0.91000    0.29800    1.000
    H41      H        0.87206    0.91023    0.33544    1.000
    C66      C        0.89970    0.87980    0.27410    1.000
    H42      H        0.89253    0.85961    0.29618    1.000
    C67      C        0.78810    0.00970    0.65240    1.000
    C68      C        0.80450    0.00850    0.58060    1.000
    C69      C        0.81490    0.03960    0.54570    1.000
    H43      H        0.80992    0.06086    0.56622    1.000
    C70      C        0.83150    0.03810    0.48450    1.000
    H44      H        0.83811    0.05854    0.46283    1.000
    C71      C        0.83970    0.00620    0.44990    1.000
    C72      C        0.83030    0.97690    0.47710    1.000
    H45      H        0.83422    0.95620    0.45372    1.000
    C73      C        0.81290    0.97830    0.54730    1.000
    H46      H        0.80732    0.95769    0.56971    1.000
    C74      C        0.86060    0.00530    0.38350    1.000
    C75      C        0.88830    0.97410    0.30670    1.000
    C76      C        0.89200    0.03280    0.29720    1.000
    C77      C        0.17588    0.25790    0.06295    1.000
    H47      H        0.16394    0.26266    0.02113    1.000
    C78      C        0.21173    0.25790    0.06295    1.000
    H48      H        0.22368    0.26264    0.02113    1.000
    N7       N        0.87280    0.03550    0.35950    1.000
    N8       N        0.90110    0.00320    0.27260    1.000
    N9       N        0.86820    0.97390    0.36000    1.000
    O25      O        0.97390    0.15250    0.13980    1.000
    O26      O        0.94520    0.18302    0.22460    1.000
    O27      O        0.95539    0.84729    0.13910    1.000
    O28      O        0.92645    0.81790    0.22320    1.000
    O29      O        0.78090    0.98098    0.67720    1.000
    O30      O        0.78130    0.03863    0.67910    1.000
    O31      O        0.00962    0.23246    0.01590    1.000
    O32      O        0.00961    0.29270    0.05500    1.000
    O33      O        0.96460    0.21870    0.10110    1.000
    O34      O        0.05470    0.22032    0.10400    1.000
    O35      O        0.91000    0.26100    0.06070    1.000
    O36      O        0.11104    0.26200    0.05360    1.000
    H49      H        0.84805    0.24218    0.17047    1.000
    H50      H        0.84805    0.27291    0.11629    1.000
    H51      H        0.84805    0.23490    0.08824    1.000
    Zr10     Zr       0.50994    0.68923    0.58577    1.000
    Zr11     Zr       0.55510    0.76388    0.53495    1.000
    Zr12     Zr       0.46476    0.76369    0.53584    1.000
    C79      C        0.45290    0.65640    0.69020    1.000
    C80      C        0.43660    0.62390    0.72140    1.000
    C81      C        0.41460    0.62440    0.77870    1.000
    H52      H        0.40874    0.64535    0.79942    1.000
    C82      C        0.40120    0.59500    0.80570    1.000
    H53      H        0.38815    0.59602    0.84721    1.000
    C83      C        0.40640    0.56440    0.77380    1.000
    C84      C        0.42730    0.56260    0.71150    1.000
    H54      H        0.43014    0.54196    0.68698    1.000
    C85      C        0.44360    0.59290    0.68840    1.000
    H55      H        0.45908    0.59207    0.65068    1.000
    C86      C        0.43530    0.34620    0.69120    1.000
    C87      C        0.42250    0.37780    0.71710    1.000
    C88      C        0.43140    0.40910    0.68810    1.000
    H56      H        0.44448    0.40972    0.64659    1.000
    C89      C        0.42110    0.43980    0.72030    1.000
    H57      H        0.43150    0.46032    0.70618    1.000
    C90      C        0.39810    0.44070    0.76830    1.000
    C91      C        0.38770    0.41000    0.79800    1.000
    H58      H        0.37206    0.41023    0.83544    1.000
    C92      C        0.39970    0.37980    0.77410    1.000
    H59      H        0.39253    0.35961    0.79618    1.000
    C93      C        0.28810    0.50970    0.15240    1.000
    C94      C        0.30450    0.50850    0.08060    1.000
    C95      C        0.31490    0.53960    0.04570    1.000
    H60      H        0.30992    0.56086    0.06622    1.000
    C96      C        0.33150    0.53810    0.98450    1.000
    H61      H        0.33811    0.55854    0.96283    1.000
    C97      C        0.33970    0.50620    0.94990    1.000
    C98      C        0.33030    0.47690    0.97710    1.000
    H62      H        0.33422    0.45620    0.95372    1.000
    C99      C        0.31290    0.47830    0.04730    1.000
    H63      H        0.30732    0.45769    0.06971    1.000
    C100     C        0.36060    0.50530    0.88350    1.000
    C101     C        0.38830    0.47410    0.80670    1.000
    C102     C        0.39200    0.53280    0.79720    1.000
    C103     C        0.67588    0.75790    0.56295    1.000
    H64      H        0.66394    0.76266    0.52113    1.000
    C104     C        0.71173    0.75790    0.56295    1.000
    H65      H        0.72368    0.76264    0.52113    1.000
    N10      N        0.37280    0.53550    0.85950    1.000
    N11      N        0.40110    0.50320    0.77260    1.000
    N12      N        0.36820    0.47390    0.86000    1.000
    O37      O        0.47390    0.65250    0.63980    1.000
    O38      O        0.44520    0.68302    0.72460    1.000
    O39      O        0.45539    0.34729    0.63910    1.000
    O40      O        0.42645    0.31790    0.72320    1.000
    O41      O        0.28090    0.48098    0.17720    1.000
    O42      O        0.28130    0.53863    0.17910    1.000
    O43      O        0.50962    0.73246    0.51590    1.000
    O44      O        0.50961    0.79270    0.55500    1.000
    O45      O        0.46460    0.71870    0.60110    1.000
    O46      O        0.55470    0.72032    0.60400    1.000
    O47      O        0.41000    0.76100    0.56070    1.000
    O48      O        0.61104    0.76200    0.55360    1.000
    H66      H        0.34805    0.74218    0.67047    1.000
    H67      H        0.34805    0.77291    0.61629    1.000
    H68      H        0.34805    0.73490    0.58824    1.000
    Zr13     Zr       0.81077    0.00994    0.91423    1.000
    Zr14     Zr       0.73612    0.05510    0.96505    1.000
    Zr15     Zr       0.73631    0.96476    0.96416    1.000
    C105     C        0.84360    0.95290    0.80980    1.000
    C106     C        0.87610    0.93660    0.77860    1.000
    C107     C        0.87560    0.91460    0.72130    1.000
    H69      H        0.85465    0.90874    0.70058    1.000
    C108     C        0.90500    0.90120    0.69430    1.000
    H70      H        0.90398    0.88815    0.65279    1.000
    C109     C        0.93560    0.90640    0.72620    1.000
    C110     C        0.93740    0.92730    0.78850    1.000
    H71      H        0.95804    0.93014    0.81302    1.000
    C111     C        0.90710    0.94360    0.81160    1.000
    H72      H        0.90793    0.95908    0.84932    1.000
    C112     C        0.15380    0.93530    0.80880    1.000
    C113     C        0.12220    0.92250    0.78290    1.000
    C114     C        0.09090    0.93140    0.81190    1.000
    H73      H        0.09028    0.94448    0.85341    1.000
    C115     C        0.06020    0.92110    0.77970    1.000
    H74      H        0.03968    0.93150    0.79382    1.000
    C116     C        0.05930    0.89810    0.73170    1.000
    C117     C        0.09000    0.88770    0.70200    1.000
    H75      H        0.08977    0.87206    0.66456    1.000
    C118     C        0.12020    0.89970    0.72590    1.000
    H76      H        0.14039    0.89253    0.70382    1.000
    C119     C        0.99030    0.78810    0.34760    1.000
    C120     C        0.99150    0.80450    0.41940    1.000
    C121     C        0.96040    0.81490    0.45430    1.000
    H77      H        0.93914    0.80992    0.43378    1.000
    C122     C        0.96190    0.83150    0.51550    1.000
    H78      H        0.94146    0.83811    0.53717    1.000
    C123     C        0.99380    0.83970    0.55010    1.000
    C124     C        0.02310    0.83030    0.52290    1.000
    H79      H        0.04380    0.83422    0.54628    1.000
    C125     C        0.02170    0.81290    0.45270    1.000
    H80      H        0.04231    0.80732    0.43029    1.000
    C126     C        0.99470    0.86060    0.61650    1.000
    C127     C        0.02590    0.88830    0.69330    1.000
    C128     C        0.96720    0.89200    0.70280    1.000
    C129     C        0.74210    0.17588    0.93705    1.000
    H81      H        0.73734    0.16394    0.97887    1.000
    C130     C        0.74210    0.21173    0.93705    1.000
    H82      H        0.73736    0.22368    0.97887    1.000
    N13      N        0.96450    0.87280    0.64050    1.000
    N14      N        0.99680    0.90110    0.72740    1.000
    N15      N        0.02610    0.86820    0.64000    1.000
    O49      O        0.84750    0.97390    0.86020    1.000
    O50      O        0.81698    0.94520    0.77540    1.000
    O51      O        0.15271    0.95539    0.86090    1.000
    O52      O        0.18210    0.92645    0.77680    1.000
    O53      O        0.01902    0.78090    0.32280    1.000
    O54      O        0.96137    0.78130    0.32090    1.000
    O55      O        0.76754    0.00962    0.98410    1.000
    O56      O        0.70730    0.00961    0.94500    1.000
    O57      O        0.78130    0.96460    0.89890    1.000
    O58      O        0.77968    0.05470    0.89600    1.000
    O59      O        0.73900    0.91000    0.93930    1.000
    O60      O        0.73800    0.11104    0.94640    1.000
    H83      H        0.75782    0.84805    0.82953    1.000
    H84      H        0.72709    0.84805    0.88371    1.000
    H85      H        0.76510    0.84805    0.91176    1.000
    Zr16     Zr       0.31077    0.50994    0.41423    1.000
    Zr17     Zr       0.23612    0.55510    0.46505    1.000
    Zr18     Zr       0.23631    0.46476    0.46416    1.000
    C131     C        0.34360    0.45290    0.30980    1.000
    C132     C        0.37610    0.43660    0.27860    1.000
    C133     C        0.37560    0.41460    0.22130    1.000
    H86      H        0.35465    0.40874    0.20058    1.000
    C134     C        0.40500    0.40120    0.19430    1.000
    H87      H        0.40398    0.38815    0.15279    1.000
    C135     C        0.43560    0.40640    0.22620    1.000
    C136     C        0.43740    0.42730    0.28850    1.000
    H88      H        0.45804    0.43014    0.31302    1.000
    C137     C        0.40710    0.44360    0.31160    1.000
    H89      H        0.40793    0.45908    0.34932    1.000
    C138     C        0.65380    0.43530    0.30880    1.000
    C139     C        0.62220    0.42250    0.28290    1.000
    C140     C        0.59090    0.43140    0.31190    1.000
    H90      H        0.59028    0.44448    0.35341    1.000
    C141     C        0.56020    0.42110    0.27970    1.000
    H91      H        0.53968    0.43150    0.29382    1.000
    C142     C        0.55930    0.39810    0.23170    1.000
    C143     C        0.59000    0.38770    0.20200    1.000
    H92      H        0.58977    0.37206    0.16456    1.000
    C144     C        0.62020    0.39970    0.22590    1.000
    H93      H        0.64039    0.39253    0.20382    1.000
    C145     C        0.49030    0.28810    0.84760    1.000
    C146     C        0.49150    0.30450    0.91940    1.000
    C147     C        0.46040    0.31490    0.95430    1.000
    H94      H        0.43914    0.30992    0.93378    1.000
    C148     C        0.46190    0.33150    0.01550    1.000
    H95      H        0.44146    0.33811    0.03717    1.000
    C149     C        0.49380    0.33970    0.05010    1.000
    C150     C        0.52310    0.33030    0.02290    1.000
    H96      H        0.54380    0.33422    0.04628    1.000
    C151     C        0.52170    0.31290    0.95270    1.000
    H97      H        0.54231    0.30732    0.93029    1.000
    C152     C        0.49470    0.36060    0.11650    1.000
    C153     C        0.52590    0.38830    0.19330    1.000
    C154     C        0.46720    0.39200    0.20280    1.000
    C155     C        0.24210    0.67588    0.43705    1.000
    H98      H        0.23734    0.66394    0.47887    1.000
    C156     C        0.24210    0.71173    0.43705    1.000
    H99      H        0.23736    0.72368    0.47887    1.000
    N16      N        0.46450    0.37280    0.14050    1.000
    N17      N        0.49680    0.40110    0.22740    1.000
    N18      N        0.52610    0.36820    0.14000    1.000
    O61      O        0.34750    0.47390    0.36020    1.000
    O62      O        0.31698    0.44520    0.27540    1.000
    O63      O        0.65271    0.45539    0.36090    1.000
    O64      O        0.68210    0.42645    0.27680    1.000
    O65      O        0.51902    0.28090    0.82280    1.000
    O66      O        0.46137    0.28130    0.82090    1.000
    O67      O        0.26754    0.50962    0.48410    1.000
    O68      O        0.20730    0.50961    0.44500    1.000
    O69      O        0.28130    0.46460    0.39890    1.000
    O70      O        0.27968    0.55470    0.39600    1.000
    O71      O        0.23900    0.41000    0.43930    1.000
    O72      O        0.23800    0.61104    0.44640    1.000
    H100     H        0.25782    0.34805    0.32953    1.000
    H101     H        0.22709    0.34805    0.38371    1.000
    H102     H        0.26510    0.34805    0.41176    1.000
    Zr19     Zr       0.18923    0.99006    0.91423    1.000
    Zr20     Zr       0.26388    0.94490    0.96505    1.000
    Zr21     Zr       0.26369    0.03524    0.96416    1.000
    C157     C        0.15640    0.04710    0.80980    1.000
    C158     C        0.12390    0.06340    0.77860    1.000
    C159     C        0.12440    0.08540    0.72130    1.000
    H103     H        0.14535    0.09126    0.70058    1.000
    C160     C        0.09500    0.09880    0.69430    1.000
    H104     H        0.09602    0.11185    0.65279    1.000
    C161     C        0.06440    0.09360    0.72620    1.000
    C162     C        0.06260    0.07270    0.78850    1.000
    H105     H        0.04196    0.06986    0.81302    1.000
    C163     C        0.09290    0.05640    0.81160    1.000
    H106     H        0.09207    0.04092    0.84932    1.000
    C164     C        0.84620    0.06470    0.80880    1.000
    C165     C        0.87780    0.07750    0.78290    1.000
    C166     C        0.90910    0.06860    0.81190    1.000
    H107     H        0.90972    0.05552    0.85341    1.000
    C167     C        0.93980    0.07890    0.77970    1.000
    H108     H        0.96032    0.06850    0.79382    1.000
    C168     C        0.94070    0.10190    0.73170    1.000
    C169     C        0.91000    0.11230    0.70200    1.000
    H109     H        0.91023    0.12794    0.66456    1.000
    C170     C        0.87980    0.10030    0.72590    1.000
    H110     H        0.85961    0.10747    0.70382    1.000
    C171     C        0.00970    0.21190    0.34760    1.000
    C172     C        0.00850    0.19550    0.41940    1.000
    C173     C        0.03960    0.18510    0.45430    1.000
    H111     H        0.06086    0.19008    0.43378    1.000
    C174     C        0.03810    0.16850    0.51550    1.000
    H112     H        0.05854    0.16189    0.53717    1.000
    C175     C        0.00620    0.16030    0.55010    1.000
    C176     C        0.97690    0.16970    0.52290    1.000
    H113     H        0.95620    0.16578    0.54628    1.000
    C177     C        0.97830    0.18710    0.45270    1.000
    H114     H        0.95769    0.19268    0.43029    1.000
    C178     C        0.00530    0.13940    0.61650    1.000
    C179     C        0.97410    0.11170    0.69330    1.000
    C180     C        0.03280    0.10800    0.70280    1.000
    C181     C        0.25790    0.82412    0.93705    1.000
    H115     H        0.26266    0.83606    0.97887    1.000
    C182     C        0.25790    0.78827    0.93705    1.000
    H116     H        0.26264    0.77632    0.97887    1.000
    N19      N        0.03550    0.12720    0.64050    1.000
    N20      N        0.00320    0.09890    0.72740    1.000
    N21      N        0.97390    0.13180    0.64000    1.000
    O73      O        0.15250    0.02610    0.86020    1.000
    O74      O        0.18302    0.05480    0.77540    1.000
    O75      O        0.84729    0.04461    0.86090    1.000
    O76      O        0.81790    0.07355    0.77680    1.000
    O77      O        0.98098    0.21910    0.32280    1.000
    O78      O        0.03863    0.21870    0.32090    1.000
    O79      O        0.23246    0.99038    0.98410    1.000
    O80      O        0.29270    0.99039    0.94500    1.000
    O81      O        0.21870    0.03540    0.89890    1.000
    O82      O        0.22032    0.94530    0.89600    1.000
    O83      O        0.26100    0.09000    0.93930    1.000
    O84      O        0.26200    0.88896    0.94640    1.000
    H117     H        0.24218    0.15195    0.82953    1.000
    H118     H        0.27291    0.15195    0.88371    1.000
    H119     H        0.23490    0.15195    0.91176    1.000
    Zr22     Zr       0.68923    0.49006    0.41423    1.000
    Zr23     Zr       0.76388    0.44490    0.46505    1.000
    Zr24     Zr       0.76369    0.53524    0.46416    1.000
    C183     C        0.65640    0.54710    0.30980    1.000
    C184     C        0.62390    0.56340    0.27860    1.000
    C185     C        0.62440    0.58540    0.22130    1.000
    H120     H        0.64535    0.59126    0.20058    1.000
    C186     C        0.59500    0.59880    0.19430    1.000
    H121     H        0.59602    0.61185    0.15279    1.000
    C187     C        0.56440    0.59360    0.22620    1.000
    C188     C        0.56260    0.57270    0.28850    1.000
    H122     H        0.54196    0.56986    0.31302    1.000
    C189     C        0.59290    0.55640    0.31160    1.000
    H123     H        0.59207    0.54092    0.34932    1.000
    C190     C        0.34620    0.56470    0.30880    1.000
    C191     C        0.37780    0.57750    0.28290    1.000
    C192     C        0.40910    0.56860    0.31190    1.000
    H124     H        0.40972    0.55552    0.35341    1.000
    C193     C        0.43980    0.57890    0.27970    1.000
    H125     H        0.46032    0.56850    0.29382    1.000
    C194     C        0.44070    0.60190    0.23170    1.000
    C195     C        0.41000    0.61230    0.20200    1.000
    H126     H        0.41023    0.62794    0.16456    1.000
    C196     C        0.37980    0.60030    0.22590    1.000
    H127     H        0.35961    0.60747    0.20382    1.000
    C197     C        0.50970    0.71190    0.84760    1.000
    C198     C        0.50850    0.69550    0.91940    1.000
    C199     C        0.53960    0.68510    0.95430    1.000
    H128     H        0.56086    0.69008    0.93378    1.000
    C200     C        0.53810    0.66850    0.01550    1.000
    H129     H        0.55854    0.66189    0.03717    1.000
    C201     C        0.50620    0.66030    0.05010    1.000
    C202     C        0.47690    0.66970    0.02290    1.000
    H130     H        0.45620    0.66578    0.04628    1.000
    C203     C        0.47830    0.68710    0.95270    1.000
    H131     H        0.45769    0.69268    0.93029    1.000
    C204     C        0.50530    0.63940    0.11650    1.000
    C205     C        0.47410    0.61170    0.19330    1.000
    C206     C        0.53280    0.60800    0.20280    1.000
    C207     C        0.75790    0.32412    0.43705    1.000
    H132     H        0.76266    0.33606    0.47887    1.000
    C208     C        0.75790    0.28827    0.43705    1.000
    H133     H        0.76264    0.27632    0.47887    1.000
    N22      N        0.53550    0.62720    0.14050    1.000
    N23      N        0.50320    0.59890    0.22740    1.000
    N24      N        0.47390    0.63180    0.14000    1.000
    O85      O        0.65250    0.52610    0.36020    1.000
    O86      O        0.68302    0.55480    0.27540    1.000
    O87      O        0.34729    0.54461    0.36090    1.000
    O88      O        0.31790    0.57355    0.27680    1.000
    O89      O        0.48098    0.71910    0.82280    1.000
    O90      O        0.53863    0.71870    0.82090    1.000
    O91      O        0.73246    0.49038    0.48410    1.000
    O92      O        0.79270    0.49039    0.44500    1.000
    O93      O        0.71870    0.53540    0.39890    1.000
    O94      O        0.72032    0.44530    0.39600    1.000
    O95      O        0.76100    0.59000    0.43930    1.000
    O96      O        0.76200    0.38896    0.44640    1.000
    H134     H        0.74218    0.65195    0.32953    1.000
    H135     H        0.77291    0.65195    0.38371    1.000
    H136     H        0.73490    0.65195    0.41176    1.000
    Zr25     Zr       0.50994    0.81077    0.66423    1.000
    Zr26     Zr       0.55510    0.73612    0.71505    1.000
    Zr27     Zr       0.46476    0.73631    0.71416    1.000
    C209     C        0.45290    0.84360    0.55980    1.000
    C210     C        0.43660    0.87610    0.52860    1.000
    C211     C        0.41460    0.87560    0.47130    1.000
    H137     H        0.40874    0.85465    0.45058    1.000
    C212     C        0.40120    0.90500    0.44430    1.000
    H138     H        0.38815    0.90398    0.40279    1.000
    C213     C        0.40640    0.93560    0.47620    1.000
    C214     C        0.42730    0.93740    0.53850    1.000
    H139     H        0.43014    0.95804    0.56302    1.000
    C215     C        0.44360    0.90710    0.56160    1.000
    H140     H        0.45908    0.90793    0.59932    1.000
    C216     C        0.43530    0.15380    0.55880    1.000
    C217     C        0.42250    0.12220    0.53290    1.000
    C218     C        0.43140    0.09090    0.56190    1.000
    H141     H        0.44448    0.09028    0.60341    1.000
    C219     C        0.42110    0.06020    0.52970    1.000
    H142     H        0.43150    0.03968    0.54382    1.000
    C220     C        0.39810    0.05930    0.48170    1.000
    C221     C        0.38770    0.09000    0.45200    1.000
    H143     H        0.37206    0.08977    0.41456    1.000
    C222     C        0.39970    0.12020    0.47590    1.000
    H144     H        0.39253    0.14039    0.45382    1.000
    C223     C        0.28810    0.99030    0.09760    1.000
    C224     C        0.30450    0.99150    0.16940    1.000
    C225     C        0.31490    0.96040    0.20430    1.000
    H145     H        0.30992    0.93914    0.18378    1.000
    C226     C        0.33150    0.96190    0.26550    1.000
    H146     H        0.33811    0.94146    0.28717    1.000
    C227     C        0.33970    0.99380    0.30010    1.000
    C228     C        0.33030    0.02310    0.27290    1.000
    H147     H        0.33422    0.04380    0.29628    1.000
    C229     C        0.31290    0.02170    0.20270    1.000
    H148     H        0.30732    0.04231    0.18029    1.000
    C230     C        0.36060    0.99470    0.36650    1.000
    C231     C        0.38830    0.02590    0.44330    1.000
    C232     C        0.39200    0.96720    0.45280    1.000
    C233     C        0.67588    0.74210    0.68705    1.000
    H149     H        0.66394    0.73734    0.72887    1.000
    C234     C        0.71173    0.74210    0.68705    1.000
    H150     H        0.72368    0.73736    0.72887    1.000
    N25      N        0.37280    0.96450    0.39050    1.000
    N26      N        0.40110    0.99680    0.47740    1.000
    N27      N        0.36820    0.02610    0.39000    1.000
    O97      O        0.47390    0.84750    0.61020    1.000
    O98      O        0.44520    0.81698    0.52540    1.000
    O99      O        0.45539    0.15271    0.61090    1.000
    O100     O        0.42645    0.18210    0.52680    1.000
    O101     O        0.28090    0.01902    0.07280    1.000
    O102     O        0.28130    0.96137    0.07090    1.000
    O103     O        0.50962    0.76754    0.73410    1.000
    O104     O        0.50961    0.70730    0.69500    1.000
    O105     O        0.46460    0.78130    0.64890    1.000
    O106     O        0.55470    0.77968    0.64600    1.000
    O107     O        0.41000    0.73900    0.68930    1.000
    O108     O        0.61104    0.73800    0.69640    1.000
    H151     H        0.34805    0.75782    0.57953    1.000
    H152     H        0.34805    0.72709    0.63371    1.000
    H153     H        0.34805    0.76510    0.66176    1.000
    Zr28     Zr       0.00994    0.31077    0.16423    1.000
    Zr29     Zr       0.05510    0.23612    0.21505    1.000
    Zr30     Zr       0.96476    0.23631    0.21416    1.000
    C235     C        0.95290    0.34360    0.05980    1.000
    C236     C        0.93660    0.37610    0.02860    1.000
    C237     C        0.91460    0.37560    0.97130    1.000
    H154     H        0.90874    0.35465    0.95058    1.000
    C238     C        0.90120    0.40500    0.94430    1.000
    H155     H        0.88815    0.40398    0.90279    1.000
    C239     C        0.90640    0.43560    0.97620    1.000
    C240     C        0.92730    0.43740    0.03850    1.000
    H156     H        0.93014    0.45804    0.06302    1.000
    C241     C        0.94360    0.40710    0.06160    1.000
    H157     H        0.95908    0.40793    0.09932    1.000
    C242     C        0.93530    0.65380    0.05880    1.000
    C243     C        0.92250    0.62220    0.03290    1.000
    C244     C        0.93140    0.59090    0.06190    1.000
    H158     H        0.94448    0.59028    0.10341    1.000
    C245     C        0.92110    0.56020    0.02970    1.000
    H159     H        0.93150    0.53968    0.04382    1.000
    C246     C        0.89810    0.55930    0.98170    1.000
    C247     C        0.88770    0.59000    0.95200    1.000
    H160     H        0.87206    0.58977    0.91456    1.000
    C248     C        0.89970    0.62020    0.97590    1.000
    H161     H        0.89253    0.64039    0.95382    1.000
    C249     C        0.78810    0.49030    0.59760    1.000
    C250     C        0.80450    0.49150    0.66940    1.000
    C251     C        0.81490    0.46040    0.70430    1.000
    H162     H        0.80992    0.43914    0.68378    1.000
    C252     C        0.83150    0.46190    0.76550    1.000
    H163     H        0.83811    0.44146    0.78717    1.000
    C253     C        0.83970    0.49380    0.80010    1.000
    C254     C        0.83030    0.52310    0.77290    1.000
    H164     H        0.83422    0.54380    0.79628    1.000
    C255     C        0.81290    0.52170    0.70270    1.000
    H165     H        0.80732    0.54231    0.68029    1.000
    C256     C        0.86060    0.49470    0.86650    1.000
    C257     C        0.88830    0.52590    0.94330    1.000
    C258     C        0.89200    0.46720    0.95280    1.000
    C259     C        0.17588    0.24210    0.18705    1.000
    H166     H        0.16394    0.23734    0.22887    1.000
    C260     C        0.21173    0.24210    0.18705    1.000
    H167     H        0.22368    0.23736    0.22887    1.000
    N28      N        0.87280    0.46450    0.89050    1.000
    N29      N        0.90110    0.49680    0.97740    1.000
    N30      N        0.86820    0.52610    0.89000    1.000
    O109     O        0.97390    0.34750    0.11020    1.000
    O110     O        0.94520    0.31698    0.02540    1.000
    O111     O        0.95539    0.65271    0.11090    1.000
    O112     O        0.92645    0.68210    0.02680    1.000
    O113     O        0.78090    0.51902    0.57280    1.000
    O114     O        0.78130    0.46137    0.57090    1.000
    O115     O        0.00962    0.26754    0.23410    1.000
    O116     O        0.00961    0.20730    0.19500    1.000
    O117     O        0.96460    0.28130    0.14890    1.000
    O118     O        0.05470    0.27968    0.14600    1.000
    O119     O        0.91000    0.23900    0.18930    1.000
    O120     O        0.11104    0.23800    0.19640    1.000
    H168     H        0.84805    0.25782    0.07953    1.000
    H169     H        0.84805    0.22709    0.13371    1.000
    H170     H        0.84805    0.26510    0.16176    1.000
    Zr31     Zr       0.49006    0.18923    0.66423    1.000
    Zr32     Zr       0.44490    0.26388    0.71505    1.000
    Zr33     Zr       0.53524    0.26369    0.71416    1.000
    C261     C        0.54710    0.15640    0.55980    1.000
    C262     C        0.56340    0.12390    0.52860    1.000
    C263     C        0.58540    0.12440    0.47130    1.000
    H171     H        0.59126    0.14535    0.45058    1.000
    C264     C        0.59880    0.09500    0.44430    1.000
    H172     H        0.61185    0.09602    0.40279    1.000
    C265     C        0.59360    0.06440    0.47620    1.000
    C266     C        0.57270    0.06260    0.53850    1.000
    H173     H        0.56986    0.04196    0.56302    1.000
    C267     C        0.55640    0.09290    0.56160    1.000
    H174     H        0.54092    0.09207    0.59932    1.000
    C268     C        0.56470    0.84620    0.55880    1.000
    C269     C        0.57750    0.87780    0.53290    1.000
    C270     C        0.56860    0.90910    0.56190    1.000
    H175     H        0.55552    0.90972    0.60341    1.000
    C271     C        0.57890    0.93980    0.52970    1.000
    H176     H        0.56850    0.96032    0.54382    1.000
    C272     C        0.60190    0.94070    0.48170    1.000
    C273     C        0.61230    0.91000    0.45200    1.000
    H177     H        0.62794    0.91023    0.41456    1.000
    C274     C        0.60030    0.87980    0.47590    1.000
    H178     H        0.60747    0.85961    0.45382    1.000
    C275     C        0.71190    0.00970    0.09760    1.000
    C276     C        0.69550    0.00850    0.16940    1.000
    C277     C        0.68510    0.03960    0.20430    1.000
    H179     H        0.69008    0.06086    0.18378    1.000
    C278     C        0.66850    0.03810    0.26550    1.000
    H180     H        0.66189    0.05854    0.28717    1.000
    C279     C        0.66030    0.00620    0.30010    1.000
    C280     C        0.66970    0.97690    0.27290    1.000
    H181     H        0.66578    0.95620    0.29628    1.000
    C281     C        0.68710    0.97830    0.20270    1.000
    H182     H        0.69268    0.95769    0.18029    1.000
    C282     C        0.63940    0.00530    0.36650    1.000
    C283     C        0.61170    0.97410    0.44330    1.000
    C284     C        0.60800    0.03280    0.45280    1.000
    C285     C        0.32412    0.25790    0.68705    1.000
    H183     H        0.33606    0.26266    0.72887    1.000
    C286     C        0.28827    0.25790    0.68705    1.000
    H184     H        0.27632    0.26264    0.72887    1.000
    N31      N        0.62720    0.03550    0.39050    1.000
    N32      N        0.59890    0.00320    0.47740    1.000
    N33      N        0.63180    0.97390    0.39000    1.000
    O121     O        0.52610    0.15250    0.61020    1.000
    O122     O        0.55480    0.18302    0.52540    1.000
    O123     O        0.54461    0.84729    0.61090    1.000
    O124     O        0.57355    0.81790    0.52680    1.000
    O125     O        0.71910    0.98098    0.07280    1.000
    O126     O        0.71870    0.03863    0.07090    1.000
    O127     O        0.49038    0.23246    0.73410    1.000
    O128     O        0.49039    0.29270    0.69500    1.000
    O129     O        0.53540    0.21870    0.64890    1.000
    O130     O        0.44530    0.22032    0.64600    1.000
    O131     O        0.59000    0.26100    0.68930    1.000
    O132     O        0.38896    0.26200    0.69640    1.000
    H185     H        0.65195    0.24218    0.57953    1.000
    H186     H        0.65195    0.27291    0.63371    1.000
    H187     H        0.65195    0.23490    0.66176    1.000
    Zr34     Zr       0.99006    0.68923    0.16423    1.000
    Zr35     Zr       0.94490    0.76388    0.21505    1.000
    Zr36     Zr       0.03524    0.76369    0.21416    1.000
    C287     C        0.04710    0.65640    0.05980    1.000
    C288     C        0.06340    0.62390    0.02860    1.000
    C289     C        0.08540    0.62440    0.97130    1.000
    H188     H        0.09126    0.64535    0.95058    1.000
    C290     C        0.09880    0.59500    0.94430    1.000
    H189     H        0.11185    0.59602    0.90279    1.000
    C291     C        0.09360    0.56440    0.97620    1.000
    C292     C        0.07270    0.56260    0.03850    1.000
    H190     H        0.06986    0.54196    0.06302    1.000
    C293     C        0.05640    0.59290    0.06160    1.000
    H191     H        0.04092    0.59207    0.09932    1.000
    C294     C        0.06470    0.34620    0.05880    1.000
    C295     C        0.07750    0.37780    0.03290    1.000
    C296     C        0.06860    0.40910    0.06190    1.000
    H192     H        0.05552    0.40972    0.10341    1.000
    C297     C        0.07890    0.43980    0.02970    1.000
    H193     H        0.06850    0.46032    0.04382    1.000
    C298     C        0.10190    0.44070    0.98170    1.000
    C299     C        0.11230    0.41000    0.95200    1.000
    H194     H        0.12794    0.41023    0.91456    1.000
    C300     C        0.10030    0.37980    0.97590    1.000
    H195     H        0.10747    0.35961    0.95382    1.000
    C301     C        0.21190    0.50970    0.59760    1.000
    C302     C        0.19550    0.50850    0.66940    1.000
    C303     C        0.18510    0.53960    0.70430    1.000
    H196     H        0.19008    0.56086    0.68378    1.000
    C304     C        0.16850    0.53810    0.76550    1.000
    H197     H        0.16189    0.55854    0.78717    1.000
    C305     C        0.16030    0.50620    0.80010    1.000
    C306     C        0.16970    0.47690    0.77290    1.000
    H198     H        0.16578    0.45620    0.79628    1.000
    C307     C        0.18710    0.47830    0.70270    1.000
    H199     H        0.19268    0.45769    0.68029    1.000
    C308     C        0.13940    0.50530    0.86650    1.000
    C309     C        0.11170    0.47410    0.94330    1.000
    C310     C        0.10800    0.53280    0.95280    1.000
    C311     C        0.82412    0.75790    0.18705    1.000
    H200     H        0.83606    0.76266    0.22887    1.000
    C312     C        0.78827    0.75790    0.18705    1.000
    H201     H        0.77632    0.76264    0.22887    1.000
    N34      N        0.12720    0.53550    0.89050    1.000
    N35      N        0.09890    0.50320    0.97740    1.000
    N36      N        0.13180    0.47390    0.89000    1.000
    O133     O        0.02610    0.65250    0.11020    1.000
    O134     O        0.05480    0.68302    0.02540    1.000
    O135     O        0.04461    0.34729    0.11090    1.000
    O136     O        0.07355    0.31790    0.02680    1.000
    O137     O        0.21910    0.48098    0.57280    1.000
    O138     O        0.21870    0.53863    0.57090    1.000
    O139     O        0.99038    0.73246    0.23410    1.000
    O140     O        0.99039    0.79270    0.19500    1.000
    O141     O        0.03540    0.71870    0.14890    1.000
    O142     O        0.94530    0.72032    0.14600    1.000
    O143     O        0.09000    0.76100    0.18930    1.000
    O144     O        0.88896    0.76200    0.19640    1.000
    H202     H        0.15195    0.74218    0.07953    1.000
    H203     H        0.15195    0.77291    0.13371    1.000
    H204     H        0.15195    0.73490    0.16176    1.000
    Zr37     Zr       0.68923    0.00994    0.83577    1.000
    Zr38     Zr       0.76388    0.05510    0.78495    1.000
    Zr39     Zr       0.76369    0.96476    0.78584    1.000
    C313     C        0.65640    0.95290    0.94020    1.000
    C314     C        0.62390    0.93660    0.97140    1.000
    C315     C        0.62440    0.91460    0.02870    1.000
    H205     H        0.64535    0.90874    0.04942    1.000
    C316     C        0.59500    0.90120    0.05570    1.000
    H206     H        0.59602    0.88815    0.09721    1.000
    C317     C        0.56440    0.90640    0.02380    1.000
    C318     C        0.56260    0.92730    0.96150    1.000
    H207     H        0.54196    0.93014    0.93698    1.000
    C319     C        0.59290    0.94360    0.93840    1.000
    H208     H        0.59207    0.95908    0.90068    1.000
    C320     C        0.34620    0.93530    0.94120    1.000
    C321     C        0.37780    0.92250    0.96710    1.000
    C322     C        0.40910    0.93140    0.93810    1.000
    H209     H        0.40972    0.94448    0.89659    1.000
    C323     C        0.43980    0.92110    0.97030    1.000
    H210     H        0.46032    0.93150    0.95618    1.000
    C324     C        0.44070    0.89810    0.01830    1.000
    C325     C        0.41000    0.88770    0.04800    1.000
    H211     H        0.41023    0.87206    0.08544    1.000
    C326     C        0.37980    0.89970    0.02410    1.000
    H212     H        0.35961    0.89253    0.04618    1.000
    C327     C        0.50970    0.78810    0.40240    1.000
    C328     C        0.50850    0.80450    0.33060    1.000
    C329     C        0.53960    0.81490    0.29570    1.000
    H213     H        0.56086    0.80992    0.31622    1.000
    C330     C        0.53810    0.83150    0.23450    1.000
    H214     H        0.55854    0.83811    0.21283    1.000
    C331     C        0.50620    0.83970    0.19990    1.000
    C332     C        0.47690    0.83030    0.22710    1.000
    H215     H        0.45620    0.83422    0.20372    1.000
    C333     C        0.47830    0.81290    0.29730    1.000
    H216     H        0.45769    0.80732    0.31971    1.000
    C334     C        0.50530    0.86060    0.13350    1.000
    C335     C        0.47410    0.88830    0.05670    1.000
    C336     C        0.53280    0.89200    0.04720    1.000
    C337     C        0.75790    0.17588    0.81295    1.000
    H217     H        0.76266    0.16394    0.77113    1.000
    C338     C        0.75790    0.21173    0.81295    1.000
    H218     H        0.76264    0.22368    0.77113    1.000
    N37      N        0.53550    0.87280    0.10950    1.000
    N38      N        0.50320    0.90110    0.02260    1.000
    N39      N        0.47390    0.86820    0.11000    1.000
    O145     O        0.65250    0.97390    0.88980    1.000
    O146     O        0.68302    0.94520    0.97460    1.000
    O147     O        0.34729    0.95539    0.88910    1.000
    O148     O        0.31790    0.92645    0.97320    1.000
    O149     O        0.48098    0.78090    0.42720    1.000
    O150     O        0.53863    0.78130    0.42910    1.000
    O151     O        0.73246    0.00962    0.76590    1.000
    O152     O        0.79270    0.00961    0.80500    1.000
    O153     O        0.71870    0.96460    0.85110    1.000
    O154     O        0.72032    0.05470    0.85400    1.000
    O155     O        0.76100    0.91000    0.81070    1.000
    O156     O        0.76200    0.11104    0.80360    1.000
    H219     H        0.74218    0.84805    0.92047    1.000
    H220     H        0.77291    0.84805    0.86629    1.000
    H221     H        0.73490    0.84805    0.83824    1.000
    Zr40     Zr       0.18923    0.50994    0.33577    1.000
    Zr41     Zr       0.26388    0.55510    0.28495    1.000
    Zr42     Zr       0.26369    0.46476    0.28584    1.000
    C339     C        0.15640    0.45290    0.44020    1.000
    C340     C        0.12390    0.43660    0.47140    1.000
    C341     C        0.12440    0.41460    0.52870    1.000
    H222     H        0.14535    0.40874    0.54942    1.000
    C342     C        0.09500    0.40120    0.55570    1.000
    H223     H        0.09602    0.38815    0.59721    1.000
    C343     C        0.06440    0.40640    0.52380    1.000
    C344     C        0.06260    0.42730    0.46150    1.000
    H224     H        0.04196    0.43014    0.43698    1.000
    C345     C        0.09290    0.44360    0.43840    1.000
    H225     H        0.09207    0.45908    0.40068    1.000
    C346     C        0.84620    0.43530    0.44120    1.000
    C347     C        0.87780    0.42250    0.46710    1.000
    C348     C        0.90910    0.43140    0.43810    1.000
    H226     H        0.90972    0.44448    0.39659    1.000
    C349     C        0.93980    0.42110    0.47030    1.000
    H227     H        0.96032    0.43150    0.45618    1.000
    C350     C        0.94070    0.39810    0.51830    1.000
    C351     C        0.91000    0.38770    0.54800    1.000
    H228     H        0.91023    0.37206    0.58544    1.000
    C352     C        0.87980    0.39970    0.52410    1.000
    H229     H        0.85961    0.39253    0.54618    1.000
    C353     C        0.00970    0.28810    0.90240    1.000
    C354     C        0.00850    0.30450    0.83060    1.000
    C355     C        0.03960    0.31490    0.79570    1.000
    H230     H        0.06086    0.30992    0.81622    1.000
    C356     C        0.03810    0.33150    0.73450    1.000
    H231     H        0.05854    0.33811    0.71283    1.000
    C357     C        0.00620    0.33970    0.69990    1.000
    C358     C        0.97690    0.33030    0.72710    1.000
    H232     H        0.95620    0.33422    0.70372    1.000
    C359     C        0.97830    0.31290    0.79730    1.000
    H233     H        0.95769    0.30732    0.81971    1.000
    C360     C        0.00530    0.36060    0.63350    1.000
    C361     C        0.97410    0.38830    0.55670    1.000
    C362     C        0.03280    0.39200    0.54720    1.000
    C363     C        0.25790    0.67588    0.31295    1.000
    H234     H        0.26266    0.66394    0.27113    1.000
    C364     C        0.25790    0.71173    0.31295    1.000
    H235     H        0.26264    0.72368    0.27113    1.000
    N40      N        0.03550    0.37280    0.60950    1.000
    N41      N        0.00320    0.40110    0.52260    1.000
    N42      N        0.97390    0.36820    0.61000    1.000
    O157     O        0.15250    0.47390    0.38980    1.000
    O158     O        0.18302    0.44520    0.47460    1.000
    O159     O        0.84729    0.45539    0.38910    1.000
    O160     O        0.81790    0.42645    0.47320    1.000
    O161     O        0.98098    0.28090    0.92720    1.000
    O162     O        0.03863    0.28130    0.92910    1.000
    O163     O        0.23246    0.50962    0.26590    1.000
    O164     O        0.29270    0.50961    0.30500    1.000
    O165     O        0.21870    0.46460    0.35110    1.000
    O166     O        0.22032    0.55470    0.35400    1.000
    O167     O        0.26100    0.41000    0.31070    1.000
    O168     O        0.26200    0.61104    0.30360    1.000
    H236     H        0.24218    0.34805    0.42047    1.000
    H237     H        0.27291    0.34805    0.36629    1.000
    H238     H        0.23490    0.34805    0.33824    1.000
    Zr43     Zr       0.31077    0.99006    0.83577    1.000
    Zr44     Zr       0.23612    0.94490    0.78495    1.000
    Zr45     Zr       0.23631    0.03524    0.78584    1.000
    C365     C        0.34360    0.04710    0.94020    1.000
    C366     C        0.37610    0.06340    0.97140    1.000
    C367     C        0.37560    0.08540    0.02870    1.000
    H239     H        0.35465    0.09126    0.04942    1.000
    C368     C        0.40500    0.09880    0.05570    1.000
    H240     H        0.40398    0.11185    0.09721    1.000
    C369     C        0.43560    0.09360    0.02380    1.000
    C370     C        0.43740    0.07270    0.96150    1.000
    H241     H        0.45804    0.06986    0.93698    1.000
    C371     C        0.40710    0.05640    0.93840    1.000
    H242     H        0.40793    0.04092    0.90068    1.000
    C372     C        0.65380    0.06470    0.94120    1.000
    C373     C        0.62220    0.07750    0.96710    1.000
    C374     C        0.59090    0.06860    0.93810    1.000
    H243     H        0.59028    0.05552    0.89659    1.000
    C375     C        0.56020    0.07890    0.97030    1.000
    H244     H        0.53968    0.06850    0.95618    1.000
    C376     C        0.55930    0.10190    0.01830    1.000
    C377     C        0.59000    0.11230    0.04800    1.000
    H245     H        0.58977    0.12794    0.08544    1.000
    C378     C        0.62020    0.10030    0.02410    1.000
    H246     H        0.64039    0.10747    0.04618    1.000
    C379     C        0.49030    0.21190    0.40240    1.000
    C380     C        0.49150    0.19550    0.33060    1.000
    C381     C        0.46040    0.18510    0.29570    1.000
    H247     H        0.43914    0.19008    0.31622    1.000
    C382     C        0.46190    0.16850    0.23450    1.000
    H248     H        0.44146    0.16189    0.21283    1.000
    C383     C        0.49380    0.16030    0.19990    1.000
    C384     C        0.52310    0.16970    0.22710    1.000
    H249     H        0.54380    0.16578    0.20372    1.000
    C385     C        0.52170    0.18710    0.29730    1.000
    H250     H        0.54231    0.19268    0.31971    1.000
    C386     C        0.49470    0.13940    0.13350    1.000
    C387     C        0.52590    0.11170    0.05670    1.000
    C388     C        0.46720    0.10800    0.04720    1.000
    C389     C        0.24210    0.82412    0.81295    1.000
    H251     H        0.23734    0.83606    0.77113    1.000
    C390     C        0.24210    0.78827    0.81295    1.000
    H252     H        0.23736    0.77632    0.77113    1.000
    N43      N        0.46450    0.12720    0.10950    1.000
    N44      N        0.49680    0.09890    0.02260    1.000
    N45      N        0.52610    0.13180    0.11000    1.000
    O169     O        0.34750    0.02610    0.88980    1.000
    O170     O        0.31698    0.05480    0.97460    1.000
    O171     O        0.65271    0.04461    0.88910    1.000
    O172     O        0.68210    0.07355    0.97320    1.000
    O173     O        0.51902    0.21910    0.42720    1.000
    O174     O        0.46137    0.21870    0.42910    1.000
    O175     O        0.26754    0.99038    0.76590    1.000
    O176     O        0.20730    0.99039    0.80500    1.000
    O177     O        0.28130    0.03540    0.85110    1.000
    O178     O        0.27968    0.94530    0.85400    1.000
    O179     O        0.23900    0.09000    0.81070    1.000
    O180     O        0.23800    0.88896    0.80360    1.000
    H253     H        0.25782    0.15195    0.92047    1.000
    H254     H        0.22709    0.15195    0.86629    1.000
    H255     H        0.26510    0.15195    0.83824    1.000
    Zr46     Zr       0.81077    0.49006    0.33577    1.000
    Zr47     Zr       0.73612    0.44490    0.28495    1.000
    Zr48     Zr       0.73631    0.53524    0.28584    1.000
    C391     C        0.84360    0.54710    0.44020    1.000
    C392     C        0.87610    0.56340    0.47140    1.000
    C393     C        0.87560    0.58540    0.52870    1.000
    H256     H        0.85465    0.59126    0.54942    1.000
    C394     C        0.90500    0.59880    0.55570    1.000
    H257     H        0.90398    0.61185    0.59721    1.000
    C395     C        0.93560    0.59360    0.52380    1.000
    C396     C        0.93740    0.57270    0.46150    1.000
    H258     H        0.95804    0.56986    0.43698    1.000
    C397     C        0.90710    0.55640    0.43840    1.000
    H259     H        0.90793    0.54092    0.40068    1.000
    C398     C        0.15380    0.56470    0.44120    1.000
    C399     C        0.12220    0.57750    0.46710    1.000
    C400     C        0.09090    0.56860    0.43810    1.000
    H260     H        0.09028    0.55552    0.39659    1.000
    C401     C        0.06020    0.57890    0.47030    1.000
    H261     H        0.03968    0.56850    0.45618    1.000
    C402     C        0.05930    0.60190    0.51830    1.000
    C403     C        0.09000    0.61230    0.54800    1.000
    H262     H        0.08977    0.62794    0.58544    1.000
    C404     C        0.12020    0.60030    0.52410    1.000
    H263     H        0.14039    0.60747    0.54618    1.000
    C405     C        0.99030    0.71190    0.90240    1.000
    C406     C        0.99150    0.69550    0.83060    1.000
    C407     C        0.96040    0.68510    0.79570    1.000
    H264     H        0.93914    0.69008    0.81622    1.000
    C408     C        0.96190    0.66850    0.73450    1.000
    H265     H        0.94146    0.66189    0.71283    1.000
    C409     C        0.99380    0.66030    0.69990    1.000
    C410     C        0.02310    0.66970    0.72710    1.000
    H266     H        0.04380    0.66578    0.70372    1.000
    C411     C        0.02170    0.68710    0.79730    1.000
    H267     H        0.04231    0.69268    0.81971    1.000
    C412     C        0.99470    0.63940    0.63350    1.000
    C413     C        0.02590    0.61170    0.55670    1.000
    C414     C        0.96720    0.60800    0.54720    1.000
    C415     C        0.74210    0.32412    0.31295    1.000
    H268     H        0.73734    0.33606    0.27113    1.000
    C416     C        0.74210    0.28827    0.31295    1.000
    H269     H        0.73736    0.27632    0.27113    1.000
    N46      N        0.96450    0.62720    0.60950    1.000
    N47      N        0.99680    0.59890    0.52260    1.000
    N48      N        0.02610    0.63180    0.61000    1.000
    O181     O        0.84750    0.52610    0.38980    1.000
    O182     O        0.81698    0.55480    0.47460    1.000
    O183     O        0.15271    0.54461    0.38910    1.000
    O184     O        0.18210    0.57355    0.47320    1.000
    O185     O        0.01902    0.71910    0.92720    1.000
    O186     O        0.96137    0.71870    0.92910    1.000
    O187     O        0.76754    0.49038    0.26590    1.000
    O188     O        0.70730    0.49039    0.30500    1.000
    O189     O        0.78130    0.53540    0.35110    1.000
    O190     O        0.77968    0.44530    0.35400    1.000
    O191     O        0.73900    0.59000    0.31070    1.000
    O192     O        0.73800    0.38896    0.30360    1.000
    H270     H        0.75782    0.65195    0.42047    1.000
    H271     H        0.72709    0.65195    0.36629    1.000
    H272     H        0.76510    0.65195    0.33824    1.000
    C417     C        0.10640    0.75000    0.12500    1.000
    C418     C        0.14370    0.75000    0.12500    1.000
    C419     C        0.88090    0.75000    0.12500    1.000
    C420     C        0.84210    0.75000    0.12500    1.000
    C421     C        0.77029    0.75000    0.12500    1.000
    H273     H        0.74636    0.75000    0.12500    1.000
    C422     C        0.89360    0.25000    0.12500    1.000
    C423     C        0.85630    0.25000    0.12500    1.000
    C424     C        0.11910    0.25000    0.12500    1.000
    C425     C        0.15790    0.25000    0.12500    1.000
    C426     C        0.22971    0.25000    0.12500    1.000
    H274     H        0.25364    0.25000    0.12500    1.000
    C427     C        0.75000    0.89360    0.87500    1.000
    C428     C        0.75000    0.85630    0.87500    1.000
    C429     C        0.75000    0.11910    0.87500    1.000
    C430     C        0.75000    0.15790    0.87500    1.000
    C431     C        0.75000    0.22971    0.87500    1.000
    H275     H        0.75000    0.25364    0.87500    1.000
    C432     C        0.25000    0.39360    0.37500    1.000
    C433     C        0.25000    0.35630    0.37500    1.000
    C434     C        0.25000    0.61910    0.37500    1.000
    C435     C        0.25000    0.65790    0.37500    1.000
    C436     C        0.25000    0.72971    0.37500    1.000
    H276     H        0.25000    0.75364    0.37500    1.000
    C437     C        0.25000    0.10640    0.87500    1.000
    C438     C        0.25000    0.14370    0.87500    1.000
    C439     C        0.25000    0.88090    0.87500    1.000
    C440     C        0.25000    0.84210    0.87500    1.000
    C441     C        0.25000    0.77029    0.87500    1.000
    H277     H        0.25000    0.74636    0.87500    1.000
    C442     C        0.75000    0.60640    0.37500    1.000
    C443     C        0.75000    0.64370    0.37500    1.000
    C444     C        0.75000    0.38090    0.37500    1.000
    C445     C        0.75000    0.34210    0.37500    1.000
    C446     C        0.75000    0.27029    0.37500    1.000
    H278     H        0.75000    0.24636    0.37500    1.000
    C447     C        0.39360    0.75000    0.62500    1.000
    C448     C        0.35630    0.75000    0.62500    1.000
    C449     C        0.61910    0.75000    0.62500    1.000
    C450     C        0.65790    0.75000    0.62500    1.000
    C451     C        0.72971    0.75000    0.62500    1.000
    H279     H        0.75364    0.75000    0.62500    1.000
    C452     C        0.60640    0.25000    0.62500    1.000
    C453     C        0.64370    0.25000    0.62500    1.000
    C454     C        0.38090    0.25000    0.62500    1.000
    C455     C        0.34210    0.25000    0.62500    1.000
    C456     C        0.27029    0.25000    0.62500    1.000
    H280     H        0.24636    0.25000    0.62500    1.000
