# CIF file generated by openbabel 3.1.0, see https://openbabel.org
data_I
_chemical_name_common 'image0'
_cell_length_a 11.127
_cell_length_b 7.087
_cell_length_c 6.5183
_cell_angle_alpha 90
_cell_angle_beta 109.334
_cell_angle_gamma 90
_space_group_name_H-M_alt 'P 1'
_space_group_name_Hall 'P 1'
loop_
    _symmetry_equiv_pos_as_xyz
    x,y,z
loop_
    _atom_site_label
    _atom_site_type_symbol
    _atom_site_fract_x
    _atom_site_fract_y
    _atom_site_fract_z
    _atom_site_occupancy
    O1       O        0.00720    0.78850    0.33400    1.000
    O2       O        0.83060    0.83800    0.88600    1.000
    O3       O        0.65480    0.98300    0.88000    1.000
    C1       C        0.76330    0.93500    0.96600    1.000
    H1       H        0.80190    0.97600    0.10800    1.000
    O4       O        0.50720    0.28850    0.33400    1.000
    O5       O        0.33060    0.33800    0.88600    1.000
    O6       O        0.15480    0.48300    0.88000    1.000
    C2       C        0.26330    0.43500    0.96600    1.000
    H2       H        0.30190    0.47600    0.10800    1.000
    O7       O        0.99280    0.78850    0.66600    1.000
    O8       O        0.16940    0.83800    0.11400    1.000
    O9       O        0.34520    0.98300    0.12000    1.000
    C3       C        0.23670    0.93500    0.03400    1.000
    H3       H        0.19810    0.97600    0.89200    1.000
    O10      O        0.49280    0.28850    0.66600    1.000
    O11      O        0.66940    0.33800    0.11400    1.000
    O12      O        0.84520    0.48300    0.12000    1.000
    C4       C        0.73670    0.43500    0.03400    1.000
    H4       H        0.69810    0.47600    0.89200    1.000
    Yb1      Yb       0.00000    0.64300    0.00000    1.000
    Yb2      Yb       0.50000    0.14300    0.00000    1.000
    C5       C        0.00000    0.70800    0.50000    1.000
    H5       H        0.00000    0.57660    0.50000    1.000
    C6       C        0.50000    0.20800    0.50000    1.000
    H6       H        0.50000    0.07660    0.50000    1.000
