data_functionalizedCrystal
_audit_creation_method	'EQeq! by Chris Wilmer'
_symmetry_space_group_name_H-M	'P1'
_symmetry_Int_Tables_number	1
_symmetry_cell_setting	triclinic
loop_
_symmetry_equiv_pos_as_xyz
  x,y,z
_cell_length_a	8.8102
_cell_length_b	15.6323
_cell_length_c	16.3592
_cell_angle_alpha	103.544
_cell_angle_beta	100.811
_cell_angle_gamma	90.1909
loop_
_atom_site_label
_atom_site_type_symbol
_atom_site_fract_x
_atom_site_fract_y
_atom_site_fract_z
_atom_site_charge
Mof_Co	Co	0.35538	0.95035	0.35973	1.181
Mof_Co	Co	0.81166	0.79012	0.73236	1.145
Mof_Co	Co	0.64462	0.04965	0.64027	1.181
Mof_Co	Co	0.18834	0.20988	0.26764	1.145
Mof_H 	H 	0.3705	0.828	0.7549	0.044
Mof_H 	H 	0.0741	0.0028	0.6043	0.045
Mof_H 	H 	0.2639	0.9569	0.1642	0.011
Mof_H 	H 	0.3477	0.9184	0.0373	0.109
Mof_H 	H 	0.737	0.8471	0.1639	0.09
Mof_H 	H 	0.6343	0.8773	0.2842	0.001
Mof_H 	H 	0.1484	0.791	0.2448	0.004
Mof_H 	H 	0.112	0.642	0.2251	0.076
Mof_H 	H 	0.467	0.6515	0.419	0.074
Mof_H 	H 	0.489	0.7999	0.4359	0.016
Mof_H 	H 	0.16	0.5017	0.181	0.078
Mof_H 	H 	0.1293	0.3527	0.1674	-0.001
Mof_H 	H 	0.3273	0.3743	0.4031	-0.022
Mof_H 	H 	0.3619	0.5232	0.4248	0.08
Mof_H 	H 	0.8127	0.937	0.0474	0.097
Mof_H 	H 	0.9015	0.9007	0.9198	0.018
Mof_H 	H 	0.5513	0.7349	0.8143	-0.003
Mof_H 	H 	0.4454	0.7721	0.9345	0.091
Mof_H 	H 	0.6295	0.172	0.2451	0.043
Mof_H 	H 	0.9259	0.9972	0.3957	0.044
Mof_H 	H 	0.7361	0.0431	0.8358	0.01
Mof_H 	H 	0.6523	0.0816	0.9627	0.108
Mof_H 	H 	0.263	0.1529	0.8361	0.089
Mof_H 	H 	0.3657	0.1227	0.7158	0
Mof_H 	H 	0.8516	0.209	0.7552	0.003
Mof_H 	H 	0.888	0.358	0.7749	0.075
Mof_H 	H 	0.533	0.3485	0.581	0.074
Mof_H 	H 	0.511	0.2001	0.5641	0.016
Mof_H 	H 	0.84	0.4983	0.819	0.078
Mof_H 	H 	0.8707	0.6473	0.8326	-0.001
Mof_H 	H 	0.6727	0.6257	0.5969	-0.022
Mof_H 	H 	0.6381	0.4768	0.5752	0.08
Mof_H 	H 	0.1873	0.063	0.9526	0.097
Mof_H 	H 	0.0985	0.0993	0.0802	0.018
Mof_H 	H 	0.4487	0.2651	0.1857	-0.003
Mof_H 	H 	0.5546	0.2279	0.0655	0.091
Mof_C 	C 	0.331	0.98447	0.54857	0.354
Mof_C 	C 	0.5301	0.86696	0.6485	0.348
Mof_C 	C 	0.1239	0.85563	0.81836	0.31
Mof_C 	C 	0.9244	0.97048	0.71873	0.344
Mof_C 	C 	0.2794	0.94615	0.61589	-0.077
Mof_C 	C 	0.3692	0.89303	0.66261	-0.074
Mof_C 	C 	0.3115	0.86448	0.72536	0.009
Mof_C 	C 	0.169	0.8882	0.74588	-0.068
Mof_C 	C 	0.0799	0.94169	0.70012	-0.088
Mof_C 	C 	0.1354	0.96857	0.63553	0.021
Mof_C 	C 	0.3598	0.9324	0.16402	0.094
Mof_C 	C 	0.4105	0.9111	0.0874	-0.153
Mof_C 	C 	0.5567	0.87858	0.08583	0.078
Mof_C 	C 	0.6379	0.868	0.16133	-0.149
Mof_C 	C 	0.5761	0.8876	0.23409	0.092
Mof_C 	C 	0.2139	0.76247	0.2803	0.08
Mof_C 	C 	0.1915	0.67264	0.2678	-0.13
Mof_C 	C 	0.2884	0.62795	0.31922	0.052
Mof_C 	C 	0.4003	0.67821	0.38242	-0.128
Mof_C 	C 	0.4138	0.76753	0.39174	0.076
Mof_C 	C 	0.2666	0.53119	0.3073	0.065
Mof_C 	C 	0.1949	0.4775	0.2276	-0.139
Mof_C 	C 	0.1775	0.3878	0.2201	0.081
Mof_C 	C 	0.2925	0.3999	0.3575	0.093
Mof_C 	C 	0.314	0.4902	0.371	-0.151
Mof_C 	C 	0.6182	0.85659	0.00555	0.061
Mof_C 	C 	0.7567	0.8963	0.0004	-0.134
Mof_C 	C 	0.8096	0.8737	0.9233	0.079
Mof_C 	C 	0.6035	0.7774	0.86105	0.087
Mof_C 	C 	0.5403	0.7979	0.934	-0.139
Mof_C 	C 	0.669	0.01553	0.45143	0.354
Mof_C 	C 	0.4699	0.13304	0.3515	0.348
Mof_C 	C 	0.8761	0.14437	0.18164	0.31
Mof_C 	C 	0.0756	0.02952	0.28127	0.344
Mof_C 	C 	0.7206	0.05385	0.38411	-0.077
Mof_C 	C 	0.6308	0.10697	0.33739	-0.074
Mof_C 	C 	0.6885	0.13552	0.27464	0.009
Mof_C 	C 	0.831	0.1118	0.25412	-0.068
Mof_C 	C 	0.9201	0.05831	0.29988	-0.088
Mof_C 	C 	0.8646	0.03143	0.36447	0.021
Mof_C 	C 	0.6402	0.0676	0.83598	0.094
Mof_C 	C 	0.5895	0.0889	0.9126	-0.153
Mof_C 	C 	0.4433	0.12142	0.91417	0.078
Mof_C 	C 	0.3621	0.132	0.83867	-0.149
Mof_C 	C 	0.4239	0.1124	0.76591	0.092
Mof_C 	C 	0.7861	0.23753	0.7197	0.08
Mof_C 	C 	0.8085	0.32736	0.7322	-0.13
Mof_C 	C 	0.7116	0.37205	0.68078	0.052
Mof_C 	C 	0.5997	0.32179	0.61758	-0.128
Mof_C 	C 	0.5862	0.23247	0.60826	0.076
Mof_C 	C 	0.7334	0.46881	0.6927	0.065
Mof_C 	C 	0.8051	0.5225	0.7724	-0.139
Mof_C 	C 	0.8225	0.6122	0.7799	0.081
Mof_C 	C 	0.7075	0.6001	0.6425	0.093
Mof_C 	C 	0.686	0.5098	0.629	-0.151
Mof_C 	C 	0.3818	0.14341	0.99445	0.061
Mof_C 	C 	0.2433	0.1037	0.9996	-0.134
Mof_C 	C 	0.1904	0.1263	0.0767	0.079
Mof_C 	C 	0.3965	0.2226	0.13895	0.087
Mof_C 	C 	0.4597	0.2021	0.066	-0.139
Mof_N 	N 	0.438	0.92032	0.23717	-0.23
Mof_N 	N 	0.3245	0.81053	0.34061	-0.221
Mof_N 	N 	0.226	0.34857	0.28418	-0.245
Mof_N 	N 	0.7339	0.81458	0.85372	-0.222
Mof_N 	N 	0.562	0.07968	0.76283	-0.23
Mof_N 	N 	0.6755	0.18947	0.65939	-0.221
Mof_N 	N 	0.774	0.65143	0.71582	-0.245
Mof_N 	N 	0.2661	0.18542	0.14628	-0.222
Mof_O 	O 	0.27066	0.95057	0.47267	-0.383
Mof_O 	O 	0.42235	0.05243	0.57379	-0.411
Mof_O 	O 	0.58203	0.80102	0.67447	-0.419
Mof_O 	O 	0.60176	0.9117	0.61239	-0.413
Mof_O 	O 	0.1828	0.89484	0.89237	-0.255
Mof_O 	O 	0.03507	0.78621	0.79921	-0.399
Mof_O 	O 	0.87277	0.03803	0.69525	-0.4
Mof_O 	O 	0.85505	0.9266	0.75678	-0.426
Mof_O 	O 	0.72934	0.04943	0.52733	-0.383
Mof_O 	O 	0.57765	0.94757	0.42621	-0.411
Mof_O 	O 	0.41797	0.19898	0.32553	-0.419
Mof_O 	O 	0.39824	0.0883	0.38761	-0.413
Mof_O 	O 	0.8172	0.10516	0.10763	-0.255
Mof_O 	O 	0.96493	0.21379	0.20079	-0.399
Mof_O 	O 	0.12723	0.96197	0.30475	-0.4
Mof_O 	O 	0.14495	0.0734	0.24322	-0.426
_end
