data_functionalizedCrystal
_audit_creation_method	'EQeq! by Chris Wilmer'
_symmetry_space_group_name_H-M	'P1'
_symmetry_Int_Tables_number	1
_symmetry_cell_setting	triclinic
loop_
_symmetry_equiv_pos_as_xyz
  x,y,z
_cell_length_a	11.391
_cell_length_b	12.414
_cell_length_c	12.846
_cell_angle_alpha	71.04
_cell_angle_beta	68.39
_cell_angle_gamma	66.88
loop_
_atom_site_label
_atom_site_type_symbol
_atom_site_fract_x
_atom_site_fract_y
_atom_site_fract_z
_atom_site_charge
Mof_Ga	Ga	0.39573	0.70795	0.24627	4.419
Mof_Ga	Ga	0.19857	0.72125	0.93643	4.257
Mof_Ga	Ga	0.10635	0.8259	0.25664	4.33
Mof_Ga	Ga	0.31605	0.77747	0.58054	4.235
Mof_Ga	Ga	0.73202	0.92923	0.16611	4.382
Mof_Ga	Ga	0.78485	0.55445	0.33519	4.357
Mof_P 	P 	0.18746	0.68039	0.48269	1.004
Mof_P 	P 	0.55422	0.78938	0.34998	1.145
Mof_P 	P 	0.31354	0.85102	0.02035	0.974
Mof_P 	P 	0.63685	0.45695	0.23003	1.234
Mof_P 	P 	0.86533	0.06137	0.24828	1.118
Mof_P 	P 	0.96479	0.70646	0.17018	1.126
Mof_F 	F 	0.249	0.6744	0.2311	-1.432
Mof_F 	F 	0.2527	0.8597	0.2736	-1.424
Mof_O 	O 	0.4201	0.7868	0.085	-0.999
Mof_O 	O 	0.3308	0.6477	0.4093	-1.24
Mof_O 	O 	0.5225	0.7652	0.2569	-1.252
Mof_O 	O 	0.5117	0.5585	0.2143	-1.16
Mof_O 	O 	0.8929	0.1779	0.1683	-1.293
Mof_O 	O 	0.3263	0.77	0.9439	-1.237
Mof_O 	O 	0.0885	0.6723	0.0721	-1.255
Mof_O 	O 	0.7074	0.4163	0.1156	-1.24
Mof_O 	O 	0.9858	0.977	0.2888	-1.091
Mof_O 	O 	0.1705	0.8871	0.0945	-1.2
Mof_O 	O 	0.9818	0.7639	0.2488	-1.213
Mof_O 	O 	0.0808	0.7519	0.4193	-0.983
Mof_O 	O 	0.1757	0.7524	0.5668	-1.243
Mof_O 	O 	0.4338	0.8254	0.4503	-1.256
Mof_O 	O 	0.6005	0.3531	0.326	-1.344
Mof_O 	O 	0.7469	0.094	0.3521	-1.255
Mof_O 	O 	0.8288	0.0056	0.1803	-1.42
Mof_O 	O 	0.351	0.9644	0.9402	-1.201
Mof_O 	O 	0.8465	0.7907	0.121	-1.359
Mof_O 	O 	0.6085	0.8967	0.3001	-1.262
Mof_O 	O 	0.9359	0.5879	0.2384	-1.219
Mof_O 	O 	0.6597	0.6787	0.3965	-1.376
Mof_O 	O 	0.1505	0.5654	0.5545	-1.222
Mof_O 	O 	0.7345	0.496	0.253	-1.402
Mof_Ga	Ga	0.60427	0.29205	0.75373	4.418
Mof_Ga	Ga	0.80143	0.27875	0.06357	4.256
Mof_Ga	Ga	0.89365	0.1741	0.74336	4.329
Mof_Ga	Ga	0.68395	0.22253	0.41946	4.234
Mof_Ga	Ga	0.26798	0.07077	0.83389	4.381
Mof_Ga	Ga	0.21515	0.44555	0.66481	4.356
Mof_P 	P 	0.81254	0.31961	0.51731	1.004
Mof_P 	P 	0.44578	0.21062	0.65002	1.145
Mof_P 	P 	0.68646	0.14898	0.97965	0.974
Mof_P 	P 	0.36315	0.54305	0.76997	1.234
Mof_P 	P 	0.13467	0.93863	0.75172	1.118
Mof_P 	P 	0.03521	0.29354	0.82982	1.126
Mof_F 	F 	0.751	0.3256	0.7689	-1.432
Mof_F 	F 	0.7473	0.1403	0.7264	-1.424
Mof_O 	O 	0.5799	0.2132	0.915	-0.999
Mof_O 	O 	0.6692	0.3523	0.5907	-1.24
Mof_O 	O 	0.4775	0.2348	0.7431	-1.252
Mof_O 	O 	0.4883	0.4415	0.7857	-1.16
Mof_O 	O 	0.1071	0.8221	0.8317	-1.293
Mof_O 	O 	0.6737	0.23	0.0561	-1.237
Mof_O 	O 	0.9115	0.3277	0.9279	-1.255
Mof_O 	O 	0.2926	0.5837	0.8844	-1.24
Mof_O 	O 	0.0142	0.023	0.7112	-1.091
Mof_O 	O 	0.8295	0.1129	0.9055	-1.2
Mof_O 	O 	0.0182	0.2361	0.7512	-1.213
Mof_O 	O 	0.9192	0.2481	0.5807	-0.983
Mof_O 	O 	0.8243	0.2476	0.4332	-1.243
Mof_O 	O 	0.5662	0.1746	0.5497	-1.256
Mof_O 	O 	0.3995	0.6469	0.674	-1.344
Mof_O 	O 	0.2531	0.906	0.6479	-1.255
Mof_O 	O 	0.1712	0.9944	0.8197	-1.42
Mof_O 	O 	0.649	0.0356	0.0598	-1.201
Mof_O 	O 	0.1535	0.2093	0.879	-1.359
Mof_O 	O 	0.3915	0.1033	0.6999	-1.262
Mof_O 	O 	0.0641	0.4121	0.7616	-1.219
Mof_O 	O 	0.3403	0.3213	0.6035	-1.376
Mof_O 	O 	0.8495	0.4346	0.4455	-1.222
Mof_O 	O 	0.2655	0.504	0.747	-1.402
_end
