data_functionalizedCrystal
_audit_creation_method	'EQeq! by Chris Wilmer'
_symmetry_space_group_name_H-M	'P1'
_symmetry_Int_Tables_number	1
_symmetry_cell_setting	triclinic
loop_
_symmetry_equiv_pos_as_xyz
  x,y,z
_cell_length_a	14.271
_cell_length_b	14.432
_cell_length_c	22.549
_cell_angle_alpha	90
_cell_angle_beta	99.86
_cell_angle_gamma	90
loop_
_atom_site_label
_atom_site_type_symbol
_atom_site_fract_x
_atom_site_fract_y
_atom_site_fract_z
_atom_site_charge
Mof_Cd	Cd	0.24488	0.25411	0.25854	0.501
Mof_Cd	Cd	0.31621	0.37472	0.13894	0.377
Mof_C 	C 	0.8671	0.6341	0.19727	0.269
Mof_C 	C 	0.931	0.5725	0.16812	0.009
Mof_C 	C 	0.9971	0.5145	0.20175	-0.055
Mof_H 	H 	0.0029	0.5131	0.2435	0.082
Mof_C 	C 	0.0544	0.4587	0.17307	-0.003
Mof_C 	C 	0.0482	0.4637	0.11038	-0.135
Mof_H 	H 	0.0885	0.4281	0.0913	0.081
Mof_C 	C 	0.9823	0.5213	0.07732	0.159
Mof_C 	C 	0.9232	0.5757	0.10586	-0.141
Mof_H 	H 	0.8785	0.6143	0.0833	0.095
Mof_C 	C 	0.1236	0.393	0.20837	0.275
Mof_C 	C 	0.9825	0.5487	0.0118	-0.454
Mof_H 	H 	0.9048	0.5108	0.9924	0.064
Mof_H 	H 	0.9702	0.5992	0.9992	0.227
Mof_C 	C 	0.395	0.403	0.28642	0.31
Mof_C 	C 	0.4599	0.4682	0.32583	-0.015
Mof_C 	C 	0.4644	0.4667	0.38819	-0.12
Mof_H 	H 	0.429	0.4234	0.4056	0.089
Mof_C 	C 	0.5214	0.5295	0.42413	0.139
Mof_C 	C 	0.5763	0.592	0.399	-0.121
Mof_H 	H 	0.6151	0.6338	0.4233	0.084
Mof_C 	C 	0.5734	0.5921	0.33734	-0.012
Mof_C 	C 	0.5155	0.531	0.30074	-0.041
Mof_H 	H 	0.5139	0.5319	0.2593	0.073
Mof_C 	C 	0.6355	0.6581	0.3099	0.293
Mof_C 	C 	0.5314	0.5471	0.4912	-0.349
Mof_H 	H 	0.5971	0.54	0.5107	0.13
Mof_H 	H 	0.5105	0.6093	0.4988	0.136
Mof_O 	O 	0.8781	0.6379	0.25392	-0.243
Mof_O 	O 	0.80605	0.6811	0.16386	-0.255
Mof_O 	O 	0.1219	0.3787	0.26221	-0.244
Mof_O 	O 	0.18024	0.34882	0.17993	-0.29
Mof_O 	O 	0.3496	0.3463	0.31252	-0.275
Mof_O 	O 	0.3919	0.4097	0.23121	-0.293
Mof_O 	O 	0.6416	0.6492	0.2561	-0.267
Mof_O 	O 	0.6788	0.7196	0.3442	-0.284
Mof_O 	O 	0.5266	0.5194	0.4872	0.071
Mof_O 	O 	0.9638	0.5166	0.0153	0.128
Mof_Cd	Cd	0.75512	0.75411	0.24146	0.502
Mof_Cd	Cd	0.68379	0.87472	0.36106	0.378
Mof_C 	C 	0.1329	0.1341	0.30273	0.269
Mof_C 	C 	0.069	0.0725	0.33188	0.011
Mof_C 	C 	0.0029	0.0145	0.29825	-0.058
Mof_H 	H 	0.9971	0.0131	0.2565	0.084
Mof_C 	C 	0.9456	0.9587	0.32693	-0.001
Mof_C 	C 	0.9518	0.9637	0.38962	-0.134
Mof_H 	H 	0.9115	0.9281	0.4087	0.081
Mof_C 	C 	0.0177	0.0213	0.42268	0.158
Mof_C 	C 	0.0768	0.0757	0.39414	-0.141
Mof_H 	H 	0.1215	0.1143	0.4167	0.095
Mof_C 	C 	0.8764	0.893	0.29163	0.275
Mof_C 	C 	0.0175	0.0487	0.4882	-0.453
Mof_H 	H 	0.0952	0.0108	0.5076	0.065
Mof_H 	H 	0.0298	0.0992	0.5008	0.228
Mof_C 	C 	0.605	0.903	0.21358	0.31
Mof_C 	C 	0.5401	0.9682	0.17417	-0.015
Mof_C 	C 	0.5356	0.9667	0.11181	-0.12
Mof_H 	H 	0.571	0.9234	0.0944	0.089
Mof_C 	C 	0.4786	0.0295	0.07587	0.139
Mof_C 	C 	0.4237	0.092	0.101	-0.121
Mof_H 	H 	0.3849	0.1338	0.0767	0.084
Mof_C 	C 	0.4266	0.0921	0.16266	-0.012
Mof_C 	C 	0.4845	0.031	0.19926	-0.041
Mof_H 	H 	0.4861	0.0319	0.2407	0.073
Mof_C 	C 	0.3645	0.1581	0.1901	0.293
Mof_C 	C 	0.4686	0.0471	0.0088	-0.349
Mof_H 	H 	0.4029	0.04	0.9893	0.13
Mof_H 	H 	0.4895	0.1093	0.0012	0.136
Mof_O 	O 	0.1219	0.1379	0.24608	-0.243
Mof_O 	O 	0.19395	0.1811	0.33614	-0.255
Mof_O 	O 	0.8781	0.8787	0.23779	-0.243
Mof_O 	O 	0.81976	0.84882	0.32007	-0.29
Mof_O 	O 	0.6504	0.8463	0.18748	-0.274
Mof_O 	O 	0.6081	0.9097	0.26879	-0.293
Mof_O 	O 	0.3584	0.1492	0.2439	-0.267
Mof_O 	O 	0.3212	0.2196	0.1558	-0.284
Mof_O 	O 	0.4734	0.0194	0.0128	0.071
Mof_O 	O 	0.0362	0.0166	0.4847	0.126
Mof_Cd	Cd	0.75512	0.74589	0.74146	0.502
Mof_Cd	Cd	0.68379	0.62528	0.86106	0.378
Mof_C 	C 	0.1329	0.3659	0.80273	0.27
Mof_C 	C 	0.069	0.4275	0.83188	0.01
Mof_C 	C 	0.0029	0.4855	0.79825	-0.055
Mof_H 	H 	0.9971	0.4869	0.7565	0.082
Mof_C 	C 	0.9456	0.5413	0.82693	-0.003
Mof_C 	C 	0.9518	0.5363	0.88962	-0.135
Mof_H 	H 	0.9115	0.5719	0.9087	0.081
Mof_C 	C 	0.0177	0.4787	0.92268	0.159
Mof_C 	C 	0.0768	0.4243	0.89414	-0.141
Mof_H 	H 	0.1215	0.3857	0.9167	0.095
Mof_C 	C 	0.8764	0.607	0.79163	0.275
Mof_C 	C 	0.0175	0.4513	0.9882	-0.454
Mof_H 	H 	0.0952	0.4892	0.0076	0.064
Mof_H 	H 	0.0298	0.4008	0.0008	0.227
Mof_C 	C 	0.605	0.597	0.71358	0.31
Mof_C 	C 	0.5401	0.5318	0.67417	-0.015
Mof_C 	C 	0.5356	0.5333	0.61181	-0.12
Mof_H 	H 	0.571	0.5766	0.5944	0.089
Mof_C 	C 	0.4786	0.4705	0.57587	0.139
Mof_C 	C 	0.4237	0.408	0.601	-0.121
Mof_H 	H 	0.3849	0.3662	0.5767	0.084
Mof_C 	C 	0.4266	0.4079	0.66266	-0.012
Mof_C 	C 	0.4845	0.469	0.69926	-0.041
Mof_H 	H 	0.4861	0.4681	0.7407	0.073
Mof_C 	C 	0.3645	0.3419	0.6901	0.293
Mof_C 	C 	0.4686	0.4529	0.5088	-0.349
Mof_H 	H 	0.4029	0.46	0.4893	0.13
Mof_H 	H 	0.4895	0.3907	0.5012	0.136
Mof_O 	O 	0.1219	0.3621	0.74608	-0.243
Mof_O 	O 	0.19395	0.3189	0.83614	-0.255
Mof_O 	O 	0.8781	0.6213	0.73779	-0.244
Mof_O 	O 	0.81976	0.65118	0.82007	-0.29
Mof_O 	O 	0.6504	0.6537	0.68748	-0.275
Mof_O 	O 	0.6081	0.5903	0.76879	-0.293
Mof_O 	O 	0.3584	0.3508	0.7439	-0.267
Mof_O 	O 	0.3212	0.2804	0.6558	-0.284
Mof_O 	O 	0.4734	0.4806	0.5128	0.071
Mof_O 	O 	0.0362	0.4834	0.9847	0.128
Mof_Cd	Cd	0.24488	0.24589	0.75854	0.502
Mof_Cd	Cd	0.31621	0.12528	0.63894	0.378
Mof_C 	C 	0.8671	0.8659	0.69727	0.269
Mof_C 	C 	0.931	0.9275	0.66812	0.011
Mof_C 	C 	0.9971	0.9855	0.70175	-0.058
Mof_H 	H 	0.0029	0.9869	0.7435	0.084
Mof_C 	C 	0.0544	0.0413	0.67307	-0.001
Mof_C 	C 	0.0482	0.0363	0.61038	-0.134
Mof_H 	H 	0.0885	0.0719	0.5913	0.081
Mof_C 	C 	0.9823	0.9787	0.57732	0.158
Mof_C 	C 	0.9232	0.9243	0.60586	-0.141
Mof_H 	H 	0.8785	0.8857	0.5833	0.095
Mof_C 	C 	0.1236	0.107	0.70837	0.275
Mof_C 	C 	0.9825	0.9513	0.5118	-0.453
Mof_H 	H 	0.9048	0.9892	0.4924	0.065
Mof_H 	H 	0.9702	0.9008	0.4992	0.228
Mof_C 	C 	0.395	0.097	0.78642	0.31
Mof_C 	C 	0.4599	0.0318	0.82583	-0.015
Mof_C 	C 	0.4644	0.0333	0.88819	-0.12
Mof_H 	H 	0.429	0.0766	0.9056	0.089
Mof_C 	C 	0.5214	0.9705	0.92413	0.139
Mof_C 	C 	0.5763	0.908	0.899	-0.121
Mof_H 	H 	0.6151	0.8662	0.9233	0.084
Mof_C 	C 	0.5734	0.9079	0.83734	-0.012
Mof_C 	C 	0.5155	0.969	0.80074	-0.041
Mof_H 	H 	0.5139	0.9681	0.7593	0.073
Mof_C 	C 	0.6355	0.8419	0.8099	0.293
Mof_C 	C 	0.5314	0.9529	0.9912	-0.349
Mof_H 	H 	0.5971	0.96	0.0107	0.13
Mof_H 	H 	0.5105	0.8907	0.9988	0.136
Mof_O 	O 	0.8781	0.8621	0.75392	-0.243
Mof_O 	O 	0.80605	0.8189	0.66386	-0.255
Mof_O 	O 	0.1219	0.1213	0.76221	-0.243
Mof_O 	O 	0.18024	0.15118	0.67993	-0.29
Mof_O 	O 	0.3496	0.1537	0.81252	-0.274
Mof_O 	O 	0.3919	0.0903	0.73121	-0.293
Mof_O 	O 	0.6416	0.8508	0.7561	-0.267
Mof_O 	O 	0.6788	0.7804	0.8442	-0.284
Mof_O 	O 	0.5266	0.9806	0.9872	0.071
Mof_O 	O 	0.9638	0.9834	0.5153	0.126
_end
