data_functionalizedCrystal
_audit_creation_method	'EQeq! by Chris Wilmer'
_symmetry_space_group_name_H-M	'P1'
_symmetry_Int_Tables_number	1
_symmetry_cell_setting	triclinic
loop_
_symmetry_equiv_pos_as_xyz
  x,y,z
_cell_length_a	29.726
_cell_length_b	9.186
_cell_length_c	16.198
_cell_angle_alpha	90
_cell_angle_beta	112.79
_cell_angle_gamma	90
loop_
_atom_site_label
_atom_site_type_symbol
_atom_site_fract_x
_atom_site_fract_y
_atom_site_fract_z
_atom_site_charge
Mof_Dy	Dy	0.4972	0.83763	0.40382	2.177
Mof_C 	C 	0.9203	0.389	0.5062	0.44
Mof_C 	C 	0.8661	0.3662	0.4789	0.038
Mof_C 	C 	0.8404	0.4619	0.5105	-0.235
Mof_H 	H 	0.8565	0.5341	0.5514	0.13
Mof_C 	C 	0.7901	0.4477	0.4799	0.336
Mof_C 	C 	0.7657	0.3389	0.4212	-0.394
Mof_H 	H 	0.7322	0.327	0.4038	0.185
Mof_C 	C 	0.79198	0.2475	0.3886	0.336
Mof_C 	C 	0.842	0.2592	0.418	-0.239
Mof_H 	H 	0.8594	0.1953	0.397	0.128
Mof_C 	C 	0.7192	0.5859	0.4588	0.402
Mof_C 	C 	0.6857	0.5966	0.4974	-0.409
Mof_H 	H 	0.6943	0.5711	0.5571	0.194
Mof_C 	C 	0.6391	0.6457	0.4471	0.311
Mof_H 	H 	0.6166	0.6551	0.4737	-0.072
Mof_C 	C 	0.6257	0.6808	0.3582	-0.374
Mof_C 	C 	0.6604	0.6697	0.32	0.304
Mof_H 	H 	0.6519	0.6948	0.2602	-0.068
Mof_C 	C 	0.7069	0.6223	0.3695	-0.409
Mof_H 	H 	0.7299	0.6146	0.3437	0.186
Mof_C 	C 	0.57554	0.7353	0.3051	0.618
Mof_C 	C 	0.7194	0.1537	0.2761	0.394
Mof_C 	C 	0.7	0.2746	0.2247	-0.425
Mof_H 	H 	0.7198	0.3538	0.2261	0.188
Mof_C 	C 	0.6512	0.2771	0.1713	0.308
Mof_H 	H 	0.6378	0.3592	0.1368	-0.07
Mof_C 	C 	0.6216	0.1596	0.1679	-0.366
Mof_C 	C 	0.6416	0.0417	0.2207	0.315
Mof_H 	H 	0.6218	0.9629	0.2197	-0.077
Mof_C 	C 	0.6905	0.0366	0.2755	-0.411
Mof_H 	H 	0.7036	0.9556	0.3112	0.194
Mof_C 	C 	0.5693	0.156	0.1024	0.571
Mof_O 	O 	0.93938	0.4906	0.5587	-0.538
Mof_O 	O 	0.94239	0.3048	0.4734	-0.54
Mof_O 	O 	0.76577	0.5423	0.5138	-0.346
Mof_O 	O 	0.76944	0.1403	0.3272	-0.355
Mof_O 	O 	0.54547	0.7369	0.3425	-0.634
Mof_O 	O 	0.56613	0.7762	0.2265	-0.608
Mof_O 	O 	0.55529	0.2481	0.0414	-0.556
Mof_O 	O 	0.5427	0.0544	0.1087	-0.619
Mof_Dy	Dy	0.9972	0.33763	0.40382	2.182
Mof_C 	C 	0.4203	0.889	0.5062	0.438
Mof_C 	C 	0.3661	0.8662	0.4789	0.037
Mof_C 	C 	0.3404	0.9619	0.5105	-0.235
Mof_H 	H 	0.3565	0.0341	0.5514	0.129
Mof_C 	C 	0.2901	0.9477	0.4799	0.335
Mof_C 	C 	0.2657	0.8389	0.4212	-0.395
Mof_H 	H 	0.2322	0.827	0.4038	0.183
Mof_C 	C 	0.29198	0.7475	0.3886	0.335
Mof_C 	C 	0.342	0.7592	0.418	-0.24
Mof_H 	H 	0.3594	0.6953	0.397	0.128
Mof_C 	C 	0.2192	0.0859	0.4588	0.402
Mof_C 	C 	0.1857	0.0966	0.4974	-0.409
Mof_H 	H 	0.1943	0.0711	0.5571	0.194
Mof_C 	C 	0.1391	0.1457	0.4471	0.311
Mof_H 	H 	0.1166	0.1551	0.4737	-0.072
Mof_C 	C 	0.1257	0.1808	0.3582	-0.375
Mof_C 	C 	0.1604	0.1697	0.32	0.305
Mof_H 	H 	0.1519	0.1948	0.2602	-0.068
Mof_C 	C 	0.2069	0.1223	0.3695	-0.409
Mof_H 	H 	0.2299	0.1146	0.3437	0.187
Mof_C 	C 	0.07554	0.2353	0.3051	0.619
Mof_C 	C 	0.2194	0.6537	0.2761	0.394
Mof_C 	C 	0.2	0.7746	0.2247	-0.426
Mof_H 	H 	0.2198	0.8538	0.2261	0.188
Mof_C 	C 	0.1512	0.7771	0.1713	0.308
Mof_H 	H 	0.1378	0.8592	0.1368	-0.071
Mof_C 	C 	0.1216	0.6596	0.1679	-0.366
Mof_C 	C 	0.1416	0.5417	0.2207	0.311
Mof_H 	H 	0.1218	0.4629	0.2197	-0.074
Mof_C 	C 	0.1905	0.5366	0.2755	-0.413
Mof_H 	H 	0.2036	0.4556	0.3112	0.196
Mof_C 	C 	0.0693	0.656	0.1024	0.571
Mof_O 	O 	0.43938	0.9906	0.5587	-0.536
Mof_O 	O 	0.44239	0.8048	0.4734	-0.539
Mof_O 	O 	0.26577	0.0423	0.5138	-0.346
Mof_O 	O 	0.26944	0.6403	0.3272	-0.355
Mof_O 	O 	0.04547	0.2369	0.3425	-0.635
Mof_O 	O 	0.06613	0.2762	0.2265	-0.608
Mof_O 	O 	0.05529	0.7481	0.0414	-0.561
Mof_O 	O 	0.0427	0.5544	0.1087	-0.622
Mof_Dy	Dy	0.5028	0.83763	0.09618	2.171
Mof_C 	C 	0.0797	0.389	0.9938	0.441
Mof_C 	C 	0.1339	0.3662	0.0211	0.033
Mof_C 	C 	0.1596	0.4619	0.9895	-0.231
Mof_H 	H 	0.1435	0.5341	0.9486	0.128
Mof_C 	C 	0.2099	0.4477	0.0201	0.33
Mof_C 	C 	0.2343	0.3389	0.0788	-0.391
Mof_H 	H 	0.2678	0.327	0.0962	0.183
Mof_C 	C 	0.20802	0.2475	0.1114	0.333
Mof_C 	C 	0.158	0.2592	0.082	-0.236
Mof_H 	H 	0.1406	0.1953	0.103	0.128
Mof_C 	C 	0.2808	0.5859	0.0412	0.401
Mof_C 	C 	0.3143	0.5966	0.0026	-0.413
Mof_H 	H 	0.3057	0.5711	0.9429	0.197
Mof_C 	C 	0.3609	0.6457	0.0529	0.313
Mof_H 	H 	0.3834	0.6551	0.0263	-0.073
Mof_C 	C 	0.3743	0.6808	0.1418	-0.375
Mof_C 	C 	0.3396	0.6697	0.18	0.305
Mof_H 	H 	0.3481	0.6948	0.2398	-0.068
Mof_C 	C 	0.2931	0.6223	0.1305	-0.409
Mof_H 	H 	0.2701	0.6146	0.1563	0.186
Mof_C 	C 	0.42446	0.7353	0.1949	0.618
Mof_C 	C 	0.2806	0.1537	0.2239	0.391
Mof_C 	C 	0.3	0.2746	0.2753	-0.423
Mof_H 	H 	0.2802	0.3538	0.2739	0.187
Mof_C 	C 	0.3488	0.2771	0.3287	0.306
Mof_H 	H 	0.3622	0.3592	0.3632	-0.069
Mof_C 	C 	0.3784	0.1596	0.3321	-0.364
Mof_C 	C 	0.3584	0.0417	0.2793	0.311
Mof_H 	H 	0.3782	0.9629	0.2803	-0.075
Mof_C 	C 	0.3095	0.0366	0.2245	-0.406
Mof_H 	H 	0.2964	0.9556	0.1888	0.192
Mof_C 	C 	0.4307	0.156	0.3976	0.57
Mof_O 	O 	0.06062	0.4906	0.9413	-0.536
Mof_O 	O 	0.05761	0.3048	0.0266	-0.54
Mof_O 	O 	0.23423	0.5423	0.9862	-0.344
Mof_O 	O 	0.23056	0.1403	0.1728	-0.353
Mof_O 	O 	0.45453	0.7369	0.1575	-0.634
Mof_O 	O 	0.43387	0.7762	0.2735	-0.608
Mof_O 	O 	0.44471	0.2481	0.4586	-0.558
Mof_O 	O 	0.4573	0.0544	0.3913	-0.621
Mof_Dy	Dy	0.0028	0.33763	0.09618	2.179
Mof_C 	C 	0.5797	0.889	0.9938	0.449
Mof_C 	C 	0.6339	0.8662	0.0211	0.017
Mof_C 	C 	0.6596	0.9619	0.9895	-0.208
Mof_H 	H 	0.6435	0.0341	0.9486	0.117
Mof_C 	C 	0.7099	0.9477	0.0201	0.319
Mof_C 	C 	0.7343	0.8389	0.0788	-0.384
Mof_H 	H 	0.7678	0.827	0.0962	0.179
Mof_C 	C 	0.70802	0.7475	0.1114	0.326
Mof_C 	C 	0.658	0.7592	0.082	-0.227
Mof_H 	H 	0.6406	0.6953	0.103	0.124
Mof_C 	C 	0.7808	0.0859	0.0412	0.4
Mof_C 	C 	0.8143	0.0966	0.0026	-0.393
Mof_H 	H 	0.8057	0.0711	0.9429	0.185
Mof_C 	C 	0.8609	0.1457	0.0529	0.302
Mof_H 	H 	0.8834	0.1551	0.0263	-0.067
Mof_C 	C 	0.8743	0.1808	0.1418	-0.369
Mof_C 	C 	0.8396	0.1697	0.18	0.3
Mof_H 	H 	0.8481	0.1948	0.2398	-0.066
Mof_C 	C 	0.7931	0.1223	0.1305	-0.405
Mof_H 	H 	0.7701	0.1146	0.1563	0.186
Mof_C 	C 	0.92446	0.2353	0.1949	0.617
Mof_C 	C 	0.7806	0.6537	0.2239	0.393
Mof_C 	C 	0.8	0.7746	0.2753	-0.424
Mof_H 	H 	0.7802	0.8538	0.2739	0.187
Mof_C 	C 	0.8488	0.7771	0.3287	0.307
Mof_H 	H 	0.8622	0.8592	0.3632	-0.07
Mof_C 	C 	0.8784	0.6596	0.3321	-0.365
Mof_C 	C 	0.8584	0.5417	0.2793	0.31
Mof_H 	H 	0.8782	0.4629	0.2803	-0.074
Mof_C 	C 	0.8095	0.5366	0.2245	-0.412
Mof_H 	H 	0.7964	0.4556	0.1888	0.195
Mof_C 	C 	0.9307	0.656	0.3976	0.571
Mof_O 	O 	0.56062	0.9906	0.9413	-0.537
Mof_O 	O 	0.55761	0.8048	0.0266	-0.543
Mof_O 	O 	0.73423	0.0423	0.9862	-0.345
Mof_O 	O 	0.73056	0.6403	0.1728	-0.353
Mof_O 	O 	0.95453	0.2369	0.1575	-0.632
Mof_O 	O 	0.93387	0.2762	0.2735	-0.608
Mof_O 	O 	0.94471	0.7481	0.4586	-0.559
Mof_O 	O 	0.9573	0.5544	0.3913	-0.622
Mof_Dy	Dy	0.5028	0.16237	0.59618	2.176
Mof_C 	C 	0.0797	0.611	0.4938	0.439
Mof_C 	C 	0.1339	0.6338	0.5211	0.037
Mof_C 	C 	0.1596	0.5381	0.4895	-0.236
Mof_H 	H 	0.1435	0.4659	0.4486	0.129
Mof_C 	C 	0.2099	0.5523	0.5201	0.335
Mof_C 	C 	0.2343	0.6611	0.5788	-0.395
Mof_H 	H 	0.2678	0.673	0.5962	0.184
Mof_C 	C 	0.20802	0.7525	0.6114	0.335
Mof_C 	C 	0.158	0.7408	0.582	-0.24
Mof_H 	H 	0.1406	0.8047	0.603	0.128
Mof_C 	C 	0.2808	0.4141	0.5412	0.402
Mof_C 	C 	0.3143	0.4034	0.5026	-0.409
Mof_H 	H 	0.3057	0.4289	0.4429	0.194
Mof_C 	C 	0.3609	0.3543	0.5529	0.311
Mof_H 	H 	0.3834	0.3449	0.5263	-0.072
Mof_C 	C 	0.3743	0.3192	0.6418	-0.374
Mof_C 	C 	0.3396	0.3303	0.68	0.304
Mof_H 	H 	0.3481	0.3052	0.7398	-0.068
Mof_C 	C 	0.2931	0.3777	0.6305	-0.409
Mof_H 	H 	0.2701	0.3854	0.6563	0.186
Mof_C 	C 	0.42446	0.2647	0.6949	0.618
Mof_C 	C 	0.2806	0.8463	0.7239	0.394
Mof_C 	C 	0.3	0.7254	0.7753	-0.425
Mof_H 	H 	0.2802	0.6462	0.7739	0.188
Mof_C 	C 	0.3488	0.7229	0.8287	0.308
Mof_H 	H 	0.3622	0.6408	0.8632	-0.07
Mof_C 	C 	0.3784	0.8404	0.8321	-0.366
Mof_C 	C 	0.3584	0.9583	0.7793	0.315
Mof_H 	H 	0.3782	0.0371	0.7803	-0.077
Mof_C 	C 	0.3095	0.9634	0.7245	-0.411
Mof_H 	H 	0.2964	0.0444	0.6888	0.194
Mof_C 	C 	0.4307	0.844	0.8976	0.571
Mof_O 	O 	0.06062	0.5094	0.4413	-0.538
Mof_O 	O 	0.05761	0.6952	0.5266	-0.54
Mof_O 	O 	0.23423	0.4577	0.4862	-0.346
Mof_O 	O 	0.23056	0.8597	0.6728	-0.355
Mof_O 	O 	0.45453	0.2631	0.6575	-0.634
Mof_O 	O 	0.43387	0.2238	0.7735	-0.608
Mof_O 	O 	0.44471	0.7519	0.9586	-0.556
Mof_O 	O 	0.4573	0.9456	0.8913	-0.619
Mof_Dy	Dy	0.0028	0.66237	0.59618	2.182
Mof_C 	C 	0.5797	0.111	0.4938	0.438
Mof_C 	C 	0.6339	0.1338	0.5211	0.037
Mof_C 	C 	0.6596	0.0381	0.4895	-0.235
Mof_H 	H 	0.6435	0.9659	0.4486	0.129
Mof_C 	C 	0.7099	0.0523	0.5201	0.335
Mof_C 	C 	0.7343	0.1611	0.5788	-0.395
Mof_H 	H 	0.7678	0.173	0.5962	0.183
Mof_C 	C 	0.70802	0.2525	0.6114	0.335
Mof_C 	C 	0.658	0.2408	0.582	-0.24
Mof_H 	H 	0.6406	0.3047	0.603	0.128
Mof_C 	C 	0.7808	0.9141	0.5412	0.402
Mof_C 	C 	0.8143	0.9034	0.5026	-0.409
Mof_H 	H 	0.8057	0.9289	0.4429	0.194
Mof_C 	C 	0.8609	0.8543	0.5529	0.311
Mof_H 	H 	0.8834	0.8449	0.5263	-0.072
Mof_C 	C 	0.8743	0.8192	0.6418	-0.375
Mof_C 	C 	0.8396	0.8303	0.68	0.305
Mof_H 	H 	0.8481	0.8052	0.7398	-0.068
Mof_C 	C 	0.7931	0.8777	0.6305	-0.409
Mof_H 	H 	0.7701	0.8854	0.6563	0.187
Mof_C 	C 	0.92446	0.7647	0.6949	0.619
Mof_C 	C 	0.7806	0.3463	0.7239	0.394
Mof_C 	C 	0.8	0.2254	0.7753	-0.426
Mof_H 	H 	0.7802	0.1462	0.7739	0.188
Mof_C 	C 	0.8488	0.2229	0.8287	0.308
Mof_H 	H 	0.8622	0.1408	0.8632	-0.071
Mof_C 	C 	0.8784	0.3404	0.8321	-0.366
Mof_C 	C 	0.8584	0.4583	0.7793	0.311
Mof_H 	H 	0.8782	0.5371	0.7803	-0.074
Mof_C 	C 	0.8095	0.4634	0.7245	-0.413
Mof_H 	H 	0.7964	0.5444	0.6888	0.196
Mof_C 	C 	0.9307	0.344	0.8976	0.571
Mof_O 	O 	0.56062	0.0094	0.4413	-0.536
Mof_O 	O 	0.55761	0.1952	0.5266	-0.539
Mof_O 	O 	0.73423	0.9577	0.4862	-0.346
Mof_O 	O 	0.73056	0.3597	0.6728	-0.355
Mof_O 	O 	0.95453	0.7631	0.6575	-0.635
Mof_O 	O 	0.93387	0.7238	0.7735	-0.608
Mof_O 	O 	0.94471	0.2519	0.9586	-0.561
Mof_O 	O 	0.9573	0.4456	0.8913	-0.622
Mof_Dy	Dy	0.4972	0.16237	0.90382	2.171
Mof_C 	C 	0.9203	0.611	0.0062	0.441
Mof_C 	C 	0.8661	0.6338	0.9789	0.033
Mof_C 	C 	0.8404	0.5381	0.0105	-0.231
Mof_H 	H 	0.8565	0.4659	0.0514	0.128
Mof_C 	C 	0.7901	0.5523	0.9799	0.33
Mof_C 	C 	0.7657	0.6611	0.9212	-0.391
Mof_H 	H 	0.7322	0.673	0.9038	0.183
Mof_C 	C 	0.79198	0.7525	0.8886	0.333
Mof_C 	C 	0.842	0.7408	0.918	-0.236
Mof_H 	H 	0.8594	0.8047	0.897	0.128
Mof_C 	C 	0.7192	0.4141	0.9588	0.401
Mof_C 	C 	0.6857	0.4034	0.9974	-0.413
Mof_H 	H 	0.6943	0.4289	0.0571	0.197
Mof_C 	C 	0.6391	0.3543	0.9471	0.313
Mof_H 	H 	0.6166	0.3449	0.9737	-0.073
Mof_C 	C 	0.6257	0.3192	0.8582	-0.375
Mof_C 	C 	0.6604	0.3303	0.82	0.305
Mof_H 	H 	0.6519	0.3052	0.7602	-0.068
Mof_C 	C 	0.7069	0.3777	0.8695	-0.409
Mof_H 	H 	0.7299	0.3854	0.8437	0.186
Mof_C 	C 	0.57554	0.2647	0.8051	0.618
Mof_C 	C 	0.7194	0.8463	0.7761	0.391
Mof_C 	C 	0.7	0.7254	0.7247	-0.423
Mof_H 	H 	0.7198	0.6462	0.7261	0.187
Mof_C 	C 	0.6512	0.7229	0.6713	0.306
Mof_H 	H 	0.6378	0.6408	0.6368	-0.069
Mof_C 	C 	0.6216	0.8404	0.6679	-0.364
Mof_C 	C 	0.6416	0.9583	0.7207	0.311
Mof_H 	H 	0.6218	0.0371	0.7197	-0.075
Mof_C 	C 	0.6905	0.9634	0.7755	-0.406
Mof_H 	H 	0.7036	0.0444	0.8112	0.192
Mof_C 	C 	0.5693	0.844	0.6024	0.57
Mof_O 	O 	0.93938	0.5094	0.0587	-0.536
Mof_O 	O 	0.94239	0.6952	0.9734	-0.54
Mof_O 	O 	0.76577	0.4577	0.0138	-0.344
Mof_O 	O 	0.76944	0.8597	0.8272	-0.353
Mof_O 	O 	0.54547	0.2631	0.8425	-0.634
Mof_O 	O 	0.56613	0.2238	0.7265	-0.608
Mof_O 	O 	0.55529	0.7519	0.5414	-0.558
Mof_O 	O 	0.5427	0.9456	0.6087	-0.621
Mof_Dy	Dy	0.9972	0.66237	0.90382	2.179
Mof_C 	C 	0.4203	0.111	0.0062	0.449
Mof_C 	C 	0.3661	0.1338	0.9789	0.017
Mof_C 	C 	0.3404	0.0381	0.0105	-0.208
Mof_H 	H 	0.3565	0.9659	0.0514	0.117
Mof_C 	C 	0.2901	0.0523	0.9799	0.319
Mof_C 	C 	0.2657	0.1611	0.9212	-0.384
Mof_H 	H 	0.2322	0.173	0.9038	0.179
Mof_C 	C 	0.29198	0.2525	0.8886	0.326
Mof_C 	C 	0.342	0.2408	0.918	-0.227
Mof_H 	H 	0.3594	0.3047	0.897	0.124
Mof_C 	C 	0.2192	0.9141	0.9588	0.4
Mof_C 	C 	0.1857	0.9034	0.9974	-0.393
Mof_H 	H 	0.1943	0.9289	0.0571	0.185
Mof_C 	C 	0.1391	0.8543	0.9471	0.302
Mof_H 	H 	0.1166	0.8449	0.9737	-0.067
Mof_C 	C 	0.1257	0.8192	0.8582	-0.369
Mof_C 	C 	0.1604	0.8303	0.82	0.3
Mof_H 	H 	0.1519	0.8052	0.7602	-0.066
Mof_C 	C 	0.2069	0.8777	0.8695	-0.405
Mof_H 	H 	0.2299	0.8854	0.8437	0.186
Mof_C 	C 	0.07554	0.7647	0.8051	0.617
Mof_C 	C 	0.2194	0.3463	0.7761	0.393
Mof_C 	C 	0.2	0.2254	0.7247	-0.424
Mof_H 	H 	0.2198	0.1462	0.7261	0.187
Mof_C 	C 	0.1512	0.2229	0.6713	0.307
Mof_H 	H 	0.1378	0.1408	0.6368	-0.07
Mof_C 	C 	0.1216	0.3404	0.6679	-0.365
Mof_C 	C 	0.1416	0.4583	0.7207	0.31
Mof_H 	H 	0.1218	0.5371	0.7197	-0.074
Mof_C 	C 	0.1905	0.4634	0.7755	-0.412
Mof_H 	H 	0.2036	0.5444	0.8112	0.195
Mof_C 	C 	0.0693	0.344	0.6024	0.571
Mof_O 	O 	0.43938	0.0094	0.0587	-0.537
Mof_O 	O 	0.44239	0.1952	0.9734	-0.543
Mof_O 	O 	0.26577	0.9577	0.0138	-0.345
Mof_O 	O 	0.26944	0.3597	0.8272	-0.353
Mof_O 	O 	0.04547	0.7631	0.8425	-0.632
Mof_O 	O 	0.06613	0.7238	0.7265	-0.608
Mof_O 	O 	0.05529	0.2519	0.5414	-0.559
Mof_O 	O 	0.0427	0.4456	0.6087	-0.622
_end
