# CIF file generated by openbabel 3.1.0, see https://openbabel.org
data_I
_chemical_name_common 'image0'
_cell_length_a 9.674
_cell_length_b 11.761
_cell_length_c 12.315
_cell_angle_alpha 90
_cell_angle_beta 99.285
_cell_angle_gamma 90
_space_group_name_H-M_alt 'P 1'
_space_group_name_Hall 'P 1'
loop_
    _symmetry_equiv_pos_as_xyz
    x,y,z
loop_
    _atom_site_label
    _atom_site_type_symbol
    _atom_site_fract_x
    _atom_site_fract_y
    _atom_site_fract_z
    _atom_site_occupancy
    Eu1      Eu       0.71368    0.51552    0.33081    1.000
    O1       O        0.80700    0.64090    0.20550    1.000
    O2       O        0.86600    0.81940    0.17260    1.000
    O3       O        0.63960    0.71590    0.34350    1.000
    O4       O        0.68510    0.89500    0.30060    1.000
    O5       O        0.68130    0.51150    0.52240    1.000
    O6       O        0.53350    0.48540    0.64280    1.000
    O7       O        0.91600    0.61820    0.43410    1.000
    O8       O        0.10060    0.60880    0.56730    1.000
    C1       C        0.80020    0.74550    0.21750    1.000
    C2       C        0.69900    0.78970    0.29460    1.000
    C3       C        0.56250    0.49920    0.54740    1.000
    C4       C        0.00460    0.56570    0.49970    1.000
    Eu2      Eu       0.78632    0.01552    0.16919    1.000
    O9       O        0.69300    0.14090    0.29450    1.000
    O10      O        0.63400    0.31940    0.32740    1.000
    O11      O        0.86040    0.21590    0.15650    1.000
    O12      O        0.81490    0.39500    0.19940    1.000
    O13      O        0.81870    0.01150    0.97760    1.000
    O14      O        0.96650    0.98540    0.85720    1.000
    O15      O        0.58400    0.11820    0.06590    1.000
    O16      O        0.39940    0.10880    0.93270    1.000
    C5       C        0.69980    0.24550    0.28250    1.000
    C6       C        0.80100    0.28970    0.20540    1.000
    C7       C        0.93750    0.99920    0.95260    1.000
    C8       C        0.49540    0.06570    0.00030    1.000
    Eu3      Eu       0.28632    0.48448    0.66919    1.000
    O17      O        0.19300    0.35910    0.79450    1.000
    O18      O        0.13400    0.18060    0.82740    1.000
    O19      O        0.36040    0.28410    0.65650    1.000
    O20      O        0.31490    0.10500    0.69940    1.000
    O21      O        0.31870    0.48850    0.47760    1.000
    O22      O        0.46650    0.51460    0.35720    1.000
    O23      O        0.08400    0.38180    0.56590    1.000
    O24      O        0.89940    0.39120    0.43270    1.000
    C9       C        0.19980    0.25450    0.78250    1.000
    C10      C        0.30100    0.21030    0.70540    1.000
    C11      C        0.43750    0.50080    0.45260    1.000
    C12      C        0.99540    0.43430    0.50030    1.000
    Eu4      Eu       0.21368    0.98448    0.83081    1.000
    O25      O        0.30700    0.85910    0.70550    1.000
    O26      O        0.36600    0.68060    0.67260    1.000
    O27      O        0.13960    0.78410    0.84350    1.000
    O28      O        0.18510    0.60500    0.80060    1.000
    O29      O        0.18130    0.98850    0.02240    1.000
    O30      O        0.03350    0.01460    0.14280    1.000
    O31      O        0.41600    0.88180    0.93410    1.000
    O32      O        0.60060    0.89120    0.06730    1.000
    C13      C        0.30020    0.75450    0.71750    1.000
    C14      C        0.19900    0.71030    0.79460    1.000
    C15      C        0.06250    0.00080    0.04740    1.000
    C16      C        0.50460    0.93430    0.99970    1.000
