data_functionalizedCrystal
_audit_creation_method	'EQeq! by Chris Wilmer'
_symmetry_space_group_name_H-M	'P1'
_symmetry_Int_Tables_number	1
_symmetry_cell_setting	triclinic
loop_
_symmetry_equiv_pos_as_xyz
  x,y,z
_cell_length_a	10.145
_cell_length_b	10.8858
_cell_length_c	13.8515
_cell_angle_alpha	78.706
_cell_angle_beta	79.297
_cell_angle_gamma	86.253
loop_
_atom_site_label
_atom_site_type_symbol
_atom_site_fract_x
_atom_site_fract_y
_atom_site_fract_z
_atom_site_charge
Mof_Tb	Tb	0.31989	0.92335	0.29664	1.939
Mof_C 	C 	0.5953	0.9009	0.2142	0.283
Mof_C 	C 	0.7378	0.8855	0.1669	0.026
Mof_C 	C 	0.8437	0.8959	0.2143	-0.106
Mof_H 	H 	0.8268	0.9135	0.2786	0.083
Mof_C 	C 	0.9725	0.8808	0.1679	0.078
Mof_C 	C 	0.0003	0.8543	0.072	-0.231
Mof_H 	H 	0.0885	0.847	0.0395	0.136
Mof_C 	C 	0.8939	0.8389	0.0253	0.223
Mof_C 	C 	0.7642	0.8583	0.0705	-0.167
Mof_H 	H 	0.6938	0.8534	0.0371	0.123
Mof_C 	C 	0.0921	0.8932	0.2157	0.249
Mof_C 	C 	0.0039	0.7062	0.911	0.191
Mof_C 	C 	0.0089	0.6661	0.8134	0.024
Mof_C 	C 	0.0149	0.7474	0.7222	-0.117
Mof_H 	H 	0.0121	0.8336	0.7188	0.057
Mof_C 	C 	0.0252	0.6977	0.6361	0.077
Mof_H 	H 	0.0346	0.7524	0.5748	-0.026
Mof_C 	C 	0.0161	0.4968	0.7258	0.08
Mof_H 	H 	0.0154	0.411	0.7275	-0.009
Mof_C 	C 	0.0109	0.538	0.8153	-0.118
Mof_H 	H 	0.0087	0.481	0.8751	0.104
Mof_C 	C 	0.2718	0.605	0.3531	0.456
Mof_C 	C 	0.2998	0.5281	0.2732	-0.124
Mof_C 	C 	0.3231	0.5827	0.1719	-0.055
Mof_H 	H 	0.3296	0.6692	0.1533	0.061
Mof_C 	C 	0.3366	0.5108	0.0986	0.117
Mof_C 	C 	0.3354	0.3812	0.1259	-0.086
Mof_H 	H 	0.3469	0.3318	0.0771	0.095
Mof_C 	C 	0.3169	0.3252	0.2274	-0.07
Mof_C 	C 	0.2988	0.3986	0.2997	0.032
Mof_H 	H 	0.2857	0.3607	0.3669	0.025
Mof_C 	C 	0.3126	0.1891	0.2525	0.321
Mof_C 	C 	0.3337	0.5191	0.9208	0.229
Mof_C 	C 	0.3482	0.6019	0.8189	0.007
Mof_C 	C 	0.348	0.731	0.8008	-0.089
Mof_H 	H 	0.3444	0.7743	0.8528	0.064
Mof_C 	C 	0.3535	0.7953	0.7024	0.06
Mof_H 	H 	0.3531	0.8824	0.6905	0.013
Mof_C 	C 	0.3591	0.6145	0.6427	0.062
Mof_H 	H 	0.3621	0.574	0.5891	0.019
Mof_C 	C 	0.355	0.5433	0.7367	-0.091
Mof_H 	H 	0.3566	0.4564	0.7457	0.08
Mof_N 	N 	0.918	0.8022	0.9302	-0.239
Mof_H 	H 	0.8769	0.842	0.8839	0.16
Mof_N 	N 	0.0223	0.5743	0.6374	-0.195
Mof_N 	N 	0.3542	0.5707	0.997	-0.235
Mof_H 	H 	0.3803	0.6468	0.9829	0.14
Mof_N 	N 	0.3591	0.7387	0.6253	-0.14
Mof_O 	O 	0.5621	0.9011	0.3079	-0.411
Mof_O 	O 	0.5056	0.9143	0.1621	-0.408
Mof_O 	O 	0.0725	0.9053	0.3078	-0.425
Mof_O 	O 	0.2053	0.8888	0.1663	-0.406
Mof_O 	O 	0.0763	0.6526	0.9687	-0.223
Mof_O 	O 	0.3215	0.7122	0.3334	-0.542
Mof_O 	O 	0.1993	0.5627	0.4334	-0.418
Mof_O 	O 	0.3258	0.1306	0.339	-0.45
Mof_O 	O 	0.2956	0.1264	0.189	-0.426
Mof_O 	O 	0.3055	0.4119	0.9287	-0.233
Mof_Tb	Tb	0.68011	0.07665	0.70336	1.947
Mof_C 	C 	0.4047	0.0991	0.7858	0.31
Mof_C 	C 	0.2622	0.1145	0.8331	-0.05
Mof_C 	C 	0.1563	0.1041	0.7857	0.004
Mof_H 	H 	0.1732	0.0865	0.7214	0.039
Mof_C 	C 	0.0275	0.1192	0.8321	-0.094
Mof_C 	C 	0.9997	0.1457	0.928	-0.03
Mof_H 	H 	0.9115	0.153	0.9605	0.079
Mof_C 	C 	0.1061	0.1611	0.9747	0.109
Mof_C 	C 	0.2358	0.1417	0.9295	-0.084
Mof_H 	H 	0.3062	0.1466	0.9629	0.097
Mof_C 	C 	0.9079	0.1068	0.7843	0.334
Mof_C 	C 	0.9961	0.2938	0.089	0.222
Mof_C 	C 	0.9911	0.3339	0.1866	0.025
Mof_C 	C 	0.9851	0.2526	0.2778	-0.11
Mof_H 	H 	0.9879	0.1664	0.2812	0.066
Mof_C 	C 	0.9748	0.3023	0.3639	0.082
Mof_H 	H 	0.9654	0.2476	0.4252	-0.018
Mof_C 	C 	0.9839	0.5032	0.2742	0.086
Mof_H 	H 	0.9846	0.589	0.2725	0.001
Mof_C 	C 	0.9891	0.462	0.1847	-0.112
Mof_H 	H 	0.9913	0.519	0.1249	0.112
Mof_C 	C 	0.7282	0.395	0.6469	0.455
Mof_C 	C 	0.7002	0.4719	0.7268	-0.115
Mof_C 	C 	0.6769	0.4173	0.8281	-0.06
Mof_H 	H 	0.6704	0.3308	0.8467	0.066
Mof_C 	C 	0.6634	0.4892	0.9014	0.132
Mof_C 	C 	0.6646	0.6188	0.8741	-0.09
Mof_H 	H 	0.6531	0.6682	0.9229	0.1
Mof_C 	C 	0.6831	0.6748	0.7726	-0.061
Mof_C 	C 	0.7012	0.6014	0.7003	0.031
Mof_H 	H 	0.7143	0.6393	0.6331	0.031
Mof_C 	C 	0.6874	0.8109	0.7475	0.322
Mof_C 	C 	0.6663	0.4809	0.0792	0.23
Mof_C 	C 	0.6518	0.3981	0.1811	0.007
Mof_C 	C 	0.652	0.269	0.1992	-0.089
Mof_H 	H 	0.6556	0.2257	0.1472	0.064
Mof_C 	C 	0.6465	0.2047	0.2976	0.06
Mof_H 	H 	0.6469	0.1176	0.3095	0.013
Mof_C 	C 	0.6409	0.3855	0.3573	0.061
Mof_H 	H 	0.6379	0.426	0.4109	0.019
Mof_C 	C 	0.645	0.4567	0.2633	-0.09
Mof_H 	H 	0.6434	0.5436	0.2543	0.08
Mof_N 	N 	0.082	0.1978	0.0698	-0.246
Mof_H 	H 	0.1231	0.158	0.1161	0.151
Mof_N 	N 	0.9777	0.4257	0.3626	-0.187
Mof_N 	N 	0.6458	0.4293	0.003	-0.24
Mof_H 	H 	0.6197	0.3532	0.0171	0.14
Mof_N 	N 	0.6409	0.2613	0.3747	-0.14
Mof_O 	O 	0.4379	0.0989	0.6921	-0.42
Mof_O 	O 	0.4944	0.0857	0.8379	-0.414
Mof_O 	O 	0.9275	0.0947	0.6922	-0.428
Mof_O 	O 	0.7947	0.1112	0.8337	-0.424
Mof_O 	O 	0.9237	0.3474	0.0313	-0.221
Mof_O 	O 	0.6785	0.2878	0.6666	-0.541
Mof_O 	O 	0.8007	0.4373	0.5666	-0.408
Mof_O 	O 	0.6742	0.8694	0.661	-0.445
Mof_O 	O 	0.7044	0.8736	0.811	-0.422
Mof_O 	O 	0.6945	0.5881	0.0713	-0.234
Mof_Mn	Mn	1.32625e-17	0.5	0.5	0.724
_end
