data_functionalizedCrystal
_audit_creation_method	'EQeq! by Chris Wilmer'
_symmetry_space_group_name_H-M	'P1'
_symmetry_Int_Tables_number	1
_symmetry_cell_setting	triclinic
loop_
_symmetry_equiv_pos_as_xyz
  x,y,z
_cell_length_a	10.64
_cell_length_b	11.239
_cell_length_c	15.232
_cell_angle_alpha	99.351
_cell_angle_beta	99.511
_cell_angle_gamma	92.482
loop_
_atom_site_label
_atom_site_type_symbol
_atom_site_fract_x
_atom_site_fract_y
_atom_site_fract_z
_atom_site_charge
Mof_Tb	Tb	0.60297	0.23768	0.13181	1.968
Mof_Tb	Tb	0.70995	0.3069	0.40564	1.959
Mof_O 	O 	0.632	0.4453	0.193	-0.535
Mof_O 	O 	0.6442	0.4793	0.3421	-0.519
Mof_O 	O 	0.7037	0.3822	0.5602	-0.456
Mof_O 	O 	0.6907	0.1028	0.3424	-0.534
Mof_O 	O 	0.6623	0.0653	0.1919	-0.536
Mof_O 	O 	0.8162	0.2966	0.2816	-0.593
Mof_C 	C 	0.6423	0.5141	0.2691	0.495
Mof_O 	O 	0.4837	0.3021	0.3978	-0.485
Mof_C 	C 	0.4325	0.2752	0.3148	0.481
Mof_O 	O 	0.4995	0.2529	0.2546	-0.601
Mof_C 	C 	0.2901	0.2732	0.2914	-0.191
Mof_C 	C 	0.2291	0.2398	0.2022	-0.053
Mof_H 	H 	0.278	0.2171	0.1577	0.039
Mof_C 	C 	0.0977	0.2393	0.1773	0.233
Mof_C 	C 	0.2148	0.3071	0.3576	0.25
Mof_C 	C 	0.086	0.3081	0.3333	-0.08
Mof_H 	H 	0.0377	0.3334	0.3776	0.033
Mof_O 	O 	0.2676	0.3406	0.4469	-0.459
Mof_H 	H 	0.3451	0.336	0.4532	0.299
Mof_C 	C 	0.6781	0.2812	0.5822	0.33
Mof_C 	C 	0.6751	0.2736	0.6784	-0.115
Mof_C 	C 	0.6983	0.3791	0.743	-0.117
Mof_H 	H 	0.7158	0.4526	0.7254	0.102
Mof_C 	C 	0.6956	0.3752	0.833	0.24
Mof_C 	C 	0.6705	0.2645	0.8596	-0.138
Mof_C 	C 	0.6499	0.1593	0.7953	-0.088
Mof_H 	H 	0.6345	0.0855	0.8132	0.083
Mof_C 	C 	0.6518	0.1629	0.7059	0.216
Mof_O 	O 	0.6308	0.0542	0.6465	-0.422
Mof_H 	H 	0.6238	0.0671	0.5945	0.283
Mof_C 	C 	0.6547	0.2598	0.9542	0.359
Mof_O 	O 	0.7202	0.4815	0.8941	-0.438
Mof_H 	H 	0.7363	0.4663	0.9454	0.293
Mof_O 	O 	0.6559	0.1866	0.5231	-0.414
Mof_C 	C 	0.8816	0.2695	0.2214	0.468
Mof_C 	C 	0.0237	0.2725	0.244	-0.181
Mof_O 	O 	0.045	0.2046	0.0881	-0.42
Mof_H 	H 	0.9673	0.1929	0.0832	0.283
Mof_O 	O 	0.8295	0.2384	0.1392	-0.485
Mof_C 	C 	0.6762	0.0308	0.2673	0.504
Mof_C 	C 	0.6738	0.9002	0.2705	-0.194
Mof_C 	C 	0.6597	0.8172	0.1886	-0.074
Mof_H 	H 	0.6584	0.8464	0.1348	0.07
Mof_C 	C 	0.648	0.6945	0.1865	0.234
Mof_C 	C 	0.6797	0.8545	0.3508	0.259
Mof_O 	O 	0.6929	0.9257	0.433	-0.429
Mof_H 	H 	0.6511	0.9848	0.429	0.278
Mof_C 	C 	0.6677	0.73	0.3485	-0.102
Mof_H 	H 	0.6701	0.7011	0.4025	0.1
Mof_C 	C 	0.6525	0.6474	0.2683	-0.17
Mof_O 	O 	0.6353	0.6194	0.1049	-0.446
Mof_H 	H 	0.6355	0.549	0.1128	0.29
Mof_O 	O 	0.675	0.3567	0.0126	-0.399
Mof_O 	O 	0.6196	0.1629	0.977	-0.474
Mof_Tb	Tb	0.39703	0.76232	0.86819	1.967
Mof_Tb	Tb	0.29005	0.6931	0.59436	1.958
Mof_O 	O 	0.368	0.5547	0.807	-0.535
Mof_O 	O 	0.3558	0.5207	0.6579	-0.519
Mof_O 	O 	0.2963	0.6178	0.4398	-0.456
Mof_O 	O 	0.3093	0.8972	0.6576	-0.534
Mof_O 	O 	0.3377	0.9347	0.8081	-0.536
Mof_O 	O 	0.1838	0.7034	0.7184	-0.593
Mof_C 	C 	0.3577	0.4859	0.7309	0.495
Mof_O 	O 	0.5163	0.6979	0.6022	-0.485
Mof_C 	C 	0.5675	0.7248	0.6852	0.481
Mof_O 	O 	0.5005	0.7471	0.7454	-0.601
Mof_C 	C 	0.7099	0.7268	0.7086	-0.191
Mof_C 	C 	0.7709	0.7602	0.7978	-0.053
Mof_H 	H 	0.722	0.7829	0.8423	0.039
Mof_C 	C 	0.9023	0.7607	0.8227	0.233
Mof_C 	C 	0.7852	0.6929	0.6424	0.25
Mof_C 	C 	0.914	0.6919	0.6667	-0.08
Mof_H 	H 	0.9623	0.6666	0.6224	0.033
Mof_O 	O 	0.7324	0.6594	0.5531	-0.459
Mof_H 	H 	0.6549	0.664	0.5468	0.299
Mof_C 	C 	0.3219	0.7188	0.4178	0.33
Mof_C 	C 	0.3249	0.7264	0.3216	-0.115
Mof_C 	C 	0.3017	0.6209	0.257	-0.117
Mof_H 	H 	0.2842	0.5474	0.2746	0.102
Mof_C 	C 	0.3044	0.6248	0.167	0.24
Mof_C 	C 	0.3295	0.7355	0.1404	-0.138
Mof_C 	C 	0.3501	0.8407	0.2047	-0.088
Mof_H 	H 	0.3655	0.9145	0.1868	0.083
Mof_C 	C 	0.3482	0.8371	0.2941	0.216
Mof_O 	O 	0.3692	0.9458	0.3535	-0.422
Mof_H 	H 	0.3762	0.9329	0.4055	0.283
Mof_C 	C 	0.3453	0.7402	0.0458	0.359
Mof_O 	O 	0.2798	0.5185	0.1059	-0.438
Mof_H 	H 	0.2637	0.5337	0.0546	0.293
Mof_O 	O 	0.3441	0.8134	0.4769	-0.414
Mof_C 	C 	0.1184	0.7305	0.7786	0.468
Mof_C 	C 	0.9763	0.7275	0.756	-0.181
Mof_O 	O 	0.955	0.7954	0.9119	-0.42
Mof_H 	H 	0.0327	0.8071	0.9168	0.283
Mof_O 	O 	0.1705	0.7616	0.8608	-0.485
Mof_C 	C 	0.3238	0.9692	0.7327	0.504
Mof_C 	C 	0.3262	0.0998	0.7295	-0.194
Mof_C 	C 	0.3403	0.1828	0.8114	-0.074
Mof_H 	H 	0.3416	0.1536	0.8652	0.07
Mof_C 	C 	0.352	0.3055	0.8135	0.234
Mof_C 	C 	0.3203	0.1455	0.6492	0.259
Mof_O 	O 	0.3071	0.0743	0.567	-0.429
Mof_H 	H 	0.3489	0.0152	0.571	0.278
Mof_C 	C 	0.3323	0.27	0.6515	-0.102
Mof_H 	H 	0.3299	0.2989	0.5975	0.1
Mof_C 	C 	0.3475	0.3526	0.7317	-0.17
Mof_O 	O 	0.3647	0.3806	0.8951	-0.446
Mof_H 	H 	0.3645	0.451	0.8872	0.29
Mof_O 	O 	0.325	0.6433	0.9874	-0.399
Mof_O 	O 	0.3804	0.8371	0.023	-0.474
_end
