# CIF file generated by openbabel 3.1.0, see https://openbabel.org
data_I
_chemical_name_common 'image0'
_cell_length_a 17.0076
_cell_length_b 17.0076
_cell_length_c 7.8591
_cell_angle_alpha 90
_cell_angle_beta 90
_cell_angle_gamma 90
_space_group_name_H-M_alt 'P 1'
_space_group_name_Hall 'P 1'
loop_
    _symmetry_equiv_pos_as_xyz
    x,y,z
loop_
    _atom_site_label
    _atom_site_type_symbol
    _atom_site_fract_x
    _atom_site_fract_y
    _atom_site_fract_z
    _atom_site_occupancy
    N1       N        0.67510    0.18619    0.41240    1.000
    N2       N        0.75562    0.91647    0.41260    1.000
    C1       C        0.69030    0.12130    0.33090    1.000
    H1       H        0.68790    0.12190    0.21140    1.000
    C2       C        0.71020    0.05045    0.41190    1.000
    C3       C        0.73340    0.97980    0.33140    1.000
    H2       H        0.73290    0.97830    0.21180    1.000
    N3       N        0.32490    0.81381    0.41240    1.000
    N4       N        0.24438    0.08353    0.41260    1.000
    C4       C        0.30970    0.87870    0.33090    1.000
    H3       H        0.31210    0.87810    0.21140    1.000
    C5       C        0.28980    0.94955    0.41190    1.000
    C6       C        0.26660    0.02020    0.33140    1.000
    H4       H        0.26710    0.02170    0.21180    1.000
    N5       N        0.18619    0.67510    0.58760    1.000
    N6       N        0.91647    0.75562    0.58740    1.000
    C7       C        0.12130    0.69030    0.66910    1.000
    H5       H        0.12190    0.68790    0.78860    1.000
    C8       C        0.05045    0.71020    0.58810    1.000
    C9       C        0.97980    0.73340    0.66860    1.000
    H6       H        0.97830    0.73290    0.78820    1.000
    N7       N        0.81381    0.32490    0.58760    1.000
    N8       N        0.08353    0.24438    0.58740    1.000
    C10      C        0.87870    0.30970    0.66910    1.000
    H7       H        0.87810    0.31210    0.78860    1.000
    C11      C        0.94955    0.28980    0.58810    1.000
    C12      C        0.02020    0.26660    0.66860    1.000
    H8       H        0.02170    0.26710    0.78820    1.000
    N9       N        0.32490    0.81381    0.58760    1.000
    N10      N        0.24438    0.08353    0.58740    1.000
    C13      C        0.30970    0.87870    0.66910    1.000
    H9       H        0.31210    0.87810    0.78860    1.000
    C14      C        0.28980    0.94955    0.58810    1.000
    C15      C        0.26660    0.02020    0.66860    1.000
    H10      H        0.26710    0.02170    0.78820    1.000
    N11      N        0.67510    0.18619    0.58760    1.000
    N12      N        0.75562    0.91647    0.58740    1.000
    C16      C        0.69030    0.12130    0.66910    1.000
    H11      H        0.68790    0.12190    0.78860    1.000
    C17      C        0.71020    0.05045    0.58810    1.000
    C18      C        0.73340    0.97980    0.66860    1.000
    H12      H        0.73290    0.97830    0.78820    1.000
    N13      N        0.81381    0.32490    0.41240    1.000
    N14      N        0.08353    0.24438    0.41260    1.000
    C19      C        0.87870    0.30970    0.33090    1.000
    H13      H        0.87810    0.31210    0.21140    1.000
    C20      C        0.94955    0.28980    0.41190    1.000
    C21      C        0.02020    0.26660    0.33140    1.000
    H14      H        0.02170    0.26710    0.21180    1.000
    N15      N        0.18619    0.67510    0.41240    1.000
    N16      N        0.91647    0.75562    0.41260    1.000
    C22      C        0.12130    0.69030    0.33090    1.000
    H15      H        0.12190    0.68790    0.21140    1.000
    C23      C        0.05045    0.71020    0.41190    1.000
    C24      C        0.97980    0.73340    0.33140    1.000
    H16      H        0.97830    0.73290    0.21180    1.000
    Ag1      Ag       0.18735    0.18735    0.75893    1.000
    N17      N        0.09964    0.09964    0.91350    1.000
    C25      C        0.05220    0.05220    0.83260    1.000
    H17      H        0.05300    0.05300    0.71300    1.000
    Ag2      Ag       0.81265    0.81265    0.75893    1.000
    N18      N        0.90036    0.90036    0.91350    1.000
    C26      C        0.94780    0.94780    0.83260    1.000
    H18      H        0.94700    0.94700    0.71300    1.000
    Ag3      Ag       0.81265    0.81265    0.24107    1.000
    N19      N        0.90036    0.90036    0.08650    1.000
    C27      C        0.94780    0.94780    0.16740    1.000
    H19      H        0.94700    0.94700    0.28700    1.000
    Ag4      Ag       0.18735    0.18735    0.24107    1.000
    N20      N        0.09964    0.09964    0.08650    1.000
    C28      C        0.05220    0.05220    0.16740    1.000
    H20      H        0.05300    0.05300    0.28700    1.000
    C29      C        0.00000    0.00000    0.91340    1.000
    C30      C        0.00000    0.00000    0.08660    1.000
    N21      N        0.31381    0.17510    0.91240    1.000
    N22      N        0.58353    0.25562    0.91260    1.000
    C31      C        0.37870    0.19030    0.83090    1.000
    H21      H        0.37810    0.18790    0.71140    1.000
    C32      C        0.44955    0.21020    0.91190    1.000
    C33      C        0.52020    0.23340    0.83140    1.000
    H22      H        0.52170    0.23290    0.71180    1.000
    N23      N        0.68619    0.82490    0.91240    1.000
    N24      N        0.41647    0.74438    0.91260    1.000
    C34      C        0.62130    0.80970    0.83090    1.000
    H23      H        0.62190    0.81210    0.71140    1.000
    C35      C        0.55045    0.78980    0.91190    1.000
    C36      C        0.47980    0.76660    0.83140    1.000
    H24      H        0.47830    0.76710    0.71180    1.000
    N25      N        0.82490    0.68619    0.08760    1.000
    N26      N        0.74438    0.41647    0.08740    1.000
    C37      C        0.80970    0.62130    0.16910    1.000
    H25      H        0.81210    0.62190    0.28860    1.000
    C38      C        0.78980    0.55045    0.08810    1.000
    C39      C        0.76660    0.47980    0.16860    1.000
    H26      H        0.76710    0.47830    0.28820    1.000
    N27      N        0.17510    0.31381    0.08760    1.000
    N28      N        0.25562    0.58353    0.08740    1.000
    C40      C        0.19030    0.37870    0.16910    1.000
    H27      H        0.18790    0.37810    0.28860    1.000
    C41      C        0.21020    0.44955    0.08810    1.000
    C42      C        0.23340    0.52020    0.16860    1.000
    H28      H        0.23290    0.52170    0.28820    1.000
    N29      N        0.68619    0.82490    0.08760    1.000
    N30      N        0.41647    0.74438    0.08740    1.000
    C43      C        0.62130    0.80970    0.16910    1.000
    H29      H        0.62190    0.81210    0.28860    1.000
    C44      C        0.55045    0.78980    0.08810    1.000
    C45      C        0.47980    0.76660    0.16860    1.000
    H30      H        0.47830    0.76710    0.28820    1.000
    N31      N        0.31381    0.17510    0.08760    1.000
    N32      N        0.58353    0.25562    0.08740    1.000
    C46      C        0.37870    0.19030    0.16910    1.000
    H31      H        0.37810    0.18790    0.28860    1.000
    C47      C        0.44955    0.21020    0.08810    1.000
    C48      C        0.52020    0.23340    0.16860    1.000
    H32      H        0.52170    0.23290    0.28820    1.000
    N33      N        0.17510    0.31381    0.91240    1.000
    N34      N        0.25562    0.58353    0.91260    1.000
    C49      C        0.19030    0.37870    0.83090    1.000
    H33      H        0.18790    0.37810    0.71140    1.000
    C50      C        0.21020    0.44955    0.91190    1.000
    C51      C        0.23340    0.52020    0.83140    1.000
    H34      H        0.23290    0.52170    0.71180    1.000
    N35      N        0.82490    0.68619    0.91240    1.000
    N36      N        0.74438    0.41647    0.91260    1.000
    C52      C        0.80970    0.62130    0.83090    1.000
    H35      H        0.81210    0.62190    0.71140    1.000
    C53      C        0.78980    0.55045    0.91190    1.000
    C54      C        0.76660    0.47980    0.83140    1.000
    H36      H        0.76710    0.47830    0.71180    1.000
    Ag5      Ag       0.68735    0.31265    0.25893    1.000
    N37      N        0.59964    0.40036    0.41350    1.000
    C55      C        0.55220    0.44780    0.33260    1.000
    H37      H        0.55300    0.44700    0.21300    1.000
    Ag6      Ag       0.31265    0.68735    0.25893    1.000
    N38      N        0.40036    0.59964    0.41350    1.000
    C56      C        0.44780    0.55220    0.33260    1.000
    H38      H        0.44700    0.55300    0.21300    1.000
    Ag7      Ag       0.31265    0.68735    0.74107    1.000
    N39      N        0.40036    0.59964    0.58650    1.000
    C57      C        0.44780    0.55220    0.66740    1.000
    H39      H        0.44700    0.55300    0.78700    1.000
    Ag8      Ag       0.68735    0.31265    0.74107    1.000
    N40      N        0.59964    0.40036    0.58650    1.000
    C58      C        0.55220    0.44780    0.66740    1.000
    H40      H        0.55300    0.44700    0.78700    1.000
    C59      C        0.50000    0.50000    0.41340    1.000
    C60      C        0.50000    0.50000    0.58660    1.000
