# CIF file generated by openbabel 3.1.0, see https://openbabel.org
data_I
_chemical_name_common 'image0'
_cell_length_a 8.457
_cell_length_b 13.812
_cell_length_c 10.189
_cell_angle_alpha 90
_cell_angle_beta 91.2
_cell_angle_gamma 90
_space_group_name_H-M_alt 'P 1'
_space_group_name_Hall 'P 1'
loop_
    _symmetry_equiv_pos_as_xyz
    x,y,z
loop_
    _atom_site_label
    _atom_site_type_symbol
    _atom_site_fract_x
    _atom_site_fract_y
    _atom_site_fract_z
    _atom_site_occupancy
    Zn1      Zn       0.21635    0.57367    0.97524    1.000
    Zn2      Zn       0.71798    0.86908    0.08593    1.000
    P1       P        0.24516    0.61313    0.66127    1.000
    P2       P        0.74904    0.03712    0.29524    1.000
    P3       P        0.90554    0.69373    0.96407    1.000
    P4       P        0.40634    0.77324    0.99437    1.000
    O1       O        0.35290    0.67534    0.04230    1.000
    O2       O        0.00140    0.75428    0.86680    1.000
    O3       O        0.99840    0.60622    0.00990    1.000
    O4       O        0.25740    0.83941    0.96400    1.000
    H1       H        0.17000    0.81200    0.93000    1.000
    O5       O        0.50080    0.82737    0.09920    1.000
    O6       O        0.77050    0.93575    0.24730    1.000
    O7       O        0.58600    0.07480    0.24100    1.000
    H2       H        0.54700    0.12900    0.27700    1.000
    O8       O        0.85000    0.75455    0.07800    1.000
    O9       O        0.25380    0.55817    0.78760    1.000
    O10      O        0.50050    0.76504    0.86710    1.000
    O11      O        0.75810    0.65198    0.88500    1.000
    H3       H        0.67400    0.69200    0.88100    1.000
    O12      O        0.37770    0.69120    0.65540    1.000
    H4       H        0.42600    0.72300    0.72200    1.000
    O13      O        0.87840    0.10130    0.23260    1.000
    H5       H        0.93100    0.14900    0.27400    1.000
    O14      O        0.75750    0.04476    0.44150    1.000
    O15      O        0.08600    0.66990    0.64780    1.000
    H6       H        0.04900    0.70100    0.71800    1.000
    O16      O        0.26080    0.55504    0.53820    1.000
    Zn3      Zn       0.21635    0.42633    0.47524    1.000
    Zn4      Zn       0.71798    0.13092    0.58593    1.000
    P5       P        0.24516    0.38687    0.16127    1.000
    P6       P        0.74904    0.96288    0.79524    1.000
    P7       P        0.90554    0.30627    0.46407    1.000
    P8       P        0.40634    0.22676    0.49437    1.000
    O17      O        0.35290    0.32466    0.54230    1.000
    O18      O        0.00140    0.24572    0.36680    1.000
    O19      O        0.99840    0.39378    0.50990    1.000
    O20      O        0.25740    0.16059    0.46400    1.000
    H7       H        0.17000    0.18800    0.43000    1.000
    O21      O        0.50080    0.17263    0.59920    1.000
    O22      O        0.77050    0.06425    0.74730    1.000
    O23      O        0.58600    0.92520    0.74100    1.000
    H8       H        0.54700    0.87100    0.77700    1.000
    O24      O        0.85000    0.24545    0.57800    1.000
    O25      O        0.25380    0.44183    0.28760    1.000
    O26      O        0.50050    0.23496    0.36710    1.000
    O27      O        0.75810    0.34802    0.38500    1.000
    H9       H        0.67400    0.30800    0.38100    1.000
    O28      O        0.37770    0.30880    0.15540    1.000
    H10      H        0.42600    0.27700    0.22200    1.000
    O29      O        0.87840    0.89870    0.73260    1.000
    H11      H        0.93100    0.85100    0.77400    1.000
    O30      O        0.75750    0.95524    0.94150    1.000
    O31      O        0.08600    0.33010    0.14780    1.000
    H12      H        0.04900    0.29900    0.21800    1.000
    O32      O        0.26080    0.44496    0.03820    1.000
