# CIF file generated by openbabel 3.1.0, see https://openbabel.org
data_I
_chemical_name_common 'image0'
_cell_length_a 10.142
_cell_length_b 13.222
_cell_length_c 14.872
_cell_angle_alpha 109.018
_cell_angle_beta 101.882
_cell_angle_gamma 98.999
_space_group_name_H-M_alt 'P 1'
_space_group_name_Hall 'P 1'
loop_
    _symmetry_equiv_pos_as_xyz
    x,y,z
loop_
    _atom_site_label
    _atom_site_type_symbol
    _atom_site_fract_x
    _atom_site_fract_y
    _atom_site_fract_z
    _atom_site_occupancy
    Co1      Co       0.53003    0.51470    0.14843    1.000
    C1       C        0.74330    0.73680    0.26100    1.000
    H1       H        0.80580    0.69320    0.24780    1.000
    C2       C        0.79630    0.84660    0.31660    1.000
    H2       H        0.89180    0.87580    0.34020    1.000
    C3       C        0.70580    0.91370    0.33710    1.000
    C4       C        0.56490    0.86330    0.30000    1.000
    H3       H        0.49970    0.90470    0.31170    1.000
    C5       C        0.52320    0.75400    0.24680    1.000
    H4       H        0.42820    0.72240    0.22400    1.000
    C6       C        0.87560    0.09430    0.42490    1.000
    C7       C        0.97820    0.29620    0.50280    1.000
    H5       H        0.03120    0.28760    0.45790    1.000
    C8       C        0.99120    0.39950    0.56910    1.000
    H6       H        0.04960    0.46050    0.56810    1.000
    C9       C        0.91590    0.41130    0.63750    1.000
    C10      C        0.83010    0.32110    0.63900    1.000
    H7       H        0.78120    0.32940    0.68640    1.000
    C11      C        0.81660    0.21910    0.57080    1.000
    H8       H        0.75720    0.15870    0.57210    1.000
    C12      C        0.88840    0.20300    0.50010    1.000
    C13      C        0.00120    0.60990    0.73140    1.000
    C14      C        0.14220    0.62170    0.74570    1.000
    H9       H        0.17970    0.56040    0.73080    1.000
    C15      C        0.22540    0.72590    0.78220    1.000
    H10      H        0.32000    0.73470    0.78840    1.000
    C16      C        0.17350    0.81850    0.81010    1.000
    C17      C        0.02960    0.80330    0.79370    1.000
    H11      H        0.99140    0.86410    0.80940    1.000
    C18      C        0.94580    0.70020    0.75490    1.000
    H12      H        0.85030    0.69060    0.74410    1.000
    C19      C        0.27270    0.92900    0.85320    1.000
    C20      C        0.30680    0.11790    0.97200    1.000
    C21      C        0.43410    0.16340    0.96360    1.000
    H13      H        0.47830    0.12010    0.92270    1.000
    C22      C        0.49300    0.27150    0.01560    1.000
    H14      H        0.57900    0.29950    0.00910    1.000
    C23      C        0.31730    0.29710    0.08280    1.000
    H15      H        0.27430    0.34270    0.12290    1.000
    C24      C        0.25110    0.18760    0.03470    1.000
    H16      H        0.16740    0.16060    0.04490    1.000
    C25      C        0.51540    0.50670    0.31190    1.000
    C26      C        0.50760    0.50260    0.40870    1.000
    C27      C        0.61270    0.48000    0.46680    1.000
    H17      H        0.69030    0.46660    0.44530    1.000
    C28      C        0.39560    0.52320    0.44230    1.000
    H18      H        0.32370    0.53950    0.40370    1.000
    C29      C        0.97550    0.51770    0.09110    1.000
    H19      H        0.95890    0.52990    0.15250    1.000
    C30      C        0.10770    0.52050    0.08190    1.000
    H20      H        0.18020    0.53410    0.13730    1.000
    C31      C        0.13420    0.50360    0.99190    1.000
    C32      C        0.27980    0.51200    0.98250    1.000
    N1       N        0.60780    0.68790    0.22440    1.000
    N2       N        0.74450    0.02530    0.39640    1.000
    N3       N        0.23270    0.00960    0.92150    1.000
    N4       N        0.43920    0.34170    0.07540    1.000
    O1       O        0.96910    0.06800    0.39080    1.000
    O2       O        0.90860    0.51040    0.70330    1.000
    O3       O        0.38150    0.94390    0.83310    1.000
    O4       O        0.62150    0.49380    0.28310    1.000
    O5       O        0.41310    0.52180    0.25770    1.000
    O6       O        0.37520    0.54440    0.06050    1.000
    O7       O        0.29640    0.48830    0.89720    1.000
    Co2      Co       0.46997    0.48530    0.85157    1.000
    C33      C        0.25670    0.26320    0.73900    1.000
    H21      H        0.19420    0.30680    0.75220    1.000
    C34      C        0.20370    0.15340    0.68340    1.000
    H22      H        0.10820    0.12420    0.65980    1.000
    C35      C        0.29420    0.08630    0.66290    1.000
    C36      C        0.43510    0.13670    0.70000    1.000
    H23      H        0.50030    0.09530    0.68830    1.000
    C37      C        0.47680    0.24600    0.75320    1.000
    H24      H        0.57180    0.27760    0.77600    1.000
    C38      C        0.12440    0.90570    0.57510    1.000
    C39      C        0.02180    0.70380    0.49720    1.000
    H25      H        0.96880    0.71240    0.54210    1.000
    C40      C        0.00880    0.60050    0.43090    1.000
    H26      H        0.95040    0.53950    0.43190    1.000
    C41      C        0.08410    0.58870    0.36250    1.000
    C42      C        0.16990    0.67890    0.36100    1.000
    H27      H        0.21880    0.67060    0.31360    1.000
    C43      C        0.18340    0.78090    0.42920    1.000
    H28      H        0.24280    0.84130    0.42790    1.000
    C44      C        0.11160    0.79700    0.49990    1.000
    C45      C        0.99880    0.39010    0.26860    1.000
    C46      C        0.85780    0.37830    0.25430    1.000
    H29      H        0.82030    0.43960    0.26920    1.000
    C47      C        0.77460    0.27410    0.21780    1.000
    H30      H        0.68000    0.26530    0.21160    1.000
    C48      C        0.82650    0.18150    0.18990    1.000
    C49      C        0.97040    0.19670    0.20630    1.000
    H31      H        0.00860    0.13590    0.19060    1.000
    C50      C        0.05420    0.29980    0.24510    1.000
    H32      H        0.14970    0.30940    0.25590    1.000
    C51      C        0.72730    0.07100    0.14680    1.000
    C52      C        0.69320    0.88210    0.02800    1.000
    C53      C        0.56590    0.83660    0.03640    1.000
    H33      H        0.52170    0.87990    0.07730    1.000
    C54      C        0.50700    0.72850    0.98440    1.000
    H34      H        0.42100    0.70050    0.99090    1.000
    C55      C        0.68270    0.70290    0.91720    1.000
    H35      H        0.72570    0.65730    0.87710    1.000
    C56      C        0.74890    0.81240    0.96530    1.000
    H36      H        0.83260    0.83940    0.95510    1.000
    C57      C        0.48460    0.49330    0.68810    1.000
    C58      C        0.49240    0.49740    0.59130    1.000
    C59      C        0.38730    0.52000    0.53320    1.000
    H37      H        0.30970    0.53340    0.55470    1.000
    C60      C        0.60440    0.47680    0.55770    1.000
    H38      H        0.67630    0.46050    0.59630    1.000
    C61      C        0.02450    0.48230    0.90890    1.000
    H39      H        0.04110    0.47010    0.84750    1.000
    C62      C        0.89230    0.47950    0.91810    1.000
    H40      H        0.81980    0.46590    0.86270    1.000
    C63      C        0.86580    0.49640    0.00810    1.000
    C64      C        0.72020    0.48800    0.01750    1.000
    N5       N        0.39220    0.31210    0.77560    1.000
    N6       N        0.25550    0.97470    0.60360    1.000
    N7       N        0.76730    0.99040    0.07850    1.000
    N8       N        0.56080    0.65830    0.92460    1.000
    O8       O        0.03090    0.93200    0.60920    1.000
    O9       O        0.09140    0.48960    0.29670    1.000
    O10      O        0.61850    0.05610    0.16690    1.000
    O11      O        0.37850    0.50620    0.71690    1.000
    O12      O        0.58690    0.47820    0.74230    1.000
    O13      O        0.62480    0.45560    0.93950    1.000
    O14      O        0.70360    0.51170    0.10280    1.000
