# CIF file generated by openbabel 3.1.0, see https://openbabel.org
data_I
_chemical_name_common 'image0'
_cell_length_a 34.307
_cell_length_b 14.392
_cell_length_c 34.931
_cell_angle_alpha 90
_cell_angle_beta 106.22
_cell_angle_gamma 90
_space_group_name_H-M_alt 'P 1'
_space_group_name_Hall 'P 1'
loop_
    _symmetry_equiv_pos_as_xyz
    x,y,z
loop_
    _atom_site_label
    _atom_site_type_symbol
    _atom_site_fract_x
    _atom_site_fract_y
    _atom_site_fract_z
    _atom_site_occupancy
    Zn1      Zn       0.14103    0.61617    0.07496    1.000
    Zn2      Zn       0.16182    0.84280    0.26128    1.000
    Zn3      Zn       0.88447    0.08701    0.43744    1.000
    I1       I        0.08110    0.71761    0.07318    1.000
    I2       I        0.20740    0.67616    0.06510    1.000
    I3       I        0.22696    0.75118    0.28872    1.000
    I4       I        0.11660    0.81707    0.19128    1.000
    I5       I        0.86412    0.07452    0.50127    1.000
    I6       I        0.90123    0.23623    0.40662    1.000
    N1       N        0.15740    0.54970    0.12980    1.000
    C1       C        0.17230    0.59770    0.16360    1.000
    H1       H        0.17290    0.66360    0.16260    1.000
    C2       C        0.18680    0.55390    0.19990    1.000
    H2       H        0.19860    0.58970    0.22310    1.000
    C3       C        0.18440    0.45830    0.20290    1.000
    C4       C        0.16740    0.40840    0.16760    1.000
    H3       H        0.16500    0.34270    0.16810    1.000
    C5       C        0.15450    0.45630    0.13270    1.000
    H4       H        0.14270    0.42210    0.10900    1.000
    N2       N        0.17630    0.98370    0.26840    1.000
    C6       C        0.20500    0.01780    0.29970    1.000
    H5       H        0.21890    0.97570    0.31980    1.000
    C7       C        0.21550    0.10940    0.30410    1.000
    H6       H        0.23580    0.13070    0.32680    1.000
    C8       C        0.19520    0.17180    0.27380    1.000
    C9       C        0.16570    0.13730    0.24160    1.000
    H7       H        0.15190    0.17790    0.22080    1.000
    C10      C        0.15630    0.04390    0.23960    1.000
    H8       H        0.13540    0.02120    0.21760    1.000
    N3       N        0.33960    0.52300    0.39350    1.000
    C11      C        0.33000    0.43240    0.39560    1.000
    H9       H        0.34460    0.39740    0.41800    1.000
    C12      C        0.30010    0.38830    0.36660    1.000
    H10      H        0.29450    0.32440    0.36940    1.000
    C13      C        0.27830    0.43720    0.33380    1.000
    C14      C        0.28760    0.53120    0.33080    1.000
    H11      H        0.27370    0.56700    0.30830    1.000
    C15      C        0.31790    0.57070    0.36180    1.000
    H12      H        0.32350    0.63500    0.36030    1.000
    C16      C        0.20110    0.40700    0.24030    1.000
    N4       N        0.18800    0.32000    0.24230    1.000
    C17      C        0.20710    0.27290    0.27420    1.000
    N5       N        0.23650    0.30390    0.30550    1.000
    C18      C        0.24620    0.39440    0.30110    1.000
    N6       N        0.23000    0.44820    0.26900    1.000
    N7       N        0.13190    0.82420    0.30410    1.000
    C19      C        0.10990    0.89230    0.31380    1.000
    H13      H        0.10650    0.94840    0.29890    1.000
    C20      C        0.09170    0.88520    0.34450    1.000
    H14      H        0.07670    0.93560    0.35090    1.000
    C21      C        0.09580    0.80360    0.36540    1.000
    C22      C        0.11710    0.73000    0.35460    1.000
    H15      H        0.11980    0.67220    0.36820    1.000
    C23      C        0.13390    0.74370    0.32350    1.000
    H16      H        0.14770    0.69330    0.31550    1.000
    N8       N        0.93310    0.00290    0.43810    1.000
    C24      C        0.95270    0.95130    0.46930    1.000
    H17      H        0.94380    0.95290    0.49270    1.000
    C25      C        0.98560    0.89540    0.46890    1.000
    H18      H        0.99880    0.85910    0.49150    1.000
    C26      C        0.99860    0.89350    0.43550    1.000
    C27      C        0.97830    0.94750    0.40230    1.000
    H19      H        0.98660    0.94720    0.37850    1.000
    C28      C        0.94630    0.00010    0.40560    1.000
    H20      H        0.93270    0.03720    0.38350    1.000
    N9       N        0.12050    0.49260    0.53600    1.000
    C29      C        0.08320    0.52560    0.53060    1.000
    H21      H        0.06610    0.49680    0.54440    1.000
    C30      C        0.06800    0.60090    0.50560    1.000
    H22      H        0.04170    0.62500    0.50360    1.000
    C31      C        0.09150    0.63910    0.48400    1.000
    C32      C        0.13150    0.60410    0.48920    1.000
    H23      H        0.14870    0.62990    0.47490    1.000
    C33      C        0.14480    0.53130    0.51580    1.000
    H24      H        0.17150    0.50820    0.51990    1.000
    C34      C        0.07880    0.79170    0.40000    1.000
    N10      N        0.04900    0.84960    0.40200    1.000
    C35      C        0.03350    0.83310    0.43240    1.000
    N11      N        0.04540    0.76580    0.45970    1.000
    C36      C        0.07620    0.71580    0.45470    1.000
    N12      N        0.09400    0.72490    0.42580    1.000
    Zn4      Zn       0.64103    0.11617    0.07496    1.000
    Zn5      Zn       0.66182    0.34280    0.26128    1.000
    Zn6      Zn       0.38447    0.58701    0.43744    1.000
    I7       I        0.58110    0.21761    0.07318    1.000
    I8       I        0.70740    0.17616    0.06510    1.000
    I9       I        0.72696    0.25118    0.28872    1.000
    I10      I        0.61660    0.31707    0.19128    1.000
    I11      I        0.36412    0.57452    0.50127    1.000
    I12      I        0.40123    0.73623    0.40662    1.000
    N13      N        0.65740    0.04970    0.12980    1.000
    C37      C        0.67230    0.09770    0.16360    1.000
    H25      H        0.67290    0.16360    0.16260    1.000
    C38      C        0.68680    0.05390    0.19990    1.000
    H26      H        0.69860    0.08970    0.22310    1.000
    C39      C        0.68440    0.95830    0.20290    1.000
    C40      C        0.66740    0.90840    0.16760    1.000
    H27      H        0.66500    0.84270    0.16810    1.000
    C41      C        0.65450    0.95630    0.13270    1.000
    H28      H        0.64270    0.92210    0.10900    1.000
    N14      N        0.67630    0.48370    0.26840    1.000
    C42      C        0.70500    0.51780    0.29970    1.000
    H29      H        0.71890    0.47570    0.31980    1.000
    C43      C        0.71550    0.60940    0.30410    1.000
    H30      H        0.73580    0.63070    0.32680    1.000
    C44      C        0.69520    0.67180    0.27380    1.000
    C45      C        0.66570    0.63730    0.24160    1.000
    H31      H        0.65190    0.67790    0.22080    1.000
    C46      C        0.65630    0.54390    0.23960    1.000
    H32      H        0.63540    0.52120    0.21760    1.000
    N15      N        0.83960    0.02300    0.39350    1.000
    C47      C        0.83000    0.93240    0.39560    1.000
    H33      H        0.84460    0.89740    0.41800    1.000
    C48      C        0.80010    0.88830    0.36660    1.000
    H34      H        0.79450    0.82440    0.36940    1.000
    C49      C        0.77830    0.93720    0.33380    1.000
    C50      C        0.78760    0.03120    0.33080    1.000
    H35      H        0.77370    0.06700    0.30830    1.000
    C51      C        0.81790    0.07070    0.36180    1.000
    H36      H        0.82350    0.13500    0.36030    1.000
    C52      C        0.70110    0.90700    0.24030    1.000
    N16      N        0.68800    0.82000    0.24230    1.000
    C53      C        0.70710    0.77290    0.27420    1.000
    N17      N        0.73650    0.80390    0.30550    1.000
    C54      C        0.74620    0.89440    0.30110    1.000
    N18      N        0.73000    0.94820    0.26900    1.000
    N19      N        0.63190    0.32420    0.30410    1.000
    C55      C        0.60990    0.39230    0.31380    1.000
    H37      H        0.60650    0.44840    0.29890    1.000
    C56      C        0.59170    0.38520    0.34450    1.000
    H38      H        0.57670    0.43560    0.35090    1.000
    C57      C        0.59580    0.30360    0.36540    1.000
    C58      C        0.61710    0.23000    0.35460    1.000
    H39      H        0.61980    0.17220    0.36820    1.000
    C59      C        0.63390    0.24370    0.32350    1.000
    H40      H        0.64770    0.19330    0.31550    1.000
    N20      N        0.43310    0.50290    0.43810    1.000
    C60      C        0.45270    0.45130    0.46930    1.000
    H41      H        0.44380    0.45290    0.49270    1.000
    C61      C        0.48560    0.39540    0.46890    1.000
    H42      H        0.49880    0.35910    0.49150    1.000
    C62      C        0.49860    0.39350    0.43550    1.000
    C63      C        0.47830    0.44750    0.40230    1.000
    H43      H        0.48660    0.44720    0.37850    1.000
    C64      C        0.44630    0.50010    0.40560    1.000
    H44      H        0.43270    0.53720    0.38350    1.000
    N21      N        0.62050    0.99260    0.53600    1.000
    C65      C        0.58320    0.02560    0.53060    1.000
    H45      H        0.56610    0.99680    0.54440    1.000
    C66      C        0.56800    0.10090    0.50560    1.000
    H46      H        0.54170    0.12500    0.50360    1.000
    C67      C        0.59150    0.13910    0.48400    1.000
    C68      C        0.63150    0.10410    0.48920    1.000
    H47      H        0.64870    0.12990    0.47490    1.000
    C69      C        0.64480    0.03130    0.51580    1.000
    H48      H        0.67150    0.00820    0.51990    1.000
    C70      C        0.57880    0.29170    0.40000    1.000
    N22      N        0.54900    0.34960    0.40200    1.000
    C71      C        0.53350    0.33310    0.43240    1.000
    N23      N        0.54540    0.26580    0.45970    1.000
    C72      C        0.57620    0.21580    0.45470    1.000
    N24      N        0.59400    0.22490    0.42580    1.000
    Zn7      Zn       0.14103    0.38383    0.57496    1.000
    Zn8      Zn       0.16182    0.15720    0.76128    1.000
    Zn9      Zn       0.88447    0.91299    0.93744    1.000
    I13      I        0.08110    0.28239    0.57318    1.000
    I14      I        0.20740    0.32384    0.56510    1.000
    I15      I        0.22696    0.24882    0.78872    1.000
    I16      I        0.11660    0.18293    0.69128    1.000
    I17      I        0.86412    0.92548    0.00127    1.000
    I18      I        0.90123    0.76377    0.90662    1.000
    N25      N        0.15740    0.45030    0.62980    1.000
    C73      C        0.17230    0.40230    0.66360    1.000
    H49      H        0.17290    0.33640    0.66260    1.000
    C74      C        0.18680    0.44610    0.69990    1.000
    H50      H        0.19860    0.41030    0.72310    1.000
    C75      C        0.18440    0.54170    0.70290    1.000
    C76      C        0.16740    0.59160    0.66760    1.000
    H51      H        0.16500    0.65730    0.66810    1.000
    C77      C        0.15450    0.54370    0.63270    1.000
    H52      H        0.14270    0.57790    0.60900    1.000
    N26      N        0.17630    0.01630    0.76840    1.000
    C78      C        0.20500    0.98220    0.79970    1.000
    H53      H        0.21890    0.02430    0.81980    1.000
    C79      C        0.21550    0.89060    0.80410    1.000
    H54      H        0.23580    0.86930    0.82680    1.000
    C80      C        0.19520    0.82820    0.77380    1.000
    C81      C        0.16570    0.86270    0.74160    1.000
    H55      H        0.15190    0.82210    0.72080    1.000
    C82      C        0.15630    0.95610    0.73960    1.000
    H56      H        0.13540    0.97880    0.71760    1.000
    N27      N        0.33960    0.47700    0.89350    1.000
    C83      C        0.33000    0.56760    0.89560    1.000
    H57      H        0.34460    0.60260    0.91800    1.000
    C84      C        0.30010    0.61170    0.86660    1.000
    H58      H        0.29450    0.67560    0.86940    1.000
    C85      C        0.27830    0.56280    0.83380    1.000
    C86      C        0.28760    0.46880    0.83080    1.000
    H59      H        0.27370    0.43300    0.80830    1.000
    C87      C        0.31790    0.42930    0.86180    1.000
    H60      H        0.32350    0.36500    0.86030    1.000
    C88      C        0.20110    0.59300    0.74030    1.000
    N28      N        0.18800    0.68000    0.74230    1.000
    C89      C        0.20710    0.72710    0.77420    1.000
    N29      N        0.23650    0.69610    0.80550    1.000
    C90      C        0.24620    0.60560    0.80110    1.000
    N30      N        0.23000    0.55180    0.76900    1.000
    N31      N        0.13190    0.17580    0.80410    1.000
    C91      C        0.10990    0.10770    0.81380    1.000
    H61      H        0.10650    0.05160    0.79890    1.000
    C92      C        0.09170    0.11480    0.84450    1.000
    H62      H        0.07670    0.06440    0.85090    1.000
    C93      C        0.09580    0.19640    0.86540    1.000
    C94      C        0.11710    0.27000    0.85460    1.000
    H63      H        0.11980    0.32780    0.86820    1.000
    C95      C        0.13390    0.25630    0.82350    1.000
    H64      H        0.14770    0.30670    0.81550    1.000
    N32      N        0.93310    0.99710    0.93810    1.000
    C96      C        0.95270    0.04870    0.96930    1.000
    H65      H        0.94380    0.04710    0.99270    1.000
    C97      C        0.98560    0.10460    0.96890    1.000
    H66      H        0.99880    0.14090    0.99150    1.000
    C98      C        0.99860    0.10650    0.93550    1.000
    C99      C        0.97830    0.05250    0.90230    1.000
    H67      H        0.98660    0.05280    0.87850    1.000
    C100     C        0.94630    0.99990    0.90560    1.000
    H68      H        0.93270    0.96280    0.88350    1.000
    N33      N        0.12050    0.50740    0.03600    1.000
    C101     C        0.08320    0.47440    0.03060    1.000
    H69      H        0.06610    0.50320    0.04440    1.000
    C102     C        0.06800    0.39910    0.00560    1.000
    H70      H        0.04170    0.37500    0.00360    1.000
    C103     C        0.09150    0.36090    0.98400    1.000
    C104     C        0.13150    0.39590    0.98920    1.000
    H71      H        0.14870    0.37010    0.97490    1.000
    C105     C        0.14480    0.46870    0.01580    1.000
    H72      H        0.17150    0.49180    0.01990    1.000
    C106     C        0.07880    0.20830    0.90000    1.000
    N34      N        0.04900    0.15040    0.90200    1.000
    C107     C        0.03350    0.16690    0.93240    1.000
    N35      N        0.04540    0.23420    0.95970    1.000
    C108     C        0.07620    0.28420    0.95470    1.000
    N36      N        0.09400    0.27510    0.92580    1.000
    Zn10     Zn       0.64103    0.88383    0.57496    1.000
    Zn11     Zn       0.66182    0.65720    0.76128    1.000
    Zn12     Zn       0.38447    0.41299    0.93744    1.000
    I19      I        0.58110    0.78239    0.57318    1.000
    I20      I        0.70740    0.82384    0.56510    1.000
    I21      I        0.72696    0.74882    0.78872    1.000
    I22      I        0.61660    0.68293    0.69128    1.000
    I23      I        0.36412    0.42548    0.00127    1.000
    I24      I        0.40123    0.26377    0.90662    1.000
    N37      N        0.65740    0.95030    0.62980    1.000
    C109     C        0.67230    0.90230    0.66360    1.000
    H73      H        0.67290    0.83640    0.66260    1.000
    C110     C        0.68680    0.94610    0.69990    1.000
    H74      H        0.69860    0.91030    0.72310    1.000
    C111     C        0.68440    0.04170    0.70290    1.000
    C112     C        0.66740    0.09160    0.66760    1.000
    H75      H        0.66500    0.15730    0.66810    1.000
    C113     C        0.65450    0.04370    0.63270    1.000
    H76      H        0.64270    0.07790    0.60900    1.000
    N38      N        0.67630    0.51630    0.76840    1.000
    C114     C        0.70500    0.48220    0.79970    1.000
    H77      H        0.71890    0.52430    0.81980    1.000
    C115     C        0.71550    0.39060    0.80410    1.000
    H78      H        0.73580    0.36930    0.82680    1.000
    C116     C        0.69520    0.32820    0.77380    1.000
    C117     C        0.66570    0.36270    0.74160    1.000
    H79      H        0.65190    0.32210    0.72080    1.000
    C118     C        0.65630    0.45610    0.73960    1.000
    H80      H        0.63540    0.47880    0.71760    1.000
    N39      N        0.83960    0.97700    0.89350    1.000
    C119     C        0.83000    0.06760    0.89560    1.000
    H81      H        0.84460    0.10260    0.91800    1.000
    C120     C        0.80010    0.11170    0.86660    1.000
    H82      H        0.79450    0.17560    0.86940    1.000
    C121     C        0.77830    0.06280    0.83380    1.000
    C122     C        0.78760    0.96880    0.83080    1.000
    H83      H        0.77370    0.93300    0.80830    1.000
    C123     C        0.81790    0.92930    0.86180    1.000
    H84      H        0.82350    0.86500    0.86030    1.000
    C124     C        0.70110    0.09300    0.74030    1.000
    N40      N        0.68800    0.18000    0.74230    1.000
    C125     C        0.70710    0.22710    0.77420    1.000
    N41      N        0.73650    0.19610    0.80550    1.000
    C126     C        0.74620    0.10560    0.80110    1.000
    N42      N        0.73000    0.05180    0.76900    1.000
    N43      N        0.63190    0.67580    0.80410    1.000
    C127     C        0.60990    0.60770    0.81380    1.000
    H85      H        0.60650    0.55160    0.79890    1.000
    C128     C        0.59170    0.61480    0.84450    1.000
    H86      H        0.57670    0.56440    0.85090    1.000
    C129     C        0.59580    0.69640    0.86540    1.000
    C130     C        0.61710    0.77000    0.85460    1.000
    H87      H        0.61980    0.82780    0.86820    1.000
    C131     C        0.63390    0.75630    0.82350    1.000
    H88      H        0.64770    0.80670    0.81550    1.000
    N44      N        0.43310    0.49710    0.93810    1.000
    C132     C        0.45270    0.54870    0.96930    1.000
    H89      H        0.44380    0.54710    0.99270    1.000
    C133     C        0.48560    0.60460    0.96890    1.000
    H90      H        0.49880    0.64090    0.99150    1.000
    C134     C        0.49860    0.60650    0.93550    1.000
    C135     C        0.47830    0.55250    0.90230    1.000
    H91      H        0.48660    0.55280    0.87850    1.000
    C136     C        0.44630    0.49990    0.90560    1.000
    H92      H        0.43270    0.46280    0.88350    1.000
    N45      N        0.62050    0.00740    0.03600    1.000
    C137     C        0.58320    0.97440    0.03060    1.000
    H93      H        0.56610    0.00320    0.04440    1.000
    C138     C        0.56800    0.89910    0.00560    1.000
    H94      H        0.54170    0.87500    0.00360    1.000
    C139     C        0.59150    0.86090    0.98400    1.000
    C140     C        0.63150    0.89590    0.98920    1.000
    H95      H        0.64870    0.87010    0.97490    1.000
    C141     C        0.64480    0.96870    0.01580    1.000
    H96      H        0.67150    0.99180    0.01990    1.000
    C142     C        0.57880    0.70830    0.90000    1.000
    N46      N        0.54900    0.65040    0.90200    1.000
    C143     C        0.53350    0.66690    0.93240    1.000
    N47      N        0.54540    0.73420    0.95970    1.000
    C144     C        0.57620    0.78420    0.95470    1.000
    N48      N        0.59400    0.77510    0.92580    1.000
    Zn13     Zn       0.85897    0.61617    0.42504    1.000
    Zn14     Zn       0.83818    0.84280    0.23872    1.000
    Zn15     Zn       0.11553    0.08701    0.06256    1.000
    I25      I        0.91890    0.71761    0.42682    1.000
    I26      I        0.79260    0.67616    0.43490    1.000
    I27      I        0.77304    0.75118    0.21128    1.000
    I28      I        0.88340    0.81707    0.30872    1.000
    I29      I        0.13588    0.07452    0.99873    1.000
    I30      I        0.09877    0.23623    0.09338    1.000
    N49      N        0.84260    0.54970    0.37020    1.000
    C145     C        0.82770    0.59770    0.33640    1.000
    H97      H        0.82710    0.66360    0.33740    1.000
    C146     C        0.81320    0.55390    0.30010    1.000
    H98      H        0.80140    0.58970    0.27690    1.000
    C147     C        0.81560    0.45830    0.29710    1.000
    C148     C        0.83260    0.40840    0.33240    1.000
    H99      H        0.83500    0.34270    0.33190    1.000
    C149     C        0.84550    0.45630    0.36730    1.000
    H100     H        0.85730    0.42210    0.39100    1.000
    N50      N        0.82370    0.98370    0.23160    1.000
    C150     C        0.79500    0.01780    0.20030    1.000
    H101     H        0.78110    0.97570    0.18020    1.000
    C151     C        0.78450    0.10940    0.19590    1.000
    H102     H        0.76420    0.13070    0.17320    1.000
    C152     C        0.80480    0.17180    0.22620    1.000
    C153     C        0.83430    0.13730    0.25840    1.000
    H103     H        0.84810    0.17790    0.27920    1.000
    C154     C        0.84370    0.04390    0.26040    1.000
    H104     H        0.86460    0.02120    0.28240    1.000
    N51      N        0.66040    0.52300    0.10650    1.000
    C155     C        0.67000    0.43240    0.10440    1.000
    H105     H        0.65540    0.39740    0.08200    1.000
    C156     C        0.69990    0.38830    0.13340    1.000
    H106     H        0.70550    0.32440    0.13060    1.000
    C157     C        0.72170    0.43720    0.16620    1.000
    C158     C        0.71240    0.53120    0.16920    1.000
    H107     H        0.72630    0.56700    0.19170    1.000
    C159     C        0.68210    0.57070    0.13820    1.000
    H108     H        0.67650    0.63500    0.13970    1.000
    C160     C        0.79890    0.40700    0.25970    1.000
    N52      N        0.81200    0.32000    0.25770    1.000
    C161     C        0.79290    0.27290    0.22580    1.000
    N53      N        0.76350    0.30390    0.19450    1.000
    C162     C        0.75380    0.39440    0.19890    1.000
    N54      N        0.77000    0.44820    0.23100    1.000
    N55      N        0.86810    0.82420    0.19590    1.000
    C163     C        0.89010    0.89230    0.18620    1.000
    H109     H        0.89350    0.94840    0.20110    1.000
    C164     C        0.90830    0.88520    0.15550    1.000
    H110     H        0.92330    0.93560    0.14910    1.000
    C165     C        0.90420    0.80360    0.13460    1.000
    C166     C        0.88290    0.73000    0.14540    1.000
    H111     H        0.88020    0.67220    0.13180    1.000
    C167     C        0.86610    0.74370    0.17650    1.000
    H112     H        0.85230    0.69330    0.18450    1.000
    N56      N        0.06690    0.00290    0.06190    1.000
    C168     C        0.04730    0.95130    0.03070    1.000
    H113     H        0.05620    0.95290    0.00730    1.000
    C169     C        0.01440    0.89540    0.03110    1.000
    H114     H        0.00120    0.85910    0.00850    1.000
    C170     C        0.00140    0.89350    0.06450    1.000
    C171     C        0.02170    0.94750    0.09770    1.000
    H115     H        0.01340    0.94720    0.12150    1.000
    C172     C        0.05370    0.00010    0.09440    1.000
    H116     H        0.06730    0.03720    0.11650    1.000
    N57      N        0.87950    0.49260    0.96400    1.000
    C173     C        0.91680    0.52560    0.96940    1.000
    H117     H        0.93390    0.49680    0.95560    1.000
    C174     C        0.93200    0.60090    0.99440    1.000
    H118     H        0.95830    0.62500    0.99640    1.000
    C175     C        0.90850    0.63910    0.01600    1.000
    C176     C        0.86850    0.60410    0.01080    1.000
    H119     H        0.85130    0.62990    0.02510    1.000
    C177     C        0.85520    0.53130    0.98420    1.000
    H120     H        0.82850    0.50820    0.98010    1.000
    C178     C        0.92120    0.79170    0.10000    1.000
    N58      N        0.95100    0.84960    0.09800    1.000
    C179     C        0.96650    0.83310    0.06760    1.000
    N59      N        0.95460    0.76580    0.04030    1.000
    C180     C        0.92380    0.71580    0.04530    1.000
    N60      N        0.90600    0.72490    0.07420    1.000
    Zn16     Zn       0.35897    0.11617    0.42504    1.000
    Zn17     Zn       0.33818    0.34280    0.23872    1.000
    Zn18     Zn       0.61553    0.58701    0.06256    1.000
    I31      I        0.41890    0.21761    0.42682    1.000
    I32      I        0.29260    0.17616    0.43490    1.000
    I33      I        0.27304    0.25118    0.21128    1.000
    I34      I        0.38340    0.31707    0.30872    1.000
    I35      I        0.63588    0.57452    0.99873    1.000
    I36      I        0.59877    0.73623    0.09338    1.000
    N61      N        0.34260    0.04970    0.37020    1.000
    C181     C        0.32770    0.09770    0.33640    1.000
    H121     H        0.32710    0.16360    0.33740    1.000
    C182     C        0.31320    0.05390    0.30010    1.000
    H122     H        0.30140    0.08970    0.27690    1.000
    C183     C        0.31560    0.95830    0.29710    1.000
    C184     C        0.33260    0.90840    0.33240    1.000
    H123     H        0.33500    0.84270    0.33190    1.000
    C185     C        0.34550    0.95630    0.36730    1.000
    H124     H        0.35730    0.92210    0.39100    1.000
    N62      N        0.32370    0.48370    0.23160    1.000
    C186     C        0.29500    0.51780    0.20030    1.000
    H125     H        0.28110    0.47570    0.18020    1.000
    C187     C        0.28450    0.60940    0.19590    1.000
    H126     H        0.26420    0.63070    0.17320    1.000
    C188     C        0.30480    0.67180    0.22620    1.000
    C189     C        0.33430    0.63730    0.25840    1.000
    H127     H        0.34810    0.67790    0.27920    1.000
    C190     C        0.34370    0.54390    0.26040    1.000
    H128     H        0.36460    0.52120    0.28240    1.000
    N63      N        0.16040    0.02300    0.10650    1.000
    C191     C        0.17000    0.93240    0.10440    1.000
    H129     H        0.15540    0.89740    0.08200    1.000
    C192     C        0.19990    0.88830    0.13340    1.000
    H130     H        0.20550    0.82440    0.13060    1.000
    C193     C        0.22170    0.93720    0.16620    1.000
    C194     C        0.21240    0.03120    0.16920    1.000
    H131     H        0.22630    0.06700    0.19170    1.000
    C195     C        0.18210    0.07070    0.13820    1.000
    H132     H        0.17650    0.13500    0.13970    1.000
    C196     C        0.29890    0.90700    0.25970    1.000
    N64      N        0.31200    0.82000    0.25770    1.000
    C197     C        0.29290    0.77290    0.22580    1.000
    N65      N        0.26350    0.80390    0.19450    1.000
    C198     C        0.25380    0.89440    0.19890    1.000
    N66      N        0.27000    0.94820    0.23100    1.000
    N67      N        0.36810    0.32420    0.19590    1.000
    C199     C        0.39010    0.39230    0.18620    1.000
    H133     H        0.39350    0.44840    0.20110    1.000
    C200     C        0.40830    0.38520    0.15550    1.000
    H134     H        0.42330    0.43560    0.14910    1.000
    C201     C        0.40420    0.30360    0.13460    1.000
    C202     C        0.38290    0.23000    0.14540    1.000
    H135     H        0.38020    0.17220    0.13180    1.000
    C203     C        0.36610    0.24370    0.17650    1.000
    H136     H        0.35230    0.19330    0.18450    1.000
    N68      N        0.56690    0.50290    0.06190    1.000
    C204     C        0.54730    0.45130    0.03070    1.000
    H137     H        0.55620    0.45290    0.00730    1.000
    C205     C        0.51440    0.39540    0.03110    1.000
    H138     H        0.50120    0.35910    0.00850    1.000
    C206     C        0.50140    0.39350    0.06450    1.000
    C207     C        0.52170    0.44750    0.09770    1.000
    H139     H        0.51340    0.44720    0.12150    1.000
    C208     C        0.55370    0.50010    0.09440    1.000
    H140     H        0.56730    0.53720    0.11650    1.000
    N69      N        0.37950    0.99260    0.96400    1.000
    C209     C        0.41680    0.02560    0.96940    1.000
    H141     H        0.43390    0.99680    0.95560    1.000
    C210     C        0.43200    0.10090    0.99440    1.000
    H142     H        0.45830    0.12500    0.99640    1.000
    C211     C        0.40850    0.13910    0.01600    1.000
    C212     C        0.36850    0.10410    0.01080    1.000
    H143     H        0.35130    0.12990    0.02510    1.000
    C213     C        0.35520    0.03130    0.98420    1.000
    H144     H        0.32850    0.00820    0.98010    1.000
    C214     C        0.42120    0.29170    0.10000    1.000
    N70      N        0.45100    0.34960    0.09800    1.000
    C215     C        0.46650    0.33310    0.06760    1.000
    N71      N        0.45460    0.26580    0.04030    1.000
    C216     C        0.42380    0.21580    0.04530    1.000
    N72      N        0.40600    0.22490    0.07420    1.000
    Zn19     Zn       0.85897    0.38383    0.92504    1.000
    Zn20     Zn       0.83818    0.15720    0.73872    1.000
    Zn21     Zn       0.11553    0.91299    0.56256    1.000
    I37      I        0.91890    0.28239    0.92682    1.000
    I38      I        0.79260    0.32384    0.93490    1.000
    I39      I        0.77304    0.24882    0.71128    1.000
    I40      I        0.88340    0.18293    0.80872    1.000
    I41      I        0.13588    0.92548    0.49873    1.000
    I42      I        0.09877    0.76377    0.59338    1.000
    N73      N        0.84260    0.45030    0.87020    1.000
    C217     C        0.82770    0.40230    0.83640    1.000
    H145     H        0.82710    0.33640    0.83740    1.000
    C218     C        0.81320    0.44610    0.80010    1.000
    H146     H        0.80140    0.41030    0.77690    1.000
    C219     C        0.81560    0.54170    0.79710    1.000
    C220     C        0.83260    0.59160    0.83240    1.000
    H147     H        0.83500    0.65730    0.83190    1.000
    C221     C        0.84550    0.54370    0.86730    1.000
    H148     H        0.85730    0.57790    0.89100    1.000
    N74      N        0.82370    0.01630    0.73160    1.000
    C222     C        0.79500    0.98220    0.70030    1.000
    H149     H        0.78110    0.02430    0.68020    1.000
    C223     C        0.78450    0.89060    0.69590    1.000
    H150     H        0.76420    0.86930    0.67320    1.000
    C224     C        0.80480    0.82820    0.72620    1.000
    C225     C        0.83430    0.86270    0.75840    1.000
    H151     H        0.84810    0.82210    0.77920    1.000
    C226     C        0.84370    0.95610    0.76040    1.000
    H152     H        0.86460    0.97880    0.78240    1.000
    N75      N        0.66040    0.47700    0.60650    1.000
    C227     C        0.67000    0.56760    0.60440    1.000
    H153     H        0.65540    0.60260    0.58200    1.000
    C228     C        0.69990    0.61170    0.63340    1.000
    H154     H        0.70550    0.67560    0.63060    1.000
    C229     C        0.72170    0.56280    0.66620    1.000
    C230     C        0.71240    0.46880    0.66920    1.000
    H155     H        0.72630    0.43300    0.69170    1.000
    C231     C        0.68210    0.42930    0.63820    1.000
    H156     H        0.67650    0.36500    0.63970    1.000
    C232     C        0.79890    0.59300    0.75970    1.000
    N76      N        0.81200    0.68000    0.75770    1.000
    C233     C        0.79290    0.72710    0.72580    1.000
    N77      N        0.76350    0.69610    0.69450    1.000
    C234     C        0.75380    0.60560    0.69890    1.000
    N78      N        0.77000    0.55180    0.73100    1.000
    N79      N        0.86810    0.17580    0.69590    1.000
    C235     C        0.89010    0.10770    0.68620    1.000
    H157     H        0.89350    0.05160    0.70110    1.000
    C236     C        0.90830    0.11480    0.65550    1.000
    H158     H        0.92330    0.06440    0.64910    1.000
    C237     C        0.90420    0.19640    0.63460    1.000
    C238     C        0.88290    0.27000    0.64540    1.000
    H159     H        0.88020    0.32780    0.63180    1.000
    C239     C        0.86610    0.25630    0.67650    1.000
    H160     H        0.85230    0.30670    0.68450    1.000
    N80      N        0.06690    0.99710    0.56190    1.000
    C240     C        0.04730    0.04870    0.53070    1.000
    H161     H        0.05620    0.04710    0.50730    1.000
    C241     C        0.01440    0.10460    0.53110    1.000
    H162     H        0.00120    0.14090    0.50850    1.000
    C242     C        0.00140    0.10650    0.56450    1.000
    C243     C        0.02170    0.05250    0.59770    1.000
    H163     H        0.01340    0.05280    0.62150    1.000
    C244     C        0.05370    0.99990    0.59440    1.000
    H164     H        0.06730    0.96280    0.61650    1.000
    N81      N        0.87950    0.50740    0.46400    1.000
    C245     C        0.91680    0.47440    0.46940    1.000
    H165     H        0.93390    0.50320    0.45560    1.000
    C246     C        0.93200    0.39910    0.49440    1.000
    H166     H        0.95830    0.37500    0.49640    1.000
    C247     C        0.90850    0.36090    0.51600    1.000
    C248     C        0.86850    0.39590    0.51080    1.000
    H167     H        0.85130    0.37010    0.52510    1.000
    C249     C        0.85520    0.46870    0.48420    1.000
    H168     H        0.82850    0.49180    0.48010    1.000
    C250     C        0.92120    0.20830    0.60000    1.000
    N82      N        0.95100    0.15040    0.59800    1.000
    C251     C        0.96650    0.16690    0.56760    1.000
    N83      N        0.95460    0.23420    0.54030    1.000
    C252     C        0.92380    0.28420    0.54530    1.000
    N84      N        0.90600    0.27510    0.57420    1.000
    Zn22     Zn       0.35897    0.88383    0.92504    1.000
    Zn23     Zn       0.33818    0.65720    0.73872    1.000
    Zn24     Zn       0.61553    0.41299    0.56256    1.000
    I43      I        0.41890    0.78239    0.92682    1.000
    I44      I        0.29260    0.82384    0.93490    1.000
    I45      I        0.27304    0.74882    0.71128    1.000
    I46      I        0.38340    0.68293    0.80872    1.000
    I47      I        0.63588    0.42548    0.49873    1.000
    I48      I        0.59877    0.26377    0.59338    1.000
    N85      N        0.34260    0.95030    0.87020    1.000
    C253     C        0.32770    0.90230    0.83640    1.000
    H169     H        0.32710    0.83640    0.83740    1.000
    C254     C        0.31320    0.94610    0.80010    1.000
    H170     H        0.30140    0.91030    0.77690    1.000
    C255     C        0.31560    0.04170    0.79710    1.000
    C256     C        0.33260    0.09160    0.83240    1.000
    H171     H        0.33500    0.15730    0.83190    1.000
    C257     C        0.34550    0.04370    0.86730    1.000
    H172     H        0.35730    0.07790    0.89100    1.000
    N86      N        0.32370    0.51630    0.73160    1.000
    C258     C        0.29500    0.48220    0.70030    1.000
    H173     H        0.28110    0.52430    0.68020    1.000
    C259     C        0.28450    0.39060    0.69590    1.000
    H174     H        0.26420    0.36930    0.67320    1.000
    C260     C        0.30480    0.32820    0.72620    1.000
    C261     C        0.33430    0.36270    0.75840    1.000
    H175     H        0.34810    0.32210    0.77920    1.000
    C262     C        0.34370    0.45610    0.76040    1.000
    H176     H        0.36460    0.47880    0.78240    1.000
    N87      N        0.16040    0.97700    0.60650    1.000
    C263     C        0.17000    0.06760    0.60440    1.000
    H177     H        0.15540    0.10260    0.58200    1.000
    C264     C        0.19990    0.11170    0.63340    1.000
    H178     H        0.20550    0.17560    0.63060    1.000
    C265     C        0.22170    0.06280    0.66620    1.000
    C266     C        0.21240    0.96880    0.66920    1.000
    H179     H        0.22630    0.93300    0.69170    1.000
    C267     C        0.18210    0.92930    0.63820    1.000
    H180     H        0.17650    0.86500    0.63970    1.000
    C268     C        0.29890    0.09300    0.75970    1.000
    N88      N        0.31200    0.18000    0.75770    1.000
    C269     C        0.29290    0.22710    0.72580    1.000
    N89      N        0.26350    0.19610    0.69450    1.000
    C270     C        0.25380    0.10560    0.69890    1.000
    N90      N        0.27000    0.05180    0.73100    1.000
    N91      N        0.36810    0.67580    0.69590    1.000
    C271     C        0.39010    0.60770    0.68620    1.000
    H181     H        0.39350    0.55160    0.70110    1.000
    C272     C        0.40830    0.61480    0.65550    1.000
    H182     H        0.42330    0.56440    0.64910    1.000
    C273     C        0.40420    0.69640    0.63460    1.000
    C274     C        0.38290    0.77000    0.64540    1.000
    H183     H        0.38020    0.82780    0.63180    1.000
    C275     C        0.36610    0.75630    0.67650    1.000
    H184     H        0.35230    0.80670    0.68450    1.000
    N92      N        0.56690    0.49710    0.56190    1.000
    C276     C        0.54730    0.54870    0.53070    1.000
    H185     H        0.55620    0.54710    0.50730    1.000
    C277     C        0.51440    0.60460    0.53110    1.000
    H186     H        0.50120    0.64090    0.50850    1.000
    C278     C        0.50140    0.60650    0.56450    1.000
    C279     C        0.52170    0.55250    0.59770    1.000
    H187     H        0.51340    0.55280    0.62150    1.000
    C280     C        0.55370    0.49990    0.59440    1.000
    H188     H        0.56730    0.46280    0.61650    1.000
    N93      N        0.37950    0.00740    0.46400    1.000
    C281     C        0.41680    0.97440    0.46940    1.000
    H189     H        0.43390    0.00320    0.45560    1.000
    C282     C        0.43200    0.89910    0.49440    1.000
    H190     H        0.45830    0.87500    0.49640    1.000
    C283     C        0.40850    0.86090    0.51600    1.000
    C284     C        0.36850    0.89590    0.51080    1.000
    H191     H        0.35130    0.87010    0.52510    1.000
    C285     C        0.35520    0.96870    0.48420    1.000
    H192     H        0.32850    0.99180    0.48010    1.000
    C286     C        0.42120    0.70830    0.60000    1.000
    N94      N        0.45100    0.65040    0.59800    1.000
    C287     C        0.46650    0.66690    0.56760    1.000
    N95      N        0.45460    0.73420    0.54030    1.000
    C288     C        0.42380    0.78420    0.54530    1.000
    N96      N        0.40600    0.77510    0.57420    1.000
