data_functionalizedCrystal
_audit_creation_method	'EQeq! by Chris Wilmer'
_symmetry_space_group_name_H-M	'P1'
_symmetry_Int_Tables_number	1
_symmetry_cell_setting	triclinic
loop_
_symmetry_equiv_pos_as_xyz
  x,y,z
_cell_length_a	22.6476
_cell_length_b	22.6476
_cell_length_c	7.4471
_cell_angle_alpha	90
_cell_angle_beta	90
_cell_angle_gamma	120
loop_
_atom_site_label
_atom_site_type_symbol
_atom_site_fract_x
_atom_site_fract_y
_atom_site_fract_z
_atom_site_charge
Mof_C 	C 	0.7879	0.1491	0.5252	-0.033
Mof_H 	H 	0.7567	0.1369	0.4264	0.032
Mof_C 	C 	0.7829	0.1576	0.7833	-0.031
Mof_H 	H 	0.7473	0.1511	0.8648	0.034
Mof_C 	C 	0.45457	0.48243	0.85853	-0.042
Mof_H 	H 	0.42337	0.47023	0.75973	0.038
Mof_C 	C 	0.44957	0.49093	0.11663	-0.046
Mof_H 	H 	0.41397	0.48443	0.19813	0.038
Mof_C 	C 	0.12123	0.81577	0.19187	-0.034
Mof_H 	H 	0.09003	0.80357	0.09307	0.028
Mof_C 	C 	0.11623	0.82427	0.44997	-0.03
Mof_H 	H 	0.08063	0.81777	0.53147	0.03
Mof_C 	C 	0.8509	0.6388	0.5252	-0.03
Mof_H 	H 	0.8631	0.6198	0.4264	0.035
Mof_C 	C 	0.8424	0.6253	0.7833	-0.028
Mof_H 	H 	0.8489	0.5962	0.8648	0.037
Mof_C 	C 	0.51757	0.97213	0.85853	0.024
Mof_H 	H 	0.52977	0.95313	0.75973	0.023
Mof_C 	C 	0.50907	0.95863	0.11663	0.021
Mof_H 	H 	0.51557	0.92953	0.19813	0.022
Mof_C 	C 	0.18423	0.30547	0.19187	-0.032
Mof_H 	H 	0.19643	0.28647	0.09307	0.031
Mof_C 	C 	0.17573	0.29197	0.44997	-0.029
Mof_H 	H 	0.18223	0.26287	0.53147	0.035
Mof_C 	C 	0.3612	0.2121	0.5252	-0.032
Mof_H 	H 	0.3802	0.2433	0.4264	0.033
Mof_C 	C 	0.3747	0.2171	0.7833	-0.029
Mof_H 	H 	0.4038	0.2527	0.8648	0.036
Mof_C 	C 	0.02787	0.54543	0.85853	-0.103
Mof_H 	H 	0.04687	0.57663	0.75973	0.051
Mof_C 	C 	0.04137	0.55043	0.11663	-0.104
Mof_H 	H 	0.07047	0.58603	0.19813	0.052
Mof_C 	C 	0.69453	0.87877	0.19187	-0.031
Mof_H 	H 	0.71353	0.90997	0.09307	0.037
Mof_C 	C 	0.70803	0.88377	0.44997	-0.029
Mof_H 	H 	0.73713	0.91937	0.53147	0.04
Mof_C 	C 	0.1491	0.7879	0.4748	-0.034
Mof_H 	H 	0.1369	0.7567	0.5736	0.033
Mof_C 	C 	0.1576	0.7829	0.2167	-0.032
Mof_H 	H 	0.1511	0.7473	0.1352	0.031
Mof_C 	C 	0.81577	0.12123	0.80813	-0.034
Mof_H 	H 	0.80357	0.09003	0.90693	0.032
Mof_C 	C 	0.82427	0.11623	0.55003	-0.031
Mof_H 	H 	0.81777	0.08063	0.46853	0.028
Mof_C 	C 	0.48243	0.45457	0.14147	-0.022
Mof_H 	H 	0.47023	0.42337	0.24027	0.03
Mof_C 	C 	0.49093	0.44957	0.88337	-0.013
Mof_H 	H 	0.48443	0.41397	0.80187	0.03
Mof_C 	C 	0.6388	0.8509	0.4748	-0.03
Mof_H 	H 	0.6198	0.8631	0.5736	0.037
Mof_C 	C 	0.6253	0.8424	0.2167	-0.028
Mof_H 	H 	0.5962	0.8489	0.1352	0.034
Mof_C 	C 	0.30547	0.18423	0.80813	-0.032
Mof_H 	H 	0.28647	0.19643	0.90693	0.036
Mof_C 	C 	0.29197	0.17573	0.55003	-0.029
Mof_H 	H 	0.26287	0.18223	0.46853	0.033
Mof_C 	C 	0.97213	0.51757	0.14147	0.038
Mof_H 	H 	0.95313	0.52977	0.24027	0.017
Mof_C 	C 	0.95863	0.50907	0.88337	0.045
Mof_H 	H 	0.92953	0.51557	0.80187	0.016
Mof_C 	C 	0.2121	0.3612	0.4748	-0.032
Mof_H 	H 	0.2433	0.3802	0.5736	0.034
Mof_C 	C 	0.2171	0.3747	0.2167	-0.029
Mof_H 	H 	0.2527	0.4038	0.1352	0.032
Mof_C 	C 	0.87877	0.69453	0.80813	-0.031
Mof_H 	H 	0.90997	0.71353	0.90693	0.04
Mof_C 	C 	0.88377	0.70803	0.55003	-0.029
Mof_H 	H 	0.91937	0.73713	0.46853	0.039
Mof_C 	C 	0.54543	0.02787	0.14147	-0.09
Mof_H 	H 	0.57663	0.04687	0.24027	0.045
Mof_C 	C 	0.55043	0.04137	0.88337	-0.078
Mof_H 	H 	0.58603	0.07047	0.80187	0.046
Mof_C 	C 	0.2121	0.8509	0.4748	-0.03
Mof_H 	H 	0.2433	0.8631	0.5736	0.037
Mof_C 	C 	0.2171	0.8424	0.2167	-0.027
Mof_H 	H 	0.2527	0.8489	0.1352	0.034
Mof_C 	C 	0.87877	0.18423	0.80813	-0.031
Mof_H 	H 	0.90997	0.19643	0.90693	0.041
Mof_C 	C 	0.88377	0.17573	0.55003	-0.029
Mof_H 	H 	0.91937	0.18223	0.46853	0.039
Mof_C 	C 	0.54543	0.51757	0.14147	-0.022
Mof_H 	H 	0.57663	0.52977	0.24027	0.03
Mof_C 	C 	0.55043	0.50907	0.88337	-0.013
Mof_H 	H 	0.58603	0.51557	0.80187	0.03
Mof_C 	C 	0.1491	0.3612	0.4748	-0.034
Mof_H 	H 	0.1369	0.3802	0.5736	0.032
Mof_C 	C 	0.1576	0.3747	0.2167	-0.031
Mof_H 	H 	0.1511	0.4038	0.1352	0.031
Mof_C 	C 	0.81577	0.69453	0.80813	-0.033
Mof_H 	H 	0.80357	0.71353	0.90693	0.036
Mof_C 	C 	0.82427	0.70803	0.55003	-0.03
Mof_H 	H 	0.81777	0.73713	0.46853	0.034
Mof_C 	C 	0.48243	0.02787	0.14147	-0.091
Mof_H 	H 	0.47023	0.04687	0.24027	0.045
Mof_C 	C 	0.49093	0.04137	0.88337	-0.078
Mof_H 	H 	0.48443	0.07047	0.80187	0.046
Mof_C 	C 	0.6388	0.7879	0.4748	-0.032
Mof_H 	H 	0.6198	0.7567	0.5736	0.035
Mof_C 	C 	0.6253	0.7829	0.2167	-0.03
Mof_H 	H 	0.5962	0.7473	0.1352	0.033
Mof_C 	C 	0.30547	0.12123	0.80813	-0.033
Mof_H 	H 	0.28647	0.09003	0.90693	0.031
Mof_C 	C 	0.29197	0.11623	0.55003	-0.03
Mof_H 	H 	0.26287	0.08063	0.46853	0.027
Mof_C 	C 	0.97213	0.45457	0.14147	0.039
Mof_H 	H 	0.95313	0.42337	0.24027	0.017
Mof_C 	C 	0.95863	0.44957	0.88337	0.046
Mof_H 	H 	0.92953	0.41397	0.80187	0.016
Mof_C 	C 	0.8509	0.2121	0.5252	-0.03
Mof_H 	H 	0.8631	0.2433	0.4264	0.035
Mof_C 	C 	0.8424	0.2171	0.7833	-0.027
Mof_H 	H 	0.8489	0.2527	0.8648	0.037
Mof_C 	C 	0.51757	0.54543	0.85853	-0.043
Mof_H 	H 	0.52977	0.57663	0.75973	0.038
Mof_C 	C 	0.50907	0.55043	0.11663	-0.046
Mof_H 	H 	0.51557	0.58603	0.19813	0.038
Mof_C 	C 	0.18423	0.87877	0.19187	-0.031
Mof_H 	H 	0.19643	0.90997	0.09307	0.037
Mof_C 	C 	0.17573	0.88377	0.44997	-0.029
Mof_H 	H 	0.18223	0.91937	0.53147	0.041
Mof_C 	C 	0.3612	0.1491	0.5252	-0.034
Mof_H 	H 	0.3802	0.1369	0.4264	0.03
Mof_C 	C 	0.3747	0.1576	0.7833	-0.031
Mof_H 	H 	0.4038	0.1511	0.8648	0.034
Mof_C 	C 	0.02787	0.48243	0.85853	-0.103
Mof_H 	H 	0.04687	0.47023	0.75973	0.051
Mof_C 	C 	0.04137	0.49093	0.11663	-0.105
Mof_H 	H 	0.07047	0.48443	0.19813	0.052
Mof_C 	C 	0.69453	0.81577	0.19187	-0.033
Mof_H 	H 	0.71353	0.80357	0.09307	0.032
Mof_C 	C 	0.70803	0.82427	0.44997	-0.03
Mof_H 	H 	0.73713	0.81777	0.53147	0.035
Mof_C 	C 	0.7879	0.6388	0.5252	-0.032
Mof_H 	H 	0.7567	0.6198	0.4264	0.033
Mof_C 	C 	0.7829	0.6253	0.7833	-0.029
Mof_H 	H 	0.7473	0.5962	0.8648	0.036
Mof_C 	C 	0.45457	0.97213	0.85853	0.025
Mof_H 	H 	0.42337	0.95313	0.75973	0.023
Mof_C 	C 	0.44957	0.95863	0.11663	0.022
Mof_H 	H 	0.41397	0.92953	0.19813	0.022
Mof_C 	C 	0.12123	0.30547	0.19187	-0.033
Mof_H 	H 	0.09003	0.28647	0.09307	0.027
Mof_C 	C 	0.11623	0.29197	0.44997	-0.03
Mof_H 	H 	0.08063	0.26287	0.53147	0.029
Mof_Fe	Fe	0.66667	0.33333	0.33333	0.624
Mof_Fe	Fe	0.33333	0.66667	0.66667	0.628
Mof_Fe	Fe	-0	0	-0	0.542
Mof_Fe	Fe	0.66667	0.33333	0.83333	0.735
Mof_Fe	Fe	0.33333	0.66667	0.16667	0.732
Mof_Fe	Fe	-0	-3.81556e-33	0.5	0.654
Mof_N 	N 	0.74337	0.25663	0.4628	-0.163
Mof_N 	N 	0.71067	0.28933	0.5095	-0.101
Mof_N 	N 	0.70817	0.29183	0.6865	-0.123
Mof_N 	N 	0.73922	0.26078	0.7597	-0.16
Mof_C 	C 	0.79807	0.20193	0.6414	-0.018
Mof_C 	C 	0.76057	0.23943	0.6184	0.123
Mof_N 	N 	0.41004	0.58996	0.79613	-0.162
Mof_N 	N 	0.37734	0.62266	0.84283	-0.098
Mof_N 	N 	0.37484	0.62516	0.01983	-0.127
Mof_N 	N 	0.40589	0.59411	0.09303	-0.163
Mof_C 	C 	0.46474	0.53526	0.97473	0.007
Mof_C 	C 	0.42724	0.57276	0.95173	0.124
Mof_N 	N 	0.0767	0.9233	0.12947	-0.163
Mof_N 	N 	0.044	0.956	0.17617	-0.092
Mof_N 	N 	0.0415	0.9585	0.35317	-0.11
Mof_N 	N 	0.07255	0.92745	0.42637	-0.16
Mof_C 	C 	0.1314	0.8686	0.30807	-0.018
Mof_C 	C 	0.0939	0.9061	0.28507	0.123
Mof_N 	N 	0.74337	0.48674	0.4628	-0.163
Mof_N 	N 	0.71067	0.42134	0.5095	-0.101
Mof_N 	N 	0.70817	0.41634	0.6865	-0.123
Mof_N 	N 	0.73922	0.47844	0.7597	-0.161
Mof_C 	C 	0.79807	0.59614	0.6414	-0.019
Mof_C 	C 	0.76057	0.52114	0.6184	0.124
Mof_N 	N 	0.41004	0.82007	0.79613	-0.169
Mof_N 	N 	0.37734	0.75467	0.84283	-0.097
Mof_N 	N 	0.37484	0.74967	0.01983	-0.126
Mof_N 	N 	0.40589	0.81177	0.09303	-0.17
Mof_C 	C 	0.46474	0.92947	0.97473	-0.082
Mof_C 	C 	0.42724	0.85447	0.95173	0.153
Mof_N 	N 	0.0767	0.15341	0.12947	-0.164
Mof_N 	N 	0.044	0.08801	0.17617	-0.105
Mof_N 	N 	0.0415	0.08301	0.35317	-0.124
Mof_N 	N 	0.07255	0.14511	0.42637	-0.161
Mof_C 	C 	0.1314	0.26281	0.30807	-0.019
Mof_C 	C 	0.0939	0.18781	0.28507	0.118
Mof_N 	N 	0.51326	0.25663	0.4628	-0.163
Mof_N 	N 	0.57866	0.28933	0.5095	-0.101
Mof_N 	N 	0.58366	0.29183	0.6865	-0.123
Mof_N 	N 	0.52156	0.26078	0.7597	-0.16
Mof_C 	C 	0.40386	0.20193	0.6414	-0.018
Mof_C 	C 	0.47886	0.23943	0.6184	0.122
Mof_N 	N 	0.17993	0.58996	0.79613	-0.156
Mof_N 	N 	0.24533	0.62266	0.84283	-0.098
Mof_N 	N 	0.25033	0.62516	0.01983	-0.127
Mof_N 	N 	0.18823	0.59411	0.09303	-0.157
Mof_C 	C 	0.07053	0.53526	0.97473	0.085
Mof_C 	C 	0.14553	0.57276	0.95173	0.097
Mof_N 	N 	0.84659	0.9233	0.12947	-0.163
Mof_N 	N 	0.91199	0.956	0.17617	-0.082
Mof_N 	N 	0.91699	0.9585	0.35317	-0.1
Mof_N 	N 	0.85489	0.92745	0.42637	-0.16
Mof_C 	C 	0.73719	0.8686	0.30807	-0.018
Mof_C 	C 	0.81219	0.9061	0.28507	0.127
Mof_N 	N 	0.25663	0.74337	0.5372	-0.163
Mof_N 	N 	0.28933	0.71067	0.4905	-0.101
Mof_N 	N 	0.29183	0.70817	0.3135	-0.123
Mof_N 	N 	0.26078	0.73922	0.2403	-0.16
Mof_C 	C 	0.20193	0.79807	0.3586	-0.018
Mof_C 	C 	0.23943	0.76057	0.3816	0.123
Mof_N 	N 	0.9233	0.0767	0.87053	-0.163
Mof_N 	N 	0.956	0.044	0.82383	-0.089
Mof_N 	N 	0.9585	0.0415	0.64683	-0.111
Mof_N 	N 	0.92745	0.07255	0.57363	-0.16
Mof_C 	C 	0.8686	0.1314	0.69193	-0.018
Mof_C 	C 	0.9061	0.0939	0.71493	0.124
Mof_N 	N 	0.58996	0.41004	0.20387	-0.164
Mof_N 	N 	0.62266	0.37734	0.15717	-0.105
Mof_N 	N 	0.62516	0.37484	0.98017	-0.119
Mof_N 	N 	0.59411	0.40589	0.90697	-0.157
Mof_C 	C 	0.53526	0.46474	0.02527	-0.043
Mof_C 	C 	0.57276	0.42724	0.04827	0.121
Mof_N 	N 	0.48674	0.74337	0.5372	-0.163
Mof_N 	N 	0.42134	0.71067	0.4905	-0.101
Mof_N 	N 	0.41634	0.70817	0.3135	-0.123
Mof_N 	N 	0.47844	0.73922	0.2403	-0.16
Mof_C 	C 	0.59614	0.79807	0.3586	-0.019
Mof_C 	C 	0.52114	0.76057	0.3816	0.124
Mof_N 	N 	0.15341	0.0767	0.87053	-0.163
Mof_N 	N 	0.08801	0.044	0.82383	-0.1
Mof_N 	N 	0.08301	0.0415	0.64683	-0.124
Mof_N 	N 	0.14511	0.07255	0.57363	-0.161
Mof_C 	C 	0.26281	0.1314	0.69193	-0.019
Mof_C 	C 	0.18781	0.0939	0.71493	0.12
Mof_N 	N 	0.82007	0.41004	0.20387	-0.17
Mof_N 	N 	0.75467	0.37734	0.15717	-0.105
Mof_N 	N 	0.74967	0.37484	0.98017	-0.119
Mof_N 	N 	0.81177	0.40589	0.90697	-0.163
Mof_C 	C 	0.92947	0.46474	0.02527	-0.122
Mof_C 	C 	0.85447	0.42724	0.04827	0.148
Mof_N 	N 	0.25663	0.51326	0.5372	-0.163
Mof_N 	N 	0.28933	0.57866	0.4905	-0.101
Mof_N 	N 	0.29183	0.58366	0.3135	-0.123
Mof_N 	N 	0.26078	0.52156	0.2403	-0.16
Mof_C 	C 	0.20193	0.40386	0.3586	-0.018
Mof_C 	C 	0.23943	0.47886	0.3816	0.122
Mof_N 	N 	0.9233	0.84659	0.87053	-0.162
Mof_N 	N 	0.956	0.91199	0.82383	-0.078
Mof_N 	N 	0.9585	0.91699	0.64683	-0.1
Mof_N 	N 	0.92745	0.85489	0.57363	-0.16
Mof_C 	C 	0.8686	0.73719	0.69193	-0.017
Mof_C 	C 	0.9061	0.81219	0.71493	0.128
Mof_N 	N 	0.58996	0.17993	0.20387	-0.157
Mof_N 	N 	0.62266	0.24533	0.15717	-0.106
Mof_N 	N 	0.62516	0.25033	0.98017	-0.119
Mof_N 	N 	0.59411	0.18823	0.90697	-0.15
Mof_C 	C 	0.53526	0.07053	0.02527	0.044
Mof_C 	C 	0.57276	0.14553	0.04827	0.091
Mof_H 	H 	0.08545	0.1709	0.0177	0.094
Mof_H 	H 	0.078	0.156	0.5437	0.102
Mof_H 	H 	0.75212	0.50423	0.35103	0.099
Mof_H 	H 	0.74467	0.48933	0.87703	0.106
Mof_H 	H 	0.41878	0.83757	0.68437	0.103
Mof_H 	H 	0.41133	0.82267	0.21037	0.107
Mof_H 	H 	0.8291	0.91455	0.0177	0.103
Mof_H 	H 	0.844	0.922	0.5437	0.112
Mof_H 	H 	0.49577	0.24788	0.35103	0.098
Mof_H 	H 	0.51067	0.25533	0.87703	0.106
Mof_H 	H 	0.16243	0.58122	0.68437	0.096
Mof_H 	H 	0.17733	0.58867	0.21037	0.101
Mof_H 	H 	0.08545	0.91455	0.0177	0.099
Mof_H 	H 	0.078	0.922	0.5437	0.108
Mof_H 	H 	0.75212	0.24788	0.35103	0.098
Mof_H 	H 	0.74467	0.25533	0.87703	0.106
Mof_H 	H 	0.41878	0.58122	0.68437	0.099
Mof_H 	H 	0.41133	0.58867	0.21037	0.104
Mof_H 	H 	0.1709	0.08545	0.9823	0.101
Mof_H 	H 	0.156	0.078	0.4563	0.1
Mof_H 	H 	0.83757	0.41878	0.31563	0.103
Mof_H 	H 	0.82267	0.41133	0.78963	0.107
Mof_H 	H 	0.50423	0.75212	0.64897	0.101
Mof_H 	H 	0.48933	0.74467	0.12297	0.103
Mof_H 	H 	0.91455	0.8291	0.9823	0.109
Mof_H 	H 	0.922	0.844	0.4563	0.11
Mof_H 	H 	0.58122	0.16243	0.31563	0.096
Mof_H 	H 	0.58867	0.17733	0.78963	0.101
Mof_H 	H 	0.24788	0.49577	0.64897	0.1
Mof_H 	H 	0.25533	0.51067	0.12297	0.102
Mof_H 	H 	0.91455	0.08545	0.9823	0.106
Mof_H 	H 	0.922	0.078	0.4563	0.106
Mof_H 	H 	0.58122	0.41878	0.31563	0.1
Mof_H 	H 	0.58867	0.41133	0.78963	0.104
Mof_H 	H 	0.24788	0.75212	0.64897	0.101
Mof_H 	H 	0.25533	0.74467	0.12297	0.102
_end
