data_functionalizedCrystal
_audit_creation_method	'EQeq! by Chris Wilmer'
_symmetry_space_group_name_H-M	'P1'
_symmetry_Int_Tables_number	1
_symmetry_cell_setting	triclinic
loop_
_symmetry_equiv_pos_as_xyz
  x,y,z
_cell_length_a	6.6349
_cell_length_b	8.6371
_cell_length_c	9.6727
_cell_angle_alpha	90
_cell_angle_beta	102.101
_cell_angle_gamma	90
loop_
_atom_site_label
_atom_site_type_symbol
_atom_site_fract_x
_atom_site_fract_y
_atom_site_fract_z
_atom_site_charge
Mof_Er	Er	0.10557	0.23094	0.27076	2.287
Mof_O 	O 	0.0734	0.4561	0.1262	-0.545
Mof_O 	O 	0.0021	0.6179	0.9465	-0.617
Mof_O 	O 	0.1422	0.4253	0.4323	-0.671
Mof_O 	O 	0.0634	0.5869	0.5883	-0.689
Mof_O 	O 	0.4235	0.3007	0.2288	-0.602
Mof_O 	O 	0.7542	0.3053	0.2208	-0.593
Mof_O 	O 	0.3741	0.1305	0.4793	-0.314
Mof_O 	O 	0.2807	0.9799	0.2942	-0.278
Mof_C 	C 	0.979	0.4968	0.0102	0.795
Mof_H 	H 	0.8785	0.4291	0.9638	-0.229
Mof_C 	C 	0.0411	0.5141	0.4826	0.942
Mof_H 	H 	0.9123	0.5304	0.4244	-0.266
Mof_C 	C 	0.599	0.2509	0.2396	0.822
Mof_H 	H 	0.6128	0.1481	0.2687	-0.246
Mof_C 	C 	0.3831	0.0043	0.4165	0.094
Mof_H 	H 	0.4686	0.9265	0.4623	0.087
Mof_Er	Er	0.89443	0.73094	0.72924	2.365
Mof_O 	O 	0.9266	0.9561	0.8738	-0.535
Mof_O 	O 	0.9979	0.1179	0.0535	-0.644
Mof_O 	O 	0.8578	0.9253	0.5677	-0.597
Mof_O 	O 	0.9366	0.0869	0.4117	-0.662
Mof_O 	O 	0.5765	0.8007	0.7712	-0.6
Mof_O 	O 	0.2458	0.8053	0.7792	-0.593
Mof_O 	O 	0.6259	0.6305	0.5207	-0.376
Mof_O 	O 	0.7193	0.4799	0.7058	-0.43
Mof_C 	C 	0.021	0.9968	0.9898	0.813
Mof_H 	H 	0.1215	0.9291	0.0362	-0.211
Mof_C 	C 	0.9589	0.0141	0.5174	0.829
Mof_H 	H 	0.0877	0.0304	0.5756	-0.262
Mof_C 	C 	0.401	0.7509	0.7604	0.835
Mof_H 	H 	0.3872	0.6481	0.7313	-0.239
Mof_C 	C 	0.6169	0.5043	0.5835	0.386
Mof_H 	H 	0.5314	0.4265	0.5377	-0.056
_end
