data_functionalizedCrystal
_audit_creation_method	'EQeq! by Chris Wilmer'
_symmetry_space_group_name_H-M	'P1'
_symmetry_Int_Tables_number	1
_symmetry_cell_setting	triclinic
loop_
_symmetry_equiv_pos_as_xyz
  x,y,z
_cell_length_a	14.024
_cell_length_b	23.253
_cell_length_c	23.455
_cell_angle_alpha	107.68
_cell_angle_beta	90
_cell_angle_gamma	90
loop_
_atom_site_label
_atom_site_type_symbol
_atom_site_fract_x
_atom_site_fract_y
_atom_site_fract_z
_atom_site_charge
Mof_Ce	Ce	0.55728	0.7525	0.20764	1.862
Mof_Ce	Ce	0.79717	0.48888	0.22636	1.888
Mof_Ce	Ce	0.44272	0.2475	0.79236	1.862
Mof_Ce	Ce	0.80049	0.22312	0.99638	1.867
Mof_Ce	Ce	0.1447	0.2578	0.20924	1.884
Mof_Ce	Ce	0.94272	0.2525	0.70764	1.859
Mof_Ce	Ce	0.29717	0.01112	0.27365	1.888
Mof_Ce	Ce	0.6447	0.2422	0.29076	1.887
Mof_Ce	Ce	0.19951	0.77688	0.00362	1.867
Mof_Ce	Ce	0.20283	0.51112	0.77365	1.888
Mof_Ce	Ce	0.69951	0.72312	0.49639	1.875
Mof_Ce	Ce	0.8553	0.7422	0.79076	1.883
Mof_Ce	Ce	0.05728	0.7475	0.29236	1.858
Mof_Ce	Ce	0.70283	0.98888	0.72635	1.887
Mof_Ce	Ce	0.30049	0.27688	0.50362	1.875
Mof_Ce	Ce	0.3553	0.7578	0.70924	1.886
Mof_H 	H 	0.1548	0.2732	0.6325	-0.068
Mof_H 	H 	0.7176	0.1351	0.4605	0.105
Mof_H 	H 	0.3971	0.5996	0.6065	0.003
Mof_H 	H 	0.4434	0.4273	0.1026	0.02
Mof_H 	H 	0.3295	0.3673	0.9109	-0.009
Mof_H 	H 	0.9026	0.3049	0.2719	-0.059
Mof_H 	H 	0.3637	0.3739	0.7456	-0.073
Mof_H 	H 	0.7265	0.0478	0.6091	-0.019
Mof_H 	H 	0.2735	0.9522	0.3909	-0.019
Mof_H 	H 	0.6783	0.5453	0.6059	0.152
Mof_H 	H 	0.37	0.3068	0.0356	0.013
Mof_H 	H 	0.7358	0.362	0.1102	-0.078
Mof_H 	H 	0.4229	0.7056	0.4668	-0.002
Mof_H 	H 	0.9056	0.8321	0.5332	0
Mof_H 	H 	0.1481	0.629	0.4536	0.092
Mof_H 	H 	0.0522	0.1726	0.8004	-0.001
Mof_H 	H 	0.5955	0.1108	0.1748	-0.015
Mof_H 	H 	0.0977	0.1542	0.6858	-0.02
Mof_H 	H 	0.4914	0.7885	0.8491	-0.008
Mof_H 	H 	0.9914	0.7115	0.6509	-0.008
Mof_H 	H 	0.5355	0.6561	0.0415	-0.004
Mof_H 	H 	0.3146	0.3916	0.6525	-0.07
Mof_H 	H 	0.4645	0.3439	0.9585	-0.004
Mof_H 	H 	0.6854	0.6084	0.3475	-0.07
Mof_H 	H 	0.9583	0.4561	0.0943	-0.006
Mof_H 	H 	0.2122	0.195	0.8393	0.003
Mof_H 	H 	0.0813	0.108	0.2631	-0.048
Mof_H 	H 	0.5437	0.0645	0.8463	-0.009
Mof_H 	H 	0.8452	0.7268	0.3675	-0.068
Mof_H 	H 	0.7465	0.6393	0.6127	-0.051
Mof_H 	H 	0.1407	0.7717	0.6276	-0.004
Mof_H 	H 	0.5086	0.2115	0.1509	-0.008
Mof_H 	H 	0.9401	0.5062	0.7731	0.002
Mof_H 	H 	0.3972	0.5105	0.8794	-0.004
Mof_H 	H 	0.9045	0.6108	0.6748	-0.014
Mof_H 	H 	0.0944	0.1679	0.4668	0
Mof_H 	H 	0.2465	0.8607	0.8873	-0.051
Mof_H 	H 	0.7642	0.862	0.6102	-0.078
Mof_H 	H 	0.2271	0.737	0.8385	-0.072
Mof_H 	H 	0.0687	0.7613	0.8837	-0.08
Mof_H 	H 	0.8016	0.8743	0.0954	0.015
Mof_H 	H 	0.0771	0.2056	0.9668	0.004
Mof_H 	H 	0.7878	0.805	0.1607	0.003
Mof_H 	H 	0.4045	0.8892	0.8252	-0.015
Mof_H 	H 	0.2878	0.695	0.3393	0.003
Mof_H 	H 	0.9576	0.3058	0.5798	-0.044
Mof_H 	H 	0.5522	0.3274	0.6996	-0.004
Mof_H 	H 	0.1705	0.8673	0.4109	-0.009
Mof_H 	H 	0.1363	0.8739	0.2456	-0.073
Mof_H 	H 	0.9478	0.8274	0.1996	-0.001
Mof_H 	H 	0.0643	0.2853	0.4523	-0.009
Mof_H 	H 	0.5643	0.2147	0.0477	-0.008
Mof_H 	H 	0.3452	0.7732	0.1325	-0.068
Mof_H 	H 	0.2729	0.237	0.3385	-0.072
Mof_H 	H 	0.9313	0.2387	0.1163	-0.08
Mof_H 	H 	0.0284	0.8651	0.8104	-0.009
Mof_H 	H 	0.1962	0.8589	0.7696	-0.019
Mof_H 	H 	0.0361	0.6515	0.9873	-0.012
Mof_H 	H 	0.0974	0.6951	0.7281	-0.059
Mof_H 	H 	0.831	0.2803	0.8618	-0.073
Mof_H 	H 	0.4357	0.7853	0.9523	-0.008
Mof_H 	H 	0.9357	0.7147	0.5477	-0.009
Mof_H 	H 	0.274	0.1384	0.703	-0.017
Mof_H 	H 	0.2358	0.138	0.3898	-0.078
Mof_H 	H 	0.5977	0.3458	0.8142	-0.02
Mof_H 	H 	0.2824	0.8649	0.5395	0.105
Mof_H 	H 	0.5944	0.3321	0.0332	0.002
Mof_H 	H 	0.1958	0.1966	0.0493	-0.007
Mof_H 	H 	0.3906	0.8709	0.2728	-0.065
Mof_H 	H 	0.4026	0.1951	0.2281	-0.06
Mof_H 	H 	0.6094	0.1291	0.7272	-0.065
Mof_H 	H 	0.6984	0.3743	0.5954	0.014
Mof_H 	H 	0.5417	0.9561	0.5943	-0.007
Mof_H 	H 	0.8295	0.1327	0.5891	-0.009
Mof_H 	H 	0.0876	0.9972	0.9748	0.003
Mof_H 	H 	0.701	0.1948	0.7138	-0.063
Mof_H 	H 	0.3016	0.6257	0.4046	0.014
Mof_H 	H 	0.5813	0.392	0.2369	-0.048
Mof_H 	H 	0.0589	0.8752	0.6801	0.099
Mof_H 	H 	0.0086	0.2885	0.3491	-0.008
Mof_H 	H 	0.1984	0.1257	0.9046	0.015
Mof_H 	H 	0.63	0.6932	0.9644	0.013
Mof_H 	H 	0.0955	0.3892	0.3252	-0.014
Mof_H 	H 	0.2265	0.4522	0.8909	-0.019
Mof_H 	H 	0.7535	0.1393	0.1127	-0.051
Mof_H 	H 	0.8906	0.6291	0.2272	-0.065
Mof_H 	H 	0.9023	0.8458	0.3142	-0.02
Mof_H 	H 	0.8146	0.1084	0.8475	-0.07
Mof_H 	H 	0.1565	0.0046	0.1278	-0.008
Mof_H 	H 	0.9833	0.1564	0.8985	-0.02
Mof_H 	H 	0.5566	0.5727	0.8974	0.02
Mof_H 	H 	0.9229	0.7944	0.0332	0.004
Mof_H 	H 	0.7271	0.763	0.6615	-0.072
Mof_H 	H 	0.6359	0.1315	0.3741	-0.053
Mof_H 	H 	0.3038	0.3589	0.2696	-0.019
Mof_H 	H 	0.2642	0.638	0.8898	-0.078
Mof_H 	H 	0.4313	0.2613	0.3837	-0.079
Mof_H 	H 	0.4716	0.3651	0.3104	-0.01
Mof_H 	H 	0.8972	0.9895	0.6206	-0.003
Mof_H 	H 	0.2674	0.1431	0.2455	-0.091
Mof_H 	H 	0.1359	0.3685	0.1259	-0.054
Mof_H 	H 	0.9434	0.0727	0.3974	0.019
Mof_H 	H 	0.9639	0.3485	0.0127	-0.012
Mof_H 	H 	0.9411	0.1248	0.3199	0.099
Mof_H 	H 	0.5284	0.6349	0.6896	-0.01
Mof_H 	H 	0.9645	0.1561	0.5415	-0.004
Mof_H 	H 	0.5599	0.0062	0.2731	0.002
Mof_H 	H 	0.5424	0.8058	0.0798	-0.043
Mof_H 	H 	0.8637	0.1261	0.7544	-0.073
Mof_H 	H 	0.7674	0.3569	0.2545	-0.091
Mof_H 	H 	0.8971	0.9004	0.8935	0.002
Mof_H 	H 	0.5589	0.6248	0.8199	0.099
Mof_H 	H 	0.6481	0.871	0.0464	0.092
Mof_H 	H 	0.0558	0.5438	0.6647	-0.011
Mof_H 	H 	0.0355	0.8439	0.4585	-0.004
Mof_H 	H 	0.5299	0.8601	0.6662	-0.067
Mof_H 	H 	0.7326	0.8569	0.7545	-0.091
Mof_H 	H 	0.4056	0.6679	0.9668	0.002
Mof_H 	H 	0.1854	0.8916	0.1525	-0.07
Mof_H 	H 	0.7824	0.6351	0.9605	0.104
Mof_H 	H 	0.3042	0.6966	0.5493	-0.005
Mof_H 	H 	0.5876	0.5028	0.5252	0.005
Mof_H 	H 	0.4442	0.0438	0.1647	-0.01
Mof_H 	H 	0.3519	0.129	0.9536	0.092
Mof_H 	H 	0.0566	0.9273	0.6026	0.019
Mof_H 	H 	0.774	0.3616	0.797	-0.017
Mof_H 	H 	0.226	0.6384	0.203	-0.017
Mof_H 	H 	0.5167	0.6564	0.3985	-0.018
Mof_H 	H 	0.0417	0.5439	0.9057	-0.006
Mof_H 	H 	0.0167	0.8436	0.1015	-0.02
Mof_H 	H 	0.669	0.7803	0.3618	-0.073
Mof_H 	H 	0.6363	0.6261	0.2544	-0.073
Mof_H 	H 	0.3641	0.8685	0.6259	-0.053
Mof_H 	H 	0.4701	0.1399	0.3338	-0.067
Mof_H 	H 	0.0875	0.3647	0.551	-0.012
Mof_H 	H 	0.6705	0.6327	0.0891	-0.009
Mof_H 	H 	0.8424	0.4093	0.7389	-0.002
Mof_H 	H 	0.6028	0.4895	0.1206	-0.004
Mof_H 	H 	0.5771	0.2944	0.5332	-0.002
Mof_H 	H 	0.7122	0.305	0.6607	0.003
Mof_H 	H 	0.4401	0.9938	0.7269	0.002
Mof_H 	H 	0.3217	0.4547	0.3941	0.152
Mof_H 	H 	0.4411	0.3752	0.1801	0.099
Mof_H 	H 	0.4133	0.4237	0.5355	-0.009
Mof_H 	H 	0.4563	0.9355	0.1537	-0.009
Mof_H 	H 	0.9701	0.3601	0.1662	-0.067
Mof_H 	H 	0.13	0.8068	0.5356	0.013
Mof_H 	H 	0.5558	0.9562	0.8353	-0.01
Mof_H 	H 	0.6576	0.9093	0.2389	-0.002
Mof_H 	H 	0.0867	0.9237	0.0355	-0.006
Mof_H 	H 	0.299	0.8052	0.2862	-0.063
Mof_H 	H 	0.2326	0.6431	0.7455	-0.091
Mof_H 	H 	0.5875	0.1353	0.949	-0.012
Mof_H 	H 	0.4478	0.6726	0.3004	-0.004
Mof_H 	H 	0.1094	0.3709	0.7728	-0.065
Mof_H 	H 	0.0299	0.6399	0.8338	-0.067
Mof_H 	H 	0.5361	0.8485	0.5127	-0.013
Mof_H 	H 	0.799	0.6948	0.2138	-0.062
Mof_H 	H 	0.5687	0.7387	0.6163	-0.079
Mof_H 	H 	0.1576	0.5907	0.2611	-0.002
Mof_H 	H 	0.9124	0.0028	0.0252	0.003
Mof_H 	H 	0.4187	0.608	0.7631	-0.048
Mof_H 	H 	0.9716	0.1349	0.1896	-0.009
Mof_H 	H 	0.3435	0.5046	0.6278	-0.008
Mof_H 	H 	0.6407	0.7283	0.8724	-0.004
Mof_H 	H 	0.2535	0.3607	0.3873	-0.051
Mof_H 	H 	0.8519	0.371	0.5464	0.092
Mof_H 	H 	0.4576	0.1942	0.9202	-0.043
Mof_H 	H 	0.7729	0.263	0.1615	-0.072
Mof_H 	H 	0.8641	0.6315	0.8741	-0.054
Mof_H 	H 	0.8593	0.2283	0.3724	-0.004
Mof_H 	H 	0.4833	0.3436	0.6015	-0.018
Mof_H 	H 	0.0437	0.4355	0.6537	-0.008
Mof_H 	H 	0.4583	0.0439	0.4057	-0.007
Mof_H 	H 	0.4023	0.6542	0.1858	-0.02
Mof_H 	H 	0.331	0.2197	0.6382	-0.073
Mof_H 	H 	0.9563	0.5645	0.3463	-0.008
Mof_H 	H 	0.0599	0.4938	0.2269	0.002
Mof_H 	H 	0.8435	0.9954	0.8722	-0.008
Mof_H 	H 	0.6029	0.4004	0.3935	0.003
Mof_H 	H 	0.2176	0.3649	0.0395	0.104
Mof_H 	H 	0.87	0.1932	0.4644	0.013
Mof_H 	H 	0.726	0.8616	0.297	-0.017
Mof_H 	H 	0.9133	0.0763	0.9645	-0.006
Mof_H 	H 	0.8217	0.0453	0.1059	0.154
Mof_H 	H 	0.169	0.7197	0.1382	-0.073
Mof_H 	H 	0.5867	0.5763	0.4645	-0.009
Mof_H 	H 	0.5974	0.8049	0.7719	-0.06
Mof_H 	H 	0.6958	0.3034	0.4507	-0.005
Mof_H 	H 	0.9442	0.4562	0.3353	-0.011
Mof_H 	H 	0.0424	0.6942	0.4202	-0.044
Mof_H 	H 	0.1029	0.0996	0.1065	0.002
Mof_H 	H 	0.3424	0.0907	0.7611	-0.002
Mof_H 	H 	0.3593	0.2717	0.1276	-0.004
Mof_H 	H 	0.4125	0.8647	0.051	-0.012
Mof_H 	H 	0.7735	0.5478	0.1091	-0.019
Mof_H 	H 	0.8042	0.8034	0.9507	-0.007
Mof_H 	H 	0.4124	0.4972	0.4748	0.005
Mof_H 	H 	0.1783	0.9547	0.8941	0.154
Mof_H 	H 	0.6565	0.4954	0.3722	-0.008
Mof_H 	H 	0.6962	0.6411	0.7304	-0.019
Mof_H 	H 	0.9125	0.6353	0.449	-0.012
Mof_H 	H 	0.9187	0.892	0.7369	-0.048
Mof_H 	H 	0.4639	0.1515	0.4873	-0.013
Mof_H 	H 	0.1028	0.0105	0.3794	-0.003
Mof_H 	H 	0.201	0.3052	0.7862	-0.062
Mof_H 	H 	0.8038	0.1411	0.2304	-0.019
Mof_H 	H 	0.6548	0.2268	0.8675	-0.068
Mof_C 	C 	0.7429	0.8146	0.134	0.002
Mof_C 	C 	0.264	0.67272	0.21646	0.027
Mof_C 	C 	0.0635	0.211	0.00817	0.007
Mof_C 	C 	0.8902	0.3108	0.5891	0.111
Mof_C 	C 	0.7571	0.3146	0.634	0.002
Mof_C 	C 	0.5153	0.72692	0.58899	0.109
Mof_C 	C 	0.4686	0.07131	0.19998	0
Mof_C 	C 	0.1417	0.181	0.70632	-0.036
Mof_C 	C 	0.7512	0.8502	0.0983	0.002
Mof_C 	C 	0.0905	0.58655	0.2526	0.003
Mof_C 	C 	0.2429	0.6854	0.366	0.002
Mof_C 	C 	0.5842	0.86649	0.54334	-0.001
Mof_C 	C 	0.0314	0.57131	0.69998	0.003
Mof_C 	C 	0.0477	0.3926	0.29502	-0.011
Mof_C 	C 	0.5057	0.69249	0.32665	-0.013
Mof_C 	C 	0.1429	0.09518	0.13686	0
Mof_C 	C 	0.0634	0.83037	0.78721	0.014
Mof_C 	C 	0.4327	0.7801	0.86232	0.003
Mof_C 	C 	0.6788	0.6827	0.9347	0.012
Mof_C 	C 	0.2351	0.12172	0.21318	0.12
Mof_C 	C 	0.8443	0.17222	0.23282	-0.023
Mof_C 	C 	0.6732	0.45533	0.35093	0.008
Mof_C 	C 	0.0902	0.18777	0.51165	-0.002
Mof_C 	C 	0.2488	0.1498	0.9017	0.002
Mof_C 	C 	0.4843	0.12374	0.29205	0.125
Mof_C 	C 	0.6728	0.61952	0.12607	-0.012
Mof_C 	C 	0.5902	0.31223	0.98835	-0.004
Mof_C 	C 	0.2571	0.1854	0.866	0.002
Mof_C 	C 	0.4366	0.33037	0.28721	0.014
Mof_C 	C 	0.1177	0.9627	0.9691	0.039
Mof_C 	C 	0.1232	0.74734	0.14052	0.141
Mof_C 	C 	0.9365	0.789	0.99183	0.007
Mof_C 	C 	0.0757	0.0406	0.3592	0.001
Mof_C 	C 	0.8272	0.11952	0.62607	-0.012
Mof_C 	C 	0.1241	0.2106	0.0531	0.002
Mof_C 	C 	0.6536	0.61418	0.21485	0.129
Mof_C 	C 	0.817	0.2028	0.3859	-0.003
Mof_C 	C 	0.1728	0.88048	0.37393	-0.012
Mof_C 	C 	0.461	0.31609	0.62242	0.003
Mof_C 	C 	0.5866	0.92209	0.58552	0
Mof_C 	C 	0.6281	0.11981	0.91686	-0.002
Mof_C 	C 	0.317	0.2972	0.1141	-0.003
Mof_C 	C 	0.9927	0.0714	0.3689	0.004
Mof_C 	C 	0.3212	0.3173	0.0653	0.012
Mof_C 	C 	0.2686	0.42479	0.86645	0.006
Mof_C 	C 	0.7351	0.37828	0.28682	0.12
Mof_C 	C 	0.4365	0.711	0.50817	0.017
Mof_C 	C 	0.6417	0.319	0.79368	-0.036
Mof_C 	C 	0.8783	0.75429	0.39998	0.111
Mof_C 	C 	0.3995	0.23766	0.24505	0.131
Mof_C 	C 	0.764	0.82728	0.28354	0.027
Mof_C 	C 	0.8087	0.6506	0.8841	0.132
Mof_C 	C 	0.7314	0.57521	0.13355	0.006
Mof_C 	C 	0.9098	0.81223	0.48835	-0.002
Mof_C 	C 	0.0416	0.5336	0.231	-0.006
Mof_C 	C 	0.0073	0.9286	0.6311	0.004
Mof_C 	C 	0.3783	0.74571	0.10002	0.111
Mof_C 	C 	0.3719	0.88019	0.08314	-0.002
Mof_C 	C 	0.0153	0.77308	0.91101	0.112
Mof_C 	C 	0.8823	0.0373	0.0309	0.039
Mof_C 	C 	0.8768	0.25266	0.85948	0.141
Mof_C 	C 	0.4243	0.5406	0.8592	0.003
Mof_C 	C 	0.5518	0.10636	0.73077	0.092
Mof_C 	C 	0.2512	0.6498	0.4017	0.002
Mof_C 	C 	0.3902	0.1892	0.9109	0.112
Mof_C 	C 	0.8767	0.0779	0.9999	-0.018
Mof_C 	C 	0.0866	0.57791	0.91448	0.001
Mof_C 	C 	0.2314	0.92479	0.36645	0.006
Mof_C 	C 	0.2053	0.8872	0.9204	0.137
Mof_C 	C 	0.198	0.26425	0.76198	0.135
Mof_C 	C 	0.7686	0.07521	0.63355	0.006
Mof_C 	C 	0.5673	0.2199	0.13768	0.003
Mof_C 	C 	0.698	0.23575	0.73802	0.135
Mof_C 	C 	0.236	0.17272	0.71646	0.027
Mof_C 	C 	0.1044	0.41914	0.63734	-0.002
Mof_C 	C 	0.7947	0.1128	0.0796	0.137
Mof_C 	C 	0.0157	0.62374	0.79205	0.128
Mof_C 	C 	0.5905	0.91345	0.2474	0.003
Mof_C 	C 	0.9134	0.42209	0.08552	0.001
Mof_C 	C 	0.5314	0.92869	0.80002	0
Mof_C 	C 	0.6233	0.5779	0.4999	-0.008
Mof_C 	C 	0.039	0.81609	0.12242	0.004
Mof_C 	C 	0.8759	0.7894	0.9469	0.002
Mof_C 	C 	0.183	0.7972	0.6141	-0.003
Mof_C 	C 	0.4927	0.4286	0.1311	0.001
Mof_C 	C 	0.1098	0.6892	0.4109	0.111
Mof_C 	C 	0.6005	0.76234	0.75495	0.131
Mof_C 	C 	0.2883	0.75016	0.85596	0.12
Mof_C 	C 	0.3272	0.38048	0.87393	-0.012
Mof_C 	C 	0.9327	0.7199	0.63768	0.003
Mof_C 	C 	0.5208	0.31896	0.94981	0.008
Mof_C 	C 	0.4943	0.30751	0.67335	-0.013
Mof_C 	C 	0.3443	0.32778	0.26718	-0.023
Mof_C 	C 	0.4158	0.13351	0.45666	-0.001
Mof_C 	C 	0.9523	0.6074	0.70498	-0.011
Mof_C 	C 	0.8571	0.90482	0.86314	0
Mof_C 	C 	0.6232	0.75266	0.35948	0.142
Mof_C 	C 	0.7883	0.74984	0.64404	0.12
Mof_C 	C 	0.3768	0.24734	0.64052	0.142
Mof_C 	C 	0.8464	0.11418	0.71485	0.129
Mof_C 	C 	0.802	0.73575	0.23802	0.135
Mof_C 	C 	0.7053	0.6128	0.5796	0.136
Mof_C 	C 	0.9041	0.72337	0.58307	-0.003
Mof_C 	C 	0.8719	0.61981	0.41686	-0.002
Mof_C 	C 	0.0691	0.0887	0.2942	0.113
Mof_C 	C 	0.4523	0.8926	0.79502	-0.008
Mof_C 	C 	0.8212	0.1827	0.4347	0.012
Mof_C 	C 	0.302	0.76425	0.26198	0.135
Mof_C 	C 	0.0518	0.39364	0.76923	0.094
Mof_C 	C 	0.3571	0.59518	0.63686	0
Mof_C 	C 	0.7649	0.87828	0.78682	0.12
Mof_C 	C 	0.0057	0.80751	0.17335	-0.017
Mof_C 	C 	0.736	0.32728	0.78354	0.027
Mof_C 	C 	0.289	0.12754	0.40468	0.124
Mof_C 	C 	0.0208	0.18104	0.55019	0.007
Mof_C 	C 	0.3464	0.38582	0.78515	0.129
Mof_C 	C 	0.3583	0.681	0.20632	-0.036
Mof_C 	C 	0.211	0.62754	0.90468	0.124
Mof_C 	C 	0.2649	0.62172	0.71318	0.12
Mof_C 	C 	0.9686	0.42869	0.30002	0.003
Mof_C 	C 	0.6557	0.67222	0.73282	-0.023
Mof_C 	C 	0.1233	0.9221	0.0001	-0.018
Mof_C 	C 	0.5416	0.9664	0.269	-0.004
Mof_C 	C 	0.9792	0.81896	0.44981	0.007
Mof_C 	C 	0.0842	0.63351	0.95666	-0
Mof_C 	C 	0.9366	0.16963	0.21279	0.014
Mof_C 	C 	0.8583	0.819	0.29368	-0.036
Mof_C 	C 	0.1557	0.82778	0.76718	-0.023
Mof_C 	C 	0.8995	0.26234	0.25495	0.131
Mof_C 	C 	0.6098	0.8108	0.0891	0.112
Mof_C 	C 	0.2947	0.3872	0.4204	0.136
Mof_C 	C 	0.711	0.87246	0.59532	0.124
Mof_C 	C 	0.789	0.37246	0.09532	0.124
Mof_C 	C 	0.3956	0.91914	0.13734	-0.002
Mof_C 	C 	0.3268	0.54467	0.64907	0.008
Mof_C 	C 	0.8956	0.58086	0.36266	-0.002
Mof_C 	C 	0.1281	0.38019	0.58314	-0.002
Mof_C 	C 	0.6241	0.2894	0.4469	-0.001
Mof_C 	C 	0.0673	0.2801	0.36232	0.003
Mof_C 	C 	0.4095	0.08655	0.7526	0.003
Mof_C 	C 	0.3759	0.7106	0.5531	-0.001
Mof_C 	C 	0.5073	0.5714	0.8689	0.001
Mof_C 	C 	0.1217	0.24571	0.60002	0.111
Mof_C 	C 	0.5477	0.1074	0.20498	-0.008
Mof_C 	C 	0.3823	0.4627	0.4691	0.029
Mof_C 	C 	0.5635	0.289	0.49183	0.017
Mof_C 	C 	0.5157	0.87626	0.70795	0.125
Mof_C 	C 	0.683	0.7028	0.8859	-0.003
Mof_C 	C 	0.6044	0.08086	0.86266	-0.002
Mof_C 	C 	0.1005	0.73766	0.74505	0.131
Mof_C 	C 	0.7117	0.24984	0.14404	0.12
Mof_C 	C 	0.2117	0.25016	0.35596	0.12
Mof_C 	C 	0.4098	0.68777	0.01165	-0.004
Mof_C 	C 	0.9843	0.37626	0.20795	0.128
Mof_C 	C 	0.6177	0.5373	0.5309	0.029
Mof_C 	C 	0.4309	0.5887	0.7942	0.114
Mof_C 	C 	0.4482	0.89364	0.26923	0.092
Mof_C 	C 	0.3767	0.4221	0.5001	-0.008
Mof_C 	C 	0.4792	0.68104	0.05019	0.008
Mof_C 	C 	0.2517	0.39554	0.63823	0.12
Mof_C 	C 	0.539	0.68391	0.37758	0.003
Mof_C 	C 	0.6429	0.40482	0.36314	0
Mof_C 	C 	0.2483	0.89554	0.13823	0.12
Mof_C 	C 	0.6217	0.25429	0.89998	0.111
Mof_C 	C 	0.4584	0.0336	0.731	-0.004
Mof_C 	C 	0.7517	0.10446	0.86177	0.12
Mof_C 	C 	0.1732	0.04467	0.14907	0.008
Mof_C 	C 	0.1788	0.8173	0.5653	0.012
Mof_C 	C 	0.9095	0.41345	0.7474	0.003
Mof_C 	C 	0.8268	0.95533	0.85093	0.008
Mof_C 	C 	0.5634	0.66963	0.71279	0.014
Mof_C 	C 	0.961	0.18391	0.87758	0.004
Mof_C 	C 	0.9158	0.36649	0.04334	-0
Mof_C 	C 	0.9584	0.4664	0.769	-0.006
Mof_C 	C 	0.0959	0.27663	0.41693	-0.003
Mof_C 	C 	0.5757	0.4594	0.1408	0.003
Mof_C 	C 	0.9482	0.60636	0.23077	0.094
Mof_C 	C 	0.7488	0.3502	0.5983	0.002
Mof_C 	C 	0.1536	0.88582	0.28515	0.129
Mof_C 	C 	0.4134	0.07791	0.41448	0
Mof_C 	C 	0.9309	0.9113	0.7058	0.113
Mof_C 	C 	0.5959	0.22337	0.08307	-0.002
Mof_C 	C 	0.3087	0.8494	0.6159	0.132
Mof_C 	C 	0.4847	0.27308	0.41101	0.109
Mof_C 	C 	0.9847	0.22692	0.08899	0.112
Mof_C 	C 	0.9943	0.19249	0.82665	-0.017
Mof_C 	C 	0.4041	0.77663	0.91693	-0.002
Mof_C 	C 	0.7483	0.60446	0.36177	0.12
Mof_C 	C 	0.9243	0.9594	0.6408	0.001
Mof_C 	C 	0.1913	0.3494	0.1159	0.132
Mof_C 	C 	0.5691	0.4113	0.2058	0.114
Mof_C 	C 	0.6913	0.1506	0.3841	0.132
Mof_N 	N 	0.6525	0.7896	0.12831	-0.263
Mof_N 	N 	0.7408	0.14871	0.43245	-0.211
Mof_N 	N 	0.1847	0.42965	0.67339	-0.289
Mof_N 	N 	0.6223	0.64436	0.17823	-0.283
Mof_N 	N 	0.2668	0.56114	0.69841	-0.284
Mof_N 	N 	0.7277	0.774	0.2474	-0.286
Mof_N 	N 	0.3153	0.92965	0.17339	-0.289
Mof_N 	N 	0.1697	0.93979	0.91876	-0.265
Mof_N 	N 	0.72	0.57177	0.19084	-0.288
Mof_N 	N 	0.4896	0.39823	0.173	-0.197
Mof_N 	N 	0.0279	0.77266	0.77287	-0.279
Mof_N 	N 	0.0716	0.58156	0.75576	-0.279
Mof_N 	N 	0.6785	0.62609	0.53111	-0.266
Mof_N 	N 	0.642	0.23718	0.17769	-0.276
Mof_N 	N 	0.2229	0.36441	0.58285	-0.284
Mof_N 	N 	0.6167	0.25971	0.7647	-0.278
Mof_N 	N 	0.8179	0.85452	0.82161	-0.288
Mof_N 	N 	0.32	0.26839	0.23992	-0.282
Mof_N 	N 	0.1525	0.7104	0.37169	-0.262
Mof_N 	N 	0.5308	0.86576	0.24769	-0.286
Mof_N 	N 	0.3111	0.758	0.91322	-0.283
Mof_N 	N 	0.2408	0.35129	0.06755	-0.211
Mof_N 	N 	0.9604	0.78131	0.39267	-0.269
Mof_N 	N 	0.8111	0.742	0.58678	-0.284
Mof_N 	N 	0.4496	0.95406	0.28323	-0.274
Mof_N 	N 	0.6642	0.83431	0.54939	-0.288
Mof_N 	N 	0.3475	0.2104	0.87169	-0.263
Mof_N 	N 	0.78	0.07177	0.69084	-0.288
Mof_N 	N 	0.5576	0.14137	0.26408	-0.286
Mof_N 	N 	0.9692	0.36576	0.74769	-0.287
Mof_N 	N 	0.334	0.15237	0.93032	-0.195
Mof_N 	N 	0.2332	0.06114	0.19841	-0.284
Mof_N 	N 	0.9398	0.23761	0.81401	-0.272
Mof_N 	N 	0.7332	0.43886	0.30159	-0.284
Mof_N 	N 	0.1821	0.14548	0.17839	-0.288
Mof_N 	N 	0.5272	0.72141	0.53079	-0.283
Mof_N 	N 	0.3315	0.07393	0.38037	-0.291
Mof_N 	N 	0.8443	0.77075	0.45633	-0.27
Mof_N 	N 	0.9258	0.77914	0.89439	-0.288
Mof_N 	N 	0.1223	0.85564	0.32177	-0.283
Mof_N 	N 	0.0308	0.63424	0.25231	-0.287
Mof_N 	N 	0.7347	0.18245	0.35398	-0.264
Mof_N 	N 	0.5396	0.28131	0.89267	-0.27
Mof_N 	N 	0.2277	0.726	0.2526	-0.286
Mof_N 	N 	0.834	0.34763	0.56968	-0.195
Mof_N 	N 	0.7653	0.68245	0.85398	-0.264
Mof_N 	N 	0.5602	0.73761	0.31401	-0.273
Mof_N 	N 	0.3303	0.43979	0.41876	-0.263
Mof_N 	N 	0.1167	0.24029	0.7353	-0.277
Mof_N 	N 	0.7668	0.93886	0.80159	-0.284
Mof_N 	N 	0.18	0.76839	0.73992	-0.282
Mof_N 	N 	0.4728	0.27859	0.46921	-0.283
Mof_N 	N 	0.7592	0.64871	0.93245	-0.211
Mof_N 	N 	0.4398	0.26239	0.68599	-0.273
Mof_N 	N 	0.1642	0.66569	0.95061	-0.287
Mof_N 	N 	0.6244	0.44834	0.18773	-0.267
Mof_N 	N 	0.8833	0.75971	0.2647	-0.277
Mof_N 	N 	0.8303	0.06021	0.08124	-0.265
Mof_N 	N 	0.5716	0.91844	0.74424	-0.278
Mof_N 	N 	0.7229	0.13559	0.91715	-0.284
Mof_N 	N 	0.6685	0.92607	0.61963	-0.291
Mof_N 	N 	0.7723	0.274	0.7474	-0.286
Mof_N 	N 	0.28	0.42823	0.80916	-0.288
Mof_N 	N 	0.3865	0.2772	0.60058	-0.289
Mof_N 	N 	0.8756	0.94834	0.68773	-0.266
Mof_N 	N 	0.3179	0.64548	0.67839	-0.288
Mof_N 	N 	0.4692	0.13424	0.75231	-0.286
Mof_N 	N 	0.4721	0.27266	0.27287	-0.279
Mof_N 	N 	0.0396	0.21869	0.60733	-0.269
Mof_N 	N 	0.3777	0.35564	0.82177	-0.283
Mof_N 	N 	0.6821	0.35452	0.32161	-0.288
Mof_N 	N 	0.858	0.73718	0.67769	-0.276
Mof_N 	N 	0.8315	0.42607	0.11963	-0.291
Mof_N 	N 	0.1135	0.7772	0.10058	-0.289
Mof_N 	N 	0.5742	0.27914	0.39439	-0.285
Mof_N 	N 	0.4284	0.08156	0.25576	-0.278
Mof_N 	N 	0.8215	0.12609	0.03111	-0.263
Mof_N 	N 	0.1244	0.05166	0.31227	-0.266
Mof_N 	N 	0.6889	0.242	0.08678	-0.283
Mof_N 	N 	0.2723	0.226	0.7526	-0.286
Mof_N 	N 	0.9424	0.64137	0.76408	-0.287
Mof_N 	N 	0.9896	0.10177	0.327	-0.197
Mof_N 	N 	0.8865	0.2228	0.89942	-0.289
Mof_N 	N 	0.82	0.23161	0.26008	-0.282
Mof_N 	N 	0.8475	0.2896	0.62831	-0.262
Mof_N 	N 	0.3833	0.74029	0.2353	-0.278
Mof_N 	N 	0.5104	0.60177	0.827	-0.197
Mof_N 	N 	0.1785	0.87391	0.96889	-0.263
Mof_N 	N 	0.9728	0.22141	0.03079	-0.28
Mof_N 	N 	0.6847	0.07035	0.82661	-0.289
Mof_N 	N 	0.3215	0.37391	0.46889	-0.266
Mof_N 	N 	0.666	0.84763	0.06968	-0.195
Mof_N 	N 	0.2771	0.86441	0.08285	-0.284
Mof_N 	N 	0.358	0.76282	0.82231	-0.276
Mof_N 	N 	0.4258	0.72086	0.60561	-0.285
Mof_N 	N 	0.3443	0.72925	0.04367	-0.27
Mof_N 	N 	0.8777	0.14436	0.67823	-0.283
Mof_N 	N 	0.2653	0.81755	0.64602	-0.264
Mof_N 	N 	0.9496	0.54594	0.21677	-0.273
Mof_N 	N 	0.0272	0.77859	0.96921	-0.28
Mof_N 	N 	0.1685	0.57393	0.88037	-0.291
Mof_N 	N 	0.4604	0.71869	0.10733	-0.27
Mof_N 	N 	0.0602	0.76239	0.18599	-0.272
Mof_N 	N 	0.3358	0.16569	0.45061	-0.288
Mof_N 	N 	0.68	0.73161	0.76008	-0.282
Mof_N 	N 	0.6697	0.56021	0.58124	-0.263
Mof_N 	N 	0.2347	0.31755	0.14602	-0.264
Mof_N 	N 	0.0104	0.89823	0.673	-0.197
Mof_N 	N 	0.8153	0.57035	0.32661	-0.289
Mof_N 	N 	0.3756	0.55166	0.81227	-0.267
Mof_N 	N 	0.1557	0.22925	0.54367	-0.27
Mof_N 	N 	0.166	0.65237	0.43032	-0.195
Mof_N 	N 	0.6135	0.7228	0.39942	-0.289
Mof_N 	N 	0.5279	0.72734	0.72713	-0.279
Mof_N 	N 	0.142	0.26282	0.32231	-0.276
Mof_N 	N 	0.2592	0.85129	0.56755	-0.211
Mof_N 	N 	0.7771	0.63559	0.41715	-0.284
Mof_N 	N 	0.1889	0.258	0.41322	-0.284
Mof_N 	N 	0.0742	0.22086	0.10561	-0.288
Mof_N 	N 	0.0504	0.45406	0.78323	-0.273
Mof_N 	N 	0.9284	0.41844	0.24424	-0.279
Mof_N 	N 	0.8358	0.33431	0.04939	-0.287
Mof_N 	N 	0.0576	0.35863	0.23592	-0.287
Mof_N 	N 	0.22	0.92823	0.30916	-0.288
Mof_N 	N 	0.5504	0.04594	0.71677	-0.274
Mof_N 	N 	0.4424	0.85863	0.73592	-0.286
Mof_N 	N 	0.9721	0.22734	0.22713	-0.279
Mof_N 	N 	0.6557	0.27075	0.95633	-0.27
_end
