# CIF file generated by openbabel 3.1.0, see https://openbabel.org
data_I
_chemical_name_common 'image0'
_cell_length_a 19.415
_cell_length_b 7.071
_cell_length_c 11.483
_cell_angle_alpha 90
_cell_angle_beta 92.78
_cell_angle_gamma 90
_space_group_name_H-M_alt 'P 1'
_space_group_name_Hall 'P 1'
loop_
    _symmetry_equiv_pos_as_xyz
    x,y,z
loop_
    _atom_site_label
    _atom_site_type_symbol
    _atom_site_fract_x
    _atom_site_fract_y
    _atom_site_fract_z
    _atom_site_occupancy
    O1       O        0.33100    0.18200    0.62900    1.000
    O2       O        0.30400    0.15800    0.36700    1.000
    C1       C        0.50400    0.17800    0.43300    1.000
    N1       N        0.26100    0.19500    0.87800    1.000
    C2       C        0.32000    0.27000    0.95900    1.000
    C3       C        0.20200    0.11100    0.94900    1.000
    O3       O        0.83100    0.68200    0.62900    1.000
    O4       O        0.80400    0.65800    0.36700    1.000
    C4       C        0.00400    0.67800    0.43300    1.000
    N2       N        0.76100    0.69500    0.87800    1.000
    C5       C        0.82000    0.77000    0.95900    1.000
    C6       C        0.70200    0.61100    0.94900    1.000
    O5       O        0.66900    0.18200    0.37100    1.000
    O6       O        0.69600    0.15800    0.63300    1.000
    C7       C        0.49600    0.17800    0.56700    1.000
    N3       N        0.73900    0.19500    0.12200    1.000
    C8       C        0.68000    0.27000    0.04100    1.000
    C9       C        0.79800    0.11100    0.05100    1.000
    O7       O        0.16900    0.68200    0.37100    1.000
    O8       O        0.19600    0.65800    0.63300    1.000
    C10      C        0.99600    0.67800    0.56700    1.000
    N4       N        0.23900    0.69500    0.12200    1.000
    C11      C        0.18000    0.77000    0.04100    1.000
    C12      C        0.29800    0.61100    0.05100    1.000
    O9       O        0.66900    0.81800    0.37100    1.000
    O10      O        0.69600    0.84200    0.63300    1.000
    C13      C        0.49600    0.82200    0.56700    1.000
    N5       N        0.73900    0.80500    0.12200    1.000
    C14      C        0.68000    0.73000    0.04100    1.000
    C15      C        0.79800    0.88900    0.05100    1.000
    O11      O        0.16900    0.31800    0.37100    1.000
    O12      O        0.19600    0.34200    0.63300    1.000
    C16      C        0.99600    0.32200    0.56700    1.000
    N6       N        0.23900    0.30500    0.12200    1.000
    C17      C        0.18000    0.23000    0.04100    1.000
    C18      C        0.29800    0.38900    0.05100    1.000
    O13      O        0.33100    0.81800    0.62900    1.000
    O14      O        0.30400    0.84200    0.36700    1.000
    C19      C        0.50400    0.82200    0.43300    1.000
    N7       N        0.26100    0.80500    0.87800    1.000
    C20      C        0.32000    0.73000    0.95900    1.000
    C21      C        0.20200    0.88900    0.94900    1.000
    O15      O        0.83100    0.31800    0.62900    1.000
    O16      O        0.80400    0.34200    0.36700    1.000
    C22      C        0.00400    0.32200    0.43300    1.000
    N8       N        0.76100    0.30500    0.87800    1.000
    C23      C        0.82000    0.23000    0.95900    1.000
    C24      C        0.70200    0.38900    0.94900    1.000
    Ti1      Ti       0.25000    0.25000    0.50000    1.000
    Ti2      Ti       0.75000    0.25000    0.50000    1.000
    Ti3      Ti       0.75000    0.75000    0.50000    1.000
    Ti4      Ti       0.25000    0.75000    0.50000    1.000
    P1       P        0.34300    0.00000    0.70100    1.000
    P2       P        0.32000    0.00000    0.29700    1.000
    O17      O        0.22300    0.00000    0.53200    1.000
    O18      O        0.41900    0.00000    0.74000    1.000
    O19      O        0.28700    0.00000    0.17500    1.000
    N9       N        0.46900    0.00000    0.38100    1.000
    C25      C        0.41100    0.00000    0.27300    1.000
    C26      C        0.29400    0.00000    0.82700    1.000
    P3       P        0.84300    0.50000    0.70100    1.000
    P4       P        0.82000    0.50000    0.29700    1.000
    O20      O        0.72300    0.50000    0.53200    1.000
    O21      O        0.91900    0.50000    0.74000    1.000
    O22      O        0.78700    0.50000    0.17500    1.000
    N10      N        0.96900    0.50000    0.38100    1.000
    C27      C        0.91100    0.50000    0.27300    1.000
    C28      C        0.79400    0.50000    0.82700    1.000
    P5       P        0.65700    0.00000    0.29900    1.000
    P6       P        0.68000    0.00000    0.70300    1.000
    O23      O        0.77700    0.00000    0.46800    1.000
    O24      O        0.58100    0.00000    0.26000    1.000
    O25      O        0.71300    0.00000    0.82500    1.000
    N11      N        0.53100    0.00000    0.61900    1.000
    C29      C        0.58900    0.00000    0.72700    1.000
    C30      C        0.70600    0.00000    0.17300    1.000
    P7       P        0.15700    0.50000    0.29900    1.000
    P8       P        0.18000    0.50000    0.70300    1.000
    O26      O        0.27700    0.50000    0.46800    1.000
    O27      O        0.08100    0.50000    0.26000    1.000
    O28      O        0.21300    0.50000    0.82500    1.000
    N12      N        0.03100    0.50000    0.61900    1.000
    C31      C        0.08900    0.50000    0.72700    1.000
    C32      C        0.20600    0.50000    0.17300    1.000
