data_functionalizedCrystal
_audit_creation_method	'EQeq! by Chris Wilmer'
_symmetry_space_group_name_H-M	'P1'
_symmetry_Int_Tables_number	1
_symmetry_cell_setting	triclinic
loop_
_symmetry_equiv_pos_as_xyz
  x,y,z
_cell_length_a	7.7334
_cell_length_b	25.833
_cell_length_c	12.0623
_cell_angle_alpha	90
_cell_angle_beta	106.854
_cell_angle_gamma	90
loop_
_atom_site_label
_atom_site_type_symbol
_atom_site_fract_x
_atom_site_fract_y
_atom_site_fract_z
_atom_site_charge
Mof_I 	I 	0.12933	0.43139	0.37316	-0.238
Mof_Ag	Ag	0.86463	0.64695	0.20889	0.515
Mof_N 	N 	0.0613	0.59685	0.3405	-0.205
Mof_N 	N 	0.1894	0.66485	0.4609	-0.324
Mof_H 	H 	0.2646	0.6767	0.5229	0.122
Mof_H 	H 	0.1199	0.6857	0.4125	0.124
Mof_N 	N 	0.2922	0.58244	0.5183	-0.208
Mof_C 	C 	0.1561	0.51083	0.402	0.004
Mof_C 	C 	0.2775	0.53167	0.4987	0.016
Mof_H 	H 	0.3521	0.5094	0.5523	0.008
Mof_C 	C 	0.1804	0.6141	0.4398	0.198
Mof_C 	C 	0.0502	0.5458	0.3236	0.014
Mof_H 	H 	0.9682	0.5331	0.2567	0.001
Mof_I 	I 	0.62003	0.677	0.36107	-0.256
Mof_Ag	Ag	0.50606	0.89178	0.17124	0.541
Mof_N 	N 	0.7357	0.82639	0.5252	-0.207
Mof_N 	N 	0.6926	0.90927	0.4534	-0.322
Mof_H 	H 	0.6619	0.9309	0.3968	0.112
Mof_H 	H 	0.7289	0.9204	0.5235	0.11
Mof_N 	N 	0.6266	0.84207	0.322	-0.212
Mof_C 	C 	0.6187	0.79146	0.3035	0.006
Mof_H 	H 	0.5825	0.7794	0.2276	0.003
Mof_C 	C 	0.6624	0.75609	0.3925	-0.002
Mof_C 	C 	0.7216	0.77563	0.5041	0.005
Mof_H 	H 	0.7524	0.7527	0.5661	0.008
Mof_C 	C 	0.6839	0.859	0.4326	0.181
Mof_I 	I 	0.62003	0.823	0.86107	-0.256
Mof_Ag	Ag	0.50606	0.60822	0.67124	0.542
Mof_N 	N 	0.7357	0.67361	0.0252	-0.207
Mof_N 	N 	0.6926	0.59073	0.9534	-0.322
Mof_H 	H 	0.6619	0.5691	0.8968	0.111
Mof_H 	H 	0.7289	0.5796	0.0235	0.11
Mof_N 	N 	0.6266	0.65793	0.822	-0.212
Mof_C 	C 	0.6187	0.70854	0.8035	0.006
Mof_H 	H 	0.5825	0.7206	0.7276	0.003
Mof_C 	C 	0.6624	0.74391	0.8925	-0.001
Mof_C 	C 	0.7216	0.72437	0.0041	0.004
Mof_H 	H 	0.7524	0.7473	0.0661	0.009
Mof_C 	C 	0.6839	0.641	0.9326	0.181
Mof_I 	I 	0.12933	0.06861	0.87316	-0.238
Mof_Ag	Ag	0.86463	0.85305	0.70889	0.516
Mof_N 	N 	0.0613	0.90315	0.8405	-0.204
Mof_N 	N 	0.1894	0.83515	0.9609	-0.322
Mof_H 	H 	0.2646	0.8233	0.0229	0.123
Mof_H 	H 	0.1199	0.8143	0.9125	0.125
Mof_N 	N 	0.2922	0.91756	0.0183	-0.208
Mof_C 	C 	0.1561	0.98917	0.902	0.004
Mof_C 	C 	0.2775	0.96833	0.9987	0.017
Mof_H 	H 	0.3521	0.9906	0.0523	0.007
Mof_C 	C 	0.1804	0.8859	0.9398	0.199
Mof_C 	C 	0.0502	0.9542	0.8236	0.015
Mof_H 	H 	0.9682	0.9669	0.7567	0.001
Mof_I 	I 	0.37997	0.177	0.13893	-0.256
Mof_Ag	Ag	0.49394	0.39178	0.32876	0.542
Mof_N 	N 	0.2643	0.32639	0.9748	-0.207
Mof_N 	N 	0.3074	0.40927	0.0466	-0.322
Mof_H 	H 	0.3381	0.4309	0.1032	0.111
Mof_H 	H 	0.2711	0.4204	0.9765	0.11
Mof_N 	N 	0.3734	0.34207	0.178	-0.212
Mof_C 	C 	0.3813	0.29146	0.1965	0.006
Mof_H 	H 	0.4175	0.2794	0.2724	0.003
Mof_C 	C 	0.3376	0.25609	0.1075	-0.001
Mof_C 	C 	0.2784	0.27563	0.9959	0.004
Mof_H 	H 	0.2476	0.2527	0.9339	0.009
Mof_C 	C 	0.3161	0.359	0.0674	0.181
Mof_I 	I 	0.87067	0.93139	0.12684	-0.238
Mof_Ag	Ag	0.13537	0.14695	0.29111	0.516
Mof_N 	N 	0.9387	0.09685	0.1595	-0.204
Mof_N 	N 	0.8106	0.16485	0.0391	-0.322
Mof_H 	H 	0.7354	0.1767	0.9771	0.123
Mof_H 	H 	0.8801	0.1857	0.0875	0.125
Mof_N 	N 	0.7078	0.08244	0.9817	-0.208
Mof_C 	C 	0.8439	0.01083	0.098	0.004
Mof_C 	C 	0.7225	0.03167	0.0013	0.017
Mof_H 	H 	0.6479	0.0094	0.9477	0.007
Mof_C 	C 	0.8196	0.1141	0.0602	0.199
Mof_C 	C 	0.9498	0.0458	0.1764	0.015
Mof_H 	H 	0.0318	0.0331	0.2433	0.001
Mof_I 	I 	0.87067	0.56861	0.62684	-0.237
Mof_Ag	Ag	0.13537	0.35305	0.79111	0.516
Mof_N 	N 	0.9387	0.40315	0.6595	-0.204
Mof_N 	N 	0.8106	0.33515	0.5391	-0.323
Mof_H 	H 	0.7354	0.3233	0.4771	0.123
Mof_H 	H 	0.8801	0.3143	0.5875	0.125
Mof_N 	N 	0.7078	0.41756	0.4817	-0.208
Mof_C 	C 	0.8439	0.48917	0.598	0.004
Mof_C 	C 	0.7225	0.46833	0.5013	0.016
Mof_H 	H 	0.6479	0.4906	0.4477	0.008
Mof_C 	C 	0.8196	0.3859	0.5602	0.198
Mof_C 	C 	0.9498	0.4542	0.6764	0.014
Mof_H 	H 	0.0318	0.4669	0.7433	0.001
Mof_I 	I 	0.37997	0.323	0.63893	-0.256
Mof_Ag	Ag	0.49394	0.10822	0.82876	0.541
Mof_N 	N 	0.2643	0.17361	0.4748	-0.207
Mof_N 	N 	0.3074	0.09073	0.5466	-0.322
Mof_H 	H 	0.3381	0.0691	0.6032	0.112
Mof_H 	H 	0.2711	0.0796	0.4765	0.11
Mof_N 	N 	0.3734	0.15793	0.678	-0.212
Mof_C 	C 	0.3813	0.20854	0.6965	0.006
Mof_H 	H 	0.4175	0.2206	0.7724	0.003
Mof_C 	C 	0.3376	0.24391	0.6075	-0.002
Mof_C 	C 	0.2784	0.22437	0.4959	0.005
Mof_H 	H 	0.2476	0.2473	0.4339	0.008
Mof_C 	C 	0.3161	0.141	0.5674	0.181
_end
