data_functionalizedCrystal
_audit_creation_method	'EQeq! by Chris Wilmer'
_symmetry_space_group_name_H-M	'P1'
_symmetry_Int_Tables_number	1
_symmetry_cell_setting	triclinic
loop_
_symmetry_equiv_pos_as_xyz
  x,y,z
_cell_length_a	23.995
_cell_length_b	23.995
_cell_length_c	3.9498
_cell_angle_alpha	90
_cell_angle_beta	90
_cell_angle_gamma	90
loop_
_atom_site_label
_atom_site_type_symbol
_atom_site_fract_x
_atom_site_fract_y
_atom_site_fract_z
_atom_site_charge
Mof_O 	O 	0.44664	0.42893	0.5614	-0.333
Mof_N 	N 	0.44706	0.38055	0.7227	-0.055
Mof_C 	C 	0.39812	0.35438	0.7801	0.052
Mof_H 	H 	0.3642	0.3715	0.7133	0.023
Mof_C 	C 	0.39714	0.30305	0.9347	-0.105
Mof_H 	H 	0.3625	0.2847	0.9683	0.061
Mof_C 	C 	0.49496	0.35783	0.8259	0.048
Mof_H 	H 	0.5291	0.3771	0.7906	0.021
Mof_C 	C 	0.49505	0.30651	0.9837	-0.104
Mof_H 	H 	0.5294	0.2906	0.0537	0.063
Mof_C 	C 	0.44581	0.27764	0.0421	0.048
Mof_O 	O 	0.94664	0.92893	0.0614	-0.292
Mof_N 	N 	0.94706	0.88055	0.2227	-0.064
Mof_C 	C 	0.89812	0.85438	0.2801	0.05
Mof_H 	H 	0.8642	0.8715	0.2133	0.022
Mof_C 	C 	0.89714	0.80305	0.4347	-0.097
Mof_H 	H 	0.8625	0.7847	0.4683	0.058
Mof_C 	C 	0.99496	0.85783	0.3259	0.097
Mof_H 	H 	0.0291	0.8771	0.2906	-0.017
Mof_C 	C 	0.99505	0.80651	0.4837	-0.05
Mof_H 	H 	0.0294	0.7906	0.5537	0.022
Mof_C 	C 	0.94581	0.77764	0.5421	0.031
Mof_O 	O 	0.55336	0.57107	0.5614	-0.334
Mof_N 	N 	0.55294	0.61945	0.7227	-0.056
Mof_C 	C 	0.60188	0.64562	0.7801	0.051
Mof_H 	H 	0.6358	0.6285	0.7133	0.023
Mof_C 	C 	0.60286	0.69695	0.9347	-0.105
Mof_H 	H 	0.6375	0.7153	0.9683	0.062
Mof_C 	C 	0.50504	0.64217	0.8259	0.048
Mof_H 	H 	0.4709	0.6229	0.7906	0.021
Mof_C 	C 	0.50495	0.69349	0.9837	-0.103
Mof_H 	H 	0.4706	0.7094	0.0537	0.063
Mof_C 	C 	0.55419	0.72236	0.0421	0.047
Mof_O 	O 	0.05336	0.07107	0.0614	-0.334
Mof_N 	N 	0.05294	0.11945	0.2227	-0.049
Mof_C 	C 	0.10188	0.14562	0.2801	0.049
Mof_H 	H 	0.1358	0.1285	0.2133	0.018
Mof_C 	C 	0.10286	0.19695	0.4347	-0.1
Mof_H 	H 	0.1375	0.2153	0.4683	0.058
Mof_C 	C 	0.00504	0.14217	0.3259	-0
Mof_H 	H 	0.9709	0.1229	0.2906	0.061
Mof_C 	C 	0.00495	0.19349	0.4837	-0.142
Mof_H 	H 	0.9706	0.2094	0.5537	0.1
Mof_C 	C 	0.05419	0.22236	0.5421	0.045
Mof_O 	O 	0.42893	0.55336	0.4386	-0.334
Mof_N 	N 	0.38055	0.55294	0.2773	-0.055
Mof_C 	C 	0.35438	0.60188	0.2199	0.052
Mof_H 	H 	0.3715	0.6358	0.2867	0.023
Mof_C 	C 	0.30305	0.60286	0.0653	-0.105
Mof_H 	H 	0.2847	0.6375	0.0317	0.058
Mof_C 	C 	0.35783	0.50504	0.1741	0.049
Mof_H 	H 	0.3771	0.4709	0.2094	0.022
Mof_C 	C 	0.30651	0.50495	0.0163	-0.102
Mof_H 	H 	0.2906	0.4706	0.9463	0.061
Mof_C 	C 	0.27764	0.55419	0.9579	0.046
Mof_O 	O 	0.92893	0.05336	0.9386	-0.274
Mof_N 	N 	0.88055	0.05294	0.7773	-0.052
Mof_C 	C 	0.85438	0.10188	0.7199	0.058
Mof_H 	H 	0.8715	0.1358	0.7867	0.028
Mof_C 	C 	0.80305	0.10286	0.5653	-0.11
Mof_H 	H 	0.7847	0.1375	0.5317	0.062
Mof_C 	C 	0.85783	0.00504	0.6741	0.01
Mof_H 	H 	0.8771	0.9709	0.7094	0.073
Mof_C 	C 	0.80651	0.00495	0.5163	-0.152
Mof_H 	H 	0.7906	0.9706	0.4463	0.102
Mof_C 	C 	0.77764	0.05419	0.4579	0.058
Mof_O 	O 	0.57107	0.44664	0.4386	-0.334
Mof_N 	N 	0.61945	0.44706	0.2773	-0.055
Mof_C 	C 	0.64562	0.39812	0.2199	0.052
Mof_H 	H 	0.6285	0.3642	0.2867	0.023
Mof_C 	C 	0.69695	0.39714	0.0653	-0.103
Mof_H 	H 	0.7153	0.3625	0.0317	0.057
Mof_C 	C 	0.64217	0.49496	0.1741	0.048
Mof_H 	H 	0.6229	0.5291	0.2094	0.023
Mof_C 	C 	0.69349	0.49505	0.0163	-0.099
Mof_H 	H 	0.7094	0.5294	0.9463	0.06
Mof_C 	C 	0.72236	0.44581	0.9579	0.044
Mof_O 	O 	0.07107	0.94664	0.9386	-0.27
Mof_N 	N 	0.11945	0.94706	0.7773	-0.065
Mof_C 	C 	0.14562	0.89812	0.7199	0.056
Mof_H 	H 	0.1285	0.8642	0.7867	0.025
Mof_C 	C 	0.19695	0.89714	0.5653	-0.106
Mof_H 	H 	0.2153	0.8625	0.5317	0.06
Mof_C 	C 	0.14217	0.99496	0.6741	0.1
Mof_H 	H 	0.1229	0.0291	0.7094	-0.006
Mof_C 	C 	0.19349	0.99505	0.5163	-0.055
Mof_H 	H 	0.2094	0.0294	0.4463	0.022
Mof_C 	C 	0.22236	0.94581	0.4579	0.042
Mof_O 	O 	0.05336	0.42893	0.1886	-0.332
Mof_N 	N 	0.05294	0.38055	0.0273	-0.075
Mof_C 	C 	0.10188	0.35438	0.9699	0.104
Mof_H 	H 	0.1358	0.3715	0.0367	-0.003
Mof_C 	C 	0.10286	0.30305	0.8153	-0.135
Mof_H 	H 	0.1375	0.2847	0.7817	0.073
Mof_C 	C 	0.00504	0.35783	0.9241	0.031
Mof_H 	H 	0.9709	0.3771	0.9594	0.059
Mof_C 	C 	0.00495	0.30651	0.7663	-0.167
Mof_H 	H 	0.9706	0.2906	0.6963	0.108
Mof_C 	C 	0.05419	0.27764	0.7079	0.073
Mof_O 	O 	0.55336	0.92893	0.6886	-0.31
Mof_N 	N 	0.55294	0.88055	0.5273	-0.056
Mof_C 	C 	0.60188	0.85438	0.4699	0.052
Mof_H 	H 	0.6358	0.8715	0.5367	0.026
Mof_C 	C 	0.60286	0.80305	0.3153	-0.103
Mof_H 	H 	0.6375	0.7847	0.2817	0.059
Mof_C 	C 	0.50504	0.85783	0.4241	0.05
Mof_H 	H 	0.4709	0.8771	0.4594	0.025
Mof_C 	C 	0.50495	0.80651	0.2663	-0.1
Mof_H 	H 	0.4706	0.7906	0.1963	0.061
Mof_C 	C 	0.55419	0.77764	0.2079	0.044
Mof_O 	O 	0.94664	0.57107	0.1886	-0.309
Mof_N 	N 	0.94706	0.61945	0.0273	-0.087
Mof_C 	C 	0.89812	0.64562	0.9699	0.1
Mof_H 	H 	0.8642	0.6285	0.0367	-0.001
Mof_C 	C 	0.89714	0.69695	0.8153	-0.129
Mof_H 	H 	0.8625	0.7153	0.7817	0.071
Mof_C 	C 	0.99496	0.64217	0.9241	0.121
Mof_H 	H 	0.0291	0.6229	0.9594	-0.018
Mof_C 	C 	0.99505	0.69349	0.7663	-0.071
Mof_H 	H 	0.0294	0.7094	0.6963	0.029
Mof_C 	C 	0.94581	0.72236	0.7079	0.056
Mof_O 	O 	0.44664	0.07107	0.6886	-0.33
Mof_N 	N 	0.44706	0.11945	0.5273	-0.055
Mof_C 	C 	0.39812	0.14562	0.4699	0.05
Mof_H 	H 	0.3642	0.1285	0.5367	0.023
Mof_C 	C 	0.39714	0.19695	0.3153	-0.102
Mof_H 	H 	0.3625	0.2153	0.2817	0.058
Mof_C 	C 	0.49496	0.14217	0.4241	0.047
Mof_H 	H 	0.5291	0.1229	0.4594	0.024
Mof_C 	C 	0.49505	0.19349	0.2663	-0.098
Mof_H 	H 	0.5294	0.2094	0.1963	0.06
Mof_C 	C 	0.44581	0.22236	0.2079	0.043
Mof_O 	O 	0.07107	0.55336	0.3114	-0.333
Mof_N 	N 	0.11945	0.55294	0.4727	-0.056
Mof_C 	C 	0.14562	0.60188	0.5301	0.052
Mof_H 	H 	0.1285	0.6358	0.4633	0.019
Mof_C 	C 	0.19695	0.60286	0.6847	-0.103
Mof_H 	H 	0.2153	0.6375	0.7183	0.061
Mof_C 	C 	0.14217	0.50504	0.5759	0.049
Mof_H 	H 	0.1229	0.4709	0.5406	0.024
Mof_C 	C 	0.19349	0.50495	0.7337	-0.1
Mof_H 	H 	0.2094	0.4706	0.8037	0.063
Mof_C 	C 	0.22236	0.55419	0.7921	0.046
Mof_O 	O 	0.57107	0.05336	0.8114	-0.333
Mof_N 	N 	0.61945	0.05294	0.9727	-0.035
Mof_C 	C 	0.64562	0.10188	0.0301	0.025
Mof_H 	H 	0.6285	0.1358	0.9633	0.038
Mof_C 	C 	0.69695	0.10286	0.1847	-0.09
Mof_H 	H 	0.7153	0.1375	0.2183	0.053
Mof_C 	C 	0.64217	0.00504	0.0759	-0.011
Mof_H 	H 	0.6229	0.9709	0.0406	0.066
Mof_C 	C 	0.69349	0.00495	0.2337	-0.138
Mof_H 	H 	0.7094	0.9706	0.3037	0.097
Mof_C 	C 	0.72236	0.05419	0.2921	0.041
Mof_O 	O 	0.92893	0.44664	0.3114	-0.313
Mof_N 	N 	0.88055	0.44706	0.4727	-0.057
Mof_C 	C 	0.85438	0.39812	0.5301	0.054
Mof_H 	H 	0.8715	0.3642	0.4633	0.023
Mof_C 	C 	0.80305	0.39714	0.6847	-0.105
Mof_H 	H 	0.7847	0.3625	0.7183	0.062
Mof_C 	C 	0.85783	0.49496	0.5759	0.052
Mof_H 	H 	0.8771	0.5291	0.5406	0.025
Mof_C 	C 	0.80651	0.49505	0.7337	-0.102
Mof_H 	H 	0.7906	0.5294	0.8037	0.064
Mof_C 	C 	0.77764	0.44581	0.7921	0.048
Mof_O 	O 	0.42893	0.94664	0.8114	-0.31
Mof_N 	N 	0.38055	0.94706	0.9727	-0.049
Mof_C 	C 	0.35438	0.89812	0.0301	0.022
Mof_H 	H 	0.3715	0.8642	0.9633	0.039
Mof_C 	C 	0.30305	0.89714	0.1847	-0.085
Mof_H 	H 	0.2847	0.8625	0.2183	0.051
Mof_C 	C 	0.35783	0.99496	0.0759	0.082
Mof_H 	H 	0.3771	0.0291	0.0406	-0.013
Mof_C 	C 	0.30651	0.99505	0.2337	-0.042
Mof_H 	H 	0.2906	0.0294	0.3037	0.018
Mof_C 	C 	0.27764	0.94581	0.2921	0.025
Mof_Sc	Sc	0.5	0.5	0.5	1.79
Mof_Sc	Sc	-0	0	-0	1.567
Mof_Sc	Sc	-5.39471e-34	0.5	0.25	1.713
Mof_Sc	Sc	0.5	0	0.75	1.736
Mof_O 	O 	0.5	0.5	-0	-0.665
Mof_O 	O 	-3.85174e-34	-6.93767e-34	0.5	-0.637
Mof_O 	O 	4.62549e-33	0.5	0.75	-0.659
Mof_O 	O 	0.5	-3.46884e-34	0.25	-0.674
_end
