# CIF file generated by openbabel 3.1.0, see https://openbabel.org
data_I
_chemical_name_common 'image0'
_cell_length_a 39.273
_cell_length_b 27.4978
_cell_length_c 27.3722
_cell_angle_alpha 90
_cell_angle_beta 134.278
_cell_angle_gamma 90
_space_group_name_H-M_alt 'P 1'
_space_group_name_Hall 'P 1'
loop_
    _symmetry_equiv_pos_as_xyz
    x,y,z
loop_
    _atom_site_label
    _atom_site_type_symbol
    _atom_site_fract_x
    _atom_site_fract_y
    _atom_site_fract_z
    _atom_site_occupancy
    C1       C        0.09970    0.69780    0.03110    1.000
    C2       C        0.09930    0.66430    0.07220    1.000
    C3       C        0.14030    0.64400    0.13070    1.000
    H1       H        0.16860    0.64850    0.14210    1.000
    C4       C        0.14030    0.61770    0.17170    1.000
    H2       H        0.17000    0.61000    0.21430    1.000
    C5       C        0.10410    0.60200    0.15890    1.000
    C6       C        0.05540    0.61530    0.08860    1.000
    H3       H        0.02710    0.60240    0.07220    1.000
    C7       C        0.05680    0.65040    0.04880    1.000
    H4       H        0.02860    0.66290    0.00790    1.000
    C8       C        0.09980    0.32890    0.40160    1.000
    C9       C        0.09530    0.37550    0.36510    1.000
    C10      C        0.14210    0.39120    0.39590    1.000
    H5       H        0.17030    0.37930    0.43720    1.000
    C11      C        0.14030    0.42780    0.35490    1.000
    H6       H        0.16820    0.43730    0.36730    1.000
    C12      C        0.09950    0.44710    0.30090    1.000
    C13      C        0.05670    0.42960    0.27910    1.000
    H7       H        0.02800    0.44430    0.24210    1.000
    C14      C        0.05680    0.39450    0.30860    1.000
    H8       H        0.02770    0.38140    0.28890    1.000
    C15      C        0.09490    0.49070    0.26200    1.000
    C16      C        0.11420    0.53110    0.29070    1.000
    H9       H        0.12660    0.53800    0.33380    1.000
    C17      C        0.11630    0.57010    0.24880    1.000
    C18      C        0.09810    0.55990    0.19110    1.000
    C19      C        0.06380    0.51780    0.14860    1.000
    H10      H        0.04690    0.51540    0.10260    1.000
    C20      C        0.05760    0.48050    0.18130    1.000
    C21      C        0.15690    0.63360    0.34230    1.000
    H11      H        0.16070    0.60910    0.37130    1.000
    H12      H        0.13490    0.65760    0.33290    1.000
    C22      C        0.20920    0.66110    0.38830    1.000
    H13      H        0.23480    0.64360    0.42990    1.000
    H14      H        0.20860    0.69460    0.39900    1.000
    C23      C        0.99680    0.44730    0.08130    1.000
    H15      H        0.99570    0.48130    0.07100    1.000
    H16      H        0.99850    0.42830    0.05320    1.000
    C24      C        0.95400    0.43580    0.06240    1.000
    H17      H        0.94260    0.40610    0.03590    1.000
    H18      H        0.96270    0.42740    0.10430    1.000
    C25      C        0.91650    0.46480    0.02840    1.000
    H19      H        0.89630    0.45260    0.03420    1.000
    H20      H        0.89850    0.46250    0.98030    1.000
    C26      C        0.92660    0.52000    0.04880    1.000
    H21      H        0.92980    0.52650    0.08670    1.000
    H22      H        0.95490    0.53120    0.06020    1.000
    C27      C        0.88840    0.53930    0.99270    1.000
    H23      H        0.87360    0.56010    0.00220    1.000
    H24      H        0.86590    0.51400    0.96150    1.000
    C28      C        0.90040    0.56720    0.96230    1.000
    H25      H        0.89690    0.60040    0.97000    1.000
    H26      H        0.93440    0.56220    0.99350    1.000
    C29      C        0.88530    0.57000    0.89730    1.000
    H27      H        0.90330    0.59460    0.89870    1.000
    H28      H        0.85210    0.57810    0.86280    1.000
    H29      H        0.89040    0.53920    0.88680    1.000
    C30      C        0.60350    0.67110    0.50600    1.000
    C31      C        0.60020    0.62500    0.53570    1.000
    C32      C        0.64470    0.61240    0.59930    1.000
    H30      H        0.67240    0.62280    0.61160    1.000
    C33      C        0.64730    0.58310    0.64560    1.000
    H31      H        0.67100    0.58470    0.69290    1.000
    C34      C        0.60580    0.55010    0.60450    1.000
    C35      C        0.55630    0.56780    0.54010    1.000
    H32      H        0.52770    0.55500    0.52250    1.000
    C36      C        0.56150    0.60660    0.51210    1.000
    H33      H        0.53350    0.62020    0.47210    1.000
    C37      C        0.59920    0.30170    0.87380    1.000
    C38      C        0.60110    0.33790    0.83020    1.000
    C39      C        0.55710    0.35070    0.76740    1.000
    H34      H        0.52880    0.33700    0.74980    1.000
    C40      C        0.55910    0.38660    0.73220    1.000
    H35      H        0.53110    0.40100    0.69320    1.000
    C41      C        0.60190    0.40040    0.75480    1.000
    C42      C        0.64260    0.38050    0.81680    1.000
    H36      H        0.67200    0.38950    0.83360    1.000
    C43      C        0.64190    0.35190    0.85050    1.000
    H37      H        0.67050    0.33970    0.89110    1.000
    C44      C        0.60650    0.44040    0.71560    1.000
    C45      C        0.57650    0.43540    0.64990    1.000
    H38      H        0.55250    0.41220    0.62540    1.000
    C46      C        0.58480    0.47130    0.61760    1.000
    C47      C        0.60060    0.50880    0.63890    1.000
    C48      C        0.64290    0.51040    0.72070    1.000
    H39      H        0.66490    0.53540    0.73880    1.000
    C49      C        0.65120    0.47810    0.76960    1.000
    C50      C        0.55360    0.41770    0.53260    1.000
    H40      H        0.56340    0.39980    0.57120    1.000
    H41      H        0.51920    0.41880    0.49960    1.000
    C51      C        0.56430    0.37990    0.49830    1.000
    H42      H        0.58970    0.39230    0.50320    1.000
    H43      H        0.57390    0.34850    0.52060    1.000
    C52      C        0.94880    0.76030    0.84000    1.000
    H44      H        0.96490    0.76710    0.88500    1.000
    C53      C        0.89890    0.76190    0.78950    1.000
    H45      H        0.88280    0.77040    0.80180    1.000
    C54      C        0.87660    0.75270    0.73130    1.000
    C55      C        0.90100    0.72130    0.71910    1.000
    H46      H        0.88430    0.70220    0.68020    1.000
    C56      C        0.94920    0.72260    0.76870    1.000
    H47      H        0.96680    0.70480    0.76370    1.000
    C57      C        0.74700    0.74690    0.64210    1.000
    H48      H        0.73110    0.74070    0.65530    1.000
    C58      C        0.79630    0.75000    0.68980    1.000
    H49      H        0.81120    0.75480    0.73470    1.000
    C59      C        0.82640    0.74700    0.67990    1.000
    C60      C        0.74580    0.75000    0.56110    1.000
    H50      H        0.73020    0.74740    0.51560    1.000
    C61      C        0.79510    0.75000    0.61160    1.000
    H51      H        0.80920    0.75260    0.59510    1.000
    N1       N        0.97200    0.75010    0.82610    1.000
    O1       O        0.13670    0.70960    0.04880    1.000
    O2       O        0.05950    0.71550    0.97480    1.000
    O3       O        0.13830    0.30720    0.44660    1.000
    O4       O        0.05800    0.31190    0.37230    1.000
    O5       O        0.13460    0.61110    0.28060    1.000
    O6       O        0.03930    0.43910    0.15120    1.000
    O7       O        0.64200    0.69310    0.53980    1.000
    O8       O        0.55990    0.68519    0.44960    1.000
    O9       O        0.64210    0.29320    0.93590    1.000
    O10      O        0.56011    0.28950    0.85040    1.000
    O11      O        0.56310    0.45110    0.54930    1.000
    Zn1      Zn       0.04693    0.75113    0.89921    1.000
    Zn2      Zn       0.15084    0.74762    0.00314    1.000
    N2       N        0.72280    0.75330    0.57500    1.000
    N3       N        0.75450    0.74622    0.60830    1.000
    C62      C        0.59970    0.19780    0.03110    1.000
    C63      C        0.59930    0.16430    0.07220    1.000
    C64      C        0.64030    0.14400    0.13070    1.000
    H52      H        0.66860    0.14850    0.14210    1.000
    C65      C        0.64030    0.11770    0.17170    1.000
    H53      H        0.67000    0.11000    0.21430    1.000
    C66      C        0.60410    0.10200    0.15890    1.000
    C67      C        0.55540    0.11530    0.08860    1.000
    H54      H        0.52710    0.10240    0.07220    1.000
    C68      C        0.55680    0.15040    0.04880    1.000
    H55      H        0.52860    0.16290    0.00790    1.000
    C69      C        0.59980    0.82890    0.40160    1.000
    C70      C        0.59530    0.87550    0.36510    1.000
    C71      C        0.64210    0.89120    0.39590    1.000
    H56      H        0.67030    0.87930    0.43720    1.000
    C72      C        0.64030    0.92780    0.35490    1.000
    H57      H        0.66820    0.93730    0.36730    1.000
    C73      C        0.59950    0.94710    0.30090    1.000
    C74      C        0.55670    0.92960    0.27910    1.000
    H58      H        0.52800    0.94430    0.24210    1.000
    C75      C        0.55680    0.89450    0.30860    1.000
    H59      H        0.52770    0.88140    0.28890    1.000
    C76      C        0.59490    0.99070    0.26200    1.000
    C77      C        0.61420    0.03110    0.29070    1.000
    H60      H        0.62660    0.03800    0.33380    1.000
    C78      C        0.61630    0.07010    0.24880    1.000
    C79      C        0.59810    0.05990    0.19110    1.000
    C80      C        0.56380    0.01780    0.14860    1.000
    H61      H        0.54690    0.01540    0.10260    1.000
    C81      C        0.55760    0.98050    0.18130    1.000
    C82      C        0.65690    0.13360    0.34230    1.000
    H62      H        0.66070    0.10910    0.37130    1.000
    H63      H        0.63490    0.15760    0.33290    1.000
    C83      C        0.70920    0.16110    0.38830    1.000
    H64      H        0.73480    0.14360    0.42990    1.000
    H65      H        0.70860    0.19460    0.39900    1.000
    C84      C        0.49680    0.94730    0.08130    1.000
    H66      H        0.49570    0.98130    0.07100    1.000
    H67      H        0.49850    0.92830    0.05320    1.000
    C85      C        0.45400    0.93580    0.06240    1.000
    H68      H        0.44260    0.90610    0.03590    1.000
    H69      H        0.46270    0.92740    0.10430    1.000
    C86      C        0.41650    0.96480    0.02840    1.000
    H70      H        0.39630    0.95260    0.03420    1.000
    H71      H        0.39850    0.96250    0.98030    1.000
    C87      C        0.42660    0.02000    0.04880    1.000
    H72      H        0.42980    0.02650    0.08670    1.000
    H73      H        0.45490    0.03120    0.06020    1.000
    C88      C        0.38840    0.03930    0.99270    1.000
    H74      H        0.37360    0.06010    0.00220    1.000
    H75      H        0.36590    0.01400    0.96150    1.000
    C89      C        0.40040    0.06720    0.96230    1.000
    H76      H        0.39690    0.10040    0.97000    1.000
    H77      H        0.43440    0.06220    0.99350    1.000
    C90      C        0.38530    0.07000    0.89730    1.000
    H78      H        0.40330    0.09460    0.89870    1.000
    H79      H        0.35210    0.07810    0.86280    1.000
    H80      H        0.39040    0.03920    0.88680    1.000
    C91      C        0.10350    0.17110    0.50600    1.000
    C92      C        0.10020    0.12500    0.53570    1.000
    C93      C        0.14470    0.11240    0.59930    1.000
    H81      H        0.17240    0.12280    0.61160    1.000
    C94      C        0.14730    0.08310    0.64560    1.000
    H82      H        0.17100    0.08470    0.69290    1.000
    C95      C        0.10580    0.05010    0.60450    1.000
    C96      C        0.05630    0.06780    0.54010    1.000
    H83      H        0.02770    0.05500    0.52250    1.000
    C97      C        0.06150    0.10660    0.51210    1.000
    H84      H        0.03350    0.12020    0.47210    1.000
    C98      C        0.09920    0.80170    0.87380    1.000
    C99      C        0.10110    0.83790    0.83020    1.000
    C100     C        0.05710    0.85070    0.76740    1.000
    H85      H        0.02880    0.83700    0.74980    1.000
    C101     C        0.05910    0.88660    0.73220    1.000
    H86      H        0.03110    0.90100    0.69320    1.000
    C102     C        0.10190    0.90040    0.75480    1.000
    C103     C        0.14260    0.88050    0.81680    1.000
    H87      H        0.17200    0.88950    0.83360    1.000
    C104     C        0.14190    0.85190    0.85050    1.000
    H88      H        0.17050    0.83970    0.89110    1.000
    C105     C        0.10650    0.94040    0.71560    1.000
    C106     C        0.07650    0.93540    0.64990    1.000
    H89      H        0.05250    0.91220    0.62540    1.000
    C107     C        0.08480    0.97130    0.61760    1.000
    C108     C        0.10060    0.00880    0.63890    1.000
    C109     C        0.14290    0.01040    0.72070    1.000
    H90      H        0.16490    0.03540    0.73880    1.000
    C110     C        0.15120    0.97810    0.76960    1.000
    C111     C        0.05360    0.91770    0.53260    1.000
    H91      H        0.06340    0.89980    0.57120    1.000
    H92      H        0.01920    0.91880    0.49960    1.000
    C112     C        0.06430    0.87990    0.49830    1.000
    H93      H        0.08970    0.89230    0.50320    1.000
    H94      H        0.07390    0.84850    0.52060    1.000
    C113     C        0.44880    0.26030    0.84000    1.000
    H95      H        0.46490    0.26710    0.88500    1.000
    C114     C        0.39890    0.26190    0.78950    1.000
    H96      H        0.38280    0.27040    0.80180    1.000
    C115     C        0.37660    0.25270    0.73130    1.000
    C116     C        0.40100    0.22130    0.71910    1.000
    H97      H        0.38430    0.20220    0.68020    1.000
    C117     C        0.44920    0.22260    0.76870    1.000
    H98      H        0.46680    0.20480    0.76370    1.000
    C118     C        0.24700    0.24690    0.64210    1.000
    H99      H        0.23110    0.24070    0.65530    1.000
    C119     C        0.29630    0.25000    0.68980    1.000
    H100     H        0.31120    0.25480    0.73470    1.000
    C120     C        0.32640    0.24700    0.67990    1.000
    C121     C        0.24580    0.25000    0.56110    1.000
    H101     H        0.23020    0.24740    0.51560    1.000
    C122     C        0.29510    0.25000    0.61160    1.000
    H102     H        0.30920    0.25260    0.59510    1.000
    N4       N        0.47200    0.25010    0.82610    1.000
    O12      O        0.63670    0.20960    0.04880    1.000
    O13      O        0.55950    0.21550    0.97480    1.000
    O14      O        0.63830    0.80720    0.44660    1.000
    O15      O        0.55800    0.81190    0.37230    1.000
    O16      O        0.63460    0.11110    0.28060    1.000
    O17      O        0.53930    0.93910    0.15120    1.000
    O18      O        0.14200    0.19310    0.53980    1.000
    O19      O        0.05990    0.18519    0.44960    1.000
    O20      O        0.14210    0.79320    0.93590    1.000
    O21      O        0.06011    0.78950    0.85040    1.000
    O22      O        0.06310    0.95110    0.54930    1.000
    Zn3      Zn       0.54693    0.25113    0.89921    1.000
    Zn4      Zn       0.65084    0.24762    0.00314    1.000
    N5       N        0.22280    0.25330    0.57500    1.000
    N6       N        0.25450    0.24622    0.60830    1.000
    C123     C        0.09970    0.30220    0.53110    1.000
    C124     C        0.09930    0.33570    0.57220    1.000
    C125     C        0.14030    0.35600    0.63070    1.000
    H103     H        0.16860    0.35150    0.64210    1.000
    C126     C        0.14030    0.38230    0.67170    1.000
    H104     H        0.17000    0.39000    0.71430    1.000
    C127     C        0.10410    0.39800    0.65890    1.000
    C128     C        0.05540    0.38470    0.58860    1.000
    H105     H        0.02710    0.39760    0.57220    1.000
    C129     C        0.05680    0.34960    0.54880    1.000
    H106     H        0.02860    0.33710    0.50790    1.000
    C130     C        0.09980    0.67110    0.90160    1.000
    C131     C        0.09530    0.62450    0.86510    1.000
    C132     C        0.14210    0.60880    0.89590    1.000
    H107     H        0.17030    0.62070    0.93720    1.000
    C133     C        0.14030    0.57220    0.85490    1.000
    H108     H        0.16820    0.56270    0.86730    1.000
    C134     C        0.09950    0.55290    0.80090    1.000
    C135     C        0.05670    0.57040    0.77910    1.000
    H109     H        0.02800    0.55570    0.74210    1.000
    C136     C        0.05680    0.60550    0.80860    1.000
    H110     H        0.02770    0.61860    0.78890    1.000
    C137     C        0.09490    0.50930    0.76200    1.000
    C138     C        0.11420    0.46890    0.79070    1.000
    H111     H        0.12660    0.46200    0.83380    1.000
    C139     C        0.11630    0.42990    0.74880    1.000
    C140     C        0.09810    0.44010    0.69110    1.000
    C141     C        0.06380    0.48220    0.64860    1.000
    H112     H        0.04690    0.48460    0.60260    1.000
    C142     C        0.05760    0.51950    0.68130    1.000
    C143     C        0.15690    0.36640    0.84230    1.000
    H113     H        0.16070    0.39090    0.87130    1.000
    H114     H        0.13490    0.34240    0.83290    1.000
    C144     C        0.20920    0.33890    0.88830    1.000
    H115     H        0.23480    0.35640    0.92990    1.000
    H116     H        0.20860    0.30540    0.89900    1.000
    C145     C        0.99680    0.55270    0.58130    1.000
    H117     H        0.99570    0.51870    0.57100    1.000
    H118     H        0.99850    0.57170    0.55320    1.000
    C146     C        0.95400    0.56420    0.56240    1.000
    H119     H        0.94260    0.59390    0.53590    1.000
    H120     H        0.96270    0.57260    0.60430    1.000
    C147     C        0.91650    0.53520    0.52840    1.000
    H121     H        0.89630    0.54740    0.53420    1.000
    H122     H        0.89850    0.53750    0.48030    1.000
    C148     C        0.92660    0.48000    0.54880    1.000
    H123     H        0.92980    0.47350    0.58670    1.000
    H124     H        0.95490    0.46880    0.56020    1.000
    C149     C        0.88840    0.46070    0.49270    1.000
    H125     H        0.87360    0.43990    0.50220    1.000
    H126     H        0.86590    0.48600    0.46150    1.000
    C150     C        0.90040    0.43280    0.46230    1.000
    H127     H        0.89690    0.39960    0.47000    1.000
    H128     H        0.93440    0.43780    0.49350    1.000
    C151     C        0.88530    0.43000    0.39730    1.000
    H129     H        0.90330    0.40540    0.39870    1.000
    H130     H        0.85210    0.42190    0.36280    1.000
    H131     H        0.89040    0.46080    0.38680    1.000
    C152     C        0.60350    0.32890    0.00600    1.000
    C153     C        0.60020    0.37500    0.03570    1.000
    C154     C        0.64470    0.38760    0.09930    1.000
    H132     H        0.67240    0.37720    0.11160    1.000
    C155     C        0.64730    0.41690    0.14560    1.000
    H133     H        0.67100    0.41530    0.19290    1.000
    C156     C        0.60580    0.44990    0.10450    1.000
    C157     C        0.55630    0.43220    0.04010    1.000
    H134     H        0.52770    0.44500    0.02250    1.000
    C158     C        0.56150    0.39340    0.01210    1.000
    H135     H        0.53350    0.37980    0.97210    1.000
    C159     C        0.59920    0.69830    0.37380    1.000
    C160     C        0.60110    0.66210    0.33020    1.000
    C161     C        0.55710    0.64930    0.26740    1.000
    H136     H        0.52880    0.66300    0.24980    1.000
    C162     C        0.55910    0.61340    0.23220    1.000
    H137     H        0.53110    0.59900    0.19320    1.000
    C163     C        0.60190    0.59960    0.25480    1.000
    C164     C        0.64260    0.61950    0.31680    1.000
    H138     H        0.67200    0.61050    0.33360    1.000
    C165     C        0.64190    0.64810    0.35050    1.000
    H139     H        0.67050    0.66030    0.39110    1.000
    C166     C        0.60650    0.55960    0.21560    1.000
    C167     C        0.57650    0.56460    0.14990    1.000
    H140     H        0.55250    0.58780    0.12540    1.000
    C168     C        0.58480    0.52870    0.11760    1.000
    C169     C        0.60060    0.49120    0.13890    1.000
    C170     C        0.64290    0.48960    0.22070    1.000
    H141     H        0.66490    0.46460    0.23880    1.000
    C171     C        0.65120    0.52190    0.26960    1.000
    C172     C        0.55360    0.58230    0.03260    1.000
    H142     H        0.56340    0.60020    0.07120    1.000
    H143     H        0.51920    0.58120    0.99960    1.000
    C173     C        0.56430    0.62010    0.99830    1.000
    H144     H        0.58970    0.60770    0.00320    1.000
    H145     H        0.57390    0.65150    0.02060    1.000
    C174     C        0.94880    0.23970    0.34000    1.000
    H146     H        0.96490    0.23290    0.38500    1.000
    C175     C        0.89890    0.23810    0.28950    1.000
    H147     H        0.88280    0.22960    0.30180    1.000
    C176     C        0.87660    0.24730    0.23130    1.000
    C177     C        0.90100    0.27870    0.21910    1.000
    H148     H        0.88430    0.29780    0.18020    1.000
    C178     C        0.94920    0.27740    0.26870    1.000
    H149     H        0.96680    0.29520    0.26370    1.000
    C179     C        0.74700    0.25310    0.14210    1.000
    H150     H        0.73110    0.25930    0.15530    1.000
    C180     C        0.79630    0.25000    0.18980    1.000
    H151     H        0.81120    0.24520    0.23470    1.000
    C181     C        0.82640    0.25300    0.17990    1.000
    C182     C        0.74580    0.25000    0.06110    1.000
    H152     H        0.73020    0.25260    0.01560    1.000
    C183     C        0.79510    0.25000    0.11160    1.000
    H153     H        0.80920    0.24740    0.09510    1.000
    N7       N        0.97200    0.24990    0.32610    1.000
    O23      O        0.13670    0.29040    0.54880    1.000
    O24      O        0.05950    0.28450    0.47480    1.000
    O25      O        0.13830    0.69280    0.94660    1.000
    O26      O        0.05800    0.68810    0.87230    1.000
    O27      O        0.13460    0.38890    0.78060    1.000
    O28      O        0.03930    0.56090    0.65120    1.000
    O29      O        0.64200    0.30690    0.03980    1.000
    O30      O        0.55990    0.31481    0.94960    1.000
    O31      O        0.64210    0.70680    0.43590    1.000
    O32      O        0.56011    0.71050    0.35040    1.000
    O33      O        0.56310    0.54890    0.04930    1.000
    Zn5      Zn       0.04693    0.24887    0.39921    1.000
    Zn6      Zn       0.15084    0.25238    0.50314    1.000
    N8       N        0.72280    0.24670    0.07500    1.000
    N9       N        0.75450    0.25378    0.10830    1.000
    C184     C        0.59970    0.80220    0.53110    1.000
    C185     C        0.59930    0.83570    0.57220    1.000
    C186     C        0.64030    0.85600    0.63070    1.000
    H154     H        0.66860    0.85150    0.64210    1.000
    C187     C        0.64030    0.88230    0.67170    1.000
    H155     H        0.67000    0.89000    0.71430    1.000
    C188     C        0.60410    0.89800    0.65890    1.000
    C189     C        0.55540    0.88470    0.58860    1.000
    H156     H        0.52710    0.89760    0.57220    1.000
    C190     C        0.55680    0.84960    0.54880    1.000
    H157     H        0.52860    0.83710    0.50790    1.000
    C191     C        0.59980    0.17110    0.90160    1.000
    C192     C        0.59530    0.12450    0.86510    1.000
    C193     C        0.64210    0.10880    0.89590    1.000
    H158     H        0.67030    0.12070    0.93720    1.000
    C194     C        0.64030    0.07220    0.85490    1.000
    H159     H        0.66820    0.06270    0.86730    1.000
    C195     C        0.59950    0.05290    0.80090    1.000
    C196     C        0.55670    0.07040    0.77910    1.000
    H160     H        0.52800    0.05570    0.74210    1.000
    C197     C        0.55680    0.10550    0.80860    1.000
    H161     H        0.52770    0.11860    0.78890    1.000
    C198     C        0.59490    0.00930    0.76200    1.000
    C199     C        0.61420    0.96890    0.79070    1.000
    H162     H        0.62660    0.96200    0.83380    1.000
    C200     C        0.61630    0.92990    0.74880    1.000
    C201     C        0.59810    0.94010    0.69110    1.000
    C202     C        0.56380    0.98220    0.64860    1.000
    H163     H        0.54690    0.98460    0.60260    1.000
    C203     C        0.55760    0.01950    0.68130    1.000
    C204     C        0.65690    0.86640    0.84230    1.000
    H164     H        0.66070    0.89090    0.87130    1.000
    H165     H        0.63490    0.84240    0.83290    1.000
    C205     C        0.70920    0.83890    0.88830    1.000
    H166     H        0.73480    0.85640    0.92990    1.000
    H167     H        0.70860    0.80540    0.89900    1.000
    C206     C        0.49680    0.05270    0.58130    1.000
    H168     H        0.49570    0.01870    0.57100    1.000
    H169     H        0.49850    0.07170    0.55320    1.000
    C207     C        0.45400    0.06420    0.56240    1.000
    H170     H        0.44260    0.09390    0.53590    1.000
    H171     H        0.46270    0.07260    0.60430    1.000
    C208     C        0.41650    0.03520    0.52840    1.000
    H172     H        0.39630    0.04740    0.53420    1.000
    H173     H        0.39850    0.03750    0.48030    1.000
    C209     C        0.42660    0.98000    0.54880    1.000
    H174     H        0.42980    0.97350    0.58670    1.000
    H175     H        0.45490    0.96880    0.56020    1.000
    C210     C        0.38840    0.96070    0.49270    1.000
    H176     H        0.37360    0.93990    0.50220    1.000
    H177     H        0.36590    0.98600    0.46150    1.000
    C211     C        0.40040    0.93280    0.46230    1.000
    H178     H        0.39690    0.89960    0.47000    1.000
    H179     H        0.43440    0.93780    0.49350    1.000
    C212     C        0.38530    0.93000    0.39730    1.000
    H180     H        0.40330    0.90540    0.39870    1.000
    H181     H        0.35210    0.92190    0.36280    1.000
    H182     H        0.39040    0.96080    0.38680    1.000
    C213     C        0.10350    0.82890    0.00600    1.000
    C214     C        0.10020    0.87500    0.03570    1.000
    C215     C        0.14470    0.88760    0.09930    1.000
    H183     H        0.17240    0.87720    0.11160    1.000
    C216     C        0.14730    0.91690    0.14560    1.000
    H184     H        0.17100    0.91530    0.19290    1.000
    C217     C        0.10580    0.94990    0.10450    1.000
    C218     C        0.05630    0.93220    0.04010    1.000
    H185     H        0.02770    0.94500    0.02250    1.000
    C219     C        0.06150    0.89340    0.01210    1.000
    H186     H        0.03350    0.87980    0.97210    1.000
    C220     C        0.09920    0.19830    0.37380    1.000
    C221     C        0.10110    0.16210    0.33020    1.000
    C222     C        0.05710    0.14930    0.26740    1.000
    H187     H        0.02880    0.16300    0.24980    1.000
    C223     C        0.05910    0.11340    0.23220    1.000
    H188     H        0.03110    0.09900    0.19320    1.000
    C224     C        0.10190    0.09960    0.25480    1.000
    C225     C        0.14260    0.11950    0.31680    1.000
    H189     H        0.17200    0.11050    0.33360    1.000
    C226     C        0.14190    0.14810    0.35050    1.000
    H190     H        0.17050    0.16030    0.39110    1.000
    C227     C        0.10650    0.05960    0.21560    1.000
    C228     C        0.07650    0.06460    0.14990    1.000
    H191     H        0.05250    0.08780    0.12540    1.000
    C229     C        0.08480    0.02870    0.11760    1.000
    C230     C        0.10060    0.99120    0.13890    1.000
    C231     C        0.14290    0.98960    0.22070    1.000
    H192     H        0.16490    0.96460    0.23880    1.000
    C232     C        0.15120    0.02190    0.26960    1.000
    C233     C        0.05360    0.08230    0.03260    1.000
    H193     H        0.06340    0.10020    0.07120    1.000
    H194     H        0.01920    0.08120    0.99960    1.000
    C234     C        0.06430    0.12010    0.99830    1.000
    H195     H        0.08970    0.10770    0.00320    1.000
    H196     H        0.07390    0.15150    0.02060    1.000
    C235     C        0.44880    0.73970    0.34000    1.000
    H197     H        0.46490    0.73290    0.38500    1.000
    C236     C        0.39890    0.73810    0.28950    1.000
    H198     H        0.38280    0.72960    0.30180    1.000
    C237     C        0.37660    0.74730    0.23130    1.000
    C238     C        0.40100    0.77870    0.21910    1.000
    H199     H        0.38430    0.79780    0.18020    1.000
    C239     C        0.44920    0.77740    0.26870    1.000
    H200     H        0.46680    0.79520    0.26370    1.000
    C240     C        0.24700    0.75310    0.14210    1.000
    H201     H        0.23110    0.75930    0.15530    1.000
    C241     C        0.29630    0.75000    0.18980    1.000
    H202     H        0.31120    0.74520    0.23470    1.000
    C242     C        0.32640    0.75300    0.17990    1.000
    C243     C        0.24580    0.75000    0.06110    1.000
    H203     H        0.23020    0.75260    0.01560    1.000
    C244     C        0.29510    0.75000    0.11160    1.000
    H204     H        0.30920    0.74740    0.09510    1.000
    N10      N        0.47200    0.74990    0.32610    1.000
    O34      O        0.63670    0.79040    0.54880    1.000
    O35      O        0.55950    0.78450    0.47480    1.000
    O36      O        0.63830    0.19280    0.94660    1.000
    O37      O        0.55800    0.18810    0.87230    1.000
    O38      O        0.63460    0.88890    0.78060    1.000
    O39      O        0.53930    0.06090    0.65120    1.000
    O40      O        0.14200    0.80690    0.03980    1.000
    O41      O        0.05990    0.81481    0.94960    1.000
    O42      O        0.14210    0.20680    0.43590    1.000
    O43      O        0.06011    0.21050    0.35040    1.000
    O44      O        0.06310    0.04890    0.04930    1.000
    Zn7      Zn       0.54693    0.74887    0.39921    1.000
    Zn8      Zn       0.65084    0.75238    0.50314    1.000
    N11      N        0.22280    0.74670    0.07500    1.000
    N12      N        0.25450    0.75378    0.10830    1.000
    C245     C        0.90030    0.69780    0.46890    1.000
    C246     C        0.90070    0.66430    0.42780    1.000
    C247     C        0.85970    0.64400    0.36930    1.000
    H205     H        0.83140    0.64850    0.35790    1.000
    C248     C        0.85970    0.61770    0.32830    1.000
    H206     H        0.83000    0.61000    0.28570    1.000
    C249     C        0.89590    0.60200    0.34110    1.000
    C250     C        0.94460    0.61530    0.41140    1.000
    H207     H        0.97290    0.60240    0.42780    1.000
    C251     C        0.94320    0.65040    0.45120    1.000
    H208     H        0.97140    0.66290    0.49210    1.000
    C252     C        0.90020    0.32890    0.09840    1.000
    C253     C        0.90470    0.37550    0.13490    1.000
    C254     C        0.85790    0.39120    0.10410    1.000
    H209     H        0.82970    0.37930    0.06280    1.000
    C255     C        0.85970    0.42780    0.14510    1.000
    H210     H        0.83180    0.43730    0.13270    1.000
    C256     C        0.90050    0.44710    0.19910    1.000
    C257     C        0.94330    0.42960    0.22090    1.000
    H211     H        0.97200    0.44430    0.25790    1.000
    C258     C        0.94320    0.39450    0.19140    1.000
    H212     H        0.97230    0.38140    0.21110    1.000
    C259     C        0.90510    0.49070    0.23800    1.000
    C260     C        0.88580    0.53110    0.20930    1.000
    H213     H        0.87340    0.53800    0.16620    1.000
    C261     C        0.88370    0.57010    0.25120    1.000
    C262     C        0.90190    0.55990    0.30890    1.000
    C263     C        0.93620    0.51780    0.35140    1.000
    H214     H        0.95310    0.51540    0.39740    1.000
    C264     C        0.94240    0.48050    0.31870    1.000
    C265     C        0.84310    0.63360    0.15770    1.000
    H215     H        0.83930    0.60910    0.12870    1.000
    H216     H        0.86510    0.65760    0.16710    1.000
    C266     C        0.79080    0.66110    0.11170    1.000
    H217     H        0.76520    0.64360    0.07010    1.000
    H218     H        0.79140    0.69460    0.10100    1.000
    C267     C        0.00320    0.44730    0.41870    1.000
    H219     H        0.00430    0.48130    0.42900    1.000
    H220     H        0.00150    0.42830    0.44680    1.000
    C268     C        0.04600    0.43580    0.43760    1.000
    H221     H        0.05740    0.40610    0.46410    1.000
    H222     H        0.03730    0.42740    0.39570    1.000
    C269     C        0.08350    0.46480    0.47160    1.000
    H223     H        0.10370    0.45260    0.46580    1.000
    H224     H        0.10150    0.46250    0.51970    1.000
    C270     C        0.07340    0.52000    0.45120    1.000
    H225     H        0.07020    0.52650    0.41330    1.000
    H226     H        0.04510    0.53120    0.43980    1.000
    C271     C        0.11160    0.53930    0.50730    1.000
    H227     H        0.12640    0.56010    0.49780    1.000
    H228     H        0.13410    0.51400    0.53850    1.000
    C272     C        0.09960    0.56720    0.53770    1.000
    H229     H        0.10310    0.60040    0.53000    1.000
    H230     H        0.06560    0.56220    0.50650    1.000
    C273     C        0.11470    0.57000    0.60270    1.000
    H231     H        0.09670    0.59460    0.60130    1.000
    H232     H        0.14790    0.57810    0.63720    1.000
    H233     H        0.10960    0.53920    0.61320    1.000
    C274     C        0.39650    0.67110    0.99400    1.000
    C275     C        0.39980    0.62500    0.96430    1.000
    C276     C        0.35530    0.61240    0.90070    1.000
    H234     H        0.32760    0.62280    0.88840    1.000
    C277     C        0.35270    0.58310    0.85440    1.000
    H235     H        0.32900    0.58470    0.80710    1.000
    C278     C        0.39420    0.55010    0.89550    1.000
    C279     C        0.44370    0.56780    0.95990    1.000
    H236     H        0.47230    0.55500    0.97750    1.000
    C280     C        0.43850    0.60660    0.98790    1.000
    H237     H        0.46650    0.62020    0.02790    1.000
    C281     C        0.40080    0.30170    0.62620    1.000
    C282     C        0.39890    0.33790    0.66980    1.000
    C283     C        0.44290    0.35070    0.73260    1.000
    H238     H        0.47120    0.33700    0.75020    1.000
    C284     C        0.44090    0.38660    0.76780    1.000
    H239     H        0.46890    0.40100    0.80680    1.000
    C285     C        0.39810    0.40040    0.74520    1.000
    C286     C        0.35740    0.38050    0.68320    1.000
    H240     H        0.32800    0.38950    0.66640    1.000
    C287     C        0.35810    0.35190    0.64950    1.000
    H241     H        0.32950    0.33970    0.60890    1.000
    C288     C        0.39350    0.44040    0.78440    1.000
    C289     C        0.42350    0.43540    0.85010    1.000
    H242     H        0.44750    0.41220    0.87460    1.000
    C290     C        0.41520    0.47130    0.88240    1.000
    C291     C        0.39940    0.50880    0.86110    1.000
    C292     C        0.35710    0.51040    0.77930    1.000
    H243     H        0.33510    0.53540    0.76120    1.000
    C293     C        0.34880    0.47810    0.73040    1.000
    C294     C        0.44640    0.41770    0.96740    1.000
    H244     H        0.43660    0.39980    0.92880    1.000
    H245     H        0.48080    0.41880    0.00040    1.000
    C295     C        0.43570    0.37990    0.00170    1.000
    H246     H        0.41030    0.39230    0.99680    1.000
    H247     H        0.42610    0.34850    0.97940    1.000
    C296     C        0.05120    0.76030    0.66000    1.000
    H248     H        0.03510    0.76710    0.61500    1.000
    C297     C        0.10110    0.76190    0.71050    1.000
    H249     H        0.11720    0.77040    0.69820    1.000
    C298     C        0.12340    0.75270    0.76870    1.000
    C299     C        0.09900    0.72130    0.78090    1.000
    H250     H        0.11570    0.70220    0.81980    1.000
    C300     C        0.05080    0.72260    0.73130    1.000
    H251     H        0.03320    0.70480    0.73630    1.000
    C301     C        0.25300    0.74690    0.85790    1.000
    H252     H        0.26890    0.74070    0.84470    1.000
    C302     C        0.20370    0.75000    0.81020    1.000
    H253     H        0.18880    0.75480    0.76530    1.000
    C303     C        0.17360    0.74700    0.82010    1.000
    C304     C        0.25420    0.75000    0.93890    1.000
    H254     H        0.26980    0.74740    0.98440    1.000
    C305     C        0.20490    0.75000    0.88840    1.000
    H255     H        0.19080    0.75260    0.90490    1.000
    N13      N        0.02800    0.75010    0.67390    1.000
    O45      O        0.86330    0.70960    0.45120    1.000
    O46      O        0.94050    0.71550    0.52520    1.000
    O47      O        0.86170    0.30720    0.05340    1.000
    O48      O        0.94200    0.31190    0.12770    1.000
    O49      O        0.86540    0.61110    0.21940    1.000
    O50      O        0.96070    0.43910    0.34880    1.000
    O51      O        0.35800    0.69310    0.96020    1.000
    O52      O        0.44010    0.68519    0.05040    1.000
    O53      O        0.35790    0.29320    0.56410    1.000
    O54      O        0.43989    0.28950    0.64960    1.000
    O55      O        0.43690    0.45110    0.95070    1.000
    Zn9      Zn       0.95307    0.75113    0.60079    1.000
    Zn10     Zn       0.84915    0.74762    0.49686    1.000
    N14      N        0.27720    0.75330    0.92500    1.000
    N15      N        0.24550    0.74622    0.89170    1.000
    C306     C        0.40030    0.19780    0.46890    1.000
    C307     C        0.40070    0.16430    0.42780    1.000
    C308     C        0.35970    0.14400    0.36930    1.000
    H256     H        0.33140    0.14850    0.35790    1.000
    C309     C        0.35970    0.11770    0.32830    1.000
    H257     H        0.33000    0.11000    0.28570    1.000
    C310     C        0.39590    0.10200    0.34110    1.000
    C311     C        0.44460    0.11530    0.41140    1.000
    H258     H        0.47290    0.10240    0.42780    1.000
    C312     C        0.44320    0.15040    0.45120    1.000
    H259     H        0.47140    0.16290    0.49210    1.000
    C313     C        0.40020    0.82890    0.09840    1.000
    C314     C        0.40470    0.87550    0.13490    1.000
    C315     C        0.35790    0.89120    0.10410    1.000
    H260     H        0.32970    0.87930    0.06280    1.000
    C316     C        0.35970    0.92780    0.14510    1.000
    H261     H        0.33180    0.93730    0.13270    1.000
    C317     C        0.40050    0.94710    0.19910    1.000
    C318     C        0.44330    0.92960    0.22090    1.000
    H262     H        0.47200    0.94430    0.25790    1.000
    C319     C        0.44320    0.89450    0.19140    1.000
    H263     H        0.47230    0.88140    0.21110    1.000
    C320     C        0.40510    0.99070    0.23800    1.000
    C321     C        0.38580    0.03110    0.20930    1.000
    H264     H        0.37340    0.03800    0.16620    1.000
    C322     C        0.38370    0.07010    0.25120    1.000
    C323     C        0.40190    0.05990    0.30890    1.000
    C324     C        0.43620    0.01780    0.35140    1.000
    H265     H        0.45310    0.01540    0.39740    1.000
    C325     C        0.44240    0.98050    0.31870    1.000
    C326     C        0.34310    0.13360    0.15770    1.000
    H266     H        0.33930    0.10910    0.12870    1.000
    H267     H        0.36510    0.15760    0.16710    1.000
    C327     C        0.29080    0.16110    0.11170    1.000
    H268     H        0.26520    0.14360    0.07010    1.000
    H269     H        0.29140    0.19460    0.10100    1.000
    C328     C        0.50320    0.94730    0.41870    1.000
    H270     H        0.50430    0.98130    0.42900    1.000
    H271     H        0.50150    0.92830    0.44680    1.000
    C329     C        0.54600    0.93580    0.43760    1.000
    H272     H        0.55740    0.90610    0.46410    1.000
    H273     H        0.53730    0.92740    0.39570    1.000
    C330     C        0.58350    0.96480    0.47160    1.000
    H274     H        0.60370    0.95260    0.46580    1.000
    H275     H        0.60150    0.96250    0.51970    1.000
    C331     C        0.57340    0.02000    0.45120    1.000
    H276     H        0.57020    0.02650    0.41330    1.000
    H277     H        0.54510    0.03120    0.43980    1.000
    C332     C        0.61160    0.03930    0.50730    1.000
    H278     H        0.62640    0.06010    0.49780    1.000
    H279     H        0.63410    0.01400    0.53850    1.000
    C333     C        0.59960    0.06720    0.53770    1.000
    H280     H        0.60310    0.10040    0.53000    1.000
    H281     H        0.56560    0.06220    0.50650    1.000
    C334     C        0.61470    0.07000    0.60270    1.000
    H282     H        0.59670    0.09460    0.60130    1.000
    H283     H        0.64790    0.07810    0.63720    1.000
    H284     H        0.60960    0.03920    0.61320    1.000
    C335     C        0.89650    0.17110    0.99400    1.000
    C336     C        0.89980    0.12500    0.96430    1.000
    C337     C        0.85530    0.11240    0.90070    1.000
    H285     H        0.82760    0.12280    0.88840    1.000
    C338     C        0.85270    0.08310    0.85440    1.000
    H286     H        0.82900    0.08470    0.80710    1.000
    C339     C        0.89420    0.05010    0.89550    1.000
    C340     C        0.94370    0.06780    0.95990    1.000
    H287     H        0.97230    0.05500    0.97750    1.000
    C341     C        0.93850    0.10660    0.98790    1.000
    H288     H        0.96650    0.12020    0.02790    1.000
    C342     C        0.90080    0.80170    0.62620    1.000
    C343     C        0.89890    0.83790    0.66980    1.000
    C344     C        0.94290    0.85070    0.73260    1.000
    H289     H        0.97120    0.83700    0.75020    1.000
    C345     C        0.94090    0.88660    0.76780    1.000
    H290     H        0.96890    0.90100    0.80680    1.000
    C346     C        0.89810    0.90040    0.74520    1.000
    C347     C        0.85740    0.88050    0.68320    1.000
    H291     H        0.82800    0.88950    0.66640    1.000
    C348     C        0.85810    0.85190    0.64950    1.000
    H292     H        0.82950    0.83970    0.60890    1.000
    C349     C        0.89350    0.94040    0.78440    1.000
    C350     C        0.92350    0.93540    0.85010    1.000
    H293     H        0.94750    0.91220    0.87460    1.000
    C351     C        0.91520    0.97130    0.88240    1.000
    C352     C        0.89940    0.00880    0.86110    1.000
    C353     C        0.85710    0.01040    0.77930    1.000
    H294     H        0.83510    0.03540    0.76120    1.000
    C354     C        0.84880    0.97810    0.73040    1.000
    C355     C        0.94640    0.91770    0.96740    1.000
    H295     H        0.93660    0.89980    0.92880    1.000
    H296     H        0.98080    0.91880    0.00040    1.000
    C356     C        0.93570    0.87990    0.00170    1.000
    H297     H        0.91030    0.89230    0.99680    1.000
    H298     H        0.92610    0.84850    0.97940    1.000
    C357     C        0.55120    0.26030    0.66000    1.000
    H299     H        0.53510    0.26710    0.61500    1.000
    C358     C        0.60110    0.26190    0.71050    1.000
    H300     H        0.61720    0.27040    0.69820    1.000
    C359     C        0.62340    0.25270    0.76870    1.000
    C360     C        0.59900    0.22130    0.78090    1.000
    H301     H        0.61570    0.20220    0.81980    1.000
    C361     C        0.55080    0.22260    0.73130    1.000
    H302     H        0.53320    0.20480    0.73630    1.000
    C362     C        0.75300    0.24690    0.85790    1.000
    H303     H        0.76890    0.24070    0.84470    1.000
    C363     C        0.70370    0.25000    0.81020    1.000
    H304     H        0.68880    0.25480    0.76530    1.000
    C364     C        0.67360    0.24700    0.82010    1.000
    C365     C        0.75420    0.25000    0.93890    1.000
    H305     H        0.76980    0.24740    0.98440    1.000
    C366     C        0.70490    0.25000    0.88840    1.000
    H306     H        0.69080    0.25260    0.90490    1.000
    N16      N        0.52800    0.25010    0.67390    1.000
    O56      O        0.36330    0.20960    0.45120    1.000
    O57      O        0.44050    0.21550    0.52520    1.000
    O58      O        0.36170    0.80720    0.05340    1.000
    O59      O        0.44200    0.81190    0.12770    1.000
    O60      O        0.36540    0.11110    0.21940    1.000
    O61      O        0.46070    0.93910    0.34880    1.000
    O62      O        0.85800    0.19310    0.96020    1.000
    O63      O        0.94010    0.18519    0.05040    1.000
    O64      O        0.85790    0.79320    0.56410    1.000
    O65      O        0.93989    0.78950    0.64960    1.000
    O66      O        0.93690    0.95110    0.95070    1.000
    Zn11     Zn       0.45307    0.25113    0.60079    1.000
    Zn12     Zn       0.34916    0.24762    0.49686    1.000
    N17      N        0.77720    0.25330    0.92500    1.000
    N18      N        0.74550    0.24622    0.89170    1.000
    C367     C        0.90030    0.30220    0.96890    1.000
    C368     C        0.90070    0.33570    0.92780    1.000
    C369     C        0.85970    0.35600    0.86930    1.000
    H307     H        0.83140    0.35150    0.85790    1.000
    C370     C        0.85970    0.38230    0.82830    1.000
    H308     H        0.83000    0.39000    0.78570    1.000
    C371     C        0.89590    0.39800    0.84110    1.000
    C372     C        0.94460    0.38470    0.91140    1.000
    H309     H        0.97290    0.39760    0.92780    1.000
    C373     C        0.94320    0.34960    0.95120    1.000
    H310     H        0.97140    0.33710    0.99210    1.000
    C374     C        0.90020    0.67110    0.59840    1.000
    C375     C        0.90470    0.62450    0.63490    1.000
    C376     C        0.85790    0.60880    0.60410    1.000
    H311     H        0.82970    0.62070    0.56280    1.000
    C377     C        0.85970    0.57220    0.64510    1.000
    H312     H        0.83180    0.56270    0.63270    1.000
    C378     C        0.90050    0.55290    0.69910    1.000
    C379     C        0.94330    0.57040    0.72090    1.000
    H313     H        0.97200    0.55570    0.75790    1.000
    C380     C        0.94320    0.60550    0.69140    1.000
    H314     H        0.97230    0.61860    0.71110    1.000
    C381     C        0.90510    0.50930    0.73800    1.000
    C382     C        0.88580    0.46890    0.70930    1.000
    H315     H        0.87340    0.46200    0.66620    1.000
    C383     C        0.88370    0.42990    0.75120    1.000
    C384     C        0.90190    0.44010    0.80890    1.000
    C385     C        0.93620    0.48220    0.85140    1.000
    H316     H        0.95310    0.48460    0.89740    1.000
    C386     C        0.94240    0.51950    0.81870    1.000
    C387     C        0.84310    0.36640    0.65770    1.000
    H317     H        0.83930    0.39090    0.62870    1.000
    H318     H        0.86510    0.34240    0.66710    1.000
    C388     C        0.79080    0.33890    0.61170    1.000
    H319     H        0.76520    0.35640    0.57010    1.000
    H320     H        0.79140    0.30540    0.60100    1.000
    C389     C        0.00320    0.55270    0.91870    1.000
    H321     H        0.00430    0.51870    0.92900    1.000
    H322     H        0.00150    0.57170    0.94680    1.000
    C390     C        0.04600    0.56420    0.93760    1.000
    H323     H        0.05740    0.59390    0.96410    1.000
    H324     H        0.03730    0.57260    0.89570    1.000
    C391     C        0.08350    0.53520    0.97160    1.000
    H325     H        0.10370    0.54740    0.96580    1.000
    H326     H        0.10150    0.53750    0.01970    1.000
    C392     C        0.07340    0.48000    0.95120    1.000
    H327     H        0.07020    0.47350    0.91330    1.000
    H328     H        0.04510    0.46880    0.93980    1.000
    C393     C        0.11160    0.46070    0.00730    1.000
    H329     H        0.12640    0.43990    0.99780    1.000
    H330     H        0.13410    0.48600    0.03850    1.000
    C394     C        0.09960    0.43280    0.03770    1.000
    H331     H        0.10310    0.39960    0.03000    1.000
    H332     H        0.06560    0.43780    0.00650    1.000
    C395     C        0.11470    0.43000    0.10270    1.000
    H333     H        0.09670    0.40540    0.10130    1.000
    H334     H        0.14790    0.42190    0.13720    1.000
    H335     H        0.10960    0.46080    0.11320    1.000
    C396     C        0.39650    0.32890    0.49400    1.000
    C397     C        0.39980    0.37500    0.46430    1.000
    C398     C        0.35530    0.38760    0.40070    1.000
    H336     H        0.32760    0.37720    0.38840    1.000
    C399     C        0.35270    0.41690    0.35440    1.000
    H337     H        0.32900    0.41530    0.30710    1.000
    C400     C        0.39420    0.44990    0.39550    1.000
    C401     C        0.44370    0.43220    0.45990    1.000
    H338     H        0.47230    0.44500    0.47750    1.000
    C402     C        0.43850    0.39340    0.48790    1.000
    H339     H        0.46650    0.37980    0.52790    1.000
    C403     C        0.40080    0.69830    0.12620    1.000
    C404     C        0.39890    0.66210    0.16980    1.000
    C405     C        0.44290    0.64930    0.23260    1.000
    H340     H        0.47120    0.66300    0.25020    1.000
    C406     C        0.44090    0.61340    0.26780    1.000
    H341     H        0.46890    0.59900    0.30680    1.000
    C407     C        0.39810    0.59960    0.24520    1.000
    C408     C        0.35740    0.61950    0.18320    1.000
    H342     H        0.32800    0.61050    0.16640    1.000
    C409     C        0.35810    0.64810    0.14950    1.000
    H343     H        0.32950    0.66030    0.10890    1.000
    C410     C        0.39350    0.55960    0.28440    1.000
    C411     C        0.42350    0.56460    0.35010    1.000
    H344     H        0.44750    0.58780    0.37460    1.000
    C412     C        0.41520    0.52870    0.38240    1.000
    C413     C        0.39940    0.49120    0.36110    1.000
    C414     C        0.35710    0.48960    0.27930    1.000
    H345     H        0.33510    0.46460    0.26120    1.000
    C415     C        0.34880    0.52190    0.23040    1.000
    C416     C        0.44640    0.58230    0.46740    1.000
    H346     H        0.43660    0.60020    0.42880    1.000
    H347     H        0.48080    0.58120    0.50040    1.000
    C417     C        0.43570    0.62010    0.50170    1.000
    H348     H        0.41030    0.60770    0.49680    1.000
    H349     H        0.42610    0.65150    0.47940    1.000
    C418     C        0.05120    0.23970    0.16000    1.000
    H350     H        0.03510    0.23290    0.11500    1.000
    C419     C        0.10110    0.23810    0.21050    1.000
    H351     H        0.11720    0.22960    0.19820    1.000
    C420     C        0.12340    0.24730    0.26870    1.000
    C421     C        0.09900    0.27870    0.28090    1.000
    H352     H        0.11570    0.29780    0.31980    1.000
    C422     C        0.05080    0.27740    0.23130    1.000
    H353     H        0.03320    0.29520    0.23630    1.000
    C423     C        0.25300    0.25310    0.35790    1.000
    H354     H        0.26890    0.25930    0.34470    1.000
    C424     C        0.20370    0.25000    0.31020    1.000
    H355     H        0.18880    0.24520    0.26530    1.000
    C425     C        0.17360    0.25300    0.32010    1.000
    C426     C        0.25420    0.25000    0.43890    1.000
    H356     H        0.26980    0.25260    0.48440    1.000
    C427     C        0.20490    0.25000    0.38840    1.000
    H357     H        0.19080    0.24740    0.40490    1.000
    N19      N        0.02800    0.24990    0.17390    1.000
    O67      O        0.86330    0.29040    0.95120    1.000
    O68      O        0.94050    0.28450    0.02520    1.000
    O69      O        0.86170    0.69280    0.55340    1.000
    O70      O        0.94200    0.68810    0.62770    1.000
    O71      O        0.86540    0.38890    0.71940    1.000
    O72      O        0.96070    0.56090    0.84880    1.000
    O73      O        0.35800    0.30690    0.46020    1.000
    O74      O        0.44010    0.31481    0.55040    1.000
    O75      O        0.35790    0.70680    0.06410    1.000
    O76      O        0.43989    0.71050    0.14960    1.000
    O77      O        0.43690    0.54890    0.45070    1.000
    Zn13     Zn       0.95307    0.24887    0.10079    1.000
    Zn14     Zn       0.84915    0.25238    0.99686    1.000
    N20      N        0.27720    0.24670    0.42500    1.000
    N21      N        0.24550    0.25378    0.39170    1.000
    C428     C        0.40030    0.80220    0.96890    1.000
    C429     C        0.40070    0.83570    0.92780    1.000
    C430     C        0.35970    0.85600    0.86930    1.000
    H358     H        0.33140    0.85150    0.85790    1.000
    C431     C        0.35970    0.88230    0.82830    1.000
    H359     H        0.33000    0.89000    0.78570    1.000
    C432     C        0.39590    0.89800    0.84110    1.000
    C433     C        0.44460    0.88470    0.91140    1.000
    H360     H        0.47290    0.89760    0.92780    1.000
    C434     C        0.44320    0.84960    0.95120    1.000
    H361     H        0.47140    0.83710    0.99210    1.000
    C435     C        0.40020    0.17110    0.59840    1.000
    C436     C        0.40470    0.12450    0.63490    1.000
    C437     C        0.35790    0.10880    0.60410    1.000
    H362     H        0.32970    0.12070    0.56280    1.000
    C438     C        0.35970    0.07220    0.64510    1.000
    H363     H        0.33180    0.06270    0.63270    1.000
    C439     C        0.40050    0.05290    0.69910    1.000
    C440     C        0.44330    0.07040    0.72090    1.000
    H364     H        0.47200    0.05570    0.75790    1.000
    C441     C        0.44320    0.10550    0.69140    1.000
    H365     H        0.47230    0.11860    0.71110    1.000
    C442     C        0.40510    0.00930    0.73800    1.000
    C443     C        0.38580    0.96890    0.70930    1.000
    H366     H        0.37340    0.96200    0.66620    1.000
    C444     C        0.38370    0.92990    0.75120    1.000
    C445     C        0.40190    0.94010    0.80890    1.000
    C446     C        0.43620    0.98220    0.85140    1.000
    H367     H        0.45310    0.98460    0.89740    1.000
    C447     C        0.44240    0.01950    0.81870    1.000
    C448     C        0.34310    0.86640    0.65770    1.000
    H368     H        0.33930    0.89090    0.62870    1.000
    H369     H        0.36510    0.84240    0.66710    1.000
    C449     C        0.29080    0.83890    0.61170    1.000
    H370     H        0.26520    0.85640    0.57010    1.000
    H371     H        0.29140    0.80540    0.60100    1.000
    C450     C        0.50320    0.05270    0.91870    1.000
    H372     H        0.50430    0.01870    0.92900    1.000
    H373     H        0.50150    0.07170    0.94680    1.000
    C451     C        0.54600    0.06420    0.93760    1.000
    H374     H        0.55740    0.09390    0.96410    1.000
    H375     H        0.53730    0.07260    0.89570    1.000
    C452     C        0.58350    0.03520    0.97160    1.000
    H376     H        0.60370    0.04740    0.96580    1.000
    H377     H        0.60150    0.03750    0.01970    1.000
    C453     C        0.57340    0.98000    0.95120    1.000
    H378     H        0.57020    0.97350    0.91330    1.000
    H379     H        0.54510    0.96880    0.93980    1.000
    C454     C        0.61160    0.96070    0.00730    1.000
    H380     H        0.62640    0.93990    0.99780    1.000
    H381     H        0.63410    0.98600    0.03850    1.000
    C455     C        0.59960    0.93280    0.03770    1.000
    H382     H        0.60310    0.89960    0.03000    1.000
    H383     H        0.56560    0.93780    0.00650    1.000
    C456     C        0.61470    0.93000    0.10270    1.000
    H384     H        0.59670    0.90540    0.10130    1.000
    H385     H        0.64790    0.92190    0.13720    1.000
    H386     H        0.60960    0.96080    0.11320    1.000
    C457     C        0.89650    0.82890    0.49400    1.000
    C458     C        0.89980    0.87500    0.46430    1.000
    C459     C        0.85530    0.88760    0.40070    1.000
    H387     H        0.82760    0.87720    0.38840    1.000
    C460     C        0.85270    0.91690    0.35440    1.000
    H388     H        0.82900    0.91530    0.30710    1.000
    C461     C        0.89420    0.94990    0.39550    1.000
    C462     C        0.94370    0.93220    0.45990    1.000
    H389     H        0.97230    0.94500    0.47750    1.000
    C463     C        0.93850    0.89340    0.48790    1.000
    H390     H        0.96650    0.87980    0.52790    1.000
    C464     C        0.90080    0.19830    0.12620    1.000
    C465     C        0.89890    0.16210    0.16980    1.000
    C466     C        0.94290    0.14930    0.23260    1.000
    H391     H        0.97120    0.16300    0.25020    1.000
    C467     C        0.94090    0.11340    0.26780    1.000
    H392     H        0.96890    0.09900    0.30680    1.000
    C468     C        0.89810    0.09960    0.24520    1.000
    C469     C        0.85740    0.11950    0.18320    1.000
    H393     H        0.82800    0.11050    0.16640    1.000
    C470     C        0.85810    0.14810    0.14950    1.000
    H394     H        0.82950    0.16030    0.10890    1.000
    C471     C        0.89350    0.05960    0.28440    1.000
    C472     C        0.92350    0.06460    0.35010    1.000
    H395     H        0.94750    0.08780    0.37460    1.000
    C473     C        0.91520    0.02870    0.38240    1.000
    C474     C        0.89940    0.99120    0.36110    1.000
    C475     C        0.85710    0.98960    0.27930    1.000
    H396     H        0.83510    0.96460    0.26120    1.000
    C476     C        0.84880    0.02190    0.23040    1.000
    C477     C        0.94640    0.08230    0.46740    1.000
    H397     H        0.93660    0.10020    0.42880    1.000
    H398     H        0.98080    0.08120    0.50040    1.000
    C478     C        0.93570    0.12010    0.50170    1.000
    H399     H        0.91030    0.10770    0.49680    1.000
    H400     H        0.92610    0.15150    0.47940    1.000
    C479     C        0.55120    0.73970    0.16000    1.000
    H401     H        0.53510    0.73290    0.11500    1.000
    C480     C        0.60110    0.73810    0.21050    1.000
    H402     H        0.61720    0.72960    0.19820    1.000
    C481     C        0.62340    0.74730    0.26870    1.000
    C482     C        0.59900    0.77870    0.28090    1.000
    H403     H        0.61570    0.79780    0.31980    1.000
    C483     C        0.55080    0.77740    0.23130    1.000
    H404     H        0.53320    0.79520    0.23630    1.000
    C484     C        0.75300    0.75310    0.35790    1.000
    H405     H        0.76890    0.75930    0.34470    1.000
    C485     C        0.70370    0.75000    0.31020    1.000
    H406     H        0.68880    0.74520    0.26530    1.000
    C486     C        0.67360    0.75300    0.32010    1.000
    C487     C        0.75420    0.75000    0.43890    1.000
    H407     H        0.76980    0.75260    0.48440    1.000
    C488     C        0.70490    0.75000    0.38840    1.000
    H408     H        0.69080    0.74740    0.40490    1.000
    N22      N        0.52800    0.74990    0.17390    1.000
    O78      O        0.36330    0.79040    0.95120    1.000
    O79      O        0.44050    0.78450    0.02520    1.000
    O80      O        0.36170    0.19280    0.55340    1.000
    O81      O        0.44200    0.18810    0.62770    1.000
    O82      O        0.36540    0.88890    0.71940    1.000
    O83      O        0.46070    0.06090    0.84880    1.000
    O84      O        0.85800    0.80690    0.46020    1.000
    O85      O        0.94010    0.81481    0.55040    1.000
    O86      O        0.85790    0.20680    0.06410    1.000
    O87      O        0.93989    0.21050    0.14960    1.000
    O88      O        0.93690    0.04890    0.45070    1.000
    Zn15     Zn       0.45307    0.74887    0.10079    1.000
    Zn16     Zn       0.34916    0.75238    0.99686    1.000
    N23      N        0.77720    0.74670    0.42500    1.000
    N24      N        0.74550    0.75378    0.39170    1.000
