data_functionalizedCrystal
_audit_creation_method	'EQeq! by Chris Wilmer'
_symmetry_space_group_name_H-M	'P1'
_symmetry_Int_Tables_number	1
_symmetry_cell_setting	triclinic
loop_
_symmetry_equiv_pos_as_xyz
  x,y,z
_cell_length_a	9.9055
_cell_length_b	27.766
_cell_length_c	28.33
_cell_angle_alpha	90
_cell_angle_beta	90
_cell_angle_gamma	90
loop_
_atom_site_label
_atom_site_type_symbol
_atom_site_fract_x
_atom_site_fract_y
_atom_site_fract_z
_atom_site_charge
Mof_Zn	Zn	0.61598	0.51256	0.6315	1.195
Mof_Zn	Zn	0.61598	0.48744	0.8685	1.195
Mof_Zn	Zn	0.88402	0.01256	0.8685	1.201
Mof_Zn	Zn	0.88402	0.98744	0.6315	1.188
Mof_Zn	Zn	0.38402	0.48744	0.3685	1.194
Mof_Zn	Zn	0.38402	0.51256	0.1315	1.194
Mof_Zn	Zn	0.11598	0.98744	0.1315	1.186
Mof_Zn	Zn	0.11598	0.01256	0.3685	1.201
Mof_H 	H 	0.3837	0.4438	0.5861	0.03
Mof_H 	H 	0.4105	0.3976	0.5168	0.052
Mof_H 	H 	0.7365	0.4757	0.5364	-0.026
Mof_H 	H 	0.2819	0.0785	0.4419	0.014
Mof_H 	H 	0.2519	0.165	0.4507	0.062
Mof_H 	H 	0.0177	0.1157	0.3461	-0.006
Mof_H 	H 	0.2782	0.4544	0.2195	0.005
Mof_H 	H 	0.0656	0.4993	0.1116	0.003
Mof_H 	H 	0.9093	0.456	0.1639	0.044
Mof_H 	H 	0.6072	0.3403	0.4855	0.074
Mof_H 	H 	0.7269	0.304	0.4248	0.068
Mof_H 	H 	0.8664	0.4333	0.3841	0.061
Mof_H 	H 	0.7467	0.4697	0.4448	0.061
Mof_H 	H 	0.0973	0.2299	0.4512	0.083
Mof_H 	H 	0.9936	0.3046	0.4406	0.078
Mof_H 	H 	0.927	0.2724	0.3048	0.07
Mof_H 	H 	0.0079	0.1949	0.3178	0.066
Mof_H 	H 	0.2141	0.4043	0.274	0.068
Mof_H 	H 	0.1276	0.3639	0.3387	0.077
Mof_H 	H 	0.7636	0.3864	0.2996	0.075
Mof_H 	H 	0.8316	0.4184	0.2301	0.045
Mof_H 	H 	0.3213	0.4729	0.7417	0.318
Mof_H 	H 	0.3837	0.5562	0.9139	0.03
Mof_H 	H 	0.4105	0.6024	0.9832	0.052
Mof_H 	H 	0.7365	0.5243	0.9636	-0.026
Mof_H 	H 	0.2819	0.9215	0.0581	0.007
Mof_H 	H 	0.2519	0.835	0.0493	0.062
Mof_H 	H 	0.0177	0.8843	0.1539	-0.008
Mof_H 	H 	0.2782	0.5456	0.2805	0.005
Mof_H 	H 	0.0656	0.5007	0.3884	0.003
Mof_H 	H 	0.9093	0.544	0.3361	0.044
Mof_H 	H 	0.6072	0.6597	0.0145	0.073
Mof_H 	H 	0.7269	0.696	0.0752	0.068
Mof_H 	H 	0.8664	0.5667	0.1159	0.061
Mof_H 	H 	0.7467	0.5303	0.0552	0.061
Mof_H 	H 	0.0973	0.7701	0.0488	0.083
Mof_H 	H 	0.9936	0.6954	0.0594	0.078
Mof_H 	H 	0.927	0.7276	0.1952	0.07
Mof_H 	H 	0.0079	0.8051	0.1822	0.066
Mof_H 	H 	0.2141	0.5957	0.226	0.068
Mof_H 	H 	0.1276	0.6361	0.1613	0.077
Mof_H 	H 	0.7636	0.6136	0.2004	0.075
Mof_H 	H 	0.8316	0.5816	0.2699	0.045
Mof_H 	H 	0.3213	0.5271	0.7583	0.318
Mof_H 	H 	0.1163	0.9438	0.9139	0.028
Mof_H 	H 	0.0895	0.8976	0.9832	0.052
Mof_H 	H 	0.7635	0.9757	0.9636	-0.029
Mof_H 	H 	0.2181	0.5785	0.0581	0.011
Mof_H 	H 	0.2481	0.665	0.0493	0.062
Mof_H 	H 	0.4823	0.6157	0.1539	-0.007
Mof_H 	H 	0.2218	0.9544	0.2805	0.002
Mof_H 	H 	0.4344	0.9993	0.3884	-0.003
Mof_H 	H 	0.5907	0.956	0.3361	0.043
Mof_H 	H 	0.8928	0.8403	0.0145	0.073
Mof_H 	H 	0.7731	0.804	0.0752	0.068
Mof_H 	H 	0.6336	0.9333	0.1159	0.057
Mof_H 	H 	0.7533	0.9697	0.0552	0.055
Mof_H 	H 	0.4027	0.7299	0.0488	0.083
Mof_H 	H 	0.5064	0.8046	0.0594	0.077
Mof_H 	H 	0.573	0.7724	0.1952	0.07
Mof_H 	H 	0.4921	0.6949	0.1822	0.066
Mof_H 	H 	0.2859	0.9043	0.226	0.066
Mof_H 	H 	0.3724	0.8639	0.1613	0.078
Mof_H 	H 	0.7364	0.8864	0.2004	0.075
Mof_H 	H 	0.6684	0.9184	0.2699	0.044
Mof_H 	H 	0.1787	0.9729	0.7583	0.286
Mof_H 	H 	0.1163	0.0562	0.5861	0.032
Mof_H 	H 	0.0895	0.1024	0.5168	0.052
Mof_H 	H 	0.7635	0.0243	0.5364	-0.023
Mof_H 	H 	0.2181	0.4215	0.4419	0.011
Mof_H 	H 	0.2481	0.335	0.4507	0.062
Mof_H 	H 	0.4823	0.3843	0.3461	-0.007
Mof_H 	H 	0.2218	0.0456	0.2195	0.007
Mof_H 	H 	0.4344	0.0007	0.1116	0.008
Mof_H 	H 	0.5907	0.044	0.1639	0.046
Mof_H 	H 	0.8928	0.1597	0.4855	0.074
Mof_H 	H 	0.7731	0.196	0.4248	0.067
Mof_H 	H 	0.6336	0.0667	0.3841	0.064
Mof_H 	H 	0.7533	0.0303	0.4448	0.067
Mof_H 	H 	0.4027	0.2701	0.4512	0.083
Mof_H 	H 	0.5064	0.1954	0.4406	0.078
Mof_H 	H 	0.573	0.2276	0.3048	0.07
Mof_H 	H 	0.4921	0.3051	0.3178	0.066
Mof_H 	H 	0.2859	0.0957	0.274	0.069
Mof_H 	H 	0.3724	0.1361	0.3387	0.077
Mof_H 	H 	0.7364	0.1136	0.2996	0.075
Mof_H 	H 	0.6684	0.0816	0.2301	0.046
Mof_H 	H 	0.1787	0.0271	0.7417	0.298
Mof_H 	H 	0.6163	0.5562	0.4139	0.03
Mof_H 	H 	0.5895	0.6024	0.4832	0.052
Mof_H 	H 	0.2635	0.5243	0.4636	-0.026
Mof_H 	H 	0.7181	0.9215	0.5581	0.008
Mof_H 	H 	0.7481	0.835	0.5493	0.062
Mof_H 	H 	0.9823	0.8843	0.6539	-0.008
Mof_H 	H 	0.7218	0.5456	0.7805	0.005
Mof_H 	H 	0.9344	0.5007	0.8884	0.003
Mof_H 	H 	0.0907	0.544	0.8361	0.044
Mof_H 	H 	0.3928	0.6597	0.5145	0.074
Mof_H 	H 	0.2731	0.696	0.5752	0.068
Mof_H 	H 	0.1336	0.5667	0.6159	0.061
Mof_H 	H 	0.2533	0.5303	0.5552	0.061
Mof_H 	H 	0.9027	0.7701	0.5488	0.083
Mof_H 	H 	0.0064	0.6954	0.5594	0.078
Mof_H 	H 	0.073	0.7276	0.6952	0.07
Mof_H 	H 	0.9921	0.8051	0.6822	0.066
Mof_H 	H 	0.7859	0.5957	0.726	0.068
Mof_H 	H 	0.8724	0.6361	0.6613	0.077
Mof_H 	H 	0.2364	0.6136	0.7004	0.075
Mof_H 	H 	0.1684	0.5816	0.7699	0.045
Mof_H 	H 	0.6787	0.5271	0.2583	0.318
Mof_H 	H 	0.6163	0.4438	0.0861	0.03
Mof_H 	H 	0.5895	0.3976	0.0168	0.052
Mof_H 	H 	0.2635	0.4757	0.0364	-0.026
Mof_H 	H 	0.7181	0.0785	0.9419	0.014
Mof_H 	H 	0.7481	0.165	0.9507	0.062
Mof_H 	H 	0.9823	0.1157	0.8461	-0.006
Mof_H 	H 	0.7218	0.4544	0.7195	0.005
Mof_H 	H 	0.9344	0.4993	0.6116	0.003
Mof_H 	H 	0.0907	0.456	0.6639	0.044
Mof_H 	H 	0.3928	0.3403	0.9855	0.074
Mof_H 	H 	0.2731	0.304	0.9248	0.068
Mof_H 	H 	0.1336	0.4333	0.8841	0.061
Mof_H 	H 	0.2533	0.4697	0.9448	0.061
Mof_H 	H 	0.9027	0.2299	0.9512	0.083
Mof_H 	H 	0.0064	0.3046	0.9406	0.078
Mof_H 	H 	0.073	0.2724	0.8048	0.07
Mof_H 	H 	0.9921	0.1949	0.8178	0.066
Mof_H 	H 	0.7859	0.4043	0.774	0.068
Mof_H 	H 	0.8724	0.3639	0.8387	0.077
Mof_H 	H 	0.2364	0.3864	0.7996	0.075
Mof_H 	H 	0.1684	0.4184	0.7301	0.045
Mof_H 	H 	0.6787	0.4729	0.2417	0.318
Mof_H 	H 	0.8837	0.0562	0.0861	0.032
Mof_H 	H 	0.9105	0.1024	0.0168	0.052
Mof_H 	H 	0.2365	0.0243	0.0364	-0.023
Mof_H 	H 	0.7819	0.4215	0.9419	0.011
Mof_H 	H 	0.7519	0.335	0.9507	0.062
Mof_H 	H 	0.5177	0.3843	0.8461	-0.007
Mof_H 	H 	0.7782	0.0456	0.7195	0.007
Mof_H 	H 	0.5656	0.0007	0.6116	0.008
Mof_H 	H 	0.4093	0.044	0.6639	0.046
Mof_H 	H 	0.1072	0.1597	0.9855	0.074
Mof_H 	H 	0.2269	0.196	0.9248	0.067
Mof_H 	H 	0.3664	0.0667	0.8841	0.064
Mof_H 	H 	0.2467	0.0303	0.9448	0.066
Mof_H 	H 	0.5973	0.2701	0.9512	0.083
Mof_H 	H 	0.4936	0.1954	0.9406	0.078
Mof_H 	H 	0.427	0.2276	0.8048	0.07
Mof_H 	H 	0.5079	0.3051	0.8178	0.066
Mof_H 	H 	0.7141	0.0957	0.774	0.069
Mof_H 	H 	0.6276	0.1361	0.8387	0.077
Mof_H 	H 	0.2636	0.1136	0.7996	0.075
Mof_H 	H 	0.3316	0.0816	0.7301	0.046
Mof_H 	H 	0.8213	0.0271	0.2417	0.296
Mof_H 	H 	0.8837	0.9438	0.4139	0.028
Mof_H 	H 	0.9105	0.8976	0.4832	0.052
Mof_H 	H 	0.2365	0.9757	0.4636	-0.03
Mof_H 	H 	0.7819	0.5785	0.5581	0.011
Mof_H 	H 	0.7519	0.665	0.5493	0.062
Mof_H 	H 	0.5177	0.6157	0.6539	-0.007
Mof_H 	H 	0.7782	0.9544	0.7805	0.003
Mof_H 	H 	0.5656	0.9993	0.8884	-0.002
Mof_H 	H 	0.4093	0.956	0.8361	0.043
Mof_H 	H 	0.1072	0.8403	0.5145	0.073
Mof_H 	H 	0.2269	0.804	0.5752	0.068
Mof_H 	H 	0.3664	0.9333	0.6159	0.057
Mof_H 	H 	0.2467	0.9697	0.5552	0.056
Mof_H 	H 	0.5973	0.7299	0.5488	0.083
Mof_H 	H 	0.4936	0.8046	0.5594	0.077
Mof_H 	H 	0.427	0.7724	0.6952	0.07
Mof_H 	H 	0.5079	0.6949	0.6822	0.066
Mof_H 	H 	0.7141	0.9043	0.726	0.066
Mof_H 	H 	0.6276	0.8639	0.6613	0.078
Mof_H 	H 	0.2636	0.8864	0.7004	0.075
Mof_H 	H 	0.3316	0.9184	0.7699	0.044
Mof_H 	H 	0.8213	0.9729	0.2583	0.284
Mof_C 	C 	0.4588	0.44495	0.56646	0.017
Mof_C 	C 	0.4729	0.4193	0.52914	-0.012
Mof_C 	C 	0.6507	0.46256	0.53972	0.115
Mof_C 	C 	0.2251	0.09751	0.42359	0.02
Mof_C 	C 	0.2098	0.14529	0.42859	-0.017
Mof_C 	C 	0.0802	0.11752	0.37053	0.097
Mof_C 	C 	0.2061	0.46048	0.19929	0.084
Mof_C 	C 	0.0895	0.48501	0.14011	0.033
Mof_C 	C 	0.0011	0.46108	0.16876	-0.009
Mof_C 	C 	0.66508	0.40858	0.47116	0.091
Mof_C 	C 	0.65914	0.35894	0.46517	-0.074
Mof_C 	C 	0.73085	0.33717	0.42879	-0.073
Mof_C 	C 	0.80852	0.36505	0.3984	0.087
Mof_C 	C 	0.81446	0.41469	0.40439	-0.077
Mof_C 	C 	0.74274	0.43646	0.44077	-0.084
Mof_C 	C 	0.0648	0.20685	0.3863	0.096
Mof_C 	C 	0.0603	0.23797	0.42205	-0.085
Mof_C 	C 	0.9991	0.28315	0.41547	-0.079
Mof_C 	C 	0.9472	0.296	0.37204	0.093
Mof_C 	C 	0.9565	0.26341	0.33465	-0.078
Mof_C 	C 	0.0092	0.21773	0.34182	-0.074
Mof_C 	C 	0.0329	0.41943	0.24714	0.08
Mof_C 	C 	0.1214	0.40082	0.27805	-0.065
Mof_C 	C 	0.0674	0.37599	0.31651	-0.107
Mof_C 	C 	0.9377	0.36835	0.32378	0.12
Mof_C 	C 	0.8556	0.38782	0.29319	-0.114
Mof_C 	C 	0.8942	0.40983	0.25307	-0.045
Mof_C 	C 	0.4706	0.51294	0.70953	0.733
Mof_C 	C 	0.4588	0.55505	0.93354	0.017
Mof_C 	C 	0.4729	0.5807	0.97086	-0.012
Mof_C 	C 	0.6507	0.53744	0.96028	0.115
Mof_C 	C 	0.2251	0.90249	0.07641	0.019
Mof_C 	C 	0.2098	0.85471	0.07141	-0.018
Mof_C 	C 	0.0802	0.88248	0.12947	0.096
Mof_C 	C 	0.2061	0.53952	0.30071	0.084
Mof_C 	C 	0.0895	0.51499	0.35989	0.033
Mof_C 	C 	0.0011	0.53892	0.33124	-0.009
Mof_C 	C 	0.66508	0.59142	0.02884	0.09
Mof_C 	C 	0.65914	0.64106	0.03483	-0.074
Mof_C 	C 	0.73085	0.66283	0.07121	-0.073
Mof_C 	C 	0.80852	0.63495	0.1016	0.087
Mof_C 	C 	0.81446	0.58531	0.09561	-0.077
Mof_C 	C 	0.74274	0.56354	0.05923	-0.084
Mof_C 	C 	0.0648	0.79315	0.1137	0.096
Mof_C 	C 	0.0603	0.76203	0.07795	-0.085
Mof_C 	C 	0.9991	0.71685	0.08453	-0.079
Mof_C 	C 	0.9472	0.704	0.12796	0.093
Mof_C 	C 	0.9565	0.73659	0.16535	-0.078
Mof_C 	C 	0.0092	0.78227	0.15818	-0.074
Mof_C 	C 	0.0329	0.58057	0.25286	0.08
Mof_C 	C 	0.1214	0.59918	0.22195	-0.065
Mof_C 	C 	0.0674	0.62401	0.18349	-0.107
Mof_C 	C 	0.9377	0.63165	0.17622	0.12
Mof_C 	C 	0.8556	0.61218	0.20681	-0.114
Mof_C 	C 	0.8942	0.59017	0.24693	-0.045
Mof_C 	C 	0.4706	0.48706	0.79047	0.733
Mof_C 	C 	0.0412	0.94495	0.93354	0.015
Mof_C 	C 	0.0271	0.9193	0.97086	-0.013
Mof_C 	C 	0.8493	0.96256	0.96028	0.113
Mof_C 	C 	0.2749	0.59751	0.07641	0.02
Mof_C 	C 	0.2902	0.64529	0.07141	-0.018
Mof_C 	C 	0.4198	0.61752	0.12947	0.097
Mof_C 	C 	0.2939	0.96048	0.30071	0.081
Mof_C 	C 	0.4105	0.98501	0.35989	0.031
Mof_C 	C 	0.4989	0.96108	0.33124	-0.012
Mof_C 	C 	0.83492	0.90858	0.02884	0.087
Mof_C 	C 	0.84086	0.85894	0.03483	-0.073
Mof_C 	C 	0.76915	0.83717	0.07121	-0.074
Mof_C 	C 	0.69148	0.86505	0.1016	0.087
Mof_C 	C 	0.68554	0.91469	0.09561	-0.079
Mof_C 	C 	0.75726	0.93646	0.05923	-0.083
Mof_C 	C 	0.4352	0.70685	0.1137	0.097
Mof_C 	C 	0.4397	0.73797	0.07795	-0.086
Mof_C 	C 	0.5009	0.78315	0.08453	-0.079
Mof_C 	C 	0.5528	0.796	0.12796	0.093
Mof_C 	C 	0.5435	0.76341	0.16535	-0.077
Mof_C 	C 	0.4908	0.71773	0.15818	-0.075
Mof_C 	C 	0.4671	0.91943	0.25286	0.076
Mof_C 	C 	0.3786	0.90082	0.22195	-0.064
Mof_C 	C 	0.4326	0.87599	0.18349	-0.11
Mof_C 	C 	0.5623	0.86835	0.17622	0.121
Mof_C 	C 	0.6444	0.88782	0.20681	-0.116
Mof_C 	C 	0.6058	0.90983	0.24693	-0.045
Mof_C 	C 	0.0294	0.01294	0.79047	0.737
Mof_C 	C 	0.0412	0.05505	0.56646	0.018
Mof_C 	C 	0.0271	0.0807	0.52914	-0.01
Mof_C 	C 	0.8493	0.03744	0.53972	0.117
Mof_C 	C 	0.2749	0.40249	0.42359	0.02
Mof_C 	C 	0.2902	0.35471	0.42859	-0.018
Mof_C 	C 	0.4198	0.38248	0.37053	0.097
Mof_C 	C 	0.2939	0.03952	0.19929	0.087
Mof_C 	C 	0.4105	0.01499	0.14011	0.034
Mof_C 	C 	0.4989	0.03892	0.16876	-0.005
Mof_C 	C 	0.83492	0.09142	0.47116	0.093
Mof_C 	C 	0.84086	0.14106	0.46517	-0.075
Mof_C 	C 	0.76915	0.16283	0.42879	-0.072
Mof_C 	C 	0.69148	0.13495	0.3984	0.087
Mof_C 	C 	0.68554	0.08531	0.40439	-0.075
Mof_C 	C 	0.75726	0.06354	0.44077	-0.084
Mof_C 	C 	0.4352	0.29315	0.3863	0.097
Mof_C 	C 	0.4397	0.26203	0.42205	-0.086
Mof_C 	C 	0.5009	0.21685	0.41547	-0.079
Mof_C 	C 	0.5528	0.204	0.37204	0.093
Mof_C 	C 	0.5435	0.23659	0.33465	-0.077
Mof_C 	C 	0.4908	0.28227	0.34182	-0.075
Mof_C 	C 	0.4671	0.08057	0.24714	0.082
Mof_C 	C 	0.3786	0.09918	0.27805	-0.065
Mof_C 	C 	0.4326	0.12401	0.31651	-0.105
Mof_C 	C 	0.5623	0.13165	0.32378	0.12
Mof_C 	C 	0.6444	0.11218	0.29319	-0.113
Mof_C 	C 	0.6058	0.09017	0.25307	-0.045
Mof_C 	C 	0.0294	0.98706	0.70953	0.664
Mof_C 	C 	0.5412	0.55505	0.43354	0.017
Mof_C 	C 	0.5271	0.5807	0.47086	-0.012
Mof_C 	C 	0.3493	0.53744	0.46028	0.115
Mof_C 	C 	0.7749	0.90249	0.57641	0.019
Mof_C 	C 	0.7902	0.85471	0.57141	-0.018
Mof_C 	C 	0.9198	0.88248	0.62947	0.096
Mof_C 	C 	0.7939	0.53952	0.80071	0.084
Mof_C 	C 	0.9105	0.51499	0.85989	0.033
Mof_C 	C 	0.9989	0.53892	0.83124	-0.009
Mof_C 	C 	0.33492	0.59142	0.52884	0.091
Mof_C 	C 	0.34086	0.64106	0.53483	-0.074
Mof_C 	C 	0.26915	0.66283	0.57121	-0.073
Mof_C 	C 	0.19148	0.63495	0.6016	0.087
Mof_C 	C 	0.18554	0.58531	0.59561	-0.077
Mof_C 	C 	0.25726	0.56354	0.55923	-0.084
Mof_C 	C 	0.9352	0.79315	0.6137	0.096
Mof_C 	C 	0.9397	0.76203	0.57795	-0.085
Mof_C 	C 	0.0009	0.71685	0.58453	-0.079
Mof_C 	C 	0.0528	0.704	0.62796	0.093
Mof_C 	C 	0.0435	0.73659	0.66535	-0.078
Mof_C 	C 	0.9908	0.78227	0.65818	-0.074
Mof_C 	C 	0.9671	0.58057	0.75286	0.08
Mof_C 	C 	0.8786	0.59918	0.72195	-0.065
Mof_C 	C 	0.9326	0.62401	0.68349	-0.107
Mof_C 	C 	0.0623	0.63165	0.67622	0.119
Mof_C 	C 	0.1444	0.61218	0.70681	-0.114
Mof_C 	C 	0.1058	0.59017	0.74693	-0.045
Mof_C 	C 	0.5294	0.48706	0.29047	0.733
Mof_C 	C 	0.5412	0.44495	0.06646	0.017
Mof_C 	C 	0.5271	0.4193	0.02914	-0.012
Mof_C 	C 	0.3493	0.46256	0.03972	0.115
Mof_C 	C 	0.7749	0.09751	0.92359	0.02
Mof_C 	C 	0.7902	0.14529	0.92859	-0.017
Mof_C 	C 	0.9198	0.11752	0.87053	0.097
Mof_C 	C 	0.7939	0.46048	0.69929	0.084
Mof_C 	C 	0.9105	0.48501	0.64011	0.033
Mof_C 	C 	0.9989	0.46108	0.66876	-0.009
Mof_C 	C 	0.33492	0.40858	0.97116	0.09
Mof_C 	C 	0.34086	0.35894	0.96517	-0.074
Mof_C 	C 	0.26915	0.33717	0.92879	-0.073
Mof_C 	C 	0.19148	0.36505	0.8984	0.087
Mof_C 	C 	0.18554	0.41469	0.90439	-0.077
Mof_C 	C 	0.25726	0.43646	0.94077	-0.084
Mof_C 	C 	0.9352	0.20685	0.8863	0.096
Mof_C 	C 	0.9397	0.23797	0.92205	-0.085
Mof_C 	C 	0.0009	0.28315	0.91547	-0.079
Mof_C 	C 	0.0528	0.296	0.87204	0.093
Mof_C 	C 	0.0435	0.26341	0.83465	-0.078
Mof_C 	C 	0.9908	0.21773	0.84182	-0.074
Mof_C 	C 	0.9671	0.41943	0.74714	0.08
Mof_C 	C 	0.8786	0.40082	0.77805	-0.065
Mof_C 	C 	0.9326	0.37599	0.81651	-0.107
Mof_C 	C 	0.0623	0.36835	0.82378	0.119
Mof_C 	C 	0.1444	0.38782	0.79319	-0.114
Mof_C 	C 	0.1058	0.40983	0.75307	-0.045
Mof_C 	C 	0.5294	0.51294	0.20953	0.733
Mof_C 	C 	0.9588	0.05505	0.06646	0.018
Mof_C 	C 	0.9729	0.0807	0.02914	-0.01
Mof_C 	C 	0.1507	0.03744	0.03972	0.117
Mof_C 	C 	0.7251	0.40249	0.92359	0.02
Mof_C 	C 	0.7098	0.35471	0.92859	-0.018
Mof_C 	C 	0.5802	0.38248	0.87053	0.097
Mof_C 	C 	0.7061	0.03952	0.69929	0.087
Mof_C 	C 	0.5895	0.01499	0.64011	0.034
Mof_C 	C 	0.5011	0.03892	0.66876	-0.006
Mof_C 	C 	0.16508	0.09142	0.97116	0.092
Mof_C 	C 	0.15914	0.14106	0.96517	-0.074
Mof_C 	C 	0.23085	0.16283	0.92879	-0.073
Mof_C 	C 	0.30852	0.13495	0.8984	0.087
Mof_C 	C 	0.31446	0.08531	0.90439	-0.076
Mof_C 	C 	0.24274	0.06354	0.94077	-0.083
Mof_C 	C 	0.5648	0.29315	0.8863	0.097
Mof_C 	C 	0.5603	0.26203	0.92205	-0.086
Mof_C 	C 	0.4991	0.21685	0.91547	-0.079
Mof_C 	C 	0.4472	0.204	0.87204	0.093
Mof_C 	C 	0.4565	0.23659	0.83465	-0.077
Mof_C 	C 	0.5092	0.28227	0.84182	-0.075
Mof_C 	C 	0.5329	0.08057	0.74714	0.082
Mof_C 	C 	0.6214	0.09918	0.77805	-0.065
Mof_C 	C 	0.5674	0.12401	0.81651	-0.105
Mof_C 	C 	0.4377	0.13165	0.82378	0.12
Mof_C 	C 	0.3556	0.11218	0.79319	-0.113
Mof_C 	C 	0.3942	0.09017	0.75307	-0.045
Mof_C 	C 	0.9706	0.98706	0.20953	0.66
Mof_C 	C 	0.9588	0.94495	0.43354	0.015
Mof_C 	C 	0.9729	0.9193	0.47086	-0.014
Mof_C 	C 	0.1507	0.96256	0.46028	0.113
Mof_C 	C 	0.7251	0.59751	0.57641	0.02
Mof_C 	C 	0.7098	0.64529	0.57141	-0.018
Mof_C 	C 	0.5802	0.61752	0.62947	0.097
Mof_C 	C 	0.7061	0.96048	0.80071	0.081
Mof_C 	C 	0.5895	0.98501	0.85989	0.032
Mof_C 	C 	0.5011	0.96108	0.83124	-0.012
Mof_C 	C 	0.16508	0.90858	0.52884	0.088
Mof_C 	C 	0.15914	0.85894	0.53483	-0.073
Mof_C 	C 	0.23085	0.83717	0.57121	-0.074
Mof_C 	C 	0.30852	0.86505	0.6016	0.087
Mof_C 	C 	0.31446	0.91469	0.59561	-0.078
Mof_C 	C 	0.24274	0.93646	0.55923	-0.084
Mof_C 	C 	0.5648	0.70685	0.6137	0.097
Mof_C 	C 	0.5603	0.73797	0.57795	-0.086
Mof_C 	C 	0.4991	0.78315	0.58453	-0.079
Mof_C 	C 	0.4472	0.796	0.62796	0.093
Mof_C 	C 	0.4565	0.76341	0.66535	-0.077
Mof_C 	C 	0.5092	0.71773	0.65818	-0.075
Mof_C 	C 	0.5329	0.91943	0.75286	0.076
Mof_C 	C 	0.6214	0.90082	0.72195	-0.064
Mof_C 	C 	0.5674	0.87599	0.68349	-0.11
Mof_C 	C 	0.4377	0.86835	0.67622	0.121
Mof_C 	C 	0.3556	0.88782	0.70681	-0.116
Mof_C 	C 	0.3942	0.90983	0.74693	-0.045
Mof_C 	C 	0.9706	0.01294	0.29047	0.737
Mof_C 	C 	0.3783	0.5	0.75	-0.899
Mof_C 	C 	0.1217	6.47954e-33	0.75	-0.82
Mof_C 	C 	0.6217	0.5	0.25	-0.899
Mof_C 	C 	0.8783	3.23977e-33	0.25	-0.816
Mof_N 	N 	0.5689	0.47435	0.57374	-0.276
Mof_N 	N 	0.6008	0.4302	0.51038	-0.14
Mof_N 	N 	0.88799	0.34137	0.36305	-0.156
Mof_N 	N 	0.1456	0.08073	0.38791	-0.273
Mof_N 	N 	0.11664	0.15947	0.39344	-0.131
Mof_N 	N 	0.2136	0.48537	0.15775	-0.273
Mof_N 	N 	0.0784	0.44619	0.20634	-0.126
Mof_N 	N 	0.5689	0.52565	0.92626	-0.276
Mof_N 	N 	0.6008	0.5698	0.98962	-0.14
Mof_N 	N 	0.88799	0.65863	0.13695	-0.156
Mof_N 	N 	0.1456	0.91927	0.11209	-0.279
Mof_N 	N 	0.11664	0.84053	0.10656	-0.131
Mof_N 	N 	0.2136	0.51463	0.34225	-0.273
Mof_N 	N 	0.0784	0.55381	0.29366	-0.126
Mof_N 	N 	0.9311	0.97435	0.92626	-0.279
Mof_N 	N 	0.8992	0.9302	0.98962	-0.139
Mof_N 	N 	0.61201	0.84137	0.13695	-0.157
Mof_N 	N 	0.3544	0.58073	0.11209	-0.276
Mof_N 	N 	0.38336	0.65947	0.10656	-0.131
Mof_N 	N 	0.2864	0.98537	0.34225	-0.277
Mof_N 	N 	0.4216	0.94619	0.29366	-0.126
Mof_N 	N 	0.9311	0.02565	0.57374	-0.272
Mof_N 	N 	0.8992	0.0698	0.51038	-0.139
Mof_N 	N 	0.61201	0.15863	0.36305	-0.156
Mof_N 	N 	0.3544	0.41927	0.38791	-0.276
Mof_N 	N 	0.38336	0.34053	0.39344	-0.131
Mof_N 	N 	0.2864	0.01463	0.15775	-0.268
Mof_N 	N 	0.4216	0.05381	0.20634	-0.126
Mof_N 	N 	0.4311	0.52565	0.42626	-0.276
Mof_N 	N 	0.3992	0.5698	0.48962	-0.14
Mof_N 	N 	0.11201	0.65863	0.63695	-0.156
Mof_N 	N 	0.8544	0.91927	0.61209	-0.279
Mof_N 	N 	0.88336	0.84053	0.60656	-0.131
Mof_N 	N 	0.7864	0.51463	0.84225	-0.273
Mof_N 	N 	0.9216	0.55381	0.79366	-0.126
Mof_N 	N 	0.4311	0.47435	0.07374	-0.276
Mof_N 	N 	0.3992	0.4302	0.01038	-0.14
Mof_N 	N 	0.11201	0.34137	0.86305	-0.156
Mof_N 	N 	0.8544	0.08073	0.88791	-0.273
Mof_N 	N 	0.88336	0.15947	0.89344	-0.131
Mof_N 	N 	0.7864	0.48537	0.65775	-0.273
Mof_N 	N 	0.9216	0.44619	0.70634	-0.126
Mof_N 	N 	0.0689	0.02565	0.07374	-0.272
Mof_N 	N 	0.1008	0.0698	0.01038	-0.139
Mof_N 	N 	0.38799	0.15863	0.86305	-0.156
Mof_N 	N 	0.6456	0.41927	0.88791	-0.276
Mof_N 	N 	0.61664	0.34053	0.89344	-0.131
Mof_N 	N 	0.7136	0.01463	0.65775	-0.268
Mof_N 	N 	0.5784	0.05381	0.70634	-0.126
Mof_N 	N 	0.0689	0.97435	0.42626	-0.28
Mof_N 	N 	0.1008	0.9302	0.48962	-0.14
Mof_N 	N 	0.38799	0.84137	0.63695	-0.157
Mof_N 	N 	0.6456	0.58073	0.61209	-0.276
Mof_N 	N 	0.61664	0.65947	0.60656	-0.131
Mof_N 	N 	0.7136	0.98537	0.84225	-0.277
Mof_N 	N 	0.5784	0.94619	0.79366	-0.126
Mof_O 	O 	0.55735	0.54503	0.71409	-0.464
Mof_O 	O 	0.44931	0.49666	0.67469	-0.611
Mof_O 	O 	0.55735	0.45497	0.78591	-0.464
Mof_O 	O 	0.44931	0.50334	0.82531	-0.611
Mof_O 	O 	0.94265	0.04503	0.78591	-0.46
Mof_O 	O 	0.05069	0.99666	0.82531	-0.627
Mof_O 	O 	0.94265	0.95497	0.71409	-0.45
Mof_O 	O 	0.05069	0.00334	0.67469	-0.573
Mof_O 	O 	0.44265	0.45497	0.28591	-0.464
Mof_O 	O 	0.55069	0.50334	0.32531	-0.611
Mof_O 	O 	0.44265	0.54503	0.21409	-0.464
Mof_O 	O 	0.55069	0.49666	0.17469	-0.611
Mof_O 	O 	0.05735	0.95497	0.21409	-0.449
Mof_O 	O 	0.94931	0.00334	0.17469	-0.571
Mof_O 	O 	0.05735	0.04503	0.28591	-0.459
Mof_O 	O 	0.94931	0.99666	0.32531	-0.628
Mof_N 	N 	0.846	0.66895	0.4448	0.053
Mof_O 	O 	0.9064	0.63498	0.46368	-0.123
Mof_O 	O 	0.85597	0.67467	0.40223	-0.101
Mof_O 	O 	0.78857	0.69875	0.46882	-0.109
Mof_N 	N 	0.846	0.33105	0.0552	0.053
Mof_O 	O 	0.9064	0.36502	0.03632	-0.123
Mof_O 	O 	0.85597	0.32533	0.09777	-0.101
Mof_O 	O 	0.78857	0.30125	0.03118	-0.109
Mof_N 	N 	0.654	0.16895	0.0552	0.053
Mof_O 	O 	0.5936	0.13498	0.03632	-0.122
Mof_O 	O 	0.64403	0.17467	0.09777	-0.1
Mof_O 	O 	0.71143	0.19875	0.03118	-0.109
Mof_N 	N 	0.654	0.83105	0.4448	0.053
Mof_O 	O 	0.5936	0.86502	0.46368	-0.124
Mof_O 	O 	0.64403	0.82533	0.40223	-0.101
Mof_O 	O 	0.71143	0.80125	0.46882	-0.109
Mof_N 	N 	0.154	0.33105	0.5552	0.053
Mof_O 	O 	0.0936	0.36502	0.53632	-0.123
Mof_O 	O 	0.14403	0.32533	0.59777	-0.101
Mof_O 	O 	0.21143	0.30125	0.53118	-0.109
Mof_N 	N 	0.154	0.66895	0.9448	0.053
Mof_O 	O 	0.0936	0.63498	0.96368	-0.123
Mof_O 	O 	0.14403	0.67467	0.90223	-0.1
Mof_O 	O 	0.21143	0.69875	0.96882	-0.109
Mof_N 	N 	0.346	0.83105	0.9448	0.053
Mof_O 	O 	0.4064	0.86502	0.96368	-0.124
Mof_O 	O 	0.35597	0.82533	0.90223	-0.101
Mof_O 	O 	0.28857	0.80125	0.96882	-0.109
Mof_N 	N 	0.346	0.16895	0.5552	0.053
Mof_O 	O 	0.4064	0.13498	0.53632	-0.122
Mof_O 	O 	0.35597	0.17467	0.59777	-0.1
Mof_O 	O 	0.28857	0.19875	0.53118	-0.109
_end
