data_functionalizedCrystal
_audit_creation_method	'EQeq! by Chris Wilmer'
_symmetry_space_group_name_H-M	'P1'
_symmetry_Int_Tables_number	1
_symmetry_cell_setting	triclinic
loop_
_symmetry_equiv_pos_as_xyz
  x,y,z
_cell_length_a	19.377
_cell_length_b	19.377
_cell_length_c	19.81
_cell_angle_alpha	90
_cell_angle_beta	90
_cell_angle_gamma	120
loop_
_atom_site_label
_atom_site_type_symbol
_atom_site_fract_x
_atom_site_fract_y
_atom_site_fract_z
_atom_site_charge
Mof_Cd	Cd	0.31704	0.77862	0.58215	0.47
Mof_O 	O 	0.54586	0.80854	0.51133	-0.247
Mof_O 	O 	0.41979	0.76686	0.53327	-0.286
Mof_O 	O 	0.58311	0.14375	0.33767	-0.293
Mof_O 	O 	0.47008	0.063	0.28659	-0.25
Mof_N 	N 	0.3611	0.8704	0.49305	-0.133
Mof_N 	N 	0.3765	0.9771	0.41589	-0.116
Mof_S 	S 	0.31385	0.91515	0.46851	0.14
Mof_C 	C 	0.486	0.816	0.5049	0.312
Mof_C 	C 	0.491	0.8815	0.46246	-0.089
Mof_C 	C 	0.5573	0.9248	0.4231	-0.004
Mof_H 	H 	0.5977	0.9123	0.4245	0.06
Mof_C 	C 	0.567	0.9881	0.3801	-0.023
Mof_H 	H 	0.6133	0.0155	0.3546	0.073
Mof_C 	C 	0.51	0.0092	0.3756	-0.075
Mof_C 	C 	0.4395	0.9653	0.41446	0.07
Mof_C 	C 	0.4303	0.9028	0.45853	0.076
Mof_C 	C 	0.5211	0.0759	0.33045	0.32
Mof_Cd	Cd	0.98371	0.11195	0.91548	0.463
Mof_O 	O 	0.21253	0.14187	0.84466	-0.248
Mof_O 	O 	0.08646	0.10019	0.8666	-0.287
Mof_O 	O 	0.24978	0.47708	0.671	-0.294
Mof_O 	O 	0.13675	0.39633	0.61992	-0.252
Mof_N 	N 	0.02777	0.20373	0.82638	-0.131
Mof_N 	N 	0.04317	0.31043	0.74922	-0.115
Mof_S 	S 	0.98052	0.24848	0.80184	0.136
Mof_C 	C 	0.15267	0.14933	0.83823	0.311
Mof_C 	C 	0.15767	0.21483	0.79579	-0.087
Mof_C 	C 	0.22397	0.25813	0.75643	-0.008
Mof_H 	H 	0.26437	0.24563	0.75783	0.062
Mof_C 	C 	0.23367	0.32143	0.71343	-0.017
Mof_H 	H 	0.27997	0.34883	0.68793	0.07
Mof_C 	C 	0.17667	0.34253	0.70893	-0.079
Mof_C 	C 	0.10617	0.29863	0.74779	0.073
Mof_C 	C 	0.09697	0.23613	0.79186	0.075
Mof_C 	C 	0.18777	0.40923	0.66378	0.322
Mof_Cd	Cd	0.65037	0.44529	0.24882	0.469
Mof_O 	O 	0.87919	0.47521	0.178	-0.248
Mof_O 	O 	0.75312	0.43353	0.19994	-0.287
Mof_O 	O 	0.91644	0.81042	0.00434	-0.292
Mof_O 	O 	0.80341	0.72967	0.95326	-0.251
Mof_N 	N 	0.69443	0.53707	0.15972	-0.134
Mof_N 	N 	0.70983	0.64377	0.08256	-0.116
Mof_S 	S 	0.64718	0.58182	0.13518	0.14
Mof_C 	C 	0.81933	0.48267	0.17157	0.312
Mof_C 	C 	0.82433	0.54817	0.12913	-0.087
Mof_C 	C 	0.89063	0.59147	0.08977	-0.007
Mof_H 	H 	0.93103	0.57897	0.09117	0.062
Mof_C 	C 	0.90033	0.65477	0.04677	-0.018
Mof_H 	H 	0.94663	0.68217	0.02127	0.071
Mof_C 	C 	0.84333	0.67587	0.04227	-0.077
Mof_C 	C 	0.77283	0.63197	0.08113	0.072
Mof_C 	C 	0.76363	0.56947	0.1252	0.075
Mof_C 	C 	0.85443	0.74257	0.99712	0.319
Mof_Cd	Cd	0.22138	0.53842	0.58215	0.469
Mof_O 	O 	0.19146	0.73732	0.51133	-0.248
Mof_O 	O 	0.23314	0.65293	0.53327	-0.287
Mof_O 	O 	0.85625	0.43936	0.33767	-0.294
Mof_O 	O 	0.937	0.40708	0.28659	-0.251
Mof_N 	N 	0.1296	0.4907	0.49305	-0.134
Mof_N 	N 	0.0229	0.3994	0.41589	-0.116
Mof_S 	S 	0.08485	0.3987	0.46851	0.14
Mof_C 	C 	0.184	0.67	0.5049	0.312
Mof_C 	C 	0.1185	0.6095	0.46246	-0.089
Mof_C 	C 	0.0752	0.6325	0.4231	-0.004
Mof_H 	H 	0.0877	0.6854	0.4245	0.06
Mof_C 	C 	0.0119	0.5789	0.3801	-0.023
Mof_H 	H 	0.9845	0.5978	0.3546	0.073
Mof_C 	C 	0.9908	0.5008	0.3756	-0.075
Mof_C 	C 	0.0347	0.4742	0.41446	0.07
Mof_C 	C 	0.0972	0.5275	0.45853	0.076
Mof_C 	C 	0.9241	0.4452	0.33045	0.32
Mof_Cd	Cd	0.88805	0.87175	0.91548	0.468
Mof_O 	O 	0.85813	0.07065	0.84466	-0.248
Mof_O 	O 	0.89981	0.98626	0.8666	-0.284
Mof_O 	O 	0.52292	0.77269	0.671	-0.294
Mof_O 	O 	0.60367	0.74041	0.61992	-0.252
Mof_N 	N 	0.79627	0.82403	0.82638	-0.133
Mof_N 	N 	0.68957	0.73273	0.74922	-0.116
Mof_S 	S 	0.75152	0.73203	0.80184	0.14
Mof_C 	C 	0.85067	0.00333	0.83823	0.306
Mof_C 	C 	0.78517	0.94283	0.79579	-0.085
Mof_C 	C 	0.74187	0.96583	0.75643	-0.004
Mof_H 	H 	0.75437	0.01873	0.75783	0.059
Mof_C 	C 	0.67857	0.91223	0.71343	-0.019
Mof_H 	H 	0.65117	0.93113	0.68793	0.071
Mof_C 	C 	0.65747	0.83413	0.70893	-0.079
Mof_C 	C 	0.70137	0.80753	0.74779	0.072
Mof_C 	C 	0.76387	0.86083	0.79186	0.074
Mof_C 	C 	0.59077	0.77853	0.66378	0.321
Mof_Cd	Cd	0.55471	0.20509	0.24882	0.469
Mof_O 	O 	0.52479	0.40399	0.178	-0.248
Mof_O 	O 	0.56647	0.3196	0.19994	-0.287
Mof_O 	O 	0.18958	0.10603	0.00434	-0.293
Mof_O 	O 	0.27033	0.07375	0.95326	-0.253
Mof_N 	N 	0.46293	0.15737	0.15972	-0.134
Mof_N 	N 	0.35623	0.06607	0.08256	-0.116
Mof_S 	S 	0.41818	0.06537	0.13518	0.141
Mof_C 	C 	0.51733	0.33667	0.17157	0.312
Mof_C 	C 	0.45183	0.27617	0.12913	-0.087
Mof_C 	C 	0.40853	0.29917	0.08977	-0.007
Mof_H 	H 	0.42103	0.35207	0.09117	0.061
Mof_C 	C 	0.34523	0.24557	0.04677	-0.018
Mof_H 	H 	0.31783	0.26447	0.02127	0.07
Mof_C 	C 	0.32413	0.16747	0.04227	-0.077
Mof_C 	C 	0.36803	0.14087	0.08113	0.072
Mof_C 	C 	0.43053	0.19417	0.1252	0.075
Mof_C 	C 	0.25743	0.11187	0.99712	0.319
Mof_Cd	Cd	0.46158	0.68296	0.58215	0.469
Mof_O 	O 	0.26268	0.45414	0.51133	-0.248
Mof_O 	O 	0.34707	0.58021	0.53327	-0.287
Mof_O 	O 	0.56064	0.41689	0.33767	-0.294
Mof_O 	O 	0.59292	0.52992	0.28659	-0.252
Mof_N 	N 	0.5093	0.6389	0.49305	-0.134
Mof_N 	N 	0.6006	0.6235	0.41589	-0.116
Mof_S 	S 	0.6013	0.68615	0.46851	0.14
Mof_C 	C 	0.33	0.514	0.5049	0.311
Mof_C 	C 	0.3905	0.509	0.46246	-0.087
Mof_C 	C 	0.3675	0.4427	0.4231	-0.008
Mof_H 	H 	0.3146	0.4023	0.4245	0.062
Mof_C 	C 	0.4211	0.433	0.3801	-0.017
Mof_H 	H 	0.4022	0.3867	0.3546	0.07
Mof_C 	C 	0.4992	0.49	0.3756	-0.079
Mof_C 	C 	0.5258	0.5605	0.41446	0.072
Mof_C 	C 	0.4725	0.5697	0.45853	0.075
Mof_C 	C 	0.5548	0.4789	0.33045	0.322
Mof_Cd	Cd	0.12825	0.01629	0.91548	0.466
Mof_O 	O 	0.92935	0.78747	0.84466	-0.247
Mof_O 	O 	0.01374	0.91354	0.8666	-0.282
Mof_O 	O 	0.22731	0.75022	0.671	-0.294
Mof_O 	O 	0.25959	0.86325	0.61992	-0.252
Mof_N 	N 	0.17597	0.97223	0.82638	-0.131
Mof_N 	N 	0.26727	0.95683	0.74922	-0.115
Mof_S 	S 	0.26797	0.01948	0.80184	0.136
Mof_C 	C 	0.99667	0.84733	0.83823	0.305
Mof_C 	C 	0.05717	0.84233	0.79579	-0.084
Mof_C 	C 	0.03417	0.77603	0.75643	-0.005
Mof_H 	H 	0.98127	0.73563	0.75783	0.059
Mof_C 	C 	0.08777	0.76633	0.71343	-0.018
Mof_H 	H 	0.06887	0.72003	0.68793	0.071
Mof_C 	C 	0.16587	0.82333	0.70893	-0.079
Mof_C 	C 	0.19247	0.89383	0.74779	0.073
Mof_C 	C 	0.13917	0.90303	0.79186	0.075
Mof_C 	C 	0.22147	0.81223	0.66378	0.321
Mof_Cd	Cd	0.79491	0.34963	0.24882	0.469
Mof_O 	O 	0.59601	0.12081	0.178	-0.248
Mof_O 	O 	0.6804	0.24688	0.19994	-0.287
Mof_O 	O 	0.89397	0.08356	0.00434	-0.284
Mof_O 	O 	0.92625	0.19659	0.95326	-0.25
Mof_N 	N 	0.84263	0.30557	0.15972	-0.134
Mof_N 	N 	0.93393	0.29017	0.08256	-0.115
Mof_S 	S 	0.93463	0.35282	0.13518	0.141
Mof_C 	C 	0.66333	0.18067	0.17157	0.312
Mof_C 	C 	0.72383	0.17567	0.12913	-0.089
Mof_C 	C 	0.70083	0.10937	0.08977	-0.003
Mof_H 	H 	0.64793	0.06897	0.09117	0.061
Mof_C 	C 	0.75443	0.09967	0.04677	-0.023
Mof_H 	H 	0.73553	0.05337	0.02127	0.074
Mof_C 	C 	0.83253	0.15667	0.04227	-0.068
Mof_C 	C 	0.85913	0.22717	0.08113	0.069
Mof_C 	C 	0.80583	0.23637	0.1252	0.077
Mof_C 	C 	0.88813	0.14557	0.99712	0.306
Mof_Cd	Cd	0.68296	0.22138	0.41785	0.469
Mof_O 	O 	0.45414	0.19146	0.48867	-0.248
Mof_O 	O 	0.58021	0.23314	0.46673	-0.287
Mof_O 	O 	0.41689	0.85625	0.66233	-0.294
Mof_O 	O 	0.52992	0.937	0.71341	-0.251
Mof_N 	N 	0.6389	0.1296	0.50695	-0.134
Mof_N 	N 	0.6235	0.0229	0.58411	-0.116
Mof_S 	S 	0.68615	0.08485	0.53149	0.14
Mof_C 	C 	0.514	0.184	0.4951	0.312
Mof_C 	C 	0.509	0.1185	0.53754	-0.089
Mof_C 	C 	0.4427	0.0752	0.5769	-0.004
Mof_H 	H 	0.4023	0.0877	0.5755	0.06
Mof_C 	C 	0.433	0.0119	0.6199	-0.023
Mof_H 	H 	0.3867	0.9845	0.6454	0.073
Mof_C 	C 	0.49	0.9908	0.6244	-0.075
Mof_C 	C 	0.5605	0.0347	0.58554	0.07
Mof_C 	C 	0.5697	0.0972	0.54147	0.076
Mof_C 	C 	0.4789	0.9241	0.66955	0.32
Mof_Cd	Cd	0.34963	0.55471	0.75118	0.469
Mof_O 	O 	0.12081	0.52479	0.822	-0.248
Mof_O 	O 	0.24688	0.56647	0.80006	-0.287
Mof_O 	O 	0.08356	0.18958	0.99566	-0.292
Mof_O 	O 	0.19659	0.27033	0.04674	-0.251
Mof_N 	N 	0.30557	0.46293	0.84028	-0.134
Mof_N 	N 	0.29017	0.35623	0.91744	-0.116
Mof_S 	S 	0.35282	0.41818	0.86482	0.14
Mof_C 	C 	0.18067	0.51733	0.82843	0.312
Mof_C 	C 	0.17567	0.45183	0.87087	-0.087
Mof_C 	C 	0.10937	0.40853	0.91023	-0.007
Mof_H 	H 	0.06897	0.42103	0.90883	0.062
Mof_C 	C 	0.09967	0.34523	0.95323	-0.018
Mof_H 	H 	0.05337	0.31783	0.97873	0.071
Mof_C 	C 	0.15667	0.32413	0.95773	-0.077
Mof_C 	C 	0.22717	0.36803	0.91887	0.072
Mof_C 	C 	0.23637	0.43053	0.8748	0.075
Mof_C 	C 	0.14557	0.25743	0.00288	0.319
Mof_Cd	Cd	0.01629	0.88805	0.08452	0.463
Mof_O 	O 	0.78747	0.85813	0.15534	-0.248
Mof_O 	O 	0.91354	0.89981	0.1334	-0.287
Mof_O 	O 	0.75022	0.52292	0.329	-0.294
Mof_O 	O 	0.86325	0.60367	0.38008	-0.252
Mof_N 	N 	0.97223	0.79627	0.17362	-0.131
Mof_N 	N 	0.95683	0.68957	0.25078	-0.115
Mof_S 	S 	0.01948	0.75152	0.19816	0.136
Mof_C 	C 	0.84733	0.85067	0.16177	0.311
Mof_C 	C 	0.84233	0.78517	0.20421	-0.087
Mof_C 	C 	0.77603	0.74187	0.24357	-0.008
Mof_H 	H 	0.73563	0.75437	0.24217	0.062
Mof_C 	C 	0.76633	0.67857	0.28657	-0.017
Mof_H 	H 	0.72003	0.65117	0.31207	0.07
Mof_C 	C 	0.82333	0.65747	0.29107	-0.079
Mof_C 	C 	0.89383	0.70137	0.25221	0.073
Mof_C 	C 	0.90303	0.76387	0.20814	0.075
Mof_C 	C 	0.81223	0.59077	0.33622	0.322
Mof_Cd	Cd	0.77862	0.46158	0.41785	0.469
Mof_O 	O 	0.80854	0.26268	0.48867	-0.248
Mof_O 	O 	0.76686	0.34707	0.46673	-0.287
Mof_O 	O 	0.14375	0.56064	0.66233	-0.294
Mof_O 	O 	0.063	0.59292	0.71341	-0.251
Mof_N 	N 	0.8704	0.5093	0.50695	-0.134
Mof_N 	N 	0.9771	0.6006	0.58411	-0.116
Mof_S 	S 	0.91515	0.6013	0.53149	0.14
Mof_C 	C 	0.816	0.33	0.4951	0.312
Mof_C 	C 	0.8815	0.3905	0.53754	-0.089
Mof_C 	C 	0.9248	0.3675	0.5769	-0.004
Mof_H 	H 	0.9123	0.3146	0.5755	0.06
Mof_C 	C 	0.9881	0.4211	0.6199	-0.023
Mof_H 	H 	0.0155	0.4022	0.6454	0.073
Mof_C 	C 	0.0092	0.4992	0.6244	-0.075
Mof_C 	C 	0.9653	0.5258	0.58554	0.07
Mof_C 	C 	0.9028	0.4725	0.54147	0.076
Mof_C 	C 	0.0759	0.5548	0.66955	0.32
Mof_Cd	Cd	0.44529	0.79491	0.75118	0.469
Mof_O 	O 	0.47521	0.59601	0.822	-0.248
Mof_O 	O 	0.43353	0.6804	0.80006	-0.287
Mof_O 	O 	0.81042	0.89397	0.99566	-0.293
Mof_O 	O 	0.72967	0.92625	0.04674	-0.253
Mof_N 	N 	0.53707	0.84263	0.84028	-0.134
Mof_N 	N 	0.64377	0.93393	0.91744	-0.116
Mof_S 	S 	0.58182	0.93463	0.86482	0.141
Mof_C 	C 	0.48267	0.66333	0.82843	0.312
Mof_C 	C 	0.54817	0.72383	0.87087	-0.087
Mof_C 	C 	0.59147	0.70083	0.91023	-0.007
Mof_H 	H 	0.57897	0.64793	0.90883	0.061
Mof_C 	C 	0.65477	0.75443	0.95323	-0.018
Mof_H 	H 	0.68217	0.73553	0.97873	0.07
Mof_C 	C 	0.67587	0.83253	0.95773	-0.077
Mof_C 	C 	0.63197	0.85913	0.91887	0.072
Mof_C 	C 	0.56947	0.80583	0.8748	0.075
Mof_C 	C 	0.74257	0.88813	0.00288	0.319
Mof_Cd	Cd	0.11195	0.12825	0.08452	0.468
Mof_O 	O 	0.14187	0.92935	0.15534	-0.248
Mof_O 	O 	0.10019	0.01374	0.1334	-0.284
Mof_O 	O 	0.47708	0.22731	0.329	-0.294
Mof_O 	O 	0.39633	0.25959	0.38008	-0.252
Mof_N 	N 	0.20373	0.17597	0.17362	-0.133
Mof_N 	N 	0.31043	0.26727	0.25078	-0.116
Mof_S 	S 	0.24848	0.26797	0.19816	0.14
Mof_C 	C 	0.14933	0.99667	0.16177	0.306
Mof_C 	C 	0.21483	0.05717	0.20421	-0.085
Mof_C 	C 	0.25813	0.03417	0.24357	-0.004
Mof_H 	H 	0.24563	0.98127	0.24217	0.059
Mof_C 	C 	0.32143	0.08777	0.28657	-0.019
Mof_H 	H 	0.34883	0.06887	0.31207	0.071
Mof_C 	C 	0.34253	0.16587	0.29107	-0.079
Mof_C 	C 	0.29863	0.19247	0.25221	0.072
Mof_C 	C 	0.23613	0.13917	0.20814	0.074
Mof_C 	C 	0.40923	0.22147	0.33622	0.321
Mof_Cd	Cd	0.53842	0.31704	0.41785	0.469
Mof_O 	O 	0.73732	0.54586	0.48867	-0.248
Mof_O 	O 	0.65293	0.41979	0.46673	-0.287
Mof_O 	O 	0.43936	0.58311	0.66233	-0.294
Mof_O 	O 	0.40708	0.47008	0.71341	-0.252
Mof_N 	N 	0.4907	0.3611	0.50695	-0.134
Mof_N 	N 	0.3994	0.3765	0.58411	-0.116
Mof_S 	S 	0.3987	0.31385	0.53149	0.14
Mof_C 	C 	0.67	0.486	0.4951	0.311
Mof_C 	C 	0.6095	0.491	0.53754	-0.087
Mof_C 	C 	0.6325	0.5573	0.5769	-0.008
Mof_H 	H 	0.6854	0.5977	0.5755	0.062
Mof_C 	C 	0.5789	0.567	0.6199	-0.017
Mof_H 	H 	0.5978	0.6133	0.6454	0.07
Mof_C 	C 	0.5008	0.51	0.6244	-0.079
Mof_C 	C 	0.4742	0.4395	0.58554	0.072
Mof_C 	C 	0.5275	0.4303	0.54147	0.075
Mof_C 	C 	0.4452	0.5211	0.66955	0.322
Mof_Cd	Cd	0.20509	0.65037	0.75118	0.469
Mof_O 	O 	0.40399	0.87919	0.822	-0.248
Mof_O 	O 	0.3196	0.75312	0.80006	-0.287
Mof_O 	O 	0.10603	0.91644	0.99566	-0.284
Mof_O 	O 	0.07375	0.80341	0.04674	-0.25
Mof_N 	N 	0.15737	0.69443	0.84028	-0.134
Mof_N 	N 	0.06607	0.70983	0.91744	-0.115
Mof_S 	S 	0.06537	0.64718	0.86482	0.141
Mof_C 	C 	0.33667	0.81933	0.82843	0.312
Mof_C 	C 	0.27617	0.82433	0.87087	-0.089
Mof_C 	C 	0.29917	0.89063	0.91023	-0.003
Mof_H 	H 	0.35207	0.93103	0.90883	0.061
Mof_C 	C 	0.24557	0.90033	0.95323	-0.023
Mof_H 	H 	0.26447	0.94663	0.97873	0.074
Mof_C 	C 	0.16747	0.84333	0.95773	-0.068
Mof_C 	C 	0.14087	0.77283	0.91887	0.069
Mof_C 	C 	0.19417	0.76363	0.8748	0.077
Mof_C 	C 	0.11187	0.85443	0.00288	0.306
Mof_Cd	Cd	0.87175	0.98371	0.08452	0.466
Mof_O 	O 	0.07065	0.21253	0.15534	-0.247
Mof_O 	O 	0.98626	0.08646	0.1334	-0.282
Mof_O 	O 	0.77269	0.24978	0.329	-0.294
Mof_O 	O 	0.74041	0.13675	0.38008	-0.252
Mof_N 	N 	0.82403	0.02777	0.17362	-0.131
Mof_N 	N 	0.73273	0.04317	0.25078	-0.115
Mof_S 	S 	0.73203	0.98052	0.19816	0.136
Mof_C 	C 	0.00333	0.15267	0.16177	0.305
Mof_C 	C 	0.94283	0.15767	0.20421	-0.084
Mof_C 	C 	0.96583	0.22397	0.24357	-0.005
Mof_H 	H 	0.01873	0.26437	0.24217	0.059
Mof_C 	C 	0.91223	0.23367	0.28657	-0.018
Mof_H 	H 	0.93113	0.27997	0.31207	0.071
Mof_C 	C 	0.83413	0.17667	0.29107	-0.079
Mof_C 	C 	0.80753	0.10617	0.25221	0.073
Mof_C 	C 	0.86083	0.09697	0.20814	0.075
Mof_C 	C 	0.77853	0.18777	0.33622	0.321
_end
