data_functionalizedCrystal
_audit_creation_method	'EQeq! by Chris Wilmer'
_symmetry_space_group_name_H-M	'P1'
_symmetry_Int_Tables_number	1
_symmetry_cell_setting	triclinic
loop_
_symmetry_equiv_pos_as_xyz
  x,y,z
_cell_length_a	37.2856
_cell_length_b	37.2856
_cell_length_c	14.9678
_cell_angle_alpha	98.8296
_cell_angle_beta	98.8296
_cell_angle_gamma	126.827
loop_
_atom_site_label
_atom_site_type_symbol
_atom_site_fract_x
_atom_site_fract_y
_atom_site_fract_z
_atom_site_charge
Mof_Ag	Ag	0.02909	0.27762	0.08851	0.724
Mof_Ag	Ag	0.45837	0.20085	0.97891	0.674
Mof_C 	C 	0.10755	0.09237	0.9132	0.052
Mof_H 	H 	0.1148	0.0736	0.8861	-0.014
Mof_C 	C 	0.07973	0.10023	0.8595	-0.055
Mof_H 	H 	0.0644	0.0872	0.7929	0.039
Mof_C 	C 	0.07932	0.13072	0.9236	-0.104
Mof_H 	H 	0.0643	0.1435	0.9088	0.061
Mof_C 	C 	0.10607	0.13987	0.018	0.122
Mof_C 	C 	0.11387	0.16659	0.1044	-0.184
Mof_C 	C 	0.13874	0.17384	0.1943	0.135
Mof_C 	C 	0.14416	0.19886	0.285	-0.119
Mof_H 	H 	0.131	0.2138	0.2961	0.068
Mof_C 	C 	0.17137	0.19709	0.3516	-0.037
Mof_H 	H 	0.1807	0.2103	0.4185	0.032
Mof_C 	C 	0.1834	0.17194	0.3036	0.04
Mof_H 	H 	0.2029	0.1661	0.3339	-0.007
Mof_C 	C 	0.09236	0.19092	0.1013	0.16
Mof_C 	C 	0.04509	0.16645	0.0761	-0.189
Mof_H 	H 	0.0239	0.1331	0.0603	0.101
Mof_C 	C 	0.02768	0.1914	0.0738	0.105
Mof_H 	H 	0.9946	0.1742	0.0563	0.019
Mof_C 	C 	0.10158	0.26072	0.1201	0.114
Mof_H 	H 	0.1224	0.294	0.1351	0.007
Mof_C 	C 	0.12077	0.23819	0.1253	-0.2
Mof_H 	H 	0.154	0.2564	0.146	0.101
Mof_C 	C 	0.14982	0.03428	0.9745	0.088
Mof_H 	H 	0.1182	0.0136	0.9755	-0.011
Mof_C 	C 	0.17228	0.01882	0.9318	-0.077
Mof_H 	H 	0.1588	0.9874	0.8996	0.126
Mof_C 	C 	0.21654	0.0584	0.9474	-0.069
Mof_H 	H 	0.2406	0.0598	0.9296	0.07
Mof_C 	C 	0.22134	0.09786	0.9946	0.113
Mof_C 	C 	0.26036	0.14574	0.0192	-0.176
Mof_C 	C 	0.26138	0.18258	0.0585	0.131
Mof_C 	C 	0.29758	0.23164	0.073	-0.104
Mof_H 	H 	0.3266	0.2454	0.0603	0.069
Mof_C 	C 	0.28298	0.2556	0.109	-0.051
Mof_H 	H 	0.2996	0.2886	0.125	0.043
Mof_C 	C 	0.23874	0.2213	0.1168	0.054
Mof_H 	H 	0.2204	0.2278	0.1403	-0.015
Mof_C 	C 	0.30429	0.15715	0.0043	0.169
Mof_C 	C 	0.3192	0.17218	0.9337	-0.216
Mof_H 	H 	0.3033	0.1785	0.8917	0.103
Mof_C 	C 	0.35961	0.17879	0.9215	0.125
Mof_H 	H 	0.367	0.1848	0.8648	-0.009
Mof_C 	C 	0.37235	0.16421	0.057	0.1
Mof_H 	H 	0.3912	0.1618	0.1021	0.026
Mof_C 	C 	0.3316	0.15404	0.0726	-0.182
Mof_H 	H 	0.3229	0.1455	0.1268	0.113
Mof_C 	C 	0.26549	0.16415	0.2543	0.063
Mof_H 	H 	0.2799	0.1947	0.249	-0.005
Mof_C 	C 	0.28897	0.15119	0.3055	-0.064
Mof_H 	H 	0.3216	0.1716	0.3404	0.104
Mof_C 	C 	0.25708	0.10466	0.2964	-0.07
Mof_H 	H 	0.2631	0.0865	0.323	0.071
Mof_C 	C 	0.21131	0.08777	0.2373	0.113
Mof_C 	C 	0.16802	0.04314	0.2142	-0.162
Mof_C 	C 	0.12444	0.02906	0.1693	0.124
Mof_C 	C 	0.07884	0.9852	0.1496	-0.1
Mof_H 	H 	0.072	0.9584	0.1649	0.065
Mof_C 	C 	0.04615	0.98821	0.1044	-0.049
Mof_H 	H 	0.0128	0.9646	0.0856	0.041
Mof_C 	C 	0.07121	0.03259	0.0917	0.045
Mof_H 	H 	0.0571	0.0435	0.06	-0.012
Mof_C 	C 	0.16881	0.00587	0.238	0.125
Mof_C 	C 	0.18387	0.98811	0.1834	-0.177
Mof_H 	H 	0.1947	0.9999	0.1333	0.114
Mof_C 	C 	0.18322	0.95272	0.2016	0.119
Mof_H 	H 	0.1933	0.9403	0.1619	0.007
Mof_C 	C 	0.1378	0.9432	0.3112	0.026
Mof_H 	H 	0.1192	0.9246	0.347	0.031
Mof_C 	C 	0.13885	0.97875	0.2923	-0.131
Mof_H 	H 	0.1202	0.9854	0.3144	0.071
Mof_C 	C 	0.9782	0.44636	0.8	0.044
Mof_H 	H 	0.9781	0.4693	0.7803	-0.01
Mof_C 	C 	0.99436	0.45026	0.8949	-0.041
Mof_H 	H 	0.0059	0.4753	0.9494	0.04
Mof_C 	C 	0.99047	0.41127	0.8944	-0.109
Mof_H 	H 	0.9994	0.4044	0.9479	0.074
Mof_C 	C 	0.96999	0.38289	0.7963	0.14
Mof_C 	C 	0.95867	0.33957	0.7624	-0.176
Mof_C 	C 	0.93593	0.31053	0.6674	0.115
Mof_C 	C 	0.92295	0.26483	0.6301	-0.066
Mof_H 	H 	0.9292	0.2488	0.6647	0.058
Mof_C 	C 	0.89996	0.24922	0.5355	-0.079
Mof_H 	H 	0.8867	0.2199	0.4914	0.114
Mof_C 	C 	0.89952	0.2846	0.5153	0.085
Mof_H 	H 	0.8856	0.2826	0.454	-0.009
Mof_C 	C 	0.97356	0.32196	0.8334	0.16
Mof_C 	C 	0.94152	0.286	0.8632	-0.205
Mof_H 	H 	0.9089	0.2709	0.84	0.096
Mof_C 	C 	0.9572	0.2718	0.9278	0.109
Mof_H 	H 	0.9347	0.2469	0.9489	-0.01
Mof_C 	C 	0.03302	0.32602	0.9306	0.112
Mof_H 	H 	0.0654	0.3402	0.9535	0.035
Mof_C 	C 	0.02002	0.34204	0.8667	-0.193
Mof_H 	H 	0.0429	0.3667	0.8458	0.126
Mof_C 	C 	0.01279	0.49245	0.6174	0.055
Mof_H 	H 	0.0383	0.4921	0.626	-0.015
Mof_C 	C 	0.01745	0.53263	0.62	-0.051
Mof_H 	H 	0.046	0.5634	0.6307	0.038
Mof_C 	C 	0.97348	0.51968	0.6043	-0.104
Mof_H 	H 	0.9656	0.5396	0.6018	0.061
Mof_C 	C 	0.94146	0.47004	0.5923	0.125
Mof_C 	C 	0.89376	0.44174	0.5792	-0.176
Mof_C 	C 	0.86341	0.39517	0.5759	0.123
Mof_C 	C 	0.81324	0.36364	0.5542	-0.106
Mof_H 	H 	0.7934	0.3716	0.5424	0.061
Mof_C 	C 	0.79886	0.32026	0.5535	-0.045
Mof_H 	H 	0.7674	0.2926	0.5421	0.035
Mof_C 	C 	0.8395	0.32444	0.573	0.051
Mof_H 	H 	0.8392	0.299	0.576	-0.015
Mof_C 	C 	0.87077	0.46481	0.5669	0.147
Mof_C 	C 	0.86523	0.47535	0.4833	-0.191
Mof_H 	H 	0.8752	0.4684	0.4337	0.095
Mof_C 	C 	0.84496	0.49604	0.4739	0.102
Mof_H 	H 	0.8401	0.5025	0.4163	0.005
Mof_C 	C 	0.83786	0.49774	0.6234	0.1
Mof_H 	H 	0.829	0.5064	0.6732	0.007
Mof_C 	C 	0.85659	0.47561	0.6364	-0.196
Mof_H 	H 	0.8595	0.4681	0.6935	0.099
Mof_C 	C 	0.88731	0.35457	0.3916	0.056
Mof_H 	H 	0.8656	0.3574	0.4098	-0.013
Mof_C 	C 	0.88294	0.33668	0.2976	-0.051
Mof_H 	H 	0.8584	0.3256	0.2423	0.045
Mof_C 	C 	0.92067	0.33813	0.3008	-0.097
Mof_H 	H 	0.9273	0.3281	0.248	0.07
Mof_C 	C 	0.94837	0.35755	0.3988	0.124
Mof_C 	C 	0.9902	0.36536	0.4358	-0.166
Mof_C 	C 	0.0194	0.38906	0.5316	0.115
Mof_C 	C 	0.06311	0.39969	0.5707	-0.073
Mof_H 	H 	0.0778	0.3908	0.5379	0.057
Mof_C 	C 	0.0799	0.42482	0.6638	-0.079
Mof_H 	H 	0.1089	0.4377	0.7083	0.109
Mof_C 	C 	0.04564	0.42798	0.6813	0.08
Mof_H 	H 	0.0481	0.4431	0.7419	-0.008
Mof_C 	C 	0.00505	0.34705	0.3687	0.142
Mof_C 	C 	0.04677	0.37537	0.3472	-0.186
Mof_H 	H 	0.0684	0.4084	0.3783	0.089
Mof_C 	C 	0.05672	0.35516	0.2798	0.1
Mof_H 	H 	0.0855	0.3751	0.2661	-0.003
Mof_C 	C 	0.988	0.28176	0.2558	0.097
Mof_H 	H 	0.9672	0.2488	0.2239	0.044
Mof_C 	C 	0.97548	0.29858	0.3218	-0.169
Mof_H 	H 	0.947	0.2774	0.3355	0.121
Mof_C 	C 	0.31964	0.76266	0.4561	0.064
Mof_H 	H 	0.3201	0.7867	0.441	-0.016
Mof_C 	C 	0.33506	0.76386	0.5495	-0.049
Mof_H 	H 	0.3469	0.7879	0.6067	0.047
Mof_C 	C 	0.32963	0.72397	0.5415	-0.097
Mof_H 	H 	0.3375	0.7149	0.5923	0.076
Mof_C 	C 	0.31005	0.69825	0.4431	0.131
Mof_C 	C 	0.29894	0.65532	0.4023	-0.177
Mof_C 	C 	0.27832	0.62878	0.3077	0.118
Mof_C 	C 	0.26385	0.58335	0.266	-0.066
Mof_H 	H 	0.2677	0.5653	0.2986	0.07
Mof_C 	C 	0.24342	0.57044	0.1703	-0.077
Mof_H 	H 	0.23	0.5416	0.1241	0.136
Mof_C 	C 	0.24606	0.60758	0.1539	0.088
Mof_H 	H 	0.2349	0.6079	0.0928	-0.003
Mof_C 	C 	0.31334	0.63744	0.471	0.156
Mof_C 	C 	0.28398	0.60846	0.5172	-0.205
Mof_H 	H 	0.2521	0.5959	0.5016	0.099
Mof_C 	C 	0.30211	0.59791	0.5876	0.122
Mof_H 	H 	0.2816	0.5776	0.6188	-0.016
Mof_C 	C 	0.37346	0.64082	0.5659	0.112
Mof_H 	H 	0.4049	0.6519	0.5826	0.019
Mof_C 	C 	0.35918	0.65324	0.4931	-0.181
Mof_H 	H 	0.38	0.6718	0.4601	0.129
Mof_C 	C 	0.18342	0.64292	0.2127	0.059
Mof_H 	H 	0.1835	0.6173	0.2099	-0.014
Mof_C 	C 	0.14242	0.63816	0.1946	-0.052
Mof_H 	H 	0.1109	0.6097	0.1774	0.039
Mof_C 	C 	0.15695	0.68263	0.2065	-0.105
Mof_H 	H 	0.1373	0.6909	0.1996	0.061
Mof_C 	C 	0.20734	0.71442	0.2314	0.125
Mof_C 	C 	0.1999	0.79158	0.3256	-0.185
Mof_H 	H 	0.2032	0.7814	0.3784	0.091
Mof_C 	C 	0.18015	0.81307	0.3232	0.093
Mof_H 	H 	0.1711	0.8183	0.3764	0.006
Mof_C 	C 	0.623	0.49884	0.8843	0.094
Mof_H 	H 	0.6405	0.5285	0.873	-0.011
Mof_C 	C 	0.64362	0.48432	0.9373	-0.08
Mof_H 	H 	0.6762	0.5014	0.9677	0.13
Mof_C 	C 	0.60645	0.44019	0.9356	-0.067
Mof_H 	H 	0.6086	0.4202	0.9642	0.069
Mof_C 	C 	0.56441	0.42945	0.8837	0.119
Mof_C 	C 	0.51811	0.38857	0.8683	-0.167
Mof_C 	C 	0.47701	0.37969	0.8178	0.125
Mof_C 	C 	0.42964	0.33974	0.8036	-0.098
Mof_H 	H 	0.4199	0.3139	0.8269	0.072
Mof_C 	C 	0.40089	0.34473	0.7514	-0.049
Mof_H 	H 	0.3674	0.3234	0.7305	0.044
Mof_C 	C 	0.43077	0.38791	0.7346	0.057
Mof_H 	H 	0.4196	0.4002	0.6991	-0.014
Mof_C 	C 	0.51116	0.35032	0.9033	0.148
Mof_C 	C 	0.51585	0.35071	0.9961	-0.198
Mof_H 	H 	0.525	0.3772	0.0436	0.095
Mof_C 	C 	0.50718	0.31238	0.0207	0.11
Mof_H 	H 	0.5104	0.3134	0.0854	-0.014
Mof_C 	C 	0.49139	0.27435	0.8691	0.112
Mof_H 	H 	0.4835	0.2477	0.8244	0.015
Mof_C 	C 	0.49859	0.30991	0.8352	-0.181
Mof_H 	H 	0.4954	0.3078	0.77	0.132
Mof_C 	C 	0.47238	0.44576	0.5567	0.059
Mof_H 	H 	0.4788	0.4264	0.5289	-0.015
Mof_C 	C 	0.44387	0.45397	0.5041	-0.05
Mof_H 	H 	0.4287	0.4421	0.4374	0.039
Mof_C 	C 	0.44353	0.48281	0.5715	-0.107
Mof_H 	H 	0.4269	0.4943	0.5597	0.063
Mof_C 	C 	0.4716	0.49292	0.6614	0.127
Mof_C 	C 	0.47407	0.57975	0.7133	-0.173
Mof_H 	H 	0.4992	0.5912	0.6869	0.09
Mof_C 	C 	0.4522	0.6003	0.7166	0.085
Mof_H 	H 	0.4638	0.6266	0.6941	0.009
Mof_C 	C 	0.18589	0.42371	0.0739	0.816
Mof_C 	C 	0.76829	0.51109	0.1609	0.825
Mof_C 	C 	0.12402	0.86658	0.8803	0.782
Mof_F 	F 	0.16316	0.43632	0.0338	-0.457
Mof_F 	F 	0.1824	0.39432	0.0048	-0.461
Mof_F 	F 	0.23059	0.46265	0.1105	-0.468
Mof_F 	F 	0.80811	0.52231	0.1549	-0.465
Mof_F 	F 	0.77265	0.54929	0.1728	-0.46
Mof_F 	F 	0.7356	0.4812	0.0776	-0.468
Mof_F 	F 	0.16045	0.91481	0.9226	-0.455
Mof_F 	F 	0.09079	0.86481	0.8247	-0.447
Mof_F 	F 	0.13154	0.8372	0.8556	-0.504
Mof_Ga	Ga	0.1699	0.11935	0.10869	1.977
Mof_Ga	Ga	0.94357	0.38815	0.59632	1.98
Mof_N 	N 	0.1228	0.11446	0.0071	-0.367
Mof_N 	N 	0.16326	0.15724	0.2081	-0.366
Mof_N 	N 	0.05618	0.23782	0.0952	-0.21
Mof_N 	N 	0.17828	0.08066	0.0122	-0.355
Mof_N 	N 	0.22531	0.17779	0.087	-0.367
Mof_N 	N 	0.3867	0.17726	0.9812	-0.211
Mof_N 	N 	0.21863	0.12549	0.2133	-0.347
Mof_N 	N 	0.11894	0.05862	0.1309	-0.364
Mof_N 	N 	0.16983	0.93549	0.2689	-0.191
Mof_N 	N 	0.96279	0.40529	0.7401	-0.371
Mof_N 	N 	0.92098	0.32124	0.5926	-0.351
Mof_N 	N 	0.00245	0.29157	0.9619	-0.208
Mof_N 	N 	0.96768	0.45432	0.6011	-0.365
Mof_N 	N 	0.8789	0.36864	0.5871	-0.366
Mof_N 	N 	0.4928	0.16802	0.9568	-0.21
Mof_N 	N 	0.92615	0.36721	0.4527	-0.37
Mof_N 	N 	0.00922	0.40724	0.6026	-0.353
Mof_N 	N 	0.02786	0.30926	0.2338	-0.198
Mof_N 	N 	0.30453	0.72381	0.392	-0.377
Mof_N 	N 	0.26648	0.64304	0.2349	-0.354
Mof_N 	N 	0.34564	0.61432	0.613	-0.217
Mof_N 	N 	0.22206	0.68752	0.23414	-0.359
Mof_N 	N 	0.57678	0.4672	0.8519	-0.352
Mof_N 	N 	0.47695	0.41035	0.7738	-0.366
Mof_N 	N 	0.49451	0.27399	0.9575	-0.208
Mof_N 	N 	0.48866	0.4684	0.6485	-0.359
Mof_O 	O 	0.19133	0.38631	0.1987	-0.208
Mof_O 	O 	0.1674	0.43362	0.2269	-0.223
Mof_O 	O 	0.11408	0.3565	0.1094	-0.255
Mof_O 	O 	0.70647	0.47505	0.25	-0.243
Mof_O 	O 	0.79	0.52302	0.3398	-0.258
Mof_O 	O 	0.74823	0.44521	0.2326	-0.21
Mof_O 	O 	0.06018	0.80052	0.9413	-0.259
Mof_O 	O 	0.1408	0.85624	0.0495	-0.241
Mof_O 	O 	0.09394	0.88362	0.0086	-0.15
Mof_S 	S 	0.16215	0.39705	0.16234	0.33
Mof_S 	S 	0.75087	0.48555	0.25659	0.335
Mof_S 	S 	0.10459	0.84487	0.97395	0.338
Mof_Ag	Ag	0.72238	0.97091	0.41149	0.725
Mof_Ag	Ag	0.79915	0.54163	0.52109	0.676
Mof_C 	C 	0.90763	0.89245	0.5868	0.054
Mof_H 	H 	0.9264	0.8852	0.6139	-0.013
Mof_C 	C 	0.89977	0.92027	0.6405	-0.054
Mof_H 	H 	0.9128	0.9356	0.7071	0.04
Mof_C 	C 	0.86928	0.92068	0.5764	-0.103
Mof_H 	H 	0.8565	0.9357	0.5912	0.062
Mof_C 	C 	0.86013	0.89393	0.482	0.122
Mof_C 	C 	0.83341	0.88613	0.3956	-0.182
Mof_C 	C 	0.82616	0.86126	0.3057	0.136
Mof_C 	C 	0.80114	0.85584	0.215	-0.118
Mof_H 	H 	0.7862	0.869	0.2039	0.069
Mof_C 	C 	0.80291	0.82863	0.1484	-0.036
Mof_H 	H 	0.7897	0.8193	0.0815	0.032
Mof_C 	C 	0.82806	0.8166	0.1964	0.041
Mof_H 	H 	0.8339	0.7971	0.1661	-0.006
Mof_C 	C 	0.80908	0.90764	0.3987	0.161
Mof_C 	C 	0.83355	0.95491	0.4239	-0.189
Mof_H 	H 	0.8669	0.9761	0.4397	0.101
Mof_C 	C 	0.8086	0.97232	0.4262	0.105
Mof_H 	H 	0.8258	0.0054	0.4437	0.019
Mof_C 	C 	0.73928	0.89842	0.3799	0.114
Mof_H 	H 	0.706	0.8776	0.3649	0.007
Mof_C 	C 	0.76181	0.87923	0.3747	-0.2
Mof_H 	H 	0.7436	0.846	0.354	0.101
Mof_C 	C 	0.96572	0.85018	0.5255	0.088
Mof_H 	H 	0.9864	0.8818	0.5245	-0.011
Mof_C 	C 	0.98118	0.82772	0.5682	-0.076
Mof_H 	H 	0.0126	0.8412	0.6004	0.125
Mof_C 	C 	0.9416	0.78346	0.5526	-0.07
Mof_H 	H 	0.9402	0.7594	0.5704	0.071
Mof_C 	C 	0.90214	0.77866	0.5054	0.114
Mof_C 	C 	0.85426	0.73964	0.4808	-0.177
Mof_C 	C 	0.81742	0.73862	0.4415	0.131
Mof_C 	C 	0.76836	0.70242	0.427	-0.104
Mof_H 	H 	0.7546	0.6734	0.4397	0.069
Mof_C 	C 	0.7444	0.71702	0.391	-0.051
Mof_H 	H 	0.7114	0.7004	0.375	0.043
Mof_C 	C 	0.7787	0.76126	0.3832	0.054
Mof_H 	H 	0.7722	0.7796	0.3597	-0.015
Mof_C 	C 	0.84285	0.69571	0.4957	0.168
Mof_C 	C 	0.82782	0.6808	0.5663	-0.215
Mof_H 	H 	0.8215	0.6967	0.6083	0.103
Mof_C 	C 	0.82121	0.64039	0.5785	0.125
Mof_H 	H 	0.8152	0.633	0.6352	-0.009
Mof_C 	C 	0.83579	0.62765	0.443	0.1
Mof_H 	H 	0.8382	0.6088	0.3979	0.026
Mof_C 	C 	0.84596	0.6684	0.4274	-0.182
Mof_H 	H 	0.8545	0.6771	0.3732	0.112
Mof_C 	C 	0.83585	0.73451	0.2457	0.063
Mof_H 	H 	0.8053	0.7201	0.251	-0.005
Mof_C 	C 	0.84881	0.71103	0.1945	-0.064
Mof_H 	H 	0.8284	0.6784	0.1596	0.104
Mof_C 	C 	0.89534	0.74292	0.2036	-0.07
Mof_H 	H 	0.9135	0.7369	0.177	0.071
Mof_C 	C 	0.91223	0.78869	0.2627	0.113
Mof_C 	C 	0.95686	0.83198	0.2858	-0.162
Mof_C 	C 	0.97094	0.87556	0.3307	0.123
Mof_C 	C 	0.0148	0.92116	0.3504	-0.1
Mof_H 	H 	0.0416	0.928	0.3351	0.065
Mof_C 	C 	0.01179	0.95385	0.3956	-0.048
Mof_H 	H 	0.0354	0.9872	0.4144	0.041
Mof_C 	C 	0.96741	0.92879	0.4083	0.045
Mof_H 	H 	0.9565	0.9429	0.44	-0.012
Mof_C 	C 	0.99413	0.83119	0.262	0.124
Mof_C 	C 	0.01189	0.81613	0.3166	-0.176
Mof_H 	H 	0.0001	0.8053	0.3667	0.114
Mof_C 	C 	0.04728	0.81678	0.2984	0.119
Mof_H 	H 	0.0597	0.8067	0.3381	0.007
Mof_C 	C 	0.0568	0.8622	0.1888	0.025
Mof_H 	H 	0.0754	0.8808	0.153	0.031
Mof_C 	C 	0.02125	0.86115	0.2077	-0.13
Mof_H 	H 	0.0146	0.8798	0.1856	0.071
Mof_C 	C 	0.55364	0.0218	0.7	0.043
Mof_H 	H 	0.5307	0.0219	0.7197	-0.01
Mof_C 	C 	0.54974	0.00564	0.6051	-0.04
Mof_H 	H 	0.5247	0.9941	0.5506	0.04
Mof_C 	C 	0.58873	0.00953	0.6056	-0.109
Mof_H 	H 	0.5956	0.0006	0.5521	0.075
Mof_C 	C 	0.61711	0.03001	0.7037	0.14
Mof_C 	C 	0.66043	0.04133	0.7376	-0.176
Mof_C 	C 	0.68947	0.06407	0.8326	0.115
Mof_C 	C 	0.73517	0.07705	0.8699	-0.066
Mof_H 	H 	0.7512	0.0708	0.8353	0.058
Mof_C 	C 	0.75078	0.10004	0.9645	-0.08
Mof_H 	H 	0.7801	0.1133	0.0086	0.115
Mof_C 	C 	0.7154	0.10048	0.9847	0.084
Mof_H 	H 	0.7174	0.1144	0.046	-0.009
Mof_C 	C 	0.67804	0.02644	0.6666	0.16
Mof_C 	C 	0.714	0.05848	0.6368	-0.206
Mof_H 	H 	0.7291	0.0911	0.66	0.096
Mof_C 	C 	0.7282	0.0428	0.5722	0.11
Mof_H 	H 	0.7531	0.0653	0.5511	-0.01
Mof_C 	C 	0.67398	0.96698	0.5694	0.112
Mof_H 	H 	0.6598	0.9346	0.5465	0.035
Mof_C 	C 	0.65796	0.97998	0.6333	-0.193
Mof_H 	H 	0.6333	0.9571	0.6542	0.126
Mof_C 	C 	0.50755	0.98721	0.8826	0.056
Mof_H 	H 	0.5079	0.9617	0.874	-0.015
Mof_C 	C 	0.46737	0.98255	0.88	-0.05
Mof_H 	H 	0.4366	0.954	0.8693	0.038
Mof_C 	C 	0.48032	0.02652	0.8957	-0.105
Mof_H 	H 	0.4604	0.0344	0.8982	0.062
Mof_C 	C 	0.52996	0.05854	0.9077	0.125
Mof_C 	C 	0.55826	0.10624	0.9208	-0.176
Mof_C 	C 	0.60483	0.13659	0.9241	0.123
Mof_C 	C 	0.63636	0.18676	0.9458	-0.106
Mof_H 	H 	0.6284	0.2066	0.9576	0.061
Mof_C 	C 	0.67974	0.20114	0.9465	-0.045
Mof_H 	H 	0.7074	0.2326	0.9579	0.035
Mof_C 	C 	0.67556	0.1605	0.927	0.051
Mof_H 	H 	0.701	0.1608	0.924	-0.015
Mof_C 	C 	0.53519	0.12923	0.9331	0.147
Mof_C 	C 	0.52465	0.13477	0.0167	-0.19
Mof_H 	H 	0.5316	0.1248	0.0663	0.095
Mof_C 	C 	0.50396	0.15504	0.0261	0.102
Mof_H 	H 	0.4975	0.1599	0.0837	0.005
Mof_C 	C 	0.50226	0.16214	0.8766	0.1
Mof_H 	H 	0.4936	0.171	0.8268	0.007
Mof_C 	C 	0.52439	0.14341	0.8636	-0.195
Mof_H 	H 	0.5319	0.1405	0.8065	0.099
Mof_C 	C 	0.64543	0.11269	0.1084	0.056
Mof_H 	H 	0.6426	0.1344	0.0902	-0.013
Mof_C 	C 	0.66332	0.11706	0.2024	-0.051
Mof_H 	H 	0.6744	0.1416	0.2577	0.045
Mof_C 	C 	0.66187	0.07933	0.1992	-0.097
Mof_H 	H 	0.6719	0.0727	0.252	0.07
Mof_C 	C 	0.64245	0.05163	0.1012	0.124
Mof_C 	C 	0.63464	0.0098	0.0642	-0.165
Mof_C 	C 	0.61094	0.9806	0.9684	0.115
Mof_C 	C 	0.60031	0.93689	0.9293	-0.073
Mof_H 	H 	0.6092	0.9222	0.9621	0.057
Mof_C 	C 	0.57518	0.9201	0.8362	-0.079
Mof_H 	H 	0.5623	0.8911	0.7917	0.109
Mof_C 	C 	0.57202	0.95436	0.8187	0.08
Mof_H 	H 	0.5569	0.9519	0.7581	-0.008
Mof_C 	C 	0.65295	0.99495	0.1313	0.141
Mof_C 	C 	0.62463	0.95323	0.1528	-0.185
Mof_H 	H 	0.5916	0.9316	0.1217	0.089
Mof_C 	C 	0.64484	0.94328	0.2202	0.1
Mof_H 	H 	0.6249	0.9145	0.2339	-0.003
Mof_C 	C 	0.71824	0.012	0.2442	0.097
Mof_H 	H 	0.7512	0.0328	0.2761	0.045
Mof_C 	C 	0.70142	0.02452	0.1782	-0.168
Mof_H 	H 	0.7226	0.053	0.1645	0.121
Mof_C 	C 	0.23734	0.68036	0.0439	0.063
Mof_H 	H 	0.2133	0.6799	0.059	-0.015
Mof_C 	C 	0.23614	0.66494	0.9505	-0.049
Mof_H 	H 	0.2121	0.6531	0.8933	0.047
Mof_C 	C 	0.27603	0.67037	0.9585	-0.097
Mof_H 	H 	0.2851	0.6625	0.9077	0.076
Mof_C 	C 	0.30175	0.68995	0.0569	0.13
Mof_C 	C 	0.34468	0.70106	0.0977	-0.176
Mof_C 	C 	0.37122	0.72168	0.1923	0.118
Mof_C 	C 	0.41665	0.73615	0.234	-0.066
Mof_H 	H 	0.4347	0.7323	0.2014	0.07
Mof_C 	C 	0.42956	0.75658	0.3297	-0.077
Mof_H 	H 	0.4584	0.77	0.3759	0.136
Mof_C 	C 	0.39242	0.75394	0.3461	0.088
Mof_H 	H 	0.3921	0.7651	0.4072	-0.002
Mof_C 	C 	0.36256	0.68666	0.029	0.156
Mof_C 	C 	0.39154	0.71602	0.9828	-0.204
Mof_H 	H 	0.4041	0.7479	0.9984	0.098
Mof_C 	C 	0.40209	0.69789	0.9124	0.122
Mof_H 	H 	0.4224	0.7184	0.8812	-0.016
Mof_C 	C 	0.35918	0.62654	0.9341	0.113
Mof_H 	H 	0.3481	0.5951	0.9174	0.019
Mof_C 	C 	0.34676	0.64082	0.0069	-0.181
Mof_H 	H 	0.3282	0.62	0.0399	0.129
Mof_C 	C 	0.35708	0.81658	0.2873	0.059
Mof_H 	H 	0.3827	0.8165	0.2901	-0.014
Mof_C 	C 	0.36184	0.85758	0.3054	-0.052
Mof_H 	H 	0.3903	0.8891	0.3226	0.039
Mof_C 	C 	0.31737	0.84305	0.2935	-0.105
Mof_H 	H 	0.3091	0.8627	0.3004	0.061
Mof_C 	C 	0.28558	0.79266	0.2686	0.125
Mof_C 	C 	0.20842	0.8001	0.1744	-0.185
Mof_H 	H 	0.2186	0.7968	0.1216	0.091
Mof_C 	C 	0.18693	0.81985	0.1768	0.093
Mof_H 	H 	0.1817	0.8289	0.1236	0.006
Mof_C 	C 	0.50116	0.377	0.6157	0.094
Mof_H 	H 	0.4715	0.3595	0.627	-0.011
Mof_C 	C 	0.51568	0.35638	0.5627	-0.08
Mof_H 	H 	0.4986	0.3238	0.5323	0.13
Mof_C 	C 	0.55981	0.39355	0.5644	-0.067
Mof_H 	H 	0.5798	0.3914	0.5358	0.069
Mof_C 	C 	0.57055	0.43559	0.6163	0.119
Mof_C 	C 	0.61143	0.48189	0.6317	-0.167
Mof_C 	C 	0.62031	0.52299	0.6822	0.125
Mof_C 	C 	0.66026	0.57036	0.6964	-0.098
Mof_H 	H 	0.6861	0.5801	0.6731	0.072
Mof_C 	C 	0.65527	0.59911	0.7486	-0.049
Mof_H 	H 	0.6766	0.6326	0.7695	0.044
Mof_C 	C 	0.61209	0.56923	0.7654	0.057
Mof_H 	H 	0.5998	0.5804	0.8009	-0.014
Mof_C 	C 	0.64968	0.48884	0.5967	0.147
Mof_C 	C 	0.64929	0.48415	0.5039	-0.196
Mof_H 	H 	0.6228	0.475	0.4564	0.094
Mof_C 	C 	0.68762	0.49282	0.4793	0.108
Mof_H 	H 	0.6866	0.4896	0.4146	-0.013
Mof_C 	C 	0.72565	0.50861	0.6309	0.111
Mof_H 	H 	0.7523	0.5165	0.6756	0.015
Mof_C 	C 	0.69009	0.50141	0.6648	-0.18
Mof_H 	H 	0.6922	0.5046	0.73	0.132
Mof_C 	C 	0.55424	0.52762	0.9433	0.059
Mof_H 	H 	0.5736	0.5212	0.9711	-0.015
Mof_C 	C 	0.54603	0.55613	0.9959	-0.05
Mof_H 	H 	0.5579	0.5713	0.0626	0.039
Mof_C 	C 	0.51719	0.55647	0.9285	-0.107
Mof_H 	H 	0.5057	0.5731	0.9403	0.063
Mof_C 	C 	0.50708	0.5284	0.8386	0.127
Mof_C 	C 	0.42025	0.52593	0.7867	-0.173
Mof_H 	H 	0.4088	0.5008	0.8131	0.09
Mof_C 	C 	0.3997	0.5478	0.7834	0.085
Mof_H 	H 	0.3734	0.5362	0.8059	0.009
Mof_C 	C 	0.57629	0.81411	0.4261	0.816
Mof_C 	C 	0.48891	0.23171	0.3391	0.825
Mof_C 	C 	0.13342	0.87598	0.6197	0.782
Mof_F 	F 	0.56368	0.83684	0.4662	-0.457
Mof_F 	F 	0.60568	0.8176	0.4952	-0.46
Mof_F 	F 	0.53735	0.76941	0.3895	-0.468
Mof_F 	F 	0.47769	0.19189	0.3451	-0.465
Mof_F 	F 	0.45071	0.22735	0.3272	-0.46
Mof_F 	F 	0.5188	0.2644	0.4224	-0.468
Mof_F 	F 	0.08519	0.83955	0.5774	-0.455
Mof_F 	F 	0.13519	0.90921	0.6753	-0.447
Mof_F 	F 	0.1628	0.86846	0.6444	-0.504
Mof_Ga	Ga	0.88065	0.8301	0.39131	1.976
Mof_Ga	Ga	0.61185	0.05643	0.90368	1.979
Mof_N 	N 	0.88554	0.8772	0.4929	-0.367
Mof_N 	N 	0.84276	0.83674	0.2919	-0.366
Mof_N 	N 	0.76218	0.94382	0.4048	-0.21
Mof_N 	N 	0.91934	0.82172	0.4878	-0.355
Mof_N 	N 	0.82221	0.77469	0.413	-0.367
Mof_N 	N 	0.82274	0.6133	0.5188	-0.21
Mof_N 	N 	0.87451	0.78137	0.2867	-0.347
Mof_N 	N 	0.94138	0.88106	0.3691	-0.364
Mof_N 	N 	0.06451	0.83017	0.2311	-0.19
Mof_N 	N 	0.59471	0.03721	0.7599	-0.371
Mof_N 	N 	0.67876	0.07902	0.9074	-0.351
Mof_N 	N 	0.70843	0.99755	0.5381	-0.208
Mof_N 	N 	0.54568	0.03232	0.8989	-0.365
Mof_N 	N 	0.63136	0.1211	0.9129	-0.366
Mof_N 	N 	0.83198	0.5072	0.5432	-0.21
Mof_N 	N 	0.63279	0.07385	0.0473	-0.37
Mof_N 	N 	0.59276	0.99078	0.8974	-0.352
Mof_N 	N 	0.69074	0.97214	0.2662	-0.198
Mof_N 	N 	0.27619	0.69547	0.108	-0.377
Mof_N 	N 	0.35696	0.73352	0.2651	-0.354
Mof_N 	N 	0.38568	0.65436	0.887	-0.217
Mof_N 	N 	0.31248	0.77794	0.26586	-0.359
Mof_N 	N 	0.5328	0.42322	0.6481	-0.352
Mof_N 	N 	0.58965	0.52305	0.7262	-0.366
Mof_N 	N 	0.72601	0.50549	0.5425	-0.207
Mof_N 	N 	0.5316	0.51134	0.8515	-0.359
Mof_O 	O 	0.61369	0.80867	0.3013	-0.208
Mof_O 	O 	0.56638	0.8326	0.2731	-0.223
Mof_O 	O 	0.6435	0.88592	0.3906	-0.255
Mof_O 	O 	0.52495	0.29353	0.25	-0.243
Mof_O 	O 	0.47698	0.21	0.1602	-0.258
Mof_O 	O 	0.55479	0.25177	0.2674	-0.21
Mof_O 	O 	0.19948	0.93982	0.5587	-0.259
Mof_O 	O 	0.14376	0.8592	0.4505	-0.24
Mof_O 	O 	0.11638	0.90606	0.4914	-0.149
Mof_S 	S 	0.60295	0.83785	0.33766	0.33
Mof_S 	S 	0.51445	0.24913	0.24341	0.335
Mof_S 	S 	0.15513	0.89541	0.52605	0.336
Mof_Ag	Ag	0.97091	0.72238	0.91149	0.725
Mof_Ag	Ag	0.54163	0.79915	0.02109	0.675
Mof_C 	C 	0.89245	0.90763	0.0868	0.053
Mof_H 	H 	0.8852	0.9264	0.1139	-0.013
Mof_C 	C 	0.92027	0.89977	0.1405	-0.054
Mof_H 	H 	0.9356	0.9128	0.2071	0.04
Mof_C 	C 	0.92068	0.86928	0.0764	-0.103
Mof_H 	H 	0.9357	0.8565	0.0912	0.062
Mof_C 	C 	0.89393	0.86013	0.982	0.123
Mof_C 	C 	0.88613	0.83341	0.8956	-0.183
Mof_C 	C 	0.86126	0.82616	0.8057	0.136
Mof_C 	C 	0.85584	0.80114	0.715	-0.118
Mof_H 	H 	0.869	0.7862	0.7039	0.069
Mof_C 	C 	0.82863	0.80291	0.6484	-0.036
Mof_H 	H 	0.8193	0.7897	0.5815	0.033
Mof_C 	C 	0.8166	0.82806	0.6964	0.041
Mof_H 	H 	0.7971	0.8339	0.6661	-0.006
Mof_C 	C 	0.90764	0.80908	0.8987	0.161
Mof_C 	C 	0.95491	0.83355	0.9239	-0.189
Mof_H 	H 	0.9761	0.8669	0.9397	0.101
Mof_C 	C 	0.97232	0.8086	0.9262	0.105
Mof_H 	H 	0.0054	0.8258	0.9437	0.019
Mof_C 	C 	0.89842	0.73928	0.8799	0.114
Mof_H 	H 	0.8776	0.706	0.8649	0.007
Mof_C 	C 	0.87923	0.76181	0.8747	-0.2
Mof_H 	H 	0.846	0.7436	0.854	0.101
Mof_C 	C 	0.85018	0.96572	0.0255	0.088
Mof_H 	H 	0.8818	0.9864	0.0245	-0.011
Mof_C 	C 	0.82772	0.98118	0.0682	-0.077
Mof_H 	H 	0.8412	0.0126	0.1004	0.126
Mof_C 	C 	0.78346	0.9416	0.0526	-0.069
Mof_H 	H 	0.7594	0.9402	0.0704	0.07
Mof_C 	C 	0.77866	0.90214	0.0054	0.113
Mof_C 	C 	0.73964	0.85426	0.9808	-0.176
Mof_C 	C 	0.73862	0.81742	0.9415	0.131
Mof_C 	C 	0.70242	0.76836	0.927	-0.104
Mof_H 	H 	0.6734	0.7546	0.9397	0.069
Mof_C 	C 	0.71702	0.7444	0.891	-0.051
Mof_H 	H 	0.7004	0.7114	0.875	0.043
Mof_C 	C 	0.76126	0.7787	0.8832	0.054
Mof_H 	H 	0.7796	0.7722	0.8597	-0.015
Mof_C 	C 	0.69571	0.84285	0.9957	0.169
Mof_C 	C 	0.6808	0.82782	0.0663	-0.216
Mof_H 	H 	0.6967	0.8215	0.1083	0.103
Mof_C 	C 	0.64039	0.82121	0.0785	0.125
Mof_H 	H 	0.633	0.8152	0.1352	-0.009
Mof_C 	C 	0.62765	0.83579	0.943	0.1
Mof_H 	H 	0.6088	0.8382	0.8979	0.026
Mof_C 	C 	0.6684	0.84596	0.9274	-0.182
Mof_H 	H 	0.6771	0.8545	0.8732	0.113
Mof_C 	C 	0.73451	0.83585	0.7457	0.063
Mof_H 	H 	0.7201	0.8053	0.751	-0.005
Mof_C 	C 	0.71103	0.84881	0.6945	-0.064
Mof_H 	H 	0.6784	0.8284	0.6596	0.104
Mof_C 	C 	0.74292	0.89534	0.7036	-0.07
Mof_H 	H 	0.7369	0.9135	0.677	0.071
Mof_C 	C 	0.78869	0.91223	0.7627	0.113
Mof_C 	C 	0.83198	0.95686	0.7858	-0.162
Mof_C 	C 	0.87556	0.97094	0.8307	0.124
Mof_C 	C 	0.92116	0.0148	0.8504	-0.1
Mof_H 	H 	0.928	0.0416	0.8351	0.065
Mof_C 	C 	0.95385	0.01179	0.8956	-0.049
Mof_H 	H 	0.9872	0.0354	0.9144	0.041
Mof_C 	C 	0.92879	0.96741	0.9083	0.045
Mof_H 	H 	0.9429	0.9565	0.94	-0.012
Mof_C 	C 	0.83119	0.99413	0.762	0.125
Mof_C 	C 	0.81613	0.01189	0.8166	-0.177
Mof_H 	H 	0.8053	0.0001	0.8667	0.114
Mof_C 	C 	0.81678	0.04728	0.7984	0.119
Mof_H 	H 	0.8067	0.0597	0.8381	0.007
Mof_C 	C 	0.8622	0.0568	0.6888	0.026
Mof_H 	H 	0.8808	0.0754	0.653	0.031
Mof_C 	C 	0.86115	0.02125	0.7077	-0.131
Mof_H 	H 	0.8798	0.0146	0.6856	0.071
Mof_C 	C 	0.0218	0.55364	0.2	0.044
Mof_H 	H 	0.0219	0.5307	0.2197	-0.01
Mof_C 	C 	0.00564	0.54974	0.1051	-0.041
Mof_H 	H 	0.9941	0.5247	0.0506	0.04
Mof_C 	C 	0.00953	0.58873	0.1056	-0.109
Mof_H 	H 	0.0006	0.5956	0.0521	0.074
Mof_C 	C 	0.03001	0.61711	0.2037	0.14
Mof_C 	C 	0.04133	0.66043	0.2376	-0.176
Mof_C 	C 	0.06407	0.68947	0.3326	0.115
Mof_C 	C 	0.07705	0.73517	0.3699	-0.066
Mof_H 	H 	0.0708	0.7512	0.3353	0.058
Mof_C 	C 	0.10004	0.75078	0.4645	-0.079
Mof_H 	H 	0.1133	0.7801	0.5086	0.114
Mof_C 	C 	0.10048	0.7154	0.4847	0.085
Mof_H 	H 	0.1144	0.7174	0.546	-0.009
Mof_C 	C 	0.02644	0.67804	0.1666	0.16
Mof_C 	C 	0.05848	0.714	0.1368	-0.205
Mof_H 	H 	0.0911	0.7291	0.16	0.096
Mof_C 	C 	0.0428	0.7282	0.0722	0.109
Mof_H 	H 	0.0653	0.7531	0.0511	-0.01
Mof_C 	C 	0.96698	0.67398	0.0694	0.112
Mof_H 	H 	0.9346	0.6598	0.0465	0.035
Mof_C 	C 	0.97998	0.65796	0.1333	-0.193
Mof_H 	H 	0.9571	0.6333	0.1542	0.126
Mof_C 	C 	0.98721	0.50755	0.3826	0.055
Mof_H 	H 	0.9617	0.5079	0.374	-0.015
Mof_C 	C 	0.98255	0.46737	0.38	-0.051
Mof_H 	H 	0.954	0.4366	0.3693	0.038
Mof_C 	C 	0.02652	0.48032	0.3957	-0.104
Mof_H 	H 	0.0344	0.4604	0.3982	0.061
Mof_C 	C 	0.05854	0.52996	0.4077	0.125
Mof_C 	C 	0.10624	0.55826	0.4208	-0.176
Mof_C 	C 	0.13659	0.60483	0.4241	0.123
Mof_C 	C 	0.18676	0.63636	0.4458	-0.106
Mof_H 	H 	0.2066	0.6284	0.4576	0.061
Mof_C 	C 	0.20114	0.67974	0.4465	-0.045
Mof_H 	H 	0.2326	0.7074	0.4579	0.035
Mof_C 	C 	0.1605	0.67556	0.427	0.051
Mof_H 	H 	0.1608	0.701	0.424	-0.015
Mof_C 	C 	0.12923	0.53519	0.4331	0.147
Mof_C 	C 	0.13477	0.52465	0.5167	-0.191
Mof_H 	H 	0.1248	0.5316	0.5663	0.095
Mof_C 	C 	0.15504	0.50396	0.5261	0.102
Mof_H 	H 	0.1599	0.4975	0.5837	0.005
Mof_C 	C 	0.16214	0.50226	0.3766	0.1
Mof_H 	H 	0.171	0.4936	0.3268	0.007
Mof_C 	C 	0.14341	0.52439	0.3636	-0.196
Mof_H 	H 	0.1405	0.5319	0.3065	0.099
Mof_C 	C 	0.11269	0.64543	0.6084	0.056
Mof_H 	H 	0.1344	0.6426	0.5902	-0.013
Mof_C 	C 	0.11706	0.66332	0.7024	-0.051
Mof_H 	H 	0.1416	0.6744	0.7577	0.045
Mof_C 	C 	0.07933	0.66187	0.6992	-0.097
Mof_H 	H 	0.0727	0.6719	0.752	0.07
Mof_C 	C 	0.05163	0.64245	0.6012	0.124
Mof_C 	C 	0.0098	0.63464	0.5642	-0.166
Mof_C 	C 	0.9806	0.61094	0.4684	0.115
Mof_C 	C 	0.93689	0.60031	0.4293	-0.073
Mof_H 	H 	0.9222	0.6092	0.4621	0.057
Mof_C 	C 	0.9201	0.57518	0.3362	-0.079
Mof_H 	H 	0.8911	0.5623	0.2917	0.109
Mof_C 	C 	0.95436	0.57202	0.3187	0.08
Mof_H 	H 	0.9519	0.5569	0.2581	-0.008
Mof_C 	C 	0.99495	0.65295	0.6313	0.142
Mof_C 	C 	0.95323	0.62463	0.6528	-0.186
Mof_H 	H 	0.9316	0.5916	0.6217	0.089
Mof_C 	C 	0.94328	0.64484	0.7202	0.1
Mof_H 	H 	0.9145	0.6249	0.7339	-0.003
Mof_C 	C 	0.012	0.71824	0.7442	0.097
Mof_H 	H 	0.0328	0.7512	0.7761	0.044
Mof_C 	C 	0.02452	0.70142	0.6782	-0.169
Mof_H 	H 	0.053	0.7226	0.6645	0.121
Mof_C 	C 	0.68036	0.23734	0.5439	0.064
Mof_H 	H 	0.6799	0.2133	0.559	-0.016
Mof_C 	C 	0.66494	0.23614	0.4505	-0.049
Mof_H 	H 	0.6531	0.2121	0.3933	0.047
Mof_C 	C 	0.67037	0.27603	0.4585	-0.097
Mof_H 	H 	0.6625	0.2851	0.4077	0.076
Mof_C 	C 	0.68995	0.30175	0.5569	0.131
Mof_C 	C 	0.70106	0.34468	0.5977	-0.177
Mof_C 	C 	0.72168	0.37122	0.6923	0.118
Mof_C 	C 	0.73615	0.41665	0.734	-0.066
Mof_H 	H 	0.7323	0.4347	0.7014	0.07
Mof_C 	C 	0.75658	0.42956	0.8297	-0.077
Mof_H 	H 	0.77	0.4584	0.8759	0.136
Mof_C 	C 	0.75394	0.39242	0.8461	0.088
Mof_H 	H 	0.7651	0.3921	0.9072	-0.003
Mof_C 	C 	0.68666	0.36256	0.529	0.156
Mof_C 	C 	0.71602	0.39154	0.4828	-0.205
Mof_H 	H 	0.7479	0.4041	0.4984	0.099
Mof_C 	C 	0.69789	0.40209	0.4124	0.122
Mof_H 	H 	0.7184	0.4224	0.3812	-0.016
Mof_C 	C 	0.62654	0.35918	0.4341	0.112
Mof_H 	H 	0.5951	0.3481	0.4174	0.019
Mof_C 	C 	0.64082	0.34676	0.5069	-0.181
Mof_H 	H 	0.62	0.3282	0.5399	0.129
Mof_C 	C 	0.81658	0.35708	0.7873	0.059
Mof_H 	H 	0.8165	0.3827	0.7901	-0.014
Mof_C 	C 	0.85758	0.36184	0.8054	-0.052
Mof_H 	H 	0.8891	0.3903	0.8226	0.039
Mof_C 	C 	0.84305	0.31737	0.7935	-0.105
Mof_H 	H 	0.8627	0.3091	0.8004	0.061
Mof_C 	C 	0.79266	0.28558	0.7686	0.125
Mof_C 	C 	0.8001	0.20842	0.6744	-0.185
Mof_H 	H 	0.7968	0.2186	0.6216	0.091
Mof_C 	C 	0.81985	0.18693	0.6768	0.093
Mof_H 	H 	0.8289	0.1817	0.6236	0.006
Mof_C 	C 	0.377	0.50116	0.1157	0.094
Mof_H 	H 	0.3595	0.4715	0.127	-0.011
Mof_C 	C 	0.35638	0.51568	0.0627	-0.08
Mof_H 	H 	0.3238	0.4986	0.0323	0.13
Mof_C 	C 	0.39355	0.55981	0.0644	-0.067
Mof_H 	H 	0.3914	0.5798	0.0358	0.069
Mof_C 	C 	0.43559	0.57055	0.1163	0.119
Mof_C 	C 	0.48189	0.61143	0.1317	-0.167
Mof_C 	C 	0.52299	0.62031	0.1822	0.125
Mof_C 	C 	0.57036	0.66026	0.1964	-0.098
Mof_H 	H 	0.5801	0.6861	0.1731	0.072
Mof_C 	C 	0.59911	0.65527	0.2486	-0.049
Mof_H 	H 	0.6326	0.6766	0.2695	0.044
Mof_C 	C 	0.56923	0.61209	0.2654	0.057
Mof_H 	H 	0.5804	0.5998	0.3009	-0.014
Mof_C 	C 	0.48884	0.64968	0.0967	0.148
Mof_C 	C 	0.48415	0.64929	0.0039	-0.198
Mof_H 	H 	0.475	0.6228	0.9564	0.095
Mof_C 	C 	0.49282	0.68762	0.9793	0.11
Mof_H 	H 	0.4896	0.6866	0.9146	-0.014
Mof_C 	C 	0.50861	0.72565	0.1309	0.112
Mof_H 	H 	0.5165	0.7523	0.1756	0.015
Mof_C 	C 	0.50141	0.69009	0.1648	-0.181
Mof_H 	H 	0.5046	0.6922	0.23	0.132
Mof_C 	C 	0.52762	0.55424	0.4433	0.059
Mof_H 	H 	0.5212	0.5736	0.4711	-0.015
Mof_C 	C 	0.55613	0.54603	0.4959	-0.05
Mof_H 	H 	0.5713	0.5579	0.5626	0.039
Mof_C 	C 	0.55647	0.51719	0.4285	-0.107
Mof_H 	H 	0.5731	0.5057	0.4403	0.063
Mof_C 	C 	0.5284	0.50708	0.3386	0.127
Mof_C 	C 	0.52593	0.42025	0.2867	-0.173
Mof_H 	H 	0.5008	0.4088	0.3131	0.09
Mof_C 	C 	0.5478	0.3997	0.2834	0.085
Mof_H 	H 	0.5362	0.3734	0.3059	0.009
Mof_C 	C 	0.81411	0.57629	0.9261	0.816
Mof_C 	C 	0.23171	0.48891	0.8391	0.825
Mof_C 	C 	0.87598	0.13342	0.1197	0.782
Mof_F 	F 	0.83684	0.56368	0.9662	-0.457
Mof_F 	F 	0.8176	0.60568	0.9952	-0.461
Mof_F 	F 	0.76941	0.53735	0.8895	-0.468
Mof_F 	F 	0.19189	0.47769	0.8451	-0.465
Mof_F 	F 	0.22735	0.45071	0.8272	-0.46
Mof_F 	F 	0.2644	0.5188	0.9224	-0.468
Mof_F 	F 	0.83955	0.08519	0.0774	-0.455
Mof_F 	F 	0.90921	0.13519	0.1753	-0.447
Mof_F 	F 	0.86846	0.1628	0.1444	-0.504
Mof_Ga	Ga	0.8301	0.88065	0.89131	1.977
Mof_Ga	Ga	0.05643	0.61185	0.40368	1.98
Mof_N 	N 	0.8772	0.88554	0.9929	-0.367
Mof_N 	N 	0.83674	0.84276	0.7919	-0.366
Mof_N 	N 	0.94382	0.76218	0.9048	-0.21
Mof_N 	N 	0.82172	0.91934	0.9878	-0.355
Mof_N 	N 	0.77469	0.82221	0.913	-0.367
Mof_N 	N 	0.6133	0.82274	0.0188	-0.211
Mof_N 	N 	0.78137	0.87451	0.7867	-0.347
Mof_N 	N 	0.88106	0.94138	0.8691	-0.364
Mof_N 	N 	0.83017	0.06451	0.7311	-0.191
Mof_N 	N 	0.03721	0.59471	0.2599	-0.371
Mof_N 	N 	0.07902	0.67876	0.4074	-0.351
Mof_N 	N 	0.99755	0.70843	0.0381	-0.208
Mof_N 	N 	0.03232	0.54568	0.3989	-0.365
Mof_N 	N 	0.1211	0.63136	0.4129	-0.366
Mof_N 	N 	0.5072	0.83198	0.0432	-0.21
Mof_N 	N 	0.07385	0.63279	0.5473	-0.37
Mof_N 	N 	0.99078	0.59276	0.3974	-0.353
Mof_N 	N 	0.97214	0.69074	0.7662	-0.198
Mof_N 	N 	0.69547	0.27619	0.608	-0.377
Mof_N 	N 	0.73352	0.35696	0.7651	-0.354
Mof_N 	N 	0.65436	0.38568	0.387	-0.217
Mof_N 	N 	0.77794	0.31248	0.76586	-0.359
Mof_N 	N 	0.42322	0.5328	0.1481	-0.352
Mof_N 	N 	0.52305	0.58965	0.2262	-0.366
Mof_N 	N 	0.50549	0.72601	0.0425	-0.208
Mof_N 	N 	0.51134	0.5316	0.3515	-0.359
Mof_O 	O 	0.80867	0.61369	0.8013	-0.208
Mof_O 	O 	0.8326	0.56638	0.7731	-0.223
Mof_O 	O 	0.88592	0.6435	0.8906	-0.255
Mof_O 	O 	0.29353	0.52495	0.75	-0.243
Mof_O 	O 	0.21	0.47698	0.6602	-0.258
Mof_O 	O 	0.25177	0.55479	0.7674	-0.21
Mof_O 	O 	0.93982	0.19948	0.0587	-0.259
Mof_O 	O 	0.8592	0.14376	0.9505	-0.241
Mof_O 	O 	0.90606	0.11638	0.9914	-0.15
Mof_S 	S 	0.83785	0.60295	0.83766	0.33
Mof_S 	S 	0.24913	0.51445	0.74341	0.335
Mof_S 	S 	0.89541	0.15513	0.02605	0.338
Mof_Ag	Ag	0.27762	0.02909	0.58851	0.725
Mof_Ag	Ag	0.20085	0.45837	0.47891	0.676
Mof_C 	C 	0.09237	0.10755	0.4132	0.054
Mof_H 	H 	0.0736	0.1148	0.3861	-0.013
Mof_C 	C 	0.10023	0.07973	0.3595	-0.054
Mof_H 	H 	0.0872	0.0644	0.2929	0.04
Mof_C 	C 	0.13072	0.07932	0.4236	-0.103
Mof_H 	H 	0.1435	0.0643	0.4088	0.062
Mof_C 	C 	0.13987	0.10607	0.518	0.122
Mof_C 	C 	0.16659	0.11387	0.6044	-0.182
Mof_C 	C 	0.17384	0.13874	0.6943	0.136
Mof_C 	C 	0.19886	0.14416	0.785	-0.118
Mof_H 	H 	0.2138	0.131	0.7961	0.069
Mof_C 	C 	0.19709	0.17137	0.8516	-0.036
Mof_H 	H 	0.2103	0.1807	0.9185	0.032
Mof_C 	C 	0.17194	0.1834	0.8036	0.041
Mof_H 	H 	0.1661	0.2029	0.8339	-0.006
Mof_C 	C 	0.19092	0.09236	0.6013	0.161
Mof_C 	C 	0.16645	0.04509	0.5761	-0.189
Mof_H 	H 	0.1331	0.0239	0.5603	0.101
Mof_C 	C 	0.1914	0.02768	0.5738	0.105
Mof_H 	H 	0.1742	0.9946	0.5563	0.019
Mof_C 	C 	0.26072	0.10158	0.6201	0.114
Mof_H 	H 	0.294	0.1224	0.6351	0.007
Mof_C 	C 	0.23819	0.12077	0.6253	-0.2
Mof_H 	H 	0.2564	0.154	0.646	0.101
Mof_C 	C 	0.03428	0.14982	0.4745	0.088
Mof_H 	H 	0.0136	0.1182	0.4755	-0.011
Mof_C 	C 	0.01882	0.17228	0.4318	-0.076
Mof_H 	H 	0.9874	0.1588	0.3996	0.125
Mof_C 	C 	0.0584	0.21654	0.4474	-0.07
Mof_H 	H 	0.0598	0.2406	0.4296	0.071
Mof_C 	C 	0.09786	0.22134	0.4946	0.114
Mof_C 	C 	0.14574	0.26036	0.5192	-0.177
Mof_C 	C 	0.18258	0.26138	0.5585	0.131
Mof_C 	C 	0.23164	0.29758	0.573	-0.104
Mof_H 	H 	0.2454	0.3266	0.5603	0.069
Mof_C 	C 	0.2556	0.28298	0.609	-0.051
Mof_H 	H 	0.2886	0.2996	0.625	0.043
Mof_C 	C 	0.2213	0.23874	0.6168	0.054
Mof_H 	H 	0.2278	0.2204	0.6403	-0.015
Mof_C 	C 	0.15715	0.30429	0.5043	0.168
Mof_C 	C 	0.17218	0.3192	0.4337	-0.215
Mof_H 	H 	0.1785	0.3033	0.3917	0.103
Mof_C 	C 	0.17879	0.35961	0.4215	0.125
Mof_H 	H 	0.1848	0.367	0.3648	-0.009
Mof_C 	C 	0.16421	0.37235	0.557	0.1
Mof_H 	H 	0.1618	0.3912	0.6021	0.026
Mof_C 	C 	0.15404	0.3316	0.5726	-0.182
Mof_H 	H 	0.1455	0.3229	0.6268	0.112
Mof_C 	C 	0.16415	0.26549	0.7543	0.063
Mof_H 	H 	0.1947	0.2799	0.749	-0.005
Mof_C 	C 	0.15119	0.28897	0.8055	-0.064
Mof_H 	H 	0.1716	0.3216	0.8404	0.104
Mof_C 	C 	0.10466	0.25708	0.7964	-0.07
Mof_H 	H 	0.0865	0.2631	0.823	0.071
Mof_C 	C 	0.08777	0.21131	0.7373	0.113
Mof_C 	C 	0.04314	0.16802	0.7142	-0.162
Mof_C 	C 	0.02906	0.12444	0.6693	0.123
Mof_C 	C 	0.9852	0.07884	0.6496	-0.1
Mof_H 	H 	0.9584	0.072	0.6649	0.065
Mof_C 	C 	0.98821	0.04615	0.6044	-0.048
Mof_H 	H 	0.9646	0.0128	0.5856	0.041
Mof_C 	C 	0.03259	0.07121	0.5917	0.045
Mof_H 	H 	0.0435	0.0571	0.56	-0.012
Mof_C 	C 	0.00587	0.16881	0.738	0.124
Mof_C 	C 	0.98811	0.18387	0.6834	-0.176
Mof_H 	H 	0.9999	0.1947	0.6333	0.114
Mof_C 	C 	0.95272	0.18322	0.7016	0.119
Mof_H 	H 	0.9403	0.1933	0.6619	0.007
Mof_C 	C 	0.9432	0.1378	0.8112	0.025
Mof_H 	H 	0.9246	0.1192	0.847	0.031
Mof_C 	C 	0.97875	0.13885	0.7923	-0.13
Mof_H 	H 	0.9854	0.1202	0.8144	0.071
Mof_C 	C 	0.44636	0.9782	0.3	0.043
Mof_H 	H 	0.4693	0.9781	0.2803	-0.01
Mof_C 	C 	0.45026	0.99436	0.3949	-0.04
Mof_H 	H 	0.4753	0.0059	0.4494	0.04
Mof_C 	C 	0.41127	0.99047	0.3944	-0.109
Mof_H 	H 	0.4044	0.9994	0.4479	0.075
Mof_C 	C 	0.38289	0.96999	0.2963	0.14
Mof_C 	C 	0.33957	0.95867	0.2624	-0.176
Mof_C 	C 	0.31053	0.93593	0.1674	0.115
Mof_C 	C 	0.26483	0.92295	0.1301	-0.066
Mof_H 	H 	0.2488	0.9292	0.1647	0.058
Mof_C 	C 	0.24922	0.89996	0.0355	-0.08
Mof_H 	H 	0.2199	0.8867	0.9914	0.115
Mof_C 	C 	0.2846	0.89952	0.0153	0.084
Mof_H 	H 	0.2826	0.8856	0.954	-0.009
Mof_C 	C 	0.32196	0.97356	0.3334	0.16
Mof_C 	C 	0.286	0.94152	0.3632	-0.206
Mof_H 	H 	0.2709	0.9089	0.34	0.096
Mof_C 	C 	0.2718	0.9572	0.4278	0.11
Mof_H 	H 	0.2469	0.9347	0.4489	-0.01
Mof_C 	C 	0.32602	0.03302	0.4306	0.112
Mof_H 	H 	0.3402	0.0654	0.4535	0.035
Mof_C 	C 	0.34204	0.02002	0.3667	-0.193
Mof_H 	H 	0.3667	0.0429	0.3458	0.126
Mof_C 	C 	0.49245	0.01279	0.1174	0.056
Mof_H 	H 	0.4921	0.0383	0.126	-0.015
Mof_C 	C 	0.53263	0.01745	0.12	-0.05
Mof_H 	H 	0.5634	0.046	0.1307	0.038
Mof_C 	C 	0.51968	0.97348	0.1043	-0.105
Mof_H 	H 	0.5396	0.9656	0.1018	0.062
Mof_C 	C 	0.47004	0.94146	0.0923	0.125
Mof_C 	C 	0.44174	0.89376	0.0792	-0.176
Mof_C 	C 	0.39517	0.86341	0.0759	0.123
Mof_C 	C 	0.36364	0.81324	0.0542	-0.106
Mof_H 	H 	0.3716	0.7934	0.0424	0.061
Mof_C 	C 	0.32026	0.79886	0.0535	-0.045
Mof_H 	H 	0.2926	0.7674	0.0421	0.035
Mof_C 	C 	0.32444	0.8395	0.073	0.051
Mof_H 	H 	0.299	0.8392	0.076	-0.015
Mof_C 	C 	0.46481	0.87077	0.0669	0.147
Mof_C 	C 	0.47535	0.86523	0.9833	-0.19
Mof_H 	H 	0.4684	0.8752	0.9337	0.095
Mof_C 	C 	0.49604	0.84496	0.9739	0.102
Mof_H 	H 	0.5025	0.8401	0.9163	0.005
Mof_C 	C 	0.49774	0.83786	0.1234	0.1
Mof_H 	H 	0.5064	0.829	0.1732	0.007
Mof_C 	C 	0.47561	0.85659	0.1364	-0.195
Mof_H 	H 	0.4681	0.8595	0.1935	0.099
Mof_C 	C 	0.35457	0.88731	0.8916	0.056
Mof_H 	H 	0.3574	0.8656	0.9098	-0.013
Mof_C 	C 	0.33668	0.88294	0.7976	-0.051
Mof_H 	H 	0.3256	0.8584	0.7423	0.045
Mof_C 	C 	0.33813	0.92067	0.8008	-0.097
Mof_H 	H 	0.3281	0.9273	0.748	0.07
Mof_C 	C 	0.35755	0.94837	0.8988	0.124
Mof_C 	C 	0.36536	0.9902	0.9358	-0.165
Mof_C 	C 	0.38906	0.0194	0.0316	0.115
Mof_C 	C 	0.39969	0.06311	0.0707	-0.073
Mof_H 	H 	0.3908	0.0778	0.0379	0.057
Mof_C 	C 	0.42482	0.0799	0.1638	-0.079
Mof_H 	H 	0.4377	0.1089	0.2083	0.109
Mof_C 	C 	0.42798	0.04564	0.1813	0.08
Mof_H 	H 	0.4431	0.0481	0.2419	-0.008
Mof_C 	C 	0.34705	0.00505	0.8687	0.141
Mof_C 	C 	0.37537	0.04677	0.8472	-0.185
Mof_H 	H 	0.4084	0.0684	0.8783	0.089
Mof_C 	C 	0.35516	0.05672	0.7798	0.1
Mof_H 	H 	0.3751	0.0855	0.7661	-0.003
Mof_C 	C 	0.28176	0.988	0.7558	0.097
Mof_H 	H 	0.2488	0.9672	0.7239	0.045
Mof_C 	C 	0.29858	0.97548	0.8218	-0.168
Mof_H 	H 	0.2774	0.947	0.8355	0.121
Mof_C 	C 	0.76266	0.31964	0.9561	0.063
Mof_H 	H 	0.7867	0.3201	0.941	-0.015
Mof_C 	C 	0.76386	0.33506	0.0495	-0.049
Mof_H 	H 	0.7879	0.3469	0.1067	0.047
Mof_C 	C 	0.72397	0.32963	0.0415	-0.097
Mof_H 	H 	0.7149	0.3375	0.0923	0.076
Mof_C 	C 	0.69825	0.31005	0.9431	0.13
Mof_C 	C 	0.65532	0.29894	0.9023	-0.176
Mof_C 	C 	0.62878	0.27832	0.8077	0.118
Mof_C 	C 	0.58335	0.26385	0.766	-0.066
Mof_H 	H 	0.5653	0.2677	0.7986	0.07
Mof_C 	C 	0.57044	0.24342	0.6703	-0.077
Mof_H 	H 	0.5416	0.23	0.6241	0.136
Mof_C 	C 	0.60758	0.24606	0.6539	0.088
Mof_H 	H 	0.6079	0.2349	0.5928	-0.002
Mof_C 	C 	0.63744	0.31334	0.971	0.156
Mof_C 	C 	0.60846	0.28398	0.0172	-0.204
Mof_H 	H 	0.5959	0.2521	0.0016	0.098
Mof_C 	C 	0.59791	0.30211	0.0876	0.122
Mof_H 	H 	0.5776	0.2816	0.1188	-0.016
Mof_C 	C 	0.64082	0.37346	0.0659	0.113
Mof_H 	H 	0.6519	0.4049	0.0826	0.019
Mof_C 	C 	0.65324	0.35918	0.9931	-0.181
Mof_H 	H 	0.6718	0.38	0.9601	0.129
Mof_C 	C 	0.64292	0.18342	0.7127	0.059
Mof_H 	H 	0.6173	0.1835	0.7099	-0.014
Mof_C 	C 	0.63816	0.14242	0.6946	-0.052
Mof_H 	H 	0.6097	0.1109	0.6774	0.039
Mof_C 	C 	0.68263	0.15695	0.7065	-0.105
Mof_H 	H 	0.6909	0.1373	0.6996	0.061
Mof_C 	C 	0.71442	0.20734	0.7314	0.125
Mof_C 	C 	0.79158	0.1999	0.8256	-0.185
Mof_H 	H 	0.7814	0.2032	0.8784	0.091
Mof_C 	C 	0.81307	0.18015	0.8232	0.093
Mof_H 	H 	0.8183	0.1711	0.8764	0.006
Mof_C 	C 	0.49884	0.623	0.3843	0.094
Mof_H 	H 	0.5285	0.6405	0.373	-0.011
Mof_C 	C 	0.48432	0.64362	0.4373	-0.08
Mof_H 	H 	0.5014	0.6762	0.4677	0.13
Mof_C 	C 	0.44019	0.60645	0.4356	-0.067
Mof_H 	H 	0.4202	0.6086	0.4642	0.069
Mof_C 	C 	0.42945	0.56441	0.3837	0.119
Mof_C 	C 	0.38857	0.51811	0.3683	-0.167
Mof_C 	C 	0.37969	0.47701	0.3178	0.125
Mof_C 	C 	0.33974	0.42964	0.3036	-0.098
Mof_H 	H 	0.3139	0.4199	0.3269	0.072
Mof_C 	C 	0.34473	0.40089	0.2514	-0.049
Mof_H 	H 	0.3234	0.3674	0.2305	0.044
Mof_C 	C 	0.38791	0.43077	0.2346	0.057
Mof_H 	H 	0.4002	0.4196	0.1991	-0.014
Mof_C 	C 	0.35032	0.51116	0.4033	0.147
Mof_C 	C 	0.35071	0.51585	0.4961	-0.196
Mof_H 	H 	0.3772	0.525	0.5436	0.094
Mof_C 	C 	0.31238	0.50718	0.5207	0.108
Mof_H 	H 	0.3134	0.5104	0.5854	-0.013
Mof_C 	C 	0.27435	0.49139	0.3691	0.111
Mof_H 	H 	0.2477	0.4835	0.3244	0.015
Mof_C 	C 	0.30991	0.49859	0.3352	-0.18
Mof_H 	H 	0.3078	0.4954	0.27	0.132
Mof_C 	C 	0.44576	0.47238	0.0567	0.059
Mof_H 	H 	0.4264	0.4788	0.0289	-0.015
Mof_C 	C 	0.45397	0.44387	0.0041	-0.05
Mof_H 	H 	0.4421	0.4287	0.9374	0.039
Mof_C 	C 	0.48281	0.44353	0.0715	-0.107
Mof_H 	H 	0.4943	0.4269	0.0597	0.063
Mof_C 	C 	0.49292	0.4716	0.1614	0.127
Mof_C 	C 	0.57975	0.47407	0.2133	-0.173
Mof_H 	H 	0.5912	0.4992	0.1869	0.09
Mof_C 	C 	0.6003	0.4522	0.2166	0.085
Mof_H 	H 	0.6266	0.4638	0.1941	0.009
Mof_C 	C 	0.42371	0.18589	0.5739	0.816
Mof_C 	C 	0.51109	0.76829	0.6609	0.825
Mof_C 	C 	0.86658	0.12402	0.3803	0.782
Mof_F 	F 	0.43632	0.16316	0.5338	-0.457
Mof_F 	F 	0.39432	0.1824	0.5048	-0.46
Mof_F 	F 	0.46265	0.23059	0.6105	-0.468
Mof_F 	F 	0.52231	0.80811	0.6549	-0.465
Mof_F 	F 	0.54929	0.77265	0.6728	-0.46
Mof_F 	F 	0.4812	0.7356	0.5776	-0.468
Mof_F 	F 	0.91481	0.16045	0.4226	-0.455
Mof_F 	F 	0.86481	0.09079	0.3247	-0.447
Mof_F 	F 	0.8372	0.13154	0.3556	-0.504
Mof_Ga	Ga	0.11935	0.1699	0.60869	1.976
Mof_Ga	Ga	0.38815	0.94357	0.09632	1.979
Mof_N 	N 	0.11446	0.1228	0.5071	-0.367
Mof_N 	N 	0.15724	0.16326	0.7081	-0.366
Mof_N 	N 	0.23782	0.05618	0.5952	-0.21
Mof_N 	N 	0.08066	0.17828	0.5122	-0.355
Mof_N 	N 	0.17779	0.22531	0.587	-0.367
Mof_N 	N 	0.17726	0.3867	0.4812	-0.21
Mof_N 	N 	0.12549	0.21863	0.7133	-0.347
Mof_N 	N 	0.05862	0.11894	0.6309	-0.364
Mof_N 	N 	0.93549	0.16983	0.7689	-0.19
Mof_N 	N 	0.40529	0.96279	0.2401	-0.371
Mof_N 	N 	0.32124	0.92098	0.0926	-0.351
Mof_N 	N 	0.29157	0.00245	0.4619	-0.208
Mof_N 	N 	0.45432	0.96768	0.1011	-0.365
Mof_N 	N 	0.36864	0.8789	0.0871	-0.366
Mof_N 	N 	0.16802	0.4928	0.4568	-0.21
Mof_N 	N 	0.36721	0.92615	0.9527	-0.37
Mof_N 	N 	0.40724	0.00922	0.1026	-0.352
Mof_N 	N 	0.30926	0.02786	0.7338	-0.198
Mof_N 	N 	0.72381	0.30453	0.892	-0.377
Mof_N 	N 	0.64304	0.26648	0.7349	-0.354
Mof_N 	N 	0.61432	0.34564	0.113	-0.217
Mof_N 	N 	0.68752	0.22206	0.73414	-0.359
Mof_N 	N 	0.4672	0.57678	0.3519	-0.352
Mof_N 	N 	0.41035	0.47695	0.2738	-0.366
Mof_N 	N 	0.27399	0.49451	0.4575	-0.207
Mof_N 	N 	0.4684	0.48866	0.1485	-0.359
Mof_O 	O 	0.38631	0.19133	0.6987	-0.208
Mof_O 	O 	0.43362	0.1674	0.7269	-0.223
Mof_O 	O 	0.3565	0.11408	0.6094	-0.255
Mof_O 	O 	0.47505	0.70647	0.75	-0.243
Mof_O 	O 	0.52302	0.79	0.8398	-0.258
Mof_O 	O 	0.44521	0.74823	0.7326	-0.21
Mof_O 	O 	0.80052	0.06018	0.4413	-0.259
Mof_O 	O 	0.85624	0.1408	0.5495	-0.24
Mof_O 	O 	0.88362	0.09394	0.5086	-0.149
Mof_S 	S 	0.39705	0.16215	0.66234	0.33
Mof_S 	S 	0.48555	0.75087	0.75659	0.335
Mof_S 	S 	0.84487	0.10459	0.47395	0.336
Mof_Ag	Ag	0.14049	0.85951	0.25	0.675
Mof_C 	C 	0.23739	0.76261	0.25	-0.181
Mof_C 	C 	0.21501	0.78499	0.25	0.142
Mof_Ga	Ga	0.28939	0.71061	0.25	1.974
Mof_N 	N 	0.17311	0.82689	0.25	-0.215
Mof_Ag	Ag	0.85951	0.14049	0.75	0.675
Mof_C 	C 	0.76261	0.23739	0.75	-0.181
Mof_C 	C 	0.78499	0.21501	0.75	0.142
Mof_Ga	Ga	0.71061	0.28939	0.75	1.974
Mof_N 	N 	0.82689	0.17311	0.75	-0.215
Mof_Ag	Ag	0.3826	0.6174	0.75	0.689
Mof_N 	N 	0.41602	0.58398	0.75	-0.207
Mof_Ag	Ag	0.6174	0.3826	0.25	0.689
Mof_N 	N 	0.58398	0.41602	0.25	-0.207
Mof_C 	C 	0.48017	0.51983	0.75	-0.175
Mof_C 	C 	0.45773	0.54227	0.75	0.133
Mof_Ga	Ga	0.53219	0.46781	0.75	1.947
Mof_C 	C 	0.51983	0.48017	0.25	-0.175
Mof_C 	C 	0.54227	0.45773	0.25	0.133
Mof_Ga	Ga	0.46781	0.53219	0.25	1.947
_end
