# CIF file generated by openbabel 3.1.0, see https://openbabel.org
data_I
_chemical_name_common 'AWEDUC_charged'
_cell_length_a 7.9114
_cell_length_b 14.2572
_cell_length_c 29.557
_cell_angle_alpha 90
_cell_angle_beta 90
_cell_angle_gamma 90
_space_group_name_H-M_alt 'P 1'
_space_group_name_Hall 'P 1'
loop_
    _symmetry_equiv_pos_as_xyz
    x,y,z
loop_
    _atom_site_label
    _atom_site_type_symbol
    _atom_site_fract_x
    _atom_site_fract_y
    _atom_site_fract_z
    _atom_site_occupancy
    Zn1      Zn       0.49221    0.63126    0.15056    1.000
    Zn2      Zn       0.50779    0.36874    0.65056    1.000
    Zn3      Zn       0.50779    0.63126    0.34944    1.000
    Zn4      Zn       0.49221    0.36874    0.84944    1.000
    H1       H        0.59820    0.42680    0.10740    1.000
    H2       H        0.69300    0.29720    0.15360    1.000
    H3       H        0.64270    0.51800    0.23180    1.000
    H4       H        0.66140    0.21210    0.22430    1.000
    H5       H        0.74930    0.13080    0.28720    1.000
    H6       H        0.91770    0.37090    0.34400    1.000
    H7       H        0.83220    0.45110    0.27910    1.000
    H8       H        0.55470    0.30070    0.55170    1.000
    H9       H        0.82060    0.49040    0.61420    1.000
    H10      H        0.95770    0.46190    0.54130    1.000
    H11      H        0.04910    0.30560    0.49610    1.000
    H12      H        0.09710    0.23390    0.42680    1.000
    H13      H        0.60510    0.26160    0.39570    1.000
    H14      H        0.55720    0.33330    0.46500    1.000
    H15      H        0.36730    0.84060    0.34510    1.000
    H16      H        0.14180    0.61570    0.39180    1.000
    H17      H        0.93600    0.74060    0.39500    1.000
    H18      H        0.92950    0.91300    0.42500    1.000
    H19      H        0.83030    0.06610    0.42240    1.000
    H20      H        0.06680    0.10470    0.30350    1.000
    H21      H        0.16600    0.95170    0.30610    1.000
    H22      H        0.19880    0.78080    0.25680    1.000
    H23      H        0.09350    0.79990    0.21300    1.000
    H24      H        0.95620    0.65130    0.22620    1.000
    H25      H        0.40180    0.57320    0.60740    1.000
    H26      H        0.30700    0.70280    0.65360    1.000
    H27      H        0.35730    0.48200    0.73180    1.000
    H28      H        0.33860    0.78790    0.72430    1.000
    H29      H        0.25070    0.86920    0.78720    1.000
    H30      H        0.08230    0.62910    0.84400    1.000
    H31      H        0.16780    0.54890    0.77910    1.000
    H32      H        0.44530    0.69930    0.05170    1.000
    H33      H        0.17940    0.50960    0.11420    1.000
    H34      H        0.04230    0.53810    0.04130    1.000
    H35      H        0.95090    0.69440    0.99610    1.000
    H36      H        0.90290    0.76610    0.92680    1.000
    H37      H        0.39490    0.73840    0.89570    1.000
    H38      H        0.44280    0.66670    0.96500    1.000
    H39      H        0.63270    0.15940    0.84510    1.000
    H40      H        0.85820    0.38430    0.89180    1.000
    H41      H        0.06400    0.25940    0.89500    1.000
    H42      H        0.07050    0.08700    0.92500    1.000
    H43      H        0.16970    0.93390    0.92240    1.000
    H44      H        0.93320    0.89530    0.80350    1.000
    H45      H        0.83400    0.04830    0.80610    1.000
    H46      H        0.80120    0.21920    0.75680    1.000
    H47      H        0.90650    0.20010    0.71300    1.000
    H48      H        0.04380    0.34870    0.72620    1.000
    H49      H        0.40180    0.42680    0.39260    1.000
    H50      H        0.30700    0.29720    0.34640    1.000
    H51      H        0.35730    0.51800    0.26820    1.000
    H52      H        0.33860    0.21210    0.27570    1.000
    H53      H        0.25070    0.13080    0.21280    1.000
    H54      H        0.08230    0.37090    0.15600    1.000
    H55      H        0.16780    0.45110    0.22090    1.000
    H56      H        0.44530    0.30070    0.94830    1.000
    H57      H        0.17940    0.49040    0.88580    1.000
    H58      H        0.04230    0.46190    0.95870    1.000
    H59      H        0.95090    0.30560    0.00390    1.000
    H60      H        0.90290    0.23390    0.07320    1.000
    H61      H        0.39490    0.26160    0.10430    1.000
    H62      H        0.44280    0.33330    0.03500    1.000
    H63      H        0.63270    0.84060    0.15490    1.000
    H64      H        0.85820    0.61570    0.10820    1.000
    H65      H        0.06400    0.74060    0.10500    1.000
    H66      H        0.07050    0.91300    0.07500    1.000
    H67      H        0.16970    0.06610    0.07760    1.000
    H68      H        0.93320    0.10470    0.19650    1.000
    H69      H        0.83400    0.95170    0.19390    1.000
    H70      H        0.80120    0.78080    0.24320    1.000
    H71      H        0.90650    0.79990    0.28700    1.000
    H72      H        0.04380    0.65130    0.27380    1.000
    H73      H        0.59820    0.57320    0.89260    1.000
    H74      H        0.69300    0.70280    0.84640    1.000
    H75      H        0.64270    0.48200    0.76820    1.000
    H76      H        0.66140    0.78790    0.77570    1.000
    H77      H        0.74930    0.86920    0.71280    1.000
    H78      H        0.91770    0.62910    0.65600    1.000
    H79      H        0.83220    0.54890    0.72090    1.000
    H80      H        0.55470    0.69930    0.44830    1.000
    H81      H        0.82060    0.50960    0.38580    1.000
    H82      H        0.95770    0.53810    0.45870    1.000
    H83      H        0.04910    0.69440    0.50390    1.000
    H84      H        0.09710    0.76610    0.57320    1.000
    H85      H        0.60510    0.73840    0.60430    1.000
    H86      H        0.55720    0.66670    0.53500    1.000
    H87      H        0.36730    0.15940    0.65490    1.000
    H88      H        0.14180    0.38430    0.60820    1.000
    H89      H        0.93600    0.25940    0.60500    1.000
    H90      H        0.92950    0.08700    0.57500    1.000
    H91      H        0.83030    0.93390    0.57760    1.000
    H92      H        0.06680    0.89530    0.69650    1.000
    H93      H        0.16600    0.04830    0.69390    1.000
    H94      H        0.19880    0.21920    0.74320    1.000
    H95      H        0.09350    0.20010    0.78700    1.000
    H96      H        0.95620    0.34870    0.77380    1.000
    C1       C        0.61770    0.42900    0.13846    1.000
    C2       C        0.67150    0.35790    0.16369    1.000
    C3       C        0.64230    0.47950    0.20644    1.000
    C4       C        0.74180    0.33870    0.24616    1.000
    C5       C        0.71370    0.24330    0.24810    1.000
    C6       C        0.76450    0.19540    0.28597    1.000
    C7       C        0.83880    0.24150    0.32291    1.000
    C8       C        0.86660    0.33890    0.32026    1.000
    C9       C        0.81580    0.38660    0.28126    1.000
    C10      C        0.63840    0.34430    0.55846    1.000
    C11      C        0.78480    0.44790    0.59232    1.000
    C12      C        0.86020    0.43290    0.55195    1.000
    C13      C        0.79840    0.32660    0.48742    1.000
    C14      C        0.96010    0.29680    0.47597    1.000
    C15      C        0.98890    0.25390    0.43446    1.000
    C16      C        0.85590    0.24070    0.40440    1.000
    C17      C        0.69410    0.27040    0.41585    1.000
    C18      C        0.66540    0.31340    0.45736    1.000
    C19      C        0.28580    0.80050    0.35690    1.000
    C20      C        0.15980    0.67720    0.38252    1.000
    C21      C        0.04690    0.74540    0.38483    1.000
    C22      C        0.05760    0.91720    0.36580    1.000
    C23      C        0.95700    0.95140    0.40063    1.000
    C24      C        0.89760    0.04310    0.39910    1.000
    C25      C        0.93870    0.10050    0.36272    1.000
    C26      C        0.03930    0.06630    0.32788    1.000
    C27      C        0.09870    0.97460    0.32942    1.000
    C28      C        0.26680    0.70220    0.20520    1.000
    C29      C        0.14220    0.75070    0.23150    1.000
    C30      C        0.38230    0.57100    0.63846    1.000
    C31      C        0.32850    0.64210    0.66369    1.000
    C32      C        0.35770    0.52050    0.70644    1.000
    C33      C        0.25820    0.66130    0.74616    1.000
    C34      C        0.28630    0.75670    0.74810    1.000
    C35      C        0.23550    0.80460    0.78597    1.000
    C36      C        0.16120    0.75850    0.82291    1.000
    C37      C        0.13340    0.66110    0.82026    1.000
    C38      C        0.18420    0.61340    0.78126    1.000
    C39      C        0.36160    0.65570    0.05846    1.000
    C40      C        0.21520    0.55210    0.09232    1.000
    C41      C        0.13980    0.56710    0.05195    1.000
    C42      C        0.20160    0.67340    0.98742    1.000
    C43      C        0.03990    0.70320    0.97597    1.000
    C44      C        0.01110    0.74610    0.93446    1.000
    C45      C        0.14410    0.75930    0.90440    1.000
    C46      C        0.30590    0.72960    0.91585    1.000
    C47      C        0.33460    0.68660    0.95736    1.000
    C48      C        0.71420    0.19950    0.85690    1.000
    C49      C        0.84020    0.32280    0.88252    1.000
    C50      C        0.95310    0.25460    0.88483    1.000
    C51      C        0.94240    0.08280    0.86580    1.000
    C52      C        0.04300    0.04860    0.90063    1.000
    C53      C        0.10240    0.95690    0.89910    1.000
    C54      C        0.06130    0.89950    0.86272    1.000
    C55      C        0.96070    0.93370    0.82788    1.000
    C56      C        0.90130    0.02540    0.82942    1.000
    C57      C        0.73320    0.29780    0.70520    1.000
    C58      C        0.85780    0.24930    0.73150    1.000
    C59      C        0.38230    0.42900    0.36154    1.000
    C60      C        0.32850    0.35790    0.33631    1.000
    C61      C        0.35770    0.47950    0.29356    1.000
    C62      C        0.25820    0.33870    0.25384    1.000
    C63      C        0.28630    0.24330    0.25190    1.000
    C64      C        0.23550    0.19540    0.21403    1.000
    C65      C        0.16120    0.24150    0.17709    1.000
    C66      C        0.13340    0.33890    0.17974    1.000
    C67      C        0.18420    0.38660    0.21874    1.000
    C68      C        0.36160    0.34430    0.94154    1.000
    C69      C        0.21520    0.44790    0.90768    1.000
    C70      C        0.13980    0.43290    0.94805    1.000
    C71      C        0.20160    0.32660    0.01258    1.000
    C72      C        0.03990    0.29680    0.02403    1.000
    C73      C        0.01110    0.25390    0.06554    1.000
    C74      C        0.14410    0.24070    0.09560    1.000
    C75      C        0.30590    0.27040    0.08415    1.000
    C76      C        0.33460    0.31340    0.04264    1.000
    C77      C        0.71420    0.80050    0.14310    1.000
    C78      C        0.84020    0.67720    0.11748    1.000
    C79      C        0.95310    0.74540    0.11517    1.000
    C80      C        0.94240    0.91720    0.13420    1.000
    C81      C        0.04300    0.95140    0.09937    1.000
    C82      C        0.10240    0.04310    0.10090    1.000
    C83      C        0.06130    0.10050    0.13728    1.000
    C84      C        0.96070    0.06630    0.17212    1.000
    C85      C        0.90130    0.97460    0.17058    1.000
    C86      C        0.73320    0.70220    0.29480    1.000
    C87      C        0.85780    0.75070    0.26850    1.000
    C88      C        0.61770    0.57100    0.86154    1.000
    C89      C        0.67150    0.64210    0.83631    1.000
    C90      C        0.64230    0.52050    0.79356    1.000
    C91      C        0.74180    0.66130    0.75384    1.000
    C92      C        0.71370    0.75670    0.75190    1.000
    C93      C        0.76450    0.80460    0.71403    1.000
    C94      C        0.83880    0.75850    0.67709    1.000
    C95      C        0.86660    0.66110    0.67974    1.000
    C96      C        0.81580    0.61340    0.71874    1.000
    C97      C        0.63840    0.65570    0.44154    1.000
    C98      C        0.78480    0.55210    0.40768    1.000
    C99      C        0.86020    0.56710    0.44805    1.000
    C100     C        0.79840    0.67340    0.51258    1.000
    C101     C        0.96010    0.70320    0.52403    1.000
    C102     C        0.98890    0.74610    0.56554    1.000
    C103     C        0.85590    0.75930    0.59560    1.000
    C104     C        0.69410    0.72960    0.58415    1.000
    C105     C        0.66540    0.68660    0.54264    1.000
    C106     C        0.28580    0.19950    0.64310    1.000
    C107     C        0.15980    0.32280    0.61748    1.000
    C108     C        0.04690    0.25460    0.61517    1.000
    C109     C        0.05760    0.08280    0.63420    1.000
    C110     C        0.95700    0.04860    0.59937    1.000
    C111     C        0.89760    0.95690    0.60090    1.000
    C112     C        0.93870    0.89950    0.63728    1.000
    C113     C        0.03930    0.93370    0.67212    1.000
    C114     C        0.09870    0.02540    0.67058    1.000
    C115     C        0.26680    0.29780    0.79480    1.000
    C116     C        0.14220    0.24930    0.76850    1.000
    C117     C        0.00000    0.69130    0.25000    1.000
    C118     C        0.00000    0.30870    0.75000    1.000
    N1       N        0.59530    0.50740    0.16597    1.000
    N2       N        0.68940    0.38960    0.20700    1.000
    N3       N        0.88540    0.19510    0.36291    1.000
    N4       N        0.64860    0.39070    0.59569    1.000
    N5       N        0.76810    0.36830    0.53024    1.000
    N6       N        0.30720    0.71080    0.36443    1.000
    N7       N        0.12750    0.82630    0.36885    1.000
    N8       N        0.40470    0.49260    0.66597    1.000
    N9       N        0.31060    0.61040    0.70700    1.000
    N10      N        0.11460    0.80490    0.86291    1.000
    N11      N        0.35140    0.60930    0.09569    1.000
    N12      N        0.23190    0.63170    0.03024    1.000
    N13      N        0.69280    0.28920    0.86443    1.000
    N14      N        0.87250    0.17370    0.86885    1.000
    N15      N        0.40470    0.50740    0.33403    1.000
    N16      N        0.31060    0.38960    0.29300    1.000
    N17      N        0.11460    0.19510    0.13709    1.000
    N18      N        0.35140    0.39070    0.90431    1.000
    N19      N        0.23190    0.36830    0.96976    1.000
    N20      N        0.69280    0.71080    0.13557    1.000
    N21      N        0.87250    0.82630    0.13115    1.000
    N22      N        0.59530    0.49260    0.83403    1.000
    N23      N        0.68940    0.61040    0.79300    1.000
    N24      N        0.88540    0.80490    0.63709    1.000
    N25      N        0.64860    0.60930    0.40431    1.000
    N26      N        0.76810    0.63170    0.46976    1.000
    N27      N        0.30720    0.28920    0.63557    1.000
    N28      N        0.12750    0.17370    0.63115    1.000
    O1       O        0.35870    0.74760    0.18214    1.000
    O2       O        0.29930    0.62070    0.20461    1.000
    O3       O        0.64130    0.25240    0.68214    1.000
    O4       O        0.70070    0.37930    0.70461    1.000
    O5       O        0.64130    0.74760    0.31786    1.000
    O6       O        0.70070    0.62070    0.29539    1.000
    O7       O        0.35870    0.25240    0.81786    1.000
    O8       O        0.29930    0.37930    0.79539    1.000
    N29      N        0.42150    0.91110    0.62290    1.000
    O9       O        0.35870    0.86220    0.59640    1.000
    O10      O        0.45940    0.98930    0.61110    1.000
    O11      O        0.44720    0.88510    0.65840    1.000
    N30      N        0.57850    0.08890    0.12290    1.000
    O12      O        0.64130    0.13780    0.09640    1.000
    O13      O        0.54060    0.01070    0.11110    1.000
    O14      O        0.55280    0.11490    0.15840    1.000
    N31      N        0.57850    0.91110    0.87710    1.000
    O15      O        0.64130    0.86220    0.90360    1.000
    O16      O        0.54060    0.98930    0.88890    1.000
    O17      O        0.55280    0.88510    0.84160    1.000
    N32      N        0.42150    0.08890    0.37710    1.000
    O18      O        0.35870    0.13780    0.40360    1.000
    O19      O        0.45940    0.01070    0.38890    1.000
    O20      O        0.44720    0.11490    0.34160    1.000
    N33      N        0.30770    0.50000    0.50000    1.000
    O21      O        0.23180    0.47850    0.46576    1.000
    O22      O        0.23180    0.52150    0.53424    1.000
    O23      O        0.46370    0.50000    0.50000    1.000
    N34      N        0.69230    0.50000    0.00000    1.000
    O24      O        0.76820    0.52150    0.96576    1.000
    O25      O        0.76820    0.47850    0.03424    1.000
    O26      O        0.53630    0.50000    0.00000    1.000
