# CIF file generated by openbabel 3.1.0, see https://openbabel.org
data_I
_chemical_name_common 'image0'
_cell_length_a 11.2499
_cell_length_b 11.7888
_cell_length_c 16.2271
_cell_angle_alpha 90
_cell_angle_beta 129.399
_cell_angle_gamma 90
_space_group_name_H-M_alt 'P 1'
_space_group_name_Hall 'P 1'
loop_
    _symmetry_equiv_pos_as_xyz
    x,y,z
loop_
    _atom_site_label
    _atom_site_type_symbol
    _atom_site_fract_x
    _atom_site_fract_y
    _atom_site_fract_z
    _atom_site_occupancy
    Zn1      Zn       0.32333    0.47352    0.48257    1.000
    S1       S        0.47775    0.52741    0.71493    1.000
    O1       O        0.43602    0.57093    0.61406    1.000
    O2       O        0.63422    0.55558    0.80427    1.000
    O3       O        0.43770    0.41011    0.70631    1.000
    O4       O        0.52514    0.85144    0.96623    1.000
    O5       O        0.28613    0.92029    0.87447    1.000
    O6       O        0.85869    0.64766    0.63106    1.000
    O7       O        0.89323    0.51402    0.55505    1.000
    C1       C        0.35810    0.60352    0.73180    1.000
    C2       C        0.41700    0.69180    0.80419    1.000
    H1       H        0.52240    0.71210    0.84590    1.000
    C3       C        0.32070    0.75073    0.81548    1.000
    C4       C        0.38260    0.84813    0.89136    1.000
    C5       C        0.16695    0.71943    0.75518    1.000
    H2       H        0.10150    0.75920    0.76330    1.000
    C6       C        0.10890    0.63012    0.68305    1.000
    C7       C        0.20420    0.57234    0.67039    1.000
    H3       H        0.16460    0.51220    0.62030    1.000
    C8       C        0.94380    0.59562    0.61944    1.000
    Zn2      Zn       0.67667    0.97352    0.01744    1.000
    S2       S        0.52225    0.02741    0.78507    1.000
    O8       O        0.56398    0.07093    0.88594    1.000
    O9       O        0.36578    0.05558    0.69573    1.000
    O10      O        0.56230    0.91011    0.79369    1.000
    O11      O        0.47486    0.35144    0.53377    1.000
    O12      O        0.71387    0.42029    0.62553    1.000
    O13      O        0.14131    0.14766    0.86894    1.000
    O14      O        0.10677    0.01402    0.94495    1.000
    C9       C        0.64190    0.10352    0.76820    1.000
    C10      C        0.58300    0.19180    0.69581    1.000
    H4       H        0.47760    0.21210    0.65410    1.000
    C11      C        0.67930    0.25073    0.68452    1.000
    C12      C        0.61740    0.34813    0.60864    1.000
    C13      C        0.83305    0.21943    0.74482    1.000
    H5       H        0.89850    0.25920    0.73670    1.000
    C14      C        0.89110    0.13012    0.81695    1.000
    C15      C        0.79580    0.07234    0.82961    1.000
    H6       H        0.83540    0.01220    0.87970    1.000
    C16      C        0.05620    0.09562    0.88056    1.000
    Zn3      Zn       0.67667    0.52648    0.51743    1.000
    S3       S        0.52225    0.47259    0.28507    1.000
    O15      O        0.56398    0.42907    0.38594    1.000
    O16      O        0.36578    0.44442    0.19573    1.000
    O17      O        0.56230    0.58989    0.29369    1.000
    O18      O        0.47486    0.14856    0.03377    1.000
    O19      O        0.71387    0.07971    0.12553    1.000
    O20      O        0.14131    0.35234    0.36894    1.000
    O21      O        0.10677    0.48598    0.44495    1.000
    C17      C        0.64190    0.39648    0.26820    1.000
    C18      C        0.58300    0.30820    0.19581    1.000
    H7       H        0.47760    0.28790    0.15410    1.000
    C19      C        0.67930    0.24927    0.18452    1.000
    C20      C        0.61740    0.15187    0.10864    1.000
    C21      C        0.83305    0.28057    0.24482    1.000
    H8       H        0.89850    0.24080    0.23670    1.000
    C22      C        0.89110    0.36988    0.31695    1.000
    C23      C        0.79580    0.42766    0.32961    1.000
    H9       H        0.83540    0.48780    0.37970    1.000
    C24      C        0.05620    0.40438    0.38056    1.000
    Zn4      Zn       0.32333    0.02648    0.98257    1.000
    S4       S        0.47775    0.97259    0.21493    1.000
    O22      O        0.43602    0.92907    0.11406    1.000
    O23      O        0.63422    0.94442    0.30427    1.000
    O24      O        0.43770    0.08989    0.20631    1.000
    O25      O        0.52514    0.64856    0.46623    1.000
    O26      O        0.28613    0.57971    0.37447    1.000
    O27      O        0.85869    0.85234    0.13106    1.000
    O28      O        0.89323    0.98598    0.05505    1.000
    C25      C        0.35810    0.89648    0.23180    1.000
    C26      C        0.41700    0.80820    0.30419    1.000
    H10      H        0.52240    0.78790    0.34590    1.000
    C27      C        0.32070    0.74927    0.31548    1.000
    C28      C        0.38260    0.65187    0.39136    1.000
    C29      C        0.16695    0.78057    0.25518    1.000
    H11      H        0.10150    0.74080    0.26330    1.000
    C30      C        0.10890    0.86988    0.18305    1.000
    C31      C        0.20420    0.92766    0.17039    1.000
    H12      H        0.16460    0.98780    0.12030    1.000
    C32      C        0.94380    0.90438    0.11944    1.000
