data_functionalizedCrystal
_audit_creation_method	'EQeq! by Chris Wilmer'
_symmetry_space_group_name_H-M	'P1'
_symmetry_Int_Tables_number	1
_symmetry_cell_setting	triclinic
loop_
_symmetry_equiv_pos_as_xyz
  x,y,z
_cell_length_a	12.7816
_cell_length_b	12.7816
_cell_length_c	13.062
_cell_angle_alpha	90
_cell_angle_beta	90
_cell_angle_gamma	90
loop_
_atom_site_label
_atom_site_type_symbol
_atom_site_fract_x
_atom_site_fract_y
_atom_site_fract_z
_atom_site_charge
Mof_N 	N 	0.1019	0.5851	0.1204	-0.123
Mof_C 	C 	0.1574	0.6355	0.0716	-0.122
Mof_C 	C 	0.2291	0.4005	0.2525	0.04
Mof_C 	C 	0.3077	0.3252	0.2517	-0.034
Mof_N 	N 	0.6019	0.0851	0.6204	-0.121
Mof_C 	C 	0.6574	0.1355	0.5716	-0.127
Mof_C 	C 	0.7291	0.9005	0.7525	0.06
Mof_C 	C 	0.8077	0.8252	0.7517	-0.018
Mof_N 	N 	0.3981	0.9149	0.6204	-0.102
Mof_C 	C 	0.3426	0.8645	0.5716	-0.113
Mof_C 	C 	0.2709	0.0995	0.7525	0.029
Mof_C 	C 	0.1923	0.1748	0.7517	-0.036
Mof_N 	N 	0.8981	0.4149	0.1204	-0.105
Mof_C 	C 	0.8426	0.3645	0.0716	-0.107
Mof_C 	C 	0.7709	0.5995	0.2525	0.045
Mof_C 	C 	0.6923	0.6748	0.2517	-0.034
Mof_N 	N 	0.0851	0.6019	0.3796	-0.12
Mof_C 	C 	0.1355	0.6574	0.4284	-0.125
Mof_C 	C 	0.9005	0.7291	0.2475	0.06
Mof_C 	C 	0.8252	0.8077	0.2483	-0.023
Mof_N 	N 	0.5851	0.1019	0.8796	-0.124
Mof_C 	C 	0.6355	0.1574	0.9284	-0.094
Mof_C 	C 	0.4005	0.2291	0.7475	0.044
Mof_C 	C 	0.3252	0.3077	0.7483	-0.026
Mof_N 	N 	0.4149	0.8981	0.8796	-0.108
Mof_C 	C 	0.3645	0.8426	0.9284	-0.08
Mof_C 	C 	0.5995	0.7709	0.7475	0.048
Mof_C 	C 	0.6748	0.6923	0.7483	-0.027
Mof_N 	N 	0.9149	0.3981	0.3796	-0.102
Mof_C 	C 	0.8645	0.3426	0.4284	-0.112
Mof_C 	C 	0.0995	0.2709	0.2475	0.029
Mof_C 	C 	0.1748	0.1923	0.2483	-0.042
Mof_Cd	Cd	-1.99949e-33	0.5	0.25	0.323
Mof_Cd	Cd	0.5	0	0.75	0.326
Mof_N 	N 	0.1267	0.3733	0.25	-0.144
Mof_C 	C 	0.2796	0.2204	0.25	-0.01
Mof_N 	N 	0.3733	0.1267	0.75	-0.144
Mof_C 	C 	0.2204	0.2796	0.75	0.001
Mof_N 	N 	0.8733	0.6267	0.25	-0.137
Mof_C 	C 	0.7204	0.7796	0.25	-0
Mof_N 	N 	0.6267	0.8733	0.75	-0.137
Mof_C 	C 	0.7796	0.7204	0.75	0.01
Mof_Ag	Ag	0.25855	0.74145	-0	0.358
Mof_Ag	Ag	0.75855	0.24145	0.5	0.413
Mof_Ag	Ag	0.24145	0.75855	0.5	0.413
Mof_Ag	Ag	0.74145	0.25855	-0	0.359
Mof_N 	N 	0.4149	0.6019	0.3704	-0.115
Mof_C 	C 	0.3645	0.6574	0.3216	-0.119
Mof_C 	C 	0.5995	0.7291	0.5025	0.043
Mof_C 	C 	0.6748	0.8077	0.5017	-0.025
Mof_N 	N 	0.9149	0.1019	0.8704	-0.095
Mof_C 	C 	0.8645	0.1574	0.8216	-0.112
Mof_C 	C 	0.0995	0.2291	0.0025	0.017
Mof_C 	C 	0.1748	0.3077	0.0017	-0.031
Mof_N 	N 	0.0851	0.8981	0.8704	-0.096
Mof_C 	C 	0.1355	0.8426	0.8216	-0.114
Mof_C 	C 	0.9005	0.7709	0.0025	0.05
Mof_C 	C 	0.8252	0.6923	0.0017	-0.028
Mof_N 	N 	0.5851	0.3981	0.3704	-0.115
Mof_C 	C 	0.6355	0.3426	0.3216	-0.121
Mof_C 	C 	0.4005	0.2709	0.5025	0.041
Mof_C 	C 	0.3252	0.1923	0.5017	-0.04
Mof_N 	N 	0.3981	0.5851	0.6296	-0.113
Mof_C 	C 	0.3426	0.6355	0.6784	-0.119
Mof_C 	C 	0.2709	0.4005	0.4975	0.042
Mof_C 	C 	0.1923	0.3252	0.4983	-0.038
Mof_N 	N 	0.8981	0.0851	0.1296	-0.109
Mof_C 	C 	0.8426	0.1355	0.1784	-0.122
Mof_C 	C 	0.7709	0.9005	0.9975	0.084
Mof_C 	C 	0.6923	0.8252	0.9983	0.006
Mof_N 	N 	0.1019	0.9149	0.1296	-0.108
Mof_C 	C 	0.1574	0.8645	0.1784	-0.12
Mof_C 	C 	0.2291	0.0995	0.9975	0.054
Mof_C 	C 	0.3077	0.1748	0.9983	0.003
Mof_N 	N 	0.6019	0.4149	0.6296	-0.113
Mof_C 	C 	0.6574	0.3645	0.6784	-0.117
Mof_C 	C 	0.7291	0.5995	0.4975	0.044
Mof_C 	C 	0.8077	0.6748	0.4983	-0.023
Mof_Cd	Cd	0.5	0.5	0.5	0.359
Mof_Cd	Cd	-0	0	-0	0.269
Mof_N 	N 	0.6267	0.6267	0.5	-0.144
Mof_C 	C 	0.7796	0.7796	0.5	0.008
Mof_N 	N 	0.8733	0.8733	-0	-0.145
Mof_C 	C 	0.7204	0.7204	-0	-0.039
Mof_N 	N 	0.3733	0.3733	0.5	-0.144
Mof_C 	C 	0.2204	0.2204	0.5	-0.01
Mof_N 	N 	0.1267	0.1267	-0	-0.16
Mof_C 	C 	0.2796	0.2796	-0	-0.042
Mof_Ag	Ag	0.25855	0.75855	0.25	0.418
Mof_Ag	Ag	0.75855	0.25855	0.75	0.439
Mof_Ag	Ag	0.24145	0.74145	0.75	0.43
Mof_Ag	Ag	0.74145	0.24145	0.25	0.409
_end
