# CIF file generated by openbabel 3.1.0, see https://openbabel.org
data_I
_chemical_name_common 'image0'
_cell_length_a 9.113
_cell_length_b 15.904
_cell_length_c 16.014
_cell_angle_alpha 73.488
_cell_angle_beta 74.016
_cell_angle_gamma 76.264
_space_group_name_H-M_alt 'P 1'
_space_group_name_Hall 'P 1'
loop_
    _symmetry_equiv_pos_as_xyz
    x,y,z
loop_
    _atom_site_label
    _atom_site_type_symbol
    _atom_site_fract_x
    _atom_site_fract_y
    _atom_site_fract_z
    _atom_site_occupancy
    N1       N        0.78940    0.82980    0.48790    1.000
    N2       N        0.71940    0.91780    0.47290    1.000
    N3       N        0.97410    0.91590    0.41430    1.000
    N4       N        0.64660    0.09580    0.43350    1.000
    N5       N        0.30780    0.61140    0.47570    1.000
    N6       N        0.18120    0.01800    0.13500    1.000
    N7       N        0.16860    0.98930    0.06560    1.000
    N8       N        0.39480    0.91800    0.09790    1.000
    N9       N        0.19100    0.91410    0.93400    1.000
    N10      N        0.46190    0.99680    0.37360    1.000
    N11      N        0.71850    0.63280    0.35660    1.000
    N12      N        0.63700    0.56380    0.38410    1.000
    N13      N        0.67420    0.60540    0.23590    1.000
    N14      N        0.45360    0.44760    0.40160    1.000
    N15      N        0.92470    0.88090    0.09580    1.000
    C1       C        0.60930    0.18520    0.41560    1.000
    H1       H        0.50620    0.21040    0.43370    1.000
    C2       C        0.71230    0.24040    0.37300    1.000
    H2       H        0.67960    0.30180    0.36180    1.000
    C3       C        0.86470    0.20570    0.34660    1.000
    H3       H        0.93810    0.24230    0.31670    1.000
    C4       C        0.90610    0.11370    0.36600    1.000
    H4       H        0.00940    0.08760    0.35030    1.000
    C5       C        0.79700    0.06180    0.40770    1.000
    C6       C        0.83210    0.96430    0.43000    1.000
    C7       C        0.93970    0.83320    0.45140    1.000
    C8       C        0.16300    0.60050    0.50290    1.000
    H5       H        0.14240    0.54320    0.52990    1.000
    C9       C        0.03860    0.66950    0.49370    1.000
    H6       H        0.93790    0.65780    0.51330    1.000
    C10      C        0.06430    0.75440    0.45590    1.000
    C11      C        0.21550    0.76600    0.42470    1.000
    H7       H        0.23970    0.82230    0.39620    1.000
    C12      C        0.33130    0.69320    0.43610    1.000
    H8       H        0.43330    0.70250    0.41430    1.000
    C13      C        0.20100    0.88050    0.86510    1.000
    H9       H        0.11590    0.89590    0.83900    1.000
    C14      C        0.32340    0.82650    0.83090    1.000
    H10      H        0.32320    0.80530    0.78250    1.000
    C15      C        0.45110    0.80230    0.86820    1.000
    H11      H        0.53890    0.76470    0.84550    1.000
    C16      C        0.44480    0.83590    0.94140    1.000
    H12      H        0.52850    0.82070    0.96860    1.000
    C17      C        0.31560    0.89070    0.97190    1.000
    C18      C        0.29730    0.93120    0.04520    1.000
    C19      C        0.31890    0.97280    0.15170    1.000
    C20      C        0.52330    0.92860    0.33550    1.000
    H13      H        0.59710    0.88450    0.36010    1.000
    C21      C        0.48490    0.91940    0.26240    1.000
    H14      H        0.53250    0.87050    0.23800    1.000
    C22      C        0.37410    0.98370    0.22510    1.000
    C23      C        0.31460    0.05570    0.26130    1.000
    H15      H        0.24350    0.10130    0.23610    1.000
    C24      C        0.35840    0.06180    0.33490    1.000
    H16      H        0.31590    0.11160    0.35850    1.000
    C25      C        0.36250    0.38820    0.41390    1.000
    H17      H        0.31550    0.36220    0.47200    1.000
    C26      C        0.33590    0.36410    0.34490    1.000
    H18      H        0.27210    0.32260    0.35560    1.000
    C27      C        0.40590    0.40280    0.25830    1.000
    H19      H        0.39060    0.38720    0.20990    1.000
    C28      C        0.49810    0.46420    0.24510    1.000
    H20      H        0.54540    0.49110    0.18740    1.000
    C29      C        0.52000    0.48570    0.31700    1.000
    C30      C        0.61340    0.55040    0.31010    1.000
    C31      C        0.73740    0.65460    0.26890    1.000
    C32      C        0.92630    0.85700    0.18270    1.000
    H21      H        0.96880    0.89160    0.20480    1.000
    C33      C        0.86860    0.78400    0.24160    1.000
    H22      H        0.87130    0.77090    0.30160    1.000
    C34      C        0.80720    0.73110    0.21060    1.000
    C35      C        0.80540    0.75560    0.12070    1.000
    H23      H        0.76340    0.72240    0.09680    1.000
    C36      C        0.86550    0.82860    0.06750    1.000
    H24      H        0.86490    0.84260    0.00710    1.000
    N16      N        0.21060    0.17020    0.51210    1.000
    N17      N        0.28060    0.08220    0.52710    1.000
    N18      N        0.02590    0.08410    0.58570    1.000
    N19      N        0.35340    0.90420    0.56650    1.000
    N20      N        0.69220    0.38860    0.52430    1.000
    N21      N        0.81880    0.98200    0.86500    1.000
    N22      N        0.83140    0.01070    0.93440    1.000
    N23      N        0.60520    0.08200    0.90210    1.000
    N24      N        0.80900    0.08590    0.06600    1.000
    N25      N        0.53810    0.00320    0.62640    1.000
    N26      N        0.28150    0.36720    0.64340    1.000
    N27      N        0.36300    0.43620    0.61590    1.000
    N28      N        0.32580    0.39460    0.76410    1.000
    N29      N        0.54640    0.55240    0.59840    1.000
    N30      N        0.07530    0.11910    0.90420    1.000
    C37      C        0.39070    0.81480    0.58440    1.000
    H25      H        0.49380    0.78960    0.56630    1.000
    C38      C        0.28770    0.75960    0.62700    1.000
    H26      H        0.32040    0.69820    0.63820    1.000
    C39      C        0.13530    0.79430    0.65340    1.000
    H27      H        0.06190    0.75770    0.68330    1.000
    C40      C        0.09390    0.88630    0.63400    1.000
    H28      H        0.99060    0.91240    0.64970    1.000
    C41      C        0.20300    0.93820    0.59230    1.000
    C42      C        0.16790    0.03570    0.57000    1.000
    C43      C        0.06030    0.16680    0.54860    1.000
    C44      C        0.83700    0.39950    0.49710    1.000
    H29      H        0.85760    0.45680    0.47010    1.000
    C45      C        0.96140    0.33050    0.50630    1.000
    H30      H        0.06210    0.34220    0.48670    1.000
    C46      C        0.93570    0.24560    0.54410    1.000
    C47      C        0.78450    0.23400    0.57530    1.000
    H31      H        0.76030    0.17770    0.60380    1.000
    C48      C        0.66870    0.30680    0.56390    1.000
    H32      H        0.56670    0.29750    0.58570    1.000
    C49      C        0.79900    0.11950    0.13490    1.000
    H33      H        0.88410    0.10410    0.16100    1.000
    C50      C        0.67660    0.17350    0.16910    1.000
    H34      H        0.67680    0.19470    0.21750    1.000
    C51      C        0.54890    0.19770    0.13180    1.000
    H35      H        0.46110    0.23530    0.15450    1.000
    C52      C        0.55520    0.16410    0.05860    1.000
    H36      H        0.47150    0.17930    0.03140    1.000
    C53      C        0.68440    0.10930    0.02810    1.000
    C54      C        0.70270    0.06880    0.95480    1.000
    C55      C        0.68110    0.02720    0.84830    1.000
    C56      C        0.47670    0.07140    0.66450    1.000
    H37      H        0.40290    0.11550    0.63990    1.000
    C57      C        0.51510    0.08060    0.73760    1.000
    H38      H        0.46750    0.12950    0.76200    1.000
    C58      C        0.62590    0.01630    0.77490    1.000
    C59      C        0.68540    0.94430    0.73870    1.000
    H39      H        0.75650    0.89870    0.76390    1.000
    C60      C        0.64160    0.93820    0.66510    1.000
    H40      H        0.68410    0.88840    0.64150    1.000
    C61      C        0.63750    0.61180    0.58610    1.000
    H41      H        0.68450    0.63780    0.52800    1.000
    C62      C        0.66410    0.63590    0.65510    1.000
    H42      H        0.72790    0.67740    0.64440    1.000
    C63      C        0.59410    0.59720    0.74170    1.000
    H43      H        0.60940    0.61280    0.79010    1.000
    C64      C        0.50190    0.53580    0.75490    1.000
    H44      H        0.45460    0.50890    0.81260    1.000
    C65      C        0.48000    0.51430    0.68300    1.000
    C66      C        0.38660    0.44960    0.68990    1.000
    C67      C        0.26260    0.34540    0.73110    1.000
    C68      C        0.07370    0.14300    0.81730    1.000
    H45      H        0.03120    0.10840    0.79520    1.000
    C69      C        0.13140    0.21600    0.75840    1.000
    H46      H        0.12870    0.22910    0.69840    1.000
    C70      C        0.19280    0.26890    0.78940    1.000
    C71      C        0.19460    0.24440    0.87930    1.000
    H47      H        0.23660    0.27760    0.90320    1.000
    C72      C        0.13450    0.17140    0.93250    1.000
    H48      H        0.13510    0.15740    0.99290    1.000
    Ni1      Ni       0.50000    0.00000    0.50000    1.000
    Ni2      Ni       0.50000    0.50000    0.50000    1.000
    Ni3      Ni       0.00000    0.00000    0.00000    1.000
