# CIF file generated by openbabel 3.1.0, see https://openbabel.org
data_I
_chemical_name_common 'image0'
_cell_length_a 19.806
_cell_length_b 9.138
_cell_length_c 32.3393
_cell_angle_alpha 90
_cell_angle_beta 107.566
_cell_angle_gamma 90
_space_group_name_H-M_alt 'P 1'
_space_group_name_Hall 'P 1'
loop_
    _symmetry_equiv_pos_as_xyz
    x,y,z
loop_
    _atom_site_label
    _atom_site_type_symbol
    _atom_site_fract_x
    _atom_site_fract_y
    _atom_site_fract_z
    _atom_site_occupancy
    Eu1      Eu       0.96177    0.97960    0.79932    1.000
    O1       O        0.06605    0.87270    0.77659    1.000
    O2       O        0.90817    0.87350    0.85291    1.000
    O3       O        0.60671    0.64549    0.75320    1.000
    O4       O        0.84294    0.87660    0.78440    1.000
    O5       O        0.00789    0.72600    0.80752    1.000
    O6       O        0.54472    0.66903    0.80031    1.000
    N1       N        0.93625    0.02410    0.12669    1.000
    N2       N        0.70513    0.05410    0.00905    1.000
    N3       N        0.45889    0.25000    0.98635    1.000
    C1       C        0.84883    0.86540    0.82411    1.000
    C2       C        0.78124    0.88640    0.87840    1.000
    H1       H        0.82170    0.92410    0.89830    1.000
    C3       C        0.78289    0.84580    0.83731    1.000
    C4       C        0.05535    0.74520    0.79006    1.000
    C5       C        0.59942    0.68690    0.78853    1.000
    C6       C        0.71909    0.87110    0.89003    1.000
    C7       C        0.66194    0.76300    0.81979    1.000
    C8       C        0.71521    0.93040    0.93203    1.000
    C9       C        0.66063    0.80550    0.86068    1.000
    H2       H        0.61990    0.78990    0.86870    1.000
    C10      C        0.52987    0.17480    0.94191    1.000
    H3       H        0.53440    0.16900    0.91420    1.000
    C11      C        0.64935    0.05460    0.97312    1.000
    C12      C        0.94732    0.97460    0.09030    1.000
    H4       H        0.99320    0.94840    0.09140    1.000
    C13      C        0.72281    0.78720    0.80799    1.000
    H5       H        0.72330    0.76380    0.78010    1.000
    C14      C        0.58330    0.12330    0.97707    1.000
    C15      C        0.65248    0.99380    0.93415    1.000
    H6       H        0.61290    0.99570    0.90970    1.000
    C16      C        0.10074    0.61990    0.78490    1.000
    H7       H        0.13670    0.60220    0.81190    1.000
    H8       H        0.12260    0.64320    0.76300    1.000
    H9       H        0.07200    0.53390    0.77650    1.000
    C17      C        0.77241    0.92890    0.96933    1.000
    H10      H        0.81480    0.88560    0.96920    1.000
    C18      C        0.89473    0.96040    0.05135    1.000
    H11      H        0.90550    0.92370    0.02730    1.000
    C19      C        0.86954    0.05960    0.12336    1.000
    H12      H        0.85980    0.09130    0.14830    1.000
    C20      C        0.81448    0.05270    0.08586    1.000
    H13      H        0.76950    0.08280    0.08560    1.000
    C21      C        0.76594    0.99290    0.00715    1.000
    C22      C        0.57300    0.13810    0.01767    1.000
    H14      H        0.60750    0.10690    0.04260    1.000
    C23      C        0.82566    0.00070    0.04797    1.000
    C24      C        0.46951    0.23530    0.94813    1.000
    H15      H        0.43410    0.26760    0.92380    1.000
    C25      C        0.51120    0.19950    0.02028    1.000
    H16      H        0.50500    0.20670    0.04760    1.000
    Eu2      Eu       0.46177    0.47960    0.79932    1.000
    O7       O        0.56605    0.37270    0.77659    1.000
    O8       O        0.40817    0.37350    0.85291    1.000
    O9       O        0.10671    0.14549    0.75320    1.000
    O10      O        0.34294    0.37660    0.78440    1.000
    O11      O        0.50789    0.22600    0.80752    1.000
    O12      O        0.04472    0.16903    0.80031    1.000
    N4       N        0.43625    0.52410    0.12669    1.000
    N5       N        0.20513    0.55410    0.00905    1.000
    N6       N        0.95889    0.75000    0.98635    1.000
    C26      C        0.34883    0.36540    0.82411    1.000
    C27      C        0.28124    0.38640    0.87840    1.000
    H17      H        0.32170    0.42410    0.89830    1.000
    C28      C        0.28289    0.34580    0.83731    1.000
    C29      C        0.55535    0.24520    0.79006    1.000
    C30      C        0.09942    0.18690    0.78853    1.000
    C31      C        0.21909    0.37110    0.89003    1.000
    C32      C        0.16194    0.26300    0.81979    1.000
    C33      C        0.21521    0.43040    0.93203    1.000
    C34      C        0.16063    0.30550    0.86068    1.000
    H18      H        0.11990    0.28990    0.86870    1.000
    C35      C        0.02987    0.67480    0.94191    1.000
    H19      H        0.03440    0.66900    0.91420    1.000
    C36      C        0.14935    0.55460    0.97312    1.000
    C37      C        0.44732    0.47460    0.09030    1.000
    H20      H        0.49320    0.44840    0.09140    1.000
    C38      C        0.22281    0.28720    0.80799    1.000
    H21      H        0.22330    0.26380    0.78010    1.000
    C39      C        0.08330    0.62330    0.97707    1.000
    C40      C        0.15248    0.49380    0.93415    1.000
    H22      H        0.11290    0.49570    0.90970    1.000
    C41      C        0.60074    0.11990    0.78490    1.000
    H23      H        0.63670    0.10220    0.81190    1.000
    H24      H        0.62260    0.14320    0.76300    1.000
    H25      H        0.57200    0.03390    0.77650    1.000
    C42      C        0.27241    0.42890    0.96933    1.000
    H26      H        0.31480    0.38560    0.96920    1.000
    C43      C        0.39473    0.46040    0.05135    1.000
    H27      H        0.40550    0.42370    0.02730    1.000
    C44      C        0.36954    0.55960    0.12336    1.000
    H28      H        0.35980    0.59130    0.14830    1.000
    C45      C        0.31448    0.55270    0.08586    1.000
    H29      H        0.26950    0.58280    0.08560    1.000
    C46      C        0.26594    0.49290    0.00715    1.000
    C47      C        0.07300    0.63810    0.01767    1.000
    H30      H        0.10750    0.60690    0.04260    1.000
    C48      C        0.32566    0.50070    0.04797    1.000
    C49      C        0.96951    0.73530    0.94813    1.000
    H31      H        0.93410    0.76760    0.92380    1.000
    C50      C        0.01120    0.69950    0.02028    1.000
    H32      H        0.00500    0.70670    0.04760    1.000
    Eu3      Eu       0.03823    0.97960    0.70068    1.000
    O13      O        0.93395    0.87270    0.72341    1.000
    O14      O        0.09183    0.87350    0.64709    1.000
    O15      O        0.39329    0.64549    0.74680    1.000
    O16      O        0.15706    0.87660    0.71560    1.000
    O17      O        0.99211    0.72600    0.69248    1.000
    O18      O        0.45528    0.66903    0.69969    1.000
    N7       N        0.06375    0.02410    0.37331    1.000
    N8       N        0.29487    0.05410    0.49095    1.000
    N9       N        0.54111    0.25000    0.51365    1.000
    C51      C        0.15117    0.86540    0.67589    1.000
    C52      C        0.21876    0.88640    0.62160    1.000
    H33      H        0.17830    0.92410    0.60170    1.000
    C53      C        0.21711    0.84580    0.66269    1.000
    C54      C        0.94465    0.74520    0.70994    1.000
    C55      C        0.40058    0.68690    0.71147    1.000
    C56      C        0.28091    0.87110    0.60997    1.000
    C57      C        0.33806    0.76300    0.68021    1.000
    C58      C        0.28479    0.93040    0.56797    1.000
    C59      C        0.33937    0.80550    0.63932    1.000
    H34      H        0.38010    0.78990    0.63130    1.000
    C60      C        0.47013    0.17480    0.55809    1.000
    H35      H        0.46560    0.16900    0.58580    1.000
    C61      C        0.35065    0.05460    0.52688    1.000
    C62      C        0.05268    0.97460    0.40970    1.000
    H36      H        0.00680    0.94840    0.40860    1.000
    C63      C        0.27719    0.78720    0.69201    1.000
    H37      H        0.27670    0.76380    0.71990    1.000
    C64      C        0.41670    0.12330    0.52293    1.000
    C65      C        0.34752    0.99380    0.56585    1.000
    H38      H        0.38710    0.99570    0.59030    1.000
    C66      C        0.89926    0.61990    0.71510    1.000
    H39      H        0.86330    0.60220    0.68810    1.000
    H40      H        0.87740    0.64320    0.73700    1.000
    H41      H        0.92800    0.53390    0.72350    1.000
    C67      C        0.22759    0.92890    0.53067    1.000
    H42      H        0.18520    0.88560    0.53080    1.000
    C68      C        0.10527    0.96040    0.44865    1.000
    H43      H        0.09450    0.92370    0.47270    1.000
    C69      C        0.13046    0.05960    0.37664    1.000
    H44      H        0.14020    0.09130    0.35170    1.000
    C70      C        0.18552    0.05270    0.41414    1.000
    H45      H        0.23050    0.08280    0.41440    1.000
    C71      C        0.23406    0.99290    0.49285    1.000
    C72      C        0.42700    0.13810    0.48233    1.000
    H46      H        0.39250    0.10690    0.45740    1.000
    C73      C        0.17434    0.00070    0.45203    1.000
    C74      C        0.53049    0.23530    0.55187    1.000
    H47      H        0.56590    0.26760    0.57620    1.000
    C75      C        0.48880    0.19950    0.47972    1.000
    H48      H        0.49500    0.20670    0.45240    1.000
    Eu4      Eu       0.53823    0.47960    0.70068    1.000
    O19      O        0.43395    0.37270    0.72341    1.000
    O20      O        0.59183    0.37350    0.64709    1.000
    O21      O        0.89329    0.14549    0.74680    1.000
    O22      O        0.65706    0.37660    0.71560    1.000
    O23      O        0.49211    0.22600    0.69248    1.000
    O24      O        0.95528    0.16903    0.69969    1.000
    N10      N        0.56375    0.52410    0.37331    1.000
    N11      N        0.79487    0.55410    0.49095    1.000
    N12      N        0.04111    0.75000    0.51365    1.000
    C76      C        0.65117    0.36540    0.67589    1.000
    C77      C        0.71876    0.38640    0.62160    1.000
    H49      H        0.67830    0.42410    0.60170    1.000
    C78      C        0.71711    0.34580    0.66269    1.000
    C79      C        0.44465    0.24520    0.70994    1.000
    C80      C        0.90058    0.18690    0.71147    1.000
    C81      C        0.78091    0.37110    0.60997    1.000
    C82      C        0.83806    0.26300    0.68021    1.000
    C83      C        0.78479    0.43040    0.56797    1.000
    C84      C        0.83937    0.30550    0.63932    1.000
    H50      H        0.88010    0.28990    0.63130    1.000
    C85      C        0.97013    0.67480    0.55809    1.000
    H51      H        0.96560    0.66900    0.58580    1.000
    C86      C        0.85065    0.55460    0.52688    1.000
    C87      C        0.55268    0.47460    0.40970    1.000
    H52      H        0.50680    0.44840    0.40860    1.000
    C88      C        0.77719    0.28720    0.69201    1.000
    H53      H        0.77670    0.26380    0.71990    1.000
    C89      C        0.91670    0.62330    0.52293    1.000
    C90      C        0.84752    0.49380    0.56585    1.000
    H54      H        0.88710    0.49570    0.59030    1.000
    C91      C        0.39926    0.11990    0.71510    1.000
    H55      H        0.36330    0.10220    0.68810    1.000
    H56      H        0.37740    0.14320    0.73700    1.000
    H57      H        0.42800    0.03390    0.72350    1.000
    C92      C        0.72759    0.42890    0.53067    1.000
    H58      H        0.68520    0.38560    0.53080    1.000
    C93      C        0.60527    0.46040    0.44865    1.000
    H59      H        0.59450    0.42370    0.47270    1.000
    C94      C        0.63046    0.55960    0.37664    1.000
    H60      H        0.64020    0.59130    0.35170    1.000
    C95      C        0.68552    0.55270    0.41414    1.000
    H61      H        0.73050    0.58280    0.41440    1.000
    C96      C        0.73406    0.49290    0.49285    1.000
    C97      C        0.92700    0.63810    0.48233    1.000
    H62      H        0.89250    0.60690    0.45740    1.000
    C98      C        0.67434    0.50070    0.45203    1.000
    C99      C        0.03049    0.73530    0.55187    1.000
    H63      H        0.06590    0.76760    0.57620    1.000
    C100     C        0.98880    0.69950    0.47972    1.000
    H64      H        0.99500    0.70670    0.45240    1.000
    Eu5      Eu       0.03823    0.02040    0.20068    1.000
    O25      O        0.93395    0.12730    0.22341    1.000
    O26      O        0.09183    0.12650    0.14709    1.000
    O27      O        0.39329    0.35451    0.24680    1.000
    O28      O        0.15706    0.12340    0.21560    1.000
    O29      O        0.99211    0.27400    0.19248    1.000
    O30      O        0.45528    0.33097    0.19969    1.000
    N13      N        0.06375    0.97590    0.87331    1.000
    N14      N        0.29487    0.94590    0.99095    1.000
    N15      N        0.54111    0.75000    0.01365    1.000
    C101     C        0.15117    0.13460    0.17589    1.000
    C102     C        0.21876    0.11360    0.12160    1.000
    H65      H        0.17830    0.07590    0.10170    1.000
    C103     C        0.21711    0.15420    0.16269    1.000
    C104     C        0.94465    0.25480    0.20994    1.000
    C105     C        0.40058    0.31310    0.21147    1.000
    C106     C        0.28091    0.12890    0.10997    1.000
    C107     C        0.33806    0.23700    0.18021    1.000
    C108     C        0.28479    0.06960    0.06797    1.000
    C109     C        0.33937    0.19450    0.13932    1.000
    H66      H        0.38010    0.21010    0.13130    1.000
    C110     C        0.47013    0.82520    0.05809    1.000
    H67      H        0.46560    0.83100    0.08580    1.000
    C111     C        0.35065    0.94540    0.02688    1.000
    C112     C        0.05268    0.02540    0.90970    1.000
    H68      H        0.00680    0.05160    0.90860    1.000
    C113     C        0.27719    0.21280    0.19201    1.000
    H69      H        0.27670    0.23620    0.21990    1.000
    C114     C        0.41670    0.87670    0.02293    1.000
    C115     C        0.34752    0.00620    0.06585    1.000
    H70      H        0.38710    0.00430    0.09030    1.000
    C116     C        0.89926    0.38010    0.21510    1.000
    H71      H        0.86330    0.39780    0.18810    1.000
    H72      H        0.87740    0.35680    0.23700    1.000
    H73      H        0.92800    0.46610    0.22350    1.000
    C117     C        0.22759    0.07110    0.03067    1.000
    H74      H        0.18520    0.11440    0.03080    1.000
    C118     C        0.10527    0.03960    0.94865    1.000
    H75      H        0.09450    0.07630    0.97270    1.000
    C119     C        0.13046    0.94040    0.87664    1.000
    H76      H        0.14020    0.90870    0.85170    1.000
    C120     C        0.18552    0.94730    0.91414    1.000
    H77      H        0.23050    0.91720    0.91440    1.000
    C121     C        0.23406    0.00710    0.99285    1.000
    C122     C        0.42700    0.86190    0.98233    1.000
    H78      H        0.39250    0.89310    0.95740    1.000
    C123     C        0.17434    0.99930    0.95203    1.000
    C124     C        0.53049    0.76470    0.05187    1.000
    H79      H        0.56590    0.73240    0.07620    1.000
    C125     C        0.48880    0.80050    0.97972    1.000
    H80      H        0.49500    0.79330    0.95240    1.000
    Eu6      Eu       0.53823    0.52040    0.20068    1.000
    O31      O        0.43395    0.62730    0.22341    1.000
    O32      O        0.59183    0.62650    0.14709    1.000
    O33      O        0.89329    0.85451    0.24680    1.000
    O34      O        0.65706    0.62340    0.21560    1.000
    O35      O        0.49211    0.77400    0.19248    1.000
    O36      O        0.95528    0.83097    0.19969    1.000
    N16      N        0.56375    0.47590    0.87331    1.000
    N17      N        0.79487    0.44590    0.99095    1.000
    N18      N        0.04111    0.25000    0.01365    1.000
    C126     C        0.65117    0.63460    0.17589    1.000
    C127     C        0.71876    0.61360    0.12160    1.000
    H81      H        0.67830    0.57590    0.10170    1.000
    C128     C        0.71711    0.65420    0.16269    1.000
    C129     C        0.44465    0.75480    0.20994    1.000
    C130     C        0.90058    0.81310    0.21147    1.000
    C131     C        0.78091    0.62890    0.10997    1.000
    C132     C        0.83806    0.73700    0.18021    1.000
    C133     C        0.78479    0.56960    0.06797    1.000
    C134     C        0.83937    0.69450    0.13932    1.000
    H82      H        0.88010    0.71010    0.13130    1.000
    C135     C        0.97013    0.32520    0.05809    1.000
    H83      H        0.96560    0.33100    0.08580    1.000
    C136     C        0.85065    0.44540    0.02688    1.000
    C137     C        0.55268    0.52540    0.90970    1.000
    H84      H        0.50680    0.55160    0.90860    1.000
    C138     C        0.77719    0.71280    0.19201    1.000
    H85      H        0.77670    0.73620    0.21990    1.000
    C139     C        0.91670    0.37670    0.02293    1.000
    C140     C        0.84752    0.50620    0.06585    1.000
    H86      H        0.88710    0.50430    0.09030    1.000
    C141     C        0.39926    0.88010    0.21510    1.000
    H87      H        0.36330    0.89780    0.18810    1.000
    H88      H        0.37740    0.85680    0.23700    1.000
    H89      H        0.42800    0.96610    0.22350    1.000
    C142     C        0.72759    0.57110    0.03067    1.000
    H90      H        0.68520    0.61440    0.03080    1.000
    C143     C        0.60527    0.53960    0.94865    1.000
    H91      H        0.59450    0.57630    0.97270    1.000
    C144     C        0.63046    0.44040    0.87664    1.000
    H92      H        0.64020    0.40870    0.85170    1.000
    C145     C        0.68552    0.44730    0.91414    1.000
    H93      H        0.73050    0.41720    0.91440    1.000
    C146     C        0.73406    0.50710    0.99285    1.000
    C147     C        0.92700    0.36190    0.98233    1.000
    H94      H        0.89250    0.39310    0.95740    1.000
    C148     C        0.67434    0.49930    0.95203    1.000
    C149     C        0.03049    0.26470    0.05187    1.000
    H95      H        0.06590    0.23240    0.07620    1.000
    C150     C        0.98880    0.30050    0.97972    1.000
    H96      H        0.99500    0.29330    0.95240    1.000
    Eu7      Eu       0.96177    0.02040    0.29932    1.000
    O37      O        0.06605    0.12730    0.27659    1.000
    O38      O        0.90817    0.12650    0.35291    1.000
    O39      O        0.60671    0.35451    0.25320    1.000
    O40      O        0.84294    0.12340    0.28440    1.000
    O41      O        0.00789    0.27400    0.30752    1.000
    O42      O        0.54472    0.33097    0.30031    1.000
    N19      N        0.93625    0.97590    0.62669    1.000
    N20      N        0.70513    0.94590    0.50905    1.000
    N21      N        0.45889    0.75000    0.48635    1.000
    C151     C        0.84883    0.13460    0.32411    1.000
    C152     C        0.78124    0.11360    0.37840    1.000
    H97      H        0.82170    0.07590    0.39830    1.000
    C153     C        0.78289    0.15420    0.33731    1.000
    C154     C        0.05535    0.25480    0.29006    1.000
    C155     C        0.59942    0.31310    0.28853    1.000
    C156     C        0.71909    0.12890    0.39003    1.000
    C157     C        0.66194    0.23700    0.31979    1.000
    C158     C        0.71521    0.06960    0.43203    1.000
    C159     C        0.66063    0.19450    0.36068    1.000
    H98      H        0.61990    0.21010    0.36870    1.000
    C160     C        0.52987    0.82520    0.44191    1.000
    H99      H        0.53440    0.83100    0.41420    1.000
    C161     C        0.64935    0.94540    0.47312    1.000
    C162     C        0.94732    0.02540    0.59030    1.000
    H100     H        0.99320    0.05160    0.59140    1.000
    C163     C        0.72281    0.21280    0.30799    1.000
    H101     H        0.72330    0.23620    0.28010    1.000
    C164     C        0.58330    0.87670    0.47707    1.000
    C165     C        0.65248    0.00620    0.43415    1.000
    H102     H        0.61290    0.00430    0.40970    1.000
    C166     C        0.10074    0.38010    0.28490    1.000
    H103     H        0.13670    0.39780    0.31190    1.000
    H104     H        0.12260    0.35680    0.26300    1.000
    H105     H        0.07200    0.46610    0.27650    1.000
    C167     C        0.77241    0.07110    0.46933    1.000
    H106     H        0.81480    0.11440    0.46920    1.000
    C168     C        0.89473    0.03960    0.55135    1.000
    H107     H        0.90550    0.07630    0.52730    1.000
    C169     C        0.86954    0.94040    0.62336    1.000
    H108     H        0.85980    0.90870    0.64830    1.000
    C170     C        0.81448    0.94730    0.58586    1.000
    H109     H        0.76950    0.91720    0.58560    1.000
    C171     C        0.76594    0.00710    0.50715    1.000
    C172     C        0.57300    0.86190    0.51767    1.000
    H110     H        0.60750    0.89310    0.54260    1.000
    C173     C        0.82566    0.99930    0.54797    1.000
    C174     C        0.46951    0.76470    0.44813    1.000
    H111     H        0.43410    0.73240    0.42380    1.000
    C175     C        0.51120    0.80050    0.52028    1.000
    H112     H        0.50500    0.79330    0.54760    1.000
    Eu8      Eu       0.46177    0.52040    0.29932    1.000
    O43      O        0.56605    0.62730    0.27659    1.000
    O44      O        0.40817    0.62650    0.35291    1.000
    O45      O        0.10671    0.85451    0.25320    1.000
    O46      O        0.34294    0.62340    0.28440    1.000
    O47      O        0.50789    0.77400    0.30752    1.000
    O48      O        0.04472    0.83097    0.30031    1.000
    N22      N        0.43625    0.47590    0.62669    1.000
    N23      N        0.20513    0.44590    0.50905    1.000
    N24      N        0.95889    0.25000    0.48635    1.000
    C176     C        0.34883    0.63460    0.32411    1.000
    C177     C        0.28124    0.61360    0.37840    1.000
    H113     H        0.32170    0.57590    0.39830    1.000
    C178     C        0.28289    0.65420    0.33731    1.000
    C179     C        0.55535    0.75480    0.29006    1.000
    C180     C        0.09942    0.81310    0.28853    1.000
    C181     C        0.21909    0.62890    0.39003    1.000
    C182     C        0.16194    0.73700    0.31979    1.000
    C183     C        0.21521    0.56960    0.43203    1.000
    C184     C        0.16063    0.69450    0.36068    1.000
    H114     H        0.11990    0.71010    0.36870    1.000
    C185     C        0.02987    0.32520    0.44191    1.000
    H115     H        0.03440    0.33100    0.41420    1.000
    C186     C        0.14935    0.44540    0.47312    1.000
    C187     C        0.44732    0.52540    0.59030    1.000
    H116     H        0.49320    0.55160    0.59140    1.000
    C188     C        0.22281    0.71280    0.30799    1.000
    H117     H        0.22330    0.73620    0.28010    1.000
    C189     C        0.08330    0.37670    0.47707    1.000
    C190     C        0.15248    0.50620    0.43415    1.000
    H118     H        0.11290    0.50430    0.40970    1.000
    C191     C        0.60074    0.88010    0.28490    1.000
    H119     H        0.63670    0.89780    0.31190    1.000
    H120     H        0.62260    0.85680    0.26300    1.000
    H121     H        0.57200    0.96610    0.27650    1.000
    C192     C        0.27241    0.57110    0.46933    1.000
    H122     H        0.31480    0.61440    0.46920    1.000
    C193     C        0.39473    0.53960    0.55135    1.000
    H123     H        0.40550    0.57630    0.52730    1.000
    C194     C        0.36954    0.44040    0.62336    1.000
    H124     H        0.35980    0.40870    0.64830    1.000
    C195     C        0.31448    0.44730    0.58586    1.000
    H125     H        0.26950    0.41720    0.58560    1.000
    C196     C        0.26594    0.50710    0.50715    1.000
    C197     C        0.07300    0.36190    0.51767    1.000
    H126     H        0.10750    0.39310    0.54260    1.000
    C198     C        0.32566    0.49930    0.54797    1.000
    C199     C        0.96951    0.26470    0.44813    1.000
    H127     H        0.93410    0.23240    0.42380    1.000
    C200     C        0.01120    0.30050    0.52028    1.000
    H128     H        0.00500    0.29330    0.54760    1.000
