# CIF file generated by openbabel 3.1.0, see https://openbabel.org
data_I
_chemical_name_common 'DAXHIV01_clean'
_cell_length_a 12.0115
_cell_length_b 12.102
_cell_length_c 13.6788
_cell_angle_alpha 98.6833
_cell_angle_beta 116.044
_cell_angle_gamma 69.8879
_space_group_name_H-M_alt 'P 1'
_space_group_name_Hall 'P 1'
loop_
    _symmetry_equiv_pos_as_xyz
    x,y,z
loop_
    _atom_site_label
    _atom_site_type_symbol
    _atom_site_fract_x
    _atom_site_fract_y
    _atom_site_fract_z
    _atom_site_occupancy
    Fe1      Fe       0.00000    0.00000    0.00000    1.000
    Fe2      Fe       0.10664    0.25873    0.00000    1.000
    Fe3      Fe       0.89336    0.74127    0.00000    1.000
    H1       H        0.90520    0.92010    0.57540    1.000
    H2       H        0.13450    0.11170    0.60760    1.000
    H3       H        0.67020    0.07990    0.57540    1.000
    H4       H        0.47310    0.88830    0.60760    1.000
    H5       H        0.09480    0.07990    0.42460    1.000
    H6       H        0.86550    0.88830    0.39240    1.000
    H7       H        0.32980    0.92010    0.42460    1.000
    H8       H        0.52690    0.11170    0.39240    1.000
    H9       H        0.52780    0.30090    0.00000    1.000
    H10      H        0.66460    0.55920    0.00000    1.000
    H11      H        0.47220    0.69910    0.00000    1.000
    H12      H        0.33540    0.44080    0.00000    1.000
    C1       C        0.94415    0.95320    0.54490    1.000
    C2       C        0.02258    0.01930    0.60936    1.000
    C3       C        0.07931    0.06620    0.56402    1.000
    C4       C        0.04409    0.04240    0.72418    1.000
    C5       C        0.60075    0.04680    0.54490    1.000
    C6       C        0.58678    0.98070    0.60936    1.000
    C7       C        0.48471    0.93380    0.56402    1.000
    C8       C        0.68009    0.95760    0.72418    1.000
    C9       C        0.05585    0.04680    0.45510    1.000
    C10      C        0.97742    0.98070    0.39064    1.000
    C11      C        0.92069    0.93380    0.43598    1.000
    C12      C        0.95591    0.95760    0.27582    1.000
    C13      C        0.39925    0.95320    0.45510    1.000
    C14      C        0.41322    0.01930    0.39064    1.000
    C15      C        0.51529    0.06620    0.43598    1.000
    C16      C        0.31991    0.04240    0.27582    1.000
    C17      C        0.51720    0.38230    0.00000    1.000
    C18      C        0.61450    0.41730    0.00000    1.000
    C19      C        0.59790    0.53390    0.00000    1.000
    C20      C        0.73650    0.33060    0.00000    1.000
    C21      C        0.48280    0.61770    0.00000    1.000
    C22      C        0.38550    0.58270    0.00000    1.000
    C23      C        0.40210    0.46610    0.00000    1.000
    C24      C        0.26350    0.66940    0.00000    1.000
    C25      C        0.96864    0.50000    0.93728    1.000
    C26      C        0.03136    0.50000    0.06272    1.000
    N1       N        0.02139    0.98020    0.78198    1.000
    N2       N        0.04248    0.03630    0.87716    1.000
    N3       N        0.07694    0.12830    0.87528    1.000
    N4       N        0.07874    0.13510    0.77968    1.000
    N5       N        0.76059    0.01980    0.78198    1.000
    N6       N        0.83468    0.96370    0.87716    1.000
    N7       N        0.79834    0.87170    0.87528    1.000
    N8       N        0.70094    0.86490    0.77968    1.000
    N9       N        0.97861    0.01980    0.21802    1.000
    N10      N        0.95752    0.96370    0.12284    1.000
    N11      N        0.92306    0.87170    0.12472    1.000
    N12      N        0.92126    0.86490    0.22032    1.000
    N13      N        0.23941    0.98020    0.21802    1.000
    N14      N        0.16532    0.03630    0.12284    1.000
    N15      N        0.20166    0.12830    0.12472    1.000
    N16      N        0.29906    0.13510    0.22032    1.000
    N17      N        0.76650    0.21270    0.00000    1.000
    N18      N        0.88620    0.17370    0.00000    1.000
    N19      N        0.92390    0.26310    0.00000    1.000
    N20      N        0.83150    0.36410    0.00000    1.000
    N21      N        0.23350    0.78730    0.00000    1.000
    N22      N        0.11380    0.82630    0.00000    1.000
    N23      N        0.07610    0.73690    0.00000    1.000
    N24      N        0.16850    0.63590    0.00000    1.000
    O1       O        0.99697    0.40361    0.89032    1.000
    O2       O        0.89335    0.59639    0.89032    1.000
    O3       O        0.00303    0.59639    0.10968    1.000
    O4       O        0.10665    0.40361    0.10968    1.000
