data_functionalizedCrystal
_audit_creation_method	'EQeq! by Chris Wilmer'
_symmetry_space_group_name_H-M	'P1'
_symmetry_Int_Tables_number	1
_symmetry_cell_setting	triclinic
loop_
_symmetry_equiv_pos_as_xyz
  x,y,z
_cell_length_a	12.0014
_cell_length_b	14.686
_cell_length_c	21.176
_cell_angle_alpha	81.093
_cell_angle_beta	83.08
_cell_angle_gamma	76.571
loop_
_atom_site_label
_atom_site_type_symbol
_atom_site_fract_x
_atom_site_fract_y
_atom_site_fract_z
_atom_site_charge
Mof_Cd	Cd	0.00986	0.37902	0.12832	0.48
Mof_Mo	Mo	0.05147	0.01909	0.17163	1.95
Mof_Mo	Mo	0.80525	0.85104	0.95142	1.17
Mof_Mo	Mo	0.91929	0.75503	0.04553	1.246
Mof_Mo	Mo	0.20848	0.76408	0.05561	1.212
Mof_Mo	Mo	0.31281	0.86159	0.9636	1.188
Mof_Mo	Mo	0.83656	0.01124	0.16885	2.018
Mof_Mo	Mo	0.80225	0.47974	0.41187	1.196
Mof_Mo	Mo	0.5677	0.52111	0.31719	1.202
Mof_Mo	Mo	0.38269	0.64771	0.34343	1.199
Mof_Mo	Mo	0.36503	0.77069	0.47367	1.165
Mof_Mo	Mo	0.53904	0.73857	0.54229	1.177
Mof_Mo	Mo	0.78999	0.56863	0.51033	1.181
Mof_Mg	Mg	0.2617	0.0763	0.3402	1.452
Mof_Cl	Cl	0.834	0.9049	0.2108	-0.917
Mof_Cl	Cl	0.1025	0.9142	0.2134	-0.908
Mof_N 	N 	0.4148	0.038	0.3786	-0.388
Mof_H 	H 	0.4093	0.9847	0.405	0.128
Mof_H 	H 	0.4096	0.082	0.4047	0.091
Mof_N 	N 	0.7114	0.9252	0.3983	-0.435
Mof_H 	H 	0.7647	0.9471	0.3713	0.193
Mof_H 	H 	0.7394	0.9027	0.4361	0.196
Mof_H 	H 	0.6914	0.8791	0.3825	0.216
Mof_O 	O 	0.0221	0.1546	0.1079	-0.541
Mof_O 	O 	0.9122	0.2499	0.0181	-0.442
Mof_O 	O 	0.8146	0.1524	0.1045	-0.502
Mof_O 	O 	0.8701	0.2972	0.1305	-0.273
Mof_O 	O 	0.1329	0.0945	0.2204	-0.474
Mof_O 	O 	0.2456	0.1773	0.1306	-0.403
Mof_O 	O 	0.1015	0.2734	0.2034	-0.28
Mof_O 	O 	0.2826	0.1723	0.2446	-0.436
Mof_O 	O 	0.0027	0.6173	0.0668	-0.402
Mof_O 	O 	0.2065	0.6221	0.0794	-0.377
Mof_O 	O 	0.1389	0.471	0.1084	-0.261
Mof_O 	O 	0.0673	0.6025	0.1782	-0.276
Mof_O 	O 	0.4226	0.8279	0.8859	-0.412
Mof_O 	O 	0.3146	0.918	0.7907	-0.454
Mof_O 	O 	0.4545	0.7629	0.781	-0.27
Mof_O 	O 	0.5225	0.9103	0.7916	-0.452
Mof_H 	H 	0.5862	0.8752	0.78	0.28
Mof_O 	O 	0.1959	0.016	0.1023	-0.726
Mof_H 	H 	0.1956	0.9763	0.0771	0.293
Mof_O 	O 	0.8712	0.7158	0.9703	-0.528
Mof_O 	O 	0.0387	0.7868	0.0986	-0.653
Mof_H 	H 	0.0173	0.8444	0.1046	0.313
Mof_O 	O 	0.3282	0.7267	0.9889	-0.518
Mof_O 	O 	0.2627	0.9945	0.9055	-0.719
Mof_H 	H 	0.2243	0.0346	0.9292	0.279
Mof_O 	O 	0.9113	0.0746	0.2202	-0.66
Mof_O 	O 	0.8907	0.8899	0.0118	-0.61
Mof_O 	O 	0.1689	0.8974	0.0171	-0.612
Mof_O 	O 	0.9719	0.9809	0.1069	-0.715
Mof_O 	O 	0.67	0.6009	0.3643	-0.409
Mof_O 	O 	0.492	0.7191	0.3906	-0.425
Mof_O 	O 	0.658	0.6904	0.4578	-0.418
Mof_O 	O 	0.673	0.7748	0.3447	-0.224
Mof_O 	O 	0.8763	0.4963	0.3183	-0.397
Mof_O 	O 	0.7084	0.5172	0.2514	-0.393
Mof_O 	O 	0.907	0.4357	0.214	-0.278
Mof_O 	O 	0.8546	0.6116	0.2173	-0.417
Mof_H 	H 	0.9251	0.6085	0.2044	0.286
Mof_O 	O 	0.3207	0.786	0.306	-0.355
Mof_O 	O 	0.3144	0.8752	0.4003	-0.48
Mof_O 	O 	0.2792	0.9604	0.2942	-0.418
Mof_O 	O 	0.1303	0.8723	0.3549	-0.399
Mof_H 	H 	0.1058	0.9063	0.3849	0.185
Mof_O 	O 	0.6684	0.8088	0.5472	-0.44
Mof_O 	O 	0.8467	0.6816	0.5264	-0.43
Mof_O 	O 	0.8513	0.8501	0.4947	-0.304
Mof_O 	O 	0.1635	0.2139	0.3884	-0.44
Mof_O 	O 	0.4649	0.5352	0.3957	-0.615
Mof_O 	O 	0.4495	0.6533	0.5202	-0.604
Mof_O 	O 	0.6837	0.4203	0.3725	-0.658
Mof_H 	H 	0.646	0.3924	0.403	0.246
Mof_O 	O 	0.5039	0.6453	0.2731	-0.515
Mof_O 	O 	0.2912	0.6867	0.4279	-0.675
Mof_H 	H 	0.2852	0.637	0.4534	0.241
Mof_O 	O 	0.4748	0.8457	0.4817	-0.541
Mof_O 	O 	0.6549	0.6163	0.5783	-0.668
Mof_H 	H 	0.6185	0.5727	0.5911	0.248
Mof_O 	O 	0.8753	0.5778	0.4274	-0.752
Mof_H 	H 	0.9478	0.5611	0.4282	0.254
Mof_O 	O 	0.6888	0.4938	0.4862	-0.61
Mof_P 	P 	0.90224	0.21631	0.09088	0.615
Mof_P 	P 	0.1884	0.18099	0.19937	0.565
Mof_P 	P 	0.42756	0.85262	0.8124	0.608
Mof_P 	P 	0.10445	0.577	0.11082	0.527
Mof_P 	P 	0.62495	0.69923	0.38813	0.575
Mof_P 	P 	0.83717	0.51234	0.25012	0.601
Mof_P 	P 	0.25533	0.87075	0.33985	0.565
Mof_P 	P 	0.80208	0.78197	0.54565	0.539
Mof_C 	C 	0.5355	0.0207	0.3544	-0.176
Mof_H 	H 	0.5514	0.9691	0.3287	0.12
Mof_H 	H 	0.55	0.0765	0.3265	0.077
Mof_C 	C 	0.6165	0.9969	0.4063	0.157
Mof_H 	H 	0.5737	0.9801	0.4466	-0.007
Mof_H 	H 	0.6428	0.0533	0.41	-0.064
Mof_Cd	Cd	0.99014	0.62098	0.87168	0.507
Mof_Mo	Mo	0.94853	0.98091	0.82837	2.037
Mof_Mo	Mo	0.19475	0.14896	0.04858	1.13
Mof_Mo	Mo	0.08071	0.24497	0.95447	1.244
Mof_Mo	Mo	0.79152	0.23592	0.94439	1.259
Mof_Mo	Mo	0.68719	0.13841	0.0364	1.142
Mof_Mo	Mo	0.16344	0.98876	0.83115	2.044
Mof_Mo	Mo	0.19775	0.52026	0.58813	1.186
Mof_Mo	Mo	0.4323	0.47889	0.68281	1.203
Mof_Mo	Mo	0.61731	0.35229	0.65657	1.202
Mof_Mo	Mo	0.63497	0.22931	0.52633	1.168
Mof_Mo	Mo	0.46096	0.26143	0.45771	1.177
Mof_Mo	Mo	0.21001	0.43137	0.48967	1.171
Mof_Mg	Mg	0.7383	0.9237	0.6598	1.453
Mof_Cl	Cl	0.166	0.0951	0.7892	-0.943
Mof_Cl	Cl	0.8975	0.0858	0.7866	-0.933
Mof_N 	N 	0.5852	0.962	0.6214	-0.388
Mof_H 	H 	0.5907	0.0153	0.595	0.119
Mof_H 	H 	0.5904	0.918	0.5953	0.092
Mof_N 	N 	0.2886	0.0748	0.6017	-0.415
Mof_H 	H 	0.2353	0.0529	0.6287	0.183
Mof_H 	H 	0.2606	0.0973	0.5639	0.189
Mof_H 	H 	0.3086	0.1209	0.6175	0.212
Mof_O 	O 	0.9779	0.8454	0.8921	-0.532
Mof_O 	O 	0.0878	0.7501	0.9819	-0.429
Mof_O 	O 	0.1854	0.8476	0.8955	-0.505
Mof_O 	O 	0.1299	0.7028	0.8695	-0.279
Mof_O 	O 	0.8671	0.9055	0.7796	-0.475
Mof_O 	O 	0.7544	0.8227	0.8694	-0.407
Mof_O 	O 	0.8985	0.7266	0.7966	-0.275
Mof_O 	O 	0.7174	0.8277	0.7554	-0.434
Mof_O 	O 	0.9973	0.3827	0.9332	-0.378
Mof_O 	O 	0.7935	0.3779	0.9206	-0.373
Mof_O 	O 	0.8611	0.529	0.8916	-0.255
Mof_O 	O 	0.9327	0.3975	0.8218	-0.265
Mof_O 	O 	0.5774	0.1721	0.1141	-0.408
Mof_O 	O 	0.6854	0.082	0.2093	-0.455
Mof_O 	O 	0.5455	0.2371	0.219	-0.271
Mof_O 	O 	0.4775	0.0897	0.2084	-0.457
Mof_H 	H 	0.4138	0.1248	0.22	0.28
Mof_O 	O 	0.8041	0.984	0.8977	-0.719
Mof_H 	H 	0.8044	0.0237	0.9229	0.286
Mof_O 	O 	0.1288	0.2842	0.0297	-0.541
Mof_O 	O 	0.9613	0.2132	0.9014	-0.65
Mof_H 	H 	0.9827	0.1556	0.8954	0.322
Mof_O 	O 	0.6718	0.2733	0.0111	-0.534
Mof_O 	O 	0.7373	0.0055	0.0945	-0.732
Mof_H 	H 	0.7757	0.9654	0.0708	0.29
Mof_O 	O 	0.0887	0.9254	0.7798	-0.684
Mof_O 	O 	0.1093	0.1101	0.9882	-0.597
Mof_O 	O 	0.8311	0.1026	0.9829	-0.594
Mof_O 	O 	0.0281	0.0191	0.8931	-0.754
Mof_O 	O 	0.33	0.3991	0.6357	-0.408
Mof_O 	O 	0.508	0.2809	0.6094	-0.425
Mof_O 	O 	0.342	0.3096	0.5422	-0.418
Mof_O 	O 	0.327	0.2252	0.6553	-0.224
Mof_O 	O 	0.1237	0.5037	0.6817	-0.402
Mof_O 	O 	0.2916	0.4828	0.7486	-0.393
Mof_O 	O 	0.093	0.5643	0.786	-0.291
Mof_O 	O 	0.1454	0.3884	0.7827	-0.416
Mof_H 	H 	0.0749	0.3915	0.7956	0.275
Mof_O 	O 	0.6793	0.214	0.694	-0.354
Mof_O 	O 	0.6856	0.1248	0.5997	-0.481
Mof_O 	O 	0.7208	0.0396	0.7058	-0.424
Mof_O 	O 	0.8697	0.1277	0.6451	-0.394
Mof_H 	H 	0.8942	0.0937	0.6151	0.187
Mof_O 	O 	0.3316	0.1912	0.4528	-0.441
Mof_O 	O 	0.1533	0.3184	0.4736	-0.434
Mof_O 	O 	0.1487	0.1499	0.5053	-0.312
Mof_O 	O 	0.8365	0.7861	0.6116	-0.432
Mof_O 	O 	0.5351	0.4648	0.6043	-0.615
Mof_O 	O 	0.5505	0.3467	0.4798	-0.604
Mof_O 	O 	0.3163	0.5797	0.6275	-0.658
Mof_H 	H 	0.354	0.6076	0.597	0.245
Mof_O 	O 	0.4961	0.3547	0.7269	-0.515
Mof_O 	O 	0.7088	0.3133	0.5721	-0.674
Mof_H 	H 	0.7148	0.363	0.5466	0.242
Mof_O 	O 	0.5252	0.1543	0.5183	-0.542
Mof_O 	O 	0.3451	0.3837	0.4217	-0.668
Mof_H 	H 	0.3815	0.4273	0.4089	0.247
Mof_O 	O 	0.1247	0.4222	0.5726	-0.749
Mof_H 	H 	0.0522	0.4389	0.5718	0.245
Mof_O 	O 	0.3112	0.5062	0.5138	-0.608
Mof_P 	P 	0.09776	0.78369	0.90912	0.6
Mof_P 	P 	0.8116	0.81901	0.80063	0.568
Mof_P 	P 	0.57244	0.14738	0.1876	0.606
Mof_P 	P 	0.89555	0.423	0.88918	0.527
Mof_P 	P 	0.37505	0.30077	0.61187	0.575
Mof_P 	P 	0.16283	0.48766	0.74988	0.6
Mof_P 	P 	0.74467	0.12925	0.66015	0.565
Mof_P 	P 	0.19792	0.21803	0.45435	0.539
Mof_C 	C 	0.4645	0.9793	0.6456	-0.1
Mof_H 	H 	0.4486	0.0309	0.6713	0.09
Mof_H 	H 	0.45	0.9235	0.6735	0.056
Mof_C 	C 	0.3835	0.0031	0.5937	0.078
Mof_H 	H 	0.4263	0.0199	0.5534	0.013
Mof_H 	H 	0.3572	0.9467	0.59	-0.033
Mof_Cd	Cd	-0	0	-0	0.514
Mof_Cd	Cd	0.5	0.5	0.5	0.551
_end
