# CIF file generated by openbabel 3.1.0, see https://openbabel.org
data_I
_chemical_name_common 'image0'
_cell_length_a 9.8636
_cell_length_b 9.8636
_cell_length_c 30.3529
_cell_angle_alpha 90
_cell_angle_beta 90
_cell_angle_gamma 90
_space_group_name_H-M_alt 'P 1'
_space_group_name_Hall 'P 1'
loop_
    _symmetry_equiv_pos_as_xyz
    x,y,z
loop_
    _atom_site_label
    _atom_site_type_symbol
    _atom_site_fract_x
    _atom_site_fract_y
    _atom_site_fract_z
    _atom_site_occupancy
    Fe1      Fe       0.22970    0.42060    0.09080    1.000
    Fe2      Fe       0.40720    0.95010    0.98870    1.000
    P1       P        0.44440    0.22190    0.14020    1.000
    P2       P        0.97020    0.67580    0.94430    1.000
    P3       P        0.37820    0.65520    0.03060    1.000
    O1       O        0.29420    0.31440    0.03980    1.000
    O2       O        0.31080    0.59350    0.07070    1.000
    O3       O        0.39230    0.35740    0.12280    1.000
    O4       O        0.97790    0.67140    0.89450    1.000
    O5       O        0.59970    0.22840    0.14200    1.000
    F1       F        0.07310    0.49290    0.05350    1.000
    O6       O        0.33100    0.80250    0.02400    1.000
    O7       O        0.00080    0.53340    0.96270    1.000
    O8       O        0.08250    0.26360    0.99530    1.000
    O9       O        0.37780    0.19260    0.18540    1.000
    F2       F        0.81700    0.56500    0.03230    1.000
    O10      O        0.83520    0.73630    0.95930    1.000
    O11      O        0.53180    0.64460    0.03690    1.000
    O12      O        0.39540    0.10170    0.11020    1.000
    O13      O        0.07600    0.77890    0.96410    1.000
    O14      O        0.33450    0.57980    0.98680    1.000
    Fe3      Fe       0.77030    0.57940    0.59080    1.000
    Fe4      Fe       0.59280    0.04990    0.48870    1.000
    P4       P        0.55560    0.77810    0.64020    1.000
    P5       P        0.02980    0.32420    0.44430    1.000
    P6       P        0.62180    0.34480    0.53060    1.000
    O15      O        0.70580    0.68560    0.53980    1.000
    O16      O        0.68920    0.40650    0.57070    1.000
    O17      O        0.60770    0.64260    0.62280    1.000
    O18      O        0.02210    0.32860    0.39450    1.000
    O19      O        0.40030    0.77160    0.64200    1.000
    F3       F        0.92690    0.50710    0.55350    1.000
    O20      O        0.66900    0.19750    0.52400    1.000
    O21      O        0.99920    0.46660    0.46270    1.000
    O22      O        0.91750    0.73640    0.49530    1.000
    O23      O        0.62220    0.80740    0.68540    1.000
    F4       F        0.18300    0.43500    0.53230    1.000
    O24      O        0.16480    0.26370    0.45930    1.000
    O25      O        0.46820    0.35540    0.53690    1.000
    O26      O        0.60460    0.89830    0.61020    1.000
    O27      O        0.92400    0.22110    0.46410    1.000
    O28      O        0.66550    0.42020    0.48680    1.000
    Fe5      Fe       0.07940    0.72970    0.84080    1.000
    Fe6      Fe       0.54990    0.90720    0.73870    1.000
    P7       P        0.27810    0.94440    0.89020    1.000
    P8       P        0.82420    0.47020    0.69430    1.000
    P9       P        0.84480    0.87820    0.78060    1.000
    O29      O        0.18560    0.79420    0.78980    1.000
    O30      O        0.90650    0.81080    0.82070    1.000
    O31      O        0.14260    0.89230    0.87280    1.000
    O32      O        0.82860    0.47790    0.64450    1.000
    O33      O        0.27160    0.09970    0.89200    1.000
    F5       F        0.00710    0.57310    0.80350    1.000
    O34      O        0.69750    0.83100    0.77400    1.000
    O35      O        0.96660    0.50080    0.71270    1.000
    O36      O        0.23640    0.58250    0.74530    1.000
    O37      O        0.30740    0.87780    0.93540    1.000
    F6       F        0.93500    0.31700    0.78230    1.000
    O38      O        0.76370    0.33520    0.70930    1.000
    O39      O        0.85540    0.03180    0.78690    1.000
    O40      O        0.39830    0.89540    0.86020    1.000
    O41      O        0.72110    0.57600    0.71410    1.000
    O42      O        0.92020    0.83450    0.73680    1.000
    Fe7      Fe       0.92060    0.27030    0.34080    1.000
    Fe8      Fe       0.45010    0.09280    0.23870    1.000
    P10      P        0.72190    0.05560    0.39020    1.000
    P11      P        0.17580    0.52980    0.19430    1.000
    P12      P        0.15520    0.12180    0.28060    1.000
    O43      O        0.81440    0.20580    0.28980    1.000
    O44      O        0.09350    0.18920    0.32070    1.000
    O45      O        0.85740    0.10770    0.37280    1.000
    O46      O        0.17140    0.52210    0.14450    1.000
    O47      O        0.72840    0.90030    0.39200    1.000
    F7       F        0.99290    0.42690    0.30350    1.000
    O48      O        0.30250    0.16900    0.27400    1.000
    O49      O        0.03340    0.49920    0.21270    1.000
    O50      O        0.76360    0.41750    0.24530    1.000
    O51      O        0.69260    0.12220    0.43540    1.000
    F8       F        0.06500    0.68300    0.28230    1.000
    O52      O        0.23630    0.66480    0.20930    1.000
    O53      O        0.14460    0.96820    0.28690    1.000
    O54      O        0.60170    0.10460    0.36020    1.000
    O55      O        0.27890    0.42400    0.21410    1.000
    O56      O        0.07980    0.16550    0.23680    1.000
    Fe9      Fe       0.27030    0.92060    0.65920    1.000
    Fe10     Fe       0.09280    0.45010    0.76130    1.000
    P13      P        0.05560    0.72190    0.60980    1.000
    P14      P        0.52980    0.17580    0.80570    1.000
    P15      P        0.12180    0.15520    0.71940    1.000
    O57      O        0.20580    0.81440    0.71020    1.000
    O58      O        0.18920    0.09350    0.67930    1.000
    O59      O        0.10770    0.85740    0.62720    1.000
    O60      O        0.52210    0.17140    0.85550    1.000
    O61      O        0.90030    0.72840    0.60800    1.000
    F9       F        0.42690    0.99290    0.69650    1.000
    O62      O        0.16900    0.30250    0.72600    1.000
    O63      O        0.49920    0.03340    0.78730    1.000
    O64      O        0.41750    0.76360    0.75470    1.000
    O65      O        0.12220    0.69260    0.56460    1.000
    F10      F        0.68300    0.06500    0.71770    1.000
    O66      O        0.66480    0.23630    0.79070    1.000
    O67      O        0.96820    0.14460    0.71310    1.000
    O68      O        0.10460    0.60170    0.63980    1.000
    O69      O        0.42400    0.27890    0.78590    1.000
    O70      O        0.16550    0.07980    0.76320    1.000
    Fe11     Fe       0.72970    0.07940    0.15920    1.000
    Fe12     Fe       0.90720    0.54990    0.26130    1.000
    P16      P        0.94440    0.27810    0.10980    1.000
    P17      P        0.47020    0.82420    0.30570    1.000
    P18      P        0.87820    0.84480    0.21940    1.000
    O71      O        0.79420    0.18560    0.21020    1.000
    O72      O        0.81080    0.90650    0.17930    1.000
    O73      O        0.89230    0.14260    0.12720    1.000
    O74      O        0.47790    0.82860    0.35550    1.000
    O75      O        0.09970    0.27160    0.10800    1.000
    F11      F        0.57310    0.00710    0.19650    1.000
    O76      O        0.83100    0.69750    0.22600    1.000
    O77      O        0.50080    0.96660    0.28730    1.000
    O78      O        0.58250    0.23640    0.25470    1.000
    O79      O        0.87780    0.30740    0.06460    1.000
    F12      F        0.31700    0.93500    0.21770    1.000
    O80      O        0.33520    0.76370    0.29070    1.000
    O81      O        0.03180    0.85540    0.21310    1.000
    O82      O        0.89540    0.39830    0.13980    1.000
    O83      O        0.57600    0.72110    0.28590    1.000
    O84      O        0.83450    0.92020    0.26320    1.000
    Fe13     Fe       0.42060    0.22970    0.90920    1.000
    Fe14     Fe       0.95010    0.40720    0.01130    1.000
    P19      P        0.22190    0.44440    0.85980    1.000
    P20      P        0.67580    0.97020    0.05570    1.000
    P21      P        0.65520    0.37820    0.96940    1.000
    O85      O        0.31440    0.29420    0.96020    1.000
    O86      O        0.59350    0.31080    0.92930    1.000
    O87      O        0.35740    0.39230    0.87720    1.000
    O88      O        0.67140    0.97790    0.10550    1.000
    O89      O        0.22840    0.59970    0.85800    1.000
    F13      F        0.49290    0.07310    0.94650    1.000
    O90      O        0.80250    0.33100    0.97600    1.000
    O91      O        0.53340    0.00080    0.03730    1.000
    O92      O        0.26360    0.08250    0.00470    1.000
    O93      O        0.19260    0.37780    0.81460    1.000
    F14      F        0.56500    0.81700    0.96770    1.000
    O94      O        0.73630    0.83520    0.04070    1.000
    O95      O        0.64460    0.53180    0.96310    1.000
    O96      O        0.10170    0.39540    0.88980    1.000
    O97      O        0.77890    0.07600    0.03590    1.000
    O98      O        0.57980    0.33450    0.01320    1.000
    Fe15     Fe       0.57940    0.77030    0.40920    1.000
    Fe16     Fe       0.04990    0.59280    0.51130    1.000
    P22      P        0.77810    0.55560    0.35980    1.000
    P23      P        0.32420    0.02980    0.55570    1.000
    P24      P        0.34480    0.62180    0.46940    1.000
    O99      O        0.68560    0.70580    0.46020    1.000
    O100     O        0.40650    0.68920    0.42930    1.000
    O101     O        0.64260    0.60770    0.37720    1.000
    O102     O        0.32860    0.02210    0.60550    1.000
    O103     O        0.77160    0.40030    0.35800    1.000
    F15      F        0.50710    0.92690    0.44650    1.000
    O104     O        0.19750    0.66900    0.47600    1.000
    O105     O        0.46660    0.99920    0.53730    1.000
    O106     O        0.73640    0.91750    0.50470    1.000
    O107     O        0.80740    0.62220    0.31460    1.000
    F16      F        0.43500    0.18300    0.46770    1.000
    O108     O        0.26370    0.16480    0.54070    1.000
    O109     O        0.35540    0.46820    0.46310    1.000
    O110     O        0.89830    0.60460    0.38980    1.000
    O111     O        0.22110    0.92400    0.53590    1.000
    O112     O        0.42020    0.66550    0.51320    1.000
    Fe17     Fe       0.68880    0.68880    0.00000    1.000
    P25      P        0.23700    0.23700    0.00000    1.000
    Fe18     Fe       0.31120    0.31120    0.50000    1.000
    P26      P        0.76300    0.76300    0.50000    1.000
    Fe19     Fe       0.81120    0.18880    0.75000    1.000
    P27      P        0.26300    0.73700    0.75000    1.000
    Fe20     Fe       0.18880    0.81120    0.25000    1.000
    P28      P        0.73700    0.26300    0.25000    1.000
