data_functionalizedCrystal
_audit_creation_method	'EQeq! by Chris Wilmer'
_symmetry_space_group_name_H-M	'P1'
_symmetry_Int_Tables_number	1
_symmetry_cell_setting	triclinic
loop_
_symmetry_equiv_pos_as_xyz
  x,y,z
_cell_length_a	15.5659
_cell_length_b	29.759
_cell_length_c	22.7134
_cell_angle_alpha	90
_cell_angle_beta	97.155
_cell_angle_gamma	90
loop_
_atom_site_label
_atom_site_type_symbol
_atom_site_fract_x
_atom_site_fract_y
_atom_site_fract_z
_atom_site_charge
Mof_Tb	Tb	0.55681	0.17071	0.38488	2.044
Mof_Tb	Tb	0.81151	0.05686	0.59681	2.063
Mof_N 	N 	0.5875	0.23172	0.4617	-0.223
Mof_N 	N 	0.6876	0.22306	0.3771	-0.224
Mof_N 	N 	0.6687	0.14545	0.32009	-0.198
Mof_N 	N 	0.9357	0.40465	0.29112	-0.207
Mof_N 	N 	0.9356	0.08985	0.55183	-0.264
Mof_N 	N 	0.8377	0.02635	0.49592	-0.235
Mof_N 	N 	0.7017	0.00241	0.54986	-0.221
Mof_N 	N 	0.8743	0.95464	0.20488	-0.218
Mof_O 	O 	0.4826	0.16368	0.4686	-0.494
Mof_O 	O 	0.4186	0.1956	0.5387	-0.264
Mof_O 	O 	0.5449	0.09457	0.35429	-0.515
Mof_O 	O 	0.5763	0.03817	0.2955	-0.518
Mof_O 	O 	0.8077	0.38518	0.1541	-0.254
Mof_O 	O 	0.8884	0.44397	0.18698	-0.452
Mof_O 	O 	0.8603	0.12605	0.63638	-0.456
Mof_O 	O 	0.9664	0.1757	0.65945	-0.228
Mof_O 	O 	0.6995	0.0418	0.65319	-0.526
Mof_O 	O 	0.5816	0.00424	0.6714	-0.511
Mof_O 	O 	0.9281	0.06609	0.17807	-0.248
Mof_O 	O 	0.8827	0.01031	0.11664	-0.485
Mof_O 	O 	0.6624	0.13871	0.45555	-0.632
Mof_O 	O 	0.7243	0.10291	0.53351	-0.651
Mof_O 	O 	0.5142	0.1835	0.2814	-0.301
Mof_C 	C 	0.4729	0.1944	0.5042	0.346
Mof_C 	C 	0.5361	0.2336	0.505	-0.03
Mof_C 	C 	0.5404	0.2677	0.5467	-0.055
Mof_H 	H 	0.5037	0.2678	0.576	0.061
Mof_C 	C 	0.5998	0.3013	0.544	0.006
Mof_H 	H 	0.6038	0.3247	0.5713	0.033
Mof_C 	C 	0.6543	0.29996	0.4998	-0.097
Mof_H 	H 	0.6959	0.3221	0.4977	0.075
Mof_C 	C 	0.6455	0.26504	0.4591	0.059
Mof_C 	C 	0.6987	0.26095	0.4095	0.078
Mof_C 	C 	0.7553	0.2947	0.3967	-0.123
Mof_H 	H 	0.7648	0.3196	0.4214	0.087
Mof_C 	C 	0.7974	0.29076	0.3468	0.07
Mof_C 	C 	0.7886	0.2514	0.3147	-0.139
Mof_H 	H 	0.8175	0.2475	0.2817	0.084
Mof_C 	C 	0.7361	0.21757	0.3324	0.082
Mof_C 	C 	0.7288	0.17294	0.3027	0.047
Mof_C 	C 	0.7818	0.1595	0.2617	-0.073
Mof_H 	H 	0.8243	0.1787	0.2508	0.063
Mof_C 	C 	0.771	0.1175	0.2373	-0.041
Mof_H 	H 	0.8058	0.1082	0.2092	0.061
Mof_C 	C 	0.709	0.08899	0.2544	-0.007
Mof_H 	H 	0.7011	0.0603	0.2383	0.033
Mof_C 	C 	0.659	0.10433	0.2959	-0.074
Mof_C 	C 	0.5872	0.07643	0.3171	0.465
Mof_C 	C 	0.952	0.38788	0.3463	0.118
Mof_H 	H 	0.9946	0.4017	0.3725	0.01
Mof_C 	C 	0.9099	0.35181	0.3663	-0.136
Mof_H 	H 	0.9227	0.3419	0.4052	0.097
Mof_C 	C 	0.8475	0.33008	0.3272	0.046
Mof_C 	C 	0.8307	0.34653	0.2698	-0.082
Mof_H 	H 	0.7902	0.3325	0.2422	0.073
Mof_C 	C 	0.8749	0.38407	0.2541	0.006
Mof_C 	C 	0.8545	0.40543	0.1933	0.326
Mof_C 	C 	0.9335	0.14337	0.6304	0.293
Mof_C 	C 	0.9798	0.12273	0.5826	0.089
Mof_C 	C 	0.0591	0.138	0.5682	-0.233
Mof_H 	H 	0.0888	0.1609	0.5898	0.105
Mof_C 	C 	0.0924	0.1181	0.521	0.147
Mof_H 	H 	0.1464	0.1268	0.5114	-0.015
Mof_C 	C 	0.0453	0.0852	0.488	-0.281
Mof_H 	H 	0.0665	0.0719	0.4557	0.13
Mof_C 	C 	0.9662	0.07253	0.5043	0.173
Mof_C 	C 	0.9059	0.04036	0.4702	0.047
Mof_C 	C 	0.9185	0.02767	0.4127	-0.125
Mof_H 	H 	0.9656	0.0384	0.3955	0.108
Mof_C 	C 	0.8594	0.99873	0.3818	0.07
Mof_C 	C 	0.79	0.9837	0.4087	-0.141
Mof_H 	H 	0.75	0.964	0.3889	0.1
Mof_C 	C 	0.7802	0.99826	0.466	0.077
Mof_C 	C 	0.7058	0.98385	0.4964	0.06
Mof_C 	C 	0.6443	0.9532	0.4721	-0.097
Mof_H 	H 	0.6468	0.9411	0.4346	0.084
Mof_C 	C 	0.579	0.9411	0.5053	0.001
Mof_H 	H 	0.5374	0.9202	0.4904	0.039
Mof_C 	C 	0.5755	0.9598	0.5602	-0.038
Mof_H 	H 	0.5324	0.9517	0.583	0.058
Mof_C 	C 	0.6367	0.99057	0.5804	-0.057
Mof_C 	C 	0.6395	0.01409	0.6403	0.441
Mof_C 	C 	0.8604	0.92497	0.2476	0.094
Mof_H 	H 	0.8532	0.8947	0.2379	0.012
Mof_C 	C 	0.8567	0.93852	0.3056	-0.126
Mof_H 	H 	0.8455	0.9177	0.3341	0.093
Mof_C 	C 	0.8699	0.9832	0.3207	0.041
Mof_C 	C 	0.8887	0.01335	0.2768	-0.074
Mof_H 	H 	0.9009	0.0433	0.2858	0.083
Mof_C 	C 	0.8888	0.99746	0.2198	-0.006
Mof_C 	C 	0.9014	0.02812	0.1684	0.332
Mof_C 	C 	0.6735	0.10662	0.488	0.81
Mof_H 	H 	0.6394	0.0816	0.4772	-0.258
Mof_O 	O 	0.4722	0.2142	0.1972	-0.518
Mof_Tb	Tb	0.05681	0.67071	0.38488	1.963
Mof_Tb	Tb	0.31151	0.55686	0.59681	2.052
Mof_N 	N 	0.0875	0.73172	0.4617	-0.215
Mof_N 	N 	0.1876	0.72306	0.3771	-0.222
Mof_N 	N 	0.1687	0.64545	0.32009	-0.196
Mof_N 	N 	0.4357	0.90465	0.29112	-0.228
Mof_N 	N 	0.4356	0.58985	0.55183	-0.231
Mof_N 	N 	0.3377	0.52635	0.49592	-0.241
Mof_N 	N 	0.2017	0.50241	0.54986	-0.22
Mof_N 	N 	0.3743	0.45464	0.20488	-0.219
Mof_O 	O 	0.9826	0.66368	0.4686	-0.467
Mof_O 	O 	0.9186	0.6956	0.5387	-0.255
Mof_O 	O 	0.0449	0.59457	0.35429	-0.526
Mof_O 	O 	0.0763	0.53817	0.2955	-0.515
Mof_O 	O 	0.3077	0.88518	0.1541	-0.264
Mof_O 	O 	0.3884	0.94397	0.18698	-0.489
Mof_O 	O 	0.3603	0.62605	0.63638	-0.466
Mof_O 	O 	0.4664	0.6757	0.65945	-0.262
Mof_O 	O 	0.1995	0.5418	0.65319	-0.521
Mof_O 	O 	0.0816	0.50424	0.6714	-0.507
Mof_O 	O 	0.4281	0.56609	0.17807	-0.27
Mof_O 	O 	0.3827	0.51031	0.11664	-0.496
Mof_O 	O 	0.1624	0.63871	0.45555	-0.627
Mof_O 	O 	0.2243	0.60291	0.53351	-0.649
Mof_O 	O 	0.0142	0.6835	0.2814	-0.314
Mof_C 	C 	0.9729	0.6944	0.5042	0.406
Mof_C 	C 	0.0361	0.7336	0.505	-0.093
Mof_C 	C 	0.0404	0.7677	0.5467	-0.022
Mof_H 	H 	0.0037	0.7678	0.576	0.032
Mof_C 	C 	0.0998	0.8013	0.544	-0.024
Mof_H 	H 	0.1038	0.8247	0.5713	0.037
Mof_C 	C 	0.1543	0.79996	0.4998	-0.082
Mof_H 	H 	0.1959	0.8221	0.4977	0.07
Mof_C 	C 	0.1455	0.76504	0.4591	0.051
Mof_C 	C 	0.1987	0.76095	0.4095	0.08
Mof_C 	C 	0.2553	0.7947	0.3967	-0.124
Mof_H 	H 	0.2648	0.8196	0.4214	0.088
Mof_C 	C 	0.2974	0.79076	0.3468	0.068
Mof_C 	C 	0.2886	0.7514	0.3147	-0.14
Mof_H 	H 	0.3175	0.7475	0.2817	0.078
Mof_C 	C 	0.2361	0.71757	0.3324	0.08
Mof_C 	C 	0.2288	0.67294	0.3027	0.043
Mof_C 	C 	0.2818	0.6595	0.2617	-0.075
Mof_H 	H 	0.3243	0.6787	0.2508	0.055
Mof_C 	C 	0.271	0.6175	0.2373	-0.044
Mof_H 	H 	0.3058	0.6082	0.2092	0.058
Mof_C 	C 	0.209	0.58899	0.2544	-0.011
Mof_H 	H 	0.2011	0.5603	0.2383	0.034
Mof_C 	C 	0.159	0.60433	0.2959	-0.076
Mof_C 	C 	0.0872	0.57643	0.3171	0.455
Mof_C 	C 	0.452	0.88788	0.3463	0.115
Mof_H 	H 	0.4946	0.9017	0.3725	-0.013
Mof_C 	C 	0.4099	0.85181	0.3663	-0.14
Mof_H 	H 	0.4227	0.8419	0.4052	0.086
Mof_C 	C 	0.3475	0.83008	0.3272	0.041
Mof_C 	C 	0.3307	0.84653	0.2698	-0.079
Mof_H 	H 	0.2902	0.8325	0.2422	0.067
Mof_C 	C 	0.3749	0.88407	0.2541	-0.007
Mof_C 	C 	0.3545	0.90543	0.1933	0.329
Mof_C 	C 	0.4335	0.64337	0.6304	0.326
Mof_C 	C 	0.4798	0.62273	0.5826	-0.027
Mof_C 	C 	0.5591	0.638	0.5682	-0.055
Mof_H 	H 	0.5888	0.6609	0.5898	0.06
Mof_C 	C 	0.5924	0.6181	0.521	0.006
Mof_H 	H 	0.6464	0.6268	0.5114	0.041
Mof_C 	C 	0.5453	0.5852	0.488	-0.102
Mof_H 	H 	0.5665	0.5719	0.4557	0.082
Mof_C 	C 	0.4662	0.57253	0.5043	0.056
Mof_C 	C 	0.4059	0.54036	0.4702	0.075
Mof_C 	C 	0.4185	0.52767	0.4127	-0.149
Mof_H 	H 	0.4656	0.5384	0.3955	0.097
Mof_C 	C 	0.3594	0.49873	0.3818	0.075
Mof_C 	C 	0.29	0.4837	0.4087	-0.147
Mof_H 	H 	0.25	0.464	0.3889	0.102
Mof_C 	C 	0.2802	0.49826	0.466	0.078
Mof_C 	C 	0.2058	0.48385	0.4964	0.056
Mof_C 	C 	0.1443	0.4532	0.4721	-0.1
Mof_H 	H 	0.1468	0.4411	0.4346	0.079
Mof_C 	C 	0.079	0.4411	0.5053	-0.008
Mof_H 	H 	0.0374	0.4202	0.4904	0.025
Mof_C 	C 	0.0755	0.4598	0.5602	-0.039
Mof_H 	H 	0.0324	0.4517	0.583	0.039
Mof_C 	C 	0.1367	0.49057	0.5804	-0.064
Mof_C 	C 	0.1395	0.51409	0.6403	0.435
Mof_C 	C 	0.3604	0.42497	0.2476	0.086
Mof_H 	H 	0.3532	0.3947	0.2379	0.009
Mof_C 	C 	0.3567	0.43852	0.3056	-0.128
Mof_H 	H 	0.3455	0.4177	0.3341	0.088
Mof_C 	C 	0.3699	0.4832	0.3207	0.031
Mof_C 	C 	0.3887	0.51335	0.2768	-0.075
Mof_H 	H 	0.4009	0.5433	0.2858	0.075
Mof_C 	C 	0.3888	0.49746	0.2198	-0.016
Mof_C 	C 	0.4014	0.52812	0.1684	0.33
Mof_C 	C 	0.1735	0.60662	0.488	0.804
Mof_H 	H 	0.1394	0.5816	0.4772	-0.264
Mof_O 	O 	0.9722	0.7142	0.1972	-0.482
Mof_Tb	Tb	0.44319	0.17071	0.11512	2.045
Mof_Tb	Tb	0.18849	0.05686	0.90319	2.046
Mof_N 	N 	0.4125	0.23172	0.0383	-0.226
Mof_N 	N 	0.3124	0.22306	0.1229	-0.224
Mof_N 	N 	0.3313	0.14545	0.17991	-0.199
Mof_N 	N 	0.0643	0.40465	0.20888	-0.229
Mof_N 	N 	0.0644	0.08985	0.94817	-0.199
Mof_N 	N 	0.1623	0.02635	0.00408	-0.246
Mof_N 	N 	0.2983	0.00241	0.95014	-0.221
Mof_N 	N 	0.1257	0.95464	0.29512	-0.22
Mof_O 	O 	0.5174	0.16368	0.0314	-0.495
Mof_O 	O 	0.5814	0.1956	0.9613	-0.26
Mof_O 	O 	0.4551	0.09457	0.14571	-0.515
Mof_O 	O 	0.4237	0.03817	0.2045	-0.518
Mof_O 	O 	0.1923	0.38518	0.3459	-0.265
Mof_O 	O 	0.1116	0.44397	0.31302	-0.482
Mof_O 	O 	0.1397	0.12605	0.86362	-0.477
Mof_O 	O 	0.0336	0.1757	0.84055	-0.291
Mof_O 	O 	0.3005	0.0418	0.84681	-0.522
Mof_O 	O 	0.4184	0.00424	0.8286	-0.51
Mof_O 	O 	0.0719	0.06609	0.32193	-0.291
Mof_O 	O 	0.1173	0.01031	0.38336	-0.507
Mof_O 	O 	0.3376	0.13871	0.04445	-0.631
Mof_O 	O 	0.2757	0.10291	0.96649	-0.646
Mof_O 	O 	0.4858	0.1835	0.2186	-0.301
Mof_C 	C 	0.5271	0.1944	0.9958	0.347
Mof_C 	C 	0.4639	0.2336	0.995	-0.026
Mof_C 	C 	0.4596	0.2677	0.9533	-0.059
Mof_H 	H 	0.4963	0.2678	0.924	0.064
Mof_C 	C 	0.4002	0.3013	0.956	0.012
Mof_H 	H 	0.3962	0.3247	0.9287	0.032
Mof_C 	C 	0.3457	0.29996	0.0002	-0.102
Mof_H 	H 	0.3041	0.3221	0.0023	0.077
Mof_C 	C 	0.3545	0.26504	0.0409	0.062
Mof_C 	C 	0.3013	0.26095	0.0905	0.077
Mof_C 	C 	0.2447	0.2947	0.1033	-0.12
Mof_H 	H 	0.2352	0.3196	0.0786	0.085
Mof_C 	C 	0.2026	0.29076	0.1532	0.064
Mof_C 	C 	0.2114	0.2514	0.1853	-0.138
Mof_H 	H 	0.1825	0.2475	0.2183	0.073
Mof_C 	C 	0.2639	0.21757	0.1676	0.079
Mof_C 	C 	0.2712	0.17294	0.1973	0.043
Mof_C 	C 	0.2182	0.1595	0.2383	-0.072
Mof_H 	H 	0.1757	0.1787	0.2492	0.049
Mof_C 	C 	0.229	0.1175	0.2627	-0.048
Mof_H 	H 	0.1942	0.1082	0.2908	0.057
Mof_C 	C 	0.291	0.08899	0.2456	-0.005
Mof_H 	H 	0.2989	0.0603	0.2617	0.033
Mof_C 	C 	0.341	0.10433	0.2041	-0.076
Mof_C 	C 	0.4128	0.07643	0.1829	0.466
Mof_C 	C 	0.048	0.38788	0.1537	0.108
Mof_H 	H 	0.0054	0.4017	0.1275	-0.03
Mof_C 	C 	0.0901	0.35181	0.1337	-0.144
Mof_H 	H 	0.0773	0.3419	0.0948	0.075
Mof_C 	C 	0.1525	0.33008	0.1728	0.039
Mof_C 	C 	0.1693	0.34653	0.2302	-0.083
Mof_H 	H 	0.2098	0.3325	0.2578	0.069
Mof_C 	C 	0.1251	0.38407	0.2459	-0.01
Mof_C 	C 	0.1455	0.40543	0.3067	0.32
Mof_C 	C 	0.0665	0.14337	0.8696	0.358
Mof_C 	C 	0.0202	0.12273	0.9174	-0.142
Mof_C 	C 	0.9409	0.138	0.9318	0.118
Mof_H 	H 	0.9112	0.1609	0.9102	0.016
Mof_C 	C 	0.9076	0.1181	0.979	-0.125
Mof_H 	H 	0.8536	0.1268	0.9886	0.091
Mof_C 	C 	0.9547	0.0852	0.012	0.065
Mof_H 	H 	0.9335	0.0719	0.0443	0.036
Mof_C 	C 	0.0338	0.07253	0.9957	-0.056
Mof_C 	C 	0.0941	0.04036	0.0298	0.099
Mof_C 	C 	0.0815	0.02767	0.0873	-0.168
Mof_H 	H 	0.0344	0.0384	0.1045	0.085
Mof_C 	C 	0.1406	0.99873	0.1182	0.076
Mof_C 	C 	0.21	0.9837	0.0913	-0.15
Mof_H 	H 	0.25	0.964	0.1111	0.103
Mof_C 	C 	0.2198	0.99826	0.034	0.076
Mof_C 	C 	0.2942	0.98385	0.0036	0.062
Mof_C 	C 	0.3557	0.9532	0.0279	-0.112
Mof_H 	H 	0.3532	0.9411	0.0654	0.089
Mof_C 	C 	0.421	0.9411	0.9947	0.023
Mof_H 	H 	0.4626	0.9202	0.0096	0.029
Mof_C 	C 	0.4245	0.9598	0.9398	-0.051
Mof_H 	H 	0.4676	0.9517	0.917	0.063
Mof_C 	C 	0.3633	0.99057	0.9196	-0.049
Mof_C 	C 	0.3605	0.01409	0.8597	0.437
Mof_C 	C 	0.1396	0.92497	0.2524	0.077
Mof_H 	H 	0.1468	0.8947	0.2621	0.006
Mof_C 	C 	0.1433	0.93852	0.1944	-0.128
Mof_H 	H 	0.1545	0.9177	0.1659	0.082
Mof_C 	C 	0.1301	0.9832	0.1793	0.018
Mof_C 	C 	0.1113	0.01335	0.2232	-0.071
Mof_H 	H 	0.0991	0.0433	0.2142	0.064
Mof_C 	C 	0.1112	0.99746	0.2802	-0.031
Mof_C 	C 	0.0986	0.02812	0.3316	0.33
Mof_C 	C 	0.3265	0.10662	0.012	0.807
Mof_H 	H 	0.3606	0.0816	0.0228	-0.257
Mof_O 	O 	0.5278	0.2142	0.3028	-0.518
Mof_Tb	Tb	0.94319	0.67071	0.11512	2.095
Mof_Tb	Tb	0.68849	0.55686	0.90319	2.057
Mof_N 	N 	0.9125	0.73172	0.0383	-0.236
Mof_N 	N 	0.8124	0.72306	0.1229	-0.226
Mof_N 	N 	0.8313	0.64545	0.17991	-0.203
Mof_N 	N 	0.5643	0.90465	0.20888	-0.229
Mof_N 	N 	0.5644	0.58985	0.94817	-0.233
Mof_N 	N 	0.6623	0.52635	0.00408	-0.241
Mof_N 	N 	0.7983	0.50241	0.95014	-0.222
Mof_N 	N 	0.6257	0.45464	0.29512	-0.22
Mof_O 	O 	0.0174	0.66368	0.0314	-0.516
Mof_O 	O 	0.0814	0.6956	0.9613	-0.268
Mof_O 	O 	0.9551	0.59457	0.14571	-0.493
Mof_O 	O 	0.9237	0.53817	0.2045	-0.476
Mof_O 	O 	0.6923	0.88518	0.3459	-0.259
Mof_O 	O 	0.6116	0.94397	0.31302	-0.489
Mof_O 	O 	0.6397	0.62605	0.86362	-0.467
Mof_O 	O 	0.5336	0.6757	0.84055	-0.262
Mof_O 	O 	0.8005	0.5418	0.84681	-0.518
Mof_O 	O 	0.9184	0.50424	0.8286	-0.469
Mof_O 	O 	0.5719	0.56609	0.32193	-0.269
Mof_O 	O 	0.6173	0.51031	0.38336	-0.496
Mof_O 	O 	0.8376	0.63871	0.04445	-0.63
Mof_O 	O 	0.7757	0.60291	0.96649	-0.643
Mof_O 	O 	0.9858	0.6835	0.2186	-0.247
Mof_C 	C 	0.0271	0.6944	0.9958	0.284
Mof_C 	C 	0.9639	0.7336	0.995	0.044
Mof_C 	C 	0.9596	0.7677	0.9533	-0.1
Mof_H 	H 	0.9963	0.7678	0.924	0.097
Mof_C 	C 	0.9002	0.8013	0.956	0.052
Mof_H 	H 	0.8962	0.8247	0.9287	0.025
Mof_C 	C 	0.8457	0.79996	0.0002	-0.127
Mof_H 	H 	0.8041	0.8221	0.0023	0.085
Mof_C 	C 	0.8545	0.76504	0.0409	0.073
Mof_C 	C 	0.8013	0.76095	0.0905	0.074
Mof_C 	C 	0.7447	0.7947	0.1033	-0.118
Mof_H 	H 	0.7352	0.8196	0.0786	0.084
Mof_C 	C 	0.7026	0.79076	0.1532	0.065
Mof_C 	C 	0.7114	0.7514	0.1853	-0.135
Mof_H 	H 	0.6825	0.7475	0.2183	0.079
Mof_C 	C 	0.7639	0.71757	0.1676	0.081
Mof_C 	C 	0.7712	0.67294	0.1973	0.049
Mof_C 	C 	0.7182	0.6595	0.2383	-0.074
Mof_H 	H 	0.6757	0.6787	0.2492	0.058
Mof_C 	C 	0.729	0.6175	0.2627	-0.038
Mof_H 	H 	0.6942	0.6082	0.2908	0.059
Mof_C 	C 	0.791	0.58899	0.2456	-0.01
Mof_H 	H 	0.7989	0.5603	0.2617	0.038
Mof_C 	C 	0.841	0.60433	0.2041	-0.065
Mof_C 	C 	0.9128	0.57643	0.1829	0.456
Mof_C 	C 	0.548	0.88788	0.1537	0.116
Mof_H 	H 	0.5054	0.9017	0.1275	-0.014
Mof_C 	C 	0.5901	0.85181	0.1337	-0.143
Mof_H 	H 	0.5773	0.8419	0.0948	0.087
Mof_C 	C 	0.6525	0.83008	0.1728	0.045
Mof_C 	C 	0.6693	0.84653	0.2302	-0.084
Mof_H 	H 	0.7098	0.8325	0.2578	0.074
Mof_C 	C 	0.6251	0.88407	0.2459	-0.004
Mof_C 	C 	0.6455	0.90543	0.3067	0.327
Mof_C 	C 	0.5665	0.64337	0.8696	0.325
Mof_C 	C 	0.5202	0.62273	0.9174	-0.025
Mof_C 	C 	0.4409	0.638	0.9318	-0.062
Mof_H 	H 	0.4112	0.6609	0.9102	0.06
Mof_C 	C 	0.4076	0.6181	0.979	0.018
Mof_H 	H 	0.3536	0.6268	0.9886	0.034
Mof_C 	C 	0.4547	0.5852	0.012	-0.118
Mof_H 	H 	0.4335	0.5719	0.0443	0.086
Mof_C 	C 	0.5338	0.57253	0.9957	0.066
Mof_C 	C 	0.5941	0.54036	0.0298	0.068
Mof_C 	C 	0.5815	0.52767	0.0873	-0.145
Mof_H 	H 	0.5344	0.5384	0.1045	0.095
Mof_C 	C 	0.6406	0.49873	0.1182	0.072
Mof_C 	C 	0.71	0.4837	0.0913	-0.144
Mof_H 	H 	0.75	0.464	0.1111	0.102
Mof_C 	C 	0.7198	0.49826	0.034	0.075
Mof_C 	C 	0.7942	0.48385	0.0036	0.065
Mof_C 	C 	0.8557	0.4532	0.0279	-0.112
Mof_H 	H 	0.8532	0.4411	0.0654	0.096
Mof_C 	C 	0.921	0.4411	0.9947	0.037
Mof_H 	H 	0.9626	0.4202	0.0096	0.042
Mof_C 	C 	0.9245	0.4598	0.9398	-0.055
Mof_H 	H 	0.9676	0.4517	0.917	0.086
Mof_C 	C 	0.8633	0.49057	0.9196	-0.037
Mof_C 	C 	0.8605	0.51409	0.8597	0.427
Mof_C 	C 	0.6396	0.42497	0.2524	0.086
Mof_H 	H 	0.6468	0.3947	0.2621	0.008
Mof_C 	C 	0.6433	0.43852	0.1944	-0.129
Mof_H 	H 	0.6545	0.4177	0.1659	0.088
Mof_C 	C 	0.6301	0.4832	0.1793	0.032
Mof_C 	C 	0.6113	0.51335	0.2232	-0.076
Mof_H 	H 	0.5991	0.5433	0.2142	0.075
Mof_C 	C 	0.6112	0.49746	0.2802	-0.016
Mof_C 	C 	0.5986	0.52812	0.3316	0.33
Mof_C 	C 	0.8265	0.60662	0.012	0.804
Mof_H 	H 	0.8606	0.5816	0.0228	-0.249
Mof_O 	O 	0.0278	0.7142	0.3028	-0.487
Mof_Tb	Tb	0.44319	0.8293	0.61512	2.045
Mof_Tb	Tb	0.18849	0.94314	0.40319	2.048
Mof_N 	N 	0.4125	0.76828	0.5383	-0.224
Mof_N 	N 	0.3124	0.77694	0.6229	-0.224
Mof_N 	N 	0.3313	0.85455	0.67991	-0.199
Mof_N 	N 	0.0643	0.59535	0.70888	-0.229
Mof_N 	N 	0.0644	0.91015	0.44817	-0.198
Mof_N 	N 	0.1623	0.97365	0.50408	-0.248
Mof_N 	N 	0.2983	0.99759	0.45014	-0.22
Mof_N 	N 	0.1257	0.04536	0.79512	-0.22
Mof_O 	O 	0.5174	0.83632	0.5314	-0.493
Mof_O 	O 	0.5814	0.8044	0.4613	-0.26
Mof_O 	O 	0.4551	0.90543	0.64571	-0.515
Mof_O 	O 	0.4237	0.96183	0.7045	-0.518
Mof_O 	O 	0.1923	0.61482	0.8459	-0.265
Mof_O 	O 	0.1116	0.55603	0.81302	-0.482
Mof_O 	O 	0.1397	0.87395	0.36362	-0.477
Mof_O 	O 	0.0336	0.8243	0.34055	-0.29
Mof_O 	O 	0.3005	0.9582	0.34681	-0.523
Mof_O 	O 	0.4184	0.99576	0.3286	-0.511
Mof_O 	O 	0.0719	0.93391	0.82193	-0.292
Mof_O 	O 	0.1173	0.98969	0.88336	-0.506
Mof_O 	O 	0.3376	0.86129	0.54445	-0.631
Mof_O 	O 	0.2757	0.89709	0.46649	-0.647
Mof_O 	O 	0.4858	0.8165	0.7186	-0.301
Mof_C 	C 	0.5271	0.8056	0.4958	0.345
Mof_C 	C 	0.4639	0.7664	0.495	-0.028
Mof_C 	C 	0.4596	0.7323	0.4533	-0.056
Mof_H 	H 	0.4963	0.7322	0.424	0.063
Mof_C 	C 	0.4002	0.6987	0.456	0.008
Mof_H 	H 	0.3962	0.6753	0.4287	0.033
Mof_C 	C 	0.3457	0.70004	0.5002	-0.098
Mof_H 	H 	0.3041	0.6779	0.5023	0.076
Mof_C 	C 	0.3545	0.73496	0.5409	0.061
Mof_C 	C 	0.3013	0.73905	0.5905	0.077
Mof_C 	C 	0.2447	0.7053	0.6033	-0.121
Mof_H 	H 	0.2352	0.6804	0.5786	0.086
Mof_C 	C 	0.2026	0.70924	0.6532	0.064
Mof_C 	C 	0.2114	0.7486	0.6853	-0.138
Mof_H 	H 	0.1825	0.7525	0.7183	0.073
Mof_C 	C 	0.2639	0.78243	0.6676	0.079
Mof_C 	C 	0.2712	0.82706	0.6973	0.043
Mof_C 	C 	0.2182	0.8405	0.7383	-0.072
Mof_H 	H 	0.1757	0.8213	0.7492	0.049
Mof_C 	C 	0.229	0.8825	0.7627	-0.048
Mof_H 	H 	0.1942	0.8918	0.7908	0.057
Mof_C 	C 	0.291	0.91101	0.7456	-0.005
Mof_H 	H 	0.2989	0.9397	0.7617	0.033
Mof_C 	C 	0.341	0.89567	0.7041	-0.076
Mof_C 	C 	0.4128	0.92357	0.6829	0.466
Mof_C 	C 	0.048	0.61212	0.6537	0.108
Mof_H 	H 	0.0054	0.5983	0.6275	-0.03
Mof_C 	C 	0.0901	0.64819	0.6337	-0.144
Mof_H 	H 	0.0773	0.6581	0.5948	0.075
Mof_C 	C 	0.1525	0.66992	0.6728	0.039
Mof_C 	C 	0.1693	0.65347	0.7302	-0.084
Mof_H 	H 	0.2098	0.6675	0.7578	0.069
Mof_C 	C 	0.1251	0.61593	0.7459	-0.01
Mof_C 	C 	0.1455	0.59457	0.8067	0.32
Mof_C 	C 	0.0665	0.85663	0.3696	0.358
Mof_C 	C 	0.0202	0.87727	0.4174	-0.142
Mof_C 	C 	0.9409	0.862	0.4318	0.121
Mof_H 	H 	0.9112	0.8391	0.4102	0.014
Mof_C 	C 	0.9076	0.8819	0.479	-0.133
Mof_H 	H 	0.8536	0.8732	0.4886	0.093
Mof_C 	C 	0.9547	0.9148	0.512	0.076
Mof_H 	H 	0.9335	0.9281	0.5443	0.034
Mof_C 	C 	0.0338	0.92747	0.4957	-0.061
Mof_C 	C 	0.0941	0.95964	0.5298	0.101
Mof_C 	C 	0.0815	0.97233	0.5873	-0.172
Mof_H 	H 	0.0344	0.9616	0.6045	0.085
Mof_C 	C 	0.1406	0.00127	0.6182	0.079
Mof_C 	C 	0.21	0.0163	0.5913	-0.153
Mof_H 	H 	0.25	0.036	0.6111	0.104
Mof_C 	C 	0.2198	0.00174	0.534	0.079
Mof_C 	C 	0.2942	0.01615	0.5036	0.058
Mof_C 	C 	0.3557	0.0468	0.5279	-0.096
Mof_H 	H 	0.3532	0.0589	0.5654	0.083
Mof_C 	C 	0.421	0.0589	0.4947	0
Mof_H 	H 	0.4626	0.0798	0.5096	0.039
Mof_C 	C 	0.4245	0.0402	0.4398	-0.038
Mof_H 	H 	0.4676	0.0483	0.417	0.058
Mof_C 	C 	0.3633	0.00943	0.4196	-0.057
Mof_C 	C 	0.3605	0.98591	0.3597	0.44
Mof_C 	C 	0.1396	0.07503	0.7524	0.076
Mof_H 	H 	0.1468	0.1053	0.7621	0.006
Mof_C 	C 	0.1433	0.06148	0.6944	-0.127
Mof_H 	H 	0.1545	0.0823	0.6659	0.082
Mof_C 	C 	0.1301	0.0168	0.6793	0.016
Mof_C 	C 	0.1113	0.98665	0.7232	-0.07
Mof_H 	H 	0.0991	0.9567	0.7142	0.064
Mof_C 	C 	0.1112	0.00254	0.7802	-0.032
Mof_C 	C 	0.0986	0.97188	0.8316	0.33
Mof_C 	C 	0.3265	0.89338	0.512	0.808
Mof_H 	H 	0.3606	0.9184	0.5228	-0.257
Mof_O 	O 	0.5278	0.7858	0.8028	-0.519
Mof_Tb	Tb	0.94319	0.32929	0.61512	2.099
Mof_Tb	Tb	0.68849	0.44314	0.40319	2.056
Mof_N 	N 	0.9125	0.26828	0.5383	-0.232
Mof_N 	N 	0.8124	0.27694	0.6229	-0.226
Mof_N 	N 	0.8313	0.35455	0.67991	-0.203
Mof_N 	N 	0.5643	0.09535	0.70888	-0.229
Mof_N 	N 	0.5644	0.41015	0.44817	-0.231
Mof_N 	N 	0.6623	0.47365	0.50408	-0.241
Mof_N 	N 	0.7983	0.49759	0.45014	-0.221
Mof_N 	N 	0.6257	0.54536	0.79512	-0.22
Mof_O 	O 	0.0174	0.33632	0.5314	-0.517
Mof_O 	O 	0.0814	0.3044	0.4613	-0.269
Mof_O 	O 	0.9551	0.40543	0.64571	-0.493
Mof_O 	O 	0.9237	0.46183	0.7045	-0.475
Mof_O 	O 	0.6923	0.11482	0.8459	-0.259
Mof_O 	O 	0.6116	0.05603	0.81302	-0.489
Mof_O 	O 	0.6397	0.37395	0.36362	-0.467
Mof_O 	O 	0.5336	0.3243	0.34055	-0.262
Mof_O 	O 	0.8005	0.4582	0.34681	-0.518
Mof_O 	O 	0.9184	0.49576	0.3286	-0.47
Mof_O 	O 	0.5719	0.43391	0.82193	-0.269
Mof_O 	O 	0.6173	0.48969	0.88336	-0.495
Mof_O 	O 	0.8376	0.36129	0.54445	-0.632
Mof_O 	O 	0.7757	0.39709	0.46649	-0.648
Mof_O 	O 	0.9858	0.3165	0.7186	-0.245
Mof_C 	C 	0.0271	0.3056	0.4958	0.285
Mof_C 	C 	0.9639	0.2664	0.495	0.036
Mof_C 	C 	0.9596	0.2323	0.4533	-0.09
Mof_H 	H 	0.9963	0.2322	0.424	0.093
Mof_C 	C 	0.9002	0.1987	0.456	0.038
Mof_H 	H 	0.8962	0.1753	0.4287	0.029
Mof_C 	C 	0.8457	0.20004	0.5002	-0.113
Mof_H 	H 	0.8041	0.1779	0.5023	0.081
Mof_C 	C 	0.8545	0.23496	0.5409	0.069
Mof_C 	C 	0.8013	0.23905	0.5905	0.076
Mof_C 	C 	0.7447	0.2053	0.6033	-0.119
Mof_H 	H 	0.7352	0.1804	0.5786	0.085
Mof_C 	C 	0.7026	0.20924	0.6532	0.066
Mof_C 	C 	0.7114	0.2486	0.6853	-0.136
Mof_H 	H 	0.6825	0.2525	0.7183	0.079
Mof_C 	C 	0.7639	0.28243	0.6676	0.081
Mof_C 	C 	0.7712	0.32706	0.6973	0.05
Mof_C 	C 	0.7182	0.3405	0.7383	-0.074
Mof_H 	H 	0.6757	0.3213	0.7492	0.058
Mof_C 	C 	0.729	0.3825	0.7627	-0.038
Mof_H 	H 	0.6942	0.3918	0.7908	0.059
Mof_C 	C 	0.791	0.41101	0.7456	-0.01
Mof_H 	H 	0.7989	0.4397	0.7617	0.038
Mof_C 	C 	0.841	0.39567	0.7041	-0.064
Mof_C 	C 	0.9128	0.42357	0.6829	0.455
Mof_C 	C 	0.548	0.11212	0.6537	0.116
Mof_H 	H 	0.5054	0.0983	0.6275	-0.014
Mof_C 	C 	0.5901	0.14819	0.6337	-0.143
Mof_H 	H 	0.5773	0.1581	0.5948	0.087
Mof_C 	C 	0.6525	0.16992	0.6728	0.045
Mof_C 	C 	0.6693	0.15347	0.7302	-0.083
Mof_H 	H 	0.7098	0.1675	0.7578	0.075
Mof_C 	C 	0.6251	0.11593	0.7459	-0.004
Mof_C 	C 	0.6455	0.09457	0.8067	0.327
Mof_C 	C 	0.5665	0.35663	0.3696	0.326
Mof_C 	C 	0.5202	0.37727	0.4174	-0.028
Mof_C 	C 	0.4409	0.362	0.4318	-0.055
Mof_H 	H 	0.4112	0.3391	0.4102	0.058
Mof_C 	C 	0.4076	0.3819	0.479	0.006
Mof_H 	H 	0.3536	0.3732	0.4886	0.038
Mof_C 	C 	0.4547	0.4148	0.512	-0.103
Mof_H 	H 	0.4335	0.4281	0.5443	0.081
Mof_C 	C 	0.5338	0.42747	0.4957	0.056
Mof_C 	C 	0.5941	0.45964	0.5298	0.074
Mof_C 	C 	0.5815	0.47233	0.5873	-0.148
Mof_H 	H 	0.5344	0.4616	0.6045	0.097
Mof_C 	C 	0.6406	0.50127	0.6182	0.074
Mof_C 	C 	0.71	0.5163	0.5913	-0.146
Mof_H 	H 	0.75	0.536	0.6111	0.103
Mof_C 	C 	0.7198	0.50174	0.534	0.078
Mof_C 	C 	0.7942	0.51615	0.5036	0.063
Mof_C 	C 	0.8557	0.5468	0.5279	-0.096
Mof_H 	H 	0.8532	0.5589	0.5654	0.09
Mof_C 	C 	0.921	0.5589	0.4947	0.014
Mof_H 	H 	0.9626	0.5798	0.5096	0.054
Mof_C 	C 	0.9245	0.5402	0.4398	-0.042
Mof_H 	H 	0.9676	0.5483	0.417	0.081
Mof_C 	C 	0.8633	0.50943	0.4196	-0.042
Mof_C 	C 	0.8605	0.48591	0.3597	0.429
Mof_C 	C 	0.6396	0.57503	0.7524	0.086
Mof_H 	H 	0.6468	0.6053	0.7621	0.008
Mof_C 	C 	0.6433	0.56148	0.6944	-0.128
Mof_H 	H 	0.6545	0.5823	0.6659	0.088
Mof_C 	C 	0.6301	0.5168	0.6793	0.031
Mof_C 	C 	0.6113	0.48665	0.7232	-0.075
Mof_H 	H 	0.5991	0.4567	0.7142	0.074
Mof_C 	C 	0.6112	0.50254	0.7802	-0.016
Mof_C 	C 	0.5986	0.47188	0.8316	0.33
Mof_C 	C 	0.8265	0.39338	0.512	0.812
Mof_H 	H 	0.8606	0.4184	0.5228	-0.25
Mof_O 	O 	0.0278	0.2858	0.8028	-0.486
Mof_Tb	Tb	0.55681	0.8293	0.88488	2.045
Mof_Tb	Tb	0.81151	0.94314	0.09681	2.059
Mof_N 	N 	0.5875	0.76828	0.9617	-0.221
Mof_N 	N 	0.6876	0.77694	0.8771	-0.225
Mof_N 	N 	0.6687	0.85455	0.82009	-0.199
Mof_N 	N 	0.9357	0.59535	0.79112	-0.208
Mof_N 	N 	0.9356	0.91015	0.05183	-0.262
Mof_N 	N 	0.8377	0.97365	0.99592	-0.234
Mof_N 	N 	0.7017	0.99759	0.04986	-0.223
Mof_N 	N 	0.8743	0.04536	0.70488	-0.218
Mof_O 	O 	0.4826	0.83632	0.9686	-0.491
Mof_O 	O 	0.4186	0.8044	0.0387	-0.264
Mof_O 	O 	0.5449	0.90543	0.85429	-0.515
Mof_O 	O 	0.5763	0.96183	0.7955	-0.518
Mof_O 	O 	0.8077	0.61482	0.6541	-0.253
Mof_O 	O 	0.8884	0.55603	0.68698	-0.451
Mof_O 	O 	0.8603	0.87395	0.13638	-0.456
Mof_O 	O 	0.9664	0.8243	0.15945	-0.23
Mof_O 	O 	0.6995	0.9582	0.15319	-0.526
Mof_O 	O 	0.5816	0.99576	0.1714	-0.511
Mof_O 	O 	0.9281	0.93391	0.67807	-0.247
Mof_O 	O 	0.8827	0.98969	0.61664	-0.485
Mof_O 	O 	0.6624	0.86129	0.95555	-0.633
Mof_O 	O 	0.7243	0.89709	0.03351	-0.655
Mof_O 	O 	0.5142	0.8165	0.7814	-0.301
Mof_C 	C 	0.4729	0.8056	0.0042	0.343
Mof_C 	C 	0.5361	0.7664	0.005	-0.035
Mof_C 	C 	0.5404	0.7323	0.0467	-0.049
Mof_H 	H 	0.5037	0.7322	0.076	0.059
Mof_C 	C 	0.5998	0.6987	0.044	-0.004
Mof_H 	H 	0.6038	0.6753	0.0713	0.036
Mof_C 	C 	0.6543	0.70004	0.9998	-0.088
Mof_H 	H 	0.6959	0.6779	0.9977	0.073
Mof_C 	C 	0.6455	0.73496	0.9591	0.057
Mof_C 	C 	0.6987	0.73905	0.9095	0.08
Mof_C 	C 	0.7553	0.7053	0.8967	-0.124
Mof_H 	H 	0.7648	0.6804	0.9214	0.088
Mof_C 	C 	0.7974	0.70924	0.8468	0.07
Mof_C 	C 	0.7886	0.7486	0.8147	-0.14
Mof_H 	H 	0.8175	0.7525	0.7817	0.084
Mof_C 	C 	0.7361	0.78243	0.8324	0.082
Mof_C 	C 	0.7288	0.82706	0.8027	0.047
Mof_C 	C 	0.7818	0.8405	0.7617	-0.073
Mof_H 	H 	0.8243	0.8213	0.7508	0.063
Mof_C 	C 	0.771	0.8825	0.7373	-0.041
Mof_H 	H 	0.8058	0.8918	0.7092	0.062
Mof_C 	C 	0.709	0.91101	0.7544	-0.007
Mof_H 	H 	0.7011	0.9397	0.7383	0.033
Mof_C 	C 	0.659	0.89567	0.7959	-0.074
Mof_C 	C 	0.5872	0.92357	0.8171	0.465
Mof_C 	C 	0.952	0.61212	0.8463	0.118
Mof_H 	H 	0.9946	0.5983	0.8725	0.011
Mof_C 	C 	0.9099	0.64819	0.8663	-0.136
Mof_H 	H 	0.9227	0.6581	0.9052	0.097
Mof_C 	C 	0.8475	0.66992	0.8272	0.046
Mof_C 	C 	0.8307	0.65347	0.7698	-0.082
Mof_H 	H 	0.7902	0.6675	0.7422	0.074
Mof_C 	C 	0.8749	0.61593	0.7541	0.007
Mof_C 	C 	0.8545	0.59457	0.6933	0.326
Mof_C 	C 	0.9335	0.85663	0.1304	0.295
Mof_C 	C 	0.9798	0.87727	0.0826	0.082
Mof_C 	C 	0.0591	0.862	0.0682	-0.22
Mof_H 	H 	0.0888	0.8391	0.0898	0.1
Mof_C 	C 	0.0924	0.8819	0.021	0.13
Mof_H 	H 	0.1464	0.8732	0.0114	-0.01
Mof_C 	C 	0.0453	0.9148	0.988	-0.26
Mof_H 	H 	0.0665	0.9281	0.9557	0.123
Mof_C 	C 	0.9662	0.92747	0.0043	0.156
Mof_C 	C 	0.9059	0.95964	0.9702	0.057
Mof_C 	C 	0.9185	0.97233	0.9127	-0.128
Mof_H 	H 	0.9656	0.9616	0.8955	0.111
Mof_C 	C 	0.8594	0.00127	0.8818	0.071
Mof_C 	C 	0.79	0.0163	0.9087	-0.141
Mof_H 	H 	0.75	0.036	0.8889	0.101
Mof_C 	C 	0.7802	0.00174	0.966	0.076
Mof_C 	C 	0.7058	0.01615	0.9964	0.061
Mof_C 	C 	0.6443	0.0468	0.9721	-0.093
Mof_H 	H 	0.6468	0.0589	0.9346	0.082
Mof_C 	C 	0.579	0.0589	0.0053	-0.006
Mof_H 	H 	0.5374	0.0798	0.9904	0.043
Mof_C 	C 	0.5755	0.0402	0.0602	-0.034
Mof_H 	H 	0.5324	0.0483	0.083	0.057
Mof_C 	C 	0.6367	0.00943	0.0804	-0.057
Mof_C 	C 	0.6395	0.98591	0.1403	0.44
Mof_C 	C 	0.8604	0.07503	0.7476	0.094
Mof_H 	H 	0.8532	0.1053	0.7379	0.012
Mof_C 	C 	0.8567	0.06148	0.8056	-0.126
Mof_H 	H 	0.8455	0.0823	0.8341	0.093
Mof_C 	C 	0.8699	0.0168	0.8207	0.041
Mof_C 	C 	0.8887	0.98665	0.7768	-0.074
Mof_H 	H 	0.9009	0.9567	0.7858	0.084
Mof_C 	C 	0.8888	0.00254	0.7198	-0.006
Mof_C 	C 	0.9014	0.97188	0.6684	0.332
Mof_C 	C 	0.6735	0.89338	0.988	0.818
Mof_H 	H 	0.6394	0.9184	0.9772	-0.26
Mof_O 	O 	0.4722	0.7858	0.6972	-0.518
Mof_Tb	Tb	0.05681	0.32929	0.88488	1.962
Mof_Tb	Tb	0.31151	0.44314	0.09681	2.051
Mof_N 	N 	0.0875	0.26828	0.9617	-0.215
Mof_N 	N 	0.1876	0.27694	0.8771	-0.222
Mof_N 	N 	0.1687	0.35455	0.82009	-0.196
Mof_N 	N 	0.4357	0.09535	0.79112	-0.228
Mof_N 	N 	0.4356	0.41015	0.05183	-0.229
Mof_N 	N 	0.3377	0.47365	0.99592	-0.242
Mof_N 	N 	0.2017	0.49759	0.04986	-0.22
Mof_N 	N 	0.3743	0.54536	0.70488	-0.219
Mof_O 	O 	0.9826	0.33632	0.9686	-0.462
Mof_O 	O 	0.9186	0.3044	0.0387	-0.255
Mof_O 	O 	0.0449	0.40543	0.85429	-0.527
Mof_O 	O 	0.0763	0.46183	0.7955	-0.515
Mof_O 	O 	0.3077	0.11482	0.6541	-0.263
Mof_O 	O 	0.3884	0.05603	0.68698	-0.489
Mof_O 	O 	0.3603	0.37395	0.13638	-0.467
Mof_O 	O 	0.4664	0.3243	0.15945	-0.262
Mof_O 	O 	0.1995	0.4582	0.15319	-0.522
Mof_O 	O 	0.0816	0.49576	0.1714	-0.507
Mof_O 	O 	0.4281	0.43391	0.67807	-0.27
Mof_O 	O 	0.3827	0.48969	0.61664	-0.496
Mof_O 	O 	0.1624	0.36129	0.95555	-0.627
Mof_O 	O 	0.2243	0.39709	0.03351	-0.65
Mof_O 	O 	0.0142	0.3165	0.7814	-0.314
Mof_C 	C 	0.9729	0.3056	0.0042	0.398
Mof_C 	C 	0.0361	0.2664	0.005	-0.09
Mof_C 	C 	0.0404	0.2323	0.0467	-0.023
Mof_H 	H 	0.0037	0.2322	0.076	0.033
Mof_C 	C 	0.0998	0.1987	0.044	-0.023
Mof_H 	H 	0.1038	0.1753	0.0713	0.037
Mof_C 	C 	0.1543	0.20004	0.9998	-0.082
Mof_H 	H 	0.1959	0.1779	0.9977	0.07
Mof_C 	C 	0.1455	0.23496	0.9591	0.051
Mof_C 	C 	0.1987	0.23905	0.9095	0.08
Mof_C 	C 	0.2553	0.2053	0.8967	-0.124
Mof_H 	H 	0.2648	0.1804	0.9214	0.088
Mof_C 	C 	0.2974	0.20924	0.8468	0.068
Mof_C 	C 	0.2886	0.2486	0.8147	-0.14
Mof_H 	H 	0.3175	0.2525	0.7817	0.078
Mof_C 	C 	0.2361	0.28243	0.8324	0.08
Mof_C 	C 	0.2288	0.32706	0.8027	0.043
Mof_C 	C 	0.2818	0.3405	0.7617	-0.075
Mof_H 	H 	0.3243	0.3213	0.7508	0.056
Mof_C 	C 	0.271	0.3825	0.7373	-0.044
Mof_H 	H 	0.3058	0.3918	0.7092	0.058
Mof_C 	C 	0.209	0.41101	0.7544	-0.012
Mof_H 	H 	0.2011	0.4397	0.7383	0.034
Mof_C 	C 	0.159	0.39567	0.7959	-0.076
Mof_C 	C 	0.0872	0.42357	0.8171	0.454
Mof_C 	C 	0.452	0.11212	0.8463	0.115
Mof_H 	H 	0.4946	0.0983	0.8725	-0.013
Mof_C 	C 	0.4099	0.14819	0.8663	-0.14
Mof_H 	H 	0.4227	0.1581	0.9052	0.086
Mof_C 	C 	0.3475	0.16992	0.8272	0.041
Mof_C 	C 	0.3307	0.15347	0.7698	-0.079
Mof_H 	H 	0.2902	0.1675	0.7422	0.067
Mof_C 	C 	0.3749	0.11593	0.7541	-0.007
Mof_C 	C 	0.3545	0.09457	0.6933	0.329
Mof_C 	C 	0.4335	0.35663	0.1304	0.327
Mof_C 	C 	0.4798	0.37727	0.0826	-0.03
Mof_C 	C 	0.5591	0.362	0.0682	-0.049
Mof_H 	H 	0.5888	0.3391	0.0898	0.057
Mof_C 	C 	0.5924	0.3819	0.021	-0.005
Mof_H 	H 	0.6464	0.3732	0.0114	0.044
Mof_C 	C 	0.5453	0.4148	0.988	-0.089
Mof_H 	H 	0.5665	0.4281	0.9557	0.078
Mof_C 	C 	0.4662	0.42747	0.0043	0.047
Mof_C 	C 	0.4059	0.45964	0.9702	0.079
Mof_C 	C 	0.4185	0.47233	0.9127	-0.151
Mof_H 	H 	0.4656	0.4616	0.8955	0.098
Mof_C 	C 	0.3594	0.50127	0.8818	0.076
Mof_C 	C 	0.29	0.5163	0.9087	-0.148
Mof_H 	H 	0.25	0.536	0.8889	0.102
Mof_C 	C 	0.2802	0.50174	0.966	0.079
Mof_C 	C 	0.2058	0.51615	0.9964	0.056
Mof_C 	C 	0.1443	0.5468	0.9721	-0.095
Mof_H 	H 	0.1468	0.5589	0.9346	0.077
Mof_C 	C 	0.079	0.5589	0.0053	-0.015
Mof_H 	H 	0.0374	0.5798	0.9904	0.028
Mof_C 	C 	0.0755	0.5402	0.0602	-0.035
Mof_H 	H 	0.0324	0.5483	0.083	0.038
Mof_C 	C 	0.1367	0.50943	0.0804	-0.065
Mof_C 	C 	0.1395	0.48591	0.1403	0.436
Mof_C 	C 	0.3604	0.57503	0.7476	0.086
Mof_H 	H 	0.3532	0.6053	0.7379	0.009
Mof_C 	C 	0.3567	0.56148	0.8056	-0.127
Mof_H 	H 	0.3455	0.5823	0.8341	0.088
Mof_C 	C 	0.3699	0.5168	0.8207	0.03
Mof_C 	C 	0.3887	0.48665	0.7768	-0.075
Mof_H 	H 	0.4009	0.4567	0.7858	0.075
Mof_C 	C 	0.3888	0.50254	0.7198	-0.016
Mof_C 	C 	0.4014	0.47188	0.6684	0.33
Mof_C 	C 	0.1735	0.39338	0.988	0.806
Mof_H 	H 	0.1394	0.4184	0.9772	-0.264
Mof_O 	O 	0.9722	0.2858	0.6972	-0.481
Mof_Tb	Tb	0.5	0.02305	0.75	2.269
Mof_Tb	Tb	-4.35603e-17	0.52305	0.75	2.104
Mof_Tb	Tb	0.5	0.97695	0.25	2.269
Mof_Tb	Tb	1.53812e-33	0.47695	0.25	2.109
Mof_C 	C 	0.5	0.217	0.25	0.755
Mof_C 	C 	5.44503e-18	0.717	0.25	0.65
Mof_C 	C 	0.5	0.783	0.75	0.755
Mof_C 	C 	-4.35603e-17	0.283	0.75	0.647
_end
