# CIF file generated by openbabel 3.1.0, see https://openbabel.org
data_I
_chemical_name_common 'GEDQIR_clean'
_cell_length_a 13.5868
_cell_length_b 15.1581
_cell_length_c 16.0184
_cell_angle_alpha 118.239
_cell_angle_beta 98.812
_cell_angle_gamma 90
_space_group_name_H-M_alt 'P 1'
_space_group_name_Hall 'P 1'
loop_
    _symmetry_equiv_pos_as_xyz
    x,y,z
loop_
    _atom_site_label
    _atom_site_type_symbol
    _atom_site_fract_x
    _atom_site_fract_y
    _atom_site_fract_z
    _atom_site_occupancy
    Nd1      Nd       0.46126    0.89373    0.36102    1.000
    Nd2      Nd       0.03874    0.53271    0.63898    1.000
    Nd3      Nd       0.53874    0.10627    0.63898    1.000
    Nd4      Nd       0.96126    0.46729    0.36102    1.000
    H1       H        0.60310    0.69010    0.05300    1.000
    H2       H        0.64810    0.66140    0.90940    1.000
    H3       H        0.60110    0.94630    0.97260    1.000
    H4       H        0.54320    0.97030    0.10920    1.000
    H5       H        0.59100    0.89600    0.67720    1.000
    H6       H        0.78850    0.71650    0.71460    1.000
    H7       H        0.72690    0.71180    0.45860    1.000
    H8       H        0.71000    0.72900    0.81600    1.000
    H9       H        0.89690    0.63710    0.94700    1.000
    H10      H        0.85190    0.75200    0.09060    1.000
    H11      H        0.89890    0.97370    0.02740    1.000
    H12      H        0.95680    0.86110    0.89080    1.000
    H13      H        0.90900    0.21880    0.32280    1.000
    H14      H        0.71150    0.00190    0.28540    1.000
    H15      H        0.77310    0.25320    0.54140    1.000
    H16      H        0.79000    0.91300    0.18400    1.000
    H17      H        0.39690    0.30990    0.94700    1.000
    H18      H        0.35190    0.33860    0.09060    1.000
    H19      H        0.39890    0.05370    0.02740    1.000
    H20      H        0.45680    0.02970    0.89080    1.000
    H21      H        0.40900    0.10400    0.32280    1.000
    H22      H        0.21150    0.28350    0.28540    1.000
    H23      H        0.27310    0.28820    0.54140    1.000
    H24      H        0.29000    0.27100    0.18400    1.000
    H25      H        0.10310    0.36290    0.05300    1.000
    H26      H        0.14810    0.24800    0.90940    1.000
    H27      H        0.10110    0.02630    0.97260    1.000
    H28      H        0.04320    0.13890    0.10920    1.000
    H29      H        0.09100    0.78120    0.67720    1.000
    H30      H        0.28850    0.99810    0.71460    1.000
    H31      H        0.22690    0.74680    0.45860    1.000
    H32      H        0.21000    0.08700    0.81600    1.000
    C1       C        0.52790    0.84870    0.18380    1.000
    C2       C        0.56770    0.83330    0.09540    1.000
    C3       C        0.60050    0.74050    0.03560    1.000
    C4       C        0.62890    0.72400    0.95060    1.000
    C5       C        0.62900    0.80260    0.92600    1.000
    C6       C        0.59920    0.89380    0.98700    1.000
    C7       C        0.56630    0.90910    0.07020    1.000
    C8       C        0.65650    0.77790    0.83300    1.000
    C9       C        0.59430    0.84720    0.49500    1.000
    C10      C        0.64980    0.80911    0.55762    1.000
    C11      C        0.63410    0.84601    0.65242    1.000
    C12      C        0.68300    0.80782    0.70904    1.000
    C13      C        0.75260    0.73840    0.67460    1.000
    C14      C        0.76920    0.70120    0.58020    1.000
    C15      C        0.71690    0.73662    0.52164    1.000
    C16      C        0.84280    0.62460    0.54380    1.000
    C17      C        0.97210    0.66490    0.81620    1.000
    C18      C        0.93230    0.73790    0.90460    1.000
    C19      C        0.89950    0.70490    0.96440    1.000
    C20      C        0.87110    0.77340    0.04940    1.000
    C21      C        0.87100    0.87660    0.07400    1.000
    C22      C        0.90080    0.90680    0.01300    1.000
    C23      C        0.93370    0.83890    0.92980    1.000
    C24      C        0.84350    0.94490    0.16700    1.000
    C25      C        0.90570    0.35220    0.50500    1.000
    C26      C        0.85020    0.25149    0.44238    1.000
    C27      C        0.86590    0.19359    0.34758    1.000
    C28      C        0.81700    0.09878    0.29096    1.000
    C29      C        0.74740    0.06380    0.32540    1.000
    C30      C        0.73080    0.12100    0.41980    1.000
    C31      C        0.78310    0.21498    0.47836    1.000
    C32      C        0.65720    0.08080    0.45620    1.000
    C33      C        0.47210    0.15130    0.81620    1.000
    C34      C        0.43230    0.16670    0.90460    1.000
    C35      C        0.39950    0.25950    0.96440    1.000
    C36      C        0.37110    0.27600    0.04940    1.000
    C37      C        0.37100    0.19740    0.07400    1.000
    C38      C        0.40080    0.10620    0.01300    1.000
    C39      C        0.43370    0.09090    0.92980    1.000
    C40      C        0.34350    0.22210    0.16700    1.000
    C41      C        0.40570    0.15280    0.50500    1.000
    C42      C        0.35020    0.19089    0.44238    1.000
    C43      C        0.36590    0.15399    0.34758    1.000
    C44      C        0.31700    0.19218    0.29096    1.000
    C45      C        0.24740    0.26160    0.32540    1.000
    C46      C        0.23080    0.29880    0.41980    1.000
    C47      C        0.28310    0.26338    0.47836    1.000
    C48      C        0.15720    0.37540    0.45620    1.000
    C49      C        0.02790    0.33510    0.18380    1.000
    C50      C        0.06770    0.26210    0.09540    1.000
    C51      C        0.10050    0.29510    0.03560    1.000
    C52      C        0.12890    0.22660    0.95060    1.000
    C53      C        0.12900    0.12340    0.92600    1.000
    C54      C        0.09920    0.09320    0.98700    1.000
    C55      C        0.06630    0.16110    0.07020    1.000
    C56      C        0.15650    0.05510    0.83300    1.000
    C57      C        0.09430    0.64780    0.49500    1.000
    C58      C        0.14980    0.74851    0.55762    1.000
    C59      C        0.13410    0.80641    0.65242    1.000
    C60      C        0.18300    0.90122    0.70904    1.000
    C61      C        0.25260    0.93620    0.67460    1.000
    C62      C        0.26920    0.87900    0.58020    1.000
    C63      C        0.21690    0.78502    0.52164    1.000
    C64      C        0.34280    0.91920    0.54380    1.000
    N1       N        0.65830    0.84196    0.80312    1.000
    N2       N        0.84170    0.03884    0.19688    1.000
    N3       N        0.34170    0.15804    0.19688    1.000
    N4       N        0.15830    0.96116    0.80312    1.000
    O1       O        0.55500    0.79546    0.22192    1.000
    O2       O        0.46910    0.91688    0.21796    1.000
    O3       O        0.57980    0.79319    0.40598    1.000
    O4       O        0.56200    0.93384    0.53328    1.000
    O5       O        0.88710    0.59796    0.60312    1.000
    O6       O        0.85340    0.58923    0.45706    1.000
    O7       O        0.94500    0.57354    0.77808    1.000
    O8       O        0.03090    0.69892    0.78204    1.000
    O9       O        0.92020    0.38721    0.59402    1.000
    O10      O        0.93800    0.40056    0.46672    1.000
    O11      O        0.61290    0.99484    0.39688    1.000
    O12      O        0.64660    0.13217    0.54294    1.000
    O13      O        0.44500    0.20454    0.77808    1.000
    O14      O        0.53090    0.08312    0.78204    1.000
    O15      O        0.42020    0.20681    0.59402    1.000
    O16      O        0.43800    0.06616    0.46672    1.000
    O17      O        0.11290    0.40204    0.39688    1.000
    O18      O        0.14660    0.41077    0.54294    1.000
    O19      O        0.05500    0.42646    0.22192    1.000
    O20      O        0.96910    0.30108    0.21796    1.000
    O21      O        0.07980    0.61279    0.40598    1.000
    O22      O        0.06200    0.59944    0.53328    1.000
    O23      O        0.38710    0.00516    0.60312    1.000
    O24      O        0.35340    0.86783    0.45706    1.000
