data_functionalizedCrystal
_audit_creation_method	'EQeq! by Chris Wilmer'
_symmetry_space_group_name_H-M	'P1'
_symmetry_Int_Tables_number	1
_symmetry_cell_setting	triclinic
loop_
_symmetry_equiv_pos_as_xyz
  x,y,z
_cell_length_a	8.6544
_cell_length_b	10.3809
_cell_length_c	10.7646
_cell_angle_alpha	90
_cell_angle_beta	90
_cell_angle_gamma	90
loop_
_atom_site_label
_atom_site_type_symbol
_atom_site_fract_x
_atom_site_fract_y
_atom_site_fract_z
_atom_site_charge
Mof_Pr	Pr	0.4928	0.39847	0.61346	2.678
Mof_P 	P 	0.6934	0.5816	0.8618	0.517
Mof_P 	P 	0.3424	0.5857	0.8925	0.553
Mof_O 	O 	0.6772	0.4721	0.7693	-0.562
Mof_O 	O 	0.6709	0.7153	0.8026	-0.523
Mof_O 	O 	0.8416	0.5708	0.9365	-0.567
Mof_O 	O 	0.2195	0.5448	0.9844	-0.583
Mof_O 	O 	0.3249	0.7256	0.8568	-0.579
Mof_O 	O 	0.3454	0.4971	0.7792	-0.572
Mof_O 	O 	0.5428	0.6951	0.045	-0.506
Mof_H 	H 	0.631	0.6982	0.0787	0.234
Mof_C 	C 	0.5322	0.5747	0.9696	-0.061
Mof_C 	C 	0.5406	0.4575	0.0549	-0.226
Mof_H 	H 	0.6401	0.4545	0.0941	0.064
Mof_H 	H 	0.5254	0.3806	0.0069	0.052
Mof_H 	H 	0.4616	0.4637	0.1172	0.089
Mof_Pr	Pr	0.0072	0.60153	0.11346	2.661
Mof_P 	P 	0.8066	0.4184	0.3618	0.517
Mof_P 	P 	0.1576	0.4143	0.3925	0.551
Mof_O 	O 	0.8228	0.5279	0.2693	-0.557
Mof_O 	O 	0.8291	0.2847	0.3026	-0.523
Mof_O 	O 	0.6584	0.4292	0.4365	-0.566
Mof_O 	O 	0.2805	0.4552	0.4844	-0.585
Mof_O 	O 	0.1751	0.2744	0.3568	-0.58
Mof_O 	O 	0.1546	0.5029	0.2792	-0.571
Mof_O 	O 	0.9572	0.3049	0.545	-0.511
Mof_H 	H 	0.869	0.3018	0.5787	0.234
Mof_C 	C 	0.9678	0.4253	0.4696	-0.049
Mof_C 	C 	0.9594	0.5425	0.5549	-0.236
Mof_H 	H 	0.8599	0.5455	0.5941	0.065
Mof_H 	H 	0.9746	0.6194	0.5069	0.057
Mof_H 	H 	0.0384	0.5363	0.6172	0.091
Mof_Pr	Pr	0.5072	0.89847	0.88654	2.66
Mof_P 	P 	0.3066	0.0816	0.6382	0.52
Mof_P 	P 	0.6576	0.0857	0.6075	0.551
Mof_O 	O 	0.3228	0.9721	0.7307	-0.563
Mof_O 	O 	0.3291	0.2153	0.6974	-0.524
Mof_O 	O 	0.1584	0.0708	0.5635	-0.564
Mof_O 	O 	0.7805	0.0448	0.5156	-0.587
Mof_O 	O 	0.6751	0.2256	0.6432	-0.58
Mof_O 	O 	0.6546	0.9971	0.7208	-0.569
Mof_O 	O 	0.4572	0.1951	0.455	-0.512
Mof_H 	H 	0.369	0.1982	0.4213	0.234
Mof_C 	C 	0.4678	0.0747	0.5304	-0.053
Mof_C 	C 	0.4594	0.9575	0.4451	-0.24
Mof_H 	H 	0.3599	0.9545	0.4059	0.065
Mof_H 	H 	0.4746	0.8806	0.4931	0.055
Mof_H 	H 	0.5384	0.9637	0.3828	0.095
Mof_Pr	Pr	0.9928	0.10153	0.38654	2.677
Mof_P 	P 	0.1934	0.9184	0.1382	0.519
Mof_P 	P 	0.8424	0.9143	0.1075	0.574
Mof_O 	O 	0.1772	0.0279	0.2307	-0.562
Mof_O 	O 	0.1709	0.7847	0.1974	-0.525
Mof_O 	O 	0.3416	0.9292	0.0635	-0.564
Mof_O 	O 	0.7195	0.9552	0.0156	-0.579
Mof_O 	O 	0.8249	0.7744	0.1432	-0.575
Mof_O 	O 	0.8454	0.0029	0.2208	-0.581
Mof_O 	O 	0.0428	0.8049	0.955	-0.503
Mof_H 	H 	0.131	0.8018	0.9213	0.231
Mof_C 	C 	0.0322	0.9253	0.0304	-0.089
Mof_C 	C 	0.0406	0.0425	0.9451	-0.143
Mof_H 	H 	0.1401	0.0455	0.9059	0.04
Mof_H 	H 	0.0254	0.1194	0.9931	0.03
Mof_H 	H 	0.9616	0.0363	0.8828	0.056
_end
