# CIF file generated by openbabel 3.1.0, see https://openbabel.org
data_I
_chemical_name_common 'image0'
_cell_length_a 20.3587
_cell_length_b 20.3587
_cell_length_c 20.3587
_cell_angle_alpha 90
_cell_angle_beta 90
_cell_angle_gamma 90
_space_group_name_H-M_alt 'P 1'
_space_group_name_Hall 'P 1'
loop_
    _symmetry_equiv_pos_as_xyz
    x,y,z
loop_
    _atom_site_label
    _atom_site_type_symbol
    _atom_site_fract_x
    _atom_site_fract_y
    _atom_site_fract_z
    _atom_site_occupancy
    O1       O        0.13060    0.81520    0.24270    1.000
    O2       O        0.05380    0.88450    0.21220    1.000
    N1       N        0.99590    0.65450    0.01130    1.000
    H1       H        0.95950    0.66860    0.99270    1.000
    N2       N        0.98900    0.57460    0.93110    1.000
    C1       C        0.08230    0.83150    0.20740    1.000
    C2       C        0.06020    0.78300    0.15690    1.000
    C3       C        0.00970    0.79810    0.11560    1.000
    H2       H        0.98890    0.83970    0.11880    1.000
    C4       C        0.98870    0.75370    0.06940    1.000
    H3       H        0.95270    0.76490    0.04200    1.000
    C5       C        0.01920    0.69110    0.06130    1.000
    C6       C        0.07060    0.67760    0.10440    1.000
    H4       H        0.09200    0.63620    0.10210    1.000
    C7       C        0.09120    0.72300    0.15010    1.000
    H5       H        0.12760    0.71290    0.17760    1.000
    C8       C        0.02290    0.59580    0.98510    1.000
    O3       O        0.36940    0.18480    0.74270    1.000
    O4       O        0.44620    0.11550    0.71220    1.000
    N3       N        0.50410    0.34550    0.51130    1.000
    H6       H        0.54050    0.33140    0.49270    1.000
    N4       N        0.51100    0.42540    0.43110    1.000
    C9       C        0.41770    0.16850    0.70740    1.000
    C10      C        0.43980    0.21700    0.65690    1.000
    C11      C        0.49030    0.20190    0.61560    1.000
    H7       H        0.51110    0.16030    0.61880    1.000
    C12      C        0.51130    0.24630    0.56940    1.000
    H8       H        0.54730    0.23510    0.54200    1.000
    C13      C        0.48080    0.30890    0.56130    1.000
    C14      C        0.42940    0.32240    0.60440    1.000
    H9       H        0.40800    0.36380    0.60210    1.000
    C15      C        0.40880    0.27700    0.65010    1.000
    H10      H        0.37240    0.28710    0.67760    1.000
    C16      C        0.47710    0.40420    0.48510    1.000
    O5       O        0.86940    0.31520    0.25730    1.000
    O6       O        0.94620    0.38450    0.28780    1.000
    N5       N        0.00410    0.15450    0.48870    1.000
    H11      H        0.04050    0.16860    0.50730    1.000
    N6       N        0.01100    0.07460    0.56890    1.000
    C17      C        0.91770    0.33150    0.29260    1.000
    C18      C        0.93980    0.28300    0.34310    1.000
    C19      C        0.99030    0.29810    0.38440    1.000
    H12      H        0.01110    0.33970    0.38120    1.000
    C20      C        0.01130    0.25370    0.43060    1.000
    H13      H        0.04730    0.26490    0.45800    1.000
    C21      C        0.98080    0.19110    0.43870    1.000
    C22      C        0.92940    0.17760    0.39560    1.000
    H14      H        0.90800    0.13620    0.39790    1.000
    C23      C        0.90880    0.22300    0.34990    1.000
    H15      H        0.87240    0.21290    0.32240    1.000
    C24      C        0.97710    0.09580    0.51490    1.000
    O7       O        0.63060    0.68480    0.75730    1.000
    O8       O        0.55380    0.61550    0.78780    1.000
    N7       N        0.49590    0.84550    0.98870    1.000
    H16      H        0.45950    0.83140    0.00730    1.000
    N8       N        0.48900    0.92540    0.06890    1.000
    C25      C        0.58230    0.66850    0.79260    1.000
    C26      C        0.56020    0.71700    0.84310    1.000
    C27      C        0.50970    0.70190    0.88440    1.000
    H17      H        0.48890    0.66030    0.88120    1.000
    C28      C        0.48870    0.74630    0.93060    1.000
    H18      H        0.45270    0.73510    0.95800    1.000
    C29      C        0.51920    0.80890    0.93870    1.000
    C30      C        0.57060    0.82240    0.89560    1.000
    H19      H        0.59200    0.86380    0.89790    1.000
    C31      C        0.59120    0.77700    0.84990    1.000
    H20      H        0.62760    0.78710    0.82240    1.000
    C32      C        0.52290    0.90420    0.01490    1.000
    O9       O        0.24270    0.13060    0.81520    1.000
    O10      O        0.21220    0.05380    0.88450    1.000
    N9       N        0.01130    0.99590    0.65450    1.000
    H21      H        0.99270    0.95950    0.66860    1.000
    N10      N        0.93110    0.98900    0.57460    1.000
    C33      C        0.20740    0.08230    0.83150    1.000
    C34      C        0.15690    0.06020    0.78300    1.000
    C35      C        0.11560    0.00970    0.79810    1.000
    H22      H        0.11880    0.98890    0.83970    1.000
    C36      C        0.06940    0.98870    0.75370    1.000
    H23      H        0.04200    0.95270    0.76490    1.000
    C37      C        0.06130    0.01920    0.69110    1.000
    C38      C        0.10440    0.07060    0.67760    1.000
    H24      H        0.10210    0.09200    0.63620    1.000
    C39      C        0.15010    0.09120    0.72300    1.000
    H25      H        0.17760    0.12760    0.71290    1.000
    C40      C        0.98510    0.02290    0.59580    1.000
    O11      O        0.74270    0.36940    0.18480    1.000
    O12      O        0.71220    0.44620    0.11550    1.000
    N11      N        0.51130    0.50410    0.34550    1.000
    H26      H        0.49270    0.54050    0.33140    1.000
    N12      N        0.43110    0.51100    0.42540    1.000
    C41      C        0.70740    0.41770    0.16850    1.000
    C42      C        0.65690    0.43980    0.21700    1.000
    C43      C        0.61560    0.49030    0.20190    1.000
    H27      H        0.61880    0.51110    0.16030    1.000
    C44      C        0.56940    0.51130    0.24630    1.000
    H28      H        0.54200    0.54730    0.23510    1.000
    C45      C        0.56130    0.48080    0.30890    1.000
    C46      C        0.60440    0.42940    0.32240    1.000
    H29      H        0.60210    0.40800    0.36380    1.000
    C47      C        0.65010    0.40880    0.27700    1.000
    H30      H        0.67760    0.37240    0.28710    1.000
    C48      C        0.48510    0.47710    0.40420    1.000
    O13      O        0.25730    0.86940    0.31520    1.000
    O14      O        0.28780    0.94620    0.38450    1.000
    N13      N        0.48870    0.00410    0.15450    1.000
    H31      H        0.50730    0.04050    0.16860    1.000
    N14      N        0.56890    0.01100    0.07460    1.000
    C49      C        0.29260    0.91770    0.33150    1.000
    C50      C        0.34310    0.93980    0.28300    1.000
    C51      C        0.38440    0.99030    0.29810    1.000
    H32      H        0.38120    0.01110    0.33970    1.000
    C52      C        0.43060    0.01130    0.25370    1.000
    H33      H        0.45800    0.04730    0.26490    1.000
    C53      C        0.43870    0.98080    0.19110    1.000
    C54      C        0.39560    0.92940    0.17760    1.000
    H34      H        0.39790    0.90800    0.13620    1.000
    C55      C        0.34990    0.90880    0.22300    1.000
    H35      H        0.32240    0.87240    0.21290    1.000
    C56      C        0.51490    0.97710    0.09580    1.000
    O15      O        0.75730    0.63060    0.68480    1.000
    O16      O        0.78780    0.55380    0.61550    1.000
    N15      N        0.98870    0.49590    0.84550    1.000
    H36      H        0.00730    0.45950    0.83140    1.000
    N16      N        0.06890    0.48900    0.92540    1.000
    C57      C        0.79260    0.58230    0.66850    1.000
    C58      C        0.84310    0.56020    0.71700    1.000
    C59      C        0.88440    0.50970    0.70190    1.000
    H37      H        0.88120    0.48890    0.66030    1.000
    C60      C        0.93060    0.48870    0.74630    1.000
    H38      H        0.95800    0.45270    0.73510    1.000
    C61      C        0.93870    0.51920    0.80890    1.000
    C62      C        0.89560    0.57060    0.82240    1.000
    H39      H        0.89790    0.59200    0.86380    1.000
    C63      C        0.84990    0.59120    0.77700    1.000
    H40      H        0.82240    0.62760    0.78710    1.000
    C64      C        0.01490    0.52290    0.90420    1.000
    O17      O        0.81520    0.24270    0.13060    1.000
    O18      O        0.88450    0.21220    0.05380    1.000
    N17      N        0.65450    0.01130    0.99590    1.000
    H41      H        0.66860    0.99270    0.95950    1.000
    N18      N        0.57460    0.93110    0.98900    1.000
    C65      C        0.83150    0.20740    0.08230    1.000
    C66      C        0.78300    0.15690    0.06020    1.000
    C67      C        0.79810    0.11560    0.00970    1.000
    H42      H        0.83970    0.11880    0.98890    1.000
    C68      C        0.75370    0.06940    0.98870    1.000
    H43      H        0.76490    0.04200    0.95270    1.000
    C69      C        0.69110    0.06130    0.01920    1.000
    C70      C        0.67760    0.10440    0.07060    1.000
    H44      H        0.63620    0.10210    0.09200    1.000
    C71      C        0.72300    0.15010    0.09120    1.000
    H45      H        0.71290    0.17760    0.12760    1.000
    C72      C        0.59580    0.98510    0.02290    1.000
    O19      O        0.18480    0.74270    0.36940    1.000
    O20      O        0.11550    0.71220    0.44620    1.000
    N19      N        0.34550    0.51130    0.50410    1.000
    H46      H        0.33140    0.49270    0.54050    1.000
    N20      N        0.42540    0.43110    0.51100    1.000
    C73      C        0.16850    0.70740    0.41770    1.000
    C74      C        0.21700    0.65690    0.43980    1.000
    C75      C        0.20190    0.61560    0.49030    1.000
    H47      H        0.16030    0.61880    0.51110    1.000
    C76      C        0.24630    0.56940    0.51130    1.000
    H48      H        0.23510    0.54200    0.54730    1.000
    C77      C        0.30890    0.56130    0.48080    1.000
    C78      C        0.32240    0.60440    0.42940    1.000
    H49      H        0.36380    0.60210    0.40800    1.000
    C79      C        0.27700    0.65010    0.40880    1.000
    H50      H        0.28710    0.67760    0.37240    1.000
    C80      C        0.40420    0.48510    0.47710    1.000
    O21      O        0.31520    0.25730    0.86940    1.000
    O22      O        0.38450    0.28780    0.94620    1.000
    N21      N        0.15450    0.48870    0.00410    1.000
    H51      H        0.16860    0.50730    0.04050    1.000
    N22      N        0.07460    0.56890    0.01100    1.000
    C81      C        0.33150    0.29260    0.91770    1.000
    C82      C        0.28300    0.34310    0.93980    1.000
    C83      C        0.29810    0.38440    0.99030    1.000
    H52      H        0.33970    0.38120    0.01110    1.000
    C84      C        0.25370    0.43060    0.01130    1.000
    H53      H        0.26490    0.45800    0.04730    1.000
    C85      C        0.19110    0.43870    0.98080    1.000
    C86      C        0.17760    0.39560    0.92940    1.000
    H54      H        0.13620    0.39790    0.90800    1.000
    C87      C        0.22300    0.34990    0.90880    1.000
    H55      H        0.21290    0.32240    0.87240    1.000
    C88      C        0.09580    0.51490    0.97710    1.000
    O23      O        0.68480    0.75730    0.63060    1.000
    O24      O        0.61550    0.78780    0.55380    1.000
    N23      N        0.84550    0.98870    0.49590    1.000
    H56      H        0.83140    0.00730    0.45950    1.000
    N24      N        0.92540    0.06890    0.48900    1.000
    C89      C        0.66850    0.79260    0.58230    1.000
    C90      C        0.71700    0.84310    0.56020    1.000
    C91      C        0.70190    0.88440    0.50970    1.000
    H57      H        0.66030    0.88120    0.48890    1.000
    C92      C        0.74630    0.93060    0.48870    1.000
    H58      H        0.73510    0.95800    0.45270    1.000
    C93      C        0.80890    0.93870    0.51920    1.000
    C94      C        0.82240    0.89560    0.57060    1.000
    H59      H        0.86380    0.89790    0.59200    1.000
    C95      C        0.77700    0.84990    0.59120    1.000
    H60      H        0.78710    0.82240    0.62760    1.000
    C96      C        0.90420    0.01490    0.52290    1.000
    Tm1      Tm       0.15619    0.84381    0.34381    1.000
    Tm2      Tm       0.34381    0.15619    0.84381    1.000
    Tm3      Tm       0.84381    0.34381    0.15619    1.000
    Tm4      Tm       0.65619    0.65619    0.65619    1.000
    O25      O        0.24020    0.62480    0.18290    1.000
    O26      O        0.21330    0.54240    0.11570    1.000
    N25      N        0.01020    0.49380    0.35220    1.000
    H61      H        0.99390    0.45490    0.34250    1.000
    N26      N        0.01190    0.57330    0.43020    1.000
    C97      C        0.20630    0.57370    0.16720    1.000
    C98      C        0.15580    0.55440    0.21620    1.000
    C99      C        0.15030    0.58530    0.27610    1.000
    H62      H        0.18000    0.61980    0.28640    1.000
    C100     C        0.10320    0.56780    0.32160    1.000
    H63      H        0.09970    0.59030    0.36230    1.000
    C101     C        0.06070    0.51590    0.30630    1.000
    C102     C        0.06670    0.48270    0.24860    1.000
    H64      H        0.03830    0.44690    0.23930    1.000
    C103     C        0.11380    0.50080    0.20380    1.000
    H65      H        0.11800    0.47700    0.16390    1.000
    C104     C        0.98510    0.51940    0.40350    1.000
    O27      O        0.25980    0.37520    0.68290    1.000
    O28      O        0.28670    0.45760    0.61570    1.000
    N27      N        0.48980    0.50620    0.85220    1.000
    H66      H        0.50610    0.54510    0.84250    1.000
    N28      N        0.48810    0.42670    0.93020    1.000
    C105     C        0.29370    0.42630    0.66720    1.000
    C106     C        0.34420    0.44560    0.71620    1.000
    C107     C        0.34970    0.41470    0.77610    1.000
    H67      H        0.32000    0.38020    0.78640    1.000
    C108     C        0.39680    0.43220    0.82160    1.000
    H68      H        0.40030    0.40970    0.86230    1.000
    C109     C        0.43930    0.48410    0.80630    1.000
    C110     C        0.43330    0.51730    0.74860    1.000
    H69      H        0.46170    0.55310    0.73930    1.000
    C111     C        0.38620    0.49920    0.70380    1.000
    H70      H        0.38200    0.52300    0.66390    1.000
    C112     C        0.51490    0.48060    0.90350    1.000
    O29      O        0.75980    0.12480    0.31710    1.000
    O30      O        0.78670    0.04240    0.38430    1.000
    N29      N        0.98980    0.99380    0.14780    1.000
    H71      H        0.00610    0.95490    0.15750    1.000
    N30      N        0.98810    0.07330    0.06980    1.000
    C113     C        0.79370    0.07370    0.33280    1.000
    C114     C        0.84420    0.05440    0.28380    1.000
    C115     C        0.84970    0.08530    0.22390    1.000
    H72      H        0.82000    0.11980    0.21360    1.000
    C116     C        0.89680    0.06780    0.17840    1.000
    H73      H        0.90030    0.09030    0.13770    1.000
    C117     C        0.93930    0.01590    0.19370    1.000
    C118     C        0.93330    0.98270    0.25140    1.000
    H74      H        0.96170    0.94690    0.26070    1.000
    C119     C        0.88620    0.00080    0.29620    1.000
    H75      H        0.88200    0.97700    0.33610    1.000
    C120     C        0.01490    0.01940    0.09650    1.000
    O31      O        0.74020    0.87520    0.81710    1.000
    O32      O        0.71330    0.95760    0.88430    1.000
    N31      N        0.51020    0.00620    0.64780    1.000
    H76      H        0.49390    0.04510    0.65750    1.000
    N32      N        0.51190    0.92670    0.56980    1.000
    C121     C        0.70630    0.92630    0.83280    1.000
    C122     C        0.65580    0.94560    0.78380    1.000
    C123     C        0.65030    0.91470    0.72390    1.000
    H77      H        0.68000    0.88020    0.71360    1.000
    C124     C        0.60320    0.93220    0.67840    1.000
    H78      H        0.59970    0.90970    0.63770    1.000
    C125     C        0.56070    0.98410    0.69370    1.000
    C126     C        0.56670    0.01730    0.75140    1.000
    H79      H        0.53830    0.05310    0.76070    1.000
    C127     C        0.61380    0.99920    0.79620    1.000
    H80      H        0.61800    0.02300    0.83610    1.000
    C128     C        0.48510    0.98060    0.59650    1.000
    O33      O        0.18290    0.24020    0.62480    1.000
    O34      O        0.11570    0.21330    0.54240    1.000
    N33      N        0.35220    0.01020    0.49380    1.000
    H81      H        0.34250    0.99390    0.45490    1.000
    N34      N        0.43020    0.01190    0.57330    1.000
    C129     C        0.16720    0.20630    0.57370    1.000
    C130     C        0.21620    0.15580    0.55440    1.000
    C131     C        0.27610    0.15030    0.58530    1.000
    H82      H        0.28640    0.18000    0.61980    1.000
    C132     C        0.32160    0.10320    0.56780    1.000
    H83      H        0.36230    0.09970    0.59030    1.000
    C133     C        0.30630    0.06070    0.51590    1.000
    C134     C        0.24860    0.06670    0.48270    1.000
    H84      H        0.23930    0.03830    0.44690    1.000
    C135     C        0.20380    0.11380    0.50080    1.000
    H85      H        0.16390    0.11800    0.47700    1.000
    C136     C        0.40350    0.98510    0.51940    1.000
    O35      O        0.68290    0.25980    0.37520    1.000
    O36      O        0.61570    0.28670    0.45760    1.000
    N35      N        0.85220    0.48980    0.50620    1.000
    H86      H        0.84250    0.50610    0.54510    1.000
    N36      N        0.93020    0.48810    0.42670    1.000
    C137     C        0.66720    0.29370    0.42630    1.000
    C138     C        0.71620    0.34420    0.44560    1.000
    C139     C        0.77610    0.34970    0.41470    1.000
    H87      H        0.78640    0.32000    0.38020    1.000
    C140     C        0.82160    0.39680    0.43220    1.000
    H88      H        0.86230    0.40030    0.40970    1.000
    C141     C        0.80630    0.43930    0.48410    1.000
    C142     C        0.74860    0.43330    0.51730    1.000
    H89      H        0.73930    0.46170    0.55310    1.000
    C143     C        0.70380    0.38620    0.49920    1.000
    H90      H        0.66390    0.38200    0.52300    1.000
    C144     C        0.90350    0.51490    0.48060    1.000
    O37      O        0.31710    0.75980    0.12480    1.000
    O38      O        0.38430    0.78670    0.04240    1.000
    N37      N        0.14780    0.98980    0.99380    1.000
    H91      H        0.15750    0.00610    0.95490    1.000
    N38      N        0.06980    0.98810    0.07330    1.000
    C145     C        0.33280    0.79370    0.07370    1.000
    C146     C        0.28380    0.84420    0.05440    1.000
    C147     C        0.22390    0.84970    0.08530    1.000
    H92      H        0.21360    0.82000    0.11980    1.000
    C148     C        0.17840    0.89680    0.06780    1.000
    H93      H        0.13770    0.90030    0.09030    1.000
    C149     C        0.19370    0.93930    0.01590    1.000
    C150     C        0.25140    0.93330    0.98270    1.000
    H94      H        0.26070    0.96170    0.94690    1.000
    C151     C        0.29620    0.88620    0.00080    1.000
    H95      H        0.33610    0.88200    0.97700    1.000
    C152     C        0.09650    0.01490    0.01940    1.000
    O39      O        0.81710    0.74020    0.87520    1.000
    O40      O        0.88430    0.71330    0.95760    1.000
    N39      N        0.64780    0.51020    0.00620    1.000
    H96      H        0.65750    0.49390    0.04510    1.000
    N40      N        0.56980    0.51190    0.92670    1.000
    C153     C        0.83280    0.70630    0.92630    1.000
    C154     C        0.78380    0.65580    0.94560    1.000
    C155     C        0.72390    0.65030    0.91470    1.000
    H97      H        0.71360    0.68000    0.88020    1.000
    C156     C        0.67840    0.60320    0.93220    1.000
    H98      H        0.63770    0.59970    0.90970    1.000
    C157     C        0.69370    0.56070    0.98410    1.000
    C158     C        0.75140    0.56670    0.01730    1.000
    H99      H        0.76070    0.53830    0.05310    1.000
    C159     C        0.79620    0.61380    0.99920    1.000
    H100     H        0.83610    0.61800    0.02300    1.000
    C160     C        0.59650    0.48510    0.98060    1.000
    O41      O        0.62480    0.18290    0.24020    1.000
    O42      O        0.54240    0.11570    0.21330    1.000
    N41      N        0.49380    0.35220    0.01020    1.000
    H101     H        0.45490    0.34250    0.99390    1.000
    N42      N        0.57330    0.43020    0.01190    1.000
    C161     C        0.57370    0.16720    0.20630    1.000
    C162     C        0.55440    0.21620    0.15580    1.000
    C163     C        0.58530    0.27610    0.15030    1.000
    H102     H        0.61980    0.28640    0.18000    1.000
    C164     C        0.56780    0.32160    0.10320    1.000
    H103     H        0.59030    0.36230    0.09970    1.000
    C165     C        0.51590    0.30630    0.06070    1.000
    C166     C        0.48270    0.24860    0.06670    1.000
    H104     H        0.44690    0.23930    0.03830    1.000
    C167     C        0.50080    0.20380    0.11380    1.000
    H105     H        0.47700    0.16390    0.11800    1.000
    C168     C        0.51940    0.40350    0.98510    1.000
    O43      O        0.37520    0.68290    0.25980    1.000
    O44      O        0.45760    0.61570    0.28670    1.000
    N43      N        0.50620    0.85220    0.48980    1.000
    H106     H        0.54510    0.84250    0.50610    1.000
    N44      N        0.42670    0.93020    0.48810    1.000
    C169     C        0.42630    0.66720    0.29370    1.000
    C170     C        0.44560    0.71620    0.34420    1.000
    C171     C        0.41470    0.77610    0.34970    1.000
    H107     H        0.38020    0.78640    0.32000    1.000
    C172     C        0.43220    0.82160    0.39680    1.000
    H108     H        0.40970    0.86230    0.40030    1.000
    C173     C        0.48410    0.80630    0.43930    1.000
    C174     C        0.51730    0.74860    0.43330    1.000
    H109     H        0.55310    0.73930    0.46170    1.000
    C175     C        0.49920    0.70380    0.38620    1.000
    H110     H        0.52300    0.66390    0.38200    1.000
    C176     C        0.48060    0.90350    0.51490    1.000
    O45      O        0.12480    0.31710    0.75980    1.000
    O46      O        0.04240    0.38430    0.78670    1.000
    N45      N        0.99380    0.14780    0.98980    1.000
    H111     H        0.95490    0.15750    0.00610    1.000
    N46      N        0.07330    0.06980    0.98810    1.000
    C177     C        0.07370    0.33280    0.79370    1.000
    C178     C        0.05440    0.28380    0.84420    1.000
    C179     C        0.08530    0.22390    0.84970    1.000
    H112     H        0.11980    0.21360    0.82000    1.000
    C180     C        0.06780    0.17840    0.89680    1.000
    H113     H        0.09030    0.13770    0.90030    1.000
    C181     C        0.01590    0.19370    0.93930    1.000
    C182     C        0.98270    0.25140    0.93330    1.000
    H114     H        0.94690    0.26070    0.96170    1.000
    C183     C        0.00080    0.29620    0.88620    1.000
    H115     H        0.97700    0.33610    0.88200    1.000
    C184     C        0.01940    0.09650    0.01490    1.000
    O47      O        0.87520    0.81710    0.74020    1.000
    O48      O        0.95760    0.88430    0.71330    1.000
    N47      N        0.00620    0.64780    0.51020    1.000
    H116     H        0.04510    0.65750    0.49390    1.000
    N48      N        0.92670    0.56980    0.51190    1.000
    C185     C        0.92630    0.83280    0.70630    1.000
    C186     C        0.94560    0.78380    0.65580    1.000
    C187     C        0.91470    0.72390    0.65030    1.000
    H117     H        0.88020    0.71360    0.68000    1.000
    C188     C        0.93220    0.67840    0.60320    1.000
    H118     H        0.90970    0.63770    0.59970    1.000
    C189     C        0.98410    0.69370    0.56070    1.000
    C190     C        0.01730    0.75140    0.56670    1.000
    H119     H        0.05310    0.76070    0.53830    1.000
    C191     C        0.99920    0.79620    0.61380    1.000
    H120     H        0.02300    0.83610    0.61800    1.000
    C192     C        0.98060    0.59650    0.48510    1.000
    Tm5      Tm       0.33830    0.66170    0.16170    1.000
    Tm6      Tm       0.16170    0.33830    0.66170    1.000
    Tm7      Tm       0.66170    0.16170    0.33830    1.000
    Tm8      Tm       0.83830    0.83830    0.83830    1.000
