# CIF file generated by openbabel 3.1.0, see https://openbabel.org
data_I
_chemical_name_common 'image0'
_cell_length_a 7.1162
_cell_length_b 7.2353
_cell_length_c 9.2139
_cell_angle_alpha 95.361
_cell_angle_beta 91.219
_cell_angle_gamma 114.929
_space_group_name_H-M_alt 'P 1'
_space_group_name_Hall 'P 1'
loop_
    _symmetry_equiv_pos_as_xyz
    x,y,z
loop_
    _atom_site_label
    _atom_site_type_symbol
    _atom_site_fract_x
    _atom_site_fract_y
    _atom_site_fract_z
    _atom_site_occupancy
    O1       O        0.77770    0.01530    0.35410    1.000
    O2       O        0.23960    0.09950    0.37800    1.000
    O3       O        0.41570    0.98320    0.23430    1.000
    O4       O        0.98950    0.33670    0.31370    1.000
    C1       C        0.27110    0.04010    0.25080    1.000
    C2       C        0.13230    0.02410    0.12220    1.000
    C3       C        0.17240    0.95850    0.98450    1.000
    H1       H        0.28850    0.93160    0.97390    1.000
    C4       C        0.95840    0.06760    0.13750    1.000
    C5       C        0.90630    0.14490    0.28250    1.000
    O5       O        0.22230    0.98470    0.64590    1.000
    O6       O        0.76040    0.90050    0.62200    1.000
    O7       O        0.58430    0.01680    0.76570    1.000
    O8       O        0.01050    0.66330    0.68630    1.000
    C6       C        0.72890    0.95990    0.74920    1.000
    C7       C        0.86770    0.97590    0.87780    1.000
    C8       C        0.82760    0.04150    0.01550    1.000
    H2       H        0.71150    0.06840    0.02610    1.000
    C9       C        0.04160    0.93240    0.86250    1.000
    C10      C        0.09370    0.85510    0.71750    1.000
    U1       U        0.50000    0.00000    0.50000    1.000
    Cu1      Cu       0.00000    0.50000    0.50000    1.000
