# CIF file generated by openbabel 3.1.0, see https://openbabel.org
data_I
_chemical_name_common 'image0'
_cell_length_a 9.3425
_cell_length_b 9.3425
_cell_length_c 6.994
_cell_angle_alpha 90
_cell_angle_beta 90
_cell_angle_gamma 120
_space_group_name_H-M_alt 'P 1'
_space_group_name_Hall 'P 1'
loop_
    _symmetry_equiv_pos_as_xyz
    x,y,z
loop_
    _atom_site_label
    _atom_site_type_symbol
    _atom_site_fract_x
    _atom_site_fract_y
    _atom_site_fract_z
    _atom_site_occupancy
    Al1      Al       0.16218    0.52118    0.05622    1.000
    O1       O        0.30140    0.73033    0.96030    1.000
    H1       H        0.35770    0.82060    0.05120    1.000
    O2       O        0.27840    0.42700    0.95950    1.000
    O3       O        0.53314    0.56580    0.16960    1.000
    Al2      Al       0.47882    0.64100    0.38955    1.000
    O4       O        0.26967    0.57107    0.29363    1.000
    H2       H        0.17940    0.53710    0.38453    1.000
    O5       O        0.57300    0.85140    0.29283    1.000
    O6       O        0.43420    0.96734    0.50293    1.000
    Al3      Al       0.35900    0.83782    0.72289    1.000
    O7       O        0.42893    0.69860    0.62697    1.000
    H3       H        0.46290    0.64230    0.71787    1.000
    O8       O        0.14860    0.72160    0.62617    1.000
    O9       O        0.03266    0.46686    0.83627    1.000
    Al4      Al       0.52118    0.16218    0.94378    1.000
    O10      O        0.73033    0.30140    0.03970    1.000
    H4       H        0.82060    0.35770    0.94880    1.000
    O11      O        0.42700    0.27840    0.04050    1.000
    O12      O        0.56580    0.53314    0.83040    1.000
    Al5      Al       0.64100    0.47882    0.61045    1.000
    O13      O        0.57107    0.26967    0.70637    1.000
    H5       H        0.53710    0.17940    0.61547    1.000
    O14      O        0.85140    0.57300    0.70717    1.000
    O15      O        0.96734    0.43420    0.49707    1.000
    Al6      Al       0.83782    0.35900    0.27711    1.000
    O16      O        0.69860    0.42893    0.37303    1.000
    H6       H        0.64230    0.46290    0.28213    1.000
    O17      O        0.72160    0.14860    0.37383    1.000
    O18      O        0.46686    0.03266    0.16373    1.000
    P1       P        0.44940    0.44940    0.00000    1.000
    P2       P        0.55060    0.00000    0.33333    1.000
    P3       P        0.00000    0.55060    0.66667    1.000
    F1       F        0.00000    0.31790    0.16667    1.000
    F2       F        0.00000    0.56830    0.16667    1.000
    F3       F        0.68210    0.68210    0.50000    1.000
    F4       F        0.43170    0.43170    0.50000    1.000
    F5       F        0.31790    0.00000    0.83333    1.000
    F6       F        0.56830    0.00000    0.83333    1.000
