data_functionalizedCrystal
_audit_creation_method	'EQeq! by Chris Wilmer'
_symmetry_space_group_name_H-M	'P1'
_symmetry_Int_Tables_number	1
_symmetry_cell_setting	triclinic
loop_
_symmetry_equiv_pos_as_xyz
  x,y,z
_cell_length_a	9.8385
_cell_length_b	11.0629
_cell_length_c	13.5398
_cell_angle_alpha	66.61
_cell_angle_beta	85.898
_cell_angle_gamma	69.717
loop_
_atom_site_label
_atom_site_type_symbol
_atom_site_fract_x
_atom_site_fract_y
_atom_site_fract_z
_atom_site_charge
Mof_Co	Co	0.89257	0.02323	0.79748	1.152
Mof_Co	Co	0.82947	0.05518	0.01434	1.163
Mof_Co	Co	0.10743	0.97677	0.20252	1.152
Mof_Co	Co	0.17053	0.94482	0.98566	1.163
Mof_H 	H 	0.9579	0.172	0.8707	0.257
Mof_H 	H 	0.6474	0.7499	0.104	0.084
Mof_H 	H 	0.6701	0.3669	0.1253	0.084
Mof_H 	H 	0.8785	0.5913	0.8954	0.058
Mof_H 	H 	0.4784	0.5854	0.3345	0.099
Mof_H 	H 	0.5818	0.6671	0.2657	0.09
Mof_H 	H 	0.7923	0.8293	0.2312	-0.013
Mof_H 	H 	0.6419	0.8051	0.3695	0.085
Mof_H 	H 	0.3956	0.2118	0.216	0.093
Mof_H 	H 	0.5537	0.227	0.0794	0.011
Mof_H 	H 	0.4419	0.8916	0.4599	0.061
Mof_H 	H 	0.2492	0.1579	0.3444	0.062
Mof_H 	H 	0.2947	0.8312	0.5917	0.083
Mof_H 	H 	0.1359	0.8216	0.7345	0.001
Mof_H 	H 	0.9191	0.2241	0.5794	-0.015
Mof_H 	H 	0.0652	0.2446	0.441	0.088
Mof_H 	H 	0.0421	0.828	0.1293	0.257
Mof_H 	H 	0.3526	0.2501	0.896	0.084
Mof_H 	H 	0.3299	0.6331	0.8747	0.084
Mof_H 	H 	0.1215	0.4087	0.1046	0.058
Mof_H 	H 	0.5216	0.4146	0.6655	0.099
Mof_H 	H 	0.4182	0.3329	0.7343	0.09
Mof_H 	H 	0.2077	0.1707	0.7688	-0.013
Mof_H 	H 	0.3581	0.1949	0.6305	0.085
Mof_H 	H 	0.6044	0.7882	0.784	0.093
Mof_H 	H 	0.4463	0.773	0.9206	0.011
Mof_H 	H 	0.5581	0.1084	0.5401	0.061
Mof_H 	H 	0.7508	0.8421	0.6556	0.062
Mof_H 	H 	0.7053	0.1688	0.4083	0.083
Mof_H 	H 	0.8641	0.1784	0.2655	0.001
Mof_H 	H 	0.0809	0.7759	0.4206	-0.015
Mof_H 	H 	0.9348	0.7554	0.559	0.088
Mof_C 	C 	0.8113	0.8153	0.9442	0.351
Mof_C 	C 	0.7715	0.6867	0.9946	-0.047
Mof_C 	C 	0.6819	0.6764	0.079	-0.098
Mof_C 	C 	0.6429	0.5574	0.1269	0.154
Mof_C 	C 	0.6962	0.4483	0.0917	-0.096
Mof_C 	C 	0.7875	0.4578	0.0077	-0.046
Mof_C 	C 	0.8217	0.5808	0.956	-0.01
Mof_C 	C 	0.5024	0.6338	0.2603	-0.18
Mof_C 	C 	0.3692	0.761	0.1998	0.397
Mof_C 	C 	0.8454	0.3357	0.9738	0.341
Mof_C 	C 	0.7105	0.9087	0.2275	0.098
Mof_C 	C 	0.621	0.8936	0.3104	-0.166
Mof_C 	C 	0.5011	0.0053	0.309	0.118
Mof_C 	C 	0.4769	0.1314	0.2208	-0.159
Mof_C 	C 	0.572	0.1397	0.1393	0.086
Mof_C 	C 	0.4086	0.98	0.4004	-0.089
Mof_C 	C 	0.2848	0.0707	0.4047	-0.084
Mof_C 	C 	0.1942	0.0447	0.5007	0.116
Mof_C 	C 	0.2176	0.9133	0.5892	-0.146
Mof_C 	C 	0.1222	0.9079	0.6743	0.062
Mof_C 	C 	0.9976	0.1424	0.5829	0.082
Mof_C 	C 	0.0837	0.1561	0.4997	-0.164
Mof_C 	C 	0.1887	0.1847	0.0558	0.351
Mof_C 	C 	0.2285	0.3133	0.0054	-0.047
Mof_C 	C 	0.3181	0.3236	0.921	-0.098
Mof_C 	C 	0.3571	0.4426	0.8731	0.154
Mof_C 	C 	0.3038	0.5517	0.9083	-0.096
Mof_C 	C 	0.2125	0.5422	0.9923	-0.046
Mof_C 	C 	0.1783	0.4192	0.044	-0.01
Mof_C 	C 	0.4976	0.3662	0.7397	-0.18
Mof_C 	C 	0.6308	0.239	0.8002	0.397
Mof_C 	C 	0.1546	0.6643	0.0262	0.341
Mof_C 	C 	0.2895	0.0913	0.7725	0.098
Mof_C 	C 	0.379	0.1064	0.6896	-0.166
Mof_C 	C 	0.4989	0.9947	0.691	0.118
Mof_C 	C 	0.5231	0.8686	0.7792	-0.159
Mof_C 	C 	0.428	0.8603	0.8607	0.086
Mof_C 	C 	0.5914	0.02	0.5996	-0.089
Mof_C 	C 	0.7152	0.9293	0.5953	-0.084
Mof_C 	C 	0.8058	0.9553	0.4993	0.116
Mof_C 	C 	0.7824	0.0867	0.4108	-0.146
Mof_C 	C 	0.8778	0.0921	0.3257	0.062
Mof_C 	C 	0.0024	0.8576	0.4171	0.082
Mof_C 	C 	0.9163	0.8439	0.5003	-0.164
Mof_N 	N 	0.6887	0.0296	0.1415	-0.234
Mof_N 	N 	0.0134	0.0244	0.6694	-0.249
Mof_N 	N 	0.3113	0.9704	0.8585	-0.234
Mof_N 	N 	0.9866	0.9756	0.3306	-0.249
Mof_O 	O 	0.8642	0.8404	0.8533	-0.444
Mof_O 	O 	0.7901	0.8914	0.9965	-0.453
Mof_O 	O 	0.5541	0.5344	0.2112	-0.17
Mof_O 	O 	0.295	0.82	0.2593	-0.469
Mof_O 	O 	0.3453	0.7943	0.1023	-0.429
Mof_O 	O 	0.841	0.2203	0.0429	-0.443
Mof_O 	O 	0.8903	0.3547	0.8818	-0.299
Mof_O 	O 	0.9775	0.0794	0.8904	-0.773
Mof_O 	O 	0.1358	0.1596	0.1467	-0.444
Mof_O 	O 	0.2099	0.1086	0.0035	-0.453
Mof_O 	O 	0.4459	0.4656	0.7888	-0.17
Mof_O 	O 	0.705	0.18	0.7407	-0.469
Mof_O 	O 	0.6547	0.2057	0.8977	-0.429
Mof_O 	O 	0.159	0.7797	0.9571	-0.443
Mof_O 	O 	0.1097	0.6453	0.1182	-0.299
Mof_O 	O 	0.0225	0.9206	0.1096	-0.773
_end
