data_functionalizedCrystal
_audit_creation_method	'EQeq! by Chris Wilmer'
_symmetry_space_group_name_H-M	'P1'
_symmetry_Int_Tables_number	1
_symmetry_cell_setting	triclinic
loop_
_symmetry_equiv_pos_as_xyz
  x,y,z
_cell_length_a	21.5819
_cell_length_b	19.2279
_cell_length_c	25.74
_cell_angle_alpha	90
_cell_angle_beta	95.2863
_cell_angle_gamma	90
loop_
_atom_site_label
_atom_site_type_symbol
_atom_site_fract_x
_atom_site_fract_y
_atom_site_fract_z
_atom_site_charge
Mof_W 	W 	0.76237	0.64948	0.52995	0.897
Mof_W 	W 	0.69997	0.64716	0.66311	1.062
Mof_W 	W 	0.57954	0.55951	0.73885	1.204
Mof_W 	W 	0.44658	0.42999	0.73244	1.054
Mof_W 	W 	0.3585	0.30117	0.64116	0.97
Mof_W 	W 	0.25588	0.42381	0.6069	1.418
Mof_W 	W 	0.34737	0.55417	0.69251	1.052
Mof_W 	W 	0.47831	0.68367	0.7034	1.001
Mof_W 	W 	0.59672	0.76918	0.62449	1.103
Mof_W 	W 	0.6631	0.77546	0.49364	1.207
Mof_O 	O 	0.7508	0.5529	0.5401	-0.063
Mof_O 	O 	0.7413	0.6727	0.6012	-0.406
Mof_O 	O 	0.6439	0.6145	0.7126	-0.559
Mof_O 	O 	0.6095	0.4863	0.7001	-1.58
Mof_O 	O 	0.5063	0.5032	0.7452	-0.489
Mof_O 	O 	0.5111	0.3888	0.6957	-0.64
Mof_O 	O 	0.3895	0.3657	0.7041	-0.444
Mof_O 	O 	0.4388	0.2917	0.6304	-0.528
Mof_O 	O 	0.2787	0.3427	0.6458	-0.504
Mof_O 	O 	0.3794	0.4899	0.7449	-0.469
Mof_O 	O 	0.5328	0.641	0.7567	-0.471
Mof_O 	O 	0.6147	0.6563	0.6075	-0.418
Mof_O 	O 	0.6688	0.7443	0.6625	-0.501
Mof_O 	O 	0.6576	0.6597	0.5101	-0.402
Mof_O 	O 	0.7467	0.747	0.5118	-0.454
Mof_O 	O 	0.6698	0.7442	0.4236	-0.484
Mof_O 	O 	0.6508	0.7838	0.5623	-0.519
Mof_O 	O 	0.5449	0.7349	0.6765	-0.458
Mof_O 	O 	0.4162	0.6176	0.7126	-0.451
Mof_O 	O 	0.2906	0.478	0.661	-0.538
Mof_O 	O 	0.2362	0.3726	0.5475	-0.434
Mof_O 	O 	0.1783	0.433	0.6185	-0.48
Mof_O 	O 	0.5762	0.7704	0.4746	-1.287
Mof_O 	O 	0.5267	0.7636	0.5776	-0.915
Mof_O 	O 	0.4389	0.6991	0.6334	-0.414
Mof_O 	O 	0.3359	0.5997	0.6297	-0.965
Mof_O 	O 	0.2664	0.5015	0.563	-0.891
Mof_O 	O 	0.5216	0.5916	0.6665	-0.413
Mof_O 	O 	0.3577	0.399	0.5901	-0.433
Mof_O 	O 	0.4222	0.4908	0.6576	-0.416
Mof_O 	O 	0.7025	0.553	0.6437	-1.022
Mof_W 	W 	0.58255	0.40486	0.6564	2.994
Mof_W 	W 	0.70278	0.49027	0.58141	-1.122
Mof_O 	O 	0.3768	0.646	0.5479	0.014
Mof_O 	O 	0.4674	0.713	0.4997	-3.197
Mof_O 	O 	0.6452	0.437	0.6135	-4.375
Mof_P 	P 	0.6085	0.63	0.5461	0.332
Mof_P 	P 	0.4783	0.535	0.6321	0.284
Mof_O 	O 	0.5247	0.4795	0.6139	-0.171
Mof_O 	O 	0.4491	0.5775	0.5809	0.192
Mof_O 	O 	0.6236	0.5534	0.5523	0.017
Mof_O 	O 	0.5467	0.644	0.513	-0.186
Mof_W 	W 	0.38002	0.66064	0.57765	-0.31
Mof_O 	O 	0.46	0.816	0.4876	-1.032
Mof_W 	W 	0.49775	0.74433	0.50024	5.324
Mof_O 	O 	0.5395	0.339	0.597	1.229
Mof_O 	O 	0.688	0.443	0.5173	1.107
Mof_Cu	Cu	0.11548	0.41587	0.68376	0.891
Mof_Cu	Cu	0.23671	0.33875	0.75853	0.88
Mof_Cu	Cu	0.27992	0.17093	0.72772	0.848
Mof_Cu	Cu	0.18002	0.0901	0.63911	0.855
Mof_Cu	Cu	0.83571	0.25356	0.34229	0.815
Mof_N 	N 	0.8587	0.3614	0.319	-0.22
Mof_N 	N 	0.8415	0.3846	0.2715	-0.181
Mof_N 	N 	0.8562	0.4476	0.2649	-0.128
Mof_H 	H 	0.8488	0.4702	0.2361	0.045
Mof_N 	N 	0.8867	0.4754	0.3113	-0.189
Mof_N 	N 	0.9893	0.4195	0.5553	-0.161
Mof_N 	N 	0.9833	0.4186	0.6333	-0.122
Mof_N 	N 	0.0457	0.4152	0.6284	-0.208
Mof_N 	N 	0.1366	0.3014	0.6776	-0.181
Mof_N 	N 	0.1885	0.2823	0.7076	-0.17
Mof_N 	N 	0.2054	0.2187	0.6968	-0.191
Mof_N 	N 	0.1644	0.1961	0.6565	-0.204
Mof_N 	N 	0.9259	0.2487	0.489	-0.12
Mof_N 	N 	0.8653	0.2516	0.5045	-0.096
Mof_N 	N 	0.8619	0.2515	0.4176	-0.262
Mof_N 	N 	0.9076	0.9205	0.3863	-0.243
Mof_N 	N 	0.0108	0.9345	0.3923	-0.098
Mof_N 	N 	0.9932	0.9247	0.4392	-0.115
Mof_N 	N 	0.1764	0.8731	0.6523	-0.184
Mof_N 	N 	0.2177	0.8975	0.6925	-0.178
Mof_N 	N 	0.2229	0.9603	0.6857	-0.103
Mof_H 	H 	0.2473	0.986	0.7059	0.045
Mof_N 	N 	0.1889	0.9853	0.6457	-0.198
Mof_C 	C 	0.8875	0.4197	0.3445	0.129
Mof_C 	C 	0.9192	0.4235	0.3982	-0.208
Mof_C 	C 	0.8816	0.4286	0.4322	0.172
Mof_H 	H 	0.8395	0.4326	0.4211	-0.086
Mof_C 	C 	0.8996	0.4285	0.4876	-0.246
Mof_H 	H 	0.8724	0.4348	0.5132	0.12
Mof_C 	C 	0.9648	0.4176	0.4975	0.207
Mof_C 	C 	0.0017	0.4107	0.4616	-0.253
Mof_H 	H 	0.0442	0.4054	0.4702	0.113
Mof_C 	C 	0.9765	0.4113	0.4085	0.146
Mof_H 	H 	0.0018	0.403	0.3818	-0.034
Mof_C 	C 	0.9473	0.4276	0.5941	0.099
Mof_H 	H 	0.9048	0.437	0.5908	-0.016
Mof_C 	C 	0.0462	0.4129	0.5782	0.132
Mof_H 	H 	0.0817	0.4074	0.5607	-0.007
Mof_C 	C 	0.1245	0.2465	0.6487	0.135
Mof_C 	C 	0.0697	0.2458	0.6037	-0.089
Mof_C 	C 	0.0149	0.2455	0.6183	0.044
Mof_H 	H 	0.0089	0.2443	0.6536	-0.004
Mof_C 	C 	0.9612	0.2469	0.5787	-0.152
Mof_H 	H 	0.9204	0.2477	0.5875	0.092
Mof_C 	C 	0.9754	0.247	0.5279	0.166
Mof_C 	C 	0.0329	0.2489	0.5131	-0.169
Mof_H 	H 	0.0393	0.2488	0.4778	0.079
Mof_C 	C 	0.0854	0.2511	0.5527	0.029
Mof_H 	H 	0.1263	0.2556	0.5445	0.01
Mof_C 	C 	0.9273	0.253	0.4379	0.068
Mof_H 	H 	0.962	0.2562	0.4192	-0.026
Mof_C 	C 	0.8276	0.2534	0.4582	0.082
Mof_H 	H 	0.7844	0.2557	0.4555	-0.053
Mof_C 	C 	0.9603	0.9295	0.3595	0.071
Mof_H 	H 	0.9598	0.9317	0.3234	-0.006
Mof_C 	C 	0.9321	0.9139	0.4379	0.085
Mof_H 	H 	0.9099	0.9039	0.4663	-0.022
Mof_C 	C 	0.0311	0.926	0.4863	0.132
Mof_C 	C 	0.0099	0.907	0.533	-0.161
Mof_H 	H 	0.9688	0.8948	0.5365	0.079
Mof_C 	C 	0.0557	0.9079	0.5743	0.061
Mof_H 	H 	0.0434	0.892	0.6059	-0.019
Mof_C 	C 	0.1164	0.9286	0.5755	-0.099
Mof_C 	C 	0.139	0.9442	0.5292	0.02
Mof_H 	H 	0.1808	0.9556	0.5286	0.006
Mof_C 	C 	0.0988	0.9435	0.4811	-0.122
Mof_H 	H 	0.1135	0.9531	0.449	0.067
Mof_C 	C 	0.1588	0.9274	0.6235	0.12
Mof_O 	O 	0.264	0.1017	0.6765	-0.62
Mof_H 	H 	0.2961	0.0723	0.6686	0.178
Mof_O 	O 	0.1839	0.4098	0.7321	-0.61
Mof_H 	H 	0.1947	0.4527	0.747	0.183
Mof_O 	O 	0.7978	0.2402	0.2706	-0.668
Mof_H 	H 	0.8333	0.2216	0.254	0.105
Mof_K 	K 	0.4508	0.5599	0.4821	-5.402
Mof_O 	O 	0.475	0.531	0.48	2.702
Mof_P 	P 	0.5535	0.5996	0.6095	0.302
Mof_P 	P 	0.622	0.6051	0.4667	0.265
Mof_O 	O 	0.5747	0.525	0.5962	-0.18
Mof_O 	O 	0.624	0.5284	0.4896	0.255
Mof_O 	O 	0.6085	0.4883	0.4358	-0.355
Mof_P 	P 	0.5891	0.5447	0.3974	0.387
Mof_O 	O 	0.5528	0.6242	0.462	-0.054
Mof_W 	W 	0.28655	0.53376	0.49338	-1.093
Mof_O 	O 	0.3311	0.5956	0.5214	-2.962
Mof_O 	O 	0.3208	0.55	0.4275	0.979
Mof_W 	W 	0.3456	0.53659	0.36114	6.853
Mof_W 	W 	0.47483	0.66619	0.36664	-0.521
Mof_O 	O 	0.4124	0.616	0.3701	-1.854
Mof_O 	O 	0.473	0.697	0.4327	-2.041
Mof_O 	O 	0.4323	0.6982	0.5294	0.492
Mof_O 	O 	0.5222	0.5818	0.4078	0.05
Mof_O 	O 	0.5041	0.6202	0.5732	-0.051
Mof_W 	W 	0.31699	0.58352	0.55287	5.29
Mof_W 	W 	0.44441	0.71542	0.56417	0.97
Mof_W 	W 	0.50625	0.72081	0.43349	2.683
Mof_O 	O 	0.406	0.786	0.558	-0.345
Mof_O 	O 	0.4718	0.7991	0.4108	-0.488
Mof_W 	W 	0.73763	0.14948	0.97005	0.903
Mof_W 	W 	0.80003	0.14716	0.83689	1.06
Mof_W 	W 	0.92046	0.05951	0.76115	1.191
Mof_W 	W 	0.05342	0.92999	0.76756	1.044
Mof_W 	W 	0.1415	0.80117	0.85884	0.969
Mof_W 	W 	0.24412	0.92381	0.8931	1.417
Mof_W 	W 	0.15263	0.05417	0.80749	1.048
Mof_W 	W 	0.02169	0.18367	0.7966	0.986
Mof_W 	W 	0.90328	0.26918	0.87551	1.093
Mof_W 	W 	0.8369	0.27546	0.00636	1.161
Mof_O 	O 	0.7492	0.0529	0.9599	-0.091
Mof_O 	O 	0.7587	0.1727	0.8988	-0.409
Mof_O 	O 	0.8561	0.1145	0.7874	-0.553
Mof_O 	O 	0.8905	0.9863	0.7999	-1.518
Mof_O 	O 	0.9937	0.0032	0.7548	-0.479
Mof_O 	O 	0.9889	0.8888	0.8043	-0.651
Mof_O 	O 	0.1105	0.8657	0.7959	-0.447
Mof_O 	O 	0.0612	0.7917	0.8696	-0.539
Mof_O 	O 	0.2213	0.8427	0.8542	-0.503
Mof_O 	O 	0.1206	0.9899	0.7551	-0.466
Mof_O 	O 	0.9672	0.141	0.7433	-0.462
Mof_O 	O 	0.8853	0.1563	0.8925	-0.414
Mof_O 	O 	0.8312	0.2443	0.8375	-0.499
Mof_O 	O 	0.8424	0.1597	0.9899	-0.388
Mof_O 	O 	0.7533	0.247	0.9882	-0.444
Mof_O 	O 	0.8302	0.2442	0.0764	-0.476
Mof_O 	O 	0.8492	0.2838	0.9377	-0.501
Mof_O 	O 	0.9551	0.2349	0.8235	-0.449
Mof_O 	O 	0.0838	0.1176	0.7874	-0.455
Mof_O 	O 	0.2094	0.978	0.839	-0.533
Mof_O 	O 	0.2638	0.8726	0.9525	-0.435
Mof_O 	O 	0.3217	0.933	0.8815	-0.477
Mof_O 	O 	0.9238	0.2704	0.0254	-1.183
Mof_O 	O 	0.9733	0.2636	0.9224	-0.853
Mof_O 	O 	0.0611	0.1991	0.8666	-0.47
Mof_O 	O 	0.1641	0.0997	0.8703	-0.987
Mof_O 	O 	0.2336	0.0015	0.937	-0.87
Mof_O 	O 	0.9784	0.0916	0.8335	-0.399
Mof_O 	O 	0.1423	0.899	0.9099	-0.429
Mof_O 	O 	0.0778	0.9908	0.8424	-0.412
Mof_O 	O 	0.7975	0.053	0.8563	-1.022
Mof_W 	W 	0.91745	0.90486	0.8436	2.827
Mof_W 	W 	0.79722	0.99027	0.91859	-0.841
Mof_O 	O 	0.1232	0.146	0.9521	-0.235
Mof_O 	O 	0.0326	0.213	0.0003	-2.81
Mof_O 	O 	0.8548	0.937	0.8865	-4.169
Mof_P 	P 	0.8915	0.13	0.9539	0.33
Mof_P 	P 	0.0217	0.035	0.8679	0.257
Mof_O 	O 	0.9753	0.9795	0.8861	-0.14
Mof_O 	O 	0.0509	0.0775	0.9191	0.167
Mof_O 	O 	0.8764	0.0534	0.9477	0.003
Mof_O 	O 	0.9533	0.144	0.987	-0.149
Mof_W 	W 	0.11998	0.16064	0.92235	0.103
Mof_O 	O 	0.04	0.316	0.0124	-0.922
Mof_W 	W 	0.00225	0.24433	0.99976	4.769
Mof_O 	O 	0.9605	0.839	0.903	0.977
Mof_O 	O 	0.812	0.943	0.9827	1.163
Mof_Cu	Cu	0.38452	0.91587	0.81624	0.892
Mof_Cu	Cu	0.26329	0.83875	0.74147	0.881
Mof_Cu	Cu	0.22008	0.67093	0.77228	0.848
Mof_Cu	Cu	0.31998	0.5901	0.86089	0.856
Mof_Cu	Cu	0.66429	0.75356	0.15771	0.814
Mof_N 	N 	0.6413	0.8614	0.181	-0.222
Mof_N 	N 	0.6585	0.8846	0.2285	-0.18
Mof_N 	N 	0.6438	0.9476	0.2351	-0.128
Mof_H 	H 	0.6512	0.9702	0.2639	0.045
Mof_N 	N 	0.6133	0.9754	0.1887	-0.193
Mof_N 	N 	0.5107	0.9195	0.9447	-0.165
Mof_N 	N 	0.5167	0.9186	0.8667	-0.126
Mof_N 	N 	0.4543	0.9152	0.8716	-0.206
Mof_N 	N 	0.3634	0.8014	0.8224	-0.181
Mof_N 	N 	0.3115	0.7823	0.7924	-0.169
Mof_N 	N 	0.2946	0.7187	0.8032	-0.191
Mof_N 	N 	0.3356	0.6961	0.8435	-0.204
Mof_N 	N 	0.5741	0.7487	0.011	-0.126
Mof_N 	N 	0.6347	0.7516	0.9955	-0.088
Mof_N 	N 	0.6381	0.7515	0.0824	-0.262
Mof_N 	N 	0.5924	0.4205	0.1137	-0.244
Mof_N 	N 	0.4892	0.4345	0.1077	-0.104
Mof_N 	N 	0.5068	0.4247	0.0608	-0.112
Mof_N 	N 	0.3236	0.3731	0.8477	-0.185
Mof_N 	N 	0.2823	0.3975	0.8075	-0.179
Mof_N 	N 	0.2771	0.4603	0.8143	-0.104
Mof_H 	H 	0.2527	0.486	0.7941	0.044
Mof_N 	N 	0.3111	0.4853	0.8543	-0.199
Mof_C 	C 	0.6125	0.9197	0.1555	0.144
Mof_C 	C 	0.5808	0.9235	0.1018	-0.256
Mof_C 	C 	0.6184	0.9286	0.0678	0.222
Mof_H 	H 	0.6605	0.9326	0.0789	-0.103
Mof_C 	C 	0.6004	0.9285	0.0124	-0.303
Mof_H 	H 	0.6276	0.9348	0.9868	0.147
Mof_C 	C 	0.5352	0.9176	0.0025	0.237
Mof_C 	C 	0.4983	0.9107	0.0384	-0.301
Mof_H 	H 	0.4558	0.9054	0.0298	0.128
Mof_C 	C 	0.5235	0.9113	0.0915	0.203
Mof_H 	H 	0.4982	0.903	0.1182	-0.058
Mof_C 	C 	0.5527	0.9276	0.9059	0.102
Mof_H 	H 	0.5952	0.937	0.9092	-0.017
Mof_C 	C 	0.4538	0.9129	0.9218	0.137
Mof_H 	H 	0.4183	0.9074	0.9393	-0.008
Mof_C 	C 	0.3755	0.7465	0.8513	0.137
Mof_C 	C 	0.4303	0.7458	0.8963	-0.093
Mof_C 	C 	0.4851	0.7455	0.8817	0.054
Mof_H 	H 	0.4911	0.7443	0.8464	-0.005
Mof_C 	C 	0.5388	0.7469	0.9213	-0.163
Mof_H 	H 	0.5796	0.7477	0.9125	0.096
Mof_C 	C 	0.5246	0.747	0.9721	0.174
Mof_C 	C 	0.4671	0.7489	0.9869	-0.169
Mof_H 	H 	0.4607	0.7488	0.0222	0.077
Mof_C 	C 	0.4146	0.7511	0.9473	0.032
Mof_H 	H 	0.3737	0.7556	0.9555	0.008
Mof_C 	C 	0.5727	0.753	0.0621	0.069
Mof_H 	H 	0.538	0.7562	0.0808	-0.025
Mof_C 	C 	0.6724	0.7534	0.0418	0.074
Mof_H 	H 	0.7156	0.7557	0.0445	-0.056
Mof_C 	C 	0.5397	0.4295	0.1405	0.077
Mof_H 	H 	0.5402	0.4317	0.1766	-0.005
Mof_C 	C 	0.5679	0.4139	0.0621	0.085
Mof_H 	H 	0.5901	0.4039	0.0337	-0.023
Mof_C 	C 	0.4689	0.426	0.0137	0.127
Mof_C 	C 	0.4901	0.407	0.967	-0.158
Mof_H 	H 	0.5312	0.3948	0.9635	0.077
Mof_C 	C 	0.4443	0.4079	0.9257	0.055
Mof_H 	H 	0.4566	0.392	0.8941	-0.017
Mof_C 	C 	0.3836	0.4286	0.9245	-0.094
Mof_C 	C 	0.361	0.4442	0.9708	0.008
Mof_H 	H 	0.3192	0.4556	0.9714	0.007
Mof_C 	C 	0.4012	0.4435	0.0189	-0.11
Mof_H 	H 	0.3865	0.4531	0.051	0.064
Mof_C 	C 	0.3412	0.4274	0.8765	0.117
Mof_O 	O 	0.236	0.6017	0.8235	-0.62
Mof_H 	H 	0.2039	0.5723	0.8314	0.178
Mof_O 	O 	0.3161	0.9098	0.7679	-0.609
Mof_H 	H 	0.3053	0.9527	0.753	0.184
Mof_O 	O 	0.7022	0.7402	0.2294	-0.67
Mof_H 	H 	0.6667	0.7216	0.246	0.106
Mof_K 	K 	0.0492	0.0599	0.0179	-5.442
Mof_O 	O 	0.025	0.031	0.02	2.733
Mof_P 	P 	0.9465	0.0996	0.8905	0.302
Mof_P 	P 	0.878	0.1051	0.0333	0.255
Mof_O 	O 	0.9253	0.025	0.9038	-0.171
Mof_O 	O 	0.876	0.0284	0.0104	0.255
Mof_O 	O 	0.8915	0.9883	0.0642	-0.35
Mof_P 	P 	0.9109	0.0447	0.1026	0.391
Mof_O 	O 	0.9472	0.1242	0.038	-0.045
Mof_W 	W 	0.21345	0.03376	0.00662	-1.171
Mof_O 	O 	0.1689	0.0956	0.9786	-2.862
Mof_O 	O 	0.1792	0.05	0.0725	0.806
Mof_W 	W 	0.1544	0.03659	0.13886	6.556
Mof_W 	W 	0.02517	0.16619	0.13336	-0.203
Mof_O 	O 	0.0876	0.116	0.1299	-1.77
Mof_O 	O 	0.027	0.197	0.0673	-1.738
Mof_O 	O 	0.0677	0.1982	0.9706	0.359
Mof_O 	O 	0.9778	0.0818	0.0922	0.031
Mof_O 	O 	0.9959	0.1202	0.9268	-0.038
Mof_W 	W 	0.18301	0.08352	0.94713	5.134
Mof_W 	W 	0.05559	0.21542	0.93583	0.983
Mof_W 	W 	0.99375	0.22081	0.06651	2.337
Mof_O 	O 	0.094	0.286	0.942	-0.366
Mof_O 	O 	0.0282	0.2991	0.0892	-0.442
Mof_W 	W 	0.23763	0.35052	0.47005	0.898
Mof_W 	W 	0.30003	0.35284	0.33689	1.063
Mof_W 	W 	0.42046	0.44049	0.26115	1.205
Mof_W 	W 	0.55342	0.57001	0.26756	1.055
Mof_W 	W 	0.6415	0.69883	0.35884	0.971
Mof_W 	W 	0.74412	0.57619	0.3931	1.419
Mof_W 	W 	0.65263	0.44583	0.30749	1.053
Mof_W 	W 	0.52169	0.31633	0.2966	1.002
Mof_W 	W 	0.40328	0.23082	0.37551	1.103
Mof_W 	W 	0.3369	0.22454	0.50636	1.207
Mof_O 	O 	0.2492	0.4471	0.4599	-0.063
Mof_O 	O 	0.2587	0.3273	0.3988	-0.406
Mof_O 	O 	0.3561	0.3855	0.2874	-0.559
Mof_O 	O 	0.3905	0.5137	0.2999	-1.58
Mof_O 	O 	0.4937	0.4968	0.2548	-0.489
Mof_O 	O 	0.4889	0.6112	0.3043	-0.64
Mof_O 	O 	0.6105	0.6343	0.2959	-0.444
Mof_O 	O 	0.5612	0.7083	0.3696	-0.528
Mof_O 	O 	0.7213	0.6573	0.3542	-0.504
Mof_O 	O 	0.6206	0.5101	0.2551	-0.469
Mof_O 	O 	0.4672	0.359	0.2433	-0.471
Mof_O 	O 	0.3853	0.3437	0.3925	-0.418
Mof_O 	O 	0.3312	0.2557	0.3375	-0.501
Mof_O 	O 	0.3424	0.3403	0.4899	-0.402
Mof_O 	O 	0.2533	0.253	0.4882	-0.454
Mof_O 	O 	0.3302	0.2558	0.5764	-0.484
Mof_O 	O 	0.3492	0.2162	0.4377	-0.519
Mof_O 	O 	0.4551	0.2651	0.3235	-0.458
Mof_O 	O 	0.5838	0.3824	0.2874	-0.451
Mof_O 	O 	0.7094	0.522	0.339	-0.538
Mof_O 	O 	0.7638	0.6274	0.4525	-0.434
Mof_O 	O 	0.8217	0.567	0.3815	-0.48
Mof_O 	O 	0.4238	0.2296	0.5254	-1.287
Mof_O 	O 	0.4733	0.2364	0.4224	-0.915
Mof_O 	O 	0.5611	0.3009	0.3666	-0.414
Mof_O 	O 	0.6641	0.4003	0.3703	-0.965
Mof_O 	O 	0.7336	0.4985	0.437	-0.891
Mof_O 	O 	0.4784	0.4084	0.3335	-0.413
Mof_O 	O 	0.6423	0.601	0.4099	-0.433
Mof_O 	O 	0.5778	0.5092	0.3424	-0.416
Mof_O 	O 	0.2975	0.447	0.3563	-1.022
Mof_W 	W 	0.41745	0.59514	0.3436	2.994
Mof_W 	W 	0.29722	0.50973	0.41859	-1.122
Mof_O 	O 	0.6232	0.354	0.4521	0.014
Mof_O 	O 	0.5326	0.287	0.5003	-3.197
Mof_O 	O 	0.3548	0.563	0.3865	-4.375
Mof_P 	P 	0.3915	0.37	0.4539	0.332
Mof_P 	P 	0.5217	0.465	0.3679	0.284
Mof_O 	O 	0.4753	0.5205	0.3861	-0.171
Mof_O 	O 	0.5509	0.4225	0.4191	0.192
Mof_O 	O 	0.3764	0.4466	0.4477	0.017
Mof_O 	O 	0.4533	0.356	0.487	-0.186
Mof_W 	W 	0.61998	0.33936	0.42235	-0.31
Mof_O 	O 	0.54	0.184	0.5124	-1.032
Mof_W 	W 	0.50225	0.25567	0.49976	5.324
Mof_O 	O 	0.4605	0.661	0.403	1.229
Mof_O 	O 	0.312	0.557	0.4827	1.107
Mof_Cu	Cu	0.88452	0.58413	0.31624	0.891
Mof_Cu	Cu	0.76329	0.66125	0.24147	0.88
Mof_Cu	Cu	0.72008	0.82907	0.27228	0.848
Mof_Cu	Cu	0.81998	0.9099	0.36089	0.855
Mof_Cu	Cu	0.16429	0.74644	0.65771	0.815
Mof_N 	N 	0.1413	0.6386	0.681	-0.22
Mof_N 	N 	0.1585	0.6154	0.7285	-0.181
Mof_N 	N 	0.1438	0.5524	0.7351	-0.128
Mof_H 	H 	0.1512	0.5298	0.7639	0.045
Mof_N 	N 	0.1133	0.5246	0.6887	-0.189
Mof_N 	N 	0.0107	0.5805	0.4447	-0.161
Mof_N 	N 	0.0167	0.5814	0.3667	-0.122
Mof_N 	N 	0.9543	0.5848	0.3716	-0.208
Mof_N 	N 	0.8634	0.6986	0.3224	-0.181
Mof_N 	N 	0.8115	0.7177	0.2924	-0.17
Mof_N 	N 	0.7946	0.7813	0.3032	-0.191
Mof_N 	N 	0.8356	0.8039	0.3435	-0.204
Mof_N 	N 	0.0741	0.7513	0.511	-0.12
Mof_N 	N 	0.1347	0.7484	0.4955	-0.096
Mof_N 	N 	0.1381	0.7485	0.5824	-0.262
Mof_N 	N 	0.0924	0.0795	0.6137	-0.243
Mof_N 	N 	0.9892	0.0655	0.6077	-0.098
Mof_N 	N 	0.0068	0.0753	0.5608	-0.115
Mof_N 	N 	0.8236	0.1269	0.3477	-0.184
Mof_N 	N 	0.7823	0.1025	0.3075	-0.178
Mof_N 	N 	0.7771	0.0397	0.3143	-0.103
Mof_H 	H 	0.7527	0.014	0.2941	0.045
Mof_N 	N 	0.8111	0.0147	0.3543	-0.198
Mof_C 	C 	0.1125	0.5803	0.6555	0.129
Mof_C 	C 	0.0808	0.5765	0.6018	-0.208
Mof_C 	C 	0.1184	0.5714	0.5678	0.172
Mof_H 	H 	0.1605	0.5674	0.5789	-0.086
Mof_C 	C 	0.1004	0.5715	0.5124	-0.246
Mof_H 	H 	0.1276	0.5652	0.4868	0.12
Mof_C 	C 	0.0352	0.5824	0.5025	0.207
Mof_C 	C 	0.9983	0.5893	0.5384	-0.253
Mof_H 	H 	0.9558	0.5946	0.5298	0.113
Mof_C 	C 	0.0235	0.5887	0.5915	0.146
Mof_H 	H 	0.9982	0.597	0.6182	-0.034
Mof_C 	C 	0.0527	0.5724	0.4059	0.099
Mof_H 	H 	0.0952	0.563	0.4092	-0.016
Mof_C 	C 	0.9538	0.5871	0.4218	0.132
Mof_H 	H 	0.9183	0.5926	0.4393	-0.007
Mof_C 	C 	0.8755	0.7535	0.3513	0.135
Mof_C 	C 	0.9303	0.7542	0.3963	-0.089
Mof_C 	C 	0.9851	0.7545	0.3817	0.044
Mof_H 	H 	0.9911	0.7557	0.3464	-0.004
Mof_C 	C 	0.0388	0.7531	0.4213	-0.152
Mof_H 	H 	0.0796	0.7523	0.4125	0.092
Mof_C 	C 	0.0246	0.753	0.4721	0.166
Mof_C 	C 	0.9671	0.7511	0.4869	-0.169
Mof_H 	H 	0.9607	0.7512	0.5222	0.079
Mof_C 	C 	0.9146	0.7489	0.4473	0.029
Mof_H 	H 	0.8737	0.7444	0.4555	0.01
Mof_C 	C 	0.0727	0.747	0.5621	0.068
Mof_H 	H 	0.038	0.7438	0.5808	-0.026
Mof_C 	C 	0.1724	0.7466	0.5418	0.082
Mof_H 	H 	0.2156	0.7443	0.5445	-0.053
Mof_C 	C 	0.0397	0.0705	0.6405	0.071
Mof_H 	H 	0.0402	0.0683	0.6766	-0.006
Mof_C 	C 	0.0679	0.0861	0.5621	0.085
Mof_H 	H 	0.0901	0.0961	0.5337	-0.022
Mof_C 	C 	0.9689	0.074	0.5137	0.132
Mof_C 	C 	0.9901	0.093	0.467	-0.161
Mof_H 	H 	0.0312	0.1052	0.4635	0.079
Mof_C 	C 	0.9443	0.0921	0.4257	0.061
Mof_H 	H 	0.9566	0.108	0.3941	-0.019
Mof_C 	C 	0.8836	0.0714	0.4245	-0.099
Mof_C 	C 	0.861	0.0558	0.4708	0.02
Mof_H 	H 	0.8192	0.0444	0.4714	0.006
Mof_C 	C 	0.9012	0.0565	0.5189	-0.122
Mof_H 	H 	0.8865	0.0469	0.551	0.067
Mof_C 	C 	0.8412	0.0726	0.3765	0.12
Mof_O 	O 	0.736	0.8983	0.3235	-0.62
Mof_H 	H 	0.7039	0.9277	0.3314	0.178
Mof_O 	O 	0.8161	0.5902	0.2679	-0.61
Mof_H 	H 	0.8053	0.5473	0.253	0.183
Mof_O 	O 	0.2022	0.7598	0.7294	-0.668
Mof_H 	H 	0.1667	0.7784	0.746	0.105
Mof_K 	K 	0.5492	0.4401	0.5179	-5.402
Mof_O 	O 	0.525	0.469	0.52	2.702
Mof_P 	P 	0.4465	0.4004	0.3905	0.302
Mof_P 	P 	0.378	0.3949	0.5333	0.265
Mof_O 	O 	0.4253	0.475	0.4038	-0.18
Mof_O 	O 	0.376	0.4716	0.5104	0.255
Mof_O 	O 	0.3915	0.5117	0.5642	-0.355
Mof_P 	P 	0.4109	0.4553	0.6026	0.387
Mof_O 	O 	0.4472	0.3758	0.538	-0.054
Mof_W 	W 	0.71345	0.46624	0.50662	-1.093
Mof_O 	O 	0.6689	0.4044	0.4786	-2.962
Mof_O 	O 	0.6792	0.45	0.5725	0.979
Mof_W 	W 	0.6544	0.46341	0.63886	6.853
Mof_W 	W 	0.52517	0.33381	0.63336	-0.521
Mof_O 	O 	0.5876	0.384	0.6299	-1.854
Mof_O 	O 	0.527	0.303	0.5673	-2.041
Mof_O 	O 	0.5677	0.3018	0.4706	0.492
Mof_O 	O 	0.4778	0.4182	0.5922	0.05
Mof_O 	O 	0.4959	0.3798	0.4268	-0.051
Mof_W 	W 	0.68301	0.41648	0.44713	5.29
Mof_W 	W 	0.55559	0.28458	0.43583	0.97
Mof_W 	W 	0.49375	0.27919	0.56651	2.683
Mof_O 	O 	0.594	0.214	0.442	-0.345
Mof_O 	O 	0.5282	0.2009	0.5892	-0.488
Mof_W 	W 	0.26237	0.85052	0.02995	0.903
Mof_W 	W 	0.19997	0.85284	0.16311	1.06
Mof_W 	W 	0.07954	0.94049	0.23885	1.191
Mof_W 	W 	0.94658	0.07001	0.23244	1.044
Mof_W 	W 	0.8585	0.19883	0.14116	0.969
Mof_W 	W 	0.75588	0.07619	0.1069	1.417
Mof_W 	W 	0.84737	0.94583	0.19251	1.048
Mof_W 	W 	0.97831	0.81633	0.2034	0.986
Mof_W 	W 	0.09672	0.73082	0.12449	1.093
Mof_W 	W 	0.1631	0.72454	0.99364	1.161
Mof_O 	O 	0.2508	0.9471	0.0401	-0.091
Mof_O 	O 	0.2413	0.8273	0.1012	-0.409
Mof_O 	O 	0.1439	0.8855	0.2126	-0.553
Mof_O 	O 	0.1095	0.0137	0.2001	-1.518
Mof_O 	O 	0.0063	0.9968	0.2452	-0.479
Mof_O 	O 	0.0111	0.1112	0.1957	-0.651
Mof_O 	O 	0.8895	0.1343	0.2041	-0.447
Mof_O 	O 	0.9388	0.2083	0.1304	-0.539
Mof_O 	O 	0.7787	0.1573	0.1458	-0.503
Mof_O 	O 	0.8794	0.0101	0.2449	-0.466
Mof_O 	O 	0.0328	0.859	0.2567	-0.462
Mof_O 	O 	0.1147	0.8437	0.1075	-0.414
Mof_O 	O 	0.1688	0.7557	0.1625	-0.499
Mof_O 	O 	0.1576	0.8403	0.0101	-0.388
Mof_O 	O 	0.2467	0.753	0.0118	-0.444
Mof_O 	O 	0.1698	0.7558	0.9236	-0.476
Mof_O 	O 	0.1508	0.7162	0.0623	-0.501
Mof_O 	O 	0.0449	0.7651	0.1765	-0.449
Mof_O 	O 	0.9162	0.8824	0.2126	-0.455
Mof_O 	O 	0.7906	0.022	0.161	-0.533
Mof_O 	O 	0.7362	0.1274	0.0475	-0.435
Mof_O 	O 	0.6783	0.067	0.1185	-0.477
Mof_O 	O 	0.0762	0.7296	0.9746	-1.183
Mof_O 	O 	0.0267	0.7364	0.0776	-0.853
Mof_O 	O 	0.9389	0.8009	0.1334	-0.47
Mof_O 	O 	0.8359	0.9003	0.1297	-0.987
Mof_O 	O 	0.7664	0.9985	0.063	-0.87
Mof_O 	O 	0.0216	0.9084	0.1665	-0.399
Mof_O 	O 	0.8577	0.101	0.0901	-0.429
Mof_O 	O 	0.9222	0.0092	0.1576	-0.412
Mof_O 	O 	0.2025	0.947	0.1437	-1.022
Mof_W 	W 	0.08255	0.09514	0.1564	2.827
Mof_W 	W 	0.20278	0.00973	0.08141	-0.841
Mof_O 	O 	0.8768	0.854	0.0479	-0.235
Mof_O 	O 	0.9674	0.787	0.9997	-2.81
Mof_O 	O 	0.1452	0.063	0.1135	-4.169
Mof_P 	P 	0.1085	0.87	0.0461	0.33
Mof_P 	P 	0.9783	0.965	0.1321	0.257
Mof_O 	O 	0.0247	0.0205	0.1139	-0.14
Mof_O 	O 	0.9491	0.9225	0.0809	0.167
Mof_O 	O 	0.1236	0.9466	0.0523	0.003
Mof_O 	O 	0.0467	0.856	0.013	-0.149
Mof_W 	W 	0.88002	0.83936	0.07765	0.103
Mof_O 	O 	0.96	0.684	0.9876	-0.922
Mof_W 	W 	0.99775	0.75567	0.00024	4.769
Mof_O 	O 	0.0395	0.161	0.097	0.977
Mof_O 	O 	0.188	0.057	0.0173	1.163
Mof_Cu	Cu	0.61548	0.08413	0.18376	0.892
Mof_Cu	Cu	0.73671	0.16125	0.25853	0.881
Mof_Cu	Cu	0.77992	0.32907	0.22772	0.848
Mof_Cu	Cu	0.68002	0.4099	0.13911	0.856
Mof_Cu	Cu	0.33571	0.24644	0.84229	0.814
Mof_N 	N 	0.3587	0.1386	0.819	-0.222
Mof_N 	N 	0.3415	0.1154	0.7715	-0.18
Mof_N 	N 	0.3562	0.0524	0.7649	-0.128
Mof_H 	H 	0.3488	0.0298	0.7361	0.045
Mof_N 	N 	0.3867	0.0246	0.8113	-0.193
Mof_N 	N 	0.4893	0.0805	0.0553	-0.165
Mof_N 	N 	0.4833	0.0814	0.1333	-0.126
Mof_N 	N 	0.5457	0.0848	0.1284	-0.206
Mof_N 	N 	0.6366	0.1986	0.1776	-0.181
Mof_N 	N 	0.6885	0.2177	0.2076	-0.169
Mof_N 	N 	0.7054	0.2813	0.1968	-0.191
Mof_N 	N 	0.6644	0.3039	0.1565	-0.204
Mof_N 	N 	0.4259	0.2513	0.989	-0.126
Mof_N 	N 	0.3653	0.2484	0.0045	-0.088
Mof_N 	N 	0.3619	0.2485	0.9176	-0.262
Mof_N 	N 	0.4076	0.5795	0.8863	-0.244
Mof_N 	N 	0.5108	0.5655	0.8923	-0.104
Mof_N 	N 	0.4932	0.5753	0.9392	-0.112
Mof_N 	N 	0.6764	0.6269	0.1523	-0.185
Mof_N 	N 	0.7177	0.6025	0.1925	-0.179
Mof_N 	N 	0.7229	0.5397	0.1857	-0.104
Mof_H 	H 	0.7473	0.514	0.2059	0.044
Mof_N 	N 	0.6889	0.5147	0.1457	-0.199
Mof_C 	C 	0.3875	0.0803	0.8445	0.144
Mof_C 	C 	0.4192	0.0765	0.8982	-0.256
Mof_C 	C 	0.3816	0.0714	0.9322	0.222
Mof_H 	H 	0.3395	0.0674	0.9211	-0.103
Mof_C 	C 	0.3996	0.0715	0.9876	-0.303
Mof_H 	H 	0.3724	0.0652	0.0132	0.147
Mof_C 	C 	0.4648	0.0824	0.9975	0.237
Mof_C 	C 	0.5017	0.0893	0.9616	-0.301
Mof_H 	H 	0.5442	0.0946	0.9702	0.128
Mof_C 	C 	0.4765	0.0887	0.9085	0.203
Mof_H 	H 	0.5018	0.097	0.8818	-0.058
Mof_C 	C 	0.4473	0.0724	0.0941	0.102
Mof_H 	H 	0.4048	0.063	0.0908	-0.017
Mof_C 	C 	0.5462	0.0871	0.0782	0.137
Mof_H 	H 	0.5817	0.0926	0.0607	-0.008
Mof_C 	C 	0.6245	0.2535	0.1487	0.137
Mof_C 	C 	0.5697	0.2542	0.1037	-0.093
Mof_C 	C 	0.5149	0.2545	0.1183	0.054
Mof_H 	H 	0.5089	0.2557	0.1536	-0.005
Mof_C 	C 	0.4612	0.2531	0.0787	-0.163
Mof_H 	H 	0.4204	0.2523	0.0875	0.096
Mof_C 	C 	0.4754	0.253	0.0279	0.174
Mof_C 	C 	0.5329	0.2511	0.0131	-0.169
Mof_H 	H 	0.5393	0.2512	0.9778	0.077
Mof_C 	C 	0.5854	0.2489	0.0527	0.032
Mof_H 	H 	0.6263	0.2444	0.0445	0.008
Mof_C 	C 	0.4273	0.247	0.9379	0.069
Mof_H 	H 	0.462	0.2438	0.9192	-0.025
Mof_C 	C 	0.3276	0.2466	0.9582	0.074
Mof_H 	H 	0.2844	0.2443	0.9555	-0.056
Mof_C 	C 	0.4603	0.5705	0.8595	0.077
Mof_H 	H 	0.4598	0.5683	0.8234	-0.005
Mof_C 	C 	0.4321	0.5861	0.9379	0.085
Mof_H 	H 	0.4099	0.5961	0.9663	-0.023
Mof_C 	C 	0.5311	0.574	0.9863	0.127
Mof_C 	C 	0.5099	0.593	0.033	-0.158
Mof_H 	H 	0.4688	0.6052	0.0365	0.077
Mof_C 	C 	0.5557	0.5921	0.0743	0.055
Mof_H 	H 	0.5434	0.608	0.1059	-0.017
Mof_C 	C 	0.6164	0.5714	0.0755	-0.094
Mof_C 	C 	0.639	0.5558	0.0292	0.008
Mof_H 	H 	0.6808	0.5444	0.0286	0.007
Mof_C 	C 	0.5988	0.5565	0.9811	-0.11
Mof_H 	H 	0.6135	0.5469	0.949	0.064
Mof_C 	C 	0.6588	0.5726	0.1235	0.117
Mof_O 	O 	0.764	0.3983	0.1765	-0.62
Mof_H 	H 	0.7961	0.4277	0.1686	0.178
Mof_O 	O 	0.6839	0.0902	0.2321	-0.609
Mof_H 	H 	0.6947	0.0473	0.247	0.184
Mof_O 	O 	0.2978	0.2598	0.7706	-0.67
Mof_H 	H 	0.3333	0.2784	0.754	0.106
Mof_K 	K 	0.9508	0.9401	0.9821	-5.442
Mof_O 	O 	0.975	0.969	0.98	2.733
Mof_P 	P 	0.0535	0.9004	0.1095	0.302
Mof_P 	P 	0.122	0.8949	0.9667	0.255
Mof_O 	O 	0.0747	0.975	0.0962	-0.171
Mof_O 	O 	0.124	0.9716	0.9896	0.255
Mof_O 	O 	0.1085	0.0117	0.9358	-0.35
Mof_P 	P 	0.0891	0.9553	0.8974	0.391
Mof_O 	O 	0.0528	0.8758	0.962	-0.045
Mof_W 	W 	0.78655	0.96624	0.99338	-1.171
Mof_O 	O 	0.8311	0.9044	0.0214	-2.862
Mof_O 	O 	0.8208	0.95	0.9275	0.806
Mof_W 	W 	0.8456	0.96341	0.86114	6.556
Mof_W 	W 	0.97483	0.83381	0.86664	-0.203
Mof_O 	O 	0.9124	0.884	0.8701	-1.77
Mof_O 	O 	0.973	0.803	0.9327	-1.738
Mof_O 	O 	0.9323	0.8018	0.0294	0.359
Mof_O 	O 	0.0222	0.9182	0.9078	0.031
Mof_O 	O 	0.0041	0.8798	0.0732	-0.038
Mof_W 	W 	0.81699	0.91648	0.05287	5.134
Mof_W 	W 	0.94441	0.78458	0.06417	0.983
Mof_W 	W 	0.00625	0.77919	0.93349	2.337
Mof_O 	O 	0.906	0.714	0.058	-0.366
Mof_O 	O 	0.9718	0.7009	0.9108	-0.442
_end
