# CIF file generated by openbabel 3.1.0, see https://openbabel.org
data_I
_chemical_name_common 'image0'
_cell_length_a 19.2145
_cell_length_b 26.4088
_cell_length_c 17.7174
_cell_angle_alpha 90
_cell_angle_beta 118.431
_cell_angle_gamma 90
_space_group_name_H-M_alt 'P 1'
_space_group_name_Hall 'P 1'
loop_
    _symmetry_equiv_pos_as_xyz
    x,y,z
loop_
    _atom_site_label
    _atom_site_type_symbol
    _atom_site_fract_x
    _atom_site_fract_y
    _atom_site_fract_z
    _atom_site_occupancy
    Cd1      Cd       0.89816    0.63320    0.86642    1.000
    K1       K        0.69525    0.40755    0.28858    1.000
    O1       O        0.90480    0.59087    0.75920    1.000
    O2       O        0.78420    0.67092    0.77590    1.000
    O3       O        0.82440    0.40123    0.43050    1.000
    O4       O        0.94240    0.43331    0.46790    1.000
    O5       O        0.53160    0.83511    0.41420    1.000
    O6       O        0.86370    0.71020    0.73590    1.000
    O7       O        0.62670    0.33175    0.31810    1.000
    O8       O        0.46130    0.80777    0.47400    1.000
    O9       O        0.54910    0.29600    0.36120    1.000
    O10      O        0.80220    0.54800    0.74810    1.000
    C1       C        0.85440    0.55780    0.72720    1.000
    C2       C        0.79680    0.70190    0.72810    1.000
    C3       C        0.88050    0.43140    0.47450    1.000
    C4       C        0.82530    0.26150    0.51470    1.000
    H1       H        0.87610    0.26940    0.52470    1.000
    C5       C        0.68510    0.27460    0.43490    1.000
    C6       C        0.58720    0.75030    0.59460    1.000
    H2       H        0.53840    0.74740    0.59320    1.000
    C7       C        0.91990    0.53340    0.63930    1.000
    H3       H        0.95830    0.55810    0.66650    1.000
    C8       C        0.59490    0.77980    0.53480    1.000
    C9       C        0.65290    0.72470    0.65730    1.000
    H4       H        0.64780    0.70540    0.69820    1.000
    C10      C        0.86130    0.52920    0.66320    1.000
    C11      C        0.66830    0.78290    0.53560    1.000
    H5       H        0.67340    0.80220    0.49450    1.000
    C12      C        0.92590    0.50370    0.57800    1.000
    H6       H        0.96690    0.50910    0.56510    1.000
    C13      C        0.73290    0.75720    0.59760    1.000
    H7       H        0.78150    0.75950    0.59830    1.000
    C14      C        0.72610    0.72790    0.65910    1.000
    C15      C        0.87050    0.46600    0.53600    1.000
    C16      C        0.80820    0.45960    0.55390    1.000
    H8       H        0.77000    0.43510    0.52470    1.000
    C17      C        0.52530    0.80940    0.47000    1.000
    O11      O        0.45420    0.40890    0.32680    1.000
    C18      C        0.61570    0.30220    0.36720    1.000
    C19      C        0.76080    0.28590    0.44960    1.000
    H9       H        0.76840    0.30980    0.41570    1.000
    C20      C        0.80220    0.48940    0.61460    1.000
    H10      H        0.75990    0.48430    0.62550    1.000
    C21      C        0.56060    0.53090    0.55260    1.000
    H11      H        0.60280    0.55160    0.58800    1.000
    C22      C        0.50520    0.46880    0.43940    1.000
    C23      C        0.51520    0.43460    0.37440    1.000
    C24      C        0.56730    0.49990    0.49170    1.000
    H12      H        0.61340    0.50040    0.48670    1.000
    O12      O        0.57610    0.43140    0.37410    1.000
    Cd2      Cd       0.39816    0.13320    0.86642    1.000
    K2       K        0.19525    0.90755    0.28858    1.000
    O13      O        0.40480    0.09087    0.75920    1.000
    O14      O        0.28420    0.17092    0.77590    1.000
    O15      O        0.32440    0.90123    0.43050    1.000
    O16      O        0.44240    0.93331    0.46790    1.000
    O17      O        0.03160    0.33511    0.41420    1.000
    O18      O        0.36370    0.21020    0.73590    1.000
    O19      O        0.12670    0.83175    0.31810    1.000
    O20      O        0.96130    0.30777    0.47400    1.000
    O21      O        0.04910    0.79600    0.36120    1.000
    O22      O        0.30220    0.04800    0.74810    1.000
    C25      C        0.35440    0.05780    0.72720    1.000
    C26      C        0.29680    0.20190    0.72810    1.000
    C27      C        0.38050    0.93140    0.47450    1.000
    C28      C        0.32530    0.76150    0.51470    1.000
    H13      H        0.37610    0.76940    0.52470    1.000
    C29      C        0.18510    0.77460    0.43490    1.000
    C30      C        0.08720    0.25030    0.59460    1.000
    H14      H        0.03840    0.24740    0.59320    1.000
    C31      C        0.41990    0.03340    0.63930    1.000
    H15      H        0.45830    0.05810    0.66650    1.000
    C32      C        0.09490    0.27980    0.53480    1.000
    C33      C        0.15290    0.22470    0.65730    1.000
    H16      H        0.14780    0.20540    0.69820    1.000
    C34      C        0.36130    0.02920    0.66320    1.000
    C35      C        0.16830    0.28290    0.53560    1.000
    H17      H        0.17340    0.30220    0.49450    1.000
    C36      C        0.42590    0.00370    0.57800    1.000
    H18      H        0.46690    0.00910    0.56510    1.000
    C37      C        0.23290    0.25720    0.59760    1.000
    H19      H        0.28150    0.25950    0.59830    1.000
    C38      C        0.22610    0.22790    0.65910    1.000
    C39      C        0.37050    0.96600    0.53600    1.000
    C40      C        0.30820    0.95960    0.55390    1.000
    H20      H        0.27000    0.93510    0.52470    1.000
    C41      C        0.02530    0.30940    0.47000    1.000
    O23      O        0.95420    0.90890    0.32680    1.000
    C42      C        0.11570    0.80220    0.36720    1.000
    C43      C        0.26080    0.78590    0.44960    1.000
    H21      H        0.26840    0.80980    0.41570    1.000
    C44      C        0.30220    0.98940    0.61460    1.000
    H22      H        0.25990    0.98430    0.62550    1.000
    C45      C        0.06060    0.03090    0.55260    1.000
    H23      H        0.10280    0.05160    0.58800    1.000
    C46      C        0.00520    0.96880    0.43940    1.000
    C47      C        0.01520    0.93460    0.37440    1.000
    C48      C        0.06730    0.99990    0.49170    1.000
    H24      H        0.11340    0.00040    0.48670    1.000
    O24      O        0.07610    0.93140    0.37410    1.000
    Cd3      Cd       0.10184    0.63320    0.63358    1.000
    K3       K        0.30475    0.40755    0.21142    1.000
    O25      O        0.09520    0.59087    0.74080    1.000
    O26      O        0.21580    0.67092    0.72410    1.000
    O27      O        0.17560    0.40123    0.06950    1.000
    O28      O        0.05760    0.43331    0.03210    1.000
    O29      O        0.46840    0.83511    0.08580    1.000
    O30      O        0.13630    0.71020    0.76410    1.000
    O31      O        0.37330    0.33175    0.18190    1.000
    O32      O        0.53870    0.80777    0.02600    1.000
    O33      O        0.45090    0.29600    0.13880    1.000
    O34      O        0.19780    0.54800    0.75190    1.000
    C49      C        0.14560    0.55780    0.77280    1.000
    C50      C        0.20320    0.70190    0.77190    1.000
    C51      C        0.11950    0.43140    0.02550    1.000
    C52      C        0.17470    0.26150    0.98530    1.000
    H25      H        0.12390    0.26940    0.97530    1.000
    C53      C        0.31490    0.27460    0.06510    1.000
    C54      C        0.41280    0.75030    0.90540    1.000
    H26      H        0.46160    0.74740    0.90680    1.000
    C55      C        0.08010    0.53340    0.86070    1.000
    H27      H        0.04170    0.55810    0.83350    1.000
    C56      C        0.40510    0.77980    0.96520    1.000
    C57      C        0.34710    0.72470    0.84270    1.000
    H28      H        0.35220    0.70540    0.80180    1.000
    C58      C        0.13870    0.52920    0.83680    1.000
    C59      C        0.33170    0.78290    0.96440    1.000
    H29      H        0.32660    0.80220    0.00550    1.000
    C60      C        0.07410    0.50370    0.92200    1.000
    H30      H        0.03310    0.50910    0.93490    1.000
    C61      C        0.26710    0.75720    0.90240    1.000
    H31      H        0.21850    0.75950    0.90170    1.000
    C62      C        0.27390    0.72790    0.84090    1.000
    C63      C        0.12950    0.46600    0.96400    1.000
    C64      C        0.19180    0.45960    0.94610    1.000
    H32      H        0.23000    0.43510    0.97530    1.000
    C65      C        0.47470    0.80940    0.03000    1.000
    O35      O        0.54580    0.40890    0.17320    1.000
    C66      C        0.38430    0.30220    0.13280    1.000
    C67      C        0.23920    0.28590    0.05040    1.000
    H33      H        0.23160    0.30980    0.08430    1.000
    C68      C        0.19780    0.48940    0.88540    1.000
    H34      H        0.24010    0.48430    0.87450    1.000
    C69      C        0.43940    0.53090    0.94740    1.000
    H35      H        0.39720    0.55160    0.91200    1.000
    C70      C        0.49480    0.46880    0.06060    1.000
    C71      C        0.48480    0.43460    0.12560    1.000
    C72      C        0.43270    0.49990    0.00830    1.000
    H36      H        0.38660    0.50040    0.01330    1.000
    O36      O        0.42390    0.43140    0.12590    1.000
    Cd4      Cd       0.60184    0.13320    0.63358    1.000
    K4       K        0.80475    0.90755    0.21142    1.000
    O37      O        0.59520    0.09087    0.74080    1.000
    O38      O        0.71580    0.17092    0.72410    1.000
    O39      O        0.67560    0.90123    0.06950    1.000
    O40      O        0.55760    0.93331    0.03210    1.000
    O41      O        0.96840    0.33511    0.08580    1.000
    O42      O        0.63630    0.21020    0.76410    1.000
    O43      O        0.87330    0.83175    0.18190    1.000
    O44      O        0.03870    0.30777    0.02600    1.000
    O45      O        0.95090    0.79600    0.13880    1.000
    O46      O        0.69780    0.04800    0.75190    1.000
    C73      C        0.64560    0.05780    0.77280    1.000
    C74      C        0.70320    0.20190    0.77190    1.000
    C75      C        0.61950    0.93140    0.02550    1.000
    C76      C        0.67470    0.76150    0.98530    1.000
    H37      H        0.62390    0.76940    0.97530    1.000
    C77      C        0.81490    0.77460    0.06510    1.000
    C78      C        0.91280    0.25030    0.90540    1.000
    H38      H        0.96160    0.24740    0.90680    1.000
    C79      C        0.58010    0.03340    0.86070    1.000
    H39      H        0.54170    0.05810    0.83350    1.000
    C80      C        0.90510    0.27980    0.96520    1.000
    C81      C        0.84710    0.22470    0.84270    1.000
    H40      H        0.85220    0.20540    0.80180    1.000
    C82      C        0.63870    0.02920    0.83680    1.000
    C83      C        0.83170    0.28290    0.96440    1.000
    H41      H        0.82660    0.30220    0.00550    1.000
    C84      C        0.57410    0.00370    0.92200    1.000
    H42      H        0.53310    0.00910    0.93490    1.000
    C85      C        0.76710    0.25720    0.90240    1.000
    H43      H        0.71850    0.25950    0.90170    1.000
    C86      C        0.77390    0.22790    0.84090    1.000
    C87      C        0.62950    0.96600    0.96400    1.000
    C88      C        0.69180    0.95960    0.94610    1.000
    H44      H        0.73000    0.93510    0.97530    1.000
    C89      C        0.97470    0.30940    0.03000    1.000
    O47      O        0.04580    0.90890    0.17320    1.000
    C90      C        0.88430    0.80220    0.13280    1.000
    C91      C        0.73920    0.78590    0.05040    1.000
    H45      H        0.73160    0.80980    0.08430    1.000
    C92      C        0.69780    0.98940    0.88540    1.000
    H46      H        0.74010    0.98430    0.87450    1.000
    C93      C        0.93940    0.03090    0.94740    1.000
    H47      H        0.89720    0.05160    0.91200    1.000
    C94      C        0.99480    0.96880    0.06060    1.000
    C95      C        0.98480    0.93460    0.12560    1.000
    C96      C        0.93270    0.99990    0.00830    1.000
    H48      H        0.88660    0.00040    0.01330    1.000
    O48      O        0.92390    0.93140    0.12590    1.000
    Cd5      Cd       0.10184    0.36680    0.13358    1.000
    K5       K        0.30475    0.59245    0.71142    1.000
    O49      O        0.09520    0.40913    0.24080    1.000
    O50      O        0.21580    0.32908    0.22410    1.000
    O51      O        0.17560    0.59877    0.56950    1.000
    O52      O        0.05760    0.56669    0.53210    1.000
    O53      O        0.46840    0.16489    0.58580    1.000
    O54      O        0.13630    0.28980    0.26410    1.000
    O55      O        0.37330    0.66825    0.68190    1.000
    O56      O        0.53870    0.19223    0.52600    1.000
    O57      O        0.45090    0.70400    0.63880    1.000
    O58      O        0.19780    0.45200    0.25190    1.000
    C97      C        0.14560    0.44220    0.27280    1.000
    C98      C        0.20320    0.29810    0.27190    1.000
    C99      C        0.11950    0.56860    0.52550    1.000
    C100     C        0.17470    0.73850    0.48530    1.000
    H49      H        0.12390    0.73060    0.47530    1.000
    C101     C        0.31490    0.72540    0.56510    1.000
    C102     C        0.41280    0.24970    0.40540    1.000
    H50      H        0.46160    0.25260    0.40680    1.000
    C103     C        0.08010    0.46660    0.36070    1.000
    H51      H        0.04170    0.44190    0.33350    1.000
    C104     C        0.40510    0.22020    0.46520    1.000
    C105     C        0.34710    0.27530    0.34270    1.000
    H52      H        0.35220    0.29460    0.30180    1.000
    C106     C        0.13870    0.47080    0.33680    1.000
    C107     C        0.33170    0.21710    0.46440    1.000
    H53      H        0.32660    0.19780    0.50550    1.000
    C108     C        0.07410    0.49630    0.42200    1.000
    H54      H        0.03310    0.49090    0.43490    1.000
    C109     C        0.26710    0.24280    0.40240    1.000
    H55      H        0.21850    0.24050    0.40170    1.000
    C110     C        0.27390    0.27210    0.34090    1.000
    C111     C        0.12950    0.53400    0.46400    1.000
    C112     C        0.19180    0.54040    0.44610    1.000
    H56      H        0.23000    0.56490    0.47530    1.000
    C113     C        0.47470    0.19060    0.53000    1.000
    O59      O        0.54580    0.59110    0.67320    1.000
    C114     C        0.38430    0.69780    0.63280    1.000
    C115     C        0.23920    0.71410    0.55040    1.000
    H57      H        0.23160    0.69020    0.58430    1.000
    C116     C        0.19780    0.51060    0.38540    1.000
    H58      H        0.24010    0.51570    0.37450    1.000
    C117     C        0.43940    0.46910    0.44740    1.000
    H59      H        0.39720    0.44840    0.41200    1.000
    C118     C        0.49480    0.53120    0.56060    1.000
    C119     C        0.48480    0.56540    0.62560    1.000
    C120     C        0.43270    0.50010    0.50830    1.000
    H60      H        0.38660    0.49960    0.51330    1.000
    O60      O        0.42390    0.56860    0.62590    1.000
    Cd6      Cd       0.60184    0.86680    0.13358    1.000
    K6       K        0.80475    0.09245    0.71142    1.000
    O61      O        0.59520    0.90913    0.24080    1.000
    O62      O        0.71580    0.82908    0.22410    1.000
    O63      O        0.67560    0.09877    0.56950    1.000
    O64      O        0.55760    0.06669    0.53210    1.000
    O65      O        0.96840    0.66489    0.58580    1.000
    O66      O        0.63630    0.78980    0.26410    1.000
    O67      O        0.87330    0.16825    0.68190    1.000
    O68      O        0.03870    0.69223    0.52600    1.000
    O69      O        0.95090    0.20400    0.63880    1.000
    O70      O        0.69780    0.95200    0.25190    1.000
    C121     C        0.64560    0.94220    0.27280    1.000
    C122     C        0.70320    0.79810    0.27190    1.000
    C123     C        0.61950    0.06860    0.52550    1.000
    C124     C        0.67470    0.23850    0.48530    1.000
    H61      H        0.62390    0.23060    0.47530    1.000
    C125     C        0.81490    0.22540    0.56510    1.000
    C126     C        0.91280    0.74970    0.40540    1.000
    H62      H        0.96160    0.75260    0.40680    1.000
    C127     C        0.58010    0.96660    0.36070    1.000
    H63      H        0.54170    0.94190    0.33350    1.000
    C128     C        0.90510    0.72020    0.46520    1.000
    C129     C        0.84710    0.77530    0.34270    1.000
    H64      H        0.85220    0.79460    0.30180    1.000
    C130     C        0.63870    0.97080    0.33680    1.000
    C131     C        0.83170    0.71710    0.46440    1.000
    H65      H        0.82660    0.69780    0.50550    1.000
    C132     C        0.57410    0.99630    0.42200    1.000
    H66      H        0.53310    0.99090    0.43490    1.000
    C133     C        0.76710    0.74280    0.40240    1.000
    H67      H        0.71850    0.74050    0.40170    1.000
    C134     C        0.77390    0.77210    0.34090    1.000
    C135     C        0.62950    0.03400    0.46400    1.000
    C136     C        0.69180    0.04040    0.44610    1.000
    H68      H        0.73000    0.06490    0.47530    1.000
    C137     C        0.97470    0.69060    0.53000    1.000
    O71      O        0.04580    0.09110    0.67320    1.000
    C138     C        0.88430    0.19780    0.63280    1.000
    C139     C        0.73920    0.21410    0.55040    1.000
    H69      H        0.73160    0.19020    0.58430    1.000
    C140     C        0.69780    0.01060    0.38540    1.000
    H70      H        0.74010    0.01570    0.37450    1.000
    C141     C        0.93940    0.96910    0.44740    1.000
    H71      H        0.89720    0.94840    0.41200    1.000
    C142     C        0.99480    0.03120    0.56060    1.000
    C143     C        0.98480    0.06540    0.62560    1.000
    C144     C        0.93270    0.00010    0.50830    1.000
    H72      H        0.88660    0.99960    0.51330    1.000
    O72      O        0.92390    0.06860    0.62590    1.000
    Cd7      Cd       0.89816    0.36680    0.36642    1.000
    K7       K        0.69525    0.59245    0.78858    1.000
    O73      O        0.90480    0.40913    0.25920    1.000
    O74      O        0.78420    0.32908    0.27590    1.000
    O75      O        0.82440    0.59877    0.93050    1.000
    O76      O        0.94240    0.56669    0.96790    1.000
    O77      O        0.53160    0.16489    0.91420    1.000
    O78      O        0.86370    0.28980    0.23590    1.000
    O79      O        0.62670    0.66825    0.81810    1.000
    O80      O        0.46130    0.19223    0.97400    1.000
    O81      O        0.54910    0.70400    0.86120    1.000
    O82      O        0.80220    0.45200    0.24810    1.000
    C145     C        0.85440    0.44220    0.22720    1.000
    C146     C        0.79680    0.29810    0.22810    1.000
    C147     C        0.88050    0.56860    0.97450    1.000
    C148     C        0.82530    0.73850    0.01470    1.000
    H73      H        0.87610    0.73060    0.02470    1.000
    C149     C        0.68510    0.72540    0.93490    1.000
    C150     C        0.58720    0.24970    0.09460    1.000
    H74      H        0.53840    0.25260    0.09320    1.000
    C151     C        0.91990    0.46660    0.13930    1.000
    H75      H        0.95830    0.44190    0.16650    1.000
    C152     C        0.59490    0.22020    0.03480    1.000
    C153     C        0.65290    0.27530    0.15730    1.000
    H76      H        0.64780    0.29460    0.19820    1.000
    C154     C        0.86130    0.47080    0.16320    1.000
    C155     C        0.66830    0.21710    0.03560    1.000
    H77      H        0.67340    0.19780    0.99450    1.000
    C156     C        0.92590    0.49630    0.07800    1.000
    H78      H        0.96690    0.49090    0.06510    1.000
    C157     C        0.73290    0.24280    0.09760    1.000
    H79      H        0.78150    0.24050    0.09830    1.000
    C158     C        0.72610    0.27210    0.15910    1.000
    C159     C        0.87050    0.53400    0.03600    1.000
    C160     C        0.80820    0.54040    0.05390    1.000
    H80      H        0.77000    0.56490    0.02470    1.000
    C161     C        0.52530    0.19060    0.97000    1.000
    O83      O        0.45420    0.59110    0.82680    1.000
    C162     C        0.61570    0.69780    0.86720    1.000
    C163     C        0.76080    0.71410    0.94960    1.000
    H81      H        0.76840    0.69020    0.91570    1.000
    C164     C        0.80220    0.51060    0.11460    1.000
    H82      H        0.75990    0.51570    0.12550    1.000
    C165     C        0.56060    0.46910    0.05260    1.000
    H83      H        0.60280    0.44840    0.08800    1.000
    C166     C        0.50520    0.53120    0.93940    1.000
    C167     C        0.51520    0.56540    0.87440    1.000
    C168     C        0.56730    0.50010    0.99170    1.000
    H84      H        0.61340    0.49960    0.98670    1.000
    O84      O        0.57610    0.56860    0.87410    1.000
    Cd8      Cd       0.39816    0.86680    0.36642    1.000
    K8       K        0.19525    0.09245    0.78858    1.000
    O85      O        0.40480    0.90913    0.25920    1.000
    O86      O        0.28420    0.82908    0.27590    1.000
    O87      O        0.32440    0.09877    0.93050    1.000
    O88      O        0.44240    0.06669    0.96790    1.000
    O89      O        0.03160    0.66489    0.91420    1.000
    O90      O        0.36370    0.78980    0.23590    1.000
    O91      O        0.12670    0.16825    0.81810    1.000
    O92      O        0.96130    0.69223    0.97400    1.000
    O93      O        0.04910    0.20400    0.86120    1.000
    O94      O        0.30220    0.95200    0.24810    1.000
    C169     C        0.35440    0.94220    0.22720    1.000
    C170     C        0.29680    0.79810    0.22810    1.000
    C171     C        0.38050    0.06860    0.97450    1.000
    C172     C        0.32530    0.23850    0.01470    1.000
    H85      H        0.37610    0.23060    0.02470    1.000
    C173     C        0.18510    0.22540    0.93490    1.000
    C174     C        0.08720    0.74970    0.09460    1.000
    H86      H        0.03840    0.75260    0.09320    1.000
    C175     C        0.41990    0.96660    0.13930    1.000
    H87      H        0.45830    0.94190    0.16650    1.000
    C176     C        0.09490    0.72020    0.03480    1.000
    C177     C        0.15290    0.77530    0.15730    1.000
    H88      H        0.14780    0.79460    0.19820    1.000
    C178     C        0.36130    0.97080    0.16320    1.000
    C179     C        0.16830    0.71710    0.03560    1.000
    H89      H        0.17340    0.69780    0.99450    1.000
    C180     C        0.42590    0.99630    0.07800    1.000
    H90      H        0.46690    0.99090    0.06510    1.000
    C181     C        0.23290    0.74280    0.09760    1.000
    H91      H        0.28150    0.74050    0.09830    1.000
    C182     C        0.22610    0.77210    0.15910    1.000
    C183     C        0.37050    0.03400    0.03600    1.000
    C184     C        0.30820    0.04040    0.05390    1.000
    H92      H        0.27000    0.06490    0.02470    1.000
    C185     C        0.02530    0.69060    0.97000    1.000
    O95      O        0.95420    0.09110    0.82680    1.000
    C186     C        0.11570    0.19780    0.86720    1.000
    C187     C        0.26080    0.21410    0.94960    1.000
    H93      H        0.26840    0.19020    0.91570    1.000
    C188     C        0.30220    0.01060    0.11460    1.000
    H94      H        0.25990    0.01570    0.12550    1.000
    C189     C        0.06060    0.96910    0.05260    1.000
    H95      H        0.10280    0.94840    0.08800    1.000
    C190     C        0.00520    0.03120    0.93940    1.000
    C191     C        0.01520    0.06540    0.87440    1.000
    C192     C        0.06730    0.00010    0.99170    1.000
    H96      H        0.11340    0.99960    0.98670    1.000
    O96      O        0.07610    0.06860    0.87410    1.000
    Cd9      Cd       0.50000    0.36350    0.25000    1.000
    K9       K        0.50000    0.83051    0.25000    1.000
    Cd10     Cd       0.00000    0.86350    0.25000    1.000
    K10      K        0.00000    0.33051    0.25000    1.000
    Cd11     Cd       0.50000    0.63650    0.75000    1.000
    K11      K        0.50000    0.16949    0.75000    1.000
    Cd12     Cd       0.00000    0.13650    0.75000    1.000
    K12      K        0.00000    0.66949    0.75000    1.000
