data_functionalizedCrystal
_audit_creation_method	'EQeq! by Chris Wilmer'
_symmetry_space_group_name_H-M	'P1'
_symmetry_Int_Tables_number	1
_symmetry_cell_setting	triclinic
loop_
_symmetry_equiv_pos_as_xyz
  x,y,z
_cell_length_a	9.8636
_cell_length_b	9.8636
_cell_length_c	30.3529
_cell_angle_alpha	90
_cell_angle_beta	90
_cell_angle_gamma	90
loop_
_atom_site_label
_atom_site_type_symbol
_atom_site_fract_x
_atom_site_fract_y
_atom_site_fract_z
_atom_site_charge
Mof_Fe	Fe	0.2297	0.4206	0.0908	1.137
Mof_Fe	Fe	0.4072	0.9501	0.9887	1.221
Mof_P 	P 	0.4444	0.2219	0.1402	0.553
Mof_P 	P 	0.9702	0.6758	0.9443	0.565
Mof_P 	P 	0.3782	0.6552	0.0306	0.552
Mof_O 	O 	0.2942	0.3144	0.0398	-0.329
Mof_O 	O 	0.3108	0.5935	0.0707	-0.291
Mof_O 	O 	0.3923	0.3574	0.1228	-0.315
Mof_O 	O 	0.9779	0.6714	0.8945	-0.298
Mof_O 	O 	0.5997	0.2284	0.142	-0.31
Mof_F 	F 	0.0731	0.4929	0.0535	-0.535
Mof_O 	O 	0.331	0.8025	0.024	-0.329
Mof_O 	O 	0.0008	0.5334	0.9627	-0.289
Mof_O 	O 	0.0825	0.2636	0.9953	-0.286
Mof_O 	O 	0.3778	0.1926	0.1854	-0.283
Mof_F 	F 	0.817	0.565	0.0323	-0.514
Mof_O 	O 	0.8352	0.7363	0.9593	-0.293
Mof_O 	O 	0.5318	0.6446	0.0369	-0.325
Mof_O 	O 	0.3954	0.1017	0.1102	-0.156
Mof_O 	O 	0.076	0.7789	0.9641	-0.145
Mof_O 	O 	0.3345	0.5798	0.9868	-0.144
Mof_Fe	Fe	0.7703	0.5794	0.5908	1.141
Mof_Fe	Fe	0.5928	0.0499	0.4887	1.183
Mof_P 	P 	0.5556	0.7781	0.6402	0.553
Mof_P 	P 	0.0298	0.3242	0.4443	0.562
Mof_P 	P 	0.6218	0.3448	0.5306	0.57
Mof_O 	O 	0.7058	0.6856	0.5398	-0.328
Mof_O 	O 	0.6892	0.4065	0.5707	-0.291
Mof_O 	O 	0.6077	0.6426	0.6228	-0.316
Mof_O 	O 	0.0221	0.3286	0.3945	-0.301
Mof_O 	O 	0.4003	0.7716	0.642	-0.31
Mof_F 	F 	0.9269	0.5071	0.5535	-0.533
Mof_O 	O 	0.669	0.1975	0.524	-0.314
Mof_O 	O 	0.9992	0.4666	0.4627	-0.3
Mof_O 	O 	0.9175	0.7364	0.4953	-0.318
Mof_O 	O 	0.6222	0.8074	0.6854	-0.283
Mof_F 	F 	0.183	0.435	0.5323	-0.513
Mof_O 	O 	0.1648	0.2637	0.4593	-0.31
Mof_O 	O 	0.4682	0.3554	0.5369	-0.326
Mof_O 	O 	0.6046	0.8983	0.6102	-0.156
Mof_O 	O 	0.924	0.2211	0.4641	-0.151
Mof_O 	O 	0.6655	0.4202	0.4868	-0.164
Mof_Fe	Fe	0.0794	0.7297	0.8408	1.135
Mof_Fe	Fe	0.5499	0.9072	0.7387	1.184
Mof_P 	P 	0.2781	0.9444	0.8902	0.544
Mof_P 	P 	0.8242	0.4702	0.6943	0.571
Mof_P 	P 	0.8448	0.8782	0.7806	0.563
Mof_O 	O 	0.1856	0.7942	0.7898	-0.332
Mof_O 	O 	0.9065	0.8108	0.8207	-0.289
Mof_O 	O 	0.1426	0.8923	0.8728	-0.317
Mof_O 	O 	0.8286	0.4779	0.6445	-0.299
Mof_O 	O 	0.2716	0.0997	0.892	-0.302
Mof_F 	F 	0.0071	0.5731	0.8035	-0.54
Mof_O 	O 	0.6975	0.831	0.774	-0.315
Mof_O 	O 	0.9666	0.5008	0.7127	-0.302
Mof_O 	O 	0.2364	0.5825	0.7453	-0.325
Mof_O 	O 	0.3074	0.8778	0.9354	-0.284
Mof_F 	F 	0.935	0.317	0.7823	-0.508
Mof_O 	O 	0.7637	0.3352	0.7093	-0.308
Mof_O 	O 	0.8554	0.0318	0.7869	-0.318
Mof_O 	O 	0.3983	0.8954	0.8602	-0.159
Mof_O 	O 	0.7211	0.576	0.7141	-0.154
Mof_O 	O 	0.9202	0.8345	0.7368	-0.161
Mof_Fe	Fe	0.9206	0.2703	0.3408	1.139
Mof_Fe	Fe	0.4501	0.0928	0.2387	1.187
Mof_P 	P 	0.7219	0.0556	0.3902	0.546
Mof_P 	P 	0.1758	0.5298	0.1943	0.571
Mof_P 	P 	0.1552	0.1218	0.2806	0.565
Mof_O 	O 	0.8144	0.2058	0.2898	-0.331
Mof_O 	O 	0.0935	0.1892	0.3207	-0.291
Mof_O 	O 	0.8574	0.1077	0.3728	-0.317
Mof_O 	O 	0.1714	0.5221	0.1445	-0.299
Mof_O 	O 	0.7284	0.9003	0.392	-0.304
Mof_F 	F 	0.9929	0.4269	0.3035	-0.539
Mof_O 	O 	0.3025	0.169	0.274	-0.315
Mof_O 	O 	0.0334	0.4992	0.2127	-0.304
Mof_O 	O 	0.7636	0.4175	0.2453	-0.325
Mof_O 	O 	0.6926	0.1222	0.4354	-0.284
Mof_F 	F 	0.065	0.683	0.2823	-0.51
Mof_O 	O 	0.2363	0.6648	0.2093	-0.308
Mof_O 	O 	0.1446	0.9682	0.2869	-0.321
Mof_O 	O 	0.6017	0.1046	0.3602	-0.158
Mof_O 	O 	0.2789	0.424	0.2141	-0.154
Mof_O 	O 	0.0798	0.1655	0.2368	-0.162
Mof_Fe	Fe	0.2703	0.9206	0.6592	1.136
Mof_Fe	Fe	0.0928	0.4501	0.7613	1.184
Mof_P 	P 	0.0556	0.7219	0.6098	0.544
Mof_P 	P 	0.5298	0.1758	0.8057	0.571
Mof_P 	P 	0.1218	0.1552	0.7194	0.563
Mof_O 	O 	0.2058	0.8144	0.7102	-0.332
Mof_O 	O 	0.1892	0.0935	0.6793	-0.29
Mof_O 	O 	0.1077	0.8574	0.6272	-0.318
Mof_O 	O 	0.5221	0.1714	0.8555	-0.298
Mof_O 	O 	0.9003	0.7284	0.608	-0.303
Mof_F 	F 	0.4269	0.9929	0.6965	-0.54
Mof_O 	O 	0.169	0.3025	0.726	-0.315
Mof_O 	O 	0.4992	0.0334	0.7873	-0.302
Mof_O 	O 	0.4175	0.7636	0.7547	-0.325
Mof_O 	O 	0.1222	0.6926	0.5646	-0.284
Mof_F 	F 	0.683	0.065	0.7177	-0.509
Mof_O 	O 	0.6648	0.2363	0.7907	-0.308
Mof_O 	O 	0.9682	0.1446	0.7131	-0.318
Mof_O 	O 	0.1046	0.6017	0.6398	-0.159
Mof_O 	O 	0.424	0.2789	0.7859	-0.154
Mof_O 	O 	0.1655	0.0798	0.7632	-0.161
Mof_Fe	Fe	0.7297	0.0794	0.1592	1.139
Mof_Fe	Fe	0.9072	0.5499	0.2613	1.187
Mof_P 	P 	0.9444	0.2781	0.1098	0.545
Mof_P 	P 	0.4702	0.8242	0.3057	0.571
Mof_P 	P 	0.8782	0.8448	0.2194	0.565
Mof_O 	O 	0.7942	0.1856	0.2102	-0.331
Mof_O 	O 	0.8108	0.9065	0.1793	-0.291
Mof_O 	O 	0.8923	0.1426	0.1272	-0.317
Mof_O 	O 	0.4779	0.8286	0.3555	-0.299
Mof_O 	O 	0.0997	0.2716	0.108	-0.304
Mof_F 	F 	0.5731	0.0071	0.1965	-0.539
Mof_O 	O 	0.831	0.6975	0.226	-0.315
Mof_O 	O 	0.5008	0.9666	0.2873	-0.304
Mof_O 	O 	0.5825	0.2364	0.2547	-0.325
Mof_O 	O 	0.8778	0.3074	0.0646	-0.283
Mof_F 	F 	0.317	0.935	0.2177	-0.51
Mof_O 	O 	0.3352	0.7637	0.2907	-0.308
Mof_O 	O 	0.0318	0.8554	0.2131	-0.321
Mof_O 	O 	0.8954	0.3983	0.1398	-0.158
Mof_O 	O 	0.576	0.7211	0.2859	-0.154
Mof_O 	O 	0.8345	0.9202	0.2632	-0.162
Mof_Fe	Fe	0.4206	0.2297	0.9092	1.143
Mof_Fe	Fe	0.9501	0.4072	0.0113	1.137
Mof_P 	P 	0.2219	0.4444	0.8598	0.553
Mof_P 	P 	0.6758	0.9702	0.0557	0.564
Mof_P 	P 	0.6552	0.3782	0.9694	0.586
Mof_O 	O 	0.3144	0.2942	0.9602	-0.309
Mof_O 	O 	0.5935	0.3108	0.9293	-0.291
Mof_O 	O 	0.3574	0.3923	0.8772	-0.316
Mof_O 	O 	0.6714	0.9779	0.1055	-0.3
Mof_O 	O 	0.2284	0.5997	0.858	-0.31
Mof_F 	F 	0.4929	0.0731	0.9465	-0.53
Mof_O 	O 	0.8025	0.331	0.976	-0.296
Mof_O 	O 	0.5334	0.0008	0.0373	-0.314
Mof_O 	O 	0.2636	0.0825	0.0047	-0.333
Mof_O 	O 	0.1926	0.3778	0.8146	-0.283
Mof_F 	F 	0.565	0.817	0.9677	-0.501
Mof_O 	O 	0.7363	0.8352	0.0407	-0.311
Mof_O 	O 	0.6446	0.5318	0.9631	-0.312
Mof_O 	O 	0.1017	0.3954	0.8898	-0.155
Mof_O 	O 	0.7789	0.076	0.0359	-0.16
Mof_O 	O 	0.5798	0.3345	0.0132	-0.183
Mof_Fe	Fe	0.5794	0.7703	0.4092	1.141
Mof_Fe	Fe	0.0499	0.5928	0.5113	1.178
Mof_P 	P 	0.7781	0.5556	0.3598	0.553
Mof_P 	P 	0.3242	0.0298	0.5557	0.566
Mof_P 	P 	0.3448	0.6218	0.4694	0.57
Mof_O 	O 	0.6856	0.7058	0.4602	-0.328
Mof_O 	O 	0.4065	0.6892	0.4293	-0.291
Mof_O 	O 	0.6426	0.6077	0.3772	-0.316
Mof_O 	O 	0.3286	0.0221	0.6055	-0.299
Mof_O 	O 	0.7716	0.4003	0.358	-0.31
Mof_F 	F 	0.5071	0.9269	0.4465	-0.534
Mof_O 	O 	0.1975	0.669	0.476	-0.315
Mof_O 	O 	0.4666	0.9992	0.5373	-0.303
Mof_O 	O 	0.7364	0.9175	0.5047	-0.32
Mof_O 	O 	0.8074	0.6222	0.3146	-0.283
Mof_F 	F 	0.435	0.183	0.4677	-0.513
Mof_O 	O 	0.2637	0.1648	0.5407	-0.31
Mof_O 	O 	0.3554	0.4682	0.4631	-0.326
Mof_O 	O 	0.8983	0.6046	0.3898	-0.155
Mof_O 	O 	0.2211	0.924	0.5359	-0.153
Mof_O 	O 	0.4202	0.6655	0.5132	-0.164
Mof_Fe	Fe	0.6888	0.6888	-0	1.187
Mof_P 	P 	0.237	0.237	-0	0.556
Mof_Fe	Fe	0.3112	0.3112	0.5	1.23
Mof_P 	P 	0.763	0.763	0.5	0.593
Mof_Fe	Fe	0.8112	0.1888	0.75	1.232
Mof_P 	P 	0.263	0.737	0.75	0.592
Mof_Fe	Fe	0.1888	0.8112	0.25	1.231
Mof_P 	P 	0.737	0.263	0.25	0.593
_end
