data_functionalizedCrystal
_audit_creation_method	'EQeq! by Chris Wilmer'
_symmetry_space_group_name_H-M	'P1'
_symmetry_Int_Tables_number	1
_symmetry_cell_setting	triclinic
loop_
_symmetry_equiv_pos_as_xyz
  x,y,z
_cell_length_a	9.2252
_cell_length_b	10.627
_cell_length_c	10.807
_cell_angle_alpha	86.51
_cell_angle_beta	83.93
_cell_angle_gamma	81.22
loop_
_atom_site_label
_atom_site_type_symbol
_atom_site_fract_x
_atom_site_fract_y
_atom_site_fract_z
_atom_site_charge
Mof_Ce	Ce	0.03105	0.23995	0.71858	2.276
Mof_Ce	Ce	0.97759	0.32305	0.31373	2.696
Mof_C 	C 	0.1958	0.5322	0.4408	0.499
Mof_C 	C 	0.3549	0.5215	0.4717	-0.144
Mof_C 	C 	0.4557	0.5845	0.4026	0.059
Mof_H 	H 	0.4266	0.6428	0.339	-0.012
Mof_C 	C 	0.6035	0.5611	0.4276	-0.091
Mof_C 	C 	0.7185	0.6217	0.3488	0.381
Mof_C 	C 	0.2343	0.1492	0.4208	0.402
Mof_C 	C 	0.3725	0.0712	0.4627	-0.092
Mof_C 	C 	0.5059	0.0914	0.4027	0.028
Mof_H 	H 	0.5099	0.1533	0.3383	0.025
Mof_C 	C 	0.637	0.019	0.438	-0.113
Mof_C 	C 	0.7817	0.0468	0.3688	0.446
Mof_C 	C 	0.791	0.4923	0.8648	0.562
Mof_C 	C 	0.6424	0.4976	0.9429	-0.133
Mof_C 	C 	0.3792	0.5585	0.9387	-0.06
Mof_C 	C 	0.5219	0.5562	0.8829	0.013
Mof_H 	H 	0.5373	0.5946	0.8039	0.033
Mof_C 	C 	0.2537	0.6132	0.8642	0.303
Mof_O 	O 	0.1214	0.1762	0.5001	-0.642
Mof_O 	O 	0.232	0.183	0.3094	-0.539
Mof_O 	O 	0.2787	0.6744	0.7632	-0.494
Mof_O 	O 	0.127	0.5883	0.9	-0.497
Mof_O 	O 	0.8409	0.1337	0.4072	-0.562
Mof_O 	O 	0.8453	0.5923	0.8483	-0.604
Mof_O 	O 	0.1141	0.6397	0.4555	-0.721
Mof_O 	O 	0.6936	0.7346	0.3065	-0.49
Mof_O 	O 	0.8481	0.5576	0.3307	-0.681
Mof_O 	O 	0.8315	0.9842	0.2734	-0.607
Mof_O 	O 	0.1593	0.4363	0.4013	-0.582
Mof_O 	O 	0.8374	0.3879	0.8175	-0.658
Mof_Ce	Ce	0.96895	0.76005	0.28142	2.275
Mof_Ce	Ce	0.02241	0.67695	0.68627	2.695
Mof_C 	C 	0.8042	0.4678	0.5592	0.499
Mof_C 	C 	0.6451	0.4785	0.5283	-0.144
Mof_C 	C 	0.5443	0.4155	0.5974	0.059
Mof_H 	H 	0.5734	0.3572	0.661	-0.012
Mof_C 	C 	0.3965	0.4389	0.5724	-0.091
Mof_C 	C 	0.2815	0.3783	0.6512	0.381
Mof_C 	C 	0.7657	0.8508	0.5792	0.402
Mof_C 	C 	0.6275	0.9288	0.5373	-0.092
Mof_C 	C 	0.4941	0.9086	0.5973	0.028
Mof_H 	H 	0.4901	0.8467	0.6617	0.025
Mof_C 	C 	0.363	0.981	0.562	-0.113
Mof_C 	C 	0.2183	0.9532	0.6312	0.446
Mof_C 	C 	0.209	0.5077	0.1352	0.562
Mof_C 	C 	0.3576	0.5024	0.0571	-0.133
Mof_C 	C 	0.6208	0.4415	0.0613	-0.06
Mof_C 	C 	0.4781	0.4438	0.1171	0.013
Mof_H 	H 	0.4627	0.4054	0.1961	0.033
Mof_C 	C 	0.7463	0.3868	0.1358	0.303
Mof_O 	O 	0.8786	0.8238	0.4999	-0.642
Mof_O 	O 	0.768	0.817	0.6906	-0.539
Mof_O 	O 	0.7213	0.3256	0.2368	-0.494
Mof_O 	O 	0.873	0.4117	0.1	-0.497
Mof_O 	O 	0.1591	0.8663	0.5928	-0.562
Mof_O 	O 	0.1547	0.4077	0.1517	-0.604
Mof_O 	O 	0.8859	0.3603	0.5445	-0.721
Mof_O 	O 	0.3064	0.2654	0.6935	-0.49
Mof_O 	O 	0.1519	0.4424	0.6693	-0.681
Mof_O 	O 	0.1685	0.0158	0.7266	-0.607
Mof_O 	O 	0.8407	0.5637	0.5987	-0.582
Mof_O 	O 	0.1626	0.6121	0.1825	-0.658
_end
