data_functionalizedCrystal
_audit_creation_method	'EQeq! by Chris Wilmer'
_symmetry_space_group_name_H-M	'P1'
_symmetry_Int_Tables_number	1
_symmetry_cell_setting	triclinic
loop_
_symmetry_equiv_pos_as_xyz
  x,y,z
_cell_length_a	26.973
_cell_length_b	26.973
_cell_length_c	26.973
_cell_angle_alpha	90
_cell_angle_beta	90
_cell_angle_gamma	90
loop_
_atom_site_label
_atom_site_type_symbol
_atom_site_fract_x
_atom_site_fract_y
_atom_site_fract_z
_atom_site_charge
Mof_O 	O 	0.44761	0.05033	0.14877	-0.43
Mof_O 	O 	0.44835	0.0491	0.23118	-0.434
Mof_C 	C 	0.2945	0.14559	0.1975	0.034
Mof_C 	C 	0.43047	0.06206	0.1904	0.374
Mof_C 	C 	0.3598	0.1067	0.1492	0.035
Mof_H 	H 	0.373	0.0981	0.1181	0.018
Mof_C 	C 	0.3196	0.1298	0.2412	-0.112
Mof_H 	H 	0.3059	0.1368	0.2725	0.07
Mof_C 	C 	0.3153	0.1339	0.1518	-0.111
Mof_H 	H 	0.2995	0.1441	0.1225	0.056
Mof_C 	C 	0.3641	0.1042	0.2379	0.039
Mof_H 	H 	0.3807	0.0947	0.267	0.028
Mof_C 	C 	0.21655	0.1699	0.2417	-0.105
Mof_H 	H 	0.221	0.1428	0.2632	0.062
Mof_C 	C 	0.38438	0.09251	0.19228	-0.126
Mof_C 	C 	0.2496	0.1771	0.20233	0.035
Mof_O 	O 	0.55239	0.94967	0.14877	-0.386
Mof_O 	O 	0.55165	0.9509	0.23118	-0.39
Mof_C 	C 	0.7055	0.85441	0.1975	0.035
Mof_C 	C 	0.56953	0.93794	0.1904	0.369
Mof_C 	C 	0.6402	0.8933	0.1492	0.033
Mof_H 	H 	0.627	0.9019	0.1181	0.035
Mof_C 	C 	0.6804	0.8702	0.2412	-0.097
Mof_H 	H 	0.6941	0.8632	0.2725	0.072
Mof_C 	C 	0.6847	0.8661	0.1518	-0.097
Mof_H 	H 	0.7005	0.8559	0.1225	0.064
Mof_C 	C 	0.6359	0.8958	0.2379	0.035
Mof_H 	H 	0.6193	0.9053	0.267	0.043
Mof_C 	C 	0.78345	0.8301	0.2417	-0.11
Mof_H 	H 	0.779	0.8572	0.2632	0.075
Mof_C 	C 	0.61562	0.90749	0.19228	-0.103
Mof_C 	C 	0.7504	0.8229	0.20233	0.049
Mof_O 	O 	0.55239	0.05033	0.85123	-0.416
Mof_O 	O 	0.55165	0.0491	0.76882	-0.432
Mof_C 	C 	0.7055	0.14559	0.8025	0.036
Mof_C 	C 	0.56953	0.06206	0.8096	0.371
Mof_C 	C 	0.6402	0.1067	0.8508	0.036
Mof_H 	H 	0.627	0.0981	0.8819	0.035
Mof_C 	C 	0.6804	0.1298	0.7588	-0.108
Mof_H 	H 	0.6941	0.1368	0.7275	0.07
Mof_C 	C 	0.6847	0.1339	0.8482	-0.105
Mof_H 	H 	0.7005	0.1441	0.8775	0.072
Mof_C 	C 	0.6359	0.1042	0.7621	0.037
Mof_H 	H 	0.6193	0.0947	0.733	0.03
Mof_C 	C 	0.78345	0.1699	0.7583	-0.108
Mof_H 	H 	0.779	0.1428	0.7368	0.067
Mof_C 	C 	0.61562	0.09251	0.80772	-0.119
Mof_C 	C 	0.7504	0.1771	0.79767	0.046
Mof_O 	O 	0.44761	0.94967	0.85123	-0.374
Mof_O 	O 	0.44835	0.9509	0.76882	-0.389
Mof_C 	C 	0.2945	0.85441	0.8025	0.035
Mof_C 	C 	0.43047	0.93794	0.8096	0.366
Mof_C 	C 	0.3598	0.8933	0.8508	0.032
Mof_H 	H 	0.373	0.9019	0.8819	0.049
Mof_C 	C 	0.3196	0.8702	0.7588	-0.095
Mof_H 	H 	0.3059	0.8632	0.7275	0.071
Mof_C 	C 	0.3153	0.8661	0.8482	-0.093
Mof_H 	H 	0.2995	0.8559	0.8775	0.074
Mof_C 	C 	0.3641	0.8958	0.7621	0.033
Mof_H 	H 	0.3807	0.9053	0.733	0.044
Mof_C 	C 	0.21655	0.8301	0.7583	-0.109
Mof_H 	H 	0.221	0.8572	0.7368	0.074
Mof_C 	C 	0.38438	0.90749	0.80772	-0.098
Mof_C 	C 	0.2496	0.8229	0.79767	0.051
Mof_O 	O 	0.14877	0.44761	0.05033	-0.429
Mof_O 	O 	0.23118	0.44835	0.0491	-0.433
Mof_C 	C 	0.1975	0.2945	0.14559	0.035
Mof_C 	C 	0.1904	0.43047	0.06206	0.374
Mof_C 	C 	0.1492	0.3598	0.1067	0.035
Mof_H 	H 	0.1181	0.373	0.0981	0.018
Mof_C 	C 	0.2412	0.3196	0.1298	-0.112
Mof_H 	H 	0.2725	0.3059	0.1368	0.07
Mof_C 	C 	0.1518	0.3153	0.1339	-0.111
Mof_H 	H 	0.1225	0.2995	0.1441	0.056
Mof_C 	C 	0.2379	0.3641	0.1042	0.039
Mof_H 	H 	0.267	0.3807	0.0947	0.028
Mof_C 	C 	0.2417	0.21655	0.1699	-0.105
Mof_H 	H 	0.2632	0.221	0.1428	0.062
Mof_C 	C 	0.19228	0.38438	0.09251	-0.126
Mof_C 	C 	0.20233	0.2496	0.1771	0.035
Mof_O 	O 	0.14877	0.55239	0.94967	-0.386
Mof_O 	O 	0.23118	0.55165	0.9509	-0.39
Mof_C 	C 	0.1975	0.7055	0.85441	0.035
Mof_C 	C 	0.1904	0.56953	0.93794	0.369
Mof_C 	C 	0.1492	0.6402	0.8933	0.033
Mof_H 	H 	0.1181	0.627	0.9019	0.035
Mof_C 	C 	0.2412	0.6804	0.8702	-0.097
Mof_H 	H 	0.2725	0.6941	0.8632	0.072
Mof_C 	C 	0.1518	0.6847	0.8661	-0.097
Mof_H 	H 	0.1225	0.7005	0.8559	0.064
Mof_C 	C 	0.2379	0.6359	0.8958	0.035
Mof_H 	H 	0.267	0.6193	0.9053	0.043
Mof_C 	C 	0.2417	0.78345	0.8301	-0.11
Mof_H 	H 	0.2632	0.779	0.8572	0.075
Mof_C 	C 	0.19228	0.61562	0.90749	-0.103
Mof_C 	C 	0.20233	0.7504	0.8229	0.049
Mof_O 	O 	0.85123	0.55239	0.05033	-0.416
Mof_O 	O 	0.76882	0.55165	0.0491	-0.432
Mof_C 	C 	0.8025	0.7055	0.14559	0.036
Mof_C 	C 	0.8096	0.56953	0.06206	0.371
Mof_C 	C 	0.8508	0.6402	0.1067	0.036
Mof_H 	H 	0.8819	0.627	0.0981	0.035
Mof_C 	C 	0.7588	0.6804	0.1298	-0.108
Mof_H 	H 	0.7275	0.6941	0.1368	0.07
Mof_C 	C 	0.8482	0.6847	0.1339	-0.105
Mof_H 	H 	0.8775	0.7005	0.1441	0.072
Mof_C 	C 	0.7621	0.6359	0.1042	0.037
Mof_H 	H 	0.733	0.6193	0.0947	0.03
Mof_C 	C 	0.7583	0.78345	0.1699	-0.108
Mof_H 	H 	0.7368	0.779	0.1428	0.067
Mof_C 	C 	0.80772	0.61562	0.09251	-0.119
Mof_C 	C 	0.79767	0.7504	0.1771	0.046
Mof_O 	O 	0.85123	0.44761	0.94967	-0.374
Mof_O 	O 	0.76882	0.44835	0.9509	-0.389
Mof_C 	C 	0.8025	0.2945	0.85441	0.035
Mof_C 	C 	0.8096	0.43047	0.93794	0.366
Mof_C 	C 	0.8508	0.3598	0.8933	0.032
Mof_H 	H 	0.8819	0.373	0.9019	0.049
Mof_C 	C 	0.7588	0.3196	0.8702	-0.095
Mof_H 	H 	0.7275	0.3059	0.8632	0.071
Mof_C 	C 	0.8482	0.3153	0.8661	-0.093
Mof_H 	H 	0.8775	0.2995	0.8559	0.074
Mof_C 	C 	0.7621	0.3641	0.8958	0.033
Mof_H 	H 	0.733	0.3807	0.9053	0.044
Mof_C 	C 	0.7583	0.21655	0.8301	-0.109
Mof_H 	H 	0.7368	0.221	0.8572	0.074
Mof_C 	C 	0.80772	0.38438	0.90749	-0.098
Mof_C 	C 	0.79767	0.2496	0.8229	0.051
Mof_O 	O 	0.05033	0.14877	0.44761	-0.429
Mof_O 	O 	0.0491	0.23118	0.44835	-0.433
Mof_C 	C 	0.14559	0.1975	0.2945	0.035
Mof_C 	C 	0.06206	0.1904	0.43047	0.374
Mof_C 	C 	0.1067	0.1492	0.3598	0.035
Mof_H 	H 	0.0981	0.1181	0.373	0.018
Mof_C 	C 	0.1298	0.2412	0.3196	-0.112
Mof_H 	H 	0.1368	0.2725	0.3059	0.07
Mof_C 	C 	0.1339	0.1518	0.3153	-0.111
Mof_H 	H 	0.1441	0.1225	0.2995	0.056
Mof_C 	C 	0.1042	0.2379	0.3641	0.039
Mof_H 	H 	0.0947	0.267	0.3807	0.028
Mof_C 	C 	0.1699	0.2417	0.21655	-0.105
Mof_H 	H 	0.1428	0.2632	0.221	0.062
Mof_C 	C 	0.09251	0.19228	0.38438	-0.126
Mof_C 	C 	0.1771	0.20233	0.2496	0.035
Mof_O 	O 	0.94967	0.14877	0.55239	-0.386
Mof_O 	O 	0.9509	0.23118	0.55165	-0.39
Mof_C 	C 	0.85441	0.1975	0.7055	0.035
Mof_C 	C 	0.93794	0.1904	0.56953	0.369
Mof_C 	C 	0.8933	0.1492	0.6402	0.033
Mof_H 	H 	0.9019	0.1181	0.627	0.035
Mof_C 	C 	0.8702	0.2412	0.6804	-0.097
Mof_H 	H 	0.8632	0.2725	0.6941	0.072
Mof_C 	C 	0.8661	0.1518	0.6847	-0.097
Mof_H 	H 	0.8559	0.1225	0.7005	0.064
Mof_C 	C 	0.8958	0.2379	0.6359	0.035
Mof_H 	H 	0.9053	0.267	0.6193	0.043
Mof_C 	C 	0.8301	0.2417	0.78345	-0.11
Mof_H 	H 	0.8572	0.2632	0.779	0.075
Mof_C 	C 	0.90749	0.19228	0.61562	-0.103
Mof_C 	C 	0.8229	0.20233	0.7504	0.049
Mof_O 	O 	0.05033	0.85123	0.55239	-0.416
Mof_O 	O 	0.0491	0.76882	0.55165	-0.432
Mof_C 	C 	0.14559	0.8025	0.7055	0.036
Mof_C 	C 	0.06206	0.8096	0.56953	0.371
Mof_C 	C 	0.1067	0.8508	0.6402	0.036
Mof_H 	H 	0.0981	0.8819	0.627	0.035
Mof_C 	C 	0.1298	0.7588	0.6804	-0.108
Mof_H 	H 	0.1368	0.7275	0.6941	0.07
Mof_C 	C 	0.1339	0.8482	0.6847	-0.105
Mof_H 	H 	0.1441	0.8775	0.7005	0.072
Mof_C 	C 	0.1042	0.7621	0.6359	0.037
Mof_H 	H 	0.0947	0.733	0.6193	0.03
Mof_C 	C 	0.1699	0.7583	0.78345	-0.108
Mof_H 	H 	0.1428	0.7368	0.779	0.067
Mof_C 	C 	0.09251	0.80772	0.61562	-0.119
Mof_C 	C 	0.1771	0.79767	0.7504	0.046
Mof_O 	O 	0.94967	0.85123	0.44761	-0.374
Mof_O 	O 	0.9509	0.76882	0.44835	-0.389
Mof_C 	C 	0.85441	0.8025	0.2945	0.035
Mof_C 	C 	0.93794	0.8096	0.43047	0.366
Mof_C 	C 	0.8933	0.8508	0.3598	0.032
Mof_H 	H 	0.9019	0.8819	0.373	0.049
Mof_C 	C 	0.8702	0.7588	0.3196	-0.095
Mof_H 	H 	0.8632	0.7275	0.3059	0.071
Mof_C 	C 	0.8661	0.8482	0.3153	-0.093
Mof_H 	H 	0.8559	0.8775	0.2995	0.074
Mof_C 	C 	0.8958	0.7621	0.3641	0.033
Mof_H 	H 	0.9053	0.733	0.3807	0.044
Mof_C 	C 	0.8301	0.7583	0.21655	-0.109
Mof_H 	H 	0.8572	0.7368	0.221	0.074
Mof_C 	C 	0.90749	0.80772	0.38438	-0.098
Mof_C 	C 	0.8229	0.79767	0.2496	0.051
Mof_O 	O 	0.55239	0.94967	0.85123	-0.374
Mof_O 	O 	0.55165	0.9509	0.76882	-0.389
Mof_C 	C 	0.7055	0.85441	0.8025	0.036
Mof_C 	C 	0.56953	0.93794	0.8096	0.366
Mof_C 	C 	0.6402	0.8933	0.8508	0.033
Mof_H 	H 	0.627	0.9019	0.8819	0.05
Mof_C 	C 	0.6804	0.8702	0.7588	-0.094
Mof_H 	H 	0.6941	0.8632	0.7275	0.071
Mof_C 	C 	0.6847	0.8661	0.8482	-0.092
Mof_H 	H 	0.7005	0.8559	0.8775	0.077
Mof_C 	C 	0.6359	0.8958	0.7621	0.033
Mof_H 	H 	0.6193	0.9053	0.733	0.044
Mof_C 	C 	0.78345	0.8301	0.7583	-0.111
Mof_H 	H 	0.779	0.8572	0.7368	0.077
Mof_C 	C 	0.61562	0.90749	0.80772	-0.097
Mof_C 	C 	0.7504	0.8229	0.79767	0.056
Mof_O 	O 	0.44761	0.05033	0.85123	-0.417
Mof_O 	O 	0.44835	0.0491	0.76882	-0.432
Mof_C 	C 	0.2945	0.14559	0.8025	0.036
Mof_C 	C 	0.43047	0.06206	0.8096	0.371
Mof_C 	C 	0.3598	0.1067	0.8508	0.035
Mof_H 	H 	0.373	0.0981	0.8819	0.034
Mof_C 	C 	0.3196	0.1298	0.7588	-0.109
Mof_H 	H 	0.3059	0.1368	0.7275	0.07
Mof_C 	C 	0.3153	0.1339	0.8482	-0.106
Mof_H 	H 	0.2995	0.1441	0.8775	0.069
Mof_C 	C 	0.3641	0.1042	0.7621	0.037
Mof_H 	H 	0.3807	0.0947	0.733	0.029
Mof_C 	C 	0.21655	0.1699	0.7583	-0.106
Mof_H 	H 	0.221	0.1428	0.7368	0.064
Mof_C 	C 	0.38438	0.09251	0.80772	-0.119
Mof_C 	C 	0.2496	0.1771	0.79767	0.042
Mof_O 	O 	0.44761	0.94967	0.14877	-0.387
Mof_O 	O 	0.44835	0.9509	0.23118	-0.39
Mof_C 	C 	0.2945	0.85441	0.1975	0.034
Mof_C 	C 	0.43047	0.93794	0.1904	0.369
Mof_C 	C 	0.3598	0.8933	0.1492	0.032
Mof_H 	H 	0.373	0.9019	0.1181	0.034
Mof_C 	C 	0.3196	0.8702	0.2412	-0.098
Mof_H 	H 	0.3059	0.8632	0.2725	0.071
Mof_C 	C 	0.3153	0.8661	0.1518	-0.098
Mof_H 	H 	0.2995	0.8559	0.1225	0.061
Mof_C 	C 	0.3641	0.8958	0.2379	0.035
Mof_H 	H 	0.3807	0.9053	0.267	0.042
Mof_C 	C 	0.21655	0.8301	0.2417	-0.108
Mof_H 	H 	0.221	0.8572	0.2632	0.071
Mof_C 	C 	0.38438	0.90749	0.19228	-0.104
Mof_C 	C 	0.2496	0.8229	0.20233	0.044
Mof_O 	O 	0.55239	0.05033	0.14877	-0.429
Mof_O 	O 	0.55165	0.0491	0.23118	-0.433
Mof_C 	C 	0.7055	0.14559	0.1975	0.036
Mof_C 	C 	0.56953	0.06206	0.1904	0.374
Mof_C 	C 	0.6402	0.1067	0.1492	0.036
Mof_H 	H 	0.627	0.0981	0.1181	0.019
Mof_C 	C 	0.6804	0.1298	0.2412	-0.111
Mof_H 	H 	0.6941	0.1368	0.2725	0.07
Mof_C 	C 	0.6847	0.1339	0.1518	-0.11
Mof_H 	H 	0.7005	0.1441	0.1225	0.059
Mof_C 	C 	0.6359	0.1042	0.2379	0.039
Mof_H 	H 	0.6193	0.0947	0.267	0.029
Mof_C 	C 	0.78345	0.1699	0.2417	-0.107
Mof_H 	H 	0.779	0.1428	0.2632	0.065
Mof_C 	C 	0.61562	0.09251	0.19228	-0.125
Mof_C 	C 	0.7504	0.1771	0.20233	0.04
Mof_O 	O 	0.85123	0.55239	0.94967	-0.374
Mof_O 	O 	0.76882	0.55165	0.9509	-0.389
Mof_C 	C 	0.8025	0.7055	0.85441	0.036
Mof_C 	C 	0.8096	0.56953	0.93794	0.366
Mof_C 	C 	0.8508	0.6402	0.8933	0.033
Mof_H 	H 	0.8819	0.627	0.9019	0.05
Mof_C 	C 	0.7588	0.6804	0.8702	-0.094
Mof_H 	H 	0.7275	0.6941	0.8632	0.071
Mof_C 	C 	0.8482	0.6847	0.8661	-0.092
Mof_H 	H 	0.8775	0.7005	0.8559	0.077
Mof_C 	C 	0.7621	0.6359	0.8958	0.033
Mof_H 	H 	0.733	0.6193	0.9053	0.044
Mof_C 	C 	0.7583	0.78345	0.8301	-0.111
Mof_H 	H 	0.7368	0.779	0.8572	0.077
Mof_C 	C 	0.80772	0.61562	0.90749	-0.097
Mof_C 	C 	0.79767	0.7504	0.8229	0.056
Mof_O 	O 	0.85123	0.44761	0.05033	-0.417
Mof_O 	O 	0.76882	0.44835	0.0491	-0.432
Mof_C 	C 	0.8025	0.2945	0.14559	0.036
Mof_C 	C 	0.8096	0.43047	0.06206	0.371
Mof_C 	C 	0.8508	0.3598	0.1067	0.035
Mof_H 	H 	0.8819	0.373	0.0981	0.034
Mof_C 	C 	0.7588	0.3196	0.1298	-0.109
Mof_H 	H 	0.7275	0.3059	0.1368	0.07
Mof_C 	C 	0.8482	0.3153	0.1339	-0.106
Mof_H 	H 	0.8775	0.2995	0.1441	0.069
Mof_C 	C 	0.7621	0.3641	0.1042	0.037
Mof_H 	H 	0.733	0.3807	0.0947	0.029
Mof_C 	C 	0.7583	0.21655	0.1699	-0.106
Mof_H 	H 	0.7368	0.221	0.1428	0.064
Mof_C 	C 	0.80772	0.38438	0.09251	-0.119
Mof_C 	C 	0.79767	0.2496	0.1771	0.042
Mof_O 	O 	0.14877	0.44761	0.94967	-0.387
Mof_O 	O 	0.23118	0.44835	0.9509	-0.39
Mof_C 	C 	0.1975	0.2945	0.85441	0.034
Mof_C 	C 	0.1904	0.43047	0.93794	0.369
Mof_C 	C 	0.1492	0.3598	0.8933	0.032
Mof_H 	H 	0.1181	0.373	0.9019	0.034
Mof_C 	C 	0.2412	0.3196	0.8702	-0.098
Mof_H 	H 	0.2725	0.3059	0.8632	0.071
Mof_C 	C 	0.1518	0.3153	0.8661	-0.098
Mof_H 	H 	0.1225	0.2995	0.8559	0.061
Mof_C 	C 	0.2379	0.3641	0.8958	0.035
Mof_H 	H 	0.267	0.3807	0.9053	0.042
Mof_C 	C 	0.2417	0.21655	0.8301	-0.108
Mof_H 	H 	0.2632	0.221	0.8572	0.071
Mof_C 	C 	0.19228	0.38438	0.90749	-0.104
Mof_C 	C 	0.20233	0.2496	0.8229	0.044
Mof_O 	O 	0.14877	0.55239	0.05033	-0.429
Mof_O 	O 	0.23118	0.55165	0.0491	-0.433
Mof_C 	C 	0.1975	0.7055	0.14559	0.036
Mof_C 	C 	0.1904	0.56953	0.06206	0.374
Mof_C 	C 	0.1492	0.6402	0.1067	0.036
Mof_H 	H 	0.1181	0.627	0.0981	0.019
Mof_C 	C 	0.2412	0.6804	0.1298	-0.111
Mof_H 	H 	0.2725	0.6941	0.1368	0.07
Mof_C 	C 	0.1518	0.6847	0.1339	-0.11
Mof_H 	H 	0.1225	0.7005	0.1441	0.059
Mof_C 	C 	0.2379	0.6359	0.1042	0.039
Mof_H 	H 	0.267	0.6193	0.0947	0.029
Mof_C 	C 	0.2417	0.78345	0.1699	-0.107
Mof_H 	H 	0.2632	0.779	0.1428	0.065
Mof_C 	C 	0.19228	0.61562	0.09251	-0.125
Mof_C 	C 	0.20233	0.7504	0.1771	0.04
Mof_O 	O 	0.94967	0.85123	0.55239	-0.374
Mof_O 	O 	0.9509	0.76882	0.55165	-0.389
Mof_C 	C 	0.85441	0.8025	0.7055	0.036
Mof_C 	C 	0.93794	0.8096	0.56953	0.366
Mof_C 	C 	0.8933	0.8508	0.6402	0.033
Mof_H 	H 	0.9019	0.8819	0.627	0.05
Mof_C 	C 	0.8702	0.7588	0.6804	-0.094
Mof_H 	H 	0.8632	0.7275	0.6941	0.071
Mof_C 	C 	0.8661	0.8482	0.6847	-0.092
Mof_H 	H 	0.8559	0.8775	0.7005	0.077
Mof_C 	C 	0.8958	0.7621	0.6359	0.033
Mof_H 	H 	0.9053	0.733	0.6193	0.044
Mof_C 	C 	0.8301	0.7583	0.78345	-0.111
Mof_H 	H 	0.8572	0.7368	0.779	0.077
Mof_C 	C 	0.90749	0.80772	0.61562	-0.097
Mof_C 	C 	0.8229	0.79767	0.7504	0.056
Mof_O 	O 	0.05033	0.85123	0.44761	-0.417
Mof_O 	O 	0.0491	0.76882	0.44835	-0.432
Mof_C 	C 	0.14559	0.8025	0.2945	0.036
Mof_C 	C 	0.06206	0.8096	0.43047	0.371
Mof_C 	C 	0.1067	0.8508	0.3598	0.035
Mof_H 	H 	0.0981	0.8819	0.373	0.034
Mof_C 	C 	0.1298	0.7588	0.3196	-0.109
Mof_H 	H 	0.1368	0.7275	0.3059	0.07
Mof_C 	C 	0.1339	0.8482	0.3153	-0.106
Mof_H 	H 	0.1441	0.8775	0.2995	0.069
Mof_C 	C 	0.1042	0.7621	0.3641	0.037
Mof_H 	H 	0.0947	0.733	0.3807	0.029
Mof_C 	C 	0.1699	0.7583	0.21655	-0.106
Mof_H 	H 	0.1428	0.7368	0.221	0.064
Mof_C 	C 	0.09251	0.80772	0.38438	-0.119
Mof_C 	C 	0.1771	0.79767	0.2496	0.042
Mof_O 	O 	0.94967	0.14877	0.44761	-0.387
Mof_O 	O 	0.9509	0.23118	0.44835	-0.39
Mof_C 	C 	0.85441	0.1975	0.2945	0.034
Mof_C 	C 	0.93794	0.1904	0.43047	0.369
Mof_C 	C 	0.8933	0.1492	0.3598	0.032
Mof_H 	H 	0.9019	0.1181	0.373	0.034
Mof_C 	C 	0.8702	0.2412	0.3196	-0.098
Mof_H 	H 	0.8632	0.2725	0.3059	0.071
Mof_C 	C 	0.8661	0.1518	0.3153	-0.098
Mof_H 	H 	0.8559	0.1225	0.2995	0.061
Mof_C 	C 	0.8958	0.2379	0.3641	0.035
Mof_H 	H 	0.9053	0.267	0.3807	0.042
Mof_C 	C 	0.8301	0.2417	0.21655	-0.108
Mof_H 	H 	0.8572	0.2632	0.221	0.071
Mof_C 	C 	0.90749	0.19228	0.38438	-0.104
Mof_C 	C 	0.8229	0.20233	0.2496	0.044
Mof_O 	O 	0.05033	0.14877	0.55239	-0.429
Mof_O 	O 	0.0491	0.23118	0.55165	-0.433
Mof_C 	C 	0.14559	0.1975	0.7055	0.036
Mof_C 	C 	0.06206	0.1904	0.56953	0.374
Mof_C 	C 	0.1067	0.1492	0.6402	0.036
Mof_H 	H 	0.0981	0.1181	0.627	0.019
Mof_C 	C 	0.1298	0.2412	0.6804	-0.111
Mof_H 	H 	0.1368	0.2725	0.6941	0.07
Mof_C 	C 	0.1339	0.1518	0.6847	-0.11
Mof_H 	H 	0.1441	0.1225	0.7005	0.059
Mof_C 	C 	0.1042	0.2379	0.6359	0.039
Mof_H 	H 	0.0947	0.267	0.6193	0.029
Mof_C 	C 	0.1699	0.2417	0.78345	-0.107
Mof_H 	H 	0.1428	0.2632	0.779	0.065
Mof_C 	C 	0.09251	0.19228	0.61562	-0.125
Mof_C 	C 	0.1771	0.20233	0.7504	0.04
Mof_Cu	Cu	0.5	0	0.14412	0.874
Mof_Cu	Cu	0.5	-2.57272e-33	0.24011	0.882
Mof_Cu	Cu	0.5	0	0.85588	0.88
Mof_Cu	Cu	0.5	0	0.75989	0.881
Mof_Cu	Cu	0.14412	0.5	-0	0.874
Mof_Cu	Cu	0.24011	0.5	-0	0.882
Mof_Cu	Cu	0.85588	0.5	-0	0.88
Mof_Cu	Cu	0.75989	0.5	-0	0.881
Mof_Cu	Cu	1.8747e-33	0.14412	0.5	0.874
Mof_Cu	Cu	-3.27074e-33	0.24011	0.5	0.882
Mof_Cu	Cu	-3.27074e-33	0.85588	0.5	0.88
Mof_Cu	Cu	-3.27074e-33	0.75989	0.5	0.881
Mof_O 	O 	0.94761	0.55033	0.64877	-0.379
Mof_O 	O 	0.94835	0.5491	0.73118	-0.388
Mof_C 	C 	0.7945	0.64559	0.6975	0.031
Mof_C 	C 	0.93047	0.56206	0.6904	0.365
Mof_C 	C 	0.8598	0.6067	0.6492	0.028
Mof_H 	H 	0.873	0.5981	0.6181	0.04
Mof_C 	C 	0.8196	0.6298	0.7412	-0.096
Mof_H 	H 	0.8059	0.6368	0.7725	0.069
Mof_C 	C 	0.8153	0.6339	0.6518	-0.096
Mof_H 	H 	0.7995	0.6441	0.6225	0.065
Mof_C 	C 	0.8641	0.6042	0.7379	0.03
Mof_H 	H 	0.8807	0.5947	0.767	0.043
Mof_C 	C 	0.71655	0.6699	0.7417	-0.111
Mof_H 	H 	0.721	0.6428	0.7632	0.07
Mof_C 	C 	0.88438	0.59251	0.69228	-0.1
Mof_C 	C 	0.7496	0.6771	0.70233	0.048
Mof_O 	O 	0.05239	0.44967	0.64877	-0.423
Mof_O 	O 	0.05165	0.4509	0.73118	-0.432
Mof_C 	C 	0.2055	0.35441	0.6975	0.038
Mof_C 	C 	0.06953	0.43794	0.6904	0.375
Mof_C 	C 	0.1402	0.3933	0.6492	0.038
Mof_H 	H 	0.127	0.4019	0.6181	0.028
Mof_C 	C 	0.1804	0.3702	0.7412	-0.108
Mof_H 	H 	0.1941	0.3632	0.7725	0.071
Mof_C 	C 	0.1847	0.3661	0.6518	-0.106
Mof_H 	H 	0.2005	0.3559	0.6225	0.067
Mof_C 	C 	0.1359	0.3958	0.7379	0.04
Mof_H 	H 	0.1193	0.4053	0.767	0.031
Mof_C 	C 	0.28345	0.3301	0.7417	-0.107
Mof_H 	H 	0.279	0.3572	0.7632	0.069
Mof_C 	C 	0.11562	0.40749	0.69228	-0.121
Mof_C 	C 	0.2504	0.3229	0.70233	0.044
Mof_O 	O 	0.05239	0.55033	0.35123	-0.424
Mof_O 	O 	0.05165	0.5491	0.26882	-0.434
Mof_C 	C 	0.2055	0.64559	0.3025	0.039
Mof_C 	C 	0.06953	0.56206	0.3096	0.375
Mof_C 	C 	0.1402	0.6067	0.3508	0.039
Mof_H 	H 	0.127	0.5981	0.3819	0.028
Mof_C 	C 	0.1804	0.6298	0.2588	-0.109
Mof_H 	H 	0.1941	0.6368	0.2275	0.072
Mof_C 	C 	0.1847	0.6339	0.3482	-0.107
Mof_H 	H 	0.2005	0.6441	0.3775	0.067
Mof_C 	C 	0.1359	0.6042	0.2621	0.042
Mof_H 	H 	0.1193	0.5947	0.233	0.029
Mof_C 	C 	0.28345	0.6699	0.2583	-0.106
Mof_H 	H 	0.279	0.6428	0.2368	0.068
Mof_C 	C 	0.11562	0.59251	0.30772	-0.122
Mof_C 	C 	0.2504	0.6771	0.29767	0.043
Mof_O 	O 	0.94761	0.44967	0.35123	-0.38
Mof_O 	O 	0.94835	0.4509	0.26882	-0.391
Mof_C 	C 	0.7945	0.35441	0.3025	0.033
Mof_C 	C 	0.93047	0.43794	0.3096	0.366
Mof_C 	C 	0.8598	0.3933	0.3508	0.03
Mof_H 	H 	0.873	0.4019	0.3819	0.04
Mof_C 	C 	0.8196	0.3702	0.2588	-0.099
Mof_H 	H 	0.8059	0.3632	0.2275	0.07
Mof_C 	C 	0.8153	0.3661	0.3482	-0.097
Mof_H 	H 	0.7995	0.3559	0.3775	0.066
Mof_C 	C 	0.8641	0.3958	0.2621	0.032
Mof_H 	H 	0.8807	0.4053	0.233	0.041
Mof_C 	C 	0.71655	0.3301	0.2583	-0.107
Mof_H 	H 	0.721	0.3572	0.2368	0.069
Mof_C 	C 	0.88438	0.40749	0.30772	-0.103
Mof_C 	C 	0.7496	0.3229	0.29767	0.046
Mof_O 	O 	0.64877	0.94761	0.55033	-0.379
Mof_O 	O 	0.73118	0.94835	0.5491	-0.388
Mof_C 	C 	0.6975	0.7945	0.64559	0.031
Mof_C 	C 	0.6904	0.93047	0.56206	0.365
Mof_C 	C 	0.6492	0.8598	0.6067	0.028
Mof_H 	H 	0.6181	0.873	0.5981	0.04
Mof_C 	C 	0.7412	0.8196	0.6298	-0.096
Mof_H 	H 	0.7725	0.8059	0.6368	0.069
Mof_C 	C 	0.6518	0.8153	0.6339	-0.096
Mof_H 	H 	0.6225	0.7995	0.6441	0.065
Mof_C 	C 	0.7379	0.8641	0.6042	0.03
Mof_H 	H 	0.767	0.8807	0.5947	0.043
Mof_C 	C 	0.7417	0.71655	0.6699	-0.111
Mof_H 	H 	0.7632	0.721	0.6428	0.07
Mof_C 	C 	0.69228	0.88438	0.59251	-0.1
Mof_C 	C 	0.70233	0.7496	0.6771	0.048
Mof_O 	O 	0.64877	0.05239	0.44967	-0.423
Mof_O 	O 	0.73118	0.05165	0.4509	-0.432
Mof_C 	C 	0.6975	0.2055	0.35441	0.038
Mof_C 	C 	0.6904	0.06953	0.43794	0.375
Mof_C 	C 	0.6492	0.1402	0.3933	0.038
Mof_H 	H 	0.6181	0.127	0.4019	0.028
Mof_C 	C 	0.7412	0.1804	0.3702	-0.108
Mof_H 	H 	0.7725	0.1941	0.3632	0.071
Mof_C 	C 	0.6518	0.1847	0.3661	-0.106
Mof_H 	H 	0.6225	0.2005	0.3559	0.067
Mof_C 	C 	0.7379	0.1359	0.3958	0.04
Mof_H 	H 	0.767	0.1193	0.4053	0.031
Mof_C 	C 	0.7417	0.28345	0.3301	-0.107
Mof_H 	H 	0.7632	0.279	0.3572	0.069
Mof_C 	C 	0.69228	0.11562	0.40749	-0.121
Mof_C 	C 	0.70233	0.2504	0.3229	0.044
Mof_O 	O 	0.35123	0.05239	0.55033	-0.424
Mof_O 	O 	0.26882	0.05165	0.5491	-0.434
Mof_C 	C 	0.3025	0.2055	0.64559	0.039
Mof_C 	C 	0.3096	0.06953	0.56206	0.375
Mof_C 	C 	0.3508	0.1402	0.6067	0.039
Mof_H 	H 	0.3819	0.127	0.5981	0.028
Mof_C 	C 	0.2588	0.1804	0.6298	-0.109
Mof_H 	H 	0.2275	0.1941	0.6368	0.072
Mof_C 	C 	0.3482	0.1847	0.6339	-0.107
Mof_H 	H 	0.3775	0.2005	0.6441	0.067
Mof_C 	C 	0.2621	0.1359	0.6042	0.042
Mof_H 	H 	0.233	0.1193	0.5947	0.029
Mof_C 	C 	0.2583	0.28345	0.6699	-0.106
Mof_H 	H 	0.2368	0.279	0.6428	0.068
Mof_C 	C 	0.30772	0.11562	0.59251	-0.122
Mof_C 	C 	0.29767	0.2504	0.6771	0.043
Mof_O 	O 	0.35123	0.94761	0.44967	-0.38
Mof_O 	O 	0.26882	0.94835	0.4509	-0.391
Mof_C 	C 	0.3025	0.7945	0.35441	0.033
Mof_C 	C 	0.3096	0.93047	0.43794	0.366
Mof_C 	C 	0.3508	0.8598	0.3933	0.03
Mof_H 	H 	0.3819	0.873	0.4019	0.04
Mof_C 	C 	0.2588	0.8196	0.3702	-0.099
Mof_H 	H 	0.2275	0.8059	0.3632	0.07
Mof_C 	C 	0.3482	0.8153	0.3661	-0.097
Mof_H 	H 	0.3775	0.7995	0.3559	0.066
Mof_C 	C 	0.2621	0.8641	0.3958	0.032
Mof_H 	H 	0.233	0.8807	0.4053	0.041
Mof_C 	C 	0.2583	0.71655	0.3301	-0.107
Mof_H 	H 	0.2368	0.721	0.3572	0.069
Mof_C 	C 	0.30772	0.88438	0.40749	-0.103
Mof_C 	C 	0.29767	0.7496	0.3229	0.046
Mof_O 	O 	0.55033	0.64877	0.94761	-0.379
Mof_O 	O 	0.5491	0.73118	0.94835	-0.388
Mof_C 	C 	0.64559	0.6975	0.7945	0.031
Mof_C 	C 	0.56206	0.6904	0.93047	0.365
Mof_C 	C 	0.6067	0.6492	0.8598	0.028
Mof_H 	H 	0.5981	0.6181	0.873	0.04
Mof_C 	C 	0.6298	0.7412	0.8196	-0.096
Mof_H 	H 	0.6368	0.7725	0.8059	0.069
Mof_C 	C 	0.6339	0.6518	0.8153	-0.096
Mof_H 	H 	0.6441	0.6225	0.7995	0.065
Mof_C 	C 	0.6042	0.7379	0.8641	0.03
Mof_H 	H 	0.5947	0.767	0.8807	0.043
Mof_C 	C 	0.6699	0.7417	0.71655	-0.111
Mof_H 	H 	0.6428	0.7632	0.721	0.07
Mof_C 	C 	0.59251	0.69228	0.88438	-0.1
Mof_C 	C 	0.6771	0.70233	0.7496	0.048
Mof_O 	O 	0.44967	0.64877	0.05239	-0.423
Mof_O 	O 	0.4509	0.73118	0.05165	-0.432
Mof_C 	C 	0.35441	0.6975	0.2055	0.038
Mof_C 	C 	0.43794	0.6904	0.06953	0.375
Mof_C 	C 	0.3933	0.6492	0.1402	0.038
Mof_H 	H 	0.4019	0.6181	0.127	0.028
Mof_C 	C 	0.3702	0.7412	0.1804	-0.108
Mof_H 	H 	0.3632	0.7725	0.1941	0.071
Mof_C 	C 	0.3661	0.6518	0.1847	-0.106
Mof_H 	H 	0.3559	0.6225	0.2005	0.067
Mof_C 	C 	0.3958	0.7379	0.1359	0.04
Mof_H 	H 	0.4053	0.767	0.1193	0.031
Mof_C 	C 	0.3301	0.7417	0.28345	-0.107
Mof_H 	H 	0.3572	0.7632	0.279	0.069
Mof_C 	C 	0.40749	0.69228	0.11562	-0.121
Mof_C 	C 	0.3229	0.70233	0.2504	0.044
Mof_O 	O 	0.55033	0.35123	0.05239	-0.424
Mof_O 	O 	0.5491	0.26882	0.05165	-0.434
Mof_C 	C 	0.64559	0.3025	0.2055	0.039
Mof_C 	C 	0.56206	0.3096	0.06953	0.375
Mof_C 	C 	0.6067	0.3508	0.1402	0.039
Mof_H 	H 	0.5981	0.3819	0.127	0.028
Mof_C 	C 	0.6298	0.2588	0.1804	-0.109
Mof_H 	H 	0.6368	0.2275	0.1941	0.072
Mof_C 	C 	0.6339	0.3482	0.1847	-0.107
Mof_H 	H 	0.6441	0.3775	0.2005	0.067
Mof_C 	C 	0.6042	0.2621	0.1359	0.042
Mof_H 	H 	0.5947	0.233	0.1193	0.029
Mof_C 	C 	0.6699	0.2583	0.28345	-0.106
Mof_H 	H 	0.6428	0.2368	0.279	0.068
Mof_C 	C 	0.59251	0.30772	0.11562	-0.122
Mof_C 	C 	0.6771	0.29767	0.2504	0.043
Mof_O 	O 	0.44967	0.35123	0.94761	-0.38
Mof_O 	O 	0.4509	0.26882	0.94835	-0.391
Mof_C 	C 	0.35441	0.3025	0.7945	0.033
Mof_C 	C 	0.43794	0.3096	0.93047	0.366
Mof_C 	C 	0.3933	0.3508	0.8598	0.03
Mof_H 	H 	0.4019	0.3819	0.873	0.04
Mof_C 	C 	0.3702	0.2588	0.8196	-0.099
Mof_H 	H 	0.3632	0.2275	0.8059	0.07
Mof_C 	C 	0.3661	0.3482	0.8153	-0.097
Mof_H 	H 	0.3559	0.3775	0.7995	0.066
Mof_C 	C 	0.3958	0.2621	0.8641	0.032
Mof_H 	H 	0.4053	0.233	0.8807	0.041
Mof_C 	C 	0.3301	0.2583	0.71655	-0.107
Mof_H 	H 	0.3572	0.2368	0.721	0.069
Mof_C 	C 	0.40749	0.30772	0.88438	-0.103
Mof_C 	C 	0.3229	0.29767	0.7496	0.046
Mof_O 	O 	0.05239	0.44967	0.35123	-0.424
Mof_O 	O 	0.05165	0.4509	0.26882	-0.434
Mof_C 	C 	0.2055	0.35441	0.3025	0.04
Mof_C 	C 	0.06953	0.43794	0.3096	0.375
Mof_C 	C 	0.1402	0.3933	0.3508	0.039
Mof_H 	H 	0.127	0.4019	0.3819	0.028
Mof_C 	C 	0.1804	0.3702	0.2588	-0.11
Mof_H 	H 	0.1941	0.3632	0.2275	0.073
Mof_C 	C 	0.1847	0.3661	0.3482	-0.108
Mof_H 	H 	0.2005	0.3559	0.3775	0.067
Mof_C 	C 	0.1359	0.3958	0.2621	0.042
Mof_H 	H 	0.1193	0.4053	0.233	0.029
Mof_C 	C 	0.28345	0.3301	0.2583	-0.105
Mof_H 	H 	0.279	0.3572	0.2368	0.068
Mof_C 	C 	0.11562	0.40749	0.30772	-0.123
Mof_C 	C 	0.2504	0.3229	0.29767	0.042
Mof_O 	O 	0.94761	0.55033	0.35123	-0.38
Mof_O 	O 	0.94835	0.5491	0.26882	-0.39
Mof_C 	C 	0.7945	0.64559	0.3025	0.032
Mof_C 	C 	0.93047	0.56206	0.3096	0.366
Mof_C 	C 	0.8598	0.6067	0.3508	0.03
Mof_H 	H 	0.873	0.5981	0.3819	0.04
Mof_C 	C 	0.8196	0.6298	0.2588	-0.098
Mof_H 	H 	0.8059	0.6368	0.2275	0.07
Mof_C 	C 	0.8153	0.6339	0.3482	-0.097
Mof_H 	H 	0.7995	0.6441	0.3775	0.066
Mof_C 	C 	0.8641	0.6042	0.2621	0.032
Mof_H 	H 	0.8807	0.5947	0.233	0.041
Mof_C 	C 	0.71655	0.6699	0.2583	-0.109
Mof_H 	H 	0.721	0.6428	0.2368	0.069
Mof_C 	C 	0.88438	0.59251	0.30772	-0.102
Mof_C 	C 	0.7496	0.6771	0.29767	0.047
Mof_O 	O 	0.94761	0.44967	0.64877	-0.38
Mof_O 	O 	0.94835	0.4509	0.73118	-0.388
Mof_C 	C 	0.7945	0.35441	0.6975	0.032
Mof_C 	C 	0.93047	0.43794	0.6904	0.365
Mof_C 	C 	0.8598	0.3933	0.6492	0.029
Mof_H 	H 	0.873	0.4019	0.6181	0.04
Mof_C 	C 	0.8196	0.3702	0.7412	-0.097
Mof_H 	H 	0.8059	0.3632	0.7725	0.069
Mof_C 	C 	0.8153	0.3661	0.6518	-0.096
Mof_H 	H 	0.7995	0.3559	0.6225	0.065
Mof_C 	C 	0.8641	0.3958	0.7379	0.03
Mof_H 	H 	0.8807	0.4053	0.767	0.043
Mof_C 	C 	0.71655	0.3301	0.7417	-0.11
Mof_H 	H 	0.721	0.3572	0.7632	0.07
Mof_C 	C 	0.88438	0.40749	0.69228	-0.101
Mof_C 	C 	0.7496	0.3229	0.70233	0.047
Mof_O 	O 	0.05239	0.55033	0.64877	-0.423
Mof_O 	O 	0.05165	0.5491	0.73118	-0.431
Mof_C 	C 	0.2055	0.64559	0.6975	0.037
Mof_C 	C 	0.06953	0.56206	0.6904	0.374
Mof_C 	C 	0.1402	0.6067	0.6492	0.038
Mof_H 	H 	0.127	0.5981	0.6181	0.028
Mof_C 	C 	0.1804	0.6298	0.7412	-0.107
Mof_H 	H 	0.1941	0.6368	0.7725	0.071
Mof_C 	C 	0.1847	0.6339	0.6518	-0.106
Mof_H 	H 	0.2005	0.6441	0.6225	0.067
Mof_C 	C 	0.1359	0.6042	0.7379	0.04
Mof_H 	H 	0.1193	0.5947	0.767	0.031
Mof_C 	C 	0.28345	0.6699	0.7417	-0.109
Mof_H 	H 	0.279	0.6428	0.7632	0.069
Mof_C 	C 	0.11562	0.59251	0.69228	-0.12
Mof_C 	C 	0.2504	0.6771	0.70233	0.045
Mof_O 	O 	0.35123	0.05239	0.44967	-0.424
Mof_O 	O 	0.26882	0.05165	0.4509	-0.434
Mof_C 	C 	0.3025	0.2055	0.35441	0.04
Mof_C 	C 	0.3096	0.06953	0.43794	0.375
Mof_C 	C 	0.3508	0.1402	0.3933	0.039
Mof_H 	H 	0.3819	0.127	0.4019	0.028
Mof_C 	C 	0.2588	0.1804	0.3702	-0.11
Mof_H 	H 	0.2275	0.1941	0.3632	0.073
Mof_C 	C 	0.3482	0.1847	0.3661	-0.108
Mof_H 	H 	0.3775	0.2005	0.3559	0.067
Mof_C 	C 	0.2621	0.1359	0.3958	0.042
Mof_H 	H 	0.233	0.1193	0.4053	0.029
Mof_C 	C 	0.2583	0.28345	0.3301	-0.105
Mof_H 	H 	0.2368	0.279	0.3572	0.068
Mof_C 	C 	0.30772	0.11562	0.40749	-0.123
Mof_C 	C 	0.29767	0.2504	0.3229	0.042
Mof_O 	O 	0.35123	0.94761	0.55033	-0.38
Mof_O 	O 	0.26882	0.94835	0.5491	-0.39
Mof_C 	C 	0.3025	0.7945	0.64559	0.032
Mof_C 	C 	0.3096	0.93047	0.56206	0.366
Mof_C 	C 	0.3508	0.8598	0.6067	0.03
Mof_H 	H 	0.3819	0.873	0.5981	0.04
Mof_C 	C 	0.2588	0.8196	0.6298	-0.098
Mof_H 	H 	0.2275	0.8059	0.6368	0.07
Mof_C 	C 	0.3482	0.8153	0.6339	-0.097
Mof_H 	H 	0.3775	0.7995	0.6441	0.066
Mof_C 	C 	0.2621	0.8641	0.6042	0.032
Mof_H 	H 	0.233	0.8807	0.5947	0.041
Mof_C 	C 	0.2583	0.71655	0.6699	-0.109
Mof_H 	H 	0.2368	0.721	0.6428	0.069
Mof_C 	C 	0.30772	0.88438	0.59251	-0.102
Mof_C 	C 	0.29767	0.7496	0.6771	0.047
Mof_O 	O 	0.64877	0.94761	0.44967	-0.38
Mof_O 	O 	0.73118	0.94835	0.4509	-0.388
Mof_C 	C 	0.6975	0.7945	0.35441	0.032
Mof_C 	C 	0.6904	0.93047	0.43794	0.365
Mof_C 	C 	0.6492	0.8598	0.3933	0.029
Mof_H 	H 	0.6181	0.873	0.4019	0.04
Mof_C 	C 	0.7412	0.8196	0.3702	-0.097
Mof_H 	H 	0.7725	0.8059	0.3632	0.069
Mof_C 	C 	0.6518	0.8153	0.3661	-0.096
Mof_H 	H 	0.6225	0.7995	0.3559	0.065
Mof_C 	C 	0.7379	0.8641	0.3958	0.03
Mof_H 	H 	0.767	0.8807	0.4053	0.043
Mof_C 	C 	0.7417	0.71655	0.3301	-0.11
Mof_H 	H 	0.7632	0.721	0.3572	0.07
Mof_C 	C 	0.69228	0.88438	0.40749	-0.101
Mof_C 	C 	0.70233	0.7496	0.3229	0.047
Mof_O 	O 	0.64877	0.05239	0.55033	-0.423
Mof_O 	O 	0.73118	0.05165	0.5491	-0.431
Mof_C 	C 	0.6975	0.2055	0.64559	0.037
Mof_C 	C 	0.6904	0.06953	0.56206	0.374
Mof_C 	C 	0.6492	0.1402	0.6067	0.038
Mof_H 	H 	0.6181	0.127	0.5981	0.028
Mof_C 	C 	0.7412	0.1804	0.6298	-0.107
Mof_H 	H 	0.7725	0.1941	0.6368	0.071
Mof_C 	C 	0.6518	0.1847	0.6339	-0.106
Mof_H 	H 	0.6225	0.2005	0.6441	0.067
Mof_C 	C 	0.7379	0.1359	0.6042	0.04
Mof_H 	H 	0.767	0.1193	0.5947	0.031
Mof_C 	C 	0.7417	0.28345	0.6699	-0.109
Mof_H 	H 	0.7632	0.279	0.6428	0.069
Mof_C 	C 	0.69228	0.11562	0.59251	-0.12
Mof_C 	C 	0.70233	0.2504	0.6771	0.045
Mof_O 	O 	0.44967	0.35123	0.05239	-0.424
Mof_O 	O 	0.4509	0.26882	0.05165	-0.434
Mof_C 	C 	0.35441	0.3025	0.2055	0.04
Mof_C 	C 	0.43794	0.3096	0.06953	0.375
Mof_C 	C 	0.3933	0.3508	0.1402	0.039
Mof_H 	H 	0.4019	0.3819	0.127	0.028
Mof_C 	C 	0.3702	0.2588	0.1804	-0.11
Mof_H 	H 	0.3632	0.2275	0.1941	0.073
Mof_C 	C 	0.3661	0.3482	0.1847	-0.108
Mof_H 	H 	0.3559	0.3775	0.2005	0.067
Mof_C 	C 	0.3958	0.2621	0.1359	0.042
Mof_H 	H 	0.4053	0.233	0.1193	0.029
Mof_C 	C 	0.3301	0.2583	0.28345	-0.105
Mof_H 	H 	0.3572	0.2368	0.279	0.068
Mof_C 	C 	0.40749	0.30772	0.11562	-0.123
Mof_C 	C 	0.3229	0.29767	0.2504	0.042
Mof_O 	O 	0.55033	0.35123	0.94761	-0.38
Mof_O 	O 	0.5491	0.26882	0.94835	-0.39
Mof_C 	C 	0.64559	0.3025	0.7945	0.032
Mof_C 	C 	0.56206	0.3096	0.93047	0.366
Mof_C 	C 	0.6067	0.3508	0.8598	0.03
Mof_H 	H 	0.5981	0.3819	0.873	0.04
Mof_C 	C 	0.6298	0.2588	0.8196	-0.098
Mof_H 	H 	0.6368	0.2275	0.8059	0.07
Mof_C 	C 	0.6339	0.3482	0.8153	-0.097
Mof_H 	H 	0.6441	0.3775	0.7995	0.066
Mof_C 	C 	0.6042	0.2621	0.8641	0.032
Mof_H 	H 	0.5947	0.233	0.8807	0.041
Mof_C 	C 	0.6699	0.2583	0.71655	-0.109
Mof_H 	H 	0.6428	0.2368	0.721	0.069
Mof_C 	C 	0.59251	0.30772	0.88438	-0.102
Mof_C 	C 	0.6771	0.29767	0.7496	0.047
Mof_O 	O 	0.44967	0.64877	0.94761	-0.38
Mof_O 	O 	0.4509	0.73118	0.94835	-0.388
Mof_C 	C 	0.35441	0.6975	0.7945	0.032
Mof_C 	C 	0.43794	0.6904	0.93047	0.365
Mof_C 	C 	0.3933	0.6492	0.8598	0.029
Mof_H 	H 	0.4019	0.6181	0.873	0.04
Mof_C 	C 	0.3702	0.7412	0.8196	-0.097
Mof_H 	H 	0.3632	0.7725	0.8059	0.069
Mof_C 	C 	0.3661	0.6518	0.8153	-0.096
Mof_H 	H 	0.3559	0.6225	0.7995	0.065
Mof_C 	C 	0.3958	0.7379	0.8641	0.03
Mof_H 	H 	0.4053	0.767	0.8807	0.043
Mof_C 	C 	0.3301	0.7417	0.71655	-0.11
Mof_H 	H 	0.3572	0.7632	0.721	0.07
Mof_C 	C 	0.40749	0.69228	0.88438	-0.101
Mof_C 	C 	0.3229	0.70233	0.7496	0.047
Mof_O 	O 	0.55033	0.64877	0.05239	-0.423
Mof_O 	O 	0.5491	0.73118	0.05165	-0.431
Mof_C 	C 	0.64559	0.6975	0.2055	0.037
Mof_C 	C 	0.56206	0.6904	0.06953	0.374
Mof_C 	C 	0.6067	0.6492	0.1402	0.038
Mof_H 	H 	0.5981	0.6181	0.127	0.028
Mof_C 	C 	0.6298	0.7412	0.1804	-0.107
Mof_H 	H 	0.6368	0.7725	0.1941	0.071
Mof_C 	C 	0.6339	0.6518	0.1847	-0.106
Mof_H 	H 	0.6441	0.6225	0.2005	0.067
Mof_C 	C 	0.6042	0.7379	0.1359	0.04
Mof_H 	H 	0.5947	0.767	0.1193	0.031
Mof_C 	C 	0.6699	0.7417	0.28345	-0.109
Mof_H 	H 	0.6428	0.7632	0.279	0.069
Mof_C 	C 	0.59251	0.69228	0.11562	-0.12
Mof_C 	C 	0.6771	0.70233	0.2504	0.045
Mof_Cu	Cu	-7.87582e-33	0.5	0.64412	0.877
Mof_Cu	Cu	-7.51591e-33	0.5	0.74011	0.882
Mof_Cu	Cu	-1.23838e-33	0.5	0.35588	0.877
Mof_Cu	Cu	-1.59829e-33	0.5	0.25989	0.881
Mof_Cu	Cu	0.64412	0	0.5	0.877
Mof_Cu	Cu	0.74011	0	0.5	0.882
Mof_Cu	Cu	0.35588	0	0.5	0.877
Mof_Cu	Cu	0.25989	0	0.5	0.881
Mof_Cu	Cu	0.5	0.64412	-0	0.877
Mof_Cu	Cu	0.5	0.74011	-0	0.882
Mof_Cu	Cu	0.5	0.35588	-0	0.877
Mof_Cu	Cu	0.5	0.25989	-0	0.881
_end
