# CIF file generated by openbabel 3.1.0, see https://openbabel.org
data_I
_chemical_name_common 'JISVAJ_clean'
_cell_length_a 12.39
_cell_length_b 13.795
_cell_length_c 13.83
_cell_angle_alpha 115.769
_cell_angle_beta 93.914
_cell_angle_gamma 106.918
_space_group_name_H-M_alt 'P 1'
_space_group_name_Hall 'P 1'
loop_
    _symmetry_equiv_pos_as_xyz
    x,y,z
loop_
    _atom_site_label
    _atom_site_type_symbol
    _atom_site_fract_x
    _atom_site_fract_y
    _atom_site_fract_z
    _atom_site_occupancy
    Eu1      Eu       0.67393    0.52536    0.53212    1.000
    Eu2      Eu       0.32607    0.47464    0.46788    1.000
    H1       H        0.56920    0.17300    0.50550    1.000
    H2       H        0.19640    0.92120    0.36200    1.000
    H3       H        0.24390    0.09480    0.35980    1.000
    H4       H        0.69150    0.59460    0.32800    1.000
    H5       H        0.78180    0.64730    0.20660    1.000
    H6       H        0.38910    0.44090    0.10150    1.000
    H7       H        0.03300    0.90010    0.75960    1.000
    H8       H        0.13350    0.07970    0.78500    1.000
    H9       H        0.89350    0.81570    0.45070    1.000
    H10      H        0.43080    0.82700    0.49450    1.000
    H11      H        0.80360    0.07880    0.63800    1.000
    H12      H        0.75610    0.90520    0.64020    1.000
    H13      H        0.30850    0.40540    0.67200    1.000
    H14      H        0.21820    0.35270    0.79340    1.000
    H15      H        0.61090    0.55910    0.89850    1.000
    H16      H        0.96700    0.09990    0.24040    1.000
    H17      H        0.86650    0.92030    0.21500    1.000
    H18      H        0.10650    0.18430    0.54930    1.000
    C1       C        0.44590    0.27060    0.43910    1.000
    C2       C        0.41150    0.15370    0.43470    1.000
    C3       C        0.49240    0.12330    0.47690    1.000
    C4       C        0.45800    0.01750    0.47620    1.000
    C5       C        0.27250    0.97250    0.39200    1.000
    C6       C        0.30000    0.07740    0.39030    1.000
    C7       C        0.46640    0.48300    0.30630    1.000
    C8       C        0.52980    0.51340    0.22850    1.000
    C9       C        0.64880    0.57480    0.25990    1.000
    C10      C        0.70260    0.60590    0.18580    1.000
    C11      C        0.52960    0.51480    0.05570    1.000
    C12      C        0.46830    0.48220    0.12430    1.000
    C13      C        0.87200    0.72130    0.58220    1.000
    C14      C        0.94920    0.83720    0.60180    1.000
    C15      C        0.02400    0.91820    0.70280    1.000
    C16      C        0.08440    0.02560    0.71670    1.000
    C17      C        0.00510    0.98050    0.54250    1.000
    C18      C        0.94110    0.86870    0.52010    1.000
    C19      C        0.55410    0.72940    0.56090    1.000
    C20      C        0.58850    0.84630    0.56530    1.000
    C21      C        0.50760    0.87670    0.52310    1.000
    C22      C        0.54200    0.98250    0.52380    1.000
    C23      C        0.72750    0.02750    0.60800    1.000
    C24      C        0.70000    0.92260    0.60970    1.000
    C25      C        0.53360    0.51700    0.69370    1.000
    C26      C        0.47020    0.48660    0.77150    1.000
    C27      C        0.35120    0.42520    0.74010    1.000
    C28      C        0.29740    0.39410    0.81420    1.000
    C29      C        0.47040    0.48520    0.94430    1.000
    C30      C        0.53170    0.51780    0.87570    1.000
    C31      C        0.12800    0.27870    0.41780    1.000
    C32      C        0.05080    0.16280    0.39820    1.000
    C33      C        0.97600    0.08180    0.29720    1.000
    C34      C        0.91560    0.97440    0.28330    1.000
    C35      C        0.99490    0.01950    0.45750    1.000
    C36      C        0.05890    0.13130    0.47990    1.000
    N1       N        0.34750    0.94170    0.43330    1.000
    N2       N        0.64410    0.57820    0.08610    1.000
    N3       N        0.07780    0.05820    0.63940    1.000
    N4       N        0.65250    0.05830    0.56670    1.000
    N5       N        0.35590    0.42180    0.91390    1.000
    N6       N        0.92220    0.94180    0.36060    1.000
    O1       O        0.55250    0.33160    0.47610    1.000
    O2       O        0.36740    0.29770    0.40940    1.000
    O3       O        0.52630    0.49490    0.39110    1.000
    O4       O        0.35950    0.45060    0.28630    1.000
    O5       O        0.85930    0.70010    0.66020    1.000
    O6       O        0.81760    0.64850    0.48460    1.000
    O7       O        0.44750    0.66840    0.52390    1.000
    O8       O        0.63260    0.70230    0.59060    1.000
    O9       O        0.47370    0.50510    0.60890    1.000
    O10      O        0.64050    0.54940    0.71370    1.000
    O11      O        0.14070    0.29990    0.33980    1.000
    O12      O        0.18240    0.35150    0.51540    1.000
