# CIF file generated by openbabel 3.1.0, see https://openbabel.org
data_I
_chemical_name_common 'CAWGAJ_clean'
_cell_length_a 9.463
_cell_length_b 16.7534
_cell_length_c 22.3836
_cell_angle_alpha 90
_cell_angle_beta 90
_cell_angle_gamma 91.899
_space_group_name_H-M_alt 'P 1'
_space_group_name_Hall 'P 1'
loop_
    _symmetry_equiv_pos_as_xyz
    x,y,z
loop_
    _atom_site_label
    _atom_site_type_symbol
    _atom_site_fract_x
    _atom_site_fract_y
    _atom_site_fract_z
    _atom_site_occupancy
    U1       U        0.54298    0.13558    0.25189    1.000
    U2       U        0.90573    0.26493    0.25392    1.000
    U3       U        0.45702    0.36442    0.75189    1.000
    U4       U        0.09427    0.23507    0.75392    1.000
    U5       U        0.45702    0.86442    0.74811    1.000
    U6       U        0.09427    0.73507    0.74608    1.000
    U7       U        0.54298    0.63558    0.24811    1.000
    U8       U        0.90573    0.76493    0.24608    1.000
    Zn1      Zn       0.84113    0.00546    0.25405    1.000
    Zn2      Zn       0.22604    0.94958    0.24631    1.000
    Zn3      Zn       0.15887    0.49454    0.75405    1.000
    Zn4      Zn       0.77396    0.55042    0.74631    1.000
    Zn5      Zn       0.15887    0.99454    0.74595    1.000
    Zn6      Zn       0.77396    0.05042    0.75369    1.000
    Zn7      Zn       0.84113    0.50546    0.24595    1.000
    Zn8      Zn       0.22604    0.44958    0.25369    1.000
    H1       H        0.97450    0.09030    0.15030    1.000
    H2       H        0.95290    0.10480    0.04900    1.000
    H3       H        0.66440    0.93090    0.15340    1.000
    H4       H        0.63090    0.94280    0.05290    1.000
    H5       H        0.86020    0.14420    0.96430    1.000
    H6       H        0.85440    0.15030    0.86260    1.000
    H7       H        0.69020    0.92290    0.95470    1.000
    H8       H        0.69510    0.93360    0.85320    1.000
    H9       H        0.95200    0.11060    0.35430    1.000
    H10      H        0.92720    0.13020    0.45490    1.000
    H11      H        0.69660    0.92360    0.35890    1.000
    H12      H        0.66650    0.93660    0.45970    1.000
    H13      H        0.97510    0.09760    0.54870    1.000
    H14      H        0.96030    0.10410    0.65070    1.000
    H15      H        0.58490    0.99680    0.54710    1.000
    H16      H        0.57970    0.00840    0.64860    1.000
    H17      H        0.02550    0.40970    0.65030    1.000
    H18      H        0.04710    0.39520    0.54900    1.000
    H19      H        0.33560    0.56910    0.65340    1.000
    H20      H        0.36910    0.55720    0.55290    1.000
    H21      H        0.13980    0.35580    0.46430    1.000
    H22      H        0.14560    0.34970    0.36260    1.000
    H23      H        0.30980    0.57710    0.45470    1.000
    H24      H        0.30490    0.56640    0.35320    1.000
    H25      H        0.04800    0.38940    0.85430    1.000
    H26      H        0.07280    0.36980    0.95490    1.000
    H27      H        0.30340    0.57640    0.85890    1.000
    H28      H        0.33350    0.56340    0.95970    1.000
    H29      H        0.02490    0.40240    0.04870    1.000
    H30      H        0.03970    0.39590    0.15070    1.000
    H31      H        0.41510    0.50320    0.04710    1.000
    H32      H        0.42030    0.49160    0.14860    1.000
    H33      H        0.02550    0.90970    0.84970    1.000
    H34      H        0.04710    0.89520    0.95100    1.000
    H35      H        0.33560    0.06910    0.84660    1.000
    H36      H        0.36910    0.05720    0.94710    1.000
    H37      H        0.13980    0.85580    0.03570    1.000
    H38      H        0.14560    0.84970    0.13740    1.000
    H39      H        0.30980    0.07710    0.04530    1.000
    H40      H        0.30490    0.06640    0.14680    1.000
    H41      H        0.04800    0.88940    0.64570    1.000
    H42      H        0.07280    0.86980    0.54510    1.000
    H43      H        0.30340    0.07640    0.64110    1.000
    H44      H        0.33350    0.06340    0.54030    1.000
    H45      H        0.02490    0.90240    0.45130    1.000
    H46      H        0.03970    0.89590    0.34930    1.000
    H47      H        0.41510    0.00320    0.45290    1.000
    H48      H        0.42030    0.99160    0.35140    1.000
    H49      H        0.97450    0.59030    0.34970    1.000
    H50      H        0.95290    0.60480    0.45100    1.000
    H51      H        0.66440    0.43090    0.34660    1.000
    H52      H        0.63090    0.44280    0.44710    1.000
    H53      H        0.86020    0.64420    0.53570    1.000
    H54      H        0.85440    0.65030    0.63740    1.000
    H55      H        0.69020    0.42290    0.54530    1.000
    H56      H        0.69510    0.43360    0.64680    1.000
    H57      H        0.95200    0.61060    0.14570    1.000
    H58      H        0.92720    0.63020    0.04510    1.000
    H59      H        0.69660    0.42360    0.14110    1.000
    H60      H        0.66650    0.43660    0.04030    1.000
    H61      H        0.97510    0.59760    0.95130    1.000
    H62      H        0.96030    0.60410    0.84930    1.000
    H63      H        0.58490    0.49680    0.95290    1.000
    H64      H        0.57970    0.50840    0.85140    1.000
    C1       C        0.90540    0.06005    0.13020    1.000
    C2       C        0.89300    0.06906    0.06937    1.000
    C3       C        0.72250    0.96650    0.13198    1.000
    C4       C        0.70250    0.97278    0.07165    1.000
    C5       C        0.79010    0.02435    0.03843    1.000
    C6       C        0.77900    0.03201    0.97239    1.000
    C7       C        0.82610    0.10028    0.94264    1.000
    C8       C        0.82290    0.10354    0.88143    1.000
    C9       C        0.72660    0.96945    0.93698    1.000
    C10      C        0.72860    0.97664    0.87599    1.000
    C11      C        0.89360    0.07532    0.37587    1.000
    C12      C        0.87970    0.08745    0.43638    1.000
    C13      C        0.74400    0.96539    0.37863    1.000
    C14      C        0.72500    0.97294    0.43921    1.000
    C15      C        0.79360    0.03506    0.46968    1.000
    C16      C        0.78240    0.04456    0.53543    1.000
    C17      C        0.89420    0.07798    0.56809    1.000
    C18      C        0.88420    0.08189    0.62942    1.000
    C19      C        0.66300    0.01865    0.56719    1.000
    C20      C        0.66090    0.02541    0.62818    1.000
    C21      C        0.09460    0.43995    0.63020    1.000
    C22      C        0.10700    0.43094    0.56937    1.000
    C23      C        0.27750    0.53350    0.63198    1.000
    C24      C        0.29750    0.52722    0.57165    1.000
    C25      C        0.20990    0.47565    0.53843    1.000
    C26      C        0.22100    0.46799    0.47239    1.000
    C27      C        0.17390    0.39972    0.44264    1.000
    C28      C        0.17710    0.39646    0.38143    1.000
    C29      C        0.27340    0.53055    0.43698    1.000
    C30      C        0.27140    0.52336    0.37599    1.000
    C31      C        0.10640    0.42468    0.87587    1.000
    C32      C        0.12030    0.41255    0.93638    1.000
    C33      C        0.25600    0.53461    0.87863    1.000
    C34      C        0.27500    0.52706    0.93921    1.000
    C35      C        0.20640    0.46494    0.96968    1.000
    C36      C        0.21760    0.45544    0.03543    1.000
    C37      C        0.10580    0.42202    0.06809    1.000
    C38      C        0.11580    0.41811    0.12942    1.000
    C39      C        0.33700    0.48135    0.06719    1.000
    C40      C        0.33910    0.47459    0.12818    1.000
    C41      C        0.09460    0.93995    0.86980    1.000
    C42      C        0.10700    0.93094    0.93063    1.000
    C43      C        0.27750    0.03350    0.86802    1.000
    C44      C        0.29750    0.02722    0.92835    1.000
    C45      C        0.20990    0.97565    0.96157    1.000
    C46      C        0.22100    0.96799    0.02761    1.000
    C47      C        0.17390    0.89972    0.05736    1.000
    C48      C        0.17710    0.89646    0.11857    1.000
    C49      C        0.27340    0.03055    0.06302    1.000
    C50      C        0.27140    0.02336    0.12401    1.000
    C51      C        0.10640    0.92468    0.62413    1.000
    C52      C        0.12030    0.91255    0.56362    1.000
    C53      C        0.25600    0.03461    0.62137    1.000
    C54      C        0.27500    0.02706    0.56079    1.000
    C55      C        0.20640    0.96494    0.53032    1.000
    C56      C        0.21760    0.95544    0.46457    1.000
    C57      C        0.10580    0.92202    0.43191    1.000
    C58      C        0.11580    0.91811    0.37058    1.000
    C59      C        0.33700    0.98135    0.43281    1.000
    C60      C        0.33910    0.97459    0.37182    1.000
    C61      C        0.90540    0.56005    0.36980    1.000
    C62      C        0.89300    0.56906    0.43063    1.000
    C63      C        0.72250    0.46650    0.36802    1.000
    C64      C        0.70250    0.47278    0.42835    1.000
    C65      C        0.79010    0.52435    0.46157    1.000
    C66      C        0.77900    0.53201    0.52761    1.000
    C67      C        0.82610    0.60028    0.55736    1.000
    C68      C        0.82290    0.60354    0.61857    1.000
    C69      C        0.72660    0.46945    0.56302    1.000
    C70      C        0.72860    0.47664    0.62401    1.000
    C71      C        0.89360    0.57532    0.12413    1.000
    C72      C        0.87970    0.58745    0.06362    1.000
    C73      C        0.74400    0.46539    0.12137    1.000
    C74      C        0.72500    0.47294    0.06079    1.000
    C75      C        0.79360    0.53506    0.03032    1.000
    C76      C        0.78240    0.54456    0.96457    1.000
    C77      C        0.89420    0.57798    0.93191    1.000
    C78      C        0.88420    0.58189    0.87058    1.000
    C79      C        0.66300    0.51865    0.93281    1.000
    C80      C        0.66090    0.52541    0.87182    1.000
    N1       N        0.82200    0.00943    0.16172    1.000
    N2       N        0.77630    0.04236    0.84763    1.000
    N3       N        0.82750    0.01542    0.34654    1.000
    N4       N        0.77080    0.05542    0.65988    1.000
    N5       N        0.17800    0.49057    0.66172    1.000
    N6       N        0.22370    0.45764    0.34763    1.000
    N7       N        0.17250    0.48458    0.84654    1.000
    N8       N        0.22920    0.44458    0.15988    1.000
    N9       N        0.17800    0.99057    0.83828    1.000
    N10      N        0.22370    0.95764    0.15237    1.000
    N11      N        0.17250    0.98458    0.65346    1.000
    N12      N        0.22920    0.94458    0.34012    1.000
    N13      N        0.82200    0.50943    0.33828    1.000
    N14      N        0.77630    0.54236    0.65237    1.000
    N15      N        0.82750    0.51542    0.15346    1.000
    N16      N        0.77080    0.55542    0.84012    1.000
    F1       F        0.66016    0.25826    0.24943    1.000
    F2       F        0.34523    0.05660    0.25125    1.000
    F3       F        0.61807    0.00711    0.25616    1.000
    F4       F        0.80602    0.13317    0.25452    1.000
    F5       F        0.37049    0.22418    0.24765    1.000
    F6       F        0.10487    0.34305    0.25561    1.000
    F7       F        0.82802    0.38775    0.24166    1.000
    F8       F        0.05136    0.02158    0.25234    1.000
    F9       F        0.33984    0.24174    0.74943    1.000
    F10      F        0.65477    0.44340    0.75125    1.000
    F11      F        0.38193    0.49289    0.75616    1.000
    F12      F        0.19398    0.36683    0.75452    1.000
    F13      F        0.62951    0.27582    0.74765    1.000
    F14      F        0.89513    0.15695    0.75561    1.000
    F15      F        0.17198    0.11225    0.74166    1.000
    F16      F        0.94864    0.47842    0.75234    1.000
    F17      F        0.33984    0.74174    0.75057    1.000
    F18      F        0.65477    0.94340    0.74875    1.000
    F19      F        0.38193    0.99289    0.74384    1.000
    F20      F        0.19398    0.86683    0.74548    1.000
    F21      F        0.62951    0.77582    0.75235    1.000
    F22      F        0.89513    0.65695    0.74439    1.000
    F23      F        0.17198    0.61225    0.75834    1.000
    F24      F        0.94864    0.97842    0.74766    1.000
    F25      F        0.66016    0.75826    0.25057    1.000
    F26      F        0.34523    0.55660    0.24875    1.000
    F27      F        0.61807    0.50711    0.24384    1.000
    F28      F        0.80602    0.63317    0.24548    1.000
    F29      F        0.37049    0.72418    0.25235    1.000
    F30      F        0.10487    0.84305    0.24439    1.000
    F31      F        0.82802    0.88775    0.25834    1.000
    F32      F        0.05136    0.52158    0.24766    1.000
