# CIF file generated by openbabel 3.1.0, see https://openbabel.org
data_I
_chemical_name_common 'image0'
_cell_length_a 16.049
_cell_length_b 9.622
_cell_length_c 7.465
_cell_angle_alpha 90
_cell_angle_beta 90
_cell_angle_gamma 90
_space_group_name_H-M_alt 'P 1'
_space_group_name_Hall 'P 1'
loop_
    _symmetry_equiv_pos_as_xyz
    x,y,z
loop_
    _atom_site_label
    _atom_site_type_symbol
    _atom_site_fract_x
    _atom_site_fract_y
    _atom_site_fract_z
    _atom_site_occupancy
    Cu1      Cu       0.33440    0.84170    0.75980    1.000
    O1       O        0.25900    0.18430    0.50320    1.000
    O2       O        0.27020    0.96770    0.59880    1.000
    O3       O        0.58130    0.22810    0.62460    1.000
    O4       O        0.49810    0.29350    0.83670    1.000
    C1       C        0.28740    0.09340    0.59810    1.000
    C2       C        0.36190    0.13750    0.71110    1.000
    N1       N        0.37310    0.02400    0.85210    1.000
    C3       C        0.43950    0.16060    0.60360    1.000
    C4       C        0.51000    0.22900    0.69610    1.000
    N2       N        0.27840    0.67620    0.65760    1.000
    C5       C        0.30990    0.55260    0.62040    1.000
    N3       N        0.24840    0.46430    0.56830    1.000
    C6       C        0.17730    0.54030    0.57400    1.000
    C7       C        0.19440    0.66880    0.62590    1.000
    Cu2      Cu       0.66560    0.34170    0.74020    1.000
    O5       O        0.74100    0.68430    0.99680    1.000
    O6       O        0.72980    0.46770    0.90120    1.000
    O7       O        0.41870    0.72810    0.87540    1.000
    O8       O        0.50190    0.79350    0.66330    1.000
    C8       C        0.71260    0.59340    0.90190    1.000
    C9       C        0.63810    0.63750    0.78890    1.000
    N4       N        0.62690    0.52400    0.64790    1.000
    C10      C        0.56050    0.66060    0.89640    1.000
    C11      C        0.49000    0.72900    0.80390    1.000
    N5       N        0.72160    0.17620    0.84240    1.000
    C12      C        0.69010    0.05260    0.87960    1.000
    N6       N        0.75160    0.96430    0.93170    1.000
    C13      C        0.82270    0.04030    0.92600    1.000
    C14      C        0.80560    0.16880    0.87410    1.000
    Cu3      Cu       0.16560    0.15830    0.25980    1.000
    O9       O        0.24100    0.81570    0.00320    1.000
    O10      O        0.22980    0.03230    0.09880    1.000
    O11      O        0.91870    0.77190    0.12460    1.000
    O12      O        0.00190    0.70650    0.33670    1.000
    C15      C        0.21260    0.90660    0.09810    1.000
    C16      C        0.13810    0.86250    0.21110    1.000
    N7       N        0.12690    0.97600    0.35210    1.000
    C17      C        0.06050    0.83940    0.10360    1.000
    C18      C        0.99000    0.77100    0.19610    1.000
    N8       N        0.22160    0.32380    0.15760    1.000
    C19      C        0.19010    0.44740    0.12040    1.000
    N9       N        0.25160    0.53570    0.06830    1.000
    C20      C        0.32270    0.45970    0.07400    1.000
    C21      C        0.30560    0.33120    0.12590    1.000
    Cu4      Cu       0.83440    0.65830    0.24020    1.000
    O13      O        0.75900    0.31570    0.49680    1.000
    O14      O        0.77020    0.53230    0.40120    1.000
    O15      O        0.08130    0.27190    0.37540    1.000
    O16      O        0.99810    0.20650    0.16330    1.000
    C22      C        0.78740    0.40660    0.40190    1.000
    C23      C        0.86190    0.36250    0.28890    1.000
    N10      N        0.87310    0.47600    0.14790    1.000
    C24      C        0.93950    0.33940    0.39640    1.000
    C25      C        0.01000    0.27100    0.30390    1.000
    N11      N        0.77840    0.82380    0.34240    1.000
    C26      C        0.80990    0.94740    0.37960    1.000
    N12      N        0.74840    0.03570    0.43170    1.000
    C27      C        0.67730    0.95970    0.42600    1.000
    C28      C        0.69440    0.83120    0.37410    1.000
