# CIF file generated by openbabel 3.1.0, see https://openbabel.org
data_I
_chemical_name_common 'image0'
_cell_length_a 22.6655
_cell_length_b 18.8656
_cell_length_c 24.6036
_cell_angle_alpha 90
_cell_angle_beta 107.228
_cell_angle_gamma 90
_space_group_name_H-M_alt 'P 1'
_space_group_name_Hall 'P 1'
loop_
    _symmetry_equiv_pos_as_xyz
    x,y,z
loop_
    _atom_site_label
    _atom_site_type_symbol
    _atom_site_fract_x
    _atom_site_fract_y
    _atom_site_fract_z
    _atom_site_occupancy
    Ag1      Ag       0.23663    0.59538    0.94711    1.000
    Ag2      Ag       0.06788    0.07225    0.52235    1.000
    Ag3      Ag       0.83410    0.72747    0.48353    1.000
    Cl1      Cl       0.31020    0.67396    0.03140    1.000
    C1       C        0.23010    0.58980    0.82340    1.000
    H1       H        0.23460    0.54220    0.83360    1.000
    C2       C        0.22390    0.60790    0.76820    1.000
    H2       H        0.22380    0.57330    0.74130    1.000
    C3       C        0.21760    0.67930    0.75280    1.000
    C4       C        0.21870    0.72930    0.79410    1.000
    H3       H        0.21600    0.77750    0.78550    1.000
    C5       C        0.22400    0.70570    0.84870    1.000
    H4       H        0.22320    0.73920    0.87620    1.000
    C6       C        0.19410    0.55760    0.47240    1.000
    H5       H        0.18050    0.56280    0.43300    1.000
    C7       C        0.18390    0.61320    0.50590    1.000
    H6       H        0.16200    0.65320    0.48920    1.000
    C8       C        0.20690    0.60750    0.56390    1.000
    C9       C        0.23710    0.54600    0.58710    1.000
    H7       H        0.25200    0.54040    0.62640    1.000
    C10      C        0.24480    0.49310    0.55130    1.000
    H8       H        0.26640    0.45260    0.56730    1.000
    C11      C        0.13860    0.96960    0.61390    1.000
    H9       H        0.13360    0.00510    0.63840    1.000
    C12      C        0.16170    0.90590    0.63690    1.000
    H10      H        0.17250    0.89870    0.67610    1.000
    C13      C        0.16850    0.85240    0.60100    1.000
    C14      C        0.15450    0.86730    0.54250    1.000
    H11      H        0.16000    0.83310    0.51710    1.000
    C15      C        0.13250    0.93390    0.52370    1.000
    H12      H        0.12400    0.94440    0.48520    1.000
    C16      C        0.20940    0.69880    0.69300    1.000
    C17      C        0.20210    0.66470    0.60360    1.000
    C18      C        0.18620    0.77780    0.62140    1.000
    C19      C        0.00230    0.15620    0.41830    1.000
    H13      H        0.01060    0.11570    0.40030    1.000
    C20      C        0.98060    0.21480    0.38680    1.000
    H14      H        0.97510    0.21440    0.34780    1.000
    C21      C        0.96670    0.27430    0.41180    1.000
    C22      C        0.97240    0.27280    0.46990    1.000
    H15      H        0.96100    0.31150    0.48790    1.000
    C23      C        0.99550    0.21170    0.49960    1.000
    H16      H        0.99960    0.20990    0.53830    1.000
    C24      C        0.92030    0.44970    0.14480    1.000
    H17      H        0.92240    0.49090    0.12480    1.000
    C25      C        0.92320    0.45580    0.20130    1.000
    H18      H        0.92530    0.49980    0.21870    1.000
    C26      C        0.92270    0.39320    0.23150    1.000
    C27      C        0.92000    0.33030    0.20520    1.000
    H19      H        0.92150    0.28830    0.22530    1.000
    C28      C        0.91480    0.32920    0.14750    1.000
    H20      H        0.91140    0.28550    0.12940    1.000
    C29      C        0.89800    0.58660    0.47860    1.000
    H21      H        0.91090    0.59280    0.51790    1.000
    C30      C        0.91660    0.52660    0.45560    1.000
    H22      H        0.94100    0.49270    0.47940    1.000
    C31      C        0.89880    0.51700    0.39710    1.000
    C32      C        0.86130    0.56920    0.36330    1.000
    H23      H        0.84780    0.56460    0.32390    1.000
    C33      C        0.84480    0.62770    0.38960    1.000
    H24      H        0.82070    0.66270    0.36700    1.000
    C34      C        0.94560    0.34010    0.37790    1.000
    C35      C        0.92520    0.39600    0.29440    1.000
    C36      C        0.91660    0.45390    0.37070    1.000
    N1       N        0.23010    0.63860    0.86380    1.000
    N2       N        0.22250    0.49720    0.49400    1.000
    N3       N        0.12310    0.98400    0.55900    1.000
    N4       N        0.19810    0.76680    0.67750    1.000
    N5       N        0.21120    0.64620    0.65720    1.000
    N6       N        0.18730    0.73000    0.58240    1.000
    N7       N        0.01210    0.15520    0.47520    1.000
    N8       N        0.91460    0.38730    0.11700    1.000
    N9       N        0.86200    0.63590    0.44590    1.000
    N10      N        0.93510    0.39820    0.40450    1.000
    N11      N        0.93960    0.33500    0.32220    1.000
    N12      N        0.91230    0.45650    0.31540    1.000
    Ag4      Ag       0.73663    0.09538    0.94711    1.000
    Ag5      Ag       0.56788    0.57225    0.52235    1.000
    Ag6      Ag       0.33410    0.22747    0.48353    1.000
    Cl2      Cl       0.81020    0.17396    0.03140    1.000
    C37      C        0.73010    0.08980    0.82340    1.000
    H25      H        0.73460    0.04220    0.83360    1.000
    C38      C        0.72390    0.10790    0.76820    1.000
    H26      H        0.72380    0.07330    0.74130    1.000
    C39      C        0.71760    0.17930    0.75280    1.000
    C40      C        0.71870    0.22930    0.79410    1.000
    H27      H        0.71600    0.27750    0.78550    1.000
    C41      C        0.72400    0.20570    0.84870    1.000
    H28      H        0.72320    0.23920    0.87620    1.000
    C42      C        0.69410    0.05760    0.47240    1.000
    H29      H        0.68050    0.06280    0.43300    1.000
    C43      C        0.68390    0.11320    0.50590    1.000
    H30      H        0.66200    0.15320    0.48920    1.000
    C44      C        0.70690    0.10750    0.56390    1.000
    C45      C        0.73710    0.04600    0.58710    1.000
    H31      H        0.75200    0.04040    0.62640    1.000
    C46      C        0.74480    0.99310    0.55130    1.000
    H32      H        0.76640    0.95260    0.56730    1.000
    C47      C        0.63860    0.46960    0.61390    1.000
    H33      H        0.63360    0.50510    0.63840    1.000
    C48      C        0.66170    0.40590    0.63690    1.000
    H34      H        0.67250    0.39870    0.67610    1.000
    C49      C        0.66850    0.35240    0.60100    1.000
    C50      C        0.65450    0.36730    0.54250    1.000
    H35      H        0.66000    0.33310    0.51710    1.000
    C51      C        0.63250    0.43390    0.52370    1.000
    H36      H        0.62400    0.44440    0.48520    1.000
    C52      C        0.70940    0.19880    0.69300    1.000
    C53      C        0.70210    0.16470    0.60360    1.000
    C54      C        0.68620    0.27780    0.62140    1.000
    C55      C        0.50230    0.65620    0.41830    1.000
    H37      H        0.51060    0.61570    0.40030    1.000
    C56      C        0.48060    0.71480    0.38680    1.000
    H38      H        0.47510    0.71440    0.34780    1.000
    C57      C        0.46670    0.77430    0.41180    1.000
    C58      C        0.47240    0.77280    0.46990    1.000
    H39      H        0.46100    0.81150    0.48790    1.000
    C59      C        0.49550    0.71170    0.49960    1.000
    H40      H        0.49960    0.70990    0.53830    1.000
    C60      C        0.42030    0.94970    0.14480    1.000
    H41      H        0.42240    0.99090    0.12480    1.000
    C61      C        0.42320    0.95580    0.20130    1.000
    H42      H        0.42530    0.99980    0.21870    1.000
    C62      C        0.42270    0.89320    0.23150    1.000
    C63      C        0.42000    0.83030    0.20520    1.000
    H43      H        0.42150    0.78830    0.22530    1.000
    C64      C        0.41480    0.82920    0.14750    1.000
    H44      H        0.41140    0.78550    0.12940    1.000
    C65      C        0.39800    0.08660    0.47860    1.000
    H45      H        0.41090    0.09280    0.51790    1.000
    C66      C        0.41660    0.02660    0.45560    1.000
    H46      H        0.44100    0.99270    0.47940    1.000
    C67      C        0.39880    0.01700    0.39710    1.000
    C68      C        0.36130    0.06920    0.36330    1.000
    H47      H        0.34780    0.06460    0.32390    1.000
    C69      C        0.34480    0.12770    0.38960    1.000
    H48      H        0.32070    0.16270    0.36700    1.000
    C70      C        0.44560    0.84010    0.37790    1.000
    C71      C        0.42520    0.89600    0.29440    1.000
    C72      C        0.41660    0.95390    0.37070    1.000
    N13      N        0.73010    0.13860    0.86380    1.000
    N14      N        0.72250    0.99720    0.49400    1.000
    N15      N        0.62310    0.48400    0.55900    1.000
    N16      N        0.69810    0.26680    0.67750    1.000
    N17      N        0.71120    0.14620    0.65720    1.000
    N18      N        0.68730    0.23000    0.58240    1.000
    N19      N        0.51210    0.65520    0.47520    1.000
    N20      N        0.41460    0.88730    0.11700    1.000
    N21      N        0.36200    0.13590    0.44590    1.000
    N22      N        0.43510    0.89820    0.40450    1.000
    N23      N        0.43960    0.83500    0.32220    1.000
    N24      N        0.41230    0.95650    0.31540    1.000
    Ag7      Ag       0.23663    0.40462    0.44711    1.000
    Ag8      Ag       0.06788    0.92775    0.02235    1.000
    Ag9      Ag       0.83410    0.27253    0.98353    1.000
    Cl3      Cl       0.31020    0.32604    0.53140    1.000
    C73      C        0.23010    0.41020    0.32340    1.000
    H49      H        0.23460    0.45780    0.33360    1.000
    C74      C        0.22390    0.39210    0.26820    1.000
    H50      H        0.22380    0.42670    0.24130    1.000
    C75      C        0.21760    0.32070    0.25280    1.000
    C76      C        0.21870    0.27070    0.29410    1.000
    H51      H        0.21600    0.22250    0.28550    1.000
    C77      C        0.22400    0.29430    0.34870    1.000
    H52      H        0.22320    0.26080    0.37620    1.000
    C78      C        0.19410    0.44240    0.97240    1.000
    H53      H        0.18050    0.43720    0.93300    1.000
    C79      C        0.18390    0.38680    0.00590    1.000
    H54      H        0.16200    0.34680    0.98920    1.000
    C80      C        0.20690    0.39250    0.06390    1.000
    C81      C        0.23710    0.45400    0.08710    1.000
    H55      H        0.25200    0.45960    0.12640    1.000
    C82      C        0.24480    0.50690    0.05130    1.000
    H56      H        0.26640    0.54740    0.06730    1.000
    C83      C        0.13860    0.03040    0.11390    1.000
    H57      H        0.13360    0.99490    0.13840    1.000
    C84      C        0.16170    0.09410    0.13690    1.000
    H58      H        0.17250    0.10130    0.17610    1.000
    C85      C        0.16850    0.14760    0.10100    1.000
    C86      C        0.15450    0.13270    0.04250    1.000
    H59      H        0.16000    0.16690    0.01710    1.000
    C87      C        0.13250    0.06610    0.02370    1.000
    H60      H        0.12400    0.05560    0.98520    1.000
    C88      C        0.20940    0.30120    0.19300    1.000
    C89      C        0.20210    0.33530    0.10360    1.000
    C90      C        0.18620    0.22220    0.12140    1.000
    C91      C        0.00230    0.84380    0.91830    1.000
    H61      H        0.01060    0.88430    0.90030    1.000
    C92      C        0.98060    0.78520    0.88680    1.000
    H62      H        0.97510    0.78560    0.84780    1.000
    C93      C        0.96670    0.72570    0.91180    1.000
    C94      C        0.97240    0.72720    0.96990    1.000
    H63      H        0.96100    0.68850    0.98790    1.000
    C95      C        0.99550    0.78830    0.99960    1.000
    H64      H        0.99960    0.79010    0.03830    1.000
    C96      C        0.92030    0.55030    0.64480    1.000
    H65      H        0.92240    0.50910    0.62480    1.000
    C97      C        0.92320    0.54420    0.70130    1.000
    H66      H        0.92530    0.50020    0.71870    1.000
    C98      C        0.92270    0.60680    0.73150    1.000
    C99      C        0.92000    0.66970    0.70520    1.000
    H67      H        0.92150    0.71170    0.72530    1.000
    C100     C        0.91480    0.67080    0.64750    1.000
    H68      H        0.91140    0.71450    0.62940    1.000
    C101     C        0.89800    0.41340    0.97860    1.000
    H69      H        0.91090    0.40720    0.01790    1.000
    C102     C        0.91660    0.47340    0.95560    1.000
    H70      H        0.94100    0.50730    0.97940    1.000
    C103     C        0.89880    0.48300    0.89710    1.000
    C104     C        0.86130    0.43080    0.86330    1.000
    H71      H        0.84780    0.43540    0.82390    1.000
    C105     C        0.84480    0.37230    0.88960    1.000
    H72      H        0.82070    0.33730    0.86700    1.000
    C106     C        0.94560    0.65990    0.87790    1.000
    C107     C        0.92520    0.60400    0.79440    1.000
    C108     C        0.91660    0.54610    0.87070    1.000
    N25      N        0.23010    0.36140    0.36380    1.000
    N26      N        0.22250    0.50280    0.99400    1.000
    N27      N        0.12310    0.01600    0.05900    1.000
    N28      N        0.19810    0.23320    0.17750    1.000
    N29      N        0.21120    0.35380    0.15720    1.000
    N30      N        0.18730    0.27000    0.08240    1.000
    N31      N        0.01210    0.84480    0.97520    1.000
    N32      N        0.91460    0.61270    0.61700    1.000
    N33      N        0.86200    0.36410    0.94590    1.000
    N34      N        0.93510    0.60180    0.90450    1.000
    N35      N        0.93960    0.66500    0.82220    1.000
    N36      N        0.91230    0.54350    0.81540    1.000
    Ag10     Ag       0.73663    0.90462    0.44711    1.000
    Ag11     Ag       0.56788    0.42775    0.02235    1.000
    Ag12     Ag       0.33410    0.77253    0.98353    1.000
    Cl4      Cl       0.81020    0.82604    0.53140    1.000
    C109     C        0.73010    0.91020    0.32340    1.000
    H73      H        0.73460    0.95780    0.33360    1.000
    C110     C        0.72390    0.89210    0.26820    1.000
    H74      H        0.72380    0.92670    0.24130    1.000
    C111     C        0.71760    0.82070    0.25280    1.000
    C112     C        0.71870    0.77070    0.29410    1.000
    H75      H        0.71600    0.72250    0.28550    1.000
    C113     C        0.72400    0.79430    0.34870    1.000
    H76      H        0.72320    0.76080    0.37620    1.000
    C114     C        0.69410    0.94240    0.97240    1.000
    H77      H        0.68050    0.93720    0.93300    1.000
    C115     C        0.68390    0.88680    0.00590    1.000
    H78      H        0.66200    0.84680    0.98920    1.000
    C116     C        0.70690    0.89250    0.06390    1.000
    C117     C        0.73710    0.95400    0.08710    1.000
    H79      H        0.75200    0.95960    0.12640    1.000
    C118     C        0.74480    0.00690    0.05130    1.000
    H80      H        0.76640    0.04740    0.06730    1.000
    C119     C        0.63860    0.53040    0.11390    1.000
    H81      H        0.63360    0.49490    0.13840    1.000
    C120     C        0.66170    0.59410    0.13690    1.000
    H82      H        0.67250    0.60130    0.17610    1.000
    C121     C        0.66850    0.64760    0.10100    1.000
    C122     C        0.65450    0.63270    0.04250    1.000
    H83      H        0.66000    0.66690    0.01710    1.000
    C123     C        0.63250    0.56610    0.02370    1.000
    H84      H        0.62400    0.55560    0.98520    1.000
    C124     C        0.70940    0.80120    0.19300    1.000
    C125     C        0.70210    0.83530    0.10360    1.000
    C126     C        0.68620    0.72220    0.12140    1.000
    C127     C        0.50230    0.34380    0.91830    1.000
    H85      H        0.51060    0.38430    0.90030    1.000
    C128     C        0.48060    0.28520    0.88680    1.000
    H86      H        0.47510    0.28560    0.84780    1.000
    C129     C        0.46670    0.22570    0.91180    1.000
    C130     C        0.47240    0.22720    0.96990    1.000
    H87      H        0.46100    0.18850    0.98790    1.000
    C131     C        0.49550    0.28830    0.99960    1.000
    H88      H        0.49960    0.29010    0.03830    1.000
    C132     C        0.42030    0.05030    0.64480    1.000
    H89      H        0.42240    0.00910    0.62480    1.000
    C133     C        0.42320    0.04420    0.70130    1.000
    H90      H        0.42530    0.00020    0.71870    1.000
    C134     C        0.42270    0.10680    0.73150    1.000
    C135     C        0.42000    0.16970    0.70520    1.000
    H91      H        0.42150    0.21170    0.72530    1.000
    C136     C        0.41480    0.17080    0.64750    1.000
    H92      H        0.41140    0.21450    0.62940    1.000
    C137     C        0.39800    0.91340    0.97860    1.000
    H93      H        0.41090    0.90720    0.01790    1.000
    C138     C        0.41660    0.97340    0.95560    1.000
    H94      H        0.44100    0.00730    0.97940    1.000
    C139     C        0.39880    0.98300    0.89710    1.000
    C140     C        0.36130    0.93080    0.86330    1.000
    H95      H        0.34780    0.93540    0.82390    1.000
    C141     C        0.34480    0.87230    0.88960    1.000
    H96      H        0.32070    0.83730    0.86700    1.000
    C142     C        0.44560    0.15990    0.87790    1.000
    C143     C        0.42520    0.10400    0.79440    1.000
    C144     C        0.41660    0.04610    0.87070    1.000
    N37      N        0.73010    0.86140    0.36380    1.000
    N38      N        0.72250    0.00280    0.99400    1.000
    N39      N        0.62310    0.51600    0.05900    1.000
    N40      N        0.69810    0.73320    0.17750    1.000
    N41      N        0.71120    0.85380    0.15720    1.000
    N42      N        0.68730    0.77000    0.08240    1.000
    N43      N        0.51210    0.34480    0.97520    1.000
    N44      N        0.41460    0.11270    0.61700    1.000
    N45      N        0.36200    0.86410    0.94590    1.000
    N46      N        0.43510    0.10180    0.90450    1.000
    N47      N        0.43960    0.16500    0.82220    1.000
    N48      N        0.41230    0.04350    0.81540    1.000
    Ag13     Ag       0.76337    0.59538    0.55289    1.000
    Ag14     Ag       0.93212    0.07225    0.97765    1.000
    Ag15     Ag       0.16590    0.72747    0.01647    1.000
    Cl5      Cl       0.68980    0.67396    0.46860    1.000
    C145     C        0.76990    0.58980    0.67660    1.000
    H97      H        0.76540    0.54220    0.66640    1.000
    C146     C        0.77610    0.60790    0.73180    1.000
    H98      H        0.77620    0.57330    0.75870    1.000
    C147     C        0.78240    0.67930    0.74720    1.000
    C148     C        0.78130    0.72930    0.70590    1.000
    H99      H        0.78400    0.77750    0.71450    1.000
    C149     C        0.77600    0.70570    0.65130    1.000
    H100     H        0.77680    0.73920    0.62380    1.000
    C150     C        0.80590    0.55760    0.02760    1.000
    H101     H        0.81950    0.56280    0.06700    1.000
    C151     C        0.81610    0.61320    0.99410    1.000
    H102     H        0.83800    0.65320    0.01080    1.000
    C152     C        0.79310    0.60750    0.93610    1.000
    C153     C        0.76290    0.54600    0.91290    1.000
    H103     H        0.74800    0.54040    0.87360    1.000
    C154     C        0.75520    0.49310    0.94870    1.000
    H104     H        0.73360    0.45260    0.93270    1.000
    C155     C        0.86140    0.96960    0.88610    1.000
    H105     H        0.86640    0.00510    0.86160    1.000
    C156     C        0.83830    0.90590    0.86310    1.000
    H106     H        0.82750    0.89870    0.82390    1.000
    C157     C        0.83150    0.85240    0.89900    1.000
    C158     C        0.84550    0.86730    0.95750    1.000
    H107     H        0.84000    0.83310    0.98290    1.000
    C159     C        0.86750    0.93390    0.97630    1.000
    H108     H        0.87600    0.94440    0.01480    1.000
    C160     C        0.79060    0.69880    0.80700    1.000
    C161     C        0.79790    0.66470    0.89640    1.000
    C162     C        0.81380    0.77780    0.87860    1.000
    C163     C        0.99770    0.15620    0.08170    1.000
    H109     H        0.98940    0.11570    0.09970    1.000
    C164     C        0.01940    0.21480    0.11320    1.000
    H110     H        0.02490    0.21440    0.15220    1.000
    C165     C        0.03330    0.27430    0.08820    1.000
    C166     C        0.02760    0.27280    0.03010    1.000
    H111     H        0.03900    0.31150    0.01210    1.000
    C167     C        0.00450    0.21170    0.00040    1.000
    H112     H        0.00040    0.20990    0.96170    1.000
    C168     C        0.07970    0.44970    0.35520    1.000
    H113     H        0.07760    0.49090    0.37520    1.000
    C169     C        0.07680    0.45580    0.29870    1.000
    H114     H        0.07470    0.49980    0.28130    1.000
    C170     C        0.07730    0.39320    0.26850    1.000
    C171     C        0.08000    0.33030    0.29480    1.000
    H115     H        0.07850    0.28830    0.27470    1.000
    C172     C        0.08520    0.32920    0.35250    1.000
    H116     H        0.08860    0.28550    0.37060    1.000
    C173     C        0.10200    0.58660    0.02140    1.000
    H117     H        0.08910    0.59280    0.98210    1.000
    C174     C        0.08340    0.52660    0.04440    1.000
    H118     H        0.05900    0.49270    0.02060    1.000
    C175     C        0.10120    0.51700    0.10290    1.000
    C176     C        0.13870    0.56920    0.13670    1.000
    H119     H        0.15220    0.56460    0.17610    1.000
    C177     C        0.15520    0.62770    0.11040    1.000
    H120     H        0.17930    0.66270    0.13300    1.000
    C178     C        0.05440    0.34010    0.12210    1.000
    C179     C        0.07480    0.39600    0.20560    1.000
    C180     C        0.08340    0.45390    0.12930    1.000
    N49      N        0.76990    0.63860    0.63620    1.000
    N50      N        0.77750    0.49720    0.00600    1.000
    N51      N        0.87690    0.98400    0.94100    1.000
    N52      N        0.80190    0.76680    0.82250    1.000
    N53      N        0.78880    0.64620    0.84280    1.000
    N54      N        0.81270    0.73000    0.91760    1.000
    N55      N        0.98790    0.15520    0.02480    1.000
    N56      N        0.08540    0.38730    0.38300    1.000
    N57      N        0.13800    0.63590    0.05410    1.000
    N58      N        0.06490    0.39820    0.09550    1.000
    N59      N        0.06040    0.33500    0.17780    1.000
    N60      N        0.08770    0.45650    0.18460    1.000
    Ag16     Ag       0.26337    0.09538    0.55289    1.000
    Ag17     Ag       0.43212    0.57225    0.97765    1.000
    Ag18     Ag       0.66590    0.22747    0.01647    1.000
    Cl6      Cl       0.18980    0.17396    0.46860    1.000
    C181     C        0.26990    0.08980    0.67660    1.000
    H121     H        0.26540    0.04220    0.66640    1.000
    C182     C        0.27610    0.10790    0.73180    1.000
    H122     H        0.27620    0.07330    0.75870    1.000
    C183     C        0.28240    0.17930    0.74720    1.000
    C184     C        0.28130    0.22930    0.70590    1.000
    H123     H        0.28400    0.27750    0.71450    1.000
    C185     C        0.27600    0.20570    0.65130    1.000
    H124     H        0.27680    0.23920    0.62380    1.000
    C186     C        0.30590    0.05760    0.02760    1.000
    H125     H        0.31950    0.06280    0.06700    1.000
    C187     C        0.31610    0.11320    0.99410    1.000
    H126     H        0.33800    0.15320    0.01080    1.000
    C188     C        0.29310    0.10750    0.93610    1.000
    C189     C        0.26290    0.04600    0.91290    1.000
    H127     H        0.24800    0.04040    0.87360    1.000
    C190     C        0.25520    0.99310    0.94870    1.000
    H128     H        0.23360    0.95260    0.93270    1.000
    C191     C        0.36140    0.46960    0.88610    1.000
    H129     H        0.36640    0.50510    0.86160    1.000
    C192     C        0.33830    0.40590    0.86310    1.000
    H130     H        0.32750    0.39870    0.82390    1.000
    C193     C        0.33150    0.35240    0.89900    1.000
    C194     C        0.34550    0.36730    0.95750    1.000
    H131     H        0.34000    0.33310    0.98290    1.000
    C195     C        0.36750    0.43390    0.97630    1.000
    H132     H        0.37600    0.44440    0.01480    1.000
    C196     C        0.29060    0.19880    0.80700    1.000
    C197     C        0.29790    0.16470    0.89640    1.000
    C198     C        0.31380    0.27780    0.87860    1.000
    C199     C        0.49770    0.65620    0.08170    1.000
    H133     H        0.48940    0.61570    0.09970    1.000
    C200     C        0.51940    0.71480    0.11320    1.000
    H134     H        0.52490    0.71440    0.15220    1.000
    C201     C        0.53330    0.77430    0.08820    1.000
    C202     C        0.52760    0.77280    0.03010    1.000
    H135     H        0.53900    0.81150    0.01210    1.000
    C203     C        0.50450    0.71170    0.00040    1.000
    H136     H        0.50040    0.70990    0.96170    1.000
    C204     C        0.57970    0.94970    0.35520    1.000
    H137     H        0.57760    0.99090    0.37520    1.000
    C205     C        0.57680    0.95580    0.29870    1.000
    H138     H        0.57470    0.99980    0.28130    1.000
    C206     C        0.57730    0.89320    0.26850    1.000
    C207     C        0.58000    0.83030    0.29480    1.000
    H139     H        0.57850    0.78830    0.27470    1.000
    C208     C        0.58520    0.82920    0.35250    1.000
    H140     H        0.58860    0.78550    0.37060    1.000
    C209     C        0.60200    0.08660    0.02140    1.000
    H141     H        0.58910    0.09280    0.98210    1.000
    C210     C        0.58340    0.02660    0.04440    1.000
    H142     H        0.55900    0.99270    0.02060    1.000
    C211     C        0.60120    0.01700    0.10290    1.000
    C212     C        0.63870    0.06920    0.13670    1.000
    H143     H        0.65220    0.06460    0.17610    1.000
    C213     C        0.65520    0.12770    0.11040    1.000
    H144     H        0.67930    0.16270    0.13300    1.000
    C214     C        0.55440    0.84010    0.12210    1.000
    C215     C        0.57480    0.89600    0.20560    1.000
    C216     C        0.58340    0.95390    0.12930    1.000
    N61      N        0.26990    0.13860    0.63620    1.000
    N62      N        0.27750    0.99720    0.00600    1.000
    N63      N        0.37690    0.48400    0.94100    1.000
    N64      N        0.30190    0.26680    0.82250    1.000
    N65      N        0.28880    0.14620    0.84280    1.000
    N66      N        0.31270    0.23000    0.91760    1.000
    N67      N        0.48790    0.65520    0.02480    1.000
    N68      N        0.58540    0.88730    0.38300    1.000
    N69      N        0.63800    0.13590    0.05410    1.000
    N70      N        0.56490    0.89820    0.09550    1.000
    N71      N        0.56040    0.83500    0.17780    1.000
    N72      N        0.58770    0.95650    0.18460    1.000
    Ag19     Ag       0.76337    0.40462    0.05289    1.000
    Ag20     Ag       0.93212    0.92775    0.47765    1.000
    Ag21     Ag       0.16590    0.27253    0.51647    1.000
    Cl7      Cl       0.68980    0.32604    0.96860    1.000
    C217     C        0.76990    0.41020    0.17660    1.000
    H145     H        0.76540    0.45780    0.16640    1.000
    C218     C        0.77610    0.39210    0.23180    1.000
    H146     H        0.77620    0.42670    0.25870    1.000
    C219     C        0.78240    0.32070    0.24720    1.000
    C220     C        0.78130    0.27070    0.20590    1.000
    H147     H        0.78400    0.22250    0.21450    1.000
    C221     C        0.77600    0.29430    0.15130    1.000
    H148     H        0.77680    0.26080    0.12380    1.000
    C222     C        0.80590    0.44240    0.52760    1.000
    H149     H        0.81950    0.43720    0.56700    1.000
    C223     C        0.81610    0.38680    0.49410    1.000
    H150     H        0.83800    0.34680    0.51080    1.000
    C224     C        0.79310    0.39250    0.43610    1.000
    C225     C        0.76290    0.45400    0.41290    1.000
    H151     H        0.74800    0.45960    0.37360    1.000
    C226     C        0.75520    0.50690    0.44870    1.000
    H152     H        0.73360    0.54740    0.43270    1.000
    C227     C        0.86140    0.03040    0.38610    1.000
    H153     H        0.86640    0.99490    0.36160    1.000
    C228     C        0.83830    0.09410    0.36310    1.000
    H154     H        0.82750    0.10130    0.32390    1.000
    C229     C        0.83150    0.14760    0.39900    1.000
    C230     C        0.84550    0.13270    0.45750    1.000
    H155     H        0.84000    0.16690    0.48290    1.000
    C231     C        0.86750    0.06610    0.47630    1.000
    H156     H        0.87600    0.05560    0.51480    1.000
    C232     C        0.79060    0.30120    0.30700    1.000
    C233     C        0.79790    0.33530    0.39640    1.000
    C234     C        0.81380    0.22220    0.37860    1.000
    C235     C        0.99770    0.84380    0.58170    1.000
    H157     H        0.98940    0.88430    0.59970    1.000
    C236     C        0.01940    0.78520    0.61320    1.000
    H158     H        0.02490    0.78560    0.65220    1.000
    C237     C        0.03330    0.72570    0.58820    1.000
    C238     C        0.02760    0.72720    0.53010    1.000
    H159     H        0.03900    0.68850    0.51210    1.000
    C239     C        0.00450    0.78830    0.50040    1.000
    H160     H        0.00040    0.79010    0.46170    1.000
    C240     C        0.07970    0.55030    0.85520    1.000
    H161     H        0.07760    0.50910    0.87520    1.000
    C241     C        0.07680    0.54420    0.79870    1.000
    H162     H        0.07470    0.50020    0.78130    1.000
    C242     C        0.07730    0.60680    0.76850    1.000
    C243     C        0.08000    0.66970    0.79480    1.000
    H163     H        0.07850    0.71170    0.77470    1.000
    C244     C        0.08520    0.67080    0.85250    1.000
    H164     H        0.08860    0.71450    0.87060    1.000
    C245     C        0.10200    0.41340    0.52140    1.000
    H165     H        0.08910    0.40720    0.48210    1.000
    C246     C        0.08340    0.47340    0.54440    1.000
    H166     H        0.05900    0.50730    0.52060    1.000
    C247     C        0.10120    0.48300    0.60290    1.000
    C248     C        0.13870    0.43080    0.63670    1.000
    H167     H        0.15220    0.43540    0.67610    1.000
    C249     C        0.15520    0.37230    0.61040    1.000
    H168     H        0.17930    0.33730    0.63300    1.000
    C250     C        0.05440    0.65990    0.62210    1.000
    C251     C        0.07480    0.60400    0.70560    1.000
    C252     C        0.08340    0.54610    0.62930    1.000
    N73      N        0.76990    0.36140    0.13620    1.000
    N74      N        0.77750    0.50280    0.50600    1.000
    N75      N        0.87690    0.01600    0.44100    1.000
    N76      N        0.80190    0.23320    0.32250    1.000
    N77      N        0.78880    0.35380    0.34280    1.000
    N78      N        0.81270    0.27000    0.41760    1.000
    N79      N        0.98790    0.84480    0.52480    1.000
    N80      N        0.08540    0.61270    0.88300    1.000
    N81      N        0.13800    0.36410    0.55410    1.000
    N82      N        0.06490    0.60180    0.59550    1.000
    N83      N        0.06040    0.66500    0.67780    1.000
    N84      N        0.08770    0.54350    0.68460    1.000
    Ag22     Ag       0.26337    0.90462    0.05289    1.000
    Ag23     Ag       0.43212    0.42775    0.47765    1.000
    Ag24     Ag       0.66590    0.77253    0.51647    1.000
    Cl8      Cl       0.18980    0.82604    0.96860    1.000
    C253     C        0.26990    0.91020    0.17660    1.000
    H169     H        0.26540    0.95780    0.16640    1.000
    C254     C        0.27610    0.89210    0.23180    1.000
    H170     H        0.27620    0.92670    0.25870    1.000
    C255     C        0.28240    0.82070    0.24720    1.000
    C256     C        0.28130    0.77070    0.20590    1.000
    H171     H        0.28400    0.72250    0.21450    1.000
    C257     C        0.27600    0.79430    0.15130    1.000
    H172     H        0.27680    0.76080    0.12380    1.000
    C258     C        0.30590    0.94240    0.52760    1.000
    H173     H        0.31950    0.93720    0.56700    1.000
    C259     C        0.31610    0.88680    0.49410    1.000
    H174     H        0.33800    0.84680    0.51080    1.000
    C260     C        0.29310    0.89250    0.43610    1.000
    C261     C        0.26290    0.95400    0.41290    1.000
    H175     H        0.24800    0.95960    0.37360    1.000
    C262     C        0.25520    0.00690    0.44870    1.000
    H176     H        0.23360    0.04740    0.43270    1.000
    C263     C        0.36140    0.53040    0.38610    1.000
    H177     H        0.36640    0.49490    0.36160    1.000
    C264     C        0.33830    0.59410    0.36310    1.000
    H178     H        0.32750    0.60130    0.32390    1.000
    C265     C        0.33150    0.64760    0.39900    1.000
    C266     C        0.34550    0.63270    0.45750    1.000
    H179     H        0.34000    0.66690    0.48290    1.000
    C267     C        0.36750    0.56610    0.47630    1.000
    H180     H        0.37600    0.55560    0.51480    1.000
    C268     C        0.29060    0.80120    0.30700    1.000
    C269     C        0.29790    0.83530    0.39640    1.000
    C270     C        0.31380    0.72220    0.37860    1.000
    C271     C        0.49770    0.34380    0.58170    1.000
    H181     H        0.48940    0.38430    0.59970    1.000
    C272     C        0.51940    0.28520    0.61320    1.000
    H182     H        0.52490    0.28560    0.65220    1.000
    C273     C        0.53330    0.22570    0.58820    1.000
    C274     C        0.52760    0.22720    0.53010    1.000
    H183     H        0.53900    0.18850    0.51210    1.000
    C275     C        0.50450    0.28830    0.50040    1.000
    H184     H        0.50040    0.29010    0.46170    1.000
    C276     C        0.57970    0.05030    0.85520    1.000
    H185     H        0.57760    0.00910    0.87520    1.000
    C277     C        0.57680    0.04420    0.79870    1.000
    H186     H        0.57470    0.00020    0.78130    1.000
    C278     C        0.57730    0.10680    0.76850    1.000
    C279     C        0.58000    0.16970    0.79480    1.000
    H187     H        0.57850    0.21170    0.77470    1.000
    C280     C        0.58520    0.17080    0.85250    1.000
    H188     H        0.58860    0.21450    0.87060    1.000
    C281     C        0.60200    0.91340    0.52140    1.000
    H189     H        0.58910    0.90720    0.48210    1.000
    C282     C        0.58340    0.97340    0.54440    1.000
    H190     H        0.55900    0.00730    0.52060    1.000
    C283     C        0.60120    0.98300    0.60290    1.000
    C284     C        0.63870    0.93080    0.63670    1.000
    H191     H        0.65220    0.93540    0.67610    1.000
    C285     C        0.65520    0.87230    0.61040    1.000
    H192     H        0.67930    0.83730    0.63300    1.000
    C286     C        0.55440    0.15990    0.62210    1.000
    C287     C        0.57480    0.10400    0.70560    1.000
    C288     C        0.58340    0.04610    0.62930    1.000
    N85      N        0.26990    0.86140    0.13620    1.000
    N86      N        0.27750    0.00280    0.50600    1.000
    N87      N        0.37690    0.51600    0.44100    1.000
    N88      N        0.30190    0.73320    0.32250    1.000
    N89      N        0.28880    0.85380    0.34280    1.000
    N90      N        0.31270    0.77000    0.41760    1.000
    N91      N        0.48790    0.34480    0.52480    1.000
    N92      N        0.58540    0.11270    0.88300    1.000
    N93      N        0.63800    0.86410    0.55410    1.000
    N94      N        0.56490    0.10180    0.59550    1.000
    N95      N        0.56040    0.16500    0.67780    1.000
    N96      N        0.58770    0.04350    0.68460    1.000
