data_functionalizedCrystal
_audit_creation_method	'EQeq! by Chris Wilmer'
_symmetry_space_group_name_H-M	'P1'
_symmetry_Int_Tables_number	1
_symmetry_cell_setting	triclinic
loop_
_symmetry_equiv_pos_as_xyz
  x,y,z
_cell_length_a	15.9333
_cell_length_b	15.9333
_cell_length_c	21.1312
_cell_angle_alpha	90
_cell_angle_beta	90
_cell_angle_gamma	90
loop_
_atom_site_label
_atom_site_type_symbol
_atom_site_fract_x
_atom_site_fract_y
_atom_site_fract_z
_atom_site_charge
Mof_C 	C 	0.3019	0.4306	0.19	0.079
Mof_H 	H 	0.3403	0.4379	0.1574	0.013
Mof_C 	C 	0.2534	0.4653	0.2888	0.077
Mof_H 	H 	0.2575	0.4966	0.3259	0.008
Mof_C 	C 	0.1881	0.4104	0.2826	-0.136
Mof_H 	H 	0.1492	0.4058	0.3152	0.076
Mof_C 	C 	0.1782	0.3607	0.2283	0.064
Mof_C 	C 	0.2389	0.3749	0.1816	-0.135
Mof_H 	H 	0.2358	0.3453	0.1438	0.074
Mof_C 	C 	0.1122	0.2964	0.2223	0.025
Mof_C 	C 	0.0373	0.3004	0.258	-0.093
Mof_H 	H 	0.0287	0.3449	0.2857	0.06
Mof_C 	C 	0.9784	0.2403	0.2521	0.017
Mof_H 	H 	0.9292	0.2449	0.2756	0.019
Mof_C 	C 	0.9888	0.171	0.2117	-0.094
Mof_H 	H 	0.9476	0.1299	0.2082	0.067
Mof_C 	C 	0.0633	0.1663	0.1772	0.033
Mof_C 	C 	0.1228	0.2276	0.1828	-0.097
Mof_H 	H 	0.172	0.223	0.1594	0.068
Mof_C 	C 	0.0712	0.0941	0.1337	0.087
Mof_C 	C 	0.1231	0.9967	0.0702	0.092
Mof_C 	C 	0.1847	0.9425	0.0395	-0.001
Mof_C 	C 	0.2171	0.9631	0.9793	-0.054
Mof_H 	H 	0.1981	0.0102	0.9575	0.057
Mof_C 	C 	0.2782	0.9112	0.9534	-0.02
Mof_H 	H 	0.301	0.9243	0.9141	0.036
Mof_C 	C 	0.3057	0.8403	0.9852	-0.058
Mof_H 	H 	0.3455	0.8057	0.9664	0.052
Mof_C 	C 	0.2746	0.82	0.0449	-0.003
Mof_C 	C 	0.2138	0.8719	0.0709	-0.068
Mof_H 	H 	0.1921	0.859	0.1106	0.054
Mof_C 	C 	0.3059	0.7464	0.081	0.08
Mof_C 	C 	0.2623	0.7175	0.1348	-0.144
Mof_H 	H 	0.21	0.7397	0.1451	0.077
Mof_C 	C 	0.2986	0.6548	0.1727	0.08
Mof_H 	H 	0.2692	0.6371	0.2083	0.004
Mof_C 	C 	0.4101	0.6422	0.1067	0.076
Mof_H 	H 	0.4599	0.6158	0.0955	0.012
Mof_C 	C 	0.3772	0.7045	0.0668	-0.146
Mof_H 	H 	0.4052	0.7173	0.0295	0.081
Mof_N 	N 	0.0396	0.9924	0.0684	-0.116
Mof_N 	N 	0.0079	0.0547	0.1089	-0.102
Mof_N 	N 	0.1448	0.0594	0.111	-0.105
Mof_N 	N 	0.2259	0.0831	0.1295	-0.222
Mof_H 	H 	0.2557	0.0372	0.1379	0.118
Mof_H 	H 	0.2503	0.1115	0.0982	0.115
Mof_N 	N 	0.312	0.4763	0.2437	-0.149
Mof_N 	N 	0.3716	0.6196	0.1609	-0.154
Mof_C 	C 	0.6981	0.5694	0.69	0.078
Mof_H 	H 	0.6597	0.5621	0.6574	0.012
Mof_C 	C 	0.7466	0.5347	0.7888	0.076
Mof_H 	H 	0.7425	0.5034	0.8259	0.007
Mof_C 	C 	0.8119	0.5896	0.7826	-0.137
Mof_H 	H 	0.8508	0.5942	0.8152	0.076
Mof_C 	C 	0.8218	0.6393	0.7283	0.064
Mof_C 	C 	0.7611	0.6251	0.6816	-0.136
Mof_H 	H 	0.7642	0.6547	0.6438	0.074
Mof_C 	C 	0.8878	0.7036	0.7223	0.025
Mof_C 	C 	0.9627	0.6996	0.758	-0.092
Mof_H 	H 	0.9713	0.6551	0.7857	0.06
Mof_C 	C 	0.0216	0.7597	0.7521	0.016
Mof_H 	H 	0.0708	0.7551	0.7756	0.02
Mof_C 	C 	0.0112	0.829	0.7117	-0.095
Mof_H 	H 	0.0524	0.8701	0.7082	0.067
Mof_C 	C 	0.9367	0.8337	0.6772	0.034
Mof_C 	C 	0.8772	0.7724	0.6828	-0.096
Mof_H 	H 	0.828	0.777	0.6594	0.069
Mof_C 	C 	0.9288	0.9059	0.6337	0.088
Mof_C 	C 	0.8769	0.0033	0.5702	0.088
Mof_C 	C 	0.8153	0.0575	0.5395	0.02
Mof_C 	C 	0.7829	0.0369	0.4793	-0.082
Mof_H 	H 	0.8019	0.9898	0.4575	0.066
Mof_C 	C 	0.7218	0.0888	0.4534	0.003
Mof_H 	H 	0.699	0.0757	0.4141	0.027
Mof_C 	C 	0.6943	0.1597	0.4852	-0.086
Mof_H 	H 	0.6545	0.1943	0.4664	0.06
Mof_C 	C 	0.7254	0.18	0.5449	0.02
Mof_C 	C 	0.7862	0.1281	0.5709	-0.086
Mof_H 	H 	0.8079	0.141	0.6106	0.06
Mof_C 	C 	0.6941	0.2536	0.581	0.071
Mof_C 	C 	0.7377	0.2825	0.6348	-0.138
Mof_H 	H 	0.79	0.2603	0.6451	0.075
Mof_C 	C 	0.7014	0.3452	0.6727	0.077
Mof_H 	H 	0.7308	0.3629	0.7083	0.005
Mof_C 	C 	0.5899	0.3578	0.6067	0.074
Mof_H 	H 	0.5401	0.3842	0.5955	0.014
Mof_C 	C 	0.6228	0.2955	0.5668	-0.139
Mof_H 	H 	0.5948	0.2827	0.5295	0.081
Mof_N 	N 	0.9604	0.0076	0.5684	-0.114
Mof_N 	N 	0.9921	0.9453	0.6089	-0.102
Mof_N 	N 	0.8552	0.9406	0.611	-0.104
Mof_N 	N 	0.7741	0.9169	0.6295	-0.223
Mof_H 	H 	0.7443	0.9628	0.6379	0.118
Mof_H 	H 	0.7497	0.8885	0.5982	0.116
Mof_N 	N 	0.688	0.5237	0.7437	-0.149
Mof_N 	N 	0.6284	0.3804	0.6609	-0.153
Mof_C 	C 	0.0694	0.8019	0.94	0.081
Mof_H 	H 	0.0621	0.8403	0.9074	0.012
Mof_C 	C 	0.0347	0.7534	0.0388	0.072
Mof_H 	H 	0.0034	0.7575	0.0759	0.007
Mof_C 	C 	0.0896	0.6881	0.0326	-0.145
Mof_H 	H 	0.0942	0.6492	0.0652	0.078
Mof_C 	C 	0.1393	0.6782	0.9783	0.073
Mof_C 	C 	0.1251	0.7389	0.9316	-0.138
Mof_H 	H 	0.1547	0.7358	0.8938	0.075
Mof_C 	C 	0.2036	0.6122	0.9723	0.028
Mof_C 	C 	0.1996	0.5373	0.008	-0.094
Mof_H 	H 	0.1551	0.5287	0.0357	0.059
Mof_C 	C 	0.2597	0.4784	0.0021	0.005
Mof_H 	H 	0.2551	0.4292	0.0256	0.022
Mof_C 	C 	0.329	0.4888	0.9617	-0.083
Mof_H 	H 	0.3701	0.4476	0.9582	0.065
Mof_C 	C 	0.3337	0.5633	0.9272	0.031
Mof_C 	C 	0.2724	0.6228	0.9328	-0.094
Mof_H 	H 	0.277	0.672	0.9094	0.068
Mof_C 	C 	0.4059	0.5712	0.8837	0.09
Mof_C 	C 	0.5033	0.6231	0.8202	0.086
Mof_C 	C 	0.5575	0.6847	0.7895	0.022
Mof_C 	C 	0.5369	0.7171	0.7293	-0.085
Mof_H 	H 	0.4898	0.6981	0.7075	0.067
Mof_C 	C 	0.5888	0.7782	0.7034	0.006
Mof_H 	H 	0.5757	0.801	0.6641	0.026
Mof_C 	C 	0.6597	0.8057	0.7352	-0.088
Mof_H 	H 	0.6943	0.8455	0.7164	0.061
Mof_C 	C 	0.68	0.7746	0.7949	0.021
Mof_C 	C 	0.6281	0.7138	0.8209	-0.087
Mof_H 	H 	0.641	0.6921	0.8606	0.061
Mof_C 	C 	0.7536	0.8059	0.831	0.071
Mof_C 	C 	0.7825	0.7623	0.8848	-0.137
Mof_H 	H 	0.7603	0.71	0.8951	0.076
Mof_C 	C 	0.8452	0.7986	0.9227	0.077
Mof_H 	H 	0.8629	0.7692	0.9583	0.007
Mof_C 	C 	0.8578	0.9101	0.8567	0.073
Mof_H 	H 	0.8842	0.9599	0.8455	0.014
Mof_C 	C 	0.7955	0.8772	0.8168	-0.138
Mof_H 	H 	0.7827	0.9052	0.7795	0.081
Mof_N 	N 	0.5076	0.5396	0.8184	-0.115
Mof_N 	N 	0.4453	0.5079	0.8589	-0.101
Mof_N 	N 	0.4406	0.6448	0.861	-0.104
Mof_N 	N 	0.4169	0.7259	0.8795	-0.222
Mof_H 	H 	0.4628	0.7557	0.8879	0.119
Mof_H 	H 	0.3885	0.7503	0.8482	0.116
Mof_N 	N 	0.0237	0.812	0.9937	-0.145
Mof_N 	N 	0.8804	0.8716	0.9109	-0.151
Mof_C 	C 	0.9306	0.1981	0.44	0.078
Mof_H 	H 	0.9379	0.1597	0.4074	0.013
Mof_C 	C 	0.9653	0.2466	0.5388	0.076
Mof_H 	H 	0.9966	0.2425	0.5759	0.007
Mof_C 	C 	0.9104	0.3119	0.5326	-0.137
Mof_H 	H 	0.9058	0.3508	0.5652	0.076
Mof_C 	C 	0.8607	0.3218	0.4783	0.064
Mof_C 	C 	0.8749	0.2611	0.4316	-0.136
Mof_H 	H 	0.8453	0.2642	0.3938	0.074
Mof_C 	C 	0.7964	0.3878	0.4723	0.025
Mof_C 	C 	0.8004	0.4627	0.508	-0.092
Mof_H 	H 	0.8449	0.4713	0.5357	0.06
Mof_C 	C 	0.7403	0.5216	0.5021	0.016
Mof_H 	H 	0.7449	0.5708	0.5256	0.02
Mof_C 	C 	0.671	0.5112	0.4617	-0.095
Mof_H 	H 	0.6299	0.5524	0.4582	0.067
Mof_C 	C 	0.6663	0.4367	0.4272	0.034
Mof_C 	C 	0.7276	0.3772	0.4328	-0.097
Mof_H 	H 	0.723	0.328	0.4094	0.069
Mof_C 	C 	0.5941	0.4288	0.3837	0.088
Mof_C 	C 	0.4967	0.3769	0.3202	0.086
Mof_C 	C 	0.4425	0.3153	0.2895	0.022
Mof_C 	C 	0.4631	0.2829	0.2293	-0.085
Mof_H 	H 	0.5102	0.3019	0.2075	0.067
Mof_C 	C 	0.4112	0.2218	0.2034	0.006
Mof_H 	H 	0.4243	0.199	0.1641	0.026
Mof_C 	C 	0.3403	0.1943	0.2352	-0.088
Mof_H 	H 	0.3057	0.1545	0.2164	0.061
Mof_C 	C 	0.32	0.2254	0.2949	0.021
Mof_C 	C 	0.3719	0.2862	0.3209	-0.087
Mof_H 	H 	0.359	0.3079	0.3606	0.061
Mof_C 	C 	0.2464	0.1941	0.331	0.071
Mof_C 	C 	0.2175	0.2377	0.3848	-0.138
Mof_H 	H 	0.2397	0.29	0.3951	0.075
Mof_C 	C 	0.1548	0.2014	0.4227	0.077
Mof_H 	H 	0.1371	0.2308	0.4583	0.005
Mof_C 	C 	0.1422	0.0899	0.3567	0.073
Mof_H 	H 	0.1158	0.0401	0.3455	0.014
Mof_C 	C 	0.2045	0.1228	0.3168	-0.139
Mof_H 	H 	0.2173	0.0948	0.2795	0.081
Mof_N 	N 	0.4924	0.4604	0.3184	-0.115
Mof_N 	N 	0.5547	0.4921	0.3589	-0.101
Mof_N 	N 	0.5594	0.3552	0.361	-0.104
Mof_N 	N 	0.5831	0.2741	0.3795	-0.223
Mof_H 	H 	0.5372	0.2443	0.3879	0.119
Mof_H 	H 	0.6115	0.2497	0.3482	0.116
Mof_N 	N 	0.9763	0.188	0.4937	-0.149
Mof_N 	N 	0.1196	0.1284	0.4109	-0.153
Mof_C 	C 	0.1981	0.9306	0.56	0.078
Mof_H 	H 	0.1597	0.9379	0.5926	0.012
Mof_C 	C 	0.2466	0.9653	0.4612	0.076
Mof_H 	H 	0.2425	0.9966	0.4241	0.007
Mof_C 	C 	0.3119	0.9104	0.4674	-0.137
Mof_H 	H 	0.3508	0.9058	0.4348	0.076
Mof_C 	C 	0.3218	0.8607	0.5217	0.064
Mof_C 	C 	0.2611	0.8749	0.5684	-0.136
Mof_H 	H 	0.2642	0.8453	0.6062	0.074
Mof_C 	C 	0.3878	0.7964	0.5277	0.025
Mof_C 	C 	0.4627	0.8004	0.492	-0.092
Mof_H 	H 	0.4713	0.8449	0.4643	0.06
Mof_C 	C 	0.5216	0.7403	0.4979	0.016
Mof_H 	H 	0.5708	0.7449	0.4744	0.02
Mof_C 	C 	0.5112	0.671	0.5383	-0.095
Mof_H 	H 	0.5524	0.6299	0.5418	0.067
Mof_C 	C 	0.4367	0.6663	0.5728	0.034
Mof_C 	C 	0.3772	0.7276	0.5672	-0.097
Mof_H 	H 	0.328	0.723	0.5906	0.069
Mof_C 	C 	0.4288	0.5941	0.6163	0.088
Mof_C 	C 	0.3769	0.4967	0.6798	0.086
Mof_C 	C 	0.3153	0.4425	0.7105	0.022
Mof_C 	C 	0.2829	0.4631	0.7707	-0.085
Mof_H 	H 	0.3019	0.5102	0.7925	0.067
Mof_C 	C 	0.2218	0.4112	0.7966	0.005
Mof_H 	H 	0.199	0.4243	0.8359	0.027
Mof_C 	C 	0.1943	0.3403	0.7648	-0.087
Mof_H 	H 	0.1545	0.3057	0.7836	0.061
Mof_C 	C 	0.2254	0.32	0.7051	0.021
Mof_C 	C 	0.2862	0.3719	0.6791	-0.087
Mof_H 	H 	0.3079	0.359	0.6394	0.06
Mof_C 	C 	0.1941	0.2464	0.669	0.071
Mof_C 	C 	0.2377	0.2175	0.6152	-0.138
Mof_H 	H 	0.29	0.2397	0.6049	0.075
Mof_C 	C 	0.2014	0.1548	0.5773	0.077
Mof_H 	H 	0.2308	0.1371	0.5417	0.005
Mof_C 	C 	0.0899	0.1422	0.6433	0.073
Mof_H 	H 	0.0401	0.1158	0.6545	0.013
Mof_C 	C 	0.1228	0.2045	0.6832	-0.139
Mof_H 	H 	0.0948	0.2173	0.7205	0.081
Mof_N 	N 	0.4604	0.4924	0.6816	-0.115
Mof_N 	N 	0.4921	0.5547	0.6411	-0.101
Mof_N 	N 	0.3552	0.5594	0.639	-0.104
Mof_N 	N 	0.2741	0.5831	0.6205	-0.223
Mof_H 	H 	0.2443	0.5372	0.6121	0.119
Mof_H 	H 	0.2497	0.6115	0.6518	0.116
Mof_N 	N 	0.188	0.9763	0.5063	-0.149
Mof_N 	N 	0.1284	0.1196	0.5891	-0.153
Mof_C 	C 	0.8019	0.0694	0.06	0.075
Mof_H 	H 	0.8403	0.0621	0.0926	0.014
Mof_C 	C 	0.7534	0.0347	0.9612	0.079
Mof_H 	H 	0.7575	0.0034	0.9241	0.007
Mof_C 	C 	0.6881	0.0896	0.9674	-0.129
Mof_H 	H 	0.6492	0.0942	0.9348	0.074
Mof_C 	C 	0.6782	0.1393	0.0217	0.056
Mof_C 	C 	0.7389	0.1251	0.0684	-0.133
Mof_H 	H 	0.7358	0.1547	0.1062	0.073
Mof_C 	C 	0.6122	0.2036	0.0277	0.023
Mof_C 	C 	0.5373	0.1996	0.992	-0.09
Mof_H 	H 	0.5287	0.1551	0.9643	0.061
Mof_C 	C 	0.4784	0.2597	0.9979	0.027
Mof_H 	H 	0.4292	0.2551	0.9744	0.017
Mof_C 	C 	0.4888	0.329	0.0383	-0.107
Mof_H 	H 	0.4476	0.3701	0.0418	0.07
Mof_C 	C 	0.5633	0.3337	0.0728	0.038
Mof_C 	C 	0.6228	0.2724	0.0672	-0.1
Mof_H 	H 	0.672	0.277	0.0906	0.07
Mof_C 	C 	0.5712	0.4059	0.1163	0.086
Mof_C 	C 	0.6231	0.5033	0.1798	0.086
Mof_C 	C 	0.6847	0.5575	0.2105	0.022
Mof_C 	C 	0.7171	0.5369	0.2707	-0.085
Mof_H 	H 	0.6981	0.4898	0.2925	0.067
Mof_C 	C 	0.7782	0.5888	0.2966	0.005
Mof_H 	H 	0.801	0.5757	0.3359	0.027
Mof_C 	C 	0.8057	0.6597	0.2648	-0.088
Mof_H 	H 	0.8455	0.6943	0.2836	0.061
Mof_C 	C 	0.7746	0.68	0.2051	0.021
Mof_C 	C 	0.7138	0.6281	0.1791	-0.087
Mof_H 	H 	0.6921	0.641	0.1394	0.06
Mof_C 	C 	0.8059	0.7536	0.169	0.071
Mof_C 	C 	0.7623	0.7825	0.1152	-0.138
Mof_H 	H 	0.71	0.7603	0.1049	0.074
Mof_C 	C 	0.7986	0.8452	0.0773	0.076
Mof_H 	H 	0.7692	0.8629	0.0417	0.003
Mof_C 	C 	0.9101	0.8578	0.1433	0.073
Mof_H 	H 	0.9599	0.8842	0.1545	0.014
Mof_C 	C 	0.8772	0.7955	0.1832	-0.139
Mof_H 	H 	0.9052	0.7827	0.2205	0.081
Mof_N 	N 	0.5396	0.5076	0.1816	-0.115
Mof_N 	N 	0.5079	0.4453	0.1411	-0.101
Mof_N 	N 	0.6448	0.4406	0.139	-0.104
Mof_N 	N 	0.7259	0.4169	0.1205	-0.223
Mof_H 	H 	0.7557	0.4628	0.1121	0.118
Mof_H 	H 	0.7503	0.3885	0.1518	0.116
Mof_N 	N 	0.812	0.0237	0.0063	-0.151
Mof_N 	N 	0.8716	0.8804	0.0891	-0.153
Mof_C 	C 	0.4306	0.3019	0.81	0.078
Mof_H 	H 	0.4379	0.3403	0.8426	0.012
Mof_C 	C 	0.4653	0.2534	0.7112	0.076
Mof_H 	H 	0.4966	0.2575	0.6741	0.007
Mof_C 	C 	0.4104	0.1881	0.7174	-0.137
Mof_H 	H 	0.4058	0.1492	0.6848	0.076
Mof_C 	C 	0.3607	0.1782	0.7717	0.064
Mof_C 	C 	0.3749	0.2389	0.8184	-0.136
Mof_H 	H 	0.3453	0.2358	0.8562	0.075
Mof_C 	C 	0.2964	0.1122	0.7777	0.025
Mof_C 	C 	0.3004	0.0373	0.742	-0.093
Mof_H 	H 	0.3449	0.0287	0.7143	0.06
Mof_C 	C 	0.2403	0.9784	0.7479	0.017
Mof_H 	H 	0.2449	0.9292	0.7244	0.02
Mof_C 	C 	0.171	0.9888	0.7883	-0.094
Mof_H 	H 	0.1299	0.9476	0.7918	0.067
Mof_C 	C 	0.1663	0.0633	0.8228	0.033
Mof_C 	C 	0.2276	0.1228	0.8172	-0.096
Mof_H 	H 	0.223	0.172	0.8406	0.069
Mof_C 	C 	0.0941	0.0712	0.8663	0.088
Mof_C 	C 	0.9967	0.1231	0.9298	0.084
Mof_C 	C 	0.9425	0.1847	0.9605	0.039
Mof_C 	C 	0.9631	0.2171	0.0207	-0.104
Mof_H 	H 	0.0102	0.1981	0.0425	0.072
Mof_C 	C 	0.9112	0.2782	0.0466	0.022
Mof_H 	H 	0.9243	0.301	0.0859	0.02
Mof_C 	C 	0.8403	0.3057	0.0148	-0.11
Mof_H 	H 	0.8057	0.3455	0.0336	0.067
Mof_C 	C 	0.82	0.2746	0.9551	0.04
Mof_C 	C 	0.8719	0.2138	0.9291	-0.101
Mof_H 	H 	0.859	0.1921	0.8894	0.065
Mof_C 	C 	0.7464	0.3059	0.919	0.064
Mof_C 	C 	0.7175	0.2623	0.8652	-0.133
Mof_H 	H 	0.7397	0.21	0.8549	0.073
Mof_C 	C 	0.6548	0.2986	0.8273	0.075
Mof_H 	H 	0.6371	0.2692	0.7917	0.006
Mof_C 	C 	0.6422	0.4101	0.8933	0.071
Mof_H 	H 	0.6158	0.4599	0.9045	0.015
Mof_C 	C 	0.7045	0.3772	0.9332	-0.133
Mof_H 	H 	0.7173	0.4052	0.9705	0.081
Mof_N 	N 	0.9924	0.0396	0.9316	-0.112
Mof_N 	N 	0.0547	0.0079	0.8911	-0.102
Mof_N 	N 	0.0594	0.1448	0.889	-0.103
Mof_N 	N 	0.0831	0.2259	0.8705	-0.223
Mof_H 	H 	0.0372	0.2557	0.8621	0.119
Mof_H 	H 	0.1115	0.2503	0.9018	0.117
Mof_N 	N 	0.4763	0.312	0.7563	-0.149
Mof_N 	N 	0.6196	0.3716	0.8391	-0.152
Mof_C 	C 	0.5694	0.6981	0.31	0.078
Mof_H 	H 	0.5621	0.6597	0.3426	0.012
Mof_C 	C 	0.5347	0.7466	0.2112	0.076
Mof_H 	H 	0.5034	0.7425	0.1741	0.006
Mof_C 	C 	0.5896	0.8119	0.2174	-0.137
Mof_H 	H 	0.5942	0.8508	0.1848	0.075
Mof_C 	C 	0.6393	0.8218	0.2717	0.064
Mof_C 	C 	0.6251	0.7611	0.3184	-0.135
Mof_H 	H 	0.6547	0.7642	0.3562	0.074
Mof_C 	C 	0.7036	0.8878	0.2777	0.025
Mof_C 	C 	0.6996	0.9627	0.242	-0.094
Mof_H 	H 	0.6551	0.9713	0.2143	0.06
Mof_C 	C 	0.7597	0.0216	0.2479	0.017
Mof_H 	H 	0.7551	0.0708	0.2244	0.019
Mof_C 	C 	0.829	0.0112	0.2883	-0.094
Mof_H 	H 	0.8701	0.0524	0.2918	0.067
Mof_C 	C 	0.8337	0.9367	0.3228	0.033
Mof_C 	C 	0.7724	0.8772	0.3172	-0.097
Mof_H 	H 	0.777	0.828	0.3406	0.069
Mof_C 	C 	0.9059	0.9288	0.3663	0.088
Mof_C 	C 	0.0033	0.8769	0.4298	0.087
Mof_C 	C 	0.0575	0.8153	0.4605	0.021
Mof_C 	C 	0.0369	0.7829	0.5207	-0.084
Mof_H 	H 	0.9898	0.8019	0.5425	0.067
Mof_C 	C 	0.0888	0.7218	0.5466	0.005
Mof_H 	H 	0.0757	0.699	0.5859	0.027
Mof_C 	C 	0.1597	0.6943	0.5148	-0.087
Mof_H 	H 	0.1943	0.6545	0.5336	0.061
Mof_C 	C 	0.18	0.7254	0.4551	0.021
Mof_C 	C 	0.1281	0.7862	0.4291	-0.087
Mof_H 	H 	0.141	0.8079	0.3894	0.06
Mof_C 	C 	0.2536	0.6941	0.419	0.071
Mof_C 	C 	0.2825	0.7377	0.3652	-0.138
Mof_H 	H 	0.2603	0.79	0.3549	0.075
Mof_C 	C 	0.3452	0.7014	0.3273	0.077
Mof_H 	H 	0.3629	0.7308	0.2917	0.005
Mof_C 	C 	0.3578	0.5899	0.3933	0.073
Mof_H 	H 	0.3842	0.5401	0.4045	0.014
Mof_C 	C 	0.2955	0.6228	0.4332	-0.139
Mof_H 	H 	0.2827	0.5948	0.4705	0.081
Mof_N 	N 	0.0076	0.9604	0.4316	-0.115
Mof_N 	N 	0.9453	0.9921	0.3911	-0.102
Mof_N 	N 	0.9406	0.8552	0.389	-0.104
Mof_N 	N 	0.9169	0.7741	0.3705	-0.223
Mof_H 	H 	0.9628	0.7443	0.3621	0.118
Mof_H 	H 	0.8885	0.7497	0.4018	0.116
Mof_N 	N 	0.5237	0.688	0.2563	-0.149
Mof_N 	N 	0.3804	0.6284	0.3391	-0.153
Mof_Cd	Cd	0.93977	0.93977	-0	0.375
Mof_Cd	Cd	0.06023	0.06023	0.5	0.382
Mof_Cd	Cd	0.56023	0.43977	0.75	0.383
Mof_Cd	Cd	0.43977	0.56023	0.25	0.383
_end
