data_functionalizedCrystal
_audit_creation_method	'EQeq! by Chris Wilmer'
_symmetry_space_group_name_H-M	'P1'
_symmetry_Int_Tables_number	1
_symmetry_cell_setting	triclinic
loop_
_symmetry_equiv_pos_as_xyz
  x,y,z
_cell_length_a	26.3396
_cell_length_b	14.0398
_cell_length_c	16.8718
_cell_angle_alpha	90
_cell_angle_beta	97.759
_cell_angle_gamma	90
loop_
_atom_site_label
_atom_site_type_symbol
_atom_site_fract_x
_atom_site_fract_y
_atom_site_fract_z
_atom_site_charge
Mof_Eu	Eu	0.00142	0.57673	0.38946	2.681
Mof_N 	N 	0.1903	0.2322	0.4734	-0.149
Mof_N 	N 	0.2912	0.2742	0.3539	-0.15
Mof_N 	N 	0.2294	0.6958	0.3218	-0.115
Mof_N 	N 	0.3058	0.777	0.167	-0.093
Mof_N 	N 	0.8134	0.2784	0.4782	-0.156
Mof_N 	N 	0.6909	0.2571	0.3583	-0.169
Mof_N 	N 	0.0176	0.7425	0.4103	-0.36
Mof_H 	H 	0.0225	0.7476	0.4639	0.104
Mof_H 	H 	0.0488	0.75	0.3953	0.1
Mof_H 	H 	0.5312	0.2948	0.2366	0.144
Mof_H 	H 	0.4781	0.2948	0.2056	0.128
Mof_O 	O 	0.0472	0.431	0.4033	-0.604
Mof_O 	O 	0.0592	0.3678	0.5265	-0.587
Mof_O 	O 	0.4304	0.1636	0.3158	-0.673
Mof_O 	O 	0.4431	0.1033	0.4385	-0.628
Mof_O 	O 	0.0789	0.6107	0.3342	-0.583
Mof_O 	O 	0.0537	0.6559	0.2088	-0.597
Mof_O 	O 	0.4507	0.9725	0.2477	-1.187
Mof_O 	O 	0.4347	0.9217	0.1238	-0.426
Mof_O 	O 	0.9502	0.424	0.4821	-0.686
Mof_O 	O 	0.9287	0.4708	0.3578	-0.586
Mof_O 	O 	0.5474	0.1411	0.3731	-0.74
Mof_O 	O 	0.5747	0.0762	0.4882	-0.591
Mof_H 	H 	0.9739	0.4545	0.2451	0.355
Mof_C 	C 	0.072	0.3841	0.4601	0.554
Mof_C 	C 	0.1442	0.2658	0.485	0.125
Mof_H 	H 	0.126	0.2358	0.5214	-0.006
Mof_C 	C 	0.1231	0.3464	0.4425	-0.233
Mof_C 	C 	0.1462	0.3808	0.3827	0.147
Mof_H 	H 	0.1309	0.4276	0.3484	-0.017
Mof_C 	C 	0.1943	0.3434	0.3742	-0.188
Mof_H 	H 	0.2118	0.3673	0.3341	0.101
Mof_C 	C 	0.2159	0.2751	0.421	0.102
Mof_C 	C 	0.4176	0.1454	0.3821	0.608
Mof_C 	C 	0.3379	0.2427	0.3445	0.15
Mof_H 	H 	0.3534	0.2668	0.3024	-0.012
Mof_C 	C 	0.364	0.1761	0.3943	-0.268
Mof_C 	C 	0.342	0.1451	0.456	0.155
Mof_H 	H 	0.3601	0.1057	0.4942	-0.009
Mof_C 	C 	0.2919	0.1717	0.4634	-0.182
Mof_H 	H 	0.2749	0.1432	0.5021	0.103
Mof_C 	C 	0.2675	0.2397	0.4137	0.087
Mof_C 	C 	0.0875	0.6442	0.2679	0.537
Mof_C 	C 	0.1807	0.66	0.3234	0.308
Mof_H 	H 	0.1743	0.6231	0.3667	-0.066
Mof_C 	C 	0.1406	0.6777	0.2616	-0.204
Mof_C 	C 	0.1481	0.727	0.2005	0.075
Mof_H 	H 	0.122	0.7368	0.1585	0.002
Mof_C 	C 	0.1976	0.766	0.1989	0.048
Mof_H 	H 	0.2022	0.8073	0.1575	0.029
Mof_C 	C 	0.2357	0.7477	0.2499	0.049
Mof_C 	C 	0.4257	0.925	0.1931	0.679
Mof_C 	C 	0.3485	0.8155	0.1567	0.058
Mof_H 	H 	0.3614	0.8009	0.1094	0.039
Mof_C 	C 	0.3774	0.8767	0.209	-0.703
Mof_C 	C 	0.3561	0.896	0.2797	-0.127
Mof_H 	H 	0.3729	0.9357	0.3189	0.01
Mof_C 	C 	0.3092	0.854	0.29	-0.111
Mof_H 	H 	0.2932	0.8702	0.3339	0.081
Mof_C 	C 	0.287	0.79	0.236	0.033
Mof_C 	C 	0.9203	0.4263	0.419	0.56
Mof_C 	C 	0.8589	0.3232	0.4772	0.164
Mof_H 	H 	0.8838	0.3171	0.5216	-0.041
Mof_C 	C 	0.87	0.3765	0.4144	-0.274
Mof_C 	C 	0.8335	0.3823	0.3506	0.164
Mof_H 	H 	0.8402	0.4169	0.3061	-0.019
Mof_C 	C 	0.7868	0.3386	0.3494	-0.191
Mof_H 	H 	0.7616	0.3451	0.3055	0.106
Mof_C 	C 	0.7781	0.2846	0.4148	0.085
Mof_C 	C 	0.5812	0.1266	0.4292	0.635
Mof_C 	C 	0.6436	0.2194	0.3622	0.19
Mof_H 	H 	0.6175	0.2305	0.3205	-0.052
Mof_C 	C 	0.6338	0.1663	0.4254	-0.322
Mof_C 	C 	0.6747	0.1449	0.48	0.22
Mof_H 	H 	0.6704	0.1023	0.5207	-0.041
Mof_C 	C 	0.7216	0.1831	0.4777	-0.26
Mof_H 	H 	0.7492	0.1681	0.5162	0.129
Mof_C 	C 	0.7268	0.2427	0.4185	0.133
Mof_C 	C 	0.9928	0.8283	0.3859	-0.219
Mof_H 	H 	0.0104	0.8586	0.3465	0.096
Mof_H 	H 	0.993	0.8697	0.4312	0.071
Mof_H 	H 	0.958	0.8153	0.3633	0.082
Mof_H 	H 	0.5064	0.4178	0.272	0.077
Mof_H 	H 	0.5073	0.3568	0.35	0.062
Mof_H 	H 	0.4551	0.3783	0.2967	0.068
Mof_Eu	Eu	0.49758	0.97548	0.03638	1.189
Mof_C 	C 	0.4908	0.3653	0.2962	-0.256
Mof_N 	N 	0.2192	0.7581	0.3124	-0.052
Mof_N 	N 	0.2966	0.8493	0.2018	-0.257
Mof_O 	O 	0.4324	0.9869	0.2051	-0.388
Mof_O 	O 	0.4559	0.9622	0.3333	-0.548
Mof_C 	C 	0.1724	0.718	0.3208	-0.204
Mof_H 	H 	0.1621	0.7187	0.3714	0.084
Mof_C 	C 	0.1593	0.68	0.186	0.006
Mof_H 	H 	0.1379	0.6601	0.1408	0.025
Mof_C 	C 	0.2068	0.7112	0.1778	-0.176
Mof_H 	H 	0.2199	0.709	0.1293	0.101
Mof_C 	C 	0.4267	0.953	0.2651	1.342
Mof_C 	C 	0.3415	0.8952	0.2035	0.791
Mof_H 	H 	0.3467	0.9323	0.1597	-0.178
Mof_C 	C 	0.3794	0.89	0.2653	-0.186
Mof_C 	C 	0.3676	0.8358	0.3327	0.224
Mof_H 	H 	0.3911	0.8344	0.3791	-0.066
Mof_C 	C 	0.3232	0.7869	0.3303	-0.222
Mof_H 	H 	0.3168	0.748	0.3725	0.111
Mof_C 	C 	0.287	0.797	0.262	0.166
Mof_Eu	Eu	0.99858	0.57673	0.11054	2.544
Mof_N 	N 	0.8097	0.2322	0.0266	-0.15
Mof_N 	N 	0.7088	0.2742	0.1461	-0.151
Mof_N 	N 	0.7706	0.6958	0.1782	-0.116
Mof_N 	N 	0.6942	0.777	0.333	-0.093
Mof_N 	N 	0.1866	0.2784	0.0218	-0.156
Mof_N 	N 	0.3091	0.2571	0.1417	-0.168
Mof_N 	N 	0.9824	0.7425	0.0897	-0.418
Mof_H 	H 	0.9775	0.7476	0.0361	0.101
Mof_H 	H 	0.9512	0.75	0.1047	0.108
Mof_H 	H 	0.4688	0.2948	0.2634	0.144
Mof_H 	H 	0.5219	0.2948	0.2944	0.128
Mof_O 	O 	0.9528	0.431	0.0967	-0.604
Mof_O 	O 	0.9408	0.3678	0.9735	-0.608
Mof_O 	O 	0.5696	0.1636	0.1842	-0.672
Mof_O 	O 	0.5569	0.1033	0.0615	-0.627
Mof_O 	O 	0.9211	0.6107	0.1658	-0.577
Mof_O 	O 	0.9463	0.6559	0.2912	-0.63
Mof_O 	O 	0.5493	0.9725	0.2523	-1.182
Mof_O 	O 	0.5653	0.9217	0.3762	-0.43
Mof_O 	O 	0.0498	0.424	0.0179	-0.68
Mof_O 	O 	0.0713	0.4708	0.1422	-0.564
Mof_O 	O 	0.4526	0.1411	0.1269	-0.74
Mof_O 	O 	0.4253	0.0762	0.0118	-0.59
Mof_H 	H 	0.0261	0.4545	0.2549	0.377
Mof_C 	C 	0.928	0.3841	0.0399	0.551
Mof_C 	C 	0.8558	0.2658	0.015	0.121
Mof_H 	H 	0.874	0.2358	0.9786	-0.007
Mof_C 	C 	0.8769	0.3464	0.0575	-0.234
Mof_C 	C 	0.8538	0.3808	0.1173	0.145
Mof_H 	H 	0.8691	0.4276	0.1516	-0.017
Mof_C 	C 	0.8057	0.3434	0.1258	-0.188
Mof_H 	H 	0.7882	0.3673	0.1659	0.101
Mof_C 	C 	0.7841	0.2751	0.079	0.101
Mof_C 	C 	0.5824	0.1454	0.1179	0.607
Mof_C 	C 	0.6621	0.2427	0.1555	0.149
Mof_H 	H 	0.6466	0.2668	0.1976	-0.012
Mof_C 	C 	0.636	0.1761	0.1057	-0.268
Mof_C 	C 	0.658	0.1451	0.044	0.154
Mof_H 	H 	0.6399	0.1057	0.0058	-0.008
Mof_C 	C 	0.7081	0.1717	0.0366	-0.182
Mof_H 	H 	0.7251	0.1432	0.9979	0.102
Mof_C 	C 	0.7325	0.2397	0.0863	0.086
Mof_C 	C 	0.9125	0.6442	0.2321	0.543
Mof_C 	C 	0.8193	0.66	0.1766	0.305
Mof_H 	H 	0.8257	0.6231	0.1333	-0.065
Mof_C 	C 	0.8594	0.6777	0.2384	-0.21
Mof_C 	C 	0.8519	0.727	0.2995	0.074
Mof_H 	H 	0.878	0.7368	0.3415	-0.003
Mof_C 	C 	0.8024	0.766	0.3011	0.042
Mof_H 	H 	0.7978	0.8073	0.3425	0.029
Mof_C 	C 	0.7643	0.7477	0.2501	0.051
Mof_C 	C 	0.5743	0.925	0.3069	0.685
Mof_C 	C 	0.6515	0.8155	0.3433	0.06
Mof_H 	H 	0.6386	0.8009	0.3906	0.038
Mof_C 	C 	0.6226	0.8767	0.291	-0.706
Mof_C 	C 	0.6439	0.896	0.2203	-0.122
Mof_H 	H 	0.6271	0.9357	0.1811	0.009
Mof_C 	C 	0.6908	0.854	0.21	-0.115
Mof_H 	H 	0.7068	0.8702	0.1661	0.081
Mof_C 	C 	0.713	0.79	0.264	0.033
Mof_C 	C 	0.0797	0.4263	0.081	0.565
Mof_C 	C 	0.1411	0.3232	0.0228	0.175
Mof_H 	H 	0.1162	0.3171	0.9784	-0.048
Mof_C 	C 	0.13	0.3765	0.0856	-0.278
Mof_C 	C 	0.1665	0.3823	0.1494	0.168
Mof_H 	H 	0.1598	0.4169	0.1939	-0.02
Mof_C 	C 	0.2132	0.3386	0.1506	-0.194
Mof_H 	H 	0.2384	0.3451	0.1945	0.107
Mof_C 	C 	0.2219	0.2846	0.0852	0.088
Mof_C 	C 	0.4188	0.1266	0.0708	0.635
Mof_C 	C 	0.3564	0.2194	0.1378	0.19
Mof_H 	H 	0.3825	0.2305	0.1795	-0.052
Mof_C 	C 	0.3662	0.1663	0.0746	-0.323
Mof_C 	C 	0.3253	0.1449	0.02	0.223
Mof_H 	H 	0.3296	0.1023	0.9793	-0.044
Mof_C 	C 	0.2784	0.1831	0.0223	-0.255
Mof_H 	H 	0.2508	0.1681	0.9838	0.125
Mof_C 	C 	0.2732	0.2427	0.0815	0.131
Mof_C 	C 	0.0072	0.8283	0.1141	0.076
Mof_H 	H 	0.9896	0.8586	0.1535	-0.028
Mof_H 	H 	0.007	0.8697	0.0688	0.001
Mof_H 	H 	0.042	0.8153	0.1367	0.004
Mof_H 	H 	0.4936	0.4178	0.228	0.077
Mof_H 	H 	0.4927	0.3568	0.15	0.062
Mof_H 	H 	0.5449	0.3783	0.2033	0.068
Mof_Eu	Eu	0.50242	0.97548	0.46362	1.215
Mof_C 	C 	0.5092	0.3653	0.2038	-0.256
Mof_N 	N 	0.7808	0.7581	0.1876	-0.054
Mof_N 	N 	0.7034	0.8493	0.2982	-0.257
Mof_O 	O 	0.5676	0.9869	0.2949	-0.392
Mof_O 	O 	0.5441	0.9622	0.1667	-0.544
Mof_C 	C 	0.8276	0.718	0.1792	-0.199
Mof_H 	H 	0.8379	0.7187	0.1286	0.081
Mof_C 	C 	0.8407	0.68	0.314	0.011
Mof_H 	H 	0.8621	0.6601	0.3592	0.023
Mof_C 	C 	0.7932	0.7112	0.3222	-0.173
Mof_H 	H 	0.7801	0.709	0.3707	0.1
Mof_C 	C 	0.5733	0.953	0.2349	1.335
Mof_C 	C 	0.6585	0.8952	0.2965	0.789
Mof_H 	H 	0.6533	0.9323	0.3403	-0.177
Mof_C 	C 	0.6206	0.89	0.2347	-0.184
Mof_C 	C 	0.6324	0.8358	0.1673	0.219
Mof_H 	H 	0.6089	0.8344	0.1209	-0.065
Mof_C 	C 	0.6768	0.7869	0.1697	-0.217
Mof_H 	H 	0.6832	0.748	0.1275	0.109
Mof_C 	C 	0.713	0.797	0.238	0.166
Mof_Eu	Eu	0.99858	0.42327	0.61054	2.559
Mof_N 	N 	0.8097	0.7678	0.5266	-0.151
Mof_N 	N 	0.7088	0.7258	0.6461	-0.151
Mof_N 	N 	0.7706	0.3042	0.6782	-0.116
Mof_N 	N 	0.6942	0.223	0.833	-0.093
Mof_N 	N 	0.1866	0.7216	0.5218	-0.155
Mof_N 	N 	0.3091	0.7429	0.6417	-0.169
Mof_N 	N 	0.9824	0.2575	0.5897	-0.414
Mof_H 	H 	0.9775	0.2524	0.5361	0.102
Mof_H 	H 	0.9512	0.25	0.6047	0.107
Mof_H 	H 	0.4688	0.7052	0.7634	0.144
Mof_H 	H 	0.5219	0.7052	0.7944	0.128
Mof_O 	O 	0.9528	0.569	0.5967	-0.606
Mof_O 	O 	0.9408	0.6322	0.4735	-0.613
Mof_O 	O 	0.5696	0.8364	0.6842	-0.673
Mof_O 	O 	0.5569	0.8967	0.5615	-0.629
Mof_O 	O 	0.9211	0.3893	0.6658	-0.578
Mof_O 	O 	0.9463	0.3441	0.7912	-0.627
Mof_O 	O 	0.5493	0.0275	0.7523	-1.182
Mof_O 	O 	0.5653	0.0783	0.8762	-0.429
Mof_O 	O 	0.0498	0.576	0.5179	-0.684
Mof_O 	O 	0.0713	0.5292	0.6422	-0.566
Mof_O 	O 	0.4526	0.8589	0.6269	-0.74
Mof_O 	O 	0.4253	0.9238	0.5118	-0.592
Mof_H 	H 	0.0261	0.5455	0.7549	0.378
Mof_C 	C 	0.928	0.6159	0.5399	0.557
Mof_C 	C 	0.8558	0.7342	0.515	0.126
Mof_H 	H 	0.874	0.7642	0.4786	-0.01
Mof_C 	C 	0.8769	0.6536	0.5575	-0.237
Mof_C 	C 	0.8538	0.6192	0.6173	0.147
Mof_H 	H 	0.8691	0.5724	0.6516	-0.018
Mof_C 	C 	0.8057	0.6566	0.6258	-0.189
Mof_H 	H 	0.7882	0.6327	0.6659	0.102
Mof_C 	C 	0.7841	0.7249	0.579	0.102
Mof_C 	C 	0.5824	0.8546	0.6179	0.608
Mof_C 	C 	0.6621	0.7573	0.6555	0.15
Mof_H 	H 	0.6466	0.7332	0.6976	-0.012
Mof_C 	C 	0.636	0.8239	0.6057	-0.269
Mof_C 	C 	0.658	0.8549	0.544	0.155
Mof_H 	H 	0.6399	0.8943	0.5058	-0.009
Mof_C 	C 	0.7081	0.8283	0.5366	-0.182
Mof_H 	H 	0.7251	0.8568	0.4979	0.103
Mof_C 	C 	0.7325	0.7603	0.5863	0.086
Mof_C 	C 	0.9125	0.3558	0.7321	0.542
Mof_C 	C 	0.8193	0.34	0.6766	0.306
Mof_H 	H 	0.8257	0.3769	0.6333	-0.065
Mof_C 	C 	0.8594	0.3223	0.7384	-0.209
Mof_C 	C 	0.8519	0.273	0.7995	0.074
Mof_H 	H 	0.878	0.2632	0.8415	-0.003
Mof_C 	C 	0.8024	0.234	0.8011	0.042
Mof_H 	H 	0.7978	0.1927	0.8425	0.029
Mof_C 	C 	0.7643	0.2523	0.7501	0.051
Mof_C 	C 	0.5743	0.075	0.8069	0.685
Mof_C 	C 	0.6515	0.1845	0.8433	0.06
Mof_H 	H 	0.6386	0.1991	0.8906	0.038
Mof_C 	C 	0.6226	0.1233	0.791	-0.706
Mof_C 	C 	0.6439	0.104	0.7203	-0.122
Mof_H 	H 	0.6271	0.0643	0.6811	0.009
Mof_C 	C 	0.6908	0.146	0.71	-0.114
Mof_H 	H 	0.7068	0.1298	0.6661	0.081
Mof_C 	C 	0.713	0.21	0.764	0.033
Mof_C 	C 	0.0797	0.5737	0.581	0.564
Mof_C 	C 	0.1411	0.6768	0.5228	0.167
Mof_H 	H 	0.1162	0.6829	0.4784	-0.042
Mof_C 	C 	0.13	0.6235	0.5856	-0.275
Mof_C 	C 	0.1665	0.6177	0.6494	0.166
Mof_H 	H 	0.1598	0.5831	0.6939	-0.02
Mof_C 	C 	0.2132	0.6614	0.6506	-0.192
Mof_H 	H 	0.2384	0.6549	0.6945	0.106
Mof_C 	C 	0.2219	0.7154	0.5852	0.086
Mof_C 	C 	0.4188	0.8734	0.5708	0.635
Mof_C 	C 	0.3564	0.7806	0.6378	0.19
Mof_H 	H 	0.3825	0.7695	0.6795	-0.052
Mof_C 	C 	0.3662	0.8337	0.5746	-0.322
Mof_C 	C 	0.3253	0.8551	0.52	0.22
Mof_H 	H 	0.3296	0.8977	0.4793	-0.041
Mof_C 	C 	0.2784	0.8169	0.5223	-0.261
Mof_H 	H 	0.2508	0.8319	0.4838	0.13
Mof_C 	C 	0.2732	0.7573	0.5815	0.133
Mof_C 	C 	0.0072	0.1717	0.6141	0.054
Mof_H 	H 	0.9896	0.1414	0.6535	-0.019
Mof_H 	H 	0.007	0.1303	0.5688	0.007
Mof_H 	H 	0.042	0.1847	0.6367	0.01
Mof_H 	H 	0.4936	0.5822	0.728	0.077
Mof_H 	H 	0.4927	0.6432	0.65	0.062
Mof_H 	H 	0.5449	0.6217	0.7033	0.068
Mof_Eu	Eu	0.50242	0.02452	0.96362	1.207
Mof_C 	C 	0.5092	0.6347	0.7038	-0.256
Mof_N 	N 	0.7808	0.2419	0.6876	-0.054
Mof_N 	N 	0.7034	0.1507	0.7982	-0.257
Mof_O 	O 	0.5676	0.0131	0.7949	-0.391
Mof_O 	O 	0.5441	0.0378	0.6667	-0.544
Mof_C 	C 	0.8276	0.282	0.6792	-0.2
Mof_H 	H 	0.8379	0.2813	0.6286	0.082
Mof_C 	C 	0.8407	0.32	0.814	0.011
Mof_H 	H 	0.8621	0.3399	0.8592	0.023
Mof_C 	C 	0.7932	0.2888	0.8222	-0.174
Mof_H 	H 	0.7801	0.291	0.8707	0.1
Mof_C 	C 	0.5733	0.047	0.7349	1.335
Mof_C 	C 	0.6585	0.1048	0.7965	0.789
Mof_H 	H 	0.6533	0.0677	0.8403	-0.177
Mof_C 	C 	0.6206	0.11	0.7347	-0.185
Mof_C 	C 	0.6324	0.1642	0.6673	0.22
Mof_H 	H 	0.6089	0.1656	0.6209	-0.064
Mof_C 	C 	0.6768	0.2131	0.6697	-0.218
Mof_H 	H 	0.6832	0.252	0.6275	0.109
Mof_C 	C 	0.713	0.203	0.738	0.166
Mof_Eu	Eu	0.00142	0.42327	0.88946	2.667
Mof_N 	N 	0.1903	0.7678	0.9734	-0.149
Mof_N 	N 	0.2912	0.7258	0.8539	-0.151
Mof_N 	N 	0.2294	0.3042	0.8218	-0.116
Mof_N 	N 	0.3058	0.223	0.667	-0.093
Mof_N 	N 	0.8134	0.7216	0.9782	-0.156
Mof_N 	N 	0.6909	0.7429	0.8583	-0.168
Mof_N 	N 	0.0176	0.2575	0.9103	-0.364
Mof_H 	H 	0.0225	0.2524	0.9639	0.103
Mof_H 	H 	0.0488	0.25	0.8953	0.1
Mof_H 	H 	0.5312	0.7052	0.7366	0.144
Mof_H 	H 	0.4781	0.7052	0.7056	0.128
Mof_O 	O 	0.0472	0.569	0.9033	-0.602
Mof_O 	O 	0.0592	0.6322	0.0265	-0.581
Mof_O 	O 	0.4304	0.8364	0.8158	-0.672
Mof_O 	O 	0.4431	0.8967	0.9385	-0.627
Mof_O 	O 	0.0789	0.3893	0.8342	-0.583
Mof_O 	O 	0.0537	0.3441	0.7088	-0.599
Mof_O 	O 	0.4507	0.0275	0.7477	-1.187
Mof_O 	O 	0.4347	0.0783	0.6238	-0.425
Mof_O 	O 	0.9502	0.576	0.9821	-0.682
Mof_O 	O 	0.9287	0.5292	0.8578	-0.584
Mof_O 	O 	0.5474	0.8589	0.8731	-0.74
Mof_O 	O 	0.5747	0.9238	0.9882	-0.59
Mof_H 	H 	0.9739	0.5455	0.7451	0.36
Mof_C 	C 	0.072	0.6159	0.9601	0.548
Mof_C 	C 	0.1442	0.7342	0.985	0.119
Mof_H 	H 	0.126	0.7642	0.0214	-0.003
Mof_C 	C 	0.1231	0.6536	0.9425	-0.23
Mof_C 	C 	0.1462	0.6192	0.8827	0.143
Mof_H 	H 	0.1309	0.5724	0.8484	-0.016
Mof_C 	C 	0.1943	0.6566	0.8742	-0.186
Mof_H 	H 	0.2118	0.6327	0.8341	0.101
Mof_C 	C 	0.2159	0.7249	0.921	0.1
Mof_C 	C 	0.4176	0.8546	0.8821	0.607
Mof_C 	C 	0.3379	0.7573	0.8445	0.15
Mof_H 	H 	0.3534	0.7332	0.8024	-0.012
Mof_C 	C 	0.364	0.8239	0.8943	-0.269
Mof_C 	C 	0.342	0.8549	0.956	0.156
Mof_H 	H 	0.3601	0.8943	0.9942	-0.009
Mof_C 	C 	0.2919	0.8283	0.9634	-0.184
Mof_H 	H 	0.2749	0.8568	0.0021	0.104
Mof_C 	C 	0.2675	0.7603	0.9137	0.088
Mof_C 	C 	0.0875	0.3558	0.7679	0.538
Mof_C 	C 	0.1807	0.34	0.8234	0.308
Mof_H 	H 	0.1743	0.3769	0.8667	-0.067
Mof_C 	C 	0.1406	0.3223	0.7616	-0.205
Mof_C 	C 	0.1481	0.273	0.7005	0.075
Mof_H 	H 	0.122	0.2632	0.6585	0.002
Mof_C 	C 	0.1976	0.234	0.6989	0.047
Mof_H 	H 	0.2022	0.1927	0.6575	0.029
Mof_C 	C 	0.2357	0.2523	0.7499	0.05
Mof_C 	C 	0.4257	0.075	0.6931	0.679
Mof_C 	C 	0.3485	0.1845	0.6567	0.058
Mof_H 	H 	0.3614	0.1991	0.6094	0.039
Mof_C 	C 	0.3774	0.1233	0.709	-0.703
Mof_C 	C 	0.3561	0.104	0.7797	-0.127
Mof_H 	H 	0.3729	0.0643	0.8189	0.01
Mof_C 	C 	0.3092	0.146	0.79	-0.111
Mof_H 	H 	0.2932	0.1298	0.8339	0.08
Mof_C 	C 	0.287	0.21	0.736	0.033
Mof_C 	C 	0.9203	0.5737	0.919	0.56
Mof_C 	C 	0.8589	0.6768	0.9772	0.171
Mof_H 	H 	0.8838	0.6829	0.0216	-0.046
Mof_C 	C 	0.87	0.6235	0.9144	-0.276
Mof_C 	C 	0.8335	0.6177	0.8506	0.166
Mof_H 	H 	0.8402	0.5831	0.8061	-0.02
Mof_C 	C 	0.7868	0.6614	0.8494	-0.193
Mof_H 	H 	0.7616	0.6549	0.8055	0.107
Mof_C 	C 	0.7781	0.7154	0.9148	0.086
Mof_C 	C 	0.5812	0.8734	0.9292	0.635
Mof_C 	C 	0.6436	0.7806	0.8622	0.19
Mof_H 	H 	0.6175	0.7695	0.8205	-0.052
Mof_C 	C 	0.6338	0.8337	0.9254	-0.322
Mof_C 	C 	0.6747	0.8551	0.98	0.222
Mof_H 	H 	0.6704	0.8977	0.0207	-0.044
Mof_C 	C 	0.7216	0.8169	0.9777	-0.255
Mof_H 	H 	0.7492	0.8319	0.0162	0.125
Mof_C 	C 	0.7268	0.7573	0.9185	0.131
Mof_C 	C 	0.9928	0.1717	0.8859	-0.195
Mof_H 	H 	0.0104	0.1414	0.8465	0.086
Mof_H 	H 	0.993	0.1303	0.9312	0.065
Mof_H 	H 	0.958	0.1847	0.8633	0.076
Mof_H 	H 	0.5064	0.5822	0.772	0.077
Mof_H 	H 	0.5073	0.6432	0.85	0.062
Mof_H 	H 	0.4551	0.6217	0.7967	0.068
Mof_Eu	Eu	0.49758	0.02452	0.53638	1.188
Mof_C 	C 	0.4908	0.6347	0.7962	-0.256
Mof_N 	N 	0.2192	0.2419	0.8124	-0.053
Mof_N 	N 	0.2966	0.1507	0.7018	-0.257
Mof_O 	O 	0.4324	0.0131	0.7051	-0.387
Mof_O 	O 	0.4559	0.0378	0.8333	-0.547
Mof_C 	C 	0.1724	0.282	0.8208	-0.204
Mof_H 	H 	0.1621	0.2813	0.8714	0.084
Mof_C 	C 	0.1593	0.32	0.686	0.007
Mof_H 	H 	0.1379	0.3399	0.6408	0.025
Mof_C 	C 	0.2068	0.2888	0.6778	-0.176
Mof_H 	H 	0.2199	0.291	0.6293	0.101
Mof_C 	C 	0.4267	0.047	0.7651	1.341
Mof_C 	C 	0.3415	0.1048	0.7035	0.791
Mof_H 	H 	0.3467	0.0677	0.6597	-0.177
Mof_C 	C 	0.3794	0.11	0.7653	-0.185
Mof_C 	C 	0.3676	0.1642	0.8327	0.224
Mof_H 	H 	0.3911	0.1656	0.8791	-0.067
Mof_C 	C 	0.3232	0.2131	0.8303	-0.222
Mof_H 	H 	0.3168	0.252	0.8725	0.11
Mof_C 	C 	0.287	0.203	0.762	0.166
Mof_Eu	Eu	0.5	0.11263	0.25	3.052
Mof_N 	N 	0.5	0.2819	0.25	-0.542
Mof_Eu	Eu	0.5	0.88737	0.75	3.052
Mof_N 	N 	0.5	0.7181	0.75	-0.542
Mof_O 	O 	4.59741e-18	0.4908	0.25	-0.978
Mof_O 	O 	-9.19482e-18	0.5092	0.75	-0.985
_end
