# CIF file generated by openbabel 3.1.0, see https://openbabel.org
data_I
_chemical_name_common 'QEKLID_clean'
_cell_length_a 7.8681
_cell_length_b 10.1311
_cell_length_c 13.4927
_cell_angle_alpha 68.376
_cell_angle_beta 79.855
_cell_angle_gamma 70.823
_space_group_name_H-M_alt 'P 1'
_space_group_name_Hall 'P 1'
loop_
    _symmetry_equiv_pos_as_xyz
    x,y,z
loop_
    _atom_site_label
    _atom_site_type_symbol
    _atom_site_fract_x
    _atom_site_fract_y
    _atom_site_fract_z
    _atom_site_occupancy
    Cd1      Cd       0.67278    0.84377    0.95656    1.000
    Cd2      Cd       0.32722    0.15623    0.04344    1.000
    Cd3      Cd       0.00000    0.50000    0.00000    1.000
    H1       H        0.70230    0.27450    0.67230    1.000
    H2       H        0.64520    0.36840    0.94320    1.000
    H3       H        0.56480    0.73920    0.48690    1.000
    H4       H        0.66790    0.68450    0.65760    1.000
    H5       H        0.94810    0.38610    0.34600    1.000
    H6       H        0.89870    0.33220    0.52770    1.000
    H7       H        0.61360    0.79660    0.30420    1.000
    H8       H        0.29770    0.72550    0.32770    1.000
    H9       H        0.35480    0.63160    0.05680    1.000
    H10      H        0.43520    0.26080    0.51310    1.000
    H11      H        0.33210    0.31550    0.34240    1.000
    H12      H        0.05190    0.61390    0.65400    1.000
    H13      H        0.10130    0.66780    0.47230    1.000
    H14      H        0.38640    0.20340    0.69580    1.000
    C1       C        0.66310    0.14340    0.87680    1.000
    C2       C        0.67000    0.29890    0.81660    1.000
    C3       C        0.69040    0.34260    0.70600    1.000
    C4       C        0.65870    0.54220    0.80890    1.000
    C5       C        0.65640    0.64980    0.86120    1.000
    C6       C        0.65610    0.39830    0.86900    1.000
    C7       C        0.64090    0.66800    0.45850    1.000
    C8       C        0.67260    0.58650    0.69730    1.000
    C9       C        0.87100    0.45780    0.37360    1.000
    C10      C        0.78690    0.59820    0.30430    1.000
    C11      C        0.69330    0.48660    0.64440    1.000
    C12      C        0.83990    0.42530    0.48250    1.000
    C13      C        0.72340    0.52840    0.52560    1.000
    C14      C        0.67120    0.70260    0.34880    1.000
    C15      C        0.81600    0.63210    0.18560    1.000
    C16      C        0.33690    0.85660    0.12320    1.000
    C17      C        0.33000    0.70110    0.18340    1.000
    C18      C        0.30960    0.65740    0.29400    1.000
    C19      C        0.34130    0.45780    0.19110    1.000
    C20      C        0.34360    0.35020    0.13880    1.000
    C21      C        0.34390    0.60170    0.13100    1.000
    C22      C        0.35910    0.33200    0.54150    1.000
    C23      C        0.32740    0.41350    0.30270    1.000
    C24      C        0.12900    0.54220    0.62640    1.000
    C25      C        0.21310    0.40180    0.69570    1.000
    C26      C        0.30670    0.51340    0.35560    1.000
    C27      C        0.16010    0.57470    0.51750    1.000
    C28      C        0.27660    0.47160    0.47440    1.000
    C29      C        0.32880    0.29740    0.65120    1.000
    C30      C        0.18400    0.36790    0.81440    1.000
    O1       O        0.70100    0.05310    0.82840    1.000
    O2       O        0.62000    0.10630    0.97780    1.000
    O3       O        0.70100    0.59830    0.95780    1.000
    O4       O        0.61310    0.78430    0.81240    1.000
    O5       O        0.92010    0.52760    0.15600    1.000
    O6       O        0.73700    0.75760    0.12710    1.000
    O7       O        0.29900    0.94690    0.17160    1.000
    O8       O        0.38000    0.89370    0.02220    1.000
    O9       O        0.29900    0.40170    0.04220    1.000
    O10      O        0.38690    0.21570    0.18760    1.000
    O11      O        0.07990    0.47240    0.84400    1.000
    O12      O        0.26300    0.24240    0.87290    1.000
