data_functionalizedCrystal
_audit_creation_method	'EQeq! by Chris Wilmer'
_symmetry_space_group_name_H-M	'P1'
_symmetry_Int_Tables_number	1
_symmetry_cell_setting	triclinic
loop_
_symmetry_equiv_pos_as_xyz
  x,y,z
_cell_length_a	14.746
_cell_length_b	11.038
_cell_length_c	12.306
_cell_angle_alpha	90
_cell_angle_beta	90
_cell_angle_gamma	90
loop_
_atom_site_label
_atom_site_type_symbol
_atom_site_fract_x
_atom_site_fract_y
_atom_site_fract_z
_atom_site_charge
Mof_O 	O 	0.2388	0.9081	0.3685	-0.22
Mof_O 	O 	0.1183	0.8354	0.45	-0.417
Mof_O 	O 	0.2093	0.8374	0.3515	-0.547
Mof_O 	O 	0.1376	0.907	0.4833	-0.308
Mof_C 	C 	0.0203	0.0412	0.3419	0.145
Mof_H 	H 	0.0023	0.0359	0.4141	0.019
Mof_C 	C 	0.9685	0.1102	0.269	-0.168
Mof_H 	H 	0.9172	0.1511	0.293	0.112
Mof_C 	C 	0.9941	0.1167	0.1623	0.104
Mof_C 	C 	0.0966	0.9819	0.309	-0.241
Mof_C 	C 	0.1205	0.9869	0.2019	0.159
Mof_H 	H 	0.1712	0.9445	0.1778	-0.004
Mof_C 	C 	0.0706	0.0535	0.1295	-0.196
Mof_H 	H 	0.0884	0.0565	0.0571	0.101
Mof_C 	C 	0.153	0.9046	0.3843	0.664
Mof_C 	C 	0.8485	0.1928	0.0828	-0.106
Mof_H 	H 	0.8171	0.1569	0.1398	0.087
Mof_C 	C 	0.9418	0.1888	0.0812	0.025
Mof_O 	O 	0.2612	0.5919	0.3685	-0.221
Mof_O 	O 	0.3817	0.6646	0.45	-0.417
Mof_O 	O 	0.2907	0.6626	0.3515	-0.548
Mof_O 	O 	0.3624	0.593	0.4833	-0.308
Mof_C 	C 	0.4797	0.4588	0.3419	0.148
Mof_H 	H 	0.4977	0.4641	0.4141	0.019
Mof_C 	C 	0.5315	0.3898	0.269	-0.17
Mof_H 	H 	0.5828	0.3489	0.293	0.112
Mof_C 	C 	0.5059	0.3833	0.1623	0.102
Mof_C 	C 	0.4034	0.5181	0.309	-0.242
Mof_C 	C 	0.3795	0.5131	0.2019	0.157
Mof_H 	H 	0.3288	0.5555	0.1778	-0.003
Mof_C 	C 	0.4294	0.4465	0.1295	-0.193
Mof_H 	H 	0.4116	0.4435	0.0571	0.101
Mof_C 	C 	0.347	0.5954	0.3843	0.664
Mof_C 	C 	0.6515	0.3072	0.0828	-0.107
Mof_H 	H 	0.6829	0.3431	0.1398	0.088
Mof_C 	C 	0.5582	0.3112	0.0812	0.026
Mof_O 	O 	0.2612	0.9081	0.6315	-0.22
Mof_O 	O 	0.3817	0.8354	0.55	-0.417
Mof_O 	O 	0.2907	0.8374	0.6485	-0.548
Mof_O 	O 	0.3624	0.907	0.5167	-0.308
Mof_C 	C 	0.4797	0.0412	0.6581	0.148
Mof_H 	H 	0.4977	0.0359	0.5859	0.019
Mof_C 	C 	0.5315	0.1102	0.731	-0.17
Mof_H 	H 	0.5828	0.1511	0.707	0.112
Mof_C 	C 	0.5059	0.1167	0.8377	0.103
Mof_C 	C 	0.4034	0.9819	0.691	-0.242
Mof_C 	C 	0.3795	0.9869	0.7981	0.158
Mof_H 	H 	0.3288	0.9445	0.8222	-0.003
Mof_C 	C 	0.4294	0.0535	0.8705	-0.193
Mof_H 	H 	0.4116	0.0565	0.9429	0.102
Mof_C 	C 	0.347	0.9046	0.6157	0.665
Mof_C 	C 	0.6515	0.1928	0.9172	-0.104
Mof_H 	H 	0.6829	0.1569	0.8602	0.087
Mof_C 	C 	0.5582	0.1888	0.9188	0.028
Mof_O 	O 	0.2388	0.5919	0.6315	-0.22
Mof_O 	O 	0.1183	0.6646	0.55	-0.417
Mof_O 	O 	0.2093	0.6626	0.6485	-0.547
Mof_O 	O 	0.1376	0.593	0.5167	-0.308
Mof_C 	C 	0.0203	0.4588	0.6581	0.148
Mof_H 	H 	0.0023	0.4641	0.5859	0.019
Mof_C 	C 	0.9685	0.3898	0.731	-0.17
Mof_H 	H 	0.9172	0.3489	0.707	0.112
Mof_C 	C 	0.9941	0.3833	0.8377	0.103
Mof_C 	C 	0.0966	0.5181	0.691	-0.242
Mof_C 	C 	0.1205	0.5131	0.7981	0.158
Mof_H 	H 	0.1712	0.5555	0.8222	-0.003
Mof_C 	C 	0.0706	0.4465	0.8705	-0.193
Mof_H 	H 	0.0884	0.4435	0.9429	0.103
Mof_C 	C 	0.153	0.5954	0.6157	0.665
Mof_C 	C 	0.8485	0.3072	0.9172	-0.103
Mof_H 	H 	0.8171	0.3431	0.8602	0.087
Mof_C 	C 	0.9418	0.3112	0.9188	0.027
Mof_In	In	0.25	0.75	0.5	3.123
Mof_C 	C 	0.8009	0.25	-0	0.044
Mof_C 	C 	0.9879	0.25	-0	-0.095
Mof_H 	H 	0.0509	0.25	-0	0.064
Mof_C 	C 	0.6991	0.25	-0	0.045
Mof_C 	C 	0.5121	0.25	-0	-0.098
Mof_H 	H 	0.4491	0.25	-0	0.066
Mof_O 	O 	0.7612	0.0919	0.6315	-0.22
Mof_O 	O 	0.8817	0.1646	0.55	-0.417
Mof_O 	O 	0.7907	0.1626	0.6485	-0.547
Mof_O 	O 	0.8624	0.093	0.5167	-0.308
Mof_C 	C 	0.9797	0.9588	0.6581	0.145
Mof_H 	H 	0.9977	0.9641	0.5859	0.019
Mof_C 	C 	0.0315	0.8898	0.731	-0.168
Mof_H 	H 	0.0828	0.8489	0.707	0.112
Mof_C 	C 	0.0059	0.8833	0.8377	0.104
Mof_C 	C 	0.9034	0.0181	0.691	-0.241
Mof_C 	C 	0.8795	0.0131	0.7981	0.159
Mof_H 	H 	0.8288	0.0555	0.8222	-0.003
Mof_C 	C 	0.9294	0.9465	0.8705	-0.196
Mof_H 	H 	0.9116	0.9435	0.9429	0.103
Mof_C 	C 	0.847	0.0954	0.6157	0.664
Mof_C 	C 	0.1515	0.8072	0.9172	-0.103
Mof_H 	H 	0.1829	0.8431	0.8602	0.087
Mof_C 	C 	0.0582	0.8112	0.9188	0.027
Mof_O 	O 	0.7388	0.4081	0.6315	-0.22
Mof_O 	O 	0.6183	0.3354	0.55	-0.417
Mof_O 	O 	0.7093	0.3374	0.6485	-0.548
Mof_O 	O 	0.6376	0.407	0.5167	-0.308
Mof_C 	C 	0.5203	0.5412	0.6581	0.148
Mof_H 	H 	0.5023	0.5359	0.5859	0.019
Mof_C 	C 	0.4685	0.6102	0.731	-0.17
Mof_H 	H 	0.4172	0.6511	0.707	0.112
Mof_C 	C 	0.4941	0.6167	0.8377	0.102
Mof_C 	C 	0.5966	0.4819	0.691	-0.242
Mof_C 	C 	0.6205	0.4869	0.7981	0.158
Mof_H 	H 	0.6712	0.4445	0.8222	-0.003
Mof_C 	C 	0.5706	0.5535	0.8705	-0.193
Mof_H 	H 	0.5884	0.5565	0.9429	0.102
Mof_C 	C 	0.653	0.4046	0.6157	0.664
Mof_C 	C 	0.3485	0.6928	0.9172	-0.104
Mof_H 	H 	0.3171	0.6569	0.8602	0.087
Mof_C 	C 	0.4418	0.6888	0.9188	0.028
Mof_O 	O 	0.7388	0.0919	0.3685	-0.22
Mof_O 	O 	0.6183	0.1646	0.45	-0.417
Mof_O 	O 	0.7093	0.1626	0.3515	-0.548
Mof_O 	O 	0.6376	0.093	0.4833	-0.308
Mof_C 	C 	0.5203	0.9588	0.3419	0.147
Mof_H 	H 	0.5023	0.9641	0.4141	0.019
Mof_C 	C 	0.4685	0.8898	0.269	-0.17
Mof_H 	H 	0.4172	0.8489	0.293	0.112
Mof_C 	C 	0.4941	0.8833	0.1623	0.102
Mof_C 	C 	0.5966	0.0181	0.309	-0.242
Mof_C 	C 	0.6205	0.0131	0.2019	0.157
Mof_H 	H 	0.6712	0.0555	0.1778	-0.003
Mof_C 	C 	0.5706	0.9465	0.1295	-0.193
Mof_H 	H 	0.5884	0.9435	0.0571	0.101
Mof_C 	C 	0.653	0.0954	0.3843	0.664
Mof_C 	C 	0.3485	0.8072	0.0828	-0.107
Mof_H 	H 	0.3171	0.8431	0.1398	0.088
Mof_C 	C 	0.4418	0.8112	0.0812	0.026
Mof_O 	O 	0.7612	0.4081	0.3685	-0.221
Mof_O 	O 	0.8817	0.3354	0.45	-0.417
Mof_O 	O 	0.7907	0.3374	0.3515	-0.548
Mof_O 	O 	0.8624	0.407	0.4833	-0.308
Mof_C 	C 	0.9797	0.5412	0.3419	0.148
Mof_H 	H 	0.9977	0.5359	0.4141	0.019
Mof_C 	C 	0.0315	0.6102	0.269	-0.17
Mof_H 	H 	0.0828	0.6511	0.293	0.112
Mof_C 	C 	0.0059	0.6167	0.1623	0.103
Mof_C 	C 	0.9034	0.4819	0.309	-0.242
Mof_C 	C 	0.8795	0.4869	0.2019	0.158
Mof_H 	H 	0.8288	0.4445	0.1778	-0.003
Mof_C 	C 	0.9294	0.5535	0.1295	-0.194
Mof_H 	H 	0.9116	0.5565	0.0571	0.101
Mof_C 	C 	0.847	0.4046	0.3843	0.665
Mof_C 	C 	0.1515	0.6928	0.0828	-0.106
Mof_H 	H 	0.1829	0.6569	0.1398	0.087
Mof_C 	C 	0.0582	0.6888	0.0812	0.025
Mof_In	In	0.75	0.25	0.5	3.123
Mof_C 	C 	0.1991	0.75	-0	0.044
Mof_C 	C 	0.0121	0.75	-0	-0.095
Mof_H 	H 	0.9491	0.75	-0	0.064
Mof_C 	C 	0.3009	0.75	-0	0.045
Mof_C 	C 	0.4879	0.75	-0	-0.098
Mof_H 	H 	0.5509	0.75	-0	0.066
_end
