# CIF file generated by openbabel 3.1.0, see https://openbabel.org
data_I
_chemical_name_common 'XEKCOH_clean'
_cell_length_a 16.6253
_cell_length_b 16.6254
_cell_length_c 20.0411
_cell_angle_alpha 73.2778
_cell_angle_beta 73.2777
_cell_angle_gamma 107.837
_space_group_name_H-M_alt 'P 1'
_space_group_name_Hall 'P 1'
loop_
    _symmetry_equiv_pos_as_xyz
    x,y,z
loop_
    _atom_site_label
    _atom_site_type_symbol
    _atom_site_fract_x
    _atom_site_fract_y
    _atom_site_fract_z
    _atom_site_occupancy
    K1       K        0.44265    0.71303    0.96840    1.000
    K2       K        0.58895    0.31857    0.96840    1.000
    K3       K        0.46303    0.69265    0.46840    1.000
    K4       K        0.06857    0.83895    0.46840    1.000
    K5       K        0.85641    0.85641    0.28718    1.000
    K6       K        0.45501    0.45501    0.08998    1.000
    K7       K        0.60641    0.10641    0.78718    1.000
    K8       K        0.20501    0.70501    0.58998    1.000
    La1      La       0.25406    0.37034    0.86420    1.000
    La2      La       0.91468    0.05232    0.51988    1.000
    La3      La       0.88174    0.76546    0.86420    1.000
    La4      La       0.56544    0.42780    0.51988    1.000
    La5      La       0.12034    0.50406    0.36420    1.000
    La6      La       0.80232    0.16468    0.01988    1.000
    La7      La       0.51546    0.13174    0.36420    1.000
    La8      La       0.17780    0.81544    0.01988    1.000
    Pt1      Pt       0.09339    0.22185    0.19273    1.000
    Pt2      Pt       0.58589    0.70929    0.68908    1.000
    Pt3      Pt       0.09785    0.22515    0.67923    1.000
    Pt4      Pt       0.59175    0.70732    0.18951    1.000
    Pt5      Pt       0.71388    0.58542    0.19273    1.000
    Pt6      Pt       0.72503    0.60163    0.68908    1.000
    Pt7      Pt       0.22292    0.09563    0.67923    1.000
    Pt8      Pt       0.21874    0.10317    0.18951    1.000
    Pt9      Pt       0.97185    0.34339    0.69273    1.000
    Pt10     Pt       0.45929    0.83589    0.18908    1.000
    Pt11     Pt       0.97515    0.34785    0.17923    1.000
    Pt12     Pt       0.45732    0.84175    0.68951    1.000
    Pt13     Pt       0.33542    0.96388    0.69273    1.000
    Pt14     Pt       0.35163    0.97503    0.18908    1.000
    Pt15     Pt       0.84562    0.47292    0.17923    1.000
    Pt16     Pt       0.85317    0.46874    0.68951    1.000
    C1       C        0.99010    0.11570    0.19980    1.000
    C2       C        0.14830    0.27150    0.07880    1.000
    C3       C        0.19970    0.32550    0.18580    1.000
    C4       C        0.03890    0.17450    0.30580    1.000
    C5       C        0.58340    0.70760    0.78880    1.000
    C6       C        0.69690    0.83090    0.63500    1.000
    C7       C        0.59270    0.71430    0.58720    1.000
    C8       C        0.47670    0.58730    0.74180    1.000
    C9       C        0.15260    0.27740    0.74200    1.000
    C10      C        0.20150    0.33090    0.58520    1.000
    C11      C        0.04540    0.17700    0.61440    1.000
    C12      C        0.99650    0.12070    0.77380    1.000
    C13      C        0.48000    0.59940    0.26780    1.000
    C14      C        0.62120    0.73140    0.27320    1.000
    C15      C        0.70710    0.81370    0.10900    1.000
    C16      C        0.56070    0.67830    0.10640    1.000
    C17      C        0.81010    0.68450    0.19980    1.000
    C18      C        0.77290    0.64970    0.07880    1.000
    C19      C        0.61450    0.48870    0.18580    1.000
    C20      C        0.65530    0.51970    0.30580    1.000
    C21      C        0.62780    0.50360    0.78880    1.000
    C22      C        0.66810    0.53410    0.63500    1.000
    C23      C        0.82010    0.69850    0.58720    1.000
    C24      C        0.78150    0.67090    0.74180    1.000
    C25      C        0.10540    0.98060    0.74200    1.000
    C26      C        0.21330    0.08390    0.58520    1.000
    C27      C        0.34020    0.20860    0.61440    1.000
    C28      C        0.22970    0.10550    0.77380    1.000
    C29      C        0.25220    0.13280    0.26780    1.000
    C30      C        0.10560    0.99540    0.27320    1.000
    C31      C        0.18390    0.07730    0.10900    1.000
    C32      C        0.33290    0.21530    0.10640    1.000
    C33      C        0.86570    0.24010    0.69980    1.000
    C34      C        0.02150    0.39830    0.57880    1.000
    C35      C        0.07550    0.44970    0.68580    1.000
    C36      C        0.92450    0.28890    0.80580    1.000
    C37      C        0.45760    0.83340    0.28880    1.000
    C38      C        0.58090    0.94690    0.13500    1.000
    C39      C        0.46430    0.84270    0.08720    1.000
    C40      C        0.33730    0.72670    0.24180    1.000
    C41      C        0.02740    0.40260    0.24200    1.000
    C42      C        0.08090    0.45150    0.08520    1.000
    C43      C        0.92700    0.29540    0.11440    1.000
    C44      C        0.87070    0.24650    0.27380    1.000
    C45      C        0.34940    0.73000    0.76780    1.000
    C46      C        0.48140    0.87120    0.77320    1.000
    C47      C        0.56370    0.95710    0.60900    1.000
    C48      C        0.42830    0.81070    0.60640    1.000
    C49      C        0.43450    0.06010    0.69980    1.000
    C50      C        0.39970    0.02290    0.57880    1.000
    C51      C        0.23870    0.86450    0.68580    1.000
    C52      C        0.26970    0.90530    0.80580    1.000
    C53      C        0.25360    0.87780    0.28880    1.000
    C54      C        0.28410    0.91810    0.13500    1.000
    C55      C        0.44850    0.07010    0.08720    1.000
    C56      C        0.42090    0.03150    0.24180    1.000
    C57      C        0.73060    0.35540    0.24200    1.000
    C58      C        0.83390    0.46330    0.08520    1.000
    C59      C        0.95860    0.59020    0.11440    1.000
    C60      C        0.85550    0.47970    0.27380    1.000
    C61      C        0.88280    0.50220    0.76780    1.000
    C62      C        0.74540    0.35560    0.77320    1.000
    C63      C        0.82730    0.43390    0.60900    1.000
    C64      C        0.96530    0.58290    0.60640    1.000
    N1       N        0.93430    0.05350    0.20260    1.000
    N2       N        0.17976    0.30016    0.01428    1.000
    N3       N        0.26010    0.38610    0.18000    1.000
    N4       N        0.00780    0.14900    0.37060    1.000
    N5       N        0.58470    0.70910    0.84520    1.000
    N6       N        0.76220    0.89820    0.60080    1.000
    N7       N        0.60180    0.72100    0.52660    1.000
    N8       N        0.41390    0.51670    0.77220    1.000
    N9       N        0.18310    0.30930    0.77740    1.000
    N10      N        0.26140    0.39080    0.53180    1.000
    N11      N        0.01690    0.15310    0.57460    1.000
    N12      N        0.93920    0.06180    0.82920    1.000
    N13      N        0.41570    0.53550    0.31460    1.000
    N14      N        0.63680    0.74100    0.32260    1.000
    N15      N        0.77240    0.87300    0.06300    1.000
    N16      N        0.54090    0.65570    0.06300    1.000
    N17      N        0.86310    0.74390    0.20260    1.000
    N18      N        0.80596    0.68556    0.01428    1.000
    N19      N        0.55990    0.43390    0.18000    1.000
    N20      N        0.62160    0.48040    0.37060    1.000
    N21      N        0.57010    0.44570    0.84520    1.000
    N22      N        0.63700    0.50100    0.60080    1.000
    N23      N        0.87160    0.75240    0.52660    1.000
    N24      N        0.81390    0.71110    0.77220    1.000
    N25      N        0.03950    0.91330    0.77740    1.000
    N26      N        0.20680    0.07740    0.53180    1.000
    N27      N        0.40850    0.27230    0.57460    1.000
    N28      N        0.23160    0.10900    0.82920    1.000
    N29      N        0.26970    0.14990    0.31460    1.000
    N30      N        0.04060    0.93640    0.32260    1.000
    N31      N        0.16460    0.06400    0.06300    1.000
    N32      N        0.39610    0.28130    0.06300    1.000
    N33      N        0.80350    0.18430    0.70260    1.000
    N34      N        0.05016    0.42976    0.51428    1.000
    N35      N        0.13610    0.51010    0.68000    1.000
    N36      N        0.89900    0.25780    0.87060    1.000
    N37      N        0.45910    0.83470    0.34520    1.000
    N38      N        0.64820    0.01220    0.10080    1.000
    N39      N        0.47100    0.85180    0.02660    1.000
    N40      N        0.26670    0.66390    0.27220    1.000
    N41      N        0.05930    0.43310    0.27740    1.000
    N42      N        0.14080    0.51140    0.03180    1.000
    N43      N        0.90310    0.26690    0.07460    1.000
    N44      N        0.81180    0.18920    0.32920    1.000
    N45      N        0.28550    0.66570    0.81460    1.000
    N46      N        0.49100    0.88680    0.82260    1.000
    N47      N        0.62300    0.02240    0.56300    1.000
    N48      N        0.40570    0.79090    0.56300    1.000
    N49      N        0.49390    0.11310    0.70260    1.000
    N50      N        0.43556    0.05596    0.51428    1.000
    N51      N        0.18390    0.80990    0.68000    1.000
    N52      N        0.23040    0.87160    0.87060    1.000
    N53      N        0.19570    0.82010    0.34520    1.000
    N54      N        0.25100    0.88700    0.10080    1.000
    N55      N        0.50240    0.12160    0.02660    1.000
    N56      N        0.46110    0.06390    0.27220    1.000
    N57      N        0.66330    0.28950    0.27740    1.000
    N58      N        0.82740    0.45680    0.03180    1.000
    N59      N        0.02230    0.65850    0.07460    1.000
    N60      N        0.85900    0.48160    0.32920    1.000
    N61      N        0.89990    0.51970    0.81460    1.000
    N62      N        0.68640    0.29060    0.82260    1.000
    N63      N        0.81400    0.41460    0.56300    1.000
    N64      N        0.03130    0.64610    0.56300    1.000
    O1       O        0.41780    0.53300    0.96900    1.000
    O2       O        0.61320    0.49800    0.96900    1.000
    O3       O        0.28300    0.66780    0.46900    1.000
    O4       O        0.24800    0.86320    0.46900    1.000
