data_functionalizedCrystal
_audit_creation_method	'EQeq! by Chris Wilmer'
_symmetry_space_group_name_H-M	'P1'
_symmetry_Int_Tables_number	1
_symmetry_cell_setting	triclinic
loop_
_symmetry_equiv_pos_as_xyz
  x,y,z
_cell_length_a	10.0196
_cell_length_b	13.5634
_cell_length_c	17.5811
_cell_angle_alpha	71.968
_cell_angle_beta	83.625
_cell_angle_gamma	78.833
loop_
_atom_site_label
_atom_site_type_symbol
_atom_site_fract_x
_atom_site_fract_y
_atom_site_fract_z
_atom_site_charge
Mof_Co	Co	0.80028	0.5082	0.57022	1.178
Mof_Co	Co	0.19972	0.4918	0.42978	1.174
Mof_Co	Co	-0	0.5	-0	1.089
Mof_H 	H 	0.3481	0.4876	0.5745	0.025
Mof_H 	H 	0.0682	0.4924	0.7551	0.03
Mof_H 	H 	0.455	0.5144	0.7792	0.046
Mof_H 	H 	0.6076	0.3591	0.5597	0.008
Mof_H 	H 	0.6109	0.1954	0.5488	0.091
Mof_H 	H 	0.0149	0.1454	0.5526	0.065
Mof_H 	H 	0.001	0.3106	0.563	-0.031
Mof_H 	H 	0.8549	0.0395	0.4905	0.06
Mof_H 	H 	0.8927	0.9928	0.5801	0.055
Mof_H 	H 	0.6267	0.0337	0.5265	0.103
Mof_H 	H 	0.6556	0.9992	0.6178	0.1
Mof_H 	H 	0.8593	0.6479	0.6688	-0.003
Mof_H 	H 	0.81	0.819	0.672	0.112
Mof_H 	H 	0.6406	0.899	0.4624	0.101
Mof_H 	H 	0.6891	0.7259	0.4657	-0.015
Mof_H 	H 	0.1705	0.6774	0.9363	-0.003
Mof_H 	H 	0.1599	0.8518	0.9219	0.103
Mof_H 	H 	0.7905	0.8601	0.0297	0.098
Mof_H 	H 	0.8077	0.6861	0.042	-0.012
Mof_H 	H 	0.8735	0.024	0.9748	0.054
Mof_H 	H 	0.0078	0.0264	0.9201	0.027
Mof_H 	H 	0.6519	0.5124	0.4255	0.019
Mof_H 	H 	0.9318	0.5076	0.2449	0.032
Mof_H 	H 	0.545	0.4856	0.2208	0.034
Mof_H 	H 	0.3924	0.6409	0.4403	-0.002
Mof_H 	H 	0.3891	0.8046	0.4512	0.108
Mof_H 	H 	0.9851	0.8546	0.4474	0.132
Mof_H 	H 	0.999	0.6894	0.437	0.012
Mof_H 	H 	0.1451	0.9605	0.5095	0.09
Mof_H 	H 	0.1073	0.0072	0.4199	0.095
Mof_H 	H 	0.3733	0.9663	0.4735	0.049
Mof_H 	H 	0.3444	0.0008	0.3822	0.059
Mof_H 	H 	0.1407	0.3521	0.3312	-0.008
Mof_H 	H 	0.19	0.181	0.328	0.088
Mof_H 	H 	0.3594	0.101	0.5376	0.091
Mof_H 	H 	0.3109	0.2741	0.5343	-0.007
Mof_H 	H 	0.8295	0.3226	0.0637	-0.017
Mof_H 	H 	0.8401	0.1482	0.0781	0.089
Mof_H 	H 	0.2095	0.1399	0.9703	0.098
Mof_H 	H 	0.1923	0.3139	0.958	-0.016
Mof_H 	H 	0.1265	0.976	0.0252	0.093
Mof_H 	H 	0.9922	0.9736	0.0799	0.124
Mof_C 	C 	0.4231	0.5041	0.67091	-0.103
Mof_C 	C 	0.325	0.49163	0.62628	0.056
Mof_C 	C 	0.1932	0.48515	0.65806	-0.137
Mof_C 	C 	0.1576	0.49389	0.73444	0.059
Mof_C 	C 	0.2559	0.5049	0.78058	-0.114
Mof_C 	C 	0.3888	0.5087	0.74843	0.045
Mof_C 	C 	0.5647	0.50973	0.63488	0.306
Mof_C 	C 	0.2186	0.5116	0.86421	0.34
Mof_C 	C 	0.6912	0.3153	0.55878	0.098
Mof_C 	C 	0.6925	0.2164	0.5523	-0.167
Mof_C 	C 	0.8138	0.1484	0.55091	0.111
Mof_C 	C 	0.9299	0.1871	0.5544	-0.142
Mof_C 	C 	0.9208	0.287	0.56073	0.129
Mof_C 	C 	0.8238	0.0391	0.5448	-0.097
Mof_C 	C 	0.693	0.9937	0.5657	-0.25
Mof_C 	C 	0.8131	0.6988	0.62717	0.127
Mof_C 	C 	0.7849	0.8019	0.6289	-0.222
Mof_C 	C 	0.7193	0.8795	0.567	0.185
Mof_C 	C 	0.6843	0.8493	0.5056	-0.233
Mof_C 	C 	0.7141	0.7447	0.50804	0.13
Mof_C 	C 	0.0927	0.7137	0.9559	0.097
Mof_C 	C 	0.0876	0.8186	0.948	-0.208
Mof_C 	C 	0.8702	0.8244	0.0114	-0.243
Mof_C 	C 	0.8808	0.7197	0.0176	0.078
Mof_C 	C 	0.9753	0.8753	0.9788	0.178
Mof_C 	C 	0.9684	0.9917	0.9721	0.005
Mof_C 	C 	0.0896	0.46901	0.60888	0.371
Mof_C 	C 	0.5769	0.4959	0.32909	-0.118
Mof_C 	C 	0.675	0.50837	0.37372	0.073
Mof_C 	C 	0.8068	0.51485	0.34194	-0.16
Mof_C 	C 	0.8424	0.50611	0.26556	0.078
Mof_C 	C 	0.7441	0.4951	0.21942	-0.128
Mof_C 	C 	0.6112	0.4913	0.25157	0.057
Mof_C 	C 	0.4353	0.49027	0.36512	0.312
Mof_C 	C 	0.7814	0.4884	0.13579	0.348
Mof_C 	C 	0.3088	0.6847	0.44122	0.121
Mof_C 	C 	0.3075	0.7836	0.4477	-0.218
Mof_C 	C 	0.1862	0.8516	0.44909	0.185
Mof_C 	C 	0.0701	0.8129	0.4456	-0.255
Mof_C 	C 	0.0792	0.713	0.43927	0.091
Mof_C 	C 	0.1762	0.9609	0.4552	-0.243
Mof_C 	C 	0.307	0.0063	0.4343	-0.11
Mof_C 	C 	0.1869	0.3012	0.37283	0.102
Mof_C 	C 	0.2151	0.1981	0.3711	-0.187
Mof_C 	C 	0.2807	0.1205	0.433	0.125
Mof_C 	C 	0.3157	0.1507	0.4944	-0.192
Mof_C 	C 	0.2859	0.2553	0.49196	0.107
Mof_C 	C 	0.9073	0.2863	0.0441	0.118
Mof_C 	C 	0.9124	0.1814	0.052	-0.174
Mof_C 	C 	0.1298	0.1756	0.9886	-0.156
Mof_C 	C 	0.1192	0.2803	0.9824	0.136
Mof_C 	C 	0.0247	0.1247	0.0212	0.102
Mof_C 	C 	0.0316	0.0083	0.0279	-0.319
Mof_C 	C 	0.9104	0.53099	0.39112	0.437
Mof_N 	N 	0.80356	0.35154	0.56379	-0.238
Mof_N 	N 	0.77649	0.66954	0.56771	-0.239
Mof_N 	N 	0.9909	0.66226	0.99031	-0.209
Mof_N 	N 	0.19644	0.64846	0.43621	-0.242
Mof_N 	N 	0.22351	0.33046	0.43229	-0.233
Mof_N 	N 	0.0091	0.33774	0.00969	-0.296
Mof_O 	O 	0.66403	0.48087	0.67975	-0.353
Mof_O 	O 	0.58339	0.54037	0.56035	-0.376
Mof_O 	O 	0.09486	0.52133	0.88627	-0.426
Mof_O 	O 	0.31501	0.5025	0.90808	-0.269
Mof_O 	O 	0.96761	0.47614	0.63542	-0.406
Mof_O 	O 	0.13217	0.44611	0.54578	-0.46
Mof_O 	O 	0.33597	0.51913	0.32025	-0.365
Mof_O 	O 	0.41661	0.45963	0.43965	-0.378
Mof_O 	O 	0.90514	0.47867	0.11373	-0.433
Mof_O 	O 	0.68499	0.4975	0.09192	-0.293
Mof_O 	O 	0.03239	0.52386	0.36458	-0.465
Mof_O 	O 	0.86783	0.55389	0.45422	-0.468
_end
