# CIF file generated by openbabel 3.1.0, see https://openbabel.org
data_I
_chemical_name_common 'image0'
_cell_length_a 11.4325
_cell_length_b 23.171
_cell_length_c 9.7852
_cell_angle_alpha 90
_cell_angle_beta 102.152
_cell_angle_gamma 90
_space_group_name_H-M_alt 'P 1'
_space_group_name_Hall 'P 1'
loop_
    _symmetry_equiv_pos_as_xyz
    x,y,z
loop_
    _atom_site_label
    _atom_site_type_symbol
    _atom_site_fract_x
    _atom_site_fract_y
    _atom_site_fract_z
    _atom_site_occupancy
    O1       O        0.19600    0.14586    0.71940    1.000
    O2       O        0.27700    0.23369    0.73250    1.000
    O3       O        0.65600    0.20888    0.35720    1.000
    H1       H        0.69450    0.23580    0.33460    1.000
    O4       O        0.54180    0.27916    0.41110    1.000
    C1       C        0.42750    0.20202    0.55980    1.000
    H2       H        0.41300    0.24120    0.56930    1.000
    C2       C        0.38630    0.10342    0.60610    1.000
    H3       H        0.34370    0.07640    0.64610    1.000
    C3       C        0.51180    0.18437    0.48520    1.000
    C4       C        0.36470    0.16169    0.62000    1.000
    C5       C        0.27140    0.18107    0.69690    1.000
    C6       C        0.53460    0.12615    0.47230    1.000
    H4       H        0.59200    0.11440    0.42350    1.000
    C7       C        0.49220    0.02460    0.51140    1.000
    C8       C        0.47160    0.08494    0.53240    1.000
    C9       C        0.57360    0.22859    0.41390    1.000
    O5       O        0.69600    0.64586    0.71940    1.000
    O6       O        0.77700    0.73369    0.73250    1.000
    O7       O        0.15600    0.70888    0.35720    1.000
    H5       H        0.19450    0.73580    0.33460    1.000
    O8       O        0.04180    0.77916    0.41110    1.000
    C10      C        0.92750    0.70202    0.55980    1.000
    H6       H        0.91300    0.74120    0.56930    1.000
    C11      C        0.88630    0.60342    0.60610    1.000
    H7       H        0.84370    0.57640    0.64610    1.000
    C12      C        0.01180    0.68437    0.48520    1.000
    C13      C        0.86470    0.66169    0.62000    1.000
    C14      C        0.77140    0.68107    0.69690    1.000
    C15      C        0.03460    0.62615    0.47230    1.000
    H8       H        0.09200    0.61440    0.42350    1.000
    C16      C        0.99220    0.52460    0.51140    1.000
    C17      C        0.97160    0.58494    0.53240    1.000
    C18      C        0.07360    0.72859    0.41390    1.000
    O9       O        0.80400    0.14586    0.78060    1.000
    O10      O        0.72300    0.23369    0.76750    1.000
    O11      O        0.34400    0.20888    0.14280    1.000
    H9       H        0.30550    0.23580    0.16540    1.000
    O12      O        0.45820    0.27916    0.08890    1.000
    C19      C        0.57250    0.20202    0.94020    1.000
    H10      H        0.58700    0.24120    0.93070    1.000
    C20      C        0.61370    0.10342    0.89390    1.000
    H11      H        0.65630    0.07640    0.85390    1.000
    C21      C        0.48820    0.18437    0.01480    1.000
    C22      C        0.63530    0.16169    0.88000    1.000
    C23      C        0.72860    0.18107    0.80310    1.000
    C24      C        0.46540    0.12615    0.02770    1.000
    H12      H        0.40800    0.11440    0.07650    1.000
    C25      C        0.50780    0.02460    0.98860    1.000
    C26      C        0.52840    0.08494    0.96760    1.000
    C27      C        0.42640    0.22859    0.08610    1.000
    O13      O        0.30400    0.64586    0.78060    1.000
    O14      O        0.22300    0.73369    0.76750    1.000
    O15      O        0.84400    0.70888    0.14280    1.000
    H13      H        0.80550    0.73580    0.16540    1.000
    O16      O        0.95820    0.77916    0.08890    1.000
    C28      C        0.07250    0.70202    0.94020    1.000
    H14      H        0.08700    0.74120    0.93070    1.000
    C29      C        0.11370    0.60342    0.89390    1.000
    H15      H        0.15630    0.57640    0.85390    1.000
    C30      C        0.98820    0.68437    0.01480    1.000
    C31      C        0.13530    0.66169    0.88000    1.000
    C32      C        0.22860    0.68107    0.80310    1.000
    C33      C        0.96540    0.62615    0.02770    1.000
    H16      H        0.90800    0.61440    0.07650    1.000
    C34      C        0.00780    0.52460    0.98860    1.000
    C35      C        0.02840    0.58494    0.96760    1.000
    C36      C        0.92640    0.72859    0.08610    1.000
    O17      O        0.80400    0.85414    0.28060    1.000
    O18      O        0.72300    0.76631    0.26750    1.000
    O19      O        0.34400    0.79112    0.64280    1.000
    H17      H        0.30550    0.76420    0.66540    1.000
    O20      O        0.45820    0.72084    0.58890    1.000
    C37      C        0.57250    0.79798    0.44020    1.000
    H18      H        0.58700    0.75880    0.43070    1.000
    C38      C        0.61370    0.89658    0.39390    1.000
    H19      H        0.65630    0.92360    0.35390    1.000
    C39      C        0.48820    0.81563    0.51480    1.000
    C40      C        0.63530    0.83831    0.38000    1.000
    C41      C        0.72860    0.81893    0.30310    1.000
    C42      C        0.46540    0.87385    0.52770    1.000
    H20      H        0.40800    0.88560    0.57650    1.000
    C43      C        0.50780    0.97540    0.48860    1.000
    C44      C        0.52840    0.91506    0.46760    1.000
    C45      C        0.42640    0.77141    0.58610    1.000
    O21      O        0.30400    0.35414    0.28060    1.000
    O22      O        0.22300    0.26631    0.26750    1.000
    O23      O        0.84400    0.29112    0.64280    1.000
    H21      H        0.80550    0.26420    0.66540    1.000
    O24      O        0.95820    0.22084    0.58890    1.000
    C46      C        0.07250    0.29798    0.44020    1.000
    H22      H        0.08700    0.25880    0.43070    1.000
    C47      C        0.11370    0.39658    0.39390    1.000
    H23      H        0.15630    0.42360    0.35390    1.000
    C48      C        0.98820    0.31563    0.51480    1.000
    C49      C        0.13530    0.33831    0.38000    1.000
    C50      C        0.22860    0.31893    0.30310    1.000
    C51      C        0.96540    0.37385    0.52770    1.000
    H24      H        0.90800    0.38560    0.57650    1.000
    C52      C        0.00780    0.47540    0.48860    1.000
    C53      C        0.02840    0.41506    0.46760    1.000
    C54      C        0.92640    0.27141    0.58610    1.000
    O25      O        0.19600    0.85414    0.21940    1.000
    O26      O        0.27700    0.76631    0.23250    1.000
    O27      O        0.65600    0.79112    0.85720    1.000
    H25      H        0.69450    0.76420    0.83460    1.000
    O28      O        0.54180    0.72084    0.91110    1.000
    C55      C        0.42750    0.79798    0.05980    1.000
    H26      H        0.41300    0.75880    0.06930    1.000
    C56      C        0.38630    0.89658    0.10610    1.000
    H27      H        0.34370    0.92360    0.14610    1.000
    C57      C        0.51180    0.81563    0.98520    1.000
    C58      C        0.36470    0.83831    0.12000    1.000
    C59      C        0.27140    0.81893    0.19690    1.000
    C60      C        0.53460    0.87385    0.97230    1.000
    H28      H        0.59200    0.88560    0.92350    1.000
    C61      C        0.49220    0.97540    0.01140    1.000
    C62      C        0.47160    0.91506    0.03240    1.000
    C63      C        0.57360    0.77141    0.91390    1.000
    O29      O        0.69600    0.35414    0.21940    1.000
    O30      O        0.77700    0.26631    0.23250    1.000
    O31      O        0.15600    0.29112    0.85720    1.000
    H29      H        0.19450    0.26420    0.83460    1.000
    O32      O        0.04180    0.22084    0.91110    1.000
    C64      C        0.92750    0.29798    0.05980    1.000
    H30      H        0.91300    0.25880    0.06930    1.000
    C65      C        0.88630    0.39658    0.10610    1.000
    H31      H        0.84370    0.42360    0.14610    1.000
    C66      C        0.01180    0.31563    0.98520    1.000
    C67      C        0.86470    0.33831    0.12000    1.000
    C68      C        0.77140    0.31893    0.19690    1.000
    C69      C        0.03460    0.37385    0.97230    1.000
    H32      H        0.09200    0.38560    0.92350    1.000
    C70      C        0.99220    0.47540    0.01140    1.000
    C71      C        0.97160    0.41506    0.03240    1.000
    C72      C        0.07360    0.27141    0.91390    1.000
    Ca1      Ca       0.00000    0.14614    0.75000    1.000
    Ca2      Ca       0.50000    0.64614    0.75000    1.000
    Ca3      Ca       0.00000    0.85386    0.25000    1.000
    Ca4      Ca       0.50000    0.35386    0.25000    1.000
