data_functionalizedCrystal
_audit_creation_method	'EQeq! by Chris Wilmer'
_symmetry_space_group_name_H-M	'P1'
_symmetry_Int_Tables_number	1
_symmetry_cell_setting	triclinic
loop_
_symmetry_equiv_pos_as_xyz
  x,y,z
_cell_length_a	8.5146
_cell_length_b	16.2049
_cell_length_c	28.547
_cell_angle_alpha	90
_cell_angle_beta	96.212
_cell_angle_gamma	90
loop_
_atom_site_label
_atom_site_type_symbol
_atom_site_fract_x
_atom_site_fract_y
_atom_site_fract_z
_atom_site_charge
Mof_Er	Er	0.82105	0.28764	0.3321	2.076
Mof_Er	Er	0.19001	0.17334	0.17127	2.071
Mof_Er	Er	0.45121	0.19153	0.49608	2.085
Mof_P 	P 	0.08046	0.2687	0.43704	0.647
Mof_P 	P 	0.56657	0.25143	0.22542	0.631
Mof_O 	O 	0.9319	0.2613	0.4642	-0.37
Mof_H 	H 	0.9338	0.2735	0.4979	0.238
Mof_O 	O 	0.1379	0.3617	0.4418	-0.357
Mof_H 	H 	0.1043	0.4008	0.4183	0.234
Mof_O 	O 	0.2117	0.2147	0.45876	-0.47
Mof_O 	O 	0.0264	0.2502	0.38637	-0.46
Mof_O 	O 	0.1191	0.2866	0.21684	-0.391
Mof_O 	O 	0.0596	0.1286	0.23651	-0.378
Mof_O 	O 	0.973	0.328	0.27293	-0.404
Mof_O 	O 	0.9264	0.17	0.29583	-0.364
Mof_O 	O 	0.5783	0.1383	0.43204	-0.377
Mof_O 	O 	0.5202	0.2984	0.44675	-0.392
Mof_O 	O 	0.7059	0.1738	0.37027	-0.362
Mof_O 	O 	0.6683	0.3325	0.39001	-0.416
Mof_O 	O 	0.9539	0.4141	0.36399	-0.377
Mof_O 	O 	0.6963	0.4115	0.30136	-0.361
Mof_O 	O 	0.9539	0.553	0.36119	-0.361
Mof_O 	O 	0.6842	0.5483	0.30417	-0.371
Mof_O 	O 	0.4253	0.1979	0.21318	-0.471
Mof_O 	O 	0.6205	0.2547	0.27651	-0.453
Mof_O 	O 	0.7117	0.2248	0.19963	-0.372
Mof_H 	H 	0.6704	0.2332	0.1684	0.234
Mof_O 	O 	0.5223	0.3421	0.20731	-0.319
Mof_H 	H 	0.4133	0.3382	0.1925	0.194
Mof_O 	O 	0.3757	0.1905	0.03549	-0.383
Mof_O 	O 	0.3415	0.3452	0.06522	-0.389
Mof_O 	O 	0.3073	0.1423	0.10391	-0.407
Mof_O 	O 	0.2776	0.2966	0.13407	-0.379
Mof_O 	O 	0.6494	0.2491	0.10901	-0.264
Mof_O 	O 	0.9589	0.2171	0.13072	-0.427
Mof_O 	O 	0.6868	0.2599	0.0336	-0.42
Mof_O 	O 	0.9939	0.2212	0.05475	-0.266
Mof_O 	O 	0.6144	0.0774	0.52869	-0.363
Mof_O 	O 	0.6632	0.9431	0.5228	-0.357
Mof_C 	C 	0.0342	0.2736	0.24899	0.285
Mof_C 	C 	0.0027	0.1831	0.2616	0.261
Mof_C 	C 	0.6332	0.1907	0.4043	0.249
Mof_C 	C 	0.6046	0.282	0.41467	0.296
Mof_C 	C 	0.7481	0.4803	0.3161	0.28
Mof_C 	C 	0.8971	0.4828	0.3499	0.262
Mof_C 	C 	0.3326	0.1994	0.0755	0.286
Mof_C 	C 	0.3157	0.288	0.09308	0.266
Mof_C 	C 	0.9119	0.2254	0.0877	0.307
Mof_C 	C 	0.7332	0.2462	0.0763	0.303
Mof_C 	C 	0.5792	0.0073	0.51475	0.279
Mof_Er	Er	0.17895	0.78764	0.1679	2.075
Mof_Er	Er	0.80999	0.67334	0.32873	2.072
Mof_Er	Er	0.54879	0.69153	0.00392	2.084
Mof_P 	P 	0.91954	0.7687	0.06296	0.647
Mof_P 	P 	0.43343	0.75143	0.27458	0.631
Mof_O 	O 	0.0681	0.7613	0.0358	-0.37
Mof_H 	H 	0.0662	0.7735	0.0021	0.238
Mof_O 	O 	0.8621	0.8617	0.0582	-0.358
Mof_H 	H 	0.8957	0.9008	0.0817	0.234
Mof_O 	O 	0.7883	0.7147	0.04124	-0.469
Mof_O 	O 	0.9736	0.7502	0.11363	-0.46
Mof_O 	O 	0.8809	0.7866	0.28316	-0.391
Mof_O 	O 	0.9404	0.6286	0.26349	-0.378
Mof_O 	O 	0.027	0.828	0.22707	-0.404
Mof_O 	O 	0.0736	0.67	0.20417	-0.365
Mof_O 	O 	0.4217	0.6383	0.06796	-0.377
Mof_O 	O 	0.4798	0.7984	0.05325	-0.393
Mof_O 	O 	0.2941	0.6738	0.12973	-0.362
Mof_O 	O 	0.3317	0.8325	0.10999	-0.416
Mof_O 	O 	0.0461	0.9141	0.13601	-0.377
Mof_O 	O 	0.3037	0.9115	0.19864	-0.361
Mof_O 	O 	0.0461	0.053	0.13881	-0.362
Mof_O 	O 	0.3158	0.0483	0.19583	-0.37
Mof_O 	O 	0.5747	0.6979	0.28682	-0.471
Mof_O 	O 	0.3795	0.7547	0.22349	-0.453
Mof_O 	O 	0.2883	0.7248	0.30037	-0.372
Mof_H 	H 	0.3296	0.7332	0.3316	0.234
Mof_O 	O 	0.4777	0.8421	0.29269	-0.319
Mof_H 	H 	0.5867	0.8382	0.3075	0.194
Mof_O 	O 	0.6243	0.6905	0.46451	-0.383
Mof_O 	O 	0.6585	0.8452	0.43478	-0.389
Mof_O 	O 	0.6927	0.6423	0.39609	-0.407
Mof_O 	O 	0.7224	0.7966	0.36593	-0.38
Mof_O 	O 	0.3506	0.7491	0.39099	-0.264
Mof_O 	O 	0.0411	0.7171	0.36928	-0.428
Mof_O 	O 	0.3132	0.7599	0.4664	-0.421
Mof_O 	O 	0.0061	0.7212	0.44525	-0.267
Mof_O 	O 	0.3856	0.5774	0.97131	-0.363
Mof_O 	O 	0.3368	0.4431	0.9772	-0.356
Mof_C 	C 	0.9658	0.7736	0.25101	0.285
Mof_C 	C 	0.9973	0.6831	0.2384	0.262
Mof_C 	C 	0.3668	0.6907	0.0957	0.249
Mof_C 	C 	0.3954	0.782	0.08533	0.296
Mof_C 	C 	0.2519	0.9803	0.1839	0.279
Mof_C 	C 	0.1029	0.9828	0.1501	0.262
Mof_C 	C 	0.6674	0.6994	0.4245	0.286
Mof_C 	C 	0.6843	0.788	0.40692	0.266
Mof_C 	C 	0.0881	0.7254	0.4123	0.307
Mof_C 	C 	0.2668	0.7462	0.4237	0.303
Mof_C 	C 	0.4208	0.5073	0.98525	0.279
Mof_Er	Er	0.17895	0.71236	0.6679	2.076
Mof_Er	Er	0.80999	0.82666	0.82873	2.071
Mof_Er	Er	0.54879	0.80847	0.50392	2.085
Mof_P 	P 	0.91954	0.7313	0.56296	0.647
Mof_P 	P 	0.43343	0.74857	0.77458	0.631
Mof_O 	O 	0.0681	0.7387	0.5358	-0.37
Mof_H 	H 	0.0662	0.7265	0.5021	0.238
Mof_O 	O 	0.8621	0.6383	0.5582	-0.357
Mof_H 	H 	0.8957	0.5992	0.5817	0.234
Mof_O 	O 	0.7883	0.7853	0.54124	-0.47
Mof_O 	O 	0.9736	0.7498	0.61363	-0.46
Mof_O 	O 	0.8809	0.7134	0.78316	-0.391
Mof_O 	O 	0.9404	0.8714	0.76349	-0.378
Mof_O 	O 	0.027	0.672	0.72707	-0.404
Mof_O 	O 	0.0736	0.83	0.70417	-0.364
Mof_O 	O 	0.4217	0.8617	0.56796	-0.377
Mof_O 	O 	0.4798	0.7016	0.55325	-0.392
Mof_O 	O 	0.2941	0.8262	0.62973	-0.362
Mof_O 	O 	0.3317	0.6675	0.60999	-0.416
Mof_O 	O 	0.0461	0.5859	0.63601	-0.377
Mof_O 	O 	0.3037	0.5885	0.69864	-0.361
Mof_O 	O 	0.0461	0.447	0.63881	-0.361
Mof_O 	O 	0.3158	0.4517	0.69583	-0.371
Mof_O 	O 	0.5747	0.8021	0.78682	-0.471
Mof_O 	O 	0.3795	0.7453	0.72349	-0.453
Mof_O 	O 	0.2883	0.7752	0.80037	-0.372
Mof_H 	H 	0.3296	0.7668	0.8316	0.234
Mof_O 	O 	0.4777	0.6579	0.79269	-0.319
Mof_H 	H 	0.5867	0.6618	0.8075	0.194
Mof_O 	O 	0.6243	0.8095	0.96451	-0.383
Mof_O 	O 	0.6585	0.6548	0.93478	-0.389
Mof_O 	O 	0.6927	0.8577	0.89609	-0.407
Mof_O 	O 	0.7224	0.7034	0.86593	-0.379
Mof_O 	O 	0.3506	0.7509	0.89099	-0.264
Mof_O 	O 	0.0411	0.7829	0.86928	-0.427
Mof_O 	O 	0.3132	0.7401	0.9664	-0.42
Mof_O 	O 	0.0061	0.7788	0.94525	-0.266
Mof_O 	O 	0.3856	0.9226	0.47131	-0.363
Mof_O 	O 	0.3368	0.0569	0.4772	-0.357
Mof_C 	C 	0.9658	0.7264	0.75101	0.285
Mof_C 	C 	0.9973	0.8169	0.7384	0.261
Mof_C 	C 	0.3668	0.8093	0.5957	0.249
Mof_C 	C 	0.3954	0.718	0.58533	0.296
Mof_C 	C 	0.2519	0.5197	0.6839	0.28
Mof_C 	C 	0.1029	0.5172	0.6501	0.262
Mof_C 	C 	0.6674	0.8006	0.9245	0.286
Mof_C 	C 	0.6843	0.712	0.90692	0.266
Mof_C 	C 	0.0881	0.7746	0.9123	0.307
Mof_C 	C 	0.2668	0.7538	0.9237	0.303
Mof_C 	C 	0.4208	0.9927	0.48525	0.279
Mof_Er	Er	0.82105	0.21236	0.8321	2.075
Mof_Er	Er	0.19001	0.32666	0.67127	2.072
Mof_Er	Er	0.45121	0.30847	0.99608	2.084
Mof_P 	P 	0.08046	0.2313	0.93704	0.647
Mof_P 	P 	0.56657	0.24857	0.72542	0.631
Mof_O 	O 	0.9319	0.2387	0.9642	-0.37
Mof_H 	H 	0.9338	0.2265	0.9979	0.238
Mof_O 	O 	0.1379	0.1383	0.9418	-0.358
Mof_H 	H 	0.1043	0.0992	0.9183	0.234
Mof_O 	O 	0.2117	0.2853	0.95876	-0.469
Mof_O 	O 	0.0264	0.2498	0.88637	-0.46
Mof_O 	O 	0.1191	0.2134	0.71684	-0.391
Mof_O 	O 	0.0596	0.3714	0.73651	-0.378
Mof_O 	O 	0.973	0.172	0.77293	-0.404
Mof_O 	O 	0.9264	0.33	0.79583	-0.365
Mof_O 	O 	0.5783	0.3617	0.93204	-0.377
Mof_O 	O 	0.5202	0.2016	0.94675	-0.393
Mof_O 	O 	0.7059	0.3262	0.87027	-0.362
Mof_O 	O 	0.6683	0.1675	0.89001	-0.416
Mof_O 	O 	0.9539	0.0859	0.86399	-0.377
Mof_O 	O 	0.6963	0.0885	0.80136	-0.361
Mof_O 	O 	0.9539	0.947	0.86119	-0.362
Mof_O 	O 	0.6842	0.9517	0.80417	-0.37
Mof_O 	O 	0.4253	0.3021	0.71318	-0.471
Mof_O 	O 	0.6205	0.2453	0.77651	-0.453
Mof_O 	O 	0.7117	0.2752	0.69963	-0.372
Mof_H 	H 	0.6704	0.2668	0.6684	0.234
Mof_O 	O 	0.5223	0.1579	0.70731	-0.319
Mof_H 	H 	0.4133	0.1618	0.6925	0.194
Mof_O 	O 	0.3757	0.3095	0.53549	-0.383
Mof_O 	O 	0.3415	0.1548	0.56522	-0.389
Mof_O 	O 	0.3073	0.3577	0.60391	-0.407
Mof_O 	O 	0.2776	0.2034	0.63407	-0.38
Mof_O 	O 	0.6494	0.2509	0.60901	-0.264
Mof_O 	O 	0.9589	0.2829	0.63072	-0.428
Mof_O 	O 	0.6868	0.2401	0.5336	-0.421
Mof_O 	O 	0.9939	0.2788	0.55475	-0.267
Mof_O 	O 	0.6144	0.4226	0.02869	-0.363
Mof_O 	O 	0.6632	0.5569	0.0228	-0.356
Mof_C 	C 	0.0342	0.2264	0.74899	0.285
Mof_C 	C 	0.0027	0.3169	0.7616	0.262
Mof_C 	C 	0.6332	0.3093	0.9043	0.249
Mof_C 	C 	0.6046	0.218	0.91467	0.296
Mof_C 	C 	0.7481	0.0197	0.8161	0.279
Mof_C 	C 	0.8971	0.0172	0.8499	0.262
Mof_C 	C 	0.3326	0.3006	0.5755	0.286
Mof_C 	C 	0.3157	0.212	0.59308	0.266
Mof_C 	C 	0.9119	0.2746	0.5877	0.307
Mof_C 	C 	0.7332	0.2538	0.5763	0.303
Mof_C 	C 	0.5792	0.4927	0.01475	0.279
_end
