# CIF file generated by openbabel 3.1.0, see https://openbabel.org
data_I
_chemical_name_common 'PUQHIT_clean'
_cell_length_a 9.8401
_cell_length_b 11.0617
_cell_length_c 13.5307
_cell_angle_alpha 66.181
_cell_angle_beta 85.823
_cell_angle_gamma 69.89
_space_group_name_H-M_alt 'P 1'
_space_group_name_Hall 'P 1'
loop_
    _symmetry_equiv_pos_as_xyz
    x,y,z
loop_
    _atom_site_label
    _atom_site_type_symbol
    _atom_site_fract_x
    _atom_site_fract_y
    _atom_site_fract_z
    _atom_site_occupancy
    Zn1      Zn       0.11134    0.47295    0.20420    1.000
    Zn2      Zn       0.16858    0.44590    0.98252    1.000
    Zn3      Zn       0.88866    0.52705    0.79580    1.000
    Zn4      Zn       0.83142    0.55410    0.01748    1.000
    H5       H        0.12280    0.90630    0.10390    1.000
    H6       H        0.32710    0.13560    0.87130    1.000
    H7       H        0.35340    0.75060    0.89520    1.000
    H8       H        0.41810    0.83720    0.73200    1.000
    H9       H        0.52260    0.91900    0.66410    1.000
    H10      H        0.20430    0.67310    0.76790    1.000
    H11      H        0.35230    0.70170    0.62590    1.000
    H12      H        0.60280    0.29360    0.78110    1.000
    H13      H        0.44720    0.27600    0.91920    1.000
    H14      H        0.55930    0.61030    0.53640    1.000
    H15      H        0.74860    0.34690    0.65540    1.000
    H16      H        0.71140    0.66140    0.40870    1.000
    H17      H        0.86890    0.67190    0.26940    1.000
    H18      H        0.08060    0.26670    0.41920    1.000
    H19      H        0.93890    0.24740    0.56130    1.000
    H20      H        0.87720    0.09370    0.89610    1.000
    H21      H        0.67290    0.86440    0.12870    1.000
    H22      H        0.64660    0.24940    0.10480    1.000
    H23      H        0.58190    0.16280    0.26800    1.000
    H24      H        0.47740    0.08100    0.33590    1.000
    H25      H        0.79570    0.32690    0.23210    1.000
    H26      H        0.64770    0.29830    0.37410    1.000
    H27      H        0.39720    0.70640    0.21890    1.000
    H28      H        0.55280    0.72400    0.08080    1.000
    H29      H        0.44070    0.38970    0.46360    1.000
    H30      H        0.25140    0.65310    0.34460    1.000
    H31      H        0.28860    0.33860    0.59130    1.000
    H32      H        0.13110    0.32810    0.73060    1.000
    H33      H        0.91940    0.73330    0.58080    1.000
    H34      H        0.06110    0.75260    0.43870    1.000
    C35      C        0.19100    0.68160    0.05460    1.000
    C36      C        0.22940    0.81370    0.00430    1.000
    C37      C        0.17970    0.91750    0.04320    1.000
    C38      C        0.21500    0.04100    0.99110    1.000
    C39      C        0.30350    0.05250    0.90630    1.000
    C40      C        0.35850    0.94350    0.87170    1.000
    C41      C        0.31900    0.82410    0.92000    1.000
    C42      C        0.49740    0.87020    0.73840    1.000
    C43      C        0.62870    0.74290    0.79940    1.000
    C44      C        0.15520    0.16430    0.02560    1.000
    C45      C        0.28630    0.59460    0.77080    1.000
    C46      C        0.37490    0.61290    0.68570    1.000
    C47      C        0.49620    0.50150    0.68800    1.000
    C48      C        0.52160    0.37360    0.77670    1.000
    C49      C        0.42770    0.36370    0.85870    1.000
    C50      C        0.59180    0.52250    0.59730    1.000
    C51      C        0.71470    0.43310    0.59320    1.000
    C52      C        0.80940    0.45050    0.50090    1.000
    C53      C        0.78840    0.57890    0.41230    1.000
    C54      C        0.88220    0.58440    0.32910    1.000
    C55      C        0.00510    0.34920    0.41720    1.000
    C56      C        0.92050    0.33600    0.50190    1.000
    C57      C        0.80900    0.31840    0.94540    1.000
    C58      C        0.77060    0.18630    0.99570    1.000
    C59      C        0.82030    0.08250    0.95680    1.000
    C60      C        0.78500    0.95900    0.00890    1.000
    C61      C        0.69650    0.94750    0.09370    1.000
    C62      C        0.64150    0.05650    0.12830    1.000
    C63      C        0.68100    0.17590    0.08000    1.000
    C64      C        0.50260    0.12980    0.26160    1.000
    C65      C        0.37130    0.25710    0.20060    1.000
    C66      C        0.84480    0.83570    0.97440    1.000
    C67      C        0.71370    0.40540    0.22920    1.000
    C68      C        0.62510    0.38710    0.31430    1.000
    C69      C        0.50380    0.49850    0.31200    1.000
    C70      C        0.47840    0.62640    0.22330    1.000
    C71      C        0.57230    0.63630    0.14130    1.000
    C72      C        0.40820    0.47750    0.40270    1.000
    C73      C        0.28530    0.56690    0.40680    1.000
    C74      C        0.19060    0.54950    0.49910    1.000
    C75      C        0.21160    0.42110    0.58770    1.000
    C76      C        0.11780    0.41560    0.67090    1.000
    C77      C        0.99490    0.65080    0.58280    1.000
    C78      C        0.07950    0.66400    0.49810    1.000
    N79      N        0.30960    0.47330    0.85620    1.000
    N80      N        0.99040    0.46910    0.33130    1.000
    N81      N        0.69040    0.52670    0.14380    1.000
    N82      N        0.00960    0.53090    0.66870    1.000
    O83      O        0.14210    0.65410    0.14750    1.000
    O84      O        0.21110    0.60820    0.00160    1.000
    O85      O        0.44530    0.96860    0.78680    1.000
    O86      O        0.65430    0.70720    0.89620    1.000
    O87      O        0.70150    0.68210    0.73900    1.000
    O88      O        0.15930    0.27930    0.95640    1.000
    O89      O        0.10930    0.14310    0.11750    1.000
    O90      O        0.02570    0.41880    0.11030    1.000
    O91      O        0.85790    0.34590    0.85250    1.000
    O92      O        0.78890    0.39180    0.99840    1.000
    O93      O        0.55470    0.03140    0.21320    1.000
    O94      O        0.34570    0.29280    0.10380    1.000
    O95      O        0.29850    0.31790    0.26100    1.000
    O96      O        0.84070    0.72070    0.04360    1.000
    O97      O        0.89070    0.85690    0.88250    1.000
    O98      O        0.97430    0.58120    0.88970    1.000
    H99      H        0.02570    0.31998    0.14293    1.000
    H100     H        0.97430    0.68002    0.85707    1.000
