# CIF file generated by openbabel 3.1.0, see https://openbabel.org
data_I
_chemical_name_common 'BEVQID_clean'
_cell_length_a 8.6084
_cell_length_b 9.0362
_cell_length_c 9.0362
_cell_angle_alpha 76.8859
_cell_angle_beta 61.554
_cell_angle_gamma 61.554
_space_group_name_H-M_alt 'P 1'
_space_group_name_Hall 'P 1'
loop_
    _symmetry_equiv_pos_as_xyz
    x,y,z
loop_
    _atom_site_label
    _atom_site_type_symbol
    _atom_site_fract_x
    _atom_site_fract_y
    _atom_site_fract_z
    _atom_site_occupancy
    Sr1      Sr       0.50000    0.00000    0.00000    1.000
    Zr1      Zr       0.75000    0.50000    0.50000    1.000
    Cd1      Cd       0.00000    0.00000    0.00000    1.000
    C1       C        0.76990    0.27670    0.27670    1.000
    C2       C        0.98270    0.23130    0.23130    1.000
    C3       C        0.32330    0.72330    0.72330    1.000
    C4       C        0.44530    0.76870    0.76870    1.000
    C5       C        0.95340    0.27670    0.72330    1.000
    C6       C        0.78600    0.23130    0.76870    1.000
    C7       C        0.95340    0.72330    0.27670    1.000
    C8       C        0.78600    0.76870    0.23130    1.000
    O1       O        0.12110    0.12290    0.12290    1.000
    O2       O        0.00090    0.31430    0.31430    1.000
    O3       O        0.73460    0.20320    0.20320    1.000
    O4       O        0.64880    0.38830    0.38830    1.000
    O5       O        0.36690    0.87710    0.87710    1.000
    O6       O        0.62950    0.68570    0.68570    1.000
    O7       O        0.14100    0.79680    0.79680    1.000
    O8       O        0.42540    0.61170    0.61170    1.000
    O9       O        0.75600    0.12290    0.87710    1.000
    O10      O        0.68480    0.31430    0.68570    1.000
    O11      O        0.06220    0.20320    0.79680    1.000
    O12      O        0.96290    0.38830    0.61170    1.000
    O13      O        0.75600    0.87710    0.12290    1.000
    O14      O        0.68480    0.68570    0.31430    1.000
    O15      O        0.06220    0.79680    0.20320    1.000
    O16      O        0.96290    0.61170    0.38830    1.000
