# CIF file generated by openbabel 3.1.0, see https://openbabel.org
data_I
_chemical_name_common 'image0'
_cell_length_a 17.033
_cell_length_b 17.033
_cell_length_c 13.928
_cell_angle_alpha 90
_cell_angle_beta 90
_cell_angle_gamma 120
_space_group_name_H-M_alt 'P 1'
_space_group_name_Hall 'P 1'
loop_
    _symmetry_equiv_pos_as_xyz
    x,y,z
loop_
    _atom_site_label
    _atom_site_type_symbol
    _atom_site_fract_x
    _atom_site_fract_y
    _atom_site_fract_z
    _atom_site_occupancy
    N1       N        0.77330    0.33490    0.38570    1.000
    C1       C        0.81000    0.38400    0.45900    1.000
    C2       C        0.83240    0.29890    0.36580    1.000
    N2       N        0.88910    0.39440    0.48860    1.000
    H1       H        0.78260    0.41180    0.49110    1.000
    C3       C        0.82330    0.23890    0.29330    1.000
    C4       C        0.90800    0.33670    0.43010    1.000
    C5       C        0.94090    0.44710    0.56990    1.000
    H2       H        0.78350    0.22190    0.24170    1.000
    C6       C        0.88500    0.20830    0.31150    1.000
    C7       C        0.96130    0.30790    0.43630    1.000
    C8       C        0.03760    0.49630    0.57010    1.000
    C9       C        0.89380    0.45080    0.65310    1.000
    H3       H        0.87580    0.15660    0.27930    1.000
    C10      C        0.95530    0.24780    0.37120    1.000
    H4       H        0.00440    0.32750    0.48500    1.000
    H5       H        0.06970    0.49870    0.51510    1.000
    C11      C        0.08190    0.53920    0.65020    1.000
    C12      C        0.94160    0.49560    0.73030    1.000
    H6       H        0.83090    0.42250    0.65340    1.000
    H7       H        0.00100    0.23310    0.36740    1.000
    C13      C        0.18420    0.59150    0.65440    1.000
    C14      C        0.03200    0.54040    0.73360    1.000
    N3       N        0.89090    0.49310    0.81360    1.000
    O1       O        0.22310    0.57690    0.58010    1.000
    O2       O        0.22010    0.64450    0.71820    1.000
    H8       H        0.06240    0.57190    0.78860    1.000
    C15      C        0.81180    0.41760    0.84340    1.000
    C16      C        0.90020    0.56100    0.87230    1.000
    N4       N        0.22970    0.66950    0.41500    1.000
    H9       H        0.78950    0.35960    0.81850    1.000
    C17      C        0.82950    0.52810    0.93520    1.000
    C18      C        0.98030    0.65750    0.87890    1.000
    C19      C        0.82400    0.58630    0.00150    1.000
    C20      C        0.97060    0.71080    0.95050    1.000
    H10      H        0.03090    0.67930    0.83930    1.000
    H11      H        0.77030    0.56630    0.03550    1.000
    C21      C        0.89580    0.67350    0.01890    1.000
    H12      H        0.01360    0.77210    0.95420    1.000
    H13      H        0.89610    0.70650    0.07220    1.000
    N5       N        0.66510    0.43840    0.38570    1.000
    C22      C        0.61600    0.42600    0.45900    1.000
    C23      C        0.70110    0.53350    0.36580    1.000
    N6       N        0.60560    0.49470    0.48860    1.000
    H14      H        0.58820    0.37080    0.49110    1.000
    C24      C        0.76110    0.58440    0.29330    1.000
    C25      C        0.66330    0.57130    0.43010    1.000
    C26      C        0.55290    0.49380    0.56990    1.000
    H15      H        0.77810    0.56160    0.24170    1.000
    C27      C        0.79170    0.67670    0.31150    1.000
    C28      C        0.69210    0.65340    0.43630    1.000
    C29      C        0.50370    0.54130    0.57010    1.000
    C30      C        0.54920    0.44300    0.65310    1.000
    H16      H        0.84340    0.71920    0.27930    1.000
    C31      C        0.75220    0.70750    0.37120    1.000
    H17      H        0.67250    0.67690    0.48500    1.000
    H18      H        0.50130    0.57100    0.51510    1.000
    C32      C        0.46080    0.54270    0.65020    1.000
    C33      C        0.50440    0.44600    0.73030    1.000
    H19      H        0.57750    0.40840    0.65340    1.000
    H20      H        0.76690    0.76790    0.36740    1.000
    C34      C        0.40850    0.59270    0.65440    1.000
    C35      C        0.45960    0.49160    0.73360    1.000
    N7       N        0.50690    0.39780    0.81360    1.000
    O3       O        0.42310    0.64620    0.58010    1.000
    O4       O        0.35550    0.57560    0.71820    1.000
    H21      H        0.42810    0.49050    0.78860    1.000
    C36      C        0.58240    0.39420    0.84340    1.000
    C37      C        0.43900    0.33920    0.87230    1.000
    N8       N        0.33050    0.56020    0.41500    1.000
    H22      H        0.64040    0.42990    0.81850    1.000
    C38      C        0.47190    0.30140    0.93520    1.000
    C39      C        0.34250    0.32280    0.87890    1.000
    C40      C        0.41370    0.23770    0.00150    1.000
    C41      C        0.28920    0.25980    0.95050    1.000
    H23      H        0.32070    0.35160    0.83930    1.000
    H24      H        0.43370    0.20400    0.03550    1.000
    C42      C        0.32650    0.22230    0.01890    1.000
    H25      H        0.22790    0.24150    0.95420    1.000
    H26      H        0.29350    0.18960    0.07220    1.000
    N9       N        0.56160    0.22670    0.38570    1.000
    C43      C        0.57400    0.19000    0.45900    1.000
    C44      C        0.46650    0.16760    0.36580    1.000
    N10      N        0.50530    0.11090    0.48860    1.000
    H27      H        0.62920    0.21740    0.49110    1.000
    C45      C        0.41560    0.17670    0.29330    1.000
    C46      C        0.42870    0.09200    0.43010    1.000
    C47      C        0.50620    0.05910    0.56990    1.000
    H28      H        0.43840    0.21650    0.24170    1.000
    C48      C        0.32330    0.11500    0.31150    1.000
    C49      C        0.34660    0.03870    0.43630    1.000
    C50      C        0.45870    0.96240    0.57010    1.000
    C51      C        0.55700    0.10620    0.65310    1.000
    H29      H        0.28080    0.12420    0.27930    1.000
    C52      C        0.29250    0.04470    0.37120    1.000
    H30      H        0.32310    0.99560    0.48500    1.000
    H31      H        0.42900    0.93030    0.51510    1.000
    C53      C        0.45730    0.91810    0.65020    1.000
    C54      C        0.55400    0.05840    0.73030    1.000
    H32      H        0.59160    0.16910    0.65340    1.000
    H33      H        0.23210    0.99900    0.36740    1.000
    C55      C        0.40730    0.81580    0.65440    1.000
    C56      C        0.50840    0.96800    0.73360    1.000
    N11      N        0.60220    0.10910    0.81360    1.000
    O5       O        0.35380    0.77690    0.58010    1.000
    O6       O        0.42440    0.77990    0.71820    1.000
    H34      H        0.50950    0.93760    0.78860    1.000
    C57      C        0.60580    0.18820    0.84340    1.000
    C58      C        0.66080    0.09980    0.87230    1.000
    N12      N        0.43980    0.77030    0.41500    1.000
    H35      H        0.57010    0.21050    0.81850    1.000
    C59      C        0.69860    0.17050    0.93520    1.000
    C60      C        0.67720    0.01970    0.87890    1.000
    C61      C        0.76230    0.17600    0.00150    1.000
    C62      C        0.74020    0.02940    0.95050    1.000
    H36      H        0.64840    0.96910    0.83930    1.000
    H37      H        0.79600    0.22970    0.03550    1.000
    C63      C        0.77770    0.10420    0.01890    1.000
    H38      H        0.75850    0.98640    0.95420    1.000
    H39      H        0.81040    0.10390    0.07220    1.000
    N13      N        0.33490    0.77330    0.88570    1.000
    C64      C        0.38400    0.81000    0.95900    1.000
    C65      C        0.29890    0.83240    0.86580    1.000
    N14      N        0.39440    0.88910    0.98860    1.000
    H40      H        0.41180    0.78260    0.99110    1.000
    C66      C        0.23890    0.82330    0.79330    1.000
    C67      C        0.33670    0.90800    0.93010    1.000
    C68      C        0.44710    0.94090    0.06990    1.000
    H41      H        0.22190    0.78350    0.74170    1.000
    C69      C        0.20830    0.88500    0.81150    1.000
    C70      C        0.30790    0.96130    0.93630    1.000
    C71      C        0.49630    0.03760    0.07010    1.000
    C72      C        0.45080    0.89380    0.15310    1.000
    H42      H        0.15660    0.87580    0.77930    1.000
    C73      C        0.24780    0.95530    0.87120    1.000
    H43      H        0.32750    0.00440    0.98500    1.000
    H44      H        0.49870    0.06970    0.01510    1.000
    C74      C        0.53920    0.08190    0.15020    1.000
    C75      C        0.49560    0.94160    0.23030    1.000
    H45      H        0.42250    0.83090    0.15340    1.000
    H46      H        0.23310    0.00100    0.86740    1.000
    C76      C        0.59150    0.18420    0.15440    1.000
    C77      C        0.54040    0.03200    0.23360    1.000
    N15      N        0.49310    0.89090    0.31360    1.000
    O7       O        0.57690    0.22310    0.08010    1.000
    O8       O        0.64450    0.22010    0.21820    1.000
    H47      H        0.57190    0.06240    0.28860    1.000
    C78      C        0.41760    0.81180    0.34340    1.000
    C79      C        0.56100    0.90020    0.37230    1.000
    N16      N        0.66950    0.22970    0.91500    1.000
    H48      H        0.35960    0.78950    0.31850    1.000
    C80      C        0.52810    0.82950    0.43520    1.000
    C81      C        0.65750    0.98030    0.37890    1.000
    C82      C        0.58630    0.82400    0.50150    1.000
    C83      C        0.71080    0.97060    0.45050    1.000
    H49      H        0.67930    0.03090    0.33930    1.000
    H50      H        0.56630    0.77030    0.53550    1.000
    C84      C        0.67350    0.89580    0.51890    1.000
    H51      H        0.77210    0.01360    0.45420    1.000
    H52      H        0.70650    0.89610    0.57220    1.000
    N17      N        0.43840    0.66510    0.88570    1.000
    C85      C        0.42600    0.61600    0.95900    1.000
    C86      C        0.53350    0.70110    0.86580    1.000
    N18      N        0.49470    0.60560    0.98860    1.000
    H53      H        0.37080    0.58820    0.99110    1.000
    C87      C        0.58440    0.76110    0.79330    1.000
    C88      C        0.57130    0.66330    0.93010    1.000
    C89      C        0.49380    0.55290    0.06990    1.000
    H54      H        0.56160    0.77810    0.74170    1.000
    C90      C        0.67670    0.79170    0.81150    1.000
    C91      C        0.65340    0.69210    0.93630    1.000
    C92      C        0.54130    0.50370    0.07010    1.000
    C93      C        0.44300    0.54920    0.15310    1.000
    H55      H        0.71920    0.84340    0.77930    1.000
    C94      C        0.70750    0.75220    0.87120    1.000
    H56      H        0.67690    0.67250    0.98500    1.000
    H57      H        0.57100    0.50130    0.01510    1.000
    C95      C        0.54270    0.46080    0.15020    1.000
    C96      C        0.44600    0.50440    0.23030    1.000
    H58      H        0.40840    0.57750    0.15340    1.000
    H59      H        0.76790    0.76690    0.86740    1.000
    C97      C        0.59270    0.40850    0.15440    1.000
    C98      C        0.49160    0.45960    0.23360    1.000
    N19      N        0.39780    0.50690    0.31360    1.000
    O9       O        0.64620    0.42310    0.08010    1.000
    O10      O        0.57560    0.35550    0.21820    1.000
    H60      H        0.49050    0.42810    0.28860    1.000
    C99      C        0.39420    0.58240    0.34340    1.000
    C100     C        0.33920    0.43900    0.37230    1.000
    N20      N        0.56020    0.33050    0.91500    1.000
    H61      H        0.42990    0.64040    0.31850    1.000
    C101     C        0.30140    0.47190    0.43520    1.000
    C102     C        0.32280    0.34250    0.37890    1.000
    C103     C        0.23770    0.41370    0.50150    1.000
    C104     C        0.25980    0.28920    0.45050    1.000
    H62      H        0.35160    0.32070    0.33930    1.000
    H63      H        0.20400    0.43370    0.53550    1.000
    C105     C        0.22230    0.32650    0.51890    1.000
    H64      H        0.24150    0.22790    0.45420    1.000
    H65      H        0.18960    0.29350    0.57220    1.000
    N21      N        0.22670    0.56160    0.88570    1.000
    C106     C        0.19000    0.57400    0.95900    1.000
    C107     C        0.16760    0.46650    0.86580    1.000
    N22      N        0.11090    0.50530    0.98860    1.000
    H66      H        0.21740    0.62920    0.99110    1.000
    C108     C        0.17670    0.41560    0.79330    1.000
    C109     C        0.09200    0.42870    0.93010    1.000
    C110     C        0.05910    0.50620    0.06990    1.000
    H67      H        0.21650    0.43840    0.74170    1.000
    C111     C        0.11500    0.32330    0.81150    1.000
    C112     C        0.03870    0.34660    0.93630    1.000
    C113     C        0.96240    0.45870    0.07010    1.000
    C114     C        0.10620    0.55700    0.15310    1.000
    H68      H        0.12420    0.28080    0.77930    1.000
    C115     C        0.04470    0.29250    0.87120    1.000
    H69      H        0.99560    0.32310    0.98500    1.000
    H70      H        0.93030    0.42900    0.01510    1.000
    C116     C        0.91810    0.45730    0.15020    1.000
    C117     C        0.05840    0.55400    0.23030    1.000
    H71      H        0.16910    0.59160    0.15340    1.000
    H72      H        0.99900    0.23210    0.86740    1.000
    C118     C        0.81580    0.40730    0.15440    1.000
    C119     C        0.96800    0.50840    0.23360    1.000
    N23      N        0.10910    0.60220    0.31360    1.000
    O11      O        0.77690    0.35380    0.08010    1.000
    O12      O        0.77990    0.42440    0.21820    1.000
    H73      H        0.93760    0.50950    0.28860    1.000
    C120     C        0.18820    0.60580    0.34340    1.000
    C121     C        0.09980    0.66080    0.37230    1.000
    N24      N        0.77030    0.43980    0.91500    1.000
    H74      H        0.21050    0.57010    0.31850    1.000
    C122     C        0.17050    0.69860    0.43520    1.000
    C123     C        0.01970    0.67720    0.37890    1.000
    C124     C        0.17600    0.76230    0.50150    1.000
    C125     C        0.02940    0.74020    0.45050    1.000
    H75      H        0.96910    0.64840    0.33930    1.000
    H76      H        0.22970    0.79600    0.53550    1.000
    C126     C        0.10420    0.77770    0.51890    1.000
    H77      H        0.98640    0.75850    0.45420    1.000
    H78      H        0.10390    0.81040    0.57220    1.000
    Co1      Co       0.66667    0.33333    0.29820    1.000
    Co2      Co       0.33333    0.66667    0.79820    1.000
    Co3      Co       0.33333    0.66667    0.50328    1.000
    Co4      Co       0.66667    0.33333    0.00328    1.000
