# CIF file generated by openbabel 3.1.0, see https://openbabel.org
data_I
_chemical_name_common 'image0'
_cell_length_a 9.4299
_cell_length_b 16.49
_cell_length_c 11.2803
_cell_angle_alpha 90
_cell_angle_beta 97.731
_cell_angle_gamma 90
_space_group_name_H-M_alt 'P 1'
_space_group_name_Hall 'P 1'
loop_
    _symmetry_equiv_pos_as_xyz
    x,y,z
loop_
    _atom_site_label
    _atom_site_type_symbol
    _atom_site_fract_x
    _atom_site_fract_y
    _atom_site_fract_z
    _atom_site_occupancy
    Zn1      Zn       0.36663    0.07754    0.04912    1.000
    O1       O        0.70782    0.42033    0.64209    1.000
    O2       O        0.42611    0.16307    0.94959    1.000
    O3       O        0.19357    0.19128    0.91002    1.000
    O4       O        0.76876    0.29717    0.71263    1.000
    O5       O        0.04506    0.43598    0.66162    1.000
    O6       O        0.19979    0.47992    0.54118    1.000
    C1       C        0.31931    0.20450    0.89944    1.000
    C2       C        0.35723    0.27321    0.82068    1.000
    C3       C        0.49738    0.28345    0.79720    1.000
    H1       H        0.56900    0.24920    0.83300    1.000
    C4       C        0.53114    0.34459    0.72043    1.000
    C5       C        0.42349    0.39558    0.66719    1.000
    H2       H        0.44550    0.43660    0.61610    1.000
    C6       C        0.28256    0.38561    0.68989    1.000
    C7       C        0.25010    0.32461    0.76714    1.000
    H3       H        0.15650    0.31810    0.78310    1.000
    C8       C        0.68085    0.35312    0.69043    1.000
    C9       C        0.16661    0.43820    0.62652    1.000
    Zn2      Zn       0.13337    0.57754    0.45088    1.000
    O7       O        0.79218    0.92033    0.85791    1.000
    O8       O        0.07389    0.66307    0.55041    1.000
    O9       O        0.30643    0.69128    0.58998    1.000
    O10      O        0.73124    0.79717    0.78737    1.000
    O11      O        0.45494    0.93598    0.83838    1.000
    O12      O        0.30021    0.97992    0.95882    1.000
    C10      C        0.18069    0.70450    0.60056    1.000
    C11      C        0.14277    0.77321    0.67932    1.000
    C12      C        0.00262    0.78345    0.70280    1.000
    H4       H        0.93100    0.74920    0.66700    1.000
    C13      C        0.96886    0.84459    0.77957    1.000
    C14      C        0.07651    0.89558    0.83281    1.000
    H5       H        0.05450    0.93660    0.88390    1.000
    C15      C        0.21744    0.88561    0.81011    1.000
    C16      C        0.24990    0.82461    0.73286    1.000
    H6       H        0.34350    0.81810    0.71690    1.000
    C17      C        0.81915    0.85312    0.80957    1.000
    C18      C        0.33339    0.93820    0.87348    1.000
    Zn3      Zn       0.63337    0.92246    0.95088    1.000
    O13      O        0.29218    0.57967    0.35791    1.000
    O14      O        0.57389    0.83693    0.05041    1.000
    O15      O        0.80643    0.80872    0.08998    1.000
    O16      O        0.23124    0.70283    0.28737    1.000
    O17      O        0.95494    0.56402    0.33838    1.000
    O18      O        0.80021    0.52008    0.45882    1.000
    C19      C        0.68069    0.79550    0.10056    1.000
    C20      C        0.64277    0.72679    0.17932    1.000
    C21      C        0.50262    0.71655    0.20280    1.000
    H7       H        0.43100    0.75080    0.16700    1.000
    C22      C        0.46886    0.65541    0.27957    1.000
    C23      C        0.57651    0.60442    0.33281    1.000
    H8       H        0.55450    0.56340    0.38390    1.000
    C24      C        0.71744    0.61439    0.31011    1.000
    C25      C        0.74990    0.67539    0.23286    1.000
    H9       H        0.84350    0.68190    0.21690    1.000
    C26      C        0.31915    0.64688    0.30957    1.000
    C27      C        0.83339    0.56180    0.37348    1.000
    Zn4      Zn       0.86663    0.42246    0.54912    1.000
    O19      O        0.20782    0.07967    0.14209    1.000
    O20      O        0.92611    0.33693    0.44959    1.000
    O21      O        0.69357    0.30872    0.41002    1.000
    O22      O        0.26876    0.20283    0.21263    1.000
    O23      O        0.54506    0.06402    0.16162    1.000
    O24      O        0.69979    0.02008    0.04118    1.000
    C28      C        0.81931    0.29550    0.39944    1.000
    C29      C        0.85723    0.22679    0.32068    1.000
    C30      C        0.99738    0.21655    0.29720    1.000
    H10      H        0.06900    0.25080    0.33300    1.000
    C31      C        0.03114    0.15541    0.22043    1.000
    C32      C        0.92349    0.10442    0.16719    1.000
    H11      H        0.94550    0.06340    0.11610    1.000
    C33      C        0.78256    0.11439    0.18989    1.000
    C34      C        0.75010    0.17539    0.26714    1.000
    H12      H        0.65650    0.18190    0.28310    1.000
    C35      C        0.18085    0.14688    0.19043    1.000
    C36      C        0.66661    0.06180    0.12652    1.000
