# CIF file generated by openbabel 3.1.0, see https://openbabel.org
data_I
_chemical_name_common 'image0'
_cell_length_a 12.9145
_cell_length_b 12.9145
_cell_length_c 9.8482
_cell_angle_alpha 90
_cell_angle_beta 90
_cell_angle_gamma 90
_space_group_name_H-M_alt 'P 1'
_space_group_name_Hall 'P 1'
loop_
    _symmetry_equiv_pos_as_xyz
    x,y,z
loop_
    _atom_site_label
    _atom_site_type_symbol
    _atom_site_fract_x
    _atom_site_fract_y
    _atom_site_fract_z
    _atom_site_occupancy
    O1       O        0.25490    0.10950    0.25050    1.000
    O2       O        0.38830    0.11110    0.06990    1.000
    F1       F        0.10460    0.73630    0.28020    1.000
    P1       P        0.07235    0.82414    0.18370    1.000
    O3       O        0.13810    0.91830    0.21410    1.000
    O4       O        0.08570    0.78940    0.03690    1.000
    O5       O        0.95720    0.84570    0.21460    1.000
    Co1      Co       0.13619    0.05480    0.13118    1.000
    O6       O        0.74510    0.89050    0.25050    1.000
    O7       O        0.61170    0.88890    0.06990    1.000
    F2       F        0.89540    0.26370    0.28020    1.000
    P2       P        0.92765    0.17586    0.18370    1.000
    O8       O        0.86190    0.08170    0.21410    1.000
    O9       O        0.91430    0.21060    0.03690    1.000
    O10      O        0.04280    0.15430    0.21460    1.000
    Co2      Co       0.86381    0.94520    0.13118    1.000
    O11      O        0.10950    0.74510    0.74950    1.000
    O12      O        0.11110    0.61170    0.93010    1.000
    F3       F        0.73630    0.89540    0.71980    1.000
    P3       P        0.82414    0.92765    0.81630    1.000
    O13      O        0.91830    0.86190    0.78590    1.000
    O14      O        0.78940    0.91430    0.96310    1.000
    O15      O        0.84570    0.04280    0.78540    1.000
    Co3      Co       0.05480    0.86381    0.86882    1.000
    O16      O        0.89050    0.25490    0.74950    1.000
    O17      O        0.88890    0.38830    0.93010    1.000
    F4       F        0.26370    0.10460    0.71980    1.000
    P4       P        0.17586    0.07235    0.81630    1.000
    O18      O        0.08170    0.13810    0.78590    1.000
    O19      O        0.21060    0.08570    0.96310    1.000
    O20      O        0.15430    0.95720    0.78540    1.000
    Co4      Co       0.94520    0.13619    0.86882    1.000
    O21      O        0.75490    0.39050    0.75050    1.000
    O22      O        0.88830    0.38890    0.56990    1.000
    F5       F        0.60460    0.76370    0.78020    1.000
    P5       P        0.57235    0.67586    0.68370    1.000
    O23      O        0.63810    0.58170    0.71410    1.000
    O24      O        0.58570    0.71060    0.53690    1.000
    O25      O        0.45720    0.65430    0.71460    1.000
    Co5      Co       0.63619    0.44520    0.63118    1.000
    O26      O        0.24510    0.60950    0.75050    1.000
    O27      O        0.11170    0.61110    0.56990    1.000
    F6       F        0.39540    0.23630    0.78020    1.000
    P6       P        0.42765    0.32414    0.68370    1.000
    O28      O        0.36190    0.41830    0.71410    1.000
    O29      O        0.41430    0.28940    0.53690    1.000
    O30      O        0.54280    0.34570    0.71460    1.000
    Co6      Co       0.36381    0.55480    0.63118    1.000
    O31      O        0.60950    0.75490    0.24950    1.000
    O32      O        0.61110    0.88830    0.43010    1.000
    F7       F        0.23630    0.60460    0.21980    1.000
    P7       P        0.32414    0.57235    0.31630    1.000
    O33      O        0.41830    0.63810    0.28590    1.000
    O34      O        0.28940    0.58570    0.46310    1.000
    O35      O        0.34570    0.45720    0.28540    1.000
    Co7      Co       0.55480    0.63619    0.36882    1.000
    O36      O        0.39050    0.24510    0.24950    1.000
    O37      O        0.38890    0.11170    0.43010    1.000
    F8       F        0.76370    0.39540    0.21980    1.000
    P8       P        0.67586    0.42765    0.31630    1.000
    O38      O        0.58170    0.36190    0.28590    1.000
    O39      O        0.71060    0.41430    0.46310    1.000
    O40      O        0.65430    0.54280    0.28540    1.000
    Co8      Co       0.44520    0.36381    0.36882    1.000
    P9       P        0.36520    0.13480    0.25000    1.000
    P10      P        0.63480    0.86520    0.25000    1.000
    P11      P        0.13480    0.63480    0.75000    1.000
    P12      P        0.86520    0.36520    0.75000    1.000
