data_functionalizedCrystal
_audit_creation_method	'EQeq! by Chris Wilmer'
_symmetry_space_group_name_H-M	'P1'
_symmetry_Int_Tables_number	1
_symmetry_cell_setting	triclinic
loop_
_symmetry_equiv_pos_as_xyz
  x,y,z
_cell_length_a	14.726
_cell_length_b	9.221
_cell_length_c	16.969
_cell_angle_alpha	90
_cell_angle_beta	90.332
_cell_angle_gamma	90
loop_
_atom_site_label
_atom_site_type_symbol
_atom_site_fract_x
_atom_site_fract_y
_atom_site_fract_z
_atom_site_charge
Mof_Ni	Ni	0.98095	0.83756	0.99514	1.098
Mof_Ni	Ni	0.19465	0.90655	0.03851	1.129
Mof_O 	O 	0.0538	0.8046	0.8905	-0.418
Mof_O 	O 	0.1919	0.776	0.943	-0.407
Mof_O 	O 	0.3956	0.6476	0.5909	-0.412
Mof_O 	O 	0.2641	0.5775	0.5338	-0.39
Mof_O 	O 	0.8357	0.6295	0.5745	-0.323
Mof_O 	O 	0.7446	0.4845	0.6389	-0.351
Mof_O 	O 	0.8367	0.2641	0.8894	-0.391
Mof_O 	O 	0.9636	0.3397	0.9503	-0.415
Mof_O 	O 	0.0683	0.9763	0.0502	-0.679
Mof_H 	H 	0.0539	0.9753	0.1066	0.186
Mof_C 	C 	0.1277	0.6536	0.7478	0.054
Mof_C 	C 	0.1752	0.7273	0.8082	-0.099
Mof_C 	C 	0.2653	0.7689	0.7951	0.012
Mof_H 	H 	0.2969	0.8178	0.8346	0.046
Mof_C 	C 	0.3086	0.7393	0.7248	-0.044
Mof_H 	H 	0.3687	0.7674	0.7179	0.066
Mof_C 	C 	0.2627	0.668	0.6649	-0.035
Mof_C 	C 	0.1729	0.6275	0.6766	-0.067
Mof_H 	H 	0.1416	0.5816	0.6359	0.075
Mof_C 	C 	0.0355	0.5905	0.7558	0.01
Mof_C 	C 	0.9722	0.6042	0.6948	-0.043
Mof_H 	H 	0.9861	0.6616	0.6514	0.07
Mof_C 	C 	0.8882	0.5329	0.6975	-0.048
Mof_C 	C 	0.8674	0.4504	0.7632	0.003
Mof_H 	H 	0.8112	0.4049	0.7665	0.067
Mof_C 	C 	0.93	0.4349	0.8244	-0.074
Mof_C 	C 	0.0137	0.5049	0.8212	-0.026
Mof_H 	H 	0.055	0.4948	0.8625	0.061
Mof_C 	C 	0.1352	0.7728	0.8862	0.372
Mof_C 	C 	0.3111	0.6284	0.5901	0.329
Mof_C 	C 	0.8203	0.55	0.6334	0.29
Mof_C 	C 	0.9087	0.3371	0.8937	0.353
Mof_Ni	Ni	0.51905	0.33756	0.50486	1.102
Mof_Ni	Ni	0.30535	0.40655	0.46149	1.13
Mof_O 	O 	0.4462	0.3046	0.6095	-0.421
Mof_O 	O 	0.3081	0.276	0.557	-0.409
Mof_O 	O 	0.1044	0.1476	0.9091	-0.409
Mof_O 	O 	0.2359	0.0775	0.9662	-0.388
Mof_O 	O 	0.6643	0.1295	0.9255	-0.324
Mof_O 	O 	0.7554	0.9845	0.8611	-0.355
Mof_O 	O 	0.6633	0.7641	0.6106	-0.39
Mof_O 	O 	0.5364	0.8397	0.5497	-0.412
Mof_O 	O 	0.4317	0.4763	0.4498	-0.679
Mof_H 	H 	0.4461	0.4753	0.3934	0.187
Mof_C 	C 	0.3723	0.1536	0.7522	0.055
Mof_C 	C 	0.3248	0.2273	0.6918	-0.1
Mof_C 	C 	0.2347	0.2689	0.7049	0.013
Mof_H 	H 	0.2031	0.3178	0.6654	0.046
Mof_C 	C 	0.1914	0.2393	0.7752	-0.046
Mof_H 	H 	0.1313	0.2674	0.7821	0.067
Mof_C 	C 	0.2373	0.168	0.8351	-0.034
Mof_C 	C 	0.3271	0.1275	0.8234	-0.069
Mof_H 	H 	0.3584	0.0816	0.8641	0.075
Mof_C 	C 	0.4645	0.0905	0.7442	0.007
Mof_C 	C 	0.5278	0.1042	0.8052	-0.038
Mof_H 	H 	0.5139	0.1616	0.8486	0.069
Mof_C 	C 	0.6118	0.0329	0.8025	-0.048
Mof_C 	C 	0.6326	0.9504	0.7368	0
Mof_H 	H 	0.6888	0.9049	0.7335	0.067
Mof_C 	C 	0.57	0.9349	0.6756	-0.069
Mof_C 	C 	0.4863	0.0049	0.6788	-0.031
Mof_H 	H 	0.445	0.9948	0.6375	0.061
Mof_C 	C 	0.3648	0.2728	0.6138	0.373
Mof_C 	C 	0.1889	0.1284	0.9099	0.328
Mof_C 	C 	0.6797	0.05	0.8666	0.292
Mof_C 	C 	0.5913	0.8371	0.6063	0.351
Mof_Ni	Ni	0.01905	0.16244	0.00486	1.098
Mof_Ni	Ni	0.80535	0.09345	0.96149	1.129
Mof_O 	O 	0.9462	0.1954	0.1095	-0.418
Mof_O 	O 	0.8081	0.224	0.057	-0.407
Mof_O 	O 	0.6044	0.3524	0.4091	-0.412
Mof_O 	O 	0.7359	0.4225	0.4662	-0.39
Mof_O 	O 	0.1643	0.3705	0.4255	-0.323
Mof_O 	O 	0.2554	0.5155	0.3611	-0.351
Mof_O 	O 	0.1633	0.7359	0.1106	-0.391
Mof_O 	O 	0.0364	0.6603	0.0497	-0.415
Mof_O 	O 	0.9317	0.0237	0.9498	-0.679
Mof_H 	H 	0.9461	0.0247	0.8934	0.186
Mof_C 	C 	0.8723	0.3464	0.2522	0.054
Mof_C 	C 	0.8248	0.2727	0.1918	-0.099
Mof_C 	C 	0.7347	0.2311	0.2049	0.012
Mof_H 	H 	0.7031	0.1822	0.1654	0.046
Mof_C 	C 	0.6914	0.2607	0.2752	-0.044
Mof_H 	H 	0.6313	0.2326	0.2821	0.066
Mof_C 	C 	0.7373	0.332	0.3351	-0.035
Mof_C 	C 	0.8271	0.3725	0.3234	-0.067
Mof_H 	H 	0.8584	0.4184	0.3641	0.075
Mof_C 	C 	0.9645	0.4095	0.2442	0.01
Mof_C 	C 	0.0278	0.3958	0.3052	-0.043
Mof_H 	H 	0.0139	0.3384	0.3486	0.07
Mof_C 	C 	0.1118	0.4671	0.3025	-0.048
Mof_C 	C 	0.1326	0.5496	0.2368	0.003
Mof_H 	H 	0.1888	0.5951	0.2335	0.067
Mof_C 	C 	0.07	0.5651	0.1756	-0.074
Mof_C 	C 	0.9863	0.4951	0.1788	-0.026
Mof_H 	H 	0.945	0.5052	0.1375	0.061
Mof_C 	C 	0.8648	0.2272	0.1138	0.372
Mof_C 	C 	0.6889	0.3716	0.4099	0.329
Mof_C 	C 	0.1797	0.45	0.3666	0.29
Mof_C 	C 	0.0913	0.6629	0.1063	0.353
Mof_Ni	Ni	0.48095	0.66244	0.49514	1.102
Mof_Ni	Ni	0.69465	0.59345	0.53851	1.13
Mof_O 	O 	0.5538	0.6954	0.3905	-0.421
Mof_O 	O 	0.6919	0.724	0.443	-0.409
Mof_O 	O 	0.8956	0.8524	0.0909	-0.409
Mof_O 	O 	0.7641	0.9225	0.0338	-0.388
Mof_O 	O 	0.3357	0.8705	0.0745	-0.324
Mof_O 	O 	0.2446	0.0155	0.1389	-0.355
Mof_O 	O 	0.3367	0.2359	0.3894	-0.39
Mof_O 	O 	0.4636	0.1603	0.4503	-0.412
Mof_O 	O 	0.5683	0.5237	0.5502	-0.679
Mof_H 	H 	0.5539	0.5247	0.6066	0.187
Mof_C 	C 	0.6277	0.8464	0.2478	0.055
Mof_C 	C 	0.6752	0.7727	0.3082	-0.1
Mof_C 	C 	0.7653	0.7311	0.2951	0.013
Mof_H 	H 	0.7969	0.6822	0.3346	0.046
Mof_C 	C 	0.8086	0.7607	0.2248	-0.046
Mof_H 	H 	0.8687	0.7326	0.2179	0.067
Mof_C 	C 	0.7627	0.832	0.1649	-0.034
Mof_C 	C 	0.6729	0.8725	0.1766	-0.069
Mof_H 	H 	0.6416	0.9184	0.1359	0.075
Mof_C 	C 	0.5355	0.9095	0.2558	0.007
Mof_C 	C 	0.4722	0.8958	0.1948	-0.038
Mof_H 	H 	0.4861	0.8384	0.1514	0.069
Mof_C 	C 	0.3882	0.9671	0.1975	-0.048
Mof_C 	C 	0.3674	0.0496	0.2632	0
Mof_H 	H 	0.3112	0.0951	0.2665	0.067
Mof_C 	C 	0.43	0.0651	0.3244	-0.069
Mof_C 	C 	0.5137	0.9951	0.3212	-0.031
Mof_H 	H 	0.555	0.0052	0.3625	0.061
Mof_C 	C 	0.6352	0.7272	0.3862	0.373
Mof_C 	C 	0.8111	0.8716	0.0901	0.328
Mof_C 	C 	0.3203	0.95	0.1334	0.292
Mof_C 	C 	0.4087	0.1629	0.3937	0.351
_end
