data_functionalizedCrystal
_audit_creation_method	'EQeq! by Chris Wilmer'
_symmetry_space_group_name_H-M	'P1'
_symmetry_Int_Tables_number	1
_symmetry_cell_setting	triclinic
loop_
_symmetry_equiv_pos_as_xyz
  x,y,z
_cell_length_a	22.554
_cell_length_b	11.462
_cell_length_c	21.861
_cell_angle_alpha	90
_cell_angle_beta	105.645
_cell_angle_gamma	90
loop_
_atom_site_label
_atom_site_type_symbol
_atom_site_fract_x
_atom_site_fract_y
_atom_site_fract_z
_atom_site_charge
Mof_O 	O 	0.458	0.8581	0.4589	-0.383
Mof_O 	O 	0.5144	0.7063	0.5085	-0.263
Mof_O 	O 	0.9466	0.6217	0.4454	-0.361
Mof_O 	O 	0.9801	0.8032	0.4787	-0.219
Mof_O 	O 	0.2211	0.4359	0.3346	-0.387
Mof_O 	O 	0.1806	0.6025	0.2902	-0.272
Mof_O 	O 	0.3333	0.4136	0.2257	-0.394
Mof_O 	O 	0.29	0.5768	0.1797	-0.281
Mof_N 	N 	0.3391	0.528	0.3415	-0.2
Mof_N 	N 	0.7947	0.8664	0.2918	-0.197
Mof_N 	N 	0.0567	0.5038	0.4423	-0.212
Mof_N 	N 	0.4442	0.4944	0.06	-0.207
Mof_C 	C 	0.3394	0.643	0.333	0.048
Mof_C 	C 	0.3807	0.7167	0.3727	0.03
Mof_C 	C 	0.4245	0.6708	0.4231	-0.084
Mof_C 	C 	0.4247	0.5504	0.4319	0.039
Mof_C 	C 	0.3807	0.4846	0.3915	0.037
Mof_C 	C 	0.4703	0.7505	0.4681	0.335
Mof_C 	C 	0.8081	0.7528	0.2973	0.031
Mof_C 	C 	0.8559	0.7081	0.3445	0.033
Mof_C 	C 	0.8933	0.7815	0.3876	-0.074
Mof_C 	C 	0.8815	0.9007	0.3816	0.047
Mof_C 	C 	0.8317	0.9384	0.3332	0.071
Mof_C 	C 	0.9448	0.7326	0.442	0.324
Mof_C 	C 	0.0823	0.4077	0.4253	0.02
Mof_C 	C 	0.1247	0.406	0.3893	0.017
Mof_C 	C 	0.1382	0.5131	0.367	-0.101
Mof_C 	C 	0.1113	0.6164	0.3782	0.026
Mof_C 	C 	0.0712	0.6033	0.4162	0.019
Mof_C 	C 	0.9664	0.0249	0.1191	0.032
Mof_C 	C 	0.9251	0.0335	0.1558	0.017
Mof_C 	C 	0.8429	0.9856	0.0685	0.036
Mof_C 	C 	0.8839	0.9806	0.0314	0.025
Mof_C 	C 	0.1827	0.52	0.3272	0.333
Mof_C 	C 	0.465	0.4532	0.119	-0.002
Mof_C 	C 	0.4275	0.4481	0.1597	0.029
Mof_C 	C 	0.368	0.4917	0.1414	-0.088
Mof_C 	C 	0.3482	0.5364	0.0802	0.016
Mof_C 	C 	0.3867	0.5359	0.0402	-0.01
Mof_C 	C 	0.5884	0.0881	0.4317	0.025
Mof_C 	C 	0.6251	0.0945	0.3897	0.001
Mof_C 	C 	0.5987	0.892	0.363	0.002
Mof_C 	C 	0.5618	0.903	0.4041	0.049
Mof_C 	C 	0.3267	0.4937	0.1861	0.335
Mof_Cu	Cu	0.2765	0.4277	0.2796	0.902
Mof_O 	O 	0.542	0.3581	0.0411	-0.389
Mof_O 	O 	0.4856	0.2063	0.9915	-0.22
Mof_O 	O 	0.0534	0.1217	0.0546	-0.407
Mof_O 	O 	0.0199	0.3032	0.0213	-0.279
Mof_O 	O 	0.7789	0.9359	0.1654	-0.363
Mof_O 	O 	0.8194	0.1025	0.2098	-0.268
Mof_O 	O 	0.6667	0.9136	0.2743	-0.393
Mof_O 	O 	0.71	0.0768	0.3203	-0.305
Mof_N 	N 	0.6609	0.028	0.1585	-0.23
Mof_N 	N 	0.2053	0.3664	0.2082	-0.199
Mof_N 	N 	0.9433	0.0038	0.0577	-0.223
Mof_N 	N 	0.5558	0.9944	0.44	-0.185
Mof_C 	C 	0.6606	0.143	0.167	0.048
Mof_C 	C 	0.6193	0.2167	0.1273	0.008
Mof_C 	C 	0.5755	0.1708	0.0769	-0.057
Mof_C 	C 	0.5753	0.0504	0.0681	-0.03
Mof_C 	C 	0.6193	0.9846	0.1085	0.096
Mof_C 	C 	0.5297	0.2505	0.0319	0.274
Mof_C 	C 	0.1919	0.2528	0.2027	0.021
Mof_C 	C 	0.1441	0.2081	0.1555	0.013
Mof_C 	C 	0.1067	0.2815	0.1124	-0.082
Mof_C 	C 	0.1185	0.4007	0.1184	0.017
Mof_C 	C 	0.1683	0.4384	0.1668	0.052
Mof_C 	C 	0.0552	0.2326	0.058	0.322
Mof_C 	C 	0.9177	0.9077	0.0747	0.035
Mof_C 	C 	0.8753	0.906	0.1107	0.042
Mof_C 	C 	0.8618	0.0131	0.133	-0.134
Mof_C 	C 	0.8887	0.1164	0.1218	0.032
Mof_C 	C 	0.9288	0.1033	0.0838	0.023
Mof_C 	C 	0.0336	0.5249	0.3809	0.009
Mof_C 	C 	0.0749	0.5335	0.3442	0.011
Mof_C 	C 	0.1571	0.4856	0.4315	0.021
Mof_C 	C 	0.1161	0.4806	0.4686	0.02
Mof_C 	C 	0.8173	0.02	0.1728	0.31
Mof_C 	C 	0.535	0.9532	0.381	0.005
Mof_C 	C 	0.5725	0.9481	0.3403	0.027
Mof_C 	C 	0.632	0.9917	0.3586	-0.06
Mof_C 	C 	0.6518	0.0364	0.4198	0.005
Mof_C 	C 	0.6133	0.0359	0.4598	-0.006
Mof_C 	C 	0.4116	0.5881	0.0683	0.035
Mof_C 	C 	0.3749	0.5945	0.1103	0.014
Mof_C 	C 	0.4013	0.392	0.137	-0.004
Mof_C 	C 	0.4382	0.403	0.0959	0.04
Mof_C 	C 	0.6733	0.9937	0.3139	0.366
Mof_Cu	Cu	0.7235	0.9277	0.2204	0.91
Mof_O 	O 	0.542	0.1419	0.5411	-0.396
Mof_O 	O 	0.4856	0.2937	0.4915	-0.27
Mof_O 	O 	0.0534	0.3783	0.5546	-0.391
Mof_O 	O 	0.0199	0.1968	0.5213	-0.269
Mof_O 	O 	0.7789	0.5641	0.6654	-0.381
Mof_O 	O 	0.8194	0.3975	0.7098	-0.266
Mof_O 	O 	0.6667	0.5864	0.7743	-0.386
Mof_O 	O 	0.71	0.4232	0.8203	-0.274
Mof_N 	N 	0.6609	0.472	0.6585	-0.2
Mof_N 	N 	0.2053	0.1336	0.7082	-0.2
Mof_N 	N 	0.9433	0.4962	0.5577	-0.206
Mof_N 	N 	0.5558	0.5056	0.94	-0.198
Mof_C 	C 	0.6606	0.357	0.667	0.048
Mof_C 	C 	0.6193	0.2833	0.6273	0.026
Mof_C 	C 	0.5755	0.3292	0.5769	-0.084
Mof_C 	C 	0.5753	0.4496	0.5681	0.039
Mof_C 	C 	0.6193	0.5154	0.6085	0.043
Mof_C 	C 	0.5297	0.2495	0.5319	0.337
Mof_C 	C 	0.1919	0.2472	0.7027	0.029
Mof_C 	C 	0.1441	0.2919	0.6555	0.022
Mof_C 	C 	0.1067	0.2185	0.6124	-0.081
Mof_C 	C 	0.1185	0.0993	0.6184	0.018
Mof_C 	C 	0.1683	0.0616	0.6668	0.041
Mof_C 	C 	0.0552	0.2674	0.558	0.322
Mof_C 	C 	0.9177	0.5923	0.5747	0.031
Mof_C 	C 	0.8753	0.594	0.6107	0.032
Mof_C 	C 	0.8618	0.4869	0.633	-0.104
Mof_C 	C 	0.8887	0.3836	0.6218	0.03
Mof_C 	C 	0.9288	0.3967	0.5838	0.03
Mof_C 	C 	0.0336	0.9751	0.8809	0.024
Mof_C 	C 	0.0749	0.9665	0.8442	0.015
Mof_C 	C 	0.1571	0.0144	0.9315	0.003
Mof_C 	C 	0.1161	0.0194	0.9686	0.021
Mof_C 	C 	0.8173	0.48	0.6728	0.337
Mof_C 	C 	0.535	0.5468	0.881	0.006
Mof_C 	C 	0.5725	0.5519	0.8403	0.014
Mof_C 	C 	0.632	0.5083	0.8586	-0.089
Mof_C 	C 	0.6518	0.4636	0.9198	0.023
Mof_C 	C 	0.6133	0.4641	0.9598	0.033
Mof_C 	C 	0.4116	0.9119	0.5683	0.035
Mof_C 	C 	0.3749	0.9055	0.6103	0.034
Mof_C 	C 	0.4013	0.108	0.637	0.017
Mof_C 	C 	0.4382	0.097	0.5959	0.037
Mof_C 	C 	0.6733	0.5063	0.8139	0.338
Mof_Cu	Cu	0.7235	0.5723	0.7204	0.906
Mof_O 	O 	0.458	0.6419	0.9589	-0.386
Mof_O 	O 	0.5144	0.7937	0.0085	-0.311
Mof_O 	O 	0.9466	0.8783	0.9454	-0.333
Mof_O 	O 	0.9801	0.6968	0.9787	-0.205
Mof_O 	O 	0.2211	0.0641	0.8346	-0.406
Mof_O 	O 	0.1806	0.8975	0.7902	-0.27
Mof_O 	O 	0.3333	0.0864	0.7257	-0.386
Mof_O 	O 	0.29	0.9232	0.6797	-0.248
Mof_N 	N 	0.3391	0.972	0.8415	-0.169
Mof_N 	N 	0.7947	0.6336	0.7918	-0.198
Mof_N 	N 	0.0567	0.9962	0.9423	-0.187
Mof_N 	N 	0.4442	0.0056	0.56	-0.221
Mof_C 	C 	0.3394	0.857	0.833	0.049
Mof_C 	C 	0.3807	0.7833	0.8727	0.047
Mof_C 	C 	0.4245	0.8292	0.9231	-0.111
Mof_C 	C 	0.4247	0.9496	0.9319	0.11
Mof_C 	C 	0.3807	0.0154	0.8915	-0.018
Mof_C 	C 	0.4703	0.7495	0.9681	0.397
Mof_C 	C 	0.8081	0.7472	0.7973	0.038
Mof_C 	C 	0.8559	0.7919	0.8445	0.042
Mof_C 	C 	0.8933	0.7185	0.8876	-0.072
Mof_C 	C 	0.8815	0.5993	0.8816	0.048
Mof_C 	C 	0.8317	0.5616	0.8332	0.061
Mof_C 	C 	0.9448	0.7674	0.942	0.321
Mof_C 	C 	0.0823	0.0923	0.9253	0.016
Mof_C 	C 	0.1247	0.094	0.8893	0.006
Mof_C 	C 	0.1382	0.9869	0.867	-0.068
Mof_C 	C 	0.1113	0.8836	0.8782	0.025
Mof_C 	C 	0.0712	0.8967	0.9162	0.028
Mof_C 	C 	0.9664	0.4751	0.6191	0.044
Mof_C 	C 	0.9251	0.4665	0.6558	0.022
Mof_C 	C 	0.8429	0.5144	0.5685	0.019
Mof_C 	C 	0.8839	0.5194	0.5314	0.024
Mof_C 	C 	0.1827	0.98	0.8272	0.362
Mof_C 	C 	0.465	0.0468	0.619	-0.002
Mof_C 	C 	0.4275	0.0519	0.6597	0.016
Mof_C 	C 	0.368	0.0083	0.6414	-0.117
Mof_C 	C 	0.3482	0.9636	0.5802	0.036
Mof_C 	C 	0.3867	0.9641	0.5402	0.028
Mof_C 	C 	0.5884	0.4119	0.9317	0.026
Mof_C 	C 	0.6251	0.4055	0.8897	0.021
Mof_C 	C 	0.5987	0.608	0.863	0.024
Mof_C 	C 	0.5618	0.597	0.9041	0.047
Mof_C 	C 	0.3267	0.0063	0.6861	0.306
Mof_Cu	Cu	0.2765	0.0723	0.7796	0.897
Mof_Cu	Cu	2.30713e-33	0.5	0.5	0.876
Mof_Cu	Cu	-0	0	-0	0.847
Mof_Cu	Cu	0.5	0	0.5	0.884
Mof_Cu	Cu	0.5	0.5	-0	0.879
_end
