# CIF file generated by openbabel 3.1.0, see https://openbabel.org
data_I
_chemical_name_common 'image0'
_cell_length_a 16.308
_cell_length_b 10.517
_cell_length_c 22.986
_cell_angle_alpha 90
_cell_angle_beta 104.444
_cell_angle_gamma 90
_space_group_name_H-M_alt 'P 1'
_space_group_name_Hall 'P 1'
loop_
    _symmetry_equiv_pos_as_xyz
    x,y,z
loop_
    _atom_site_label
    _atom_site_type_symbol
    _atom_site_fract_x
    _atom_site_fract_y
    _atom_site_fract_z
    _atom_site_occupancy
    Zn1      Zn       0.78595    0.17571    0.74810    1.000
    Zn2      Zn       0.88092    0.67251    0.75114    1.000
    Zn3      Zn       0.44981    0.16857    0.75536    1.000
    S1       S        0.71138    0.47445    0.71231    1.000
    C1       C        0.57960    0.05150    0.50220    1.000
    C2       C        0.56730    0.91900    0.49830    1.000
    C3       C        0.48670    0.87020    0.49710    1.000
    C4       C        0.66500    0.10530    0.50130    1.000
    H1       H        0.69170    0.05040    0.47740    1.000
    H2       H        0.65750    0.18840    0.48230    1.000
    C5       C        0.70390    0.13180    0.61530    1.000
    H3       H        0.64950    0.12970    0.62130    1.000
    C6       C        0.83350    0.14890    0.62820    1.000
    H4       H        0.89030    0.16160    0.64730    1.000
    C7       C        0.64010    0.83440    0.49410    1.000
    H5       H        0.69280    0.87140    0.51690    1.000
    H6       H        0.63370    0.75190    0.51130    1.000
    C8       C        0.58600    0.82940    0.38140    1.000
    H7       H        0.52940    0.84580    0.37960    1.000
    C9       C        0.47240    0.72590    0.49500    1.000
    H8       H        0.41620    0.70720    0.47030    1.000
    H9       H        0.51330    0.68550    0.47670    1.000
    C10      C        0.50990    0.72480    0.60900    1.000
    H10      H        0.53100    0.80720    0.61550    1.000
    C11      C        0.47380    0.54150    0.61990    1.000
    H11      H        0.46390    0.46640    0.63840    1.000
    C12      C        0.00290    0.63260    0.49980    1.000
    C13      C        0.92710    0.57120    0.50090    1.000
    C14      C        0.92390    0.43690    0.50060    1.000
    C15      C        0.00410    0.78000    0.49910    1.000
    H12      H        0.97340    0.81230    0.52710    1.000
    H13      H        0.06210    0.80980    0.51200    1.000
    C16      C        0.95230    0.77770    0.38670    1.000
    H14      H        0.96500    0.69360    0.38000    1.000
    C17      C        0.91410    0.96420    0.37550    1.000
    H15      H        0.89420    0.04110    0.35740    1.000
    C18      C        0.85020    0.64670    0.50510    1.000
    H16      H        0.84360    0.71840    0.47780    1.000
    H17      H        0.80020    0.59360    0.49270    1.000
    C19      C        0.85680    0.63140    0.61520    1.000
    H18      H        0.85160    0.54360    0.61760    1.000
    C20      C        0.86680    0.82410    0.63490    1.000
    H19      H        0.87120    0.90030    0.65600    1.000
    C21      C        0.84210    0.37020    0.49490    1.000
    H20      H        0.85140    0.29140    0.51760    1.000
    H21      H        0.80410    0.42300    0.51100    1.000
    C22      C        0.83180    0.35910    0.38370    1.000
    H22      H        0.88380    0.39520    0.38360    1.000
    C23      C        0.71300    0.27800    0.35850    1.000
    H23      H        0.66350    0.24280    0.33490    1.000
    N1       N        0.77170    0.14950    0.65750    1.000
    N2       N        0.72140    0.11720    0.56290    1.000
    N3       N        0.80670    0.12880    0.57040    1.000
    N4       N        0.50540    0.64650    0.65130    1.000
    N5       N        0.48110    0.67420    0.55540    1.000
    N6       N        0.45810    0.55290    0.56190    1.000
    N7       N        0.91890    0.85820    0.34400    1.000
    N8       N        0.96550    0.82880    0.43900    1.000
    N9       N        0.93920    0.95080    0.43310    1.000
    N10      N        0.86510    0.70890    0.66090    1.000
    N11      N        0.85660    0.69300    0.56590    1.000
    N12      N        0.86180    0.81820    0.57770    1.000
    N13      N        0.77750    0.31830    0.33580    1.000
    N14      N        0.80430    0.34310    0.43160    1.000
    N15      N        0.72640    0.29300    0.41580    1.000
    O1       O        0.70460    0.34220    0.73070    1.000
    O2       O        0.65720    0.55280    0.73980    1.000
    O3       O        0.80120    0.51260    0.73690    1.000
    O4       O        0.68660    0.48720    0.64880    1.000
    N16      N        0.64300    0.81880    0.43170    1.000
    N17      N        0.71790    0.84900    0.41820    1.000
    C24      C        0.70080    0.84000    0.36000    1.000
    H24      H        0.74070    0.84930    0.33760    1.000
    N18      N        0.61350    0.81580    0.33500    1.000
    C25      C        0.67120    0.70600    0.36060    1.000
    H25      H        0.69200    0.64630    0.33820    1.000
    N19      N        0.68780    0.70800    0.42000    1.000
    Zn4      Zn       0.21405    0.67571    0.75190    1.000
    Zn5      Zn       0.11908    0.17251    0.74886    1.000
    Zn6      Zn       0.55019    0.66857    0.74464    1.000
    S2       S        0.28862    0.97445    0.78769    1.000
    C26      C        0.42040    0.55150    0.99780    1.000
    C27      C        0.43270    0.41900    0.00170    1.000
    C28      C        0.51330    0.37020    0.00290    1.000
    C29      C        0.33500    0.60530    0.99870    1.000
    H26      H        0.30830    0.55040    0.02260    1.000
    H27      H        0.34250    0.68840    0.01770    1.000
    C30      C        0.29610    0.63180    0.88470    1.000
    H28      H        0.35050    0.62970    0.87870    1.000
    C31      C        0.16650    0.64890    0.87180    1.000
    H29      H        0.10970    0.66160    0.85270    1.000
    C32      C        0.35990    0.33440    0.00590    1.000
    H30      H        0.30720    0.37140    0.98310    1.000
    H31      H        0.36630    0.25190    0.98870    1.000
    C33      C        0.41400    0.32940    0.11860    1.000
    H32      H        0.47060    0.34580    0.12040    1.000
    C34      C        0.52760    0.22590    0.00500    1.000
    H33      H        0.58380    0.20720    0.02970    1.000
    H34      H        0.48670    0.18550    0.02330    1.000
    C35      C        0.49010    0.22480    0.89100    1.000
    H35      H        0.46900    0.30720    0.88450    1.000
    C36      C        0.52620    0.04150    0.88010    1.000
    H36      H        0.53610    0.96640    0.86160    1.000
    C37      C        0.99710    0.13260    0.00020    1.000
    C38      C        0.07290    0.07120    0.99910    1.000
    C39      C        0.07610    0.93690    0.99940    1.000
    C40      C        0.99590    0.28000    0.00090    1.000
    H37      H        0.02660    0.31230    0.97290    1.000
    H38      H        0.93790    0.30980    0.98800    1.000
    C41      C        0.04770    0.27770    0.11330    1.000
    H39      H        0.03500    0.19360    0.12000    1.000
    C42      C        0.08590    0.46420    0.12450    1.000
    H40      H        0.10580    0.54110    0.14260    1.000
    C43      C        0.14980    0.14670    0.99490    1.000
    H41      H        0.15640    0.21840    0.02220    1.000
    H42      H        0.19980    0.09360    0.00730    1.000
    C44      C        0.14320    0.13140    0.88480    1.000
    H43      H        0.14840    0.04360    0.88240    1.000
    C45      C        0.13320    0.32410    0.86510    1.000
    H44      H        0.12880    0.40030    0.84400    1.000
    C46      C        0.15790    0.87020    0.00510    1.000
    H45      H        0.14860    0.79140    0.98240    1.000
    H46      H        0.19590    0.92300    0.98900    1.000
    C47      C        0.16820    0.85910    0.11630    1.000
    H47      H        0.11620    0.89520    0.11640    1.000
    C48      C        0.28700    0.77800    0.14150    1.000
    H48      H        0.33650    0.74280    0.16510    1.000
    N20      N        0.22830    0.64950    0.84250    1.000
    N21      N        0.27860    0.61720    0.93710    1.000
    N22      N        0.19330    0.62880    0.92960    1.000
    N23      N        0.49460    0.14650    0.84870    1.000
    N24      N        0.51890    0.17420    0.94460    1.000
    N25      N        0.54190    0.05290    0.93810    1.000
    N26      N        0.08110    0.35820    0.15600    1.000
    N27      N        0.03450    0.32880    0.06100    1.000
    N28      N        0.06080    0.45080    0.06690    1.000
    N29      N        0.13490    0.20890    0.83910    1.000
    N30      N        0.14340    0.19300    0.93410    1.000
    N31      N        0.13820    0.31820    0.92230    1.000
    N32      N        0.22250    0.81830    0.16420    1.000
    N33      N        0.19570    0.84310    0.06840    1.000
    N34      N        0.27360    0.79300    0.08420    1.000
    O5       O        0.29540    0.84220    0.76930    1.000
    O6       O        0.34280    0.05280    0.76020    1.000
    O7       O        0.19880    0.01260    0.76310    1.000
    O8       O        0.31340    0.98720    0.85120    1.000
    N35      N        0.35700    0.31880    0.06830    1.000
    N36      N        0.28210    0.34900    0.08180    1.000
    C49      C        0.29920    0.34000    0.14000    1.000
    H49      H        0.25930    0.34930    0.16240    1.000
    N37      N        0.38650    0.31580    0.16500    1.000
    C50      C        0.32880    0.20600    0.13940    1.000
    H50      H        0.30800    0.14630    0.16180    1.000
    N38      N        0.31220    0.20800    0.08000    1.000
    Zn7      Zn       0.21405    0.82429    0.25190    1.000
    Zn8      Zn       0.11908    0.32749    0.24886    1.000
    Zn9      Zn       0.55019    0.83143    0.24464    1.000
    S3       S        0.28862    0.52555    0.28769    1.000
    C51      C        0.42040    0.94850    0.49780    1.000
    C52      C        0.43270    0.08100    0.50170    1.000
    C53      C        0.51330    0.12980    0.50290    1.000
    C54      C        0.33500    0.89470    0.49870    1.000
    H51      H        0.30830    0.94960    0.52260    1.000
    H52      H        0.34250    0.81160    0.51770    1.000
    C55      C        0.29610    0.86820    0.38470    1.000
    H53      H        0.35050    0.87030    0.37870    1.000
    C56      C        0.16650    0.85110    0.37180    1.000
    H54      H        0.10970    0.83840    0.35270    1.000
    C57      C        0.35990    0.16560    0.50590    1.000
    H55      H        0.30720    0.12860    0.48310    1.000
    H56      H        0.36630    0.24810    0.48870    1.000
    C58      C        0.41400    0.17060    0.61860    1.000
    H57      H        0.47060    0.15420    0.62040    1.000
    C59      C        0.52760    0.27410    0.50500    1.000
    H58      H        0.58380    0.29280    0.52970    1.000
    H59      H        0.48670    0.31450    0.52330    1.000
    C60      C        0.49010    0.27520    0.39100    1.000
    H60      H        0.46900    0.19280    0.38450    1.000
    C61      C        0.52620    0.45850    0.38010    1.000
    H61      H        0.53610    0.53360    0.36160    1.000
    C62      C        0.99710    0.36740    0.50020    1.000
    C63      C        0.07290    0.42880    0.49910    1.000
    C64      C        0.07610    0.56310    0.49940    1.000
    C65      C        0.99590    0.22000    0.50090    1.000
    H62      H        0.02660    0.18770    0.47290    1.000
    H63      H        0.93790    0.19020    0.48800    1.000
    C66      C        0.04770    0.22230    0.61330    1.000
    H64      H        0.03500    0.30640    0.62000    1.000
    C67      C        0.08590    0.03580    0.62450    1.000
    H65      H        0.10580    0.95890    0.64260    1.000
    C68      C        0.14980    0.35330    0.49490    1.000
    H66      H        0.15640    0.28160    0.52220    1.000
    H67      H        0.19980    0.40640    0.50730    1.000
    C69      C        0.14320    0.36860    0.38480    1.000
    H68      H        0.14840    0.45640    0.38240    1.000
    C70      C        0.13320    0.17590    0.36510    1.000
    H69      H        0.12880    0.09970    0.34400    1.000
    C71      C        0.15790    0.62980    0.50510    1.000
    H70      H        0.14860    0.70860    0.48240    1.000
    H71      H        0.19590    0.57700    0.48900    1.000
    C72      C        0.16820    0.64090    0.61630    1.000
    H72      H        0.11620    0.60480    0.61640    1.000
    C73      C        0.28700    0.72200    0.64150    1.000
    H73      H        0.33650    0.75720    0.66510    1.000
    N39      N        0.22830    0.85050    0.34250    1.000
    N40      N        0.27860    0.88280    0.43710    1.000
    N41      N        0.19330    0.87120    0.42960    1.000
    N42      N        0.49460    0.35350    0.34870    1.000
    N43      N        0.51890    0.32580    0.44460    1.000
    N44      N        0.54190    0.44710    0.43810    1.000
    N45      N        0.08110    0.14180    0.65600    1.000
    N46      N        0.03450    0.17120    0.56100    1.000
    N47      N        0.06080    0.04920    0.56690    1.000
    N48      N        0.13490    0.29110    0.33910    1.000
    N49      N        0.14340    0.30700    0.43410    1.000
    N50      N        0.13820    0.18180    0.42230    1.000
    N51      N        0.22250    0.68170    0.66420    1.000
    N52      N        0.19570    0.65690    0.56840    1.000
    N53      N        0.27360    0.70700    0.58420    1.000
    O9       O        0.29540    0.65780    0.26930    1.000
    O10      O        0.34280    0.44720    0.26020    1.000
    O11      O        0.19880    0.48740    0.26310    1.000
    O12      O        0.31340    0.51280    0.35120    1.000
    N54      N        0.35700    0.18120    0.56830    1.000
    N55      N        0.28210    0.15100    0.58180    1.000
    C74      C        0.29920    0.16000    0.64000    1.000
    H74      H        0.25930    0.15070    0.66240    1.000
    N56      N        0.38650    0.18420    0.66500    1.000
    C75      C        0.32880    0.29400    0.63940    1.000
    H75      H        0.30800    0.35370    0.66180    1.000
    N57      N        0.31220    0.29200    0.58000    1.000
    Zn10     Zn       0.78595    0.32429    0.24810    1.000
    Zn11     Zn       0.88092    0.82749    0.25114    1.000
    Zn12     Zn       0.44981    0.33143    0.25536    1.000
    S4       S        0.71138    0.02555    0.21231    1.000
    C76      C        0.57960    0.44850    0.00220    1.000
    C77      C        0.56730    0.58100    0.99830    1.000
    C78      C        0.48670    0.62980    0.99710    1.000
    C79      C        0.66500    0.39470    0.00130    1.000
    H76      H        0.69170    0.44960    0.97740    1.000
    H77      H        0.65750    0.31160    0.98230    1.000
    C80      C        0.70390    0.36820    0.11530    1.000
    H78      H        0.64950    0.37030    0.12130    1.000
    C81      C        0.83350    0.35110    0.12820    1.000
    H79      H        0.89030    0.33840    0.14730    1.000
    C82      C        0.64010    0.66560    0.99410    1.000
    H80      H        0.69280    0.62860    0.01690    1.000
    H81      H        0.63370    0.74810    0.01130    1.000
    C83      C        0.58600    0.67060    0.88140    1.000
    H82      H        0.52940    0.65420    0.87960    1.000
    C84      C        0.47240    0.77410    0.99500    1.000
    H83      H        0.41620    0.79280    0.97030    1.000
    H84      H        0.51330    0.81450    0.97670    1.000
    C85      C        0.50990    0.77520    0.10900    1.000
    H85      H        0.53100    0.69280    0.11550    1.000
    C86      C        0.47380    0.95850    0.11990    1.000
    H86      H        0.46390    0.03360    0.13840    1.000
    C87      C        0.00290    0.86740    0.99980    1.000
    C88      C        0.92710    0.92880    0.00090    1.000
    C89      C        0.92390    0.06310    0.00060    1.000
    C90      C        0.00410    0.72000    0.99910    1.000
    H87      H        0.97340    0.68770    0.02710    1.000
    H88      H        0.06210    0.69020    0.01200    1.000
    C91      C        0.95230    0.72230    0.88670    1.000
    H89      H        0.96500    0.80640    0.88000    1.000
    C92      C        0.91410    0.53580    0.87550    1.000
    H90      H        0.89420    0.45890    0.85740    1.000
    C93      C        0.85020    0.85330    0.00510    1.000
    H91      H        0.84360    0.78160    0.97780    1.000
    H92      H        0.80020    0.90640    0.99270    1.000
    C94      C        0.85680    0.86860    0.11520    1.000
    H93      H        0.85160    0.95640    0.11760    1.000
    C95      C        0.86680    0.67590    0.13490    1.000
    H94      H        0.87120    0.59970    0.15600    1.000
    C96      C        0.84210    0.12980    0.99490    1.000
    H95      H        0.85140    0.20860    0.01760    1.000
    H96      H        0.80410    0.07700    0.01100    1.000
    C97      C        0.83180    0.14090    0.88370    1.000
    H97      H        0.88380    0.10480    0.88360    1.000
    C98      C        0.71300    0.22200    0.85850    1.000
    H98      H        0.66350    0.25720    0.83490    1.000
    N58      N        0.77170    0.35050    0.15750    1.000
    N59      N        0.72140    0.38280    0.06290    1.000
    N60      N        0.80670    0.37120    0.07040    1.000
    N61      N        0.50540    0.85350    0.15130    1.000
    N62      N        0.48110    0.82580    0.05540    1.000
    N63      N        0.45810    0.94710    0.06190    1.000
    N64      N        0.91890    0.64180    0.84400    1.000
    N65      N        0.96550    0.67120    0.93900    1.000
    N66      N        0.93920    0.54920    0.93310    1.000
    N67      N        0.86510    0.79110    0.16090    1.000
    N68      N        0.85660    0.80700    0.06590    1.000
    N69      N        0.86180    0.68180    0.07770    1.000
    N70      N        0.77750    0.18170    0.83580    1.000
    N71      N        0.80430    0.15690    0.93160    1.000
    N72      N        0.72640    0.20700    0.91580    1.000
    O13      O        0.70460    0.15780    0.23070    1.000
    O14      O        0.65720    0.94720    0.23980    1.000
    O15      O        0.80120    0.98740    0.23690    1.000
    O16      O        0.68660    0.01280    0.14880    1.000
    N73      N        0.64300    0.68120    0.93170    1.000
    N74      N        0.71790    0.65100    0.91820    1.000
    C99      C        0.70080    0.66000    0.86000    1.000
    H99      H        0.74070    0.65070    0.83760    1.000
    N75      N        0.61350    0.68420    0.83500    1.000
    C100     C        0.67120    0.79400    0.86060    1.000
    H100     H        0.69200    0.85370    0.83820    1.000
    N76      N        0.68780    0.79200    0.92000    1.000
