# CIF file generated by openbabel 3.1.0, see https://openbabel.org
data_I
_chemical_name_common 'image0'
_cell_length_a 9.1337
_cell_length_b 14.4635
_cell_length_c 18.0343
_cell_angle_alpha 93.353
_cell_angle_beta 102.988
_cell_angle_gamma 91.068
_space_group_name_H-M_alt 'P 1'
_space_group_name_Hall 'P 1'
loop_
    _symmetry_equiv_pos_as_xyz
    x,y,z
loop_
    _atom_site_label
    _atom_site_type_symbol
    _atom_site_fract_x
    _atom_site_fract_y
    _atom_site_fract_z
    _atom_site_occupancy
    Zn1      Zn       0.16031    0.73439    0.59942    1.000
    Zn2      Zn       0.85378    0.27461    0.92466    1.000
    C1       C        0.71650    0.12960    0.82970    1.000
    C2       C        0.59230    0.06020    0.80380    1.000
    C3       C        0.47930    0.03940    0.83730    1.000
    H1       H        0.46900    0.06760    0.88340    1.000
    C4       C        0.38060    0.97220    0.79630    1.000
    H2       H        0.29690    0.95030    0.81220    1.000
    C5       C        0.41680    0.94070    0.73060    1.000
    C6       C        0.34200    0.86980    0.67220    1.000
    C7       C        0.76110    0.24970    0.07270    1.000
    H3       H        0.69090    0.20250    0.05150    1.000
    C8       C        0.79580    0.27990    0.14610    1.000
    H4       H        0.75360    0.25900    0.18470    1.000
    C9       C        0.92910    0.35660    0.08510    1.000
    H5       H        0.99790    0.39920    0.07450    1.000
    C10      C        0.98560    0.39940    0.22330    1.000
    H6       H        0.09230    0.38880    0.23060    1.000
    H7       H        0.95260    0.37670    0.26660    1.000
    C11      C        0.96110    0.50130    0.22100    1.000
    H8       H        0.85560    0.51320    0.21740    1.000
    H9       H        0.98950    0.52440    0.17660    1.000
    C12      C        0.05620    0.55040    0.29350    1.000
    H10      H        0.02620    0.52740    0.33740    1.000
    H11      H        0.16100    0.53640    0.29740    1.000
    C13      C        0.04020    0.65090    0.29430    1.000
    H12      H        0.93430    0.66480    0.28390    1.000
    H13      H        0.08250    0.67530    0.25440    1.000
    C14      C        0.22550    0.76220    0.38130    1.000
    H14      H        0.27120    0.78720    0.34540    1.000
    C15      C        0.25500    0.78520    0.45560    1.000
    H15      H        0.32580    0.83030    0.48050    1.000
    C16      C        0.08450    0.68100    0.43420    1.000
    H16      H        0.01170    0.63830    0.44060    1.000
    C17      C        0.13120    0.23170    0.86680    1.000
    H17      H        0.08310    0.18770    0.82910    1.000
    C18      C        0.27630    0.25990    0.87930    1.000
    H18      H        0.34610    0.23880    0.85240    1.000
    C19      C        0.17410    0.33270    0.96080    1.000
    H19      H        0.16160    0.37190    0.00140    1.000
    C20      C        0.44250    0.37150    0.97590    1.000
    H20      H        0.52030    0.35240    0.95000    1.000
    H21      H        0.47140    0.35360    0.02810    1.000
    C21      C        0.42990    0.47590    0.97590    1.000
    H22      H        0.41460    0.49470    0.92400    1.000
    H23      H        0.34360    0.49420    0.99560    1.000
    C22      C        0.86040    0.77500    0.63520    1.000
    H24      H        0.89960    0.82740    0.66610    1.000
    C23      C        0.71650    0.74640    0.61920    1.000
    H25      H        0.63880    0.77440    0.63670    1.000
    C24      C        0.84400    0.65250    0.56200    1.000
    H26      H        0.86780    0.60290    0.53220    1.000
    C25      C        0.56360    0.62140    0.53070    1.000
    H27      H        0.48430    0.63760    0.55650    1.000
    H28      H        0.53630    0.64310    0.47970    1.000
    C26      C        0.57480    0.52220    0.52560    1.000
    H29      H        0.59180    0.49900    0.57610    1.000
    H30      H        0.65900    0.50550    0.50350    1.000
    C27      C        0.70950    0.44120    0.84930    1.000
    C28      C        0.57750    0.44840    0.78470    1.000
    C29      C        0.49840    0.37700    0.74090    1.000
    H31      H        0.52060    0.31520    0.74750    1.000
    C30      C        0.38010    0.40620    0.68490    1.000
    H32      H        0.31490    0.36580    0.65020    1.000
    C31      C        0.37060    0.49860    0.68660    1.000
    C32      C        0.26060    0.55580    0.63710    1.000
    O1       O        0.72890    0.16420    0.89674    1.000
    O2       O        0.79800    0.14920    0.78740    1.000
    O3       O        0.21340    0.84010    0.67654    1.000
    O4       O        0.40500    0.84240    0.62159    1.000
    O5       O        0.74520    0.35930    0.86000    1.000
    O6       O        0.76910    0.51010    0.88510    1.000
    O7       O        0.16330    0.51950    0.58468    1.000
    O8       O        0.27880    0.64150    0.65498    1.000
    N1       N        0.84430    0.29850    0.03375    1.000
    N2       N        0.90470    0.34710    0.15360    1.000
    N3       N        0.11640    0.69580    0.36802    1.000
    N4       N        0.16810    0.73390    0.48986    1.000
    N5       N        0.06640    0.27780    0.91820    1.000
    N6       N        0.30180    0.32480    0.93840    1.000
    N7       N        0.94160    0.71630    0.59971    1.000
    N8       N        0.70580    0.66860    0.57230    1.000
    S1       S        0.57634    0.99578    0.71972    1.000
    S2       S        0.50739    0.55187    0.75769    1.000
    Zn3      Zn       0.83969    0.26561    0.40058    1.000
    Zn4      Zn       0.14622    0.72539    0.07534    1.000
    C33      C        0.28350    0.87040    0.17030    1.000
    C34      C        0.40770    0.93980    0.19620    1.000
    C35      C        0.52070    0.96060    0.16270    1.000
    H33      H        0.53100    0.93240    0.11660    1.000
    C36      C        0.61940    0.02780    0.20370    1.000
    H34      H        0.70310    0.04970    0.18780    1.000
    C37      C        0.58320    0.05930    0.26940    1.000
    C38      C        0.65800    0.13020    0.32780    1.000
    C39      C        0.23890    0.75030    0.92730    1.000
    H35      H        0.30910    0.79750    0.94850    1.000
    C40      C        0.20420    0.72010    0.85390    1.000
    H36      H        0.24640    0.74100    0.81530    1.000
    C41      C        0.07090    0.64340    0.91490    1.000
    H37      H        0.00210    0.60080    0.92550    1.000
    C42      C        0.01440    0.60060    0.77670    1.000
    H38      H        0.90770    0.61120    0.76940    1.000
    H39      H        0.04740    0.62330    0.73340    1.000
    C43      C        0.03890    0.49870    0.77900    1.000
    H40      H        0.14440    0.48680    0.78260    1.000
    H41      H        0.01050    0.47560    0.82340    1.000
    C44      C        0.94380    0.44960    0.70650    1.000
    H42      H        0.97380    0.47260    0.66260    1.000
    H43      H        0.83900    0.46360    0.70260    1.000
    C45      C        0.95980    0.34910    0.70570    1.000
    H44      H        0.06570    0.33520    0.71610    1.000
    H45      H        0.91750    0.32470    0.74560    1.000
    C46      C        0.77450    0.23780    0.61870    1.000
    H46      H        0.72880    0.21280    0.65460    1.000
    C47      C        0.74500    0.21480    0.54440    1.000
    H47      H        0.67420    0.16970    0.51950    1.000
    C48      C        0.91550    0.31900    0.56580    1.000
    H48      H        0.98830    0.36170    0.55940    1.000
    C49      C        0.86880    0.76830    0.13320    1.000
    H49      H        0.91690    0.81230    0.17090    1.000
    C50      C        0.72370    0.74010    0.12070    1.000
    H50      H        0.65390    0.76120    0.14760    1.000
    C51      C        0.82590    0.66730    0.03920    1.000
    H51      H        0.83840    0.62810    0.99860    1.000
    C52      C        0.55750    0.62850    0.02410    1.000
    H52      H        0.47970    0.64760    0.05000    1.000
    H53      H        0.52860    0.64640    0.97190    1.000
    C53      C        0.57010    0.52410    0.02410    1.000
    H54      H        0.58540    0.50530    0.07600    1.000
    H55      H        0.65640    0.50580    0.00440    1.000
    C54      C        0.13960    0.22500    0.36480    1.000
    H56      H        0.10040    0.17260    0.33390    1.000
    C55      C        0.28350    0.25360    0.38080    1.000
    H57      H        0.36120    0.22560    0.36330    1.000
    C56      C        0.15600    0.34750    0.43800    1.000
    H58      H        0.13220    0.39710    0.46780    1.000
    C57      C        0.43640    0.37860    0.46930    1.000
    H59      H        0.51570    0.36240    0.44350    1.000
    H60      H        0.46370    0.35690    0.52030    1.000
    C58      C        0.42520    0.47780    0.47440    1.000
    H61      H        0.40820    0.50100    0.42390    1.000
    H62      H        0.34100    0.49450    0.49650    1.000
    C59      C        0.29050    0.55880    0.15070    1.000
    C60      C        0.42250    0.55160    0.21530    1.000
    C61      C        0.50160    0.62300    0.25910    1.000
    H63      H        0.47940    0.68480    0.25250    1.000
    C62      C        0.61990    0.59380    0.31510    1.000
    H64      H        0.68510    0.63420    0.34980    1.000
    C63      C        0.62940    0.50140    0.31340    1.000
    C64      C        0.73940    0.44420    0.36290    1.000
    O9       O        0.27110    0.83580    0.10326    1.000
    O10      O        0.20200    0.85080    0.21260    1.000
    O11      O        0.78660    0.15990    0.32346    1.000
    O12      O        0.59500    0.15760    0.37841    1.000
    O13      O        0.25480    0.64070    0.14000    1.000
    O14      O        0.23090    0.48990    0.11490    1.000
    O15      O        0.83670    0.48050    0.41532    1.000
    O16      O        0.72120    0.35850    0.34502    1.000
    N9       N        0.15570    0.70150    0.96625    1.000
    N10      N        0.09530    0.65290    0.84640    1.000
    N11      N        0.88360    0.30420    0.63198    1.000
    N12      N        0.83190    0.26610    0.51014    1.000
    N13      N        0.93360    0.72220    0.08180    1.000
    N14      N        0.69820    0.67520    0.06160    1.000
    N15      N        0.05840    0.28370    0.40029    1.000
    N16      N        0.29420    0.33140    0.42770    1.000
    S3       S        0.42366    0.00422    0.28028    1.000
    S4       S        0.49261    0.44813    0.24231    1.000
