# CIF file generated by openbabel 3.1.0, see https://openbabel.org
data_I
_chemical_name_common 'image0'
_cell_length_a 7.0404
_cell_length_b 13.0015
_cell_length_c 13.7338
_cell_angle_alpha 90
_cell_angle_beta 100.881
_cell_angle_gamma 90
_space_group_name_H-M_alt 'P 1'
_space_group_name_Hall 'P 1'
loop_
    _symmetry_equiv_pos_as_xyz
    x,y,z
loop_
    _atom_site_label
    _atom_site_type_symbol
    _atom_site_fract_x
    _atom_site_fract_y
    _atom_site_fract_z
    _atom_site_occupancy
    La1      La       0.79235    0.03844    0.95774    1.000
    La2      La       0.58678    0.96409    0.44074    1.000
    S1       S        0.25810    0.05736    0.18774    1.000
    S2       S        0.63210    0.29124    0.79814    1.000
    S3       S        0.59530    0.30682    0.04923    1.000
    O1       O        0.65830    0.99540    0.11160    1.000
    O2       O        0.64110    0.99330    0.26950    1.000
    O3       O        0.92160    0.90910    0.42690    1.000
    O4       O        0.24230    0.91240    0.46070    1.000
    O5       O        0.73350    0.97200    0.78340    1.000
    O6       O        0.67300    0.97940    0.61970    1.000
    O7       O        0.41300    0.11270    0.49330    1.000
    O8       O        0.38250    0.28290    0.49410    1.000
    O9       O        0.42110    0.02530    0.90280    1.000
    O10      O        0.11430    0.05900    0.90880    1.000
    O11      O        0.92710    0.21710    0.99540    1.000
    O12      O        0.00040    0.38250    0.99240    1.000
    N1       N        0.02580    0.04980    0.15070    1.000
    N2       N        0.26900    0.01000    0.29870    1.000
    N3       N        0.68490    0.16910    0.80110    1.000
    N4       N        0.53650    0.29790    0.68340    1.000
    N5       N        0.54800    0.19200    0.00330    1.000
    N6       N        0.37160    0.34010    0.04400    1.000
    C1       C        0.94800    0.00960    0.22480    1.000
    C2       C        0.09060    0.98610    0.31100    1.000
    C3       C        0.73280    0.99710    0.20070    1.000
    C4       C        0.07900    0.93110    0.40760    1.000
    C5       C        0.62760    0.13040    0.71140    1.000
    C6       C        0.54070    0.20510    0.64180    1.000
    C7       C        0.67860    0.01700    0.70330    1.000
    C8       C        0.44130    0.19870    0.53420    1.000
    C9       C        0.35780    0.17910    0.98170    1.000
    C10      C        0.25580    0.26500    0.00750    1.000
    C11      C        0.29040    0.07960    0.92780    1.000
    C12      C        0.04340    0.28790    0.99680    1.000
    La3      La       0.20765    0.53844    0.04226    1.000
    La4      La       0.41322    0.46409    0.55926    1.000
    S4       S        0.74190    0.55736    0.81226    1.000
    S5       S        0.36790    0.79124    0.20186    1.000
    S6       S        0.40470    0.80682    0.95077    1.000
    O13      O        0.34170    0.49540    0.88840    1.000
    O14      O        0.35890    0.49330    0.73050    1.000
    O15      O        0.07840    0.40910    0.57310    1.000
    O16      O        0.75770    0.41240    0.53930    1.000
    O17      O        0.26650    0.47200    0.21660    1.000
    O18      O        0.32700    0.47940    0.38030    1.000
    O19      O        0.58700    0.61270    0.50670    1.000
    O20      O        0.61750    0.78290    0.50590    1.000
    O21      O        0.57890    0.52530    0.09720    1.000
    O22      O        0.88570    0.55900    0.09120    1.000
    O23      O        0.07290    0.71710    0.00460    1.000
    O24      O        0.99960    0.88250    0.00760    1.000
    N7       N        0.97420    0.54980    0.84930    1.000
    N8       N        0.73100    0.51000    0.70130    1.000
    N9       N        0.31510    0.66910    0.19890    1.000
    N10      N        0.46350    0.79790    0.31660    1.000
    N11      N        0.45200    0.69200    0.99670    1.000
    N12      N        0.62840    0.84010    0.95600    1.000
    C13      C        0.05200    0.50960    0.77520    1.000
    C14      C        0.90940    0.48610    0.68900    1.000
    C15      C        0.26720    0.49710    0.79930    1.000
    C16      C        0.92100    0.43110    0.59240    1.000
    C17      C        0.37240    0.63040    0.28860    1.000
    C18      C        0.45930    0.70510    0.35820    1.000
    C19      C        0.32140    0.51700    0.29670    1.000
    C20      C        0.55870    0.69870    0.46580    1.000
    C21      C        0.64220    0.67910    0.01830    1.000
    C22      C        0.74420    0.76500    0.99250    1.000
    C23      C        0.70960    0.57960    0.07220    1.000
    C24      C        0.95660    0.78790    0.00320    1.000
