data_functionalizedCrystal
_audit_creation_method	'EQeq! by Chris Wilmer'
_symmetry_space_group_name_H-M	'P1'
_symmetry_Int_Tables_number	1
_symmetry_cell_setting	triclinic
loop_
_symmetry_equiv_pos_as_xyz
  x,y,z
_cell_length_a	7.0012
_cell_length_b	16.002
_cell_length_c	16.002
_cell_angle_alpha	62.0892
_cell_angle_beta	81.6141
_cell_angle_gamma	98.3859
loop_
_atom_site_label
_atom_site_type_symbol
_atom_site_fract_x
_atom_site_fract_y
_atom_site_fract_z
_atom_site_charge
Mof_Dy	Dy	0.28898	0.06436	0.84684	2.122
Mof_Dy	Dy	0.13582	0.84684	0.0888	2.052
Mof_Dy	Dy	0.22462	0.0888	0.06436	2.268
Mof_Dy	Dy	0.71102	0.93564	0.15316	1.968
Mof_Dy	Dy	0.86418	0.15316	0.9112	2.022
Mof_Dy	Dy	0.77538	0.9112	0.93564	1.893
Mof_Cu	Cu	0.5	0	0.5	0.916
Mof_Cu	Cu	-4.67601e-17	0.5	0.5	0.883
Mof_Cu	Cu	0.5	0.5	-0	0.917
Mof_H 	H 	0.8454	0.9112	0.5771	0.038
Mof_H 	H 	0.956	0.8751	0.7156	-0.015
Mof_H 	H 	0.4225	0.5771	0.5117	0.045
Mof_H 	H 	0.6716	0.7156	0.4093	-0.008
Mof_H 	H 	0.9342	0.5117	0.9112	0.043
Mof_H 	H 	0.0809	0.4093	0.8751	-0.033
Mof_H 	H 	0.1546	0.0888	0.4229	0.052
Mof_H 	H 	0.044	0.1249	0.2844	-0.008
Mof_H 	H 	0.5775	0.4229	0.4883	0.048
Mof_H 	H 	0.3284	0.2844	0.5907	-0.011
Mof_H 	H 	0.0658	0.4883	0.0888	0.042
Mof_H 	H 	0.9191	0.5907	0.1249	0.028
Mof_C 	C 	0.6145	0.9701	0.7566	0.329
Mof_C 	C 	0.5411	0.9874	0.6737	-0.288
Mof_C 	C 	0.7828	0.9248	0.6231	-0.069
Mof_C 	C 	0.8504	0.9048	0.7054	0.085
Mof_C 	C 	0.3675	0.0303	0.6488	0.496
Mof_C 	C 	0.3711	0.7566	0.2733	0.307
Mof_C 	C 	0.2148	0.6737	0.3389	-0.209
Mof_C 	C 	0.4059	0.6231	0.4521	-0.06
Mof_C 	C 	0.5558	0.7054	0.3898	0.089
Mof_C 	C 	0.0163	0.6488	0.3209	0.385
Mof_C 	C 	0.6444	0.2733	0.9701	0.337
Mof_C 	C 	0.5537	0.3389	0.9874	-0.301
Mof_C 	C 	0.858	0.4521	0.9248	-0.082
Mof_C 	C 	0.9456	0.3898	0.9048	0.111
Mof_C 	C 	0.3372	0.3209	0.0303	0.514
Mof_C 	C 	0.3855	0.0299	0.2434	0.298
Mof_C 	C 	0.4589	0.0126	0.3263	-0.139
Mof_C 	C 	0.2172	0.0752	0.3769	-0.052
Mof_C 	C 	0.1496	0.0952	0.2946	0.102
Mof_C 	C 	0.6325	0.9697	0.3512	0.354
Mof_C 	C 	0.6289	0.2434	0.7267	0.32
Mof_C 	C 	0.7852	0.3263	0.6611	-0.223
Mof_C 	C 	0.5941	0.3769	0.5479	-0.061
Mof_C 	C 	0.4442	0.2946	0.6102	0.097
Mof_C 	C 	0.9837	0.3512	0.6791	0.462
Mof_C 	C 	0.3556	0.7267	0.0299	0.295
Mof_C 	C 	0.4463	0.6611	0.0126	-0.145
Mof_C 	C 	0.142	0.5479	0.0752	-0.029
Mof_C 	C 	0.0544	0.6102	0.0952	0.049
Mof_C 	C 	0.6628	0.6791	0.9697	0.359
Mof_N 	N 	0.7695	0.9267	0.7708	-0.285
Mof_N 	N 	0.6266	0.9641	0.6099	-0.17
Mof_N 	N 	0.5403	0.7708	0.3025	-0.279
Mof_N 	N 	0.2365	0.6099	0.426	-0.168
Mof_N 	N 	0.8428	0.3025	0.9267	-0.297
Mof_N 	N 	0.6625	0.426	0.9641	-0.166
Mof_N 	N 	0.2305	0.0733	0.2292	-0.283
Mof_N 	N 	0.3734	0.0359	0.3901	-0.166
Mof_N 	N 	0.4597	0.2292	0.6975	-0.286
Mof_N 	N 	0.7635	0.3901	0.574	-0.159
Mof_N 	N 	0.1572	0.6975	0.0733	-0.268
Mof_N 	N 	0.3375	0.574	0.0359	-0.17
Mof_O 	O 	0.54828	0.99113	0.82149	-0.639
Mof_O 	O 	0.27199	0.05107	0.705	-0.495
Mof_O 	O 	0.32417	0.04037	0.57136	-0.438
Mof_O 	O 	0.10676	0.9013	0.92372	-0.763
Mof_O 	O 	0.36977	0.82149	0.18738	-0.604
Mof_O 	O 	0.97699	0.705	0.24393	-0.461
Mof_O 	O 	0.89553	0.57136	0.38827	-0.415
Mof_O 	O 	0.03048	0.92372	0.17498	-0.775
Mof_O 	O 	0.55715	0.18738	0.99113	-0.659
Mof_O 	O 	0.22092	0.24393	0.05107	-0.51
Mof_O 	O 	0.2838	0.38827	0.04037	-0.442
Mof_O 	O 	0.20546	0.17498	0.9013	-0.773
Mof_O 	O 	0.45172	0.00887	0.17851	-0.556
Mof_O 	O 	0.72801	0.94893	0.295	-0.488
Mof_O 	O 	0.67583	0.95963	0.42864	-0.452
Mof_O 	O 	0.89324	0.0987	0.07628	-0.674
Mof_O 	O 	0.63023	0.17851	0.81262	-0.6
Mof_O 	O 	0.02301	0.295	0.75607	-0.509
Mof_O 	O 	0.10447	0.42864	0.61173	-0.457
Mof_O 	O 	0.96952	0.07628	0.82502	-0.693
Mof_O 	O 	0.44285	0.81262	0.00887	-0.558
Mof_O 	O 	0.77908	0.75607	0.94893	-0.479
Mof_O 	O 	0.7162	0.61173	0.95963	-0.453
Mof_O 	O 	0.79454	0.82502	0.0987	-0.687
Mof_O 	O 	0.31923	0	-0	-0.829
Mof_O 	O 	0.68077	0	-0	-0.76
Mof_O 	O 	-0	0	-0	-0.727
_end
