# CIF file generated by openbabel 3.1.0, see https://openbabel.org
data_I
_chemical_name_common 'image0'
_cell_length_a 15.265
_cell_length_b 16.886
_cell_length_c 12.48
_cell_angle_alpha 90
_cell_angle_beta 90
_cell_angle_gamma 90
_space_group_name_H-M_alt 'P 1'
_space_group_name_Hall 'P 1'
loop_
    _symmetry_equiv_pos_as_xyz
    x,y,z
loop_
    _atom_site_label
    _atom_site_type_symbol
    _atom_site_fract_x
    _atom_site_fract_y
    _atom_site_fract_z
    _atom_site_occupancy
    O1       O        0.08434    0.14692    0.15395    1.000
    O2       O        0.09501    0.08589    0.00407    1.000
    C1       C        0.11760    0.13657    0.06630    1.000
    C2       C        0.18890    0.19270    0.03070    1.000
    C3       C        0.22640    0.18910    0.93090    1.000
    C4       C        0.21110    0.25670    0.09760    1.000
    H1       H        0.18250    0.26240    0.16300    1.000
    N1       N        0.21160    0.12010    0.86580    1.000
    H2       H        0.24210    0.11280    0.80870    1.000
    H3       H        0.17230    0.08620    0.88390    1.000
    H4       H        0.95020    0.86020    0.23860    1.000
    O3       O        0.58434    0.64692    0.15395    1.000
    O4       O        0.59501    0.58589    0.00407    1.000
    C5       C        0.61760    0.63657    0.06630    1.000
    C6       C        0.68890    0.69270    0.03070    1.000
    C7       C        0.72640    0.68910    0.93090    1.000
    C8       C        0.71110    0.75670    0.09760    1.000
    H5       H        0.68250    0.76240    0.16300    1.000
    N2       N        0.71160    0.62010    0.86580    1.000
    H6       H        0.74210    0.61280    0.80870    1.000
    H7       H        0.67230    0.58620    0.88390    1.000
    H8       H        0.45020    0.36020    0.23860    1.000
    O5       O        0.91566    0.85308    0.65395    1.000
    O6       O        0.90499    0.91411    0.50407    1.000
    C9       C        0.88240    0.86343    0.56630    1.000
    C10      C        0.81110    0.80730    0.53070    1.000
    C11      C        0.77360    0.81090    0.43090    1.000
    C12      C        0.78890    0.74330    0.59760    1.000
    H9       H        0.81750    0.73760    0.66300    1.000
    N3       N        0.78840    0.87990    0.36580    1.000
    H10      H        0.75790    0.88720    0.30870    1.000
    H11      H        0.82770    0.91380    0.38390    1.000
    H12      H        0.04980    0.13980    0.73860    1.000
    O7       O        0.41566    0.35308    0.65395    1.000
    O8       O        0.40499    0.41411    0.50407    1.000
    C13      C        0.38240    0.36343    0.56630    1.000
    C14      C        0.31110    0.30730    0.53070    1.000
    C15      C        0.27360    0.31090    0.43090    1.000
    C16      C        0.28890    0.24330    0.59760    1.000
    H13      H        0.31750    0.23760    0.66300    1.000
    N4       N        0.28840    0.37990    0.36580    1.000
    H14      H        0.25790    0.38720    0.30870    1.000
    H15      H        0.32770    0.41380    0.38390    1.000
    H16      H        0.54980    0.63980    0.73860    1.000
    O9       O        0.91566    0.14692    0.34605    1.000
    O10      O        0.90499    0.08589    0.49593    1.000
    C17      C        0.88240    0.13657    0.43370    1.000
    C18      C        0.81110    0.19270    0.46930    1.000
    C19      C        0.77360    0.18910    0.56910    1.000
    C20      C        0.78890    0.25670    0.40240    1.000
    H17      H        0.81750    0.26240    0.33700    1.000
    N5       N        0.78840    0.12010    0.63420    1.000
    H18      H        0.75790    0.11280    0.69130    1.000
    H19      H        0.82770    0.08620    0.61610    1.000
    H20      H        0.04980    0.86020    0.26140    1.000
    O11      O        0.41566    0.64692    0.34605    1.000
    O12      O        0.40499    0.58589    0.49593    1.000
    C21      C        0.38240    0.63657    0.43370    1.000
    C22      C        0.31110    0.69270    0.46930    1.000
    C23      C        0.27360    0.68910    0.56910    1.000
    C24      C        0.28890    0.75670    0.40240    1.000
    H21      H        0.31750    0.76240    0.33700    1.000
    N6       N        0.28840    0.62010    0.63420    1.000
    H22      H        0.25790    0.61280    0.69130    1.000
    H23      H        0.32770    0.58620    0.61610    1.000
    H24      H        0.54980    0.36020    0.26140    1.000
    O13      O        0.08434    0.85308    0.84605    1.000
    O14      O        0.09501    0.91411    0.99593    1.000
    C25      C        0.11760    0.86343    0.93370    1.000
    C26      C        0.18890    0.80730    0.96930    1.000
    C27      C        0.22640    0.81090    0.06910    1.000
    C28      C        0.21110    0.74330    0.90240    1.000
    H25      H        0.18250    0.73760    0.83700    1.000
    N7       N        0.21160    0.87990    0.13420    1.000
    H26      H        0.24210    0.88720    0.19130    1.000
    H27      H        0.17230    0.91380    0.11610    1.000
    H28      H        0.95020    0.13980    0.76140    1.000
    O15      O        0.58434    0.35308    0.84605    1.000
    O16      O        0.59501    0.41411    0.99593    1.000
    C29      C        0.61760    0.36343    0.93370    1.000
    C30      C        0.68890    0.30730    0.96930    1.000
    C31      C        0.72640    0.31090    0.06910    1.000
    C32      C        0.71110    0.24330    0.90240    1.000
    H29      H        0.68250    0.23760    0.83700    1.000
    N8       N        0.71160    0.37990    0.13420    1.000
    H30      H        0.74210    0.38720    0.19130    1.000
    H31      H        0.67230    0.41380    0.11610    1.000
    H32      H        0.45020    0.63980    0.76140    1.000
    O17      O        0.91566    0.85308    0.84605    1.000
    O18      O        0.90499    0.91411    0.99593    1.000
    C33      C        0.88240    0.86343    0.93370    1.000
    C34      C        0.81110    0.80730    0.96930    1.000
    C35      C        0.77360    0.81090    0.06910    1.000
    C36      C        0.78890    0.74330    0.90240    1.000
    H33      H        0.81750    0.73760    0.83700    1.000
    N9       N        0.78840    0.87990    0.13420    1.000
    H34      H        0.75790    0.88720    0.19130    1.000
    H35      H        0.82770    0.91380    0.11610    1.000
    H36      H        0.04980    0.13980    0.76140    1.000
    O19      O        0.41566    0.35308    0.84605    1.000
    O20      O        0.40499    0.41411    0.99593    1.000
    C37      C        0.38240    0.36343    0.93370    1.000
    C38      C        0.31110    0.30730    0.96930    1.000
    C39      C        0.27360    0.31090    0.06910    1.000
    C40      C        0.28890    0.24330    0.90240    1.000
    H37      H        0.31750    0.23760    0.83700    1.000
    N10      N        0.28840    0.37990    0.13420    1.000
    H38      H        0.25790    0.38720    0.19130    1.000
    H39      H        0.32770    0.41380    0.11610    1.000
    H40      H        0.54980    0.63980    0.76140    1.000
    O21      O        0.08434    0.14692    0.34605    1.000
    O22      O        0.09501    0.08589    0.49593    1.000
    C41      C        0.11760    0.13657    0.43370    1.000
    C42      C        0.18890    0.19270    0.46930    1.000
    C43      C        0.22640    0.18910    0.56910    1.000
    C44      C        0.21110    0.25670    0.40240    1.000
    H41      H        0.18250    0.26240    0.33700    1.000
    N11      N        0.21160    0.12010    0.63420    1.000
    H42      H        0.24210    0.11280    0.69130    1.000
    H43      H        0.17230    0.08620    0.61610    1.000
    H44      H        0.95020    0.86020    0.26140    1.000
    O23      O        0.58434    0.64692    0.34605    1.000
    O24      O        0.59501    0.58589    0.49593    1.000
    C45      C        0.61760    0.63657    0.43370    1.000
    C46      C        0.68890    0.69270    0.46930    1.000
    C47      C        0.72640    0.68910    0.56910    1.000
    C48      C        0.71110    0.75670    0.40240    1.000
    H45      H        0.68250    0.76240    0.33700    1.000
    N12      N        0.71160    0.62010    0.63420    1.000
    H46      H        0.74210    0.61280    0.69130    1.000
    H47      H        0.67230    0.58620    0.61610    1.000
    H48      H        0.45020    0.36020    0.26140    1.000
    O25      O        0.08434    0.85308    0.65395    1.000
    O26      O        0.09501    0.91411    0.50407    1.000
    C49      C        0.11760    0.86343    0.56630    1.000
    C50      C        0.18890    0.80730    0.53070    1.000
    C51      C        0.22640    0.81090    0.43090    1.000
    C52      C        0.21110    0.74330    0.59760    1.000
    H49      H        0.18250    0.73760    0.66300    1.000
    N13      N        0.21160    0.87990    0.36580    1.000
    H50      H        0.24210    0.88720    0.30870    1.000
    H51      H        0.17230    0.91380    0.38390    1.000
    H52      H        0.95020    0.13980    0.73860    1.000
    O27      O        0.58434    0.35308    0.65395    1.000
    O28      O        0.59501    0.41411    0.50407    1.000
    C53      C        0.61760    0.36343    0.56630    1.000
    C54      C        0.68890    0.30730    0.53070    1.000
    C55      C        0.72640    0.31090    0.43090    1.000
    C56      C        0.71110    0.24330    0.59760    1.000
    H53      H        0.68250    0.23760    0.66300    1.000
    N14      N        0.71160    0.37990    0.36580    1.000
    H54      H        0.74210    0.38720    0.30870    1.000
    H55      H        0.67230    0.41380    0.38390    1.000
    H56      H        0.45020    0.63980    0.73860    1.000
    O29      O        0.91566    0.14692    0.15395    1.000
    O30      O        0.90499    0.08589    0.00407    1.000
    C57      C        0.88240    0.13657    0.06630    1.000
    C58      C        0.81110    0.19270    0.03070    1.000
    C59      C        0.77360    0.18910    0.93090    1.000
    C60      C        0.78890    0.25670    0.09760    1.000
    H57      H        0.81750    0.26240    0.16300    1.000
    N15      N        0.78840    0.12010    0.86580    1.000
    H58      H        0.75790    0.11280    0.80870    1.000
    H59      H        0.82770    0.08620    0.88390    1.000
    H60      H        0.04980    0.86020    0.23860    1.000
    O31      O        0.41566    0.64692    0.15395    1.000
    O32      O        0.40499    0.58589    0.00407    1.000
    C61      C        0.38240    0.63657    0.06630    1.000
    C62      C        0.31110    0.69270    0.03070    1.000
    C63      C        0.27360    0.68910    0.93090    1.000
    C64      C        0.28890    0.75670    0.09760    1.000
    H61      H        0.31750    0.76240    0.16300    1.000
    N16      N        0.28840    0.62010    0.86580    1.000
    H62      H        0.25790    0.61280    0.80870    1.000
    H63      H        0.32770    0.58620    0.88390    1.000
    H64      H        0.54980    0.36020    0.23860    1.000
    Mg1      Mg       0.00000    0.10898    0.25000    1.000
    O33      O        0.00000    0.87640    0.25000    1.000
    N17      N        0.00000    0.95730    0.25000    1.000
    Mg2      Mg       0.50000    0.60898    0.25000    1.000
    O34      O        0.50000    0.37640    0.25000    1.000
    N18      N        0.50000    0.45730    0.25000    1.000
    Mg3      Mg       0.00000    0.89102    0.75000    1.000
    O35      O        0.00000    0.12360    0.75000    1.000
    N19      N        0.00000    0.04270    0.75000    1.000
    Mg4      Mg       0.50000    0.39102    0.75000    1.000
    O36      O        0.50000    0.62360    0.75000    1.000
    N20      N        0.50000    0.54270    0.75000    1.000
    Mg5      Mg       0.00000    0.00000    0.00000    1.000
    Mg6      Mg       0.50000    0.50000    0.00000    1.000
    Mg7      Mg       0.00000    0.00000    0.50000    1.000
    Mg8      Mg       0.50000    0.50000    0.50000    1.000
    O37      O        0.00000    0.99925    0.16230    1.000
    O38      O        0.50000    0.49925    0.16230    1.000
    O39      O        0.00000    0.00075    0.66230    1.000
    O40      O        0.50000    0.50075    0.66230    1.000
    O41      O        0.00000    0.99925    0.33770    1.000
    O42      O        0.50000    0.49925    0.33770    1.000
    O43      O        0.00000    0.00075    0.83770    1.000
    O44      O        0.50000    0.50075    0.83770    1.000
