data_functionalizedCrystal
_audit_creation_method	'EQeq! by Chris Wilmer'
_symmetry_space_group_name_H-M	'P1'
_symmetry_Int_Tables_number	1
_symmetry_cell_setting	triclinic
loop_
_symmetry_equiv_pos_as_xyz
  x,y,z
_cell_length_a	12.6176
_cell_length_b	14.198
_cell_length_c	14.896
_cell_angle_alpha	69.221
_cell_angle_beta	67.598
_cell_angle_gamma	78.395
loop_
_atom_site_label
_atom_site_type_symbol
_atom_site_fract_x
_atom_site_fract_y
_atom_site_fract_z
_atom_site_charge
Mof_Gd	Gd	0.06449	0.51862	0.59596	1.732
Mof_Gd	Gd	0.44884	0.9461	0.90664	1.747
Mof_O 	O 	0.0554	0.4913	0.777	-0.377
Mof_O 	O 	0.6956	0.0469	0.9354	-0.468
Mof_O 	O 	0.6305	0.0116	0.832	-0.473
Mof_O 	O 	0.9698	0.3955	0.5594	-0.533
Mof_O 	O 	0.5704	0.8202	0.8238	-0.389
Mof_O 	O 	0.8086	0.5625	0.5192	-0.468
Mof_O 	O 	0.8635	0.5817	0.6376	-0.449
Mof_O 	O 	0.4917	0.9511	0.7318	-0.411
Mof_O 	O 	0.4631	0.1444	0.9747	-0.502
Mof_N 	N 	0.2354	0.6388	0.482	-0.194
Mof_O 	O 	0.9937	0.3455	0.709	-0.395
Mof_O 	O 	0.2125	0.4401	0.6703	-0.399
Mof_C 	C 	0.8406	0.1816	0.7496	0.119
Mof_H 	H 	0.8088	0.2104	0.8022	0.001
Mof_C 	C 	0.7008	0.0471	0.8488	0.476
Mof_C 	C 	0.8	0.0933	0.7586	-0.202
Mof_N 	N 	0.0545	0.685	0.6358	-0.203
Mof_C 	C 	0.9657	0.3278	0.6449	0.402
Mof_O 	O 	0.3996	0.124	0.8645	-0.464
Mof_C 	C 	0.9292	0.2269	0.6615	-0.186
Mof_C 	C 	0.4023	0.1738	0.918	0.459
Mof_C 	C 	0.6064	0.8281	0.6523	-0.128
Mof_N 	N 	0.2526	0.975	0.8748	-0.2
Mof_C 	C 	0.2825	0.3176	0.8378	0.081
Mof_H 	H 	0.3048	0.2924	0.783	0.023
Mof_C 	C 	0.3263	0.2701	0.917	-0.178
Mof_C 	C 	0.9836	0.1799	0.587	0.109
Mof_H 	H 	0.0438	0.2092	0.5293	-0.013
Mof_N 	N 	0.3313	0.7912	0.9797	-0.208
Mof_C 	C 	0.1424	0.7466	0.5867	0.036
Mof_C 	C 	0.2345	0.724	0.5031	0.037
Mof_C 	C 	0.8522	0.0485	0.6817	0.12
Mof_H 	H 	0.8233	0.9915	0.6854	-0.006
Mof_C 	C 	0.155	0.4478	0.7572	0.333
Mof_C 	C 	0.68	0.7426	0.6565	0.081
Mof_H 	H 	0.7004	0.7106	0.7146	0.021
Mof_C 	C 	0.948	0.0884	0.599	-0.18
Mof_H 	H 	0.988	0.0538	0.5519	0.093
Mof_C 	C 	0.206	0.4019	0.8404	-0.125
Mof_C 	C 	0.8036	0.6073	0.5798	0.444
Mof_C 	C 	0.5522	0.869	0.7411	0.333
Mof_C 	C 	0.2983	0.3103	0.9963	0.083
Mof_H 	H 	0.3306	0.2803	0.0475	0.012
Mof_C 	C 	0.1816	0.8975	0.923	0.034
Mof_C 	C 	0.7248	0.7027	0.5751	-0.169
Mof_C 	C 	0.1746	0.4405	0.9218	0.054
Mof_H 	H 	0.1218	0.4964	0.9246	0.024
Mof_C 	C 	0.2223	0.8024	0.9785	0.034
Mof_C 	C 	0.3218	0.7922	0.4452	0.007
Mof_C 	C 	0.5775	0.8768	0.5645	0.06
Mof_H 	H 	0.5276	0.9349	0.561	0.02
Mof_C 	C 	0.6941	0.752	0.4891	0.087
Mof_H 	H 	0.7225	0.7254	0.4348	0.013
Mof_C 	C 	0.3189	0.6219	0.4029	0.077
Mof_H 	H 	0.318	0.5647	0.3866	0.012
Mof_C 	C 	0.2225	0.395	0.9991	-0.136
Mof_H 	H 	0.2033	0.4218	0.0524	0.081
Mof_C 	C 	0.9679	0.7049	0.7144	0.069
Mof_H 	H 	0.9065	0.6642	0.7471	0.007
Mof_C 	C 	0.1418	0.8324	0.6141	0.003
Mof_C 	C 	0.0688	0.9125	0.9194	0.002
Mof_C 	C 	0.1472	0.723	0.0307	0.009
Mof_C 	C 	0.3671	0.7009	0.0335	0.078
Mof_H 	H 	0.4417	0.6916	0.0349	0.002
Mof_C 	C 	0.3169	0.8791	0.4745	-0.054
Mof_H 	H 	0.3737	0.9243	0.4358	0.062
Mof_C 	C 	0.297	0.6209	0.0872	-0.102
Mof_H 	H 	0.3255	0.5599	0.1237	0.068
Mof_C 	C 	0.4108	0.7696	0.3614	-0.022
Mof_H 	H 	0.4693	0.8127	0.3207	0.05
Mof_C 	C 	0.4096	0.6842	0.341	-0.094
Mof_H 	H 	0.4679	0.6671	0.2869	0.069
Mof_C 	C 	0.2345	0.8972	0.5546	-0.053
Mof_H 	H 	0.2363	0.9528	0.5729	0.052
Mof_C 	C 	0.2141	0.0642	0.8224	0.081
Mof_H 	H 	0.2627	0.1165	0.7885	0.007
Mof_C 	C 	0.623	0.8386	0.4819	-0.145
Mof_H 	H 	0.6052	0.8718	0.4227	0.087
Mof_C 	C 	0.1907	0.6301	0.0872	-0.014
Mof_H 	H 	0.1445	0.5761	0.124	0.047
Mof_C 	C 	0.0353	0.7404	0.0243	-0.033
Mof_H 	H 	0.9869	0.6879	0.0576	0.056
Mof_C 	C 	0.9658	0.7844	0.7495	-0.09
Mof_H 	H 	0.9068	0.7934	0.8074	0.063
Mof_C 	C 	0.0511	0.8486	0.6981	-0.033
Mof_H 	H 	0.0488	0.9035	0.7191	0.044
Mof_C 	C 	0.0303	0.0089	0.866	-0.021
Mof_H 	H 	0.9554	0.0219	0.8649	0.052
Mof_C 	C 	0.1051	0.0814	0.8166	-0.101
Mof_H 	H 	0.0828	0.1442	0.7779	0.078
Mof_C 	C 	0.997	0.8292	0.9726	-0.066
Mof_H 	H 	0.9228	0.8375	0.9708	0.055
Mof_Gd	Gd	0.93551	0.48138	0.40404	1.731
Mof_Gd	Gd	0.55116	0.0539	0.09336	1.746
Mof_O 	O 	0.9446	0.5087	0.223	-0.378
Mof_O 	O 	0.3044	0.9531	0.0646	-0.469
Mof_O 	O 	0.3695	0.9884	0.168	-0.473
Mof_O 	O 	0.0302	0.6045	0.4406	-0.533
Mof_O 	O 	0.4296	0.1798	0.1762	-0.389
Mof_O 	O 	0.1914	0.4375	0.4808	-0.468
Mof_O 	O 	0.1365	0.4183	0.3624	-0.449
Mof_O 	O 	0.5083	0.0489	0.2682	-0.411
Mof_O 	O 	0.5369	0.8556	0.0253	-0.502
Mof_N 	N 	0.7646	0.3612	0.518	-0.194
Mof_O 	O 	0.0063	0.6545	0.291	-0.395
Mof_O 	O 	0.7875	0.5599	0.3297	-0.399
Mof_C 	C 	0.1594	0.8184	0.2504	0.119
Mof_H 	H 	0.1912	0.7896	0.1978	0.001
Mof_C 	C 	0.2992	0.9529	0.1512	0.476
Mof_C 	C 	0.2	0.9067	0.2414	-0.202
Mof_N 	N 	0.9455	0.315	0.3642	-0.203
Mof_C 	C 	0.0343	0.6722	0.3551	0.402
Mof_O 	O 	0.6004	0.876	0.1355	-0.464
Mof_C 	C 	0.0708	0.7731	0.3385	-0.186
Mof_C 	C 	0.5977	0.8262	0.082	0.459
Mof_C 	C 	0.3936	0.1719	0.3477	-0.128
Mof_N 	N 	0.7474	0.025	0.1252	-0.2
Mof_C 	C 	0.7175	0.6824	0.1622	0.081
Mof_H 	H 	0.6952	0.7076	0.217	0.023
Mof_C 	C 	0.6737	0.7299	0.083	-0.178
Mof_C 	C 	0.0164	0.8201	0.413	0.109
Mof_H 	H 	0.9562	0.7908	0.4707	-0.013
Mof_N 	N 	0.6687	0.2088	0.0203	-0.208
Mof_C 	C 	0.8576	0.2534	0.4133	0.036
Mof_C 	C 	0.7655	0.276	0.4969	0.037
Mof_C 	C 	0.1478	0.9515	0.3183	0.12
Mof_H 	H 	0.1767	0.0085	0.3146	-0.006
Mof_C 	C 	0.845	0.5522	0.2428	0.333
Mof_C 	C 	0.32	0.2574	0.3435	0.081
Mof_H 	H 	0.2996	0.2894	0.2854	0.021
Mof_C 	C 	0.052	0.9116	0.401	-0.18
Mof_H 	H 	0.012	0.9462	0.4481	0.093
Mof_C 	C 	0.794	0.5981	0.1596	-0.125
Mof_C 	C 	0.1964	0.3927	0.4202	0.444
Mof_C 	C 	0.4478	0.131	0.2589	0.333
Mof_C 	C 	0.7017	0.6897	0.0037	0.083
Mof_H 	H 	0.6694	0.7197	0.9525	0.012
Mof_C 	C 	0.8184	0.1025	0.077	0.034
Mof_C 	C 	0.2752	0.2973	0.4249	-0.169
Mof_C 	C 	0.8254	0.5595	0.0782	0.054
Mof_H 	H 	0.8782	0.5036	0.0754	0.024
Mof_C 	C 	0.7777	0.1976	0.0215	0.034
Mof_C 	C 	0.6782	0.2078	0.5548	0.007
Mof_C 	C 	0.4225	0.1232	0.4355	0.06
Mof_H 	H 	0.4724	0.0651	0.439	0.02
Mof_C 	C 	0.3059	0.248	0.5109	0.087
Mof_H 	H 	0.2775	0.2746	0.5652	0.013
Mof_C 	C 	0.6811	0.3781	0.5971	0.077
Mof_H 	H 	0.682	0.4353	0.6134	0.012
Mof_C 	C 	0.7775	0.605	0.0009	-0.136
Mof_H 	H 	0.7967	0.5782	0.9476	0.081
Mof_C 	C 	0.0321	0.2951	0.2856	0.069
Mof_H 	H 	0.0935	0.3358	0.2529	0.007
Mof_C 	C 	0.8582	0.1676	0.3859	0.003
Mof_C 	C 	0.9312	0.0875	0.0806	0.002
Mof_C 	C 	0.8528	0.277	0.9693	0.009
Mof_C 	C 	0.6329	0.2991	0.9665	0.078
Mof_H 	H 	0.5583	0.3084	0.9651	0.002
Mof_C 	C 	0.6831	0.1209	0.5255	-0.054
Mof_H 	H 	0.6263	0.0757	0.5642	0.062
Mof_C 	C 	0.703	0.3791	0.9128	-0.102
Mof_H 	H 	0.6745	0.4401	0.8763	0.068
Mof_C 	C 	0.5892	0.2304	0.6386	-0.022
Mof_H 	H 	0.5307	0.1873	0.6793	0.05
Mof_C 	C 	0.5904	0.3158	0.659	-0.094
Mof_H 	H 	0.5321	0.3329	0.7131	0.069
Mof_C 	C 	0.7655	0.1028	0.4454	-0.053
Mof_H 	H 	0.7637	0.0472	0.4271	0.052
Mof_C 	C 	0.7859	0.9358	0.1776	0.081
Mof_H 	H 	0.7373	0.8835	0.2115	0.007
Mof_C 	C 	0.377	0.1614	0.5181	-0.145
Mof_H 	H 	0.3948	0.1282	0.5773	0.087
Mof_C 	C 	0.8093	0.3699	0.9128	-0.014
Mof_H 	H 	0.8555	0.4239	0.876	0.047
Mof_C 	C 	0.9647	0.2596	0.9757	-0.033
Mof_H 	H 	0.0131	0.3121	0.9424	0.056
Mof_C 	C 	0.0342	0.2156	0.2505	-0.09
Mof_H 	H 	0.0932	0.2066	0.1926	0.063
Mof_C 	C 	0.9489	0.1514	0.3019	-0.033
Mof_H 	H 	0.9512	0.0965	0.2809	0.044
Mof_C 	C 	0.9697	0.9911	0.134	-0.021
Mof_H 	H 	0.0446	0.9781	0.1351	0.052
Mof_C 	C 	0.8949	0.9186	0.1834	-0.101
Mof_H 	H 	0.9172	0.8558	0.2221	0.078
Mof_C 	C 	0.003	0.1708	0.0274	-0.066
Mof_H 	H 	0.0772	0.1625	0.0292	0.055
_end
