# CIF file generated by openbabel 3.1.0, see https://openbabel.org
data_I
_chemical_name_common 'image0'
_cell_length_a 17.518
_cell_length_b 13.309
_cell_length_c 11.181
_cell_angle_alpha 90
_cell_angle_beta 95.873
_cell_angle_gamma 90
_space_group_name_H-M_alt 'P 1'
_space_group_name_Hall 'P 1'
loop_
    _symmetry_equiv_pos_as_xyz
    x,y,z
loop_
    _atom_site_label
    _atom_site_type_symbol
    _atom_site_fract_x
    _atom_site_fract_y
    _atom_site_fract_z
    _atom_site_occupancy
    Co1      Co       0.91929    0.94188    0.99851    1.000
    C1       C        0.63390    0.71880    0.17020    1.000
    C2       C        0.69720    0.79080    0.21930    1.000
    C3       C        0.74980    0.82830    0.14730    1.000
    H1       H        0.74650    0.81240    0.06590    1.000
    C4       C        0.80840    0.89120    0.19960    1.000
    C5       C        0.81100    0.91350    0.32520    1.000
    C6       C        0.75760    0.87700    0.39850    1.000
    H2       H        0.75960    0.89340    0.47960    1.000
    C7       C        0.70170    0.81510    0.34320    1.000
    H3       H        0.66540    0.78810    0.38910    1.000
    N1       N        0.87300    0.97410    0.35310    1.000
    N2       N        0.90730    0.98600    0.25100    1.000
    N3       N        0.87000    0.93880    0.16020    1.000
    O1       O        0.58230    0.70190    0.23610    1.000
    O2       O        0.63690    0.68300    0.06340    1.000
    O3       O        0.97810    0.07640    0.06450    1.000
    H4       H        0.95100    0.13000    0.06100    1.000
    Co2      Co       0.41929    0.44188    0.99851    1.000
    C8       C        0.13390    0.21880    0.17020    1.000
    C9       C        0.19720    0.29080    0.21930    1.000
    C10      C        0.24980    0.32830    0.14730    1.000
    H5       H        0.24650    0.31240    0.06590    1.000
    C11      C        0.30840    0.39120    0.19960    1.000
    C12      C        0.31100    0.41350    0.32520    1.000
    C13      C        0.25760    0.37700    0.39850    1.000
    H6       H        0.25960    0.39340    0.47960    1.000
    C14      C        0.20170    0.31510    0.34320    1.000
    H7       H        0.16540    0.28810    0.38910    1.000
    N4       N        0.37300    0.47410    0.35310    1.000
    N5       N        0.40730    0.48600    0.25100    1.000
    N6       N        0.37000    0.43880    0.16020    1.000
    O4       O        0.08230    0.20190    0.23610    1.000
    O5       O        0.13690    0.18300    0.06340    1.000
    O6       O        0.47810    0.57640    0.06450    1.000
    H8       H        0.45100    0.63000    0.06100    1.000
    Co3      Co       0.08071    0.94188    0.50149    1.000
    C15      C        0.36610    0.71880    0.32980    1.000
    C16      C        0.30280    0.79080    0.28070    1.000
    C17      C        0.25020    0.82830    0.35270    1.000
    H9       H        0.25350    0.81240    0.43410    1.000
    C18      C        0.19160    0.89120    0.30040    1.000
    C19      C        0.18900    0.91350    0.17480    1.000
    C20      C        0.24240    0.87700    0.10150    1.000
    H10      H        0.24040    0.89340    0.02040    1.000
    C21      C        0.29830    0.81510    0.15680    1.000
    H11      H        0.33460    0.78810    0.11090    1.000
    N7       N        0.12700    0.97410    0.14690    1.000
    N8       N        0.09270    0.98600    0.24900    1.000
    N9       N        0.13000    0.93880    0.33980    1.000
    O7       O        0.41770    0.70190    0.26390    1.000
    O8       O        0.36310    0.68300    0.43660    1.000
    O9       O        0.02190    0.07640    0.43550    1.000
    H12      H        0.04900    0.13000    0.43900    1.000
    Co4      Co       0.58071    0.44188    0.50149    1.000
    C22      C        0.86610    0.21880    0.32980    1.000
    C23      C        0.80280    0.29080    0.28070    1.000
    C24      C        0.75020    0.32830    0.35270    1.000
    H13      H        0.75350    0.31240    0.43410    1.000
    C25      C        0.69160    0.39120    0.30040    1.000
    C26      C        0.68900    0.41350    0.17480    1.000
    C27      C        0.74240    0.37700    0.10150    1.000
    H14      H        0.74040    0.39340    0.02040    1.000
    C28      C        0.79830    0.31510    0.15680    1.000
    H15      H        0.83460    0.28810    0.11090    1.000
    N10      N        0.62700    0.47410    0.14690    1.000
    N11      N        0.59270    0.48600    0.24900    1.000
    N12      N        0.63000    0.43880    0.33980    1.000
    O10      O        0.91770    0.20190    0.26390    1.000
    O11      O        0.86310    0.18300    0.43660    1.000
    O12      O        0.52190    0.57640    0.43550    1.000
    H16      H        0.54900    0.63000    0.43900    1.000
    Co5      Co       0.08071    0.05812    0.00149    1.000
    C29      C        0.36610    0.28120    0.82980    1.000
    C30      C        0.30280    0.20920    0.78070    1.000
    C31      C        0.25020    0.17170    0.85270    1.000
    H17      H        0.25350    0.18760    0.93410    1.000
    C32      C        0.19160    0.10880    0.80040    1.000
    C33      C        0.18900    0.08650    0.67480    1.000
    C34      C        0.24240    0.12300    0.60150    1.000
    H18      H        0.24040    0.10660    0.52040    1.000
    C35      C        0.29830    0.18490    0.65680    1.000
    H19      H        0.33460    0.21190    0.61090    1.000
    N13      N        0.12700    0.02590    0.64690    1.000
    N14      N        0.09270    0.01400    0.74900    1.000
    N15      N        0.13000    0.06120    0.83980    1.000
    O13      O        0.41770    0.29810    0.76390    1.000
    O14      O        0.36310    0.31700    0.93660    1.000
    O15      O        0.02190    0.92360    0.93550    1.000
    H20      H        0.04900    0.87000    0.93900    1.000
    Co6      Co       0.58071    0.55812    0.00149    1.000
    C36      C        0.86610    0.78120    0.82980    1.000
    C37      C        0.80280    0.70920    0.78070    1.000
    C38      C        0.75020    0.67170    0.85270    1.000
    H21      H        0.75350    0.68760    0.93410    1.000
    C39      C        0.69160    0.60880    0.80040    1.000
    C40      C        0.68900    0.58650    0.67480    1.000
    C41      C        0.74240    0.62300    0.60150    1.000
    H22      H        0.74040    0.60660    0.52040    1.000
    C42      C        0.79830    0.68490    0.65680    1.000
    H23      H        0.83460    0.71190    0.61090    1.000
    N16      N        0.62700    0.52590    0.64690    1.000
    N17      N        0.59270    0.51400    0.74900    1.000
    N18      N        0.63000    0.56120    0.83980    1.000
    O16      O        0.91770    0.79810    0.76390    1.000
    O17      O        0.86310    0.81700    0.93660    1.000
    O18      O        0.52190    0.42360    0.93550    1.000
    H24      H        0.54900    0.37000    0.93900    1.000
    Co7      Co       0.91929    0.05812    0.49851    1.000
    C43      C        0.63390    0.28120    0.67020    1.000
    C44      C        0.69720    0.20920    0.71930    1.000
    C45      C        0.74980    0.17170    0.64730    1.000
    H25      H        0.74650    0.18760    0.56590    1.000
    C46      C        0.80840    0.10880    0.69960    1.000
    C47      C        0.81100    0.08650    0.82520    1.000
    C48      C        0.75760    0.12300    0.89850    1.000
    H26      H        0.75960    0.10660    0.97960    1.000
    C49      C        0.70170    0.18490    0.84320    1.000
    H27      H        0.66540    0.21190    0.88910    1.000
    N19      N        0.87300    0.02590    0.85310    1.000
    N20      N        0.90730    0.01400    0.75100    1.000
    N21      N        0.87000    0.06120    0.66020    1.000
    O19      O        0.58230    0.29810    0.73610    1.000
    O20      O        0.63690    0.31700    0.56340    1.000
    O21      O        0.97810    0.92360    0.56450    1.000
    H28      H        0.95100    0.87000    0.56100    1.000
    Co8      Co       0.41929    0.55812    0.49851    1.000
    C50      C        0.13390    0.78120    0.67020    1.000
    C51      C        0.19720    0.70920    0.71930    1.000
    C52      C        0.24980    0.67170    0.64730    1.000
    H29      H        0.24650    0.68760    0.56590    1.000
    C53      C        0.30840    0.60880    0.69960    1.000
    C54      C        0.31100    0.58650    0.82520    1.000
    C55      C        0.25760    0.62300    0.89850    1.000
    H30      H        0.25960    0.60660    0.97960    1.000
    C56      C        0.20170    0.68490    0.84320    1.000
    H31      H        0.16540    0.71190    0.88910    1.000
    N22      N        0.37300    0.52590    0.85310    1.000
    N23      N        0.40730    0.51400    0.75100    1.000
    N24      N        0.37000    0.56120    0.66020    1.000
    O22      O        0.08230    0.79810    0.73610    1.000
    O23      O        0.13690    0.81700    0.56340    1.000
    O24      O        0.47810    0.42360    0.56450    1.000
    H32      H        0.45100    0.37000    0.56100    1.000
    Co9      Co       0.00000    0.09134    0.25000    1.000
    Co10     Co       0.50000    0.59134    0.25000    1.000
    Co11     Co       0.00000    0.90866    0.75000    1.000
    Co12     Co       0.50000    0.40866    0.75000    1.000
