# CIF file generated by openbabel 3.1.0, see https://openbabel.org
data_I
_chemical_name_common 'image0'
_cell_length_a 17.897
_cell_length_b 14.731
_cell_length_c 17.381
_cell_angle_alpha 90
_cell_angle_beta 116.61
_cell_angle_gamma 90
_space_group_name_H-M_alt 'P 1'
_space_group_name_Hall 'P 1'
loop_
    _symmetry_equiv_pos_as_xyz
    x,y,z
loop_
    _atom_site_label
    _atom_site_type_symbol
    _atom_site_fract_x
    _atom_site_fract_y
    _atom_site_fract_z
    _atom_site_occupancy
    O1       O        0.24320    0.06100    0.10140    1.000
    O2       O        0.36230    0.02740    0.21620    1.000
    C1       C        0.31910    0.07310    0.15400    1.000
    C2       C        0.35330    0.15770    0.12870    1.000
    N1       N        0.43830    0.19080    0.19240    1.000
    C3       C        0.44030    0.21390    0.27670    1.000
    C4       C        0.52740    0.24580    0.33930    1.000
    C5       C        0.45590    0.27610    0.15610    1.000
    C6       C        0.53570    0.32060    0.21900    1.000
    C7       C        0.50630    0.12470    0.20660    1.000
    C8       C        0.59140    0.16720    0.26070    1.000
    N2       N        0.58120    0.25870    0.29390    1.000
    C9       C        0.66290    0.30010    0.35730    1.000
    C10      C        0.72650    0.32340    0.32380    1.000
    O3       O        0.78650    0.36720    0.37770    1.000
    O4       O        0.71610    0.29820    0.25150    1.000
    O5       O        0.07240    0.13720    0.05320    1.000
    O6       O        0.96190    0.13220    0.92370    1.000
    C11      C        0.02250    0.17060    0.98290    1.000
    C12      C        0.03880    0.27010    0.97310    1.000
    N3       N        0.99550    0.30850    0.88290    1.000
    C13      C        0.03120    0.40220    0.88630    1.000
    C14      C        0.97840    0.45130    0.80180    1.000
    C15      C        0.90310    0.31620    0.85010    1.000
    C16      C        0.86340    0.34350    0.75510    1.000
    C17      C        0.01250    0.25280    0.81940    1.000
    C18      C        0.98880    0.30660    0.73740    1.000
    N4       N        0.92980    0.38270    0.73340    1.000
    C19      C        0.88780    0.42400    0.64470    1.000
    C20      C        0.94600    0.46020    0.60960    1.000
    O7       O        0.90880    0.47570    0.52990    1.000
    O8       O        0.02070    0.47290    0.65780    1.000
    Gd1      Gd       0.12937    0.99388    0.11575    1.000
    H1       H        0.35770    0.14160    0.07730    1.000
    H2       H        0.31420    0.20660    0.11640    1.000
    H3       H        0.40370    0.26430    0.26950    1.000
    H4       H        0.42200    0.16230    0.29740    1.000
    H5       H        0.52600    0.29940    0.37000    1.000
    H6       H        0.55180    0.19680    0.37930    1.000
    H7       H        0.46560    0.25680    0.10860    1.000
    H8       H        0.40920    0.31700    0.13590    1.000
    H9       H        0.51980    0.37420    0.23930    1.000
    H10      H        0.57180    0.33700    0.19370    1.000
    H11      H        0.50030    0.07370    0.23780    1.000
    H12      H        0.50230    0.10440    0.15240    1.000
    H13      H        0.61880    0.17530    0.22460    1.000
    H14      H        0.62490    0.12890    0.30840    1.000
    H15      H        0.64970    0.35480    0.37870    1.000
    H16      H        0.68950    0.25790    0.40380    1.000
    H17      H        0.09780    0.27770    0.99320    1.000
    H18      H        0.02090    0.30470    0.00860    1.000
    H19      H        0.08810    0.39810    0.89550    1.000
    H20      H        0.02890    0.43600    0.93250    1.000
    H21      H        0.01470    0.48410    0.78440    1.000
    H22      H        0.94080    0.49300    0.80910    1.000
    H23      H        0.88060    0.25880    0.85560    1.000
    H24      H        0.89110    0.36110    0.88310    1.000
    H25      H        0.82130    0.38850    0.74510    1.000
    H26      H        0.83860    0.29160    0.71940    1.000
    H27      H        0.07070    0.23720    0.84450    1.000
    H28      H        0.97960    0.19840    0.80590    1.000
    H29      H        0.03850    0.33200    0.73810    1.000
    H30      H        0.96220    0.26740    0.68850    1.000
    H31      H        0.85300    0.37810    0.60610    1.000
    H32      H        0.85370    0.47340    0.64650    1.000
    O9       O        0.75680    0.56100    0.39860    1.000
    O10      O        0.63770    0.52740    0.28380    1.000
    C21      C        0.68090    0.57310    0.34600    1.000
    C22      C        0.64670    0.65770    0.37130    1.000
    N5       N        0.56170    0.69080    0.30760    1.000
    C23      C        0.55970    0.71390    0.22330    1.000
    C24      C        0.47260    0.74580    0.16070    1.000
    C25      C        0.54410    0.77610    0.34390    1.000
    C26      C        0.46430    0.82060    0.28100    1.000
    C27      C        0.49370    0.62470    0.29340    1.000
    C28      C        0.40860    0.66720    0.23930    1.000
    N6       N        0.41880    0.75870    0.20610    1.000
    C29      C        0.33710    0.80010    0.14270    1.000
    C30      C        0.27350    0.82340    0.17620    1.000
    O11      O        0.21350    0.86720    0.12230    1.000
    O12      O        0.28390    0.79820    0.24850    1.000
    O13      O        0.92760    0.63720    0.44680    1.000
    O14      O        0.03810    0.63220    0.57630    1.000
    C31      C        0.97750    0.67060    0.51710    1.000
    C32      C        0.96120    0.77010    0.52690    1.000
    N7       N        0.00450    0.80850    0.61710    1.000
    C33      C        0.96880    0.90220    0.61370    1.000
    C34      C        0.02160    0.95130    0.69820    1.000
    C35      C        0.09690    0.81620    0.64990    1.000
    C36      C        0.13660    0.84350    0.74490    1.000
    C37      C        0.98750    0.75280    0.68060    1.000
    C38      C        0.01120    0.80660    0.76260    1.000
    N8       N        0.07020    0.88270    0.76660    1.000
    C39      C        0.11220    0.92400    0.85530    1.000
    C40      C        0.05400    0.96020    0.89040    1.000
    O15      O        0.09120    0.97570    0.97010    1.000
    O16      O        0.97930    0.97290    0.84220    1.000
    Gd2      Gd       0.87063    0.49388    0.38425    1.000
    H33      H        0.64230    0.64160    0.42270    1.000
    H34      H        0.68580    0.70660    0.38360    1.000
    H35      H        0.59630    0.76430    0.23050    1.000
    H36      H        0.57800    0.66230    0.20260    1.000
    H37      H        0.47400    0.79940    0.13000    1.000
    H38      H        0.44820    0.69680    0.12070    1.000
    H39      H        0.53440    0.75680    0.39140    1.000
    H40      H        0.59080    0.81700    0.36410    1.000
    H41      H        0.48020    0.87420    0.26070    1.000
    H42      H        0.42820    0.83700    0.30630    1.000
    H43      H        0.49970    0.57370    0.26220    1.000
    H44      H        0.49770    0.60440    0.34760    1.000
    H45      H        0.38120    0.67530    0.27540    1.000
    H46      H        0.37510    0.62890    0.19160    1.000
    H47      H        0.35030    0.85480    0.12130    1.000
    H48      H        0.31050    0.75790    0.09620    1.000
    H49      H        0.90220    0.77770    0.50680    1.000
    H50      H        0.97910    0.80470    0.49140    1.000
    H51      H        0.91190    0.89810    0.60450    1.000
    H52      H        0.97110    0.93600    0.56750    1.000
    H53      H        0.98530    0.98410    0.71560    1.000
    H54      H        0.05920    0.99300    0.69090    1.000
    H55      H        0.11940    0.75880    0.64440    1.000
    H56      H        0.10890    0.86110    0.61690    1.000
    H57      H        0.17870    0.88850    0.75490    1.000
    H58      H        0.16140    0.79160    0.78060    1.000
    H59      H        0.92930    0.73720    0.65550    1.000
    H60      H        0.02040    0.69840    0.69410    1.000
    H61      H        0.96150    0.83200    0.76190    1.000
    H62      H        0.03780    0.76740    0.81150    1.000
    H63      H        0.14700    0.87810    0.89390    1.000
    H64      H        0.14630    0.97340    0.85350    1.000
    O17      O        0.75680    0.93900    0.89860    1.000
    O18      O        0.63770    0.97260    0.78380    1.000
    C41      C        0.68090    0.92690    0.84600    1.000
    C42      C        0.64670    0.84230    0.87130    1.000
    N9       N        0.56170    0.80920    0.80760    1.000
    C43      C        0.55970    0.78610    0.72330    1.000
    C44      C        0.47260    0.75420    0.66070    1.000
    C45      C        0.54410    0.72390    0.84390    1.000
    C46      C        0.46430    0.67940    0.78100    1.000
    C47      C        0.49370    0.87530    0.79340    1.000
    C48      C        0.40860    0.83280    0.73930    1.000
    N10      N        0.41880    0.74130    0.70610    1.000
    C49      C        0.33710    0.69990    0.64270    1.000
    C50      C        0.27350    0.67660    0.67620    1.000
    O19      O        0.21350    0.63280    0.62230    1.000
    O20      O        0.28390    0.70180    0.74850    1.000
    O21      O        0.92760    0.86280    0.94680    1.000
    O22      O        0.03810    0.86780    0.07630    1.000
    C51      C        0.97750    0.82940    0.01710    1.000
    C52      C        0.96120    0.72990    0.02690    1.000
    N11      N        0.00450    0.69150    0.11710    1.000
    C53      C        0.96880    0.59780    0.11370    1.000
    C54      C        0.02160    0.54870    0.19820    1.000
    C55      C        0.09690    0.68380    0.14990    1.000
    C56      C        0.13660    0.65650    0.24490    1.000
    C57      C        0.98750    0.74720    0.18060    1.000
    C58      C        0.01120    0.69340    0.26260    1.000
    N12      N        0.07020    0.61730    0.26660    1.000
    C59      C        0.11220    0.57600    0.35530    1.000
    C60      C        0.05400    0.53980    0.39040    1.000
    O23      O        0.09120    0.52430    0.47010    1.000
    O24      O        0.97930    0.52710    0.34220    1.000
    Gd3      Gd       0.87063    0.00612    0.88425    1.000
    H65      H        0.64230    0.85840    0.92270    1.000
    H66      H        0.68580    0.79340    0.88360    1.000
    H67      H        0.59630    0.73570    0.73050    1.000
    H68      H        0.57800    0.83770    0.70260    1.000
    H69      H        0.47400    0.70060    0.63000    1.000
    H70      H        0.44820    0.80320    0.62070    1.000
    H71      H        0.53440    0.74320    0.89140    1.000
    H72      H        0.59080    0.68300    0.86410    1.000
    H73      H        0.48020    0.62580    0.76070    1.000
    H74      H        0.42820    0.66300    0.80630    1.000
    H75      H        0.49970    0.92630    0.76220    1.000
    H76      H        0.49770    0.89560    0.84760    1.000
    H77      H        0.38120    0.82470    0.77540    1.000
    H78      H        0.37510    0.87110    0.69160    1.000
    H79      H        0.35030    0.64520    0.62130    1.000
    H80      H        0.31050    0.74210    0.59620    1.000
    H81      H        0.90220    0.72230    0.00680    1.000
    H82      H        0.97910    0.69530    0.99140    1.000
    H83      H        0.91190    0.60190    0.10450    1.000
    H84      H        0.97110    0.56400    0.06750    1.000
    H85      H        0.98530    0.51590    0.21560    1.000
    H86      H        0.05920    0.50700    0.19090    1.000
    H87      H        0.11940    0.74120    0.14440    1.000
    H88      H        0.10890    0.63890    0.11690    1.000
    H89      H        0.17870    0.61150    0.25490    1.000
    H90      H        0.16140    0.70840    0.28060    1.000
    H91      H        0.92930    0.76280    0.15550    1.000
    H92      H        0.02040    0.80160    0.19410    1.000
    H93      H        0.96150    0.66800    0.26190    1.000
    H94      H        0.03780    0.73260    0.31150    1.000
    H95      H        0.14700    0.62190    0.39390    1.000
    H96      H        0.14630    0.52660    0.35350    1.000
    O25      O        0.24320    0.43900    0.60140    1.000
    O26      O        0.36230    0.47260    0.71620    1.000
    C61      C        0.31910    0.42690    0.65400    1.000
    C62      C        0.35330    0.34230    0.62870    1.000
    N13      N        0.43830    0.30920    0.69240    1.000
    C63      C        0.44030    0.28610    0.77670    1.000
    C64      C        0.52740    0.25420    0.83930    1.000
    C65      C        0.45590    0.22390    0.65610    1.000
    C66      C        0.53570    0.17940    0.71900    1.000
    C67      C        0.50630    0.37530    0.70660    1.000
    C68      C        0.59140    0.33280    0.76070    1.000
    N14      N        0.58120    0.24130    0.79390    1.000
    C69      C        0.66290    0.19990    0.85730    1.000
    C70      C        0.72650    0.17660    0.82380    1.000
    O27      O        0.78650    0.13280    0.87770    1.000
    O28      O        0.71610    0.20180    0.75150    1.000
    O29      O        0.07240    0.36280    0.55320    1.000
    O30      O        0.96190    0.36780    0.42370    1.000
    C71      C        0.02250    0.32940    0.48290    1.000
    C72      C        0.03880    0.22990    0.47310    1.000
    N15      N        0.99550    0.19150    0.38290    1.000
    C73      C        0.03120    0.09780    0.38630    1.000
    C74      C        0.97840    0.04870    0.30180    1.000
    C75      C        0.90310    0.18380    0.35010    1.000
    C76      C        0.86340    0.15650    0.25510    1.000
    C77      C        0.01250    0.24720    0.31940    1.000
    C78      C        0.98880    0.19340    0.23740    1.000
    N16      N        0.92980    0.11730    0.23340    1.000
    C79      C        0.88780    0.07600    0.14470    1.000
    C80      C        0.94600    0.03980    0.10960    1.000
    O31      O        0.90880    0.02430    0.02990    1.000
    O32      O        0.02070    0.02710    0.15780    1.000
    Gd4      Gd       0.12937    0.50612    0.61575    1.000
    H97      H        0.35770    0.35840    0.57730    1.000
    H98      H        0.31420    0.29340    0.61640    1.000
    H99      H        0.40370    0.23570    0.76950    1.000
    H100     H        0.42200    0.33770    0.79740    1.000
    H101     H        0.52600    0.20060    0.87000    1.000
    H102     H        0.55180    0.30320    0.87930    1.000
    H103     H        0.46560    0.24320    0.60860    1.000
    H104     H        0.40920    0.18300    0.63590    1.000
    H105     H        0.51980    0.12580    0.73930    1.000
    H106     H        0.57180    0.16300    0.69370    1.000
    H107     H        0.50030    0.42630    0.73780    1.000
    H108     H        0.50230    0.39560    0.65240    1.000
    H109     H        0.61880    0.32470    0.72460    1.000
    H110     H        0.62490    0.37110    0.80840    1.000
    H111     H        0.64970    0.14520    0.87870    1.000
    H112     H        0.68950    0.24210    0.90380    1.000
    H113     H        0.09780    0.22230    0.49320    1.000
    H114     H        0.02090    0.19530    0.50860    1.000
    H115     H        0.08810    0.10190    0.39550    1.000
    H116     H        0.02890    0.06400    0.43250    1.000
    H117     H        0.01470    0.01590    0.28440    1.000
    H118     H        0.94080    0.00700    0.30910    1.000
    H119     H        0.88060    0.24120    0.35560    1.000
    H120     H        0.89110    0.13890    0.38310    1.000
    H121     H        0.82130    0.11150    0.24510    1.000
    H122     H        0.83860    0.20840    0.21940    1.000
    H123     H        0.07070    0.26280    0.34450    1.000
    H124     H        0.97960    0.30160    0.30590    1.000
    H125     H        0.03850    0.16800    0.23810    1.000
    H126     H        0.96220    0.23260    0.18850    1.000
    H127     H        0.85300    0.12190    0.10610    1.000
    H128     H        0.85370    0.02660    0.14650    1.000
