# CIF file generated by openbabel 3.1.0, see https://openbabel.org
data_I
_chemical_name_common 'image0'
_cell_length_a 12.8331
_cell_length_b 15.626
_cell_length_c 7.545
_cell_angle_alpha 90
_cell_angle_beta 93.225
_cell_angle_gamma 90
_space_group_name_H-M_alt 'P 1'
_space_group_name_Hall 'P 1'
loop_
    _symmetry_equiv_pos_as_xyz
    x,y,z
loop_
    _atom_site_label
    _atom_site_type_symbol
    _atom_site_fract_x
    _atom_site_fract_y
    _atom_site_fract_z
    _atom_site_occupancy
    O1       O        0.16880    0.54100    0.73390    1.000
    O2       O        0.06190    0.57110    0.94200    1.000
    N1       N        0.38020    0.73300    0.89100    1.000
    N2       N        0.49750    0.62250    0.00090    1.000
    C1       C        0.22180    0.64770    0.94700    1.000
    H1       H        0.26300    0.62130    0.04390    1.000
    H2       H        0.18350    0.69500    0.99540    1.000
    C2       C        0.14480    0.58270    0.86740    1.000
    N3       N        0.62490    0.53570    0.12570    1.000
    H3       H        0.68420    0.52760    0.18180    1.000
    H4       H        0.58670    0.49270    0.09300    1.000
    C3       C        0.52780    0.77490    0.02810    1.000
    N4       N        0.65540    0.68030    0.14400    1.000
    N5       N        0.47220    0.84940    0.98160    1.000
    C4       C        0.47040    0.70330    0.97700    1.000
    C5       C        0.29520    0.68220    0.80980    1.000
    H5       H        0.32410    0.63450    0.74660    1.000
    H6       H        0.25540    0.71720    0.72400    1.000
    C6       C        0.59220    0.61460    0.08950    1.000
    C7       C        0.38680    0.81940    0.90060    1.000
    H7       H        0.33440    0.85500    0.85310    1.000
    C8       C        0.62330    0.75900    0.11740    1.000
    H8       H        0.66470    0.80450    0.15860    1.000
    O3       O        0.41010    0.99110    0.22480    1.000
    O4       O        0.83120    0.54100    0.76610    1.000
    O5       O        0.93810    0.57110    0.55800    1.000
    N6       N        0.61980    0.73300    0.60900    1.000
    N7       N        0.50250    0.62250    0.49910    1.000
    C9       C        0.77820    0.64770    0.55300    1.000
    H9       H        0.73700    0.62130    0.45610    1.000
    H10      H        0.81650    0.69500    0.50460    1.000
    C10      C        0.85520    0.58270    0.63260    1.000
    N8       N        0.37510    0.53570    0.37430    1.000
    H11      H        0.31580    0.52760    0.31820    1.000
    H12      H        0.41330    0.49270    0.40700    1.000
    C11      C        0.47220    0.77490    0.47190    1.000
    N9       N        0.34460    0.68030    0.35600    1.000
    N10      N        0.52780    0.84940    0.51840    1.000
    C12      C        0.52960    0.70330    0.52300    1.000
    C13      C        0.70480    0.68220    0.69020    1.000
    H13      H        0.67590    0.63450    0.75340    1.000
    H14      H        0.74460    0.71720    0.77600    1.000
    C14      C        0.40780    0.61460    0.41050    1.000
    C15      C        0.61320    0.81940    0.59940    1.000
    H15      H        0.66560    0.85500    0.64690    1.000
    C16      C        0.37670    0.75900    0.38260    1.000
    H16      H        0.33530    0.80450    0.34140    1.000
    O6       O        0.58990    0.99110    0.27520    1.000
    O7       O        0.83120    0.45900    0.26610    1.000
    O8       O        0.93810    0.42890    0.05800    1.000
    N11      N        0.61980    0.26700    0.10900    1.000
    N12      N        0.50250    0.37750    0.99910    1.000
    C17      C        0.77820    0.35230    0.05300    1.000
    H17      H        0.73700    0.37870    0.95610    1.000
    H18      H        0.81650    0.30500    0.00460    1.000
    C18      C        0.85520    0.41730    0.13260    1.000
    N13      N        0.37510    0.46430    0.87430    1.000
    H19      H        0.31580    0.47240    0.81820    1.000
    H20      H        0.41330    0.50730    0.90700    1.000
    C19      C        0.47220    0.22510    0.97190    1.000
    N14      N        0.34460    0.31970    0.85600    1.000
    N15      N        0.52780    0.15060    0.01840    1.000
    C20      C        0.52960    0.29670    0.02300    1.000
    C21      C        0.70480    0.31780    0.19020    1.000
    H21      H        0.67590    0.36550    0.25340    1.000
    H22      H        0.74460    0.28280    0.27600    1.000
    C22      C        0.40780    0.38540    0.91050    1.000
    C23      C        0.61320    0.18060    0.09940    1.000
    H23      H        0.66560    0.14500    0.14690    1.000
    C24      C        0.37670    0.24100    0.88260    1.000
    H24      H        0.33530    0.19550    0.84140    1.000
    O9       O        0.58990    0.00890    0.77520    1.000
    O10      O        0.16880    0.45900    0.23390    1.000
    O11      O        0.06190    0.42890    0.44200    1.000
    N16      N        0.38020    0.26700    0.39100    1.000
    N17      N        0.49750    0.37750    0.50090    1.000
    C25      C        0.22180    0.35230    0.44700    1.000
    H25      H        0.26300    0.37870    0.54390    1.000
    H26      H        0.18350    0.30500    0.49540    1.000
    C26      C        0.14480    0.41730    0.36740    1.000
    N18      N        0.62490    0.46430    0.62570    1.000
    H27      H        0.68420    0.47240    0.68180    1.000
    H28      H        0.58670    0.50730    0.59300    1.000
    C27      C        0.52780    0.22510    0.52810    1.000
    N19      N        0.65540    0.31970    0.64400    1.000
    N20      N        0.47220    0.15060    0.48160    1.000
    C28      C        0.47040    0.29670    0.47700    1.000
    C29      C        0.29520    0.31780    0.30980    1.000
    H29      H        0.32410    0.36550    0.24660    1.000
    H30      H        0.25540    0.28280    0.22400    1.000
    C30      C        0.59220    0.38540    0.58950    1.000
    C31      C        0.38680    0.18060    0.40060    1.000
    H31      H        0.33440    0.14500    0.35310    1.000
    C32      C        0.62330    0.24100    0.61740    1.000
    H32      H        0.66470    0.19550    0.65860    1.000
    O12      O        0.41010    0.00890    0.72480    1.000
    Cd1      Cd       0.00000    0.45889    0.75000    1.000
    Cd2      Cd       0.00000    0.54111    0.25000    1.000
    Cd3      Cd       0.50000    0.00000    0.00000    1.000
    Cd4      Cd       0.50000    0.00000    0.50000    1.000
