# CIF file generated by openbabel 3.1.0, see https://openbabel.org
data_I
_chemical_name_common 'image0'
_cell_length_a 12.3096
_cell_length_b 11.757
_cell_length_c 12.6334
_cell_angle_alpha 90
_cell_angle_beta 98.103
_cell_angle_gamma 90
_space_group_name_H-M_alt 'P 1'
_space_group_name_Hall 'P 1'
loop_
    _symmetry_equiv_pos_as_xyz
    x,y,z
loop_
    _atom_site_label
    _atom_site_type_symbol
    _atom_site_fract_x
    _atom_site_fract_y
    _atom_site_fract_z
    _atom_site_occupancy
    P1       P        0.23219    0.25000    0.09970    1.000
    P2       P        0.06250    0.66730    0.11398    1.000
    P3       P        0.42871    0.33890    0.36280    1.000
    P4       P        0.32636    0.70580    0.36496    1.000
    V1       V        0.69618    0.29947    0.38101    1.000
    V2       V        0.17851    0.25670    0.33940    1.000
    V3       V        0.26388    0.50490    0.20800    1.000
    O1       O        0.39770    0.42390    0.27450    1.000
    O2       O        0.26280    0.59640    0.33800    1.000
    O3       O        0.11250    0.55760    0.16090    1.000
    O4       O        0.53570    0.27990    0.35560    1.000
    O5       O        0.17110    0.38900    0.30360    1.000
    O6       O        0.32460    0.59590    0.14290    1.000
    O7       O        0.30410    0.79360    0.27930    1.000
    O8       O        0.34120    0.24830    0.36740    1.000
    O9       O        0.30290    0.75270    0.46950    1.000
    O10      O        0.23950    0.37950    0.10300    1.000
    O11      O        0.14280    0.75740    0.09670    1.000
    O12      O        0.97830    0.71110    0.18130    1.000
    O13      O        0.17810    0.19990    0.18930    1.000
    O14      O        0.17150    0.21300    0.99160    1.000
    O15      O        0.43650    0.41160    0.46690    1.000
    H1       H        0.40870    0.37660    0.51240    1.000
    O16      O        0.44720    0.68700    0.36200    1.000
    H2       H        0.47480    0.65660    0.41800    1.000
    O17      O        0.01620    0.65100    0.99800    1.000
    H3       H        0.95830    0.68640    0.98460    1.000
    O18      O        0.34900    0.19800    0.12300    1.000
    H4       H        0.36450    0.16770    0.06830    1.000
    P5       P        0.76781    0.75000    0.40030    1.000
    P6       P        0.93750    0.16730    0.38602    1.000
    P7       P        0.57129    0.83890    0.13720    1.000
    P8       P        0.67364    0.20580    0.13504    1.000
    V4       V        0.30382    0.79947    0.11899    1.000
    V5       V        0.82149    0.75670    0.16060    1.000
    V6       V        0.73612    0.00490    0.29200    1.000
    O19      O        0.60230    0.92390    0.22550    1.000
    O20      O        0.73720    0.09640    0.16200    1.000
    O21      O        0.88750    0.05760    0.33910    1.000
    O22      O        0.46430    0.77990    0.14440    1.000
    O23      O        0.82890    0.88900    0.19640    1.000
    O24      O        0.67540    0.09590    0.35710    1.000
    O25      O        0.69590    0.29360    0.22070    1.000
    O26      O        0.65880    0.74830    0.13260    1.000
    O27      O        0.69710    0.25270    0.03050    1.000
    O28      O        0.76050    0.87950    0.39700    1.000
    O29      O        0.85720    0.25740    0.40330    1.000
    O30      O        0.02170    0.21110    0.31870    1.000
    O31      O        0.82190    0.69990    0.31070    1.000
    O32      O        0.82850    0.71300    0.50840    1.000
    O33      O        0.56350    0.91160    0.03310    1.000
    H5       H        0.59130    0.87660    0.98760    1.000
    O34      O        0.55280    0.18700    0.13800    1.000
    H6       H        0.52520    0.15660    0.08200    1.000
    O35      O        0.98380    0.15100    0.50200    1.000
    H7       H        0.04170    0.18640    0.51540    1.000
    O36      O        0.65100    0.69800    0.37700    1.000
    H8       H        0.63550    0.66770    0.43170    1.000
    P9       P        0.76781    0.75000    0.90030    1.000
    P10      P        0.93750    0.33270    0.88602    1.000
    P11      P        0.57129    0.66110    0.63720    1.000
    P12      P        0.67364    0.29420    0.63504    1.000
    V7       V        0.30382    0.70053    0.61899    1.000
    V8       V        0.82149    0.74330    0.66060    1.000
    V9       V        0.73612    0.49510    0.79200    1.000
    O37      O        0.60230    0.57610    0.72550    1.000
    O38      O        0.73720    0.40360    0.66200    1.000
    O39      O        0.88750    0.44240    0.83910    1.000
    O40      O        0.46430    0.72010    0.64440    1.000
    O41      O        0.82890    0.61100    0.69640    1.000
    O42      O        0.67540    0.40410    0.85710    1.000
    O43      O        0.69590    0.20640    0.72070    1.000
    O44      O        0.65880    0.75170    0.63260    1.000
    O45      O        0.69710    0.24730    0.53050    1.000
    O46      O        0.76050    0.62050    0.89700    1.000
    O47      O        0.85720    0.24260    0.90330    1.000
    O48      O        0.02170    0.28890    0.81870    1.000
    O49      O        0.82190    0.80010    0.81070    1.000
    O50      O        0.82850    0.78700    0.00840    1.000
    O51      O        0.56350    0.58840    0.53310    1.000
    H9       H        0.59130    0.62340    0.48760    1.000
    O52      O        0.55280    0.31300    0.63800    1.000
    H10      H        0.52520    0.34340    0.58200    1.000
    O53      O        0.98380    0.34900    0.00200    1.000
    H11      H        0.04170    0.31360    0.01540    1.000
    O54      O        0.65100    0.80200    0.87700    1.000
    H12      H        0.63550    0.83230    0.93170    1.000
    P13      P        0.23219    0.25000    0.59970    1.000
    P14      P        0.06250    0.83270    0.61398    1.000
    P15      P        0.42871    0.16110    0.86280    1.000
    P16      P        0.32636    0.79420    0.86496    1.000
    V10      V        0.69618    0.20053    0.88101    1.000
    V11      V        0.17851    0.24330    0.83940    1.000
    V12      V        0.26388    0.99510    0.70800    1.000
    O55      O        0.39770    0.07610    0.77450    1.000
    O56      O        0.26280    0.90360    0.83800    1.000
    O57      O        0.11250    0.94240    0.66090    1.000
    O58      O        0.53570    0.22010    0.85560    1.000
    O59      O        0.17110    0.11100    0.80360    1.000
    O60      O        0.32460    0.90410    0.64290    1.000
    O61      O        0.30410    0.70640    0.77930    1.000
    O62      O        0.34120    0.25170    0.86740    1.000
    O63      O        0.30290    0.74730    0.96950    1.000
    O64      O        0.23950    0.12050    0.60300    1.000
    O65      O        0.14280    0.74260    0.59670    1.000
    O66      O        0.97830    0.78890    0.68130    1.000
    O67      O        0.17810    0.30010    0.68930    1.000
    O68      O        0.17150    0.28700    0.49160    1.000
    O69      O        0.43650    0.08840    0.96690    1.000
    H13      H        0.40870    0.12340    0.01240    1.000
    O70      O        0.44720    0.81300    0.86200    1.000
    H14      H        0.47480    0.84340    0.91800    1.000
    O71      O        0.01620    0.84900    0.49800    1.000
    H15      H        0.95830    0.81360    0.48460    1.000
    O72      O        0.34900    0.30200    0.62300    1.000
    H16      H        0.36450    0.33230    0.56830    1.000
