# CIF file generated by openbabel 3.1.0, see https://openbabel.org
data_I
_chemical_name_common 'image0'
_cell_length_a 20.1049
_cell_length_b 12.7575
_cell_length_c 14.427
_cell_angle_alpha 90
_cell_angle_beta 90
_cell_angle_gamma 90
_space_group_name_H-M_alt 'P 1'
_space_group_name_Hall 'P 1'
loop_
    _symmetry_equiv_pos_as_xyz
    x,y,z
loop_
    _atom_site_label
    _atom_site_type_symbol
    _atom_site_fract_x
    _atom_site_fract_y
    _atom_site_fract_z
    _atom_site_occupancy
    Zn1      Zn       0.23262    0.70643    0.33937    1.000
    Zn2      Zn       0.26797    0.53213    0.17437    1.000
    N1       N        0.17100    0.56860    0.15690    1.000
    N2       N        0.27510    0.48860    0.30750    1.000
    N3       N        0.18370    0.16900    0.82620    1.000
    N4       N        0.06990    0.56550    0.08340    1.000
    O1       O        0.04740    0.36920    0.96190    1.000
    C1       C        0.07020    0.64040    0.15450    1.000
    N5       N        0.25540    0.55940    0.37390    1.000
    N6       N        0.19890    0.23770    0.75790    1.000
    O2       O        0.26600    0.34550    0.59320    1.000
    O3       O        0.30500    0.23350    0.49290    1.000
    C2       C        0.13970    0.21370    0.88260    1.000
    H1       H        0.12130    0.18230    0.93480    1.000
    C3       C        0.25700    0.50860    0.45590    1.000
    H2       H        0.24610    0.53830    0.51280    1.000
    C4       C        0.27720    0.40690    0.44330    1.000
    C5       C        0.12980    0.63950    0.19790    1.000
    C6       C        0.16490    0.32340    0.77410    1.000
    H3       H        0.16740    0.38320    0.73740    1.000
    C7       C        0.08120    0.39660    0.89170    1.000
    N7       N        0.14430    0.70070    0.27230    1.000
    C8       C        0.13290    0.52480    0.09020    1.000
    H4       H        0.14820    0.47140    0.05190    1.000
    N8       N        0.96210    0.72580    0.13880    1.000
    H5       H        0.93500    0.77410    0.15610    1.000
    H6       H        0.95220    0.68620    0.09250    1.000
    C9       C        0.12530    0.31510    0.85130    1.000
    C10      C        0.09440    0.76300    0.29620    1.000
    H7       H        0.10150    0.80480    0.34810    1.000
    O4       O        0.07960    0.48160    0.86260    1.000
    C11      C        0.28660    0.39970    0.35080    1.000
    H8       H        0.29970    0.33850    0.32090    1.000
    C12      C        0.02100    0.71200    0.18470    1.000
    N9       N        0.03500    0.77330    0.25500    1.000
    C13      C        0.28360    0.32510    0.51070    1.000
    Zn3      Zn       0.76738    0.29357    0.33937    1.000
    Zn4      Zn       0.73203    0.46787    0.17437    1.000
    N10      N        0.82900    0.43140    0.15690    1.000
    N11      N        0.72490    0.51140    0.30750    1.000
    N12      N        0.81630    0.83100    0.82620    1.000
    N13      N        0.93010    0.43450    0.08340    1.000
    O5       O        0.95260    0.63080    0.96190    1.000
    C14      C        0.92980    0.35960    0.15450    1.000
    N14      N        0.74460    0.44060    0.37390    1.000
    N15      N        0.80110    0.76230    0.75790    1.000
    O6       O        0.73400    0.65450    0.59320    1.000
    O7       O        0.69500    0.76650    0.49290    1.000
    C15      C        0.86030    0.78630    0.88260    1.000
    H9       H        0.87870    0.81770    0.93480    1.000
    C16      C        0.74300    0.49140    0.45590    1.000
    H10      H        0.75390    0.46170    0.51280    1.000
    C17      C        0.72280    0.59310    0.44330    1.000
    C18      C        0.87020    0.36050    0.19790    1.000
    C19      C        0.83510    0.67660    0.77410    1.000
    H11      H        0.83260    0.61680    0.73740    1.000
    C20      C        0.91880    0.60340    0.89170    1.000
    N16      N        0.85570    0.29930    0.27230    1.000
    C21      C        0.86710    0.47520    0.09020    1.000
    H12      H        0.85180    0.52860    0.05190    1.000
    N17      N        0.03790    0.27420    0.13880    1.000
    H13      H        0.06500    0.22590    0.15610    1.000
    H14      H        0.04780    0.31380    0.09250    1.000
    C22      C        0.87470    0.68490    0.85130    1.000
    C23      C        0.90560    0.23700    0.29620    1.000
    H15      H        0.89850    0.19520    0.34810    1.000
    O8       O        0.92040    0.51840    0.86260    1.000
    C24      C        0.71340    0.60030    0.35080    1.000
    H16      H        0.70030    0.66150    0.32090    1.000
    C25      C        0.97900    0.28800    0.18470    1.000
    N18      N        0.96500    0.22670    0.25500    1.000
    C26      C        0.71640    0.67490    0.51070    1.000
    Zn5      Zn       0.26738    0.20643    0.66063    1.000
    Zn6      Zn       0.23203    0.03213    0.82563    1.000
    N19      N        0.32900    0.06860    0.84310    1.000
    N20      N        0.22490    0.98860    0.69250    1.000
    N21      N        0.31630    0.66900    0.17380    1.000
    N22      N        0.43010    0.06550    0.91660    1.000
    O9       O        0.45260    0.86920    0.03810    1.000
    C27      C        0.42980    0.14040    0.84550    1.000
    N23      N        0.24460    0.05940    0.62610    1.000
    N24      N        0.30110    0.73770    0.24210    1.000
    O10      O        0.23400    0.84550    0.40680    1.000
    O11      O        0.19500    0.73350    0.50710    1.000
    C28      C        0.36030    0.71370    0.11740    1.000
    H17      H        0.37870    0.68230    0.06520    1.000
    C29      C        0.24300    0.00860    0.54410    1.000
    H18      H        0.25390    0.03830    0.48720    1.000
    C30      C        0.22280    0.90690    0.55670    1.000
    C31      C        0.37020    0.13950    0.80210    1.000
    C32      C        0.33510    0.82340    0.22590    1.000
    H19      H        0.33260    0.88320    0.26260    1.000
    C33      C        0.41880    0.89660    0.10830    1.000
    N25      N        0.35570    0.20070    0.72770    1.000
    C34      C        0.36710    0.02480    0.90980    1.000
    H20      H        0.35180    0.97140    0.94810    1.000
    N26      N        0.53790    0.22580    0.86120    1.000
    H21      H        0.56500    0.27410    0.84390    1.000
    H22      H        0.54780    0.18620    0.90750    1.000
    C35      C        0.37470    0.81510    0.14870    1.000
    C36      C        0.40560    0.26300    0.70380    1.000
    H23      H        0.39850    0.30480    0.65190    1.000
    O12      O        0.42040    0.98160    0.13740    1.000
    C37      C        0.21340    0.89970    0.64920    1.000
    H24      H        0.20030    0.83850    0.67910    1.000
    C38      C        0.47900    0.21200    0.81530    1.000
    N27      N        0.46500    0.27330    0.74500    1.000
    C39      C        0.21640    0.82510    0.48930    1.000
    Zn7      Zn       0.73262    0.79357    0.66063    1.000
    Zn8      Zn       0.76797    0.96787    0.82563    1.000
    N28      N        0.67100    0.93140    0.84310    1.000
    N29      N        0.77510    0.01140    0.69250    1.000
    N30      N        0.68370    0.33100    0.17380    1.000
    N31      N        0.56990    0.93450    0.91660    1.000
    O13      O        0.54740    0.13080    0.03810    1.000
    C40      C        0.57020    0.85960    0.84550    1.000
    N32      N        0.75540    0.94060    0.62610    1.000
    N33      N        0.69890    0.26230    0.24210    1.000
    O14      O        0.76600    0.15450    0.40680    1.000
    O15      O        0.80500    0.26650    0.50710    1.000
    C41      C        0.63970    0.28630    0.11740    1.000
    H25      H        0.62130    0.31770    0.06520    1.000
    C42      C        0.75700    0.99140    0.54410    1.000
    H26      H        0.74610    0.96170    0.48720    1.000
    C43      C        0.77720    0.09310    0.55670    1.000
    C44      C        0.62980    0.86050    0.80210    1.000
    C45      C        0.66490    0.17660    0.22590    1.000
    H27      H        0.66740    0.11680    0.26260    1.000
    C46      C        0.58120    0.10340    0.10830    1.000
    N34      N        0.64430    0.79930    0.72770    1.000
    C47      C        0.63290    0.97520    0.90980    1.000
    H28      H        0.64820    0.02860    0.94810    1.000
    N35      N        0.46210    0.77420    0.86120    1.000
    H29      H        0.43500    0.72590    0.84390    1.000
    H30      H        0.45220    0.81380    0.90750    1.000
    C48      C        0.62530    0.18490    0.14870    1.000
    C49      C        0.59440    0.73700    0.70380    1.000
    H31      H        0.60150    0.69520    0.65190    1.000
    O16      O        0.57960    0.01840    0.13740    1.000
    C50      C        0.78660    0.10030    0.64920    1.000
    H32      H        0.79970    0.16150    0.67910    1.000
    C51      C        0.52100    0.78800    0.81530    1.000
    N36      N        0.53500    0.72670    0.74500    1.000
    C52      C        0.78360    0.17490    0.48930    1.000
    Zn9      Zn       0.00000    0.50000    0.99806    1.000
    Zn10     Zn       0.50000    0.00000    0.00194    1.000
