data_functionalizedCrystal
_audit_creation_method	'EQeq! by Chris Wilmer'
_symmetry_space_group_name_H-M	'P1'
_symmetry_Int_Tables_number	1
_symmetry_cell_setting	triclinic
loop_
_symmetry_equiv_pos_as_xyz
  x,y,z
_cell_length_a	10.578
_cell_length_b	10.578
_cell_length_c	10.578
_cell_angle_alpha	90
_cell_angle_beta	90
_cell_angle_gamma	90
loop_
_atom_site_label
_atom_site_type_symbol
_atom_site_fract_x
_atom_site_fract_y
_atom_site_fract_z
_atom_site_charge
Mof_N 	N 	0.8499	0.9509	0.7618	-0.164
Mof_C 	C 	0.7686	0.8663	0.6835	0.003
Mof_C 	C 	0.9714	0.8848	0.7859	0.03
Mof_H 	H 	0.811	0.846	0.605	0.009
Mof_H 	H 	0.69	0.909	0.675	0.011
Mof_H 	H 	0.016	0.877	0.7	-0.013
Mof_H 	H 	0.028	0.94	0.842	-0.005
Mof_N 	N 	0.6501	0.0491	0.2618	-0.162
Mof_C 	C 	0.7314	0.1337	0.1835	0.003
Mof_C 	C 	0.5286	0.1152	0.2859	0.025
Mof_H 	H 	0.689	0.154	0.105	0.009
Mof_H 	H 	0.81	0.091	0.175	0.011
Mof_H 	H 	0.484	0.123	0.2	-0.01
Mof_H 	H 	0.472	0.06	0.342	-0.002
Mof_N 	N 	0.1501	0.4509	0.7382	-0.162
Mof_C 	C 	0.2314	0.3663	0.8165	0.003
Mof_C 	C 	0.0286	0.3848	0.7141	0.026
Mof_H 	H 	0.189	0.346	0.895	0.008
Mof_H 	H 	0.31	0.409	0.825	0.01
Mof_H 	H 	0.984	0.377	0.8	-0.011
Mof_H 	H 	0.972	0.44	0.658	-0.003
Mof_N 	N 	0.3499	0.5491	0.2382	-0.162
Mof_C 	C 	0.2686	0.6337	0.3165	0.003
Mof_C 	C 	0.4714	0.6152	0.2141	0.025
Mof_H 	H 	0.311	0.654	0.395	0.008
Mof_H 	H 	0.19	0.591	0.325	0.011
Mof_H 	H 	0.516	0.623	0.3	-0.011
Mof_H 	H 	0.528	0.56	0.158	-0.002
Mof_N 	N 	0.7618	0.8499	0.9509	-0.163
Mof_C 	C 	0.6835	0.7686	0.8663	0.003
Mof_C 	C 	0.7859	0.9714	0.8848	0.03
Mof_H 	H 	0.605	0.811	0.846	0.009
Mof_H 	H 	0.675	0.69	0.909	0.011
Mof_H 	H 	0.7	0.016	0.877	-0.013
Mof_H 	H 	0.842	0.028	0.94	-0.005
Mof_N 	N 	0.2618	0.6501	0.0491	-0.162
Mof_C 	C 	0.1835	0.7314	0.1337	0.003
Mof_C 	C 	0.2859	0.5286	0.1152	0.025
Mof_H 	H 	0.105	0.689	0.154	0.009
Mof_H 	H 	0.175	0.81	0.091	0.011
Mof_H 	H 	0.2	0.484	0.123	-0.01
Mof_H 	H 	0.342	0.472	0.06	-0.002
Mof_N 	N 	0.7382	0.1501	0.4509	-0.162
Mof_C 	C 	0.8165	0.2314	0.3663	0.003
Mof_C 	C 	0.7141	0.0286	0.3848	0.026
Mof_H 	H 	0.895	0.189	0.346	0.008
Mof_H 	H 	0.825	0.31	0.409	0.01
Mof_H 	H 	0.8	0.984	0.377	-0.011
Mof_H 	H 	0.658	0.972	0.44	-0.003
Mof_N 	N 	0.2382	0.3499	0.5491	-0.162
Mof_C 	C 	0.3165	0.2686	0.6337	0.003
Mof_C 	C 	0.2141	0.4714	0.6152	0.025
Mof_H 	H 	0.395	0.311	0.654	0.008
Mof_H 	H 	0.325	0.19	0.591	0.011
Mof_H 	H 	0.3	0.516	0.623	-0.011
Mof_H 	H 	0.158	0.528	0.56	-0.002
Mof_N 	N 	0.9509	0.7618	0.8499	-0.163
Mof_C 	C 	0.8663	0.6835	0.7686	0.003
Mof_C 	C 	0.8848	0.7859	0.9714	0.03
Mof_H 	H 	0.846	0.605	0.811	0.009
Mof_H 	H 	0.909	0.675	0.69	0.011
Mof_H 	H 	0.877	0.7	0.016	-0.013
Mof_H 	H 	0.94	0.842	0.028	-0.005
Mof_N 	N 	0.0491	0.2618	0.6501	-0.162
Mof_C 	C 	0.1337	0.1835	0.7314	0.003
Mof_C 	C 	0.1152	0.2859	0.5286	0.025
Mof_H 	H 	0.154	0.105	0.689	0.009
Mof_H 	H 	0.091	0.175	0.81	0.011
Mof_H 	H 	0.123	0.2	0.484	-0.01
Mof_H 	H 	0.06	0.342	0.472	-0.002
Mof_N 	N 	0.4509	0.7382	0.1501	-0.162
Mof_C 	C 	0.3663	0.8165	0.2314	0.003
Mof_C 	C 	0.3848	0.7141	0.0286	0.026
Mof_H 	H 	0.346	0.895	0.189	0.008
Mof_H 	H 	0.409	0.825	0.31	0.01
Mof_H 	H 	0.377	0.8	0.984	-0.011
Mof_H 	H 	0.44	0.658	0.972	-0.003
Mof_N 	N 	0.5491	0.2382	0.3499	-0.162
Mof_C 	C 	0.6337	0.3165	0.2686	0.003
Mof_C 	C 	0.6152	0.2141	0.4714	0.025
Mof_H 	H 	0.654	0.395	0.311	0.008
Mof_H 	H 	0.591	0.325	0.19	0.011
Mof_H 	H 	0.623	0.3	0.516	-0.011
Mof_H 	H 	0.56	0.158	0.528	-0.002
Mof_Ag	Ag	0.87008	0.12992	0.62992	0.499
Mof_Ag	Ag	0.62992	0.87008	0.12992	0.499
Mof_Ag	Ag	0.12992	0.62992	0.87008	0.499
Mof_Ag	Ag	0.37008	0.37008	0.37008	0.501
Mof_N 	N 	0.7453	0.7453	0.7453	-0.116
Mof_N 	N 	0.7547	0.2547	0.2453	-0.116
Mof_N 	N 	0.2547	0.2453	0.7547	-0.116
Mof_N 	N 	0.2453	0.7547	0.2547	-0.116
_end
