# CIF file generated by openbabel 3.1.0, see https://openbabel.org
data_I
_chemical_name_common 'image0'
_cell_length_a 17.1625
_cell_length_b 15.8356
_cell_length_c 15.6712
_cell_angle_alpha 90
_cell_angle_beta 90
_cell_angle_gamma 90
_space_group_name_H-M_alt 'P 1'
_space_group_name_Hall 'P 1'
loop_
    _symmetry_equiv_pos_as_xyz
    x,y,z
loop_
    _atom_site_label
    _atom_site_type_symbol
    _atom_site_fract_x
    _atom_site_fract_y
    _atom_site_fract_z
    _atom_site_occupancy
    Tb1      Tb       0.59614    0.95391    0.95706    1.000
    O1       O        0.64740    0.09880    0.94810    1.000
    O2       O        0.52960    0.08610    0.99820    1.000
    O3       O        0.59770    0.79880    0.00240    1.000
    O4       O        0.55240    0.82210    0.87490    1.000
    O5       O        0.73310    0.93000    0.97330    1.000
    O6       O        0.69140    0.94600    0.84170    1.000
    O7       O        0.60170    0.96570    0.10930    1.000
    C1       C        0.74570    0.93360    0.89410    1.000
    C2       C        0.82880    0.92780    0.86290    1.000
    C3       C        0.88640    0.89410    0.91750    1.000
    C4       C        0.84780    0.95260    0.78140    1.000
    C5       C        0.96320    0.89020    0.88940    1.000
    C6       C        0.92380    0.95010    0.75450    1.000
    C7       C        0.02450    0.84960    0.94570    1.000
    C8       C        0.98250    0.91980    0.80990    1.000
    C9       C        0.94950    0.97370    0.66540    1.000
    C10      C        0.08830    0.89790    0.97200    1.000
    C11      C        0.02180    0.76540    0.96400    1.000
    O8       O        0.01730    0.00040    0.65570    1.000
    C12      C        0.14670    0.86060    0.02060    1.000
    C13      C        0.08400    0.72550    0.00920    1.000
    C14      C        0.95030    0.71180    0.94430    1.000
    C15      C        0.14350    0.77490    0.03740    1.000
    C16      C        0.08850    0.63250    0.02360    1.000
    Tb2      Tb       0.90386    0.54609    0.95706    1.000
    O9       O        0.85260    0.40120    0.94810    1.000
    O10      O        0.97040    0.41390    0.99820    1.000
    O11      O        0.90230    0.70120    0.00240    1.000
    O12      O        0.94760    0.67790    0.87490    1.000
    O13      O        0.76690    0.57000    0.97330    1.000
    O14      O        0.80860    0.55400    0.84170    1.000
    O15      O        0.89830    0.53430    0.10930    1.000
    C17      C        0.75430    0.56640    0.89410    1.000
    C18      C        0.67120    0.57220    0.86290    1.000
    C19      C        0.61360    0.60590    0.91750    1.000
    C20      C        0.65220    0.54740    0.78140    1.000
    C21      C        0.53680    0.60980    0.88940    1.000
    C22      C        0.57620    0.54990    0.75450    1.000
    C23      C        0.47550    0.65040    0.94570    1.000
    C24      C        0.51750    0.58020    0.80990    1.000
    C25      C        0.55050    0.52630    0.66540    1.000
    C26      C        0.41170    0.60210    0.97200    1.000
    C27      C        0.47820    0.73460    0.96400    1.000
    O16      O        0.48270    0.49960    0.65570    1.000
    C28      C        0.35330    0.63940    0.02060    1.000
    C29      C        0.41600    0.77450    0.00920    1.000
    C30      C        0.54970    0.78820    0.94430    1.000
    C31      C        0.35650    0.72510    0.03740    1.000
    C32      C        0.41150    0.86750    0.02360    1.000
    Tb3      Tb       0.40386    0.45391    0.54294    1.000
    O17      O        0.35260    0.59880    0.55190    1.000
    O18      O        0.47040    0.58610    0.50180    1.000
    O19      O        0.40230    0.29880    0.49760    1.000
    O20      O        0.44760    0.32210    0.62510    1.000
    O21      O        0.26690    0.43000    0.52670    1.000
    O22      O        0.30860    0.44600    0.65830    1.000
    O23      O        0.39830    0.46570    0.39070    1.000
    C33      C        0.25430    0.43360    0.60590    1.000
    C34      C        0.17120    0.42780    0.63710    1.000
    C35      C        0.11360    0.39410    0.58250    1.000
    C36      C        0.15220    0.45260    0.71860    1.000
    C37      C        0.03680    0.39020    0.61060    1.000
    C38      C        0.07620    0.45010    0.74550    1.000
    C39      C        0.97550    0.34960    0.55430    1.000
    C40      C        0.01750    0.41980    0.69010    1.000
    C41      C        0.05050    0.47370    0.83460    1.000
    C42      C        0.91170    0.39790    0.52800    1.000
    C43      C        0.97820    0.26540    0.53600    1.000
    O24      O        0.98270    0.50040    0.84430    1.000
    C44      C        0.85330    0.36060    0.47940    1.000
    C45      C        0.91600    0.22550    0.49080    1.000
    C46      C        0.04970    0.21180    0.55570    1.000
    C47      C        0.85650    0.27490    0.46260    1.000
    C48      C        0.91150    0.13250    0.47640    1.000
    Tb4      Tb       0.09614    0.04609    0.54294    1.000
    O25      O        0.14740    0.90120    0.55190    1.000
    O26      O        0.02960    0.91390    0.50180    1.000
    O27      O        0.09770    0.20120    0.49760    1.000
    O28      O        0.05240    0.17790    0.62510    1.000
    O29      O        0.23310    0.07000    0.52670    1.000
    O30      O        0.19140    0.05400    0.65830    1.000
    O31      O        0.10170    0.03430    0.39070    1.000
    C49      C        0.24570    0.06640    0.60590    1.000
    C50      C        0.32880    0.07220    0.63710    1.000
    C51      C        0.38640    0.10590    0.58250    1.000
    C52      C        0.34780    0.04740    0.71860    1.000
    C53      C        0.46320    0.10980    0.61060    1.000
    C54      C        0.42380    0.04990    0.74550    1.000
    C55      C        0.52450    0.15040    0.55430    1.000
    C56      C        0.48250    0.08020    0.69010    1.000
    C57      C        0.44950    0.02630    0.83460    1.000
    C58      C        0.58830    0.10210    0.52800    1.000
    C59      C        0.52180    0.23460    0.53600    1.000
    O32      O        0.51730    0.99960    0.84430    1.000
    C60      C        0.64670    0.13940    0.47940    1.000
    C61      C        0.58400    0.27450    0.49080    1.000
    C62      C        0.45030    0.28820    0.55570    1.000
    C63      C        0.64350    0.22510    0.46260    1.000
    C64      C        0.58850    0.36750    0.47640    1.000
    Tb5      Tb       0.40386    0.04609    0.04294    1.000
    O33      O        0.35260    0.90120    0.05190    1.000
    O34      O        0.47040    0.91390    0.00180    1.000
    O35      O        0.40230    0.20120    0.99760    1.000
    O36      O        0.44760    0.17790    0.12510    1.000
    O37      O        0.26690    0.07000    0.02670    1.000
    O38      O        0.30860    0.05400    0.15830    1.000
    O39      O        0.39830    0.03430    0.89070    1.000
    C65      C        0.25430    0.06640    0.10590    1.000
    C66      C        0.17120    0.07220    0.13710    1.000
    C67      C        0.11360    0.10590    0.08250    1.000
    C68      C        0.15220    0.04740    0.21860    1.000
    C69      C        0.03680    0.10980    0.11060    1.000
    C70      C        0.07620    0.04990    0.24550    1.000
    C71      C        0.97550    0.15040    0.05430    1.000
    C72      C        0.01750    0.08020    0.19010    1.000
    C73      C        0.05050    0.02630    0.33460    1.000
    C74      C        0.91170    0.10210    0.02800    1.000
    C75      C        0.97820    0.23460    0.03600    1.000
    O40      O        0.98270    0.99960    0.34430    1.000
    C76      C        0.85330    0.13940    0.97940    1.000
    C77      C        0.91600    0.27450    0.99080    1.000
    C78      C        0.04970    0.28820    0.05570    1.000
    C79      C        0.85650    0.22510    0.96260    1.000
    C80      C        0.91150    0.36750    0.97640    1.000
    Tb6      Tb       0.09614    0.45391    0.04294    1.000
    O41      O        0.14740    0.59880    0.05190    1.000
    O42      O        0.02960    0.58610    0.00180    1.000
    O43      O        0.09770    0.29880    0.99760    1.000
    O44      O        0.05240    0.32210    0.12510    1.000
    O45      O        0.23310    0.43000    0.02670    1.000
    O46      O        0.19140    0.44600    0.15830    1.000
    O47      O        0.10170    0.46570    0.89070    1.000
    C81      C        0.24570    0.43360    0.10590    1.000
    C82      C        0.32880    0.42780    0.13710    1.000
    C83      C        0.38640    0.39410    0.08250    1.000
    C84      C        0.34780    0.45260    0.21860    1.000
    C85      C        0.46320    0.39020    0.11060    1.000
    C86      C        0.42380    0.45010    0.24550    1.000
    C87      C        0.52450    0.34960    0.05430    1.000
    C88      C        0.48250    0.41980    0.19010    1.000
    C89      C        0.44950    0.47370    0.33460    1.000
    C90      C        0.58830    0.39790    0.02800    1.000
    C91      C        0.52180    0.26540    0.03600    1.000
    O48      O        0.51730    0.50040    0.34430    1.000
    C92      C        0.64670    0.36060    0.97940    1.000
    C93      C        0.58400    0.22550    0.99080    1.000
    C94      C        0.45030    0.21180    0.05570    1.000
    C95      C        0.64350    0.27490    0.96260    1.000
    C96      C        0.58850    0.13250    0.97640    1.000
    Tb7      Tb       0.59614    0.54609    0.45706    1.000
    O49      O        0.64740    0.40120    0.44810    1.000
    O50      O        0.52960    0.41390    0.49820    1.000
    O51      O        0.59770    0.70120    0.50240    1.000
    O52      O        0.55240    0.67790    0.37490    1.000
    O53      O        0.73310    0.57000    0.47330    1.000
    O54      O        0.69140    0.55400    0.34170    1.000
    O55      O        0.60170    0.53430    0.60930    1.000
    C97      C        0.74570    0.56640    0.39410    1.000
    C98      C        0.82880    0.57220    0.36290    1.000
    C99      C        0.88640    0.60590    0.41750    1.000
    C100     C        0.84780    0.54740    0.28140    1.000
    C101     C        0.96320    0.60980    0.38940    1.000
    C102     C        0.92380    0.54990    0.25450    1.000
    C103     C        0.02450    0.65040    0.44570    1.000
    C104     C        0.98250    0.58020    0.30990    1.000
    C105     C        0.94950    0.52630    0.16540    1.000
    C106     C        0.08830    0.60210    0.47200    1.000
    C107     C        0.02180    0.73460    0.46400    1.000
    O56      O        0.01730    0.49960    0.15570    1.000
    C108     C        0.14670    0.63940    0.52060    1.000
    C109     C        0.08400    0.77450    0.50920    1.000
    C110     C        0.95030    0.78820    0.44430    1.000
    C111     C        0.14350    0.72510    0.53740    1.000
    C112     C        0.08850    0.86750    0.52360    1.000
    Tb8      Tb       0.90386    0.95391    0.45706    1.000
    O57      O        0.85260    0.09880    0.44810    1.000
    O58      O        0.97040    0.08610    0.49820    1.000
    O59      O        0.90230    0.79880    0.50240    1.000
    O60      O        0.94760    0.82210    0.37490    1.000
    O61      O        0.76690    0.93000    0.47330    1.000
    O62      O        0.80860    0.94600    0.34170    1.000
    O63      O        0.89830    0.96570    0.60930    1.000
    C113     C        0.75430    0.93360    0.39410    1.000
    C114     C        0.67120    0.92780    0.36290    1.000
    C115     C        0.61360    0.89410    0.41750    1.000
    C116     C        0.65220    0.95260    0.28140    1.000
    C117     C        0.53680    0.89020    0.38940    1.000
    C118     C        0.57620    0.95010    0.25450    1.000
    C119     C        0.47550    0.84960    0.44570    1.000
    C120     C        0.51750    0.91980    0.30990    1.000
    C121     C        0.55050    0.97370    0.16540    1.000
    C122     C        0.41170    0.89790    0.47200    1.000
    C123     C        0.47820    0.76540    0.46400    1.000
    O64      O        0.48270    0.00040    0.15570    1.000
    C124     C        0.35330    0.86060    0.52060    1.000
    C125     C        0.41600    0.72550    0.50920    1.000
    C126     C        0.54970    0.71180    0.44430    1.000
    C127     C        0.35650    0.77490    0.53740    1.000
    C128     C        0.41150    0.63250    0.52360    1.000
