data_functionalizedCrystal
_audit_creation_method	'EQeq! by Chris Wilmer'
_symmetry_space_group_name_H-M	'P1'
_symmetry_Int_Tables_number	1
_symmetry_cell_setting	triclinic
loop_
_symmetry_equiv_pos_as_xyz
  x,y,z
_cell_length_a	16.1796
_cell_length_b	19.1505
_cell_length_c	19.5848
_cell_angle_alpha	112.451
_cell_angle_beta	93.548
_cell_angle_gamma	104.215
loop_
_atom_site_label
_atom_site_type_symbol
_atom_site_fract_x
_atom_site_fract_y
_atom_site_fract_z
_atom_site_charge
Mof_Mn	Mn	0.42687	0.17709	0.82601	0.731
Mof_Mn	Mn	0.78585	0.11855	0.90655	0.881
Mof_Mn	Mn	0.61404	0.11289	0.78311	0.967
Mof_H 	H 	0.6883	0.5128	0.5978	0.261
Mof_H 	H 	0.6919	0.641	0.3689	0.266
Mof_H 	H 	0.9811	0.2872	0.4354	0.307
Mof_H 	H 	0.5109	0.308	0.3076	0.305
Mof_H 	H 	0.7705	0.6653	0.4595	-0.023
Mof_H 	H 	0.1663	0.5144	0.4036	0.298
Mof_H 	H 	0.0546	0.1698	0.1201	-0.021
Mof_H 	H 	0.7309	0.5988	0.6051	0.261
Mof_H 	H 	0.9184	0.3352	0.2759	0.14
Mof_H 	H 	0.9434	0.3058	0.5101	0.299
Mof_H 	H 	0.4848	0.3112	0.3842	0.303
Mof_H 	H 	0.121	0.2498	0.2399	0.138
Mof_H 	H 	0.0739	0.3358	0.6279	-0.037
Mof_H 	H 	0.0481	0.3302	0.7481	0.125
Mof_H 	H 	0.2796	0.6264	0.6493	-0.015
Mof_H 	H 	0.8658	0.2705	0.1489	-0.026
Mof_H 	H 	0.2564	0.943	0.7122	-0.023
Mof_H 	H 	0.6195	0.9209	0.648	-0.013
Mof_H 	H 	0.4854	0.385	0.4989	-0.006
Mof_H 	H 	0.5172	0.2829	0.9956	-0.063
Mof_H 	H 	0.2771	0.6211	0.5671	-0.018
Mof_H 	H 	0.4632	0.864	0.6913	-0.025
Mof_H 	H 	0.2235	0.5329	0.7239	0.313
Mof_H 	H 	0.461	0.2864	0.6792	-0.025
Mof_H 	H 	0.8204	0.7802	0.6203	0.131
Mof_H 	H 	0.6351	0.574	0.6174	0.246
Mof_H 	H 	0.7256	0.5724	0.3169	0.248
Mof_H 	H 	0.9652	0.3648	0.393	-0.015
Mof_H 	H 	0.6498	0.1939	0.6058	0.002
Mof_H 	H 	0.2045	0.6079	0.7203	0.324
Mof_H 	H 	0.6814	0.257	0.1804	0.142
Mof_H 	H 	0.6308	0.5734	0.2966	0.253
Mof_H 	H 	0.2031	0.595	0.4738	0.306
Mof_H 	H 	0.4782	0.3571	0.6049	0.128
Mof_H 	H 	0.4977	0.3973	0.2482	-0.028
Mof_H 	H 	0.0244	0.274	0.5015	0.296
Mof_H 	H 	0.1663	0.8113	0.6615	0.132
Mof_H 	H 	0.6833	0.1835	0.0575	-0.034
Mof_H 	H 	0.5926	0.7992	0.5477	0.141
Mof_H 	H 	0.1105	0.4178	0.6973	-0.043
Mof_H 	H 	0.1051	0.566	0.4373	0.305
Mof_H 	H 	0.6682	0.2615	0.5245	0.122
Mof_H 	H 	0.8473	0.9019	0.7207	-0.015
Mof_H 	H 	0.0209	0.4358	0.3782	-0.019
Mof_H 	H 	0.8267	0.3564	0.6729	0.127
Mof_H 	H 	0.775	0.6631	0.5394	-0.021
Mof_H 	H 	0.5142	0.355	0.1208	0.133
Mof_H 	H 	0.4344	0.3416	0.3359	0.281
Mof_H 	H 	0.133	0.5467	0.7359	0.317
Mof_H 	H 	0.9726	0.2672	0.8151	-0.012
Mof_H 	H 	0.3747	0.7341	0.6418	0.142
Mof_H 	H 	0.5786	0.4577	0.2403	-0.032
Mof_H 	H 	0.7532	0.2931	0.7399	-0.011
Mof_H 	H 	0.5517	0.4518	0.5693	-0.017
Mof_C 	C 	0.9133	0.1703	0.0367	0.414
Mof_C 	C 	0.70385	0.77761	0.57405	0.289
Mof_C 	C 	0.2262	0.82178	0.6692	-0.291
Mof_C 	C 	0.1319	0.50704	0.5006	0.382
Mof_C 	C 	0.65975	0.8927	0.64245	0.162
Mof_C 	C 	0.56	0.42042	0.26262	0.158
Mof_C 	C 	0.0298	0.2071	0.15	0.184
Mof_C 	C 	0.5869	0.46093	0.34876	-0.278
Mof_C 	C 	0.6043	0.18018	0.93276	0.433
Mof_C 	C 	0.64365	0.81976	0.58234	-0.288
Mof_C 	C 	0.5531	0.41981	0.39134	0.359
Mof_C 	C 	0.9954	0.30677	0.48894	-0.897
Mof_C 	C 	0.6451	0.5291	0.50349	0.315
Mof_C 	C 	0.9889	0.3233	0.74621	-0.287
Mof_C 	C 	0.6152	0.2258	0.6048	0.123
Mof_C 	C 	0.5505	0.2332	0.65034	-0.204
Mof_C 	C 	0.0703	0.3895	0.65014	0.195
Mof_C 	C 	0.6754	0.5707	0.46058	-0.257
Mof_C 	C 	0.8567	0.3385	0.70174	-0.277
Mof_C 	C 	0.5998	0.316	0.16344	0.3
Mof_C 	C 	0.78015	0.8084	0.62587	-0.293
Mof_C 	C 	0.73605	0.92348	0.69427	-0.217
Mof_C 	C 	0.0931	0.43061	0.59669	-0.333
Mof_C 	C 	0.4035	0.854	0.6869	0.184
Mof_C 	C 	0.9164	0.2642	0.16756	0.189
Mof_C 	C 	0.5829	0.45514	0.46929	-0.265
Mof_C 	C 	0.5494	0.3218	0.10814	-0.321
Mof_C 	C 	0.2624	0.7609	0.65176	0.305
Mof_C 	C 	0.2423	0.6207	0.60561	0.173
Mof_C 	C 	0.6761	0.5856	0.33699	-0.777
Mof_C 	C 	0.8556	0.27317	0.78538	-0.201
Mof_C 	C 	0.6438	0.53698	0.3832	0.317
Mof_C 	C 	0.8124	0.3005	0.74199	0.155
Mof_C 	C 	0.9491	0.3055	0.24398	-0.314
Mof_C 	C 	0.6279	0.268	0.5565	-0.251
Mof_C 	C 	0.1718	0.54422	0.57755	-0.312
Mof_C 	C 	0.6489	0.2626	0.14299	-0.312
Mof_C 	C 	0.1536	0.54955	0.44903	-0.9
Mof_C 	C 	0.1469	0.5078	0.62592	0.413
Mof_C 	C 	0.8049	0.22794	0.82604	0.393
Mof_C 	C 	0.5131	0.325	0.60462	-0.272
Mof_C 	C 	0.5783	0.3179	0.5597	0.262
Mof_C 	C 	0.5507	0.278	0.03293	0.2
Mof_C 	C 	0.0274	0.3019	0.27167	0.305
Mof_C 	C 	0.0548	0.39132	0.52046	0.39
Mof_C 	C 	0.5461	0.4137	0.51815	0.142
Mof_C 	C 	0.7363	0.65469	0.4953	0.16
Mof_C 	C 	0.3504	0.77565	0.65739	-0.313
Mof_C 	C 	0.0673	0.2522	0.2226	-0.305
Mof_C 	C 	0.5402	0.191	0.7016	0.423
Mof_C 	C 	0.3692	0.9161	0.70927	-0.232
Mof_C 	C 	0.602	0.2269	0.0132	-0.262
Mof_C 	C 	0.0238	0.3945	0.39472	0.17
Mof_C 	C 	0.18	0.5529	0.70906	-0.953
Mof_C 	C 	0.6781	0.5563	0.58927	-0.768
Mof_C 	C 	0.49	0.3376	0.3511	-0.884
Mof_C 	C 	0.9541	0.2155	0.11905	-0.227
Mof_C 	C 	0.7489	0.0007	0.76083	0.413
Mof_C 	C 	0.6503	0.2187	0.06978	0.203
Mof_C 	C 	0.2806	0.9014	0.6994	0.168
Mof_C 	C 	0.4276	0.99941	0.74244	0.424
Mof_C 	C 	0.0733	0.43056	0.47339	-0.31
Mof_C 	C 	0.9455	0.3504	0.70377	0.293
Mof_C 	C 	0.79625	0.88134	0.68598	0.164
Mof_C 	C 	0.5031	0.2815	0.64889	0.156
Mof_C 	C 	0.9428	0.2852	0.7864	0.16
Mof_O 	O 	0.20481	0.68656	0.62541	-0.296
Mof_O 	O 	0.9454	0.12368	0.99336	-0.302
Mof_O 	O 	0.60484	0.35876	0.2396	-0.295
Mof_O 	O 	0.06802	0.34205	0.34539	-0.296
Mof_O 	O 	0.59665	0.35913	0.51567	-0.281
Mof_O 	O 	0.69871	0.04052	0.7628	-0.426
Mof_O 	O 	0.67942	0.70468	0.51529	-0.287
Mof_O 	O 	0.50874	0.00986	0.75041	-0.397
Mof_O 	O 	0.65584	0.13871	0.91574	-0.435
Mof_O 	O 	0.57993	0.14288	0.69396	-0.402
Mof_O 	O 	0.81264	0.02375	0.81222	-0.371
Mof_O 	O 	0.72357	0.2181	0.81817	-0.376
Mof_O 	O 	0.39299	0.05383	0.76061	-0.407
Mof_O 	O 	0.98272	0.38918	0.66282	-0.302
Mof_O 	O 	0.84771	0.18335	0.01727	-0.403
Mof_O 	O 	0.48937	0.20999	0.74903	-0.406
Mof_O 	O 	0.84562	0.20254	0.86305	-0.369
Mof_O 	O 	0.55536	0.18275	0.88222	-0.45
Mof_Mn	Mn	0.57313	0.82291	0.17399	0.73
Mof_Mn	Mn	0.38596	0.88711	0.21689	0.966
Mof_Mn	Mn	0.21415	0.88145	0.09345	0.88
Mof_H 	H 	0.9454	0.8302	0.8799	-0.021
Mof_H 	H 	0.5023	0.6027	0.7518	-0.028
Mof_H 	H 	0.7436	0.057	0.2878	-0.023
Mof_H 	H 	0.3649	0.426	0.3826	0.246
Mof_H 	H 	0.8949	0.434	0.5627	0.305
Mof_H 	H 	0.9756	0.726	0.4985	0.296
Mof_H 	H 	0.3186	0.743	0.8196	0.142
Mof_H 	H 	0.2744	0.4276	0.6831	0.248
Mof_H 	H 	0.3692	0.4266	0.7034	0.253
Mof_H 	H 	0.4828	0.7171	0.0044	-0.063
Mof_H 	H 	0.5368	0.136	0.3087	-0.025
Mof_H 	H 	0.0274	0.7328	0.1849	-0.012
Mof_H 	H 	0.1527	0.0981	0.2793	-0.015
Mof_H 	H 	0.4214	0.5423	0.7597	-0.032
Mof_H 	H 	0.0189	0.7128	0.5646	0.306
Mof_H 	H 	0.4858	0.645	0.8792	0.133
Mof_H 	H 	0.0566	0.6942	0.4899	0.299
Mof_H 	H 	0.9261	0.6642	0.3721	-0.037
Mof_H 	H 	0.879	0.7502	0.7601	0.138
Mof_H 	H 	0.9791	0.5642	0.6218	-0.019
Mof_H 	H 	0.2691	0.4012	0.3949	0.261
Mof_H 	H 	0.7765	0.4671	0.2761	0.313
Mof_H 	H 	0.8337	0.4856	0.5964	0.298
Mof_H 	H 	0.4483	0.5482	0.4307	-0.017
Mof_H 	H 	0.539	0.7136	0.3208	-0.025
Mof_H 	H 	0.1342	0.7295	0.8511	-0.026
Mof_H 	H 	0.5218	0.6429	0.3951	0.128
Mof_H 	H 	0.7969	0.405	0.5262	0.306
Mof_H 	H 	0.5656	0.6584	0.6641	0.281
Mof_H 	H 	0.7204	0.3736	0.3507	-0.015
Mof_H 	H 	0.3502	0.8061	0.3942	0.002
Mof_H 	H 	0.225	0.3369	0.4606	-0.021
Mof_H 	H 	0.4074	0.2008	0.4523	0.141
Mof_H 	H 	0.1796	0.2198	0.3797	0.131
Mof_H 	H 	0.3805	0.0791	0.352	-0.013
Mof_H 	H 	0.2295	0.3347	0.5405	-0.023
Mof_H 	H 	0.5152	0.6888	0.6158	0.303
Mof_H 	H 	0.3081	0.359	0.6311	0.265
Mof_H 	H 	0.6253	0.2659	0.3582	0.142
Mof_H 	H 	0.867	0.4533	0.2641	0.317
Mof_H 	H 	0.4891	0.692	0.6924	0.305
Mof_H 	H 	0.3117	0.4872	0.4022	0.26
Mof_H 	H 	0.7229	0.3789	0.4329	-0.018
Mof_H 	H 	0.5146	0.615	0.5011	-0.006
Mof_H 	H 	0.1733	0.6436	0.3271	0.127
Mof_H 	H 	0.8895	0.5822	0.3027	-0.043
Mof_H 	H 	0.0348	0.6352	0.607	-0.015
Mof_H 	H 	0.0816	0.6648	0.7241	0.14
Mof_H 	H 	0.3167	0.8165	0.9425	-0.034
Mof_H 	H 	0.3318	0.7385	0.4755	0.122
Mof_H 	H 	0.2468	0.7069	0.2601	-0.011
Mof_H 	H 	0.9519	0.6698	0.2519	0.125
Mof_H 	H 	0.8337	0.1887	0.3385	0.132
Mof_H 	H 	0.7955	0.3921	0.2797	0.324
Mof_C 	C 	0.51	0.6624	0.6489	-0.884
Mof_C 	C 	0.3957	0.81982	0.06724	0.433
Mof_C 	C 	0.0572	0.7148	0.2136	0.16
Mof_C 	C 	0.7376	0.2391	0.34824	0.305
Mof_C 	C 	0.4539	0.5863	0.48185	0.142
Mof_C 	C 	0.5965	0.146	0.3131	0.184
Mof_C 	C 	0.3497	0.7813	0.93022	0.203
Mof_C 	C 	0.0046	0.69323	0.51106	-0.897
Mof_C 	C 	0.9327	0.7478	0.7774	-0.305
Mof_C 	C 	0.3219	0.4437	0.41073	-0.768
Mof_C 	C 	0.8531	0.4922	0.37408	0.413
Mof_C 	C 	0.0459	0.7845	0.88095	-0.227
Mof_C 	C 	0.4869	0.675	0.39538	-0.272
Mof_C 	C 	0.398	0.7731	0.9868	-0.262
Mof_C 	C 	0.4002	0.684	0.83656	0.3
Mof_C 	C 	0.4969	0.7185	0.35111	0.156
Mof_C 	C 	0.0836	0.7358	0.83244	0.189
Mof_C 	C 	0.82	0.4471	0.29094	-0.953
Mof_C 	C 	0.7194	0.0986	0.3006	0.168
Mof_C 	C 	0.4495	0.7668	0.34966	-0.204
Mof_C 	C 	0.7577	0.3793	0.39439	0.173
Mof_C 	C 	0.8464	0.45045	0.55097	-0.9
Mof_C 	C 	0.2511	0.9993	0.23917	0.413
Mof_C 	C 	0.3246	0.4293	0.53942	-0.257
Mof_C 	C 	0.3848	0.7742	0.3952	0.123
Mof_C 	C 	0.21985	0.1916	0.37413	-0.293
Mof_C 	C 	0.6496	0.22435	0.34261	-0.313
Mof_C 	C 	0.0545	0.6496	0.29623	0.293
Mof_C 	C 	0.0509	0.6945	0.75602	-0.314
Mof_C 	C 	0.2637	0.34531	0.5047	0.16
Mof_C 	C 	0.1951	0.77206	0.17396	0.393
Mof_C 	C 	0.26395	0.07652	0.30573	-0.217
Mof_C 	C 	0.3239	0.4144	0.66301	-0.777
Mof_C 	C 	0.4131	0.53907	0.65124	-0.278
Mof_C 	C 	0.3562	0.46302	0.6168	0.317
Mof_C 	C 	0.9726	0.6981	0.72833	0.305
Mof_C 	C 	0.1876	0.6995	0.25801	0.155
Mof_C 	C 	0.9702	0.7929	0.85	0.184
Mof_C 	C 	0.0867	0.8297	0.9633	0.414
Mof_C 	C 	0.35635	0.18024	0.41766	-0.288
Mof_C 	C 	0.5724	0.00059	0.25756	0.424
Mof_C 	C 	0.3511	0.7374	0.85701	-0.312
Mof_C 	C 	0.29615	0.22239	0.42595	0.289
Mof_C 	C 	0.44	0.57958	0.73738	0.158
Mof_C 	C 	0.8282	0.45578	0.42245	-0.312
Mof_C 	C 	0.4493	0.722	0.96707	0.2
Mof_C 	C 	0.9762	0.6055	0.60528	0.17
Mof_C 	C 	0.8681	0.49296	0.4994	0.382
Mof_C 	C 	0.20375	0.11866	0.31402	0.164
Mof_C 	C 	0.9297	0.6105	0.34986	0.195
Mof_C 	C 	0.9452	0.60868	0.47954	0.39
Mof_C 	C 	0.0111	0.6767	0.25379	-0.287
Mof_C 	C 	0.3549	0.4709	0.49651	0.315
Mof_C 	C 	0.4598	0.809	0.2984	0.423
Mof_C 	C 	0.9069	0.56939	0.40331	-0.333
Mof_C 	C 	0.4171	0.54486	0.53071	-0.265
Mof_C 	C 	0.4469	0.58019	0.60866	0.359
Mof_C 	C 	0.3721	0.732	0.4435	-0.251
Mof_C 	C 	0.34025	0.1073	0.35755	0.162
Mof_C 	C 	0.7738	0.17822	0.3308	-0.291
Mof_C 	C 	0.4506	0.6782	0.89186	-0.321
Mof_C 	C 	0.1444	0.72683	0.21462	-0.201
Mof_C 	C 	0.6308	0.0839	0.29073	-0.232
Mof_C 	C 	0.9267	0.56944	0.52661	-0.31
Mof_C 	C 	0.1433	0.6615	0.29826	-0.277
Mof_C 	C 	0.4217	0.6821	0.4403	0.262
Mof_O 	O 	0.01728	0.61082	0.33718	-0.302
Mof_O 	O 	0.49126	0.99014	0.24959	-0.397
Mof_O 	O 	0.40335	0.64087	0.48433	-0.281
Mof_O 	O 	0.42007	0.85712	0.30604	-0.402
Mof_O 	O 	0.0546	0.87632	0.00664	-0.302
Mof_O 	O 	0.44464	0.81725	0.11778	-0.45
Mof_O 	O 	0.93198	0.65795	0.65461	-0.296
Mof_O 	O 	0.60701	0.94617	0.23939	-0.407
Mof_O 	O 	0.79519	0.31344	0.37459	-0.296
Mof_O 	O 	0.15438	0.79746	0.13695	-0.369
Mof_O 	O 	0.34416	0.86129	0.08426	-0.435
Mof_O 	O 	0.32058	0.29532	0.48471	-0.287
Mof_O 	O 	0.18736	0.97625	0.18778	-0.371
Mof_O 	O 	0.51063	0.79001	0.25097	-0.406
Mof_O 	O 	0.39516	0.64124	0.7604	-0.295
Mof_O 	O 	0.15229	0.81665	0.98273	-0.403
Mof_O 	O 	0.27643	0.7819	0.18183	-0.376
Mof_O 	O 	0.30129	0.95948	0.2372	-0.426
_end
