data_functionalizedCrystal
_audit_creation_method	'EQeq! by Chris Wilmer'
_symmetry_space_group_name_H-M	'P1'
_symmetry_Int_Tables_number	1
_symmetry_cell_setting	triclinic
loop_
_symmetry_equiv_pos_as_xyz
  x,y,z
_cell_length_a	17.709
_cell_length_b	17.709
_cell_length_c	11.523
_cell_angle_alpha	90
_cell_angle_beta	90
_cell_angle_gamma	90
loop_
_atom_site_label
_atom_site_type_symbol
_atom_site_fract_x
_atom_site_fract_y
_atom_site_fract_z
_atom_site_charge
Mof_Zn	Zn	0.25976	0.71064	0.10032	1.117
Mof_N 	N 	0.1938	0.6688	0.2273	-0.296
Mof_N 	N 	0.1889	0.6955	0.3397	-0.297
Mof_N 	N 	0.117	0.5939	0.3248	-0.319
Mof_C 	C 	0.0467	0.7116	0.531	-0.348
Mof_H 	H 	0.0334	0.7301	0.4555	0.099
Mof_H 	H 	0.057	0.7534	0.5816	0.075
Mof_H 	H 	0.0056	0.6825	0.5619	0.069
Mof_C 	C 	0.123	0.6574	0.5208	-0.283
Mof_H 	H 	0.1647	0.6802	0.5626	0.047
Mof_H 	H 	0.1131	0.6081	0.5542	0.069
Mof_C 	C 	0.1426	0.6496	0.3945	0.13
Mof_C 	C 	0.151	0.6082	0.2235	0.076
Mof_H 	H 	0.1449	0.5785	0.1576	-0.107
Mof_C 	C 	0.1864	0.6036	0.5884	-0.347
Mof_H 	H 	0.2221	0.5846	0.5329	0.078
Mof_H 	H 	0.1613	0.562	0.6254	0.067
Mof_H 	H 	0.2124	0.6331	0.6457	0.053
Mof_H 	H 	0.0721	0.6396	0.5358	0.069
Mof_H 	H 	0.127	0.7096	0.5457	0.058
Mof_Zn	Zn	0.75976	0.21064	0.60032	1.117
Mof_N 	N 	0.6938	0.1688	0.7273	-0.297
Mof_N 	N 	0.6889	0.1955	0.8397	-0.298
Mof_N 	N 	0.617	0.0939	0.8248	-0.32
Mof_C 	C 	0.5467	0.2116	0.031	-0.335
Mof_H 	H 	0.5334	0.2301	0.9555	0.091
Mof_H 	H 	0.557	0.2534	0.0816	0.07
Mof_H 	H 	0.5056	0.1825	0.0619	0.064
Mof_C 	C 	0.623	0.1574	0.0208	-0.277
Mof_H 	H 	0.6647	0.1802	0.0626	0.048
Mof_H 	H 	0.6131	0.1081	0.0542	0.069
Mof_C 	C 	0.6426	0.1496	0.8945	0.126
Mof_C 	C 	0.651	0.1082	0.7235	0.076
Mof_H 	H 	0.6449	0.0785	0.6576	-0.107
Mof_C 	C 	0.6864	0.1036	0.0884	-0.355
Mof_H 	H 	0.7221	0.0846	0.0329	0.083
Mof_H 	H 	0.6613	0.062	0.1254	0.071
Mof_H 	H 	0.7124	0.1331	0.1457	0.056
Mof_H 	H 	0.5721	0.1396	0.0358	0.067
Mof_H 	H 	0.627	0.2096	0.0457	0.055
Mof_Zn	Zn	0.24024	0.28936	0.60032	1.117
Mof_N 	N 	0.3062	0.3312	0.7273	-0.297
Mof_N 	N 	0.3111	0.3045	0.8397	-0.298
Mof_N 	N 	0.383	0.4061	0.8248	-0.32
Mof_C 	C 	0.4533	0.2884	0.031	-0.335
Mof_H 	H 	0.4666	0.2699	0.9555	0.091
Mof_H 	H 	0.443	0.2466	0.0816	0.07
Mof_H 	H 	0.4944	0.3175	0.0619	0.064
Mof_C 	C 	0.377	0.3426	0.0208	-0.284
Mof_H 	H 	0.3353	0.3198	0.0626	0.048
Mof_H 	H 	0.3869	0.3919	0.0542	0.069
Mof_C 	C 	0.3574	0.3504	0.8945	0.129
Mof_C 	C 	0.349	0.3918	0.7235	0.076
Mof_H 	H 	0.3551	0.4215	0.6576	-0.107
Mof_C 	C 	0.3136	0.3964	0.0884	-0.347
Mof_H 	H 	0.2779	0.4154	0.0329	0.079
Mof_H 	H 	0.3387	0.438	0.1254	0.067
Mof_H 	H 	0.2876	0.3669	0.1457	0.052
Mof_H 	H 	0.4279	0.3604	0.0358	0.068
Mof_H 	H 	0.373	0.2904	0.0457	0.057
Mof_Zn	Zn	0.74024	0.78936	0.10032	1.116
Mof_N 	N 	0.8062	0.8312	0.2273	-0.298
Mof_N 	N 	0.8111	0.8045	0.3397	-0.298
Mof_N 	N 	0.883	0.9061	0.3248	-0.321
Mof_C 	C 	0.9533	0.7884	0.531	-0.338
Mof_H 	H 	0.9666	0.7699	0.4555	0.092
Mof_H 	H 	0.943	0.7466	0.5816	0.07
Mof_H 	H 	0.9944	0.8175	0.5619	0.063
Mof_C 	C 	0.877	0.8426	0.5208	-0.286
Mof_H 	H 	0.8353	0.8198	0.5626	0.048
Mof_H 	H 	0.8869	0.8919	0.5542	0.069
Mof_C 	C 	0.8574	0.8504	0.3945	0.131
Mof_C 	C 	0.849	0.8918	0.2235	0.076
Mof_H 	H 	0.8551	0.9215	0.1576	-0.109
Mof_C 	C 	0.8136	0.8964	0.5884	-0.346
Mof_H 	H 	0.7779	0.9154	0.5329	0.078
Mof_H 	H 	0.8387	0.938	0.6254	0.066
Mof_H 	H 	0.7876	0.8669	0.6457	0.052
Mof_H 	H 	0.9279	0.8604	0.5358	0.068
Mof_H 	H 	0.873	0.7904	0.5457	0.057
Mof_Zn	Zn	0.03936	0.50976	0.35032	1.117
Mof_N 	N 	0.0812	0.4438	0.4773	-0.297
Mof_N 	N 	0.0545	0.4389	0.5897	-0.298
Mof_N 	N 	0.1561	0.367	0.5748	-0.32
Mof_C 	C 	0.0384	0.2967	0.781	-0.356
Mof_H 	H 	0.0199	0.2834	0.7055	0.099
Mof_H 	H 	0.9966	0.307	0.8316	0.077
Mof_H 	H 	0.0675	0.2556	0.8119	0.069
Mof_C 	C 	0.0926	0.373	0.7708	-0.279
Mof_H 	H 	0.0698	0.4147	0.8126	0.046
Mof_H 	H 	0.1419	0.3631	0.8042	0.067
Mof_C 	C 	0.1004	0.3926	0.6445	0.129
Mof_C 	C 	0.1418	0.401	0.4735	0.076
Mof_H 	H 	0.1715	0.3949	0.4076	-0.107
Mof_C 	C 	0.1464	0.4364	0.8384	-0.347
Mof_H 	H 	0.1654	0.4721	0.7829	0.079
Mof_H 	H 	0.188	0.4113	0.8754	0.067
Mof_H 	H 	0.1169	0.4624	0.8957	0.052
Mof_H 	H 	0.1104	0.3221	0.7858	0.069
Mof_H 	H 	0.0404	0.377	0.7957	0.057
Mof_Zn	Zn	0.53936	0.00976	0.85032	1.116
Mof_N 	N 	0.5812	0.9438	0.9773	-0.295
Mof_N 	N 	0.5545	0.9389	0.0897	-0.3
Mof_N 	N 	0.6561	0.867	0.0748	-0.323
Mof_C 	C 	0.5384	0.7967	0.281	-0.344
Mof_H 	H 	0.5199	0.7834	0.2055	0.095
Mof_H 	H 	0.4966	0.807	0.3316	0.072
Mof_H 	H 	0.5675	0.7556	0.3119	0.066
Mof_C 	C 	0.5926	0.873	0.2708	-0.285
Mof_H 	H 	0.5698	0.9147	0.3126	0.048
Mof_H 	H 	0.6419	0.8631	0.3042	0.069
Mof_C 	C 	0.6004	0.8926	0.1445	0.13
Mof_C 	C 	0.6418	0.901	0.9735	0.08
Mof_H 	H 	0.6715	0.8949	0.9076	-0.108
Mof_C 	C 	0.6464	0.9364	0.3384	-0.345
Mof_H 	H 	0.6654	0.9721	0.2829	0.077
Mof_H 	H 	0.688	0.9113	0.3754	0.066
Mof_H 	H 	0.6169	0.9624	0.3957	0.052
Mof_H 	H 	0.6104	0.8221	0.2858	0.069
Mof_H 	H 	0.5404	0.877	0.2957	0.058
Mof_Zn	Zn	0.46064	0.49024	0.85032	1.117
Mof_N 	N 	0.4188	0.5562	0.9773	-0.297
Mof_N 	N 	0.4455	0.5611	0.0897	-0.298
Mof_N 	N 	0.3439	0.633	0.0748	-0.321
Mof_C 	C 	0.4616	0.7033	0.281	-0.344
Mof_H 	H 	0.4801	0.7166	0.2055	0.095
Mof_H 	H 	0.5034	0.693	0.3316	0.072
Mof_H 	H 	0.4325	0.7444	0.3119	0.066
Mof_C 	C 	0.4074	0.627	0.2708	-0.285
Mof_H 	H 	0.4302	0.5853	0.3126	0.048
Mof_H 	H 	0.3581	0.6369	0.3042	0.069
Mof_C 	C 	0.3996	0.6074	0.1445	0.13
Mof_C 	C 	0.3582	0.599	0.9735	0.077
Mof_H 	H 	0.3285	0.6051	0.9076	-0.107
Mof_C 	C 	0.3536	0.5636	0.3384	-0.346
Mof_H 	H 	0.3346	0.5279	0.2829	0.078
Mof_H 	H 	0.312	0.5887	0.3754	0.067
Mof_H 	H 	0.3831	0.5376	0.3957	0.052
Mof_H 	H 	0.3896	0.6779	0.2858	0.069
Mof_H 	H 	0.4596	0.623	0.2957	0.058
Mof_Zn	Zn	0.96064	0.99024	0.35032	1.115
Mof_N 	N 	0.9188	0.0562	0.4773	-0.295
Mof_N 	N 	0.9455	0.0611	0.5897	-0.297
Mof_N 	N 	0.8439	0.133	0.5748	-0.321
Mof_C 	C 	0.9616	0.2033	0.781	-0.325
Mof_H 	H 	0.9801	0.2166	0.7055	0.09
Mof_H 	H 	0.0034	0.193	0.8316	0.064
Mof_H 	H 	0.9325	0.2444	0.8119	0.06
Mof_C 	C 	0.9074	0.127	0.7708	-0.293
Mof_H 	H 	0.9302	0.0853	0.8126	0.05
Mof_H 	H 	0.8581	0.1369	0.8042	0.072
Mof_C 	C 	0.8996	0.1074	0.6445	0.133
Mof_C 	C 	0.8582	0.099	0.4735	0.077
Mof_H 	H 	0.8285	0.1051	0.4076	-0.106
Mof_C 	C 	0.8536	0.0636	0.8384	-0.344
Mof_H 	H 	0.8346	0.0279	0.7829	0.078
Mof_H 	H 	0.812	0.0887	0.8754	0.065
Mof_H 	H 	0.8831	0.0376	0.8957	0.051
Mof_H 	H 	0.8896	0.1779	0.7858	0.069
Mof_H 	H 	0.9596	0.123	0.7957	0.059
Mof_Zn	Zn	0.74024	0.28936	0.89968	1.116
Mof_N 	N 	0.8062	0.3312	0.7727	-0.297
Mof_N 	N 	0.8111	0.3045	0.6603	-0.298
Mof_N 	N 	0.883	0.4061	0.6752	-0.32
Mof_C 	C 	0.9533	0.2884	0.469	-0.349
Mof_H 	H 	0.9666	0.2699	0.5445	0.098
Mof_H 	H 	0.943	0.2466	0.4184	0.075
Mof_H 	H 	0.9944	0.3175	0.4381	0.069
Mof_C 	C 	0.877	0.3426	0.4792	-0.283
Mof_H 	H 	0.8353	0.3198	0.4374	0.047
Mof_H 	H 	0.8869	0.3919	0.4458	0.069
Mof_C 	C 	0.8574	0.3504	0.6055	0.13
Mof_C 	C 	0.849	0.3918	0.7765	0.076
Mof_H 	H 	0.8551	0.4215	0.8424	-0.107
Mof_C 	C 	0.8136	0.3964	0.4116	-0.347
Mof_H 	H 	0.7779	0.4154	0.4671	0.078
Mof_H 	H 	0.8387	0.438	0.3746	0.067
Mof_H 	H 	0.7876	0.3669	0.3543	0.053
Mof_H 	H 	0.9279	0.3604	0.4642	0.069
Mof_H 	H 	0.873	0.2904	0.4543	0.058
Mof_Zn	Zn	0.24024	0.78936	0.39968	1.117
Mof_N 	N 	0.3062	0.8312	0.2727	-0.297
Mof_N 	N 	0.3111	0.8045	0.1603	-0.298
Mof_N 	N 	0.383	0.9061	0.1752	-0.32
Mof_C 	C 	0.4533	0.7884	0.969	-0.335
Mof_H 	H 	0.4666	0.7699	0.0445	0.091
Mof_H 	H 	0.443	0.7466	0.9184	0.07
Mof_H 	H 	0.4944	0.8175	0.9381	0.064
Mof_C 	C 	0.377	0.8426	0.9792	-0.277
Mof_H 	H 	0.3353	0.8198	0.9374	0.048
Mof_H 	H 	0.3869	0.8919	0.9458	0.069
Mof_C 	C 	0.3574	0.8504	0.1055	0.126
Mof_C 	C 	0.349	0.8918	0.2765	0.076
Mof_H 	H 	0.3551	0.9215	0.3424	-0.107
Mof_C 	C 	0.3136	0.8964	0.9116	-0.355
Mof_H 	H 	0.2779	0.9154	0.9671	0.083
Mof_H 	H 	0.3387	0.938	0.8746	0.071
Mof_H 	H 	0.2876	0.8669	0.8543	0.056
Mof_H 	H 	0.4279	0.8604	0.9642	0.067
Mof_H 	H 	0.373	0.7904	0.9543	0.055
Mof_Zn	Zn	0.75976	0.71064	0.39968	1.117
Mof_N 	N 	0.6938	0.6688	0.2727	-0.297
Mof_N 	N 	0.6889	0.6955	0.1603	-0.298
Mof_N 	N 	0.617	0.5939	0.1752	-0.32
Mof_C 	C 	0.5467	0.7116	0.969	-0.335
Mof_H 	H 	0.5334	0.7301	0.0445	0.091
Mof_H 	H 	0.557	0.7534	0.9184	0.07
Mof_H 	H 	0.5056	0.6825	0.9381	0.064
Mof_C 	C 	0.623	0.6574	0.9792	-0.284
Mof_H 	H 	0.6647	0.6802	0.9374	0.048
Mof_H 	H 	0.6131	0.6081	0.9458	0.069
Mof_C 	C 	0.6426	0.6496	0.1055	0.129
Mof_C 	C 	0.651	0.6082	0.2765	0.076
Mof_H 	H 	0.6449	0.5785	0.3424	-0.107
Mof_C 	C 	0.6864	0.6036	0.9116	-0.347
Mof_H 	H 	0.7221	0.5846	0.9671	0.079
Mof_H 	H 	0.6613	0.562	0.8746	0.067
Mof_H 	H 	0.7124	0.6331	0.8543	0.052
Mof_H 	H 	0.5721	0.6396	0.9642	0.068
Mof_H 	H 	0.627	0.7096	0.9543	0.057
Mof_Zn	Zn	0.25976	0.21064	0.89968	1.116
Mof_N 	N 	0.1938	0.1688	0.7727	-0.298
Mof_N 	N 	0.1889	0.1955	0.6603	-0.298
Mof_N 	N 	0.117	0.0939	0.6752	-0.321
Mof_C 	C 	0.0467	0.2116	0.469	-0.338
Mof_H 	H 	0.0334	0.2301	0.5445	0.092
Mof_H 	H 	0.057	0.2534	0.4184	0.07
Mof_H 	H 	0.0056	0.1825	0.4381	0.063
Mof_C 	C 	0.123	0.1574	0.4792	-0.286
Mof_H 	H 	0.1647	0.1802	0.4374	0.048
Mof_H 	H 	0.1131	0.1081	0.4458	0.069
Mof_C 	C 	0.1426	0.1496	0.6055	0.131
Mof_C 	C 	0.151	0.1082	0.7765	0.076
Mof_H 	H 	0.1449	0.0785	0.8424	-0.109
Mof_C 	C 	0.1864	0.1036	0.4116	-0.346
Mof_H 	H 	0.2221	0.0846	0.4671	0.078
Mof_H 	H 	0.1613	0.062	0.3746	0.066
Mof_H 	H 	0.2124	0.1331	0.3543	0.052
Mof_H 	H 	0.0721	0.1396	0.4642	0.068
Mof_H 	H 	0.127	0.2096	0.4543	0.057
Mof_Zn	Zn	0.96064	0.49024	0.64968	1.117
Mof_N 	N 	0.9188	0.5562	0.5227	-0.297
Mof_N 	N 	0.9455	0.5611	0.4103	-0.298
Mof_N 	N 	0.8439	0.633	0.4252	-0.32
Mof_C 	C 	0.9616	0.7033	0.219	-0.356
Mof_H 	H 	0.9801	0.7166	0.2945	0.099
Mof_H 	H 	0.0034	0.693	0.1684	0.077
Mof_H 	H 	0.9325	0.7444	0.1881	0.069
Mof_C 	C 	0.9074	0.627	0.2292	-0.279
Mof_H 	H 	0.9302	0.5853	0.1874	0.046
Mof_H 	H 	0.8581	0.6369	0.1958	0.067
Mof_C 	C 	0.8996	0.6074	0.3555	0.129
Mof_C 	C 	0.8582	0.599	0.5265	0.076
Mof_H 	H 	0.8285	0.6051	0.5924	-0.107
Mof_C 	C 	0.8536	0.5636	0.1616	-0.347
Mof_H 	H 	0.8346	0.5279	0.2171	0.079
Mof_H 	H 	0.812	0.5887	0.1246	0.067
Mof_H 	H 	0.8831	0.5376	0.1043	0.052
Mof_H 	H 	0.8896	0.6779	0.2142	0.069
Mof_H 	H 	0.9596	0.623	0.2043	0.057
Mof_Zn	Zn	0.46064	0.99024	0.14968	1.116
Mof_N 	N 	0.4188	0.0562	0.0227	-0.295
Mof_N 	N 	0.4455	0.0611	0.9103	-0.3
Mof_N 	N 	0.3439	0.133	0.9252	-0.323
Mof_C 	C 	0.4616	0.2033	0.719	-0.344
Mof_H 	H 	0.4801	0.2166	0.7945	0.095
Mof_H 	H 	0.5034	0.193	0.6684	0.072
Mof_H 	H 	0.4325	0.2444	0.6881	0.066
Mof_C 	C 	0.4074	0.127	0.7292	-0.285
Mof_H 	H 	0.4302	0.0853	0.6874	0.048
Mof_H 	H 	0.3581	0.1369	0.6958	0.069
Mof_C 	C 	0.3996	0.1074	0.8555	0.13
Mof_C 	C 	0.3582	0.099	0.0265	0.08
Mof_H 	H 	0.3285	0.1051	0.0924	-0.108
Mof_C 	C 	0.3536	0.0636	0.6616	-0.345
Mof_H 	H 	0.3346	0.0279	0.7171	0.077
Mof_H 	H 	0.312	0.0887	0.6246	0.066
Mof_H 	H 	0.3831	0.0376	0.6043	0.052
Mof_H 	H 	0.3896	0.1779	0.7142	0.069
Mof_H 	H 	0.4596	0.123	0.7043	0.058
Mof_Zn	Zn	0.53936	0.50976	0.14968	1.117
Mof_N 	N 	0.5812	0.4438	0.0227	-0.297
Mof_N 	N 	0.5545	0.4389	0.9103	-0.298
Mof_N 	N 	0.6561	0.367	0.9252	-0.321
Mof_C 	C 	0.5384	0.2967	0.719	-0.344
Mof_H 	H 	0.5199	0.2834	0.7945	0.095
Mof_H 	H 	0.4966	0.307	0.6684	0.072
Mof_H 	H 	0.5675	0.2556	0.6881	0.066
Mof_C 	C 	0.5926	0.373	0.7292	-0.285
Mof_H 	H 	0.5698	0.4147	0.6874	0.048
Mof_H 	H 	0.6419	0.3631	0.6958	0.069
Mof_C 	C 	0.6004	0.3926	0.8555	0.13
Mof_C 	C 	0.6418	0.401	0.0265	0.077
Mof_H 	H 	0.6715	0.3949	0.0924	-0.107
Mof_C 	C 	0.6464	0.4364	0.6616	-0.346
Mof_H 	H 	0.6654	0.4721	0.7171	0.078
Mof_H 	H 	0.688	0.4113	0.6246	0.067
Mof_H 	H 	0.6169	0.4624	0.6043	0.052
Mof_H 	H 	0.6104	0.3221	0.7142	0.069
Mof_H 	H 	0.5404	0.377	0.7043	0.058
Mof_Zn	Zn	0.03936	0.00976	0.64968	1.115
Mof_N 	N 	0.0812	0.9438	0.5227	-0.295
Mof_N 	N 	0.0545	0.9389	0.4103	-0.297
Mof_N 	N 	0.1561	0.867	0.4252	-0.321
Mof_C 	C 	0.0384	0.7967	0.219	-0.325
Mof_H 	H 	0.0199	0.7834	0.2945	0.09
Mof_H 	H 	0.9966	0.807	0.1684	0.064
Mof_H 	H 	0.0675	0.7556	0.1881	0.06
Mof_C 	C 	0.0926	0.873	0.2292	-0.293
Mof_H 	H 	0.0698	0.9147	0.1874	0.05
Mof_H 	H 	0.1419	0.8631	0.1958	0.072
Mof_C 	C 	0.1004	0.8926	0.3555	0.133
Mof_C 	C 	0.1418	0.901	0.5265	0.077
Mof_H 	H 	0.1715	0.8949	0.5924	-0.106
Mof_C 	C 	0.1464	0.9364	0.1616	-0.344
Mof_H 	H 	0.1654	0.9721	0.2171	0.078
Mof_H 	H 	0.188	0.9113	0.1246	0.065
Mof_H 	H 	0.1169	0.9624	0.1043	0.051
Mof_H 	H 	0.1104	0.8221	0.2142	0.069
Mof_H 	H 	0.0404	0.877	0.2043	0.059
_end
