data_functionalizedCrystal
_audit_creation_method	'EQeq! by Chris Wilmer'
_symmetry_space_group_name_H-M	'P1'
_symmetry_Int_Tables_number	1
_symmetry_cell_setting	triclinic
loop_
_symmetry_equiv_pos_as_xyz
  x,y,z
_cell_length_a	22.694
_cell_length_b	29.694
_cell_length_c	33.408
_cell_angle_alpha	90
_cell_angle_beta	90
_cell_angle_gamma	90
loop_
_atom_site_label
_atom_site_type_symbol
_atom_site_fract_x
_atom_site_fract_y
_atom_site_fract_z
_atom_site_charge
Mof_O 	O 	0.5392	0.0403	0.7994	-0.482
Mof_O 	O 	0.6072	0.0712	0.7586	-0.344
Mof_N 	N 	0.6927	0.2217	0.9732	-0.268
Mof_N 	N 	0.6536	0.2501	0.9554	-0.218
Mof_H 	H 	0.6461	0.2773	0.9645	0.116
Mof_C 	C 	0.5827	0.0669	0.7913	0.352
Mof_C 	C 	0.6026	0.0972	0.8261	-0.176
Mof_C 	C 	0.6365	0.1345	0.8175	0.1
Mof_H 	H 	0.6499	0.1393	0.7909	-0.007
Mof_C 	C 	0.6513	0.1649	0.8469	-0.224
Mof_H 	H 	0.6724	0.1914	0.8399	0.105
Mof_C 	C 	0.6358	0.1576	0.8863	0.19
Mof_C 	C 	0.6043	0.1194	0.8948	-0.217
Mof_H 	H 	0.5944	0.1125	0.9217	0.093
Mof_C 	C 	0.5863	0.0903	0.8639	0.103
Mof_H 	H 	0.5621	0.0651	0.8701	0.008
Mof_C 	C 	0.6501	0.1906	0.9193	-0.27
Mof_C 	C 	0.6911	0.1847	0.9494	0.282
Mof_C 	C 	0.6281	0.2334	0.9234	0.277
Mof_C 	C 	0.7282	0.1454	0.9594	-0.656
Mof_H 	H 	0.7499	0.1515	0.9842	0.187
Mof_H 	H 	0.7561	0.1399	0.9376	0.209
Mof_H 	H 	0.7031	0.1189	0.9631	0.202
Mof_C 	C 	0.5819	0.2593	0.8992	-0.619
Mof_H 	H 	0.5927	0.2913	0.8983	0.198
Mof_H 	H 	0.5433	0.2561	0.912	0.191
Mof_H 	H 	0.5802	0.2473	0.872	0.202
Mof_O 	O 	0.5392	0.5403	0.2994	-0.477
Mof_O 	O 	0.6072	0.5712	0.2586	-0.343
Mof_N 	N 	0.6927	0.7217	0.4732	-0.265
Mof_N 	N 	0.6536	0.7501	0.4554	-0.22
Mof_H 	H 	0.6461	0.7773	0.4645	0.12
Mof_C 	C 	0.5827	0.5669	0.2913	0.351
Mof_C 	C 	0.6026	0.5972	0.3261	-0.175
Mof_C 	C 	0.6365	0.6345	0.3175	0.099
Mof_H 	H 	0.6499	0.6393	0.2909	-0.008
Mof_C 	C 	0.6513	0.6649	0.3469	-0.225
Mof_H 	H 	0.6724	0.6914	0.3399	0.104
Mof_C 	C 	0.6358	0.6576	0.3863	0.19
Mof_C 	C 	0.6043	0.6194	0.3948	-0.217
Mof_H 	H 	0.5944	0.6125	0.4217	0.094
Mof_C 	C 	0.5863	0.5903	0.3639	0.102
Mof_H 	H 	0.5621	0.5651	0.3701	0.01
Mof_C 	C 	0.6501	0.6906	0.4193	-0.273
Mof_C 	C 	0.6911	0.6847	0.4494	0.287
Mof_C 	C 	0.6281	0.7334	0.4234	0.279
Mof_C 	C 	0.7282	0.6454	0.4594	-0.67
Mof_H 	H 	0.7499	0.6515	0.4842	0.196
Mof_H 	H 	0.7561	0.6399	0.4376	0.213
Mof_H 	H 	0.7031	0.6189	0.4631	0.21
Mof_C 	C 	0.5819	0.7593	0.3992	-0.621
Mof_H 	H 	0.5927	0.7913	0.3983	0.199
Mof_H 	H 	0.5433	0.7561	0.412	0.192
Mof_H 	H 	0.5802	0.7473	0.372	0.203
Mof_O 	O 	0.0392	0.0403	0.2994	-0.492
Mof_O 	O 	0.1072	0.0712	0.2586	-0.348
Mof_N 	N 	0.1927	0.2217	0.4732	-0.266
Mof_N 	N 	0.1536	0.2501	0.4554	-0.219
Mof_H 	H 	0.1461	0.2773	0.4645	0.118
Mof_C 	C 	0.0827	0.0669	0.2913	0.352
Mof_C 	C 	0.1026	0.0972	0.3261	-0.182
Mof_C 	C 	0.1365	0.1345	0.3175	0.1
Mof_H 	H 	0.1499	0.1393	0.2909	-0.009
Mof_C 	C 	0.1513	0.1649	0.3469	-0.228
Mof_H 	H 	0.1724	0.1914	0.3399	0.105
Mof_C 	C 	0.1358	0.1576	0.3863	0.19
Mof_C 	C 	0.1043	0.1194	0.3948	-0.223
Mof_H 	H 	0.0944	0.1125	0.4217	0.094
Mof_C 	C 	0.0863	0.0903	0.3639	0.104
Mof_H 	H 	0.0621	0.0651	0.3701	0.002
Mof_C 	C 	0.1501	0.1906	0.4193	-0.272
Mof_C 	C 	0.1911	0.1847	0.4494	0.287
Mof_C 	C 	0.1281	0.2334	0.4234	0.273
Mof_C 	C 	0.2282	0.1454	0.4594	-0.67
Mof_H 	H 	0.2499	0.1515	0.4842	0.196
Mof_H 	H 	0.2561	0.1399	0.4376	0.213
Mof_H 	H 	0.2031	0.1189	0.4631	0.21
Mof_C 	C 	0.0819	0.2593	0.3992	-0.608
Mof_H 	H 	0.0927	0.2913	0.3983	0.193
Mof_H 	H 	0.0433	0.2561	0.412	0.182
Mof_H 	H 	0.0802	0.2473	0.372	0.196
Mof_O 	O 	0.0392	0.5403	0.7994	-0.486
Mof_O 	O 	0.1072	0.5712	0.7586	-0.345
Mof_N 	N 	0.1927	0.7217	0.9732	-0.27
Mof_N 	N 	0.1536	0.7501	0.9554	-0.219
Mof_H 	H 	0.1461	0.7773	0.9645	0.113
Mof_C 	C 	0.0827	0.5669	0.7913	0.35
Mof_C 	C 	0.1026	0.5972	0.8261	-0.178
Mof_C 	C 	0.1365	0.6345	0.8175	0.097
Mof_H 	H 	0.1499	0.6393	0.7909	-0.008
Mof_C 	C 	0.1513	0.6649	0.8469	-0.225
Mof_H 	H 	0.1724	0.6914	0.8399	0.104
Mof_C 	C 	0.1358	0.6576	0.8863	0.186
Mof_C 	C 	0.1043	0.6194	0.8948	-0.218
Mof_H 	H 	0.0944	0.6125	0.9217	0.091
Mof_C 	C 	0.0863	0.5903	0.8639	0.1
Mof_H 	H 	0.0621	0.5651	0.8701	0.007
Mof_C 	C 	0.1501	0.6906	0.9193	-0.269
Mof_C 	C 	0.1911	0.6847	0.9494	0.28
Mof_C 	C 	0.1281	0.7334	0.9234	0.27
Mof_C 	C 	0.2282	0.6454	0.9594	-0.657
Mof_H 	H 	0.2499	0.6515	0.9842	0.186
Mof_H 	H 	0.2561	0.6399	0.9376	0.209
Mof_H 	H 	0.2031	0.6189	0.9631	0.203
Mof_C 	C 	0.0819	0.7593	0.8992	-0.606
Mof_H 	H 	0.0927	0.7913	0.8983	0.192
Mof_H 	H 	0.0433	0.7561	0.912	0.18
Mof_H 	H 	0.0802	0.7473	0.872	0.195
Mof_O 	O 	0.4608	0.9597	0.7994	-0.468
Mof_O 	O 	0.3928	0.9288	0.7586	-0.339
Mof_N 	N 	0.3073	0.7783	0.9732	-0.269
Mof_N 	N 	0.3464	0.7499	0.9554	-0.219
Mof_H 	H 	0.3539	0.7227	0.9645	0.115
Mof_C 	C 	0.4173	0.9331	0.7913	0.349
Mof_C 	C 	0.3974	0.9028	0.8261	-0.171
Mof_C 	C 	0.3635	0.8655	0.8175	0.095
Mof_H 	H 	0.3501	0.8607	0.7909	-0.007
Mof_C 	C 	0.3487	0.8351	0.8469	-0.222
Mof_H 	H 	0.3276	0.8086	0.8399	0.103
Mof_C 	C 	0.3642	0.8424	0.8863	0.186
Mof_C 	C 	0.3957	0.8806	0.8948	-0.213
Mof_H 	H 	0.4056	0.8875	0.9217	0.092
Mof_C 	C 	0.4137	0.9097	0.8639	0.098
Mof_H 	H 	0.4379	0.9349	0.8701	0.015
Mof_C 	C 	0.3499	0.8094	0.9193	-0.27
Mof_C 	C 	0.3089	0.8153	0.9494	0.281
Mof_C 	C 	0.3719	0.7666	0.9234	0.276
Mof_C 	C 	0.2718	0.8546	0.9594	-0.657
Mof_H 	H 	0.2501	0.8485	0.9842	0.186
Mof_H 	H 	0.2439	0.8601	0.9376	0.209
Mof_H 	H 	0.2969	0.8811	0.9631	0.203
Mof_C 	C 	0.4181	0.7407	0.8992	-0.618
Mof_H 	H 	0.4073	0.7087	0.8983	0.198
Mof_H 	H 	0.4567	0.7439	0.912	0.191
Mof_H 	H 	0.4198	0.7527	0.872	0.202
Mof_O 	O 	0.4608	0.4597	0.2994	-0.477
Mof_O 	O 	0.3928	0.4288	0.2586	-0.343
Mof_N 	N 	0.3073	0.2783	0.4732	-0.265
Mof_N 	N 	0.3464	0.2499	0.4554	-0.22
Mof_H 	H 	0.3539	0.2227	0.4645	0.12
Mof_C 	C 	0.4173	0.4331	0.2913	0.351
Mof_C 	C 	0.3974	0.4028	0.3261	-0.175
Mof_C 	C 	0.3635	0.3655	0.3175	0.099
Mof_H 	H 	0.3501	0.3607	0.2909	-0.008
Mof_C 	C 	0.3487	0.3351	0.3469	-0.225
Mof_H 	H 	0.3276	0.3086	0.3399	0.104
Mof_C 	C 	0.3642	0.3424	0.3863	0.19
Mof_C 	C 	0.3957	0.3806	0.3948	-0.217
Mof_H 	H 	0.4056	0.3875	0.4217	0.094
Mof_C 	C 	0.4137	0.4097	0.3639	0.102
Mof_H 	H 	0.4379	0.4349	0.3701	0.01
Mof_C 	C 	0.3499	0.3094	0.4193	-0.273
Mof_C 	C 	0.3089	0.3153	0.4494	0.288
Mof_C 	C 	0.3719	0.2666	0.4234	0.279
Mof_C 	C 	0.2718	0.3546	0.4594	-0.671
Mof_H 	H 	0.2501	0.3485	0.4842	0.197
Mof_H 	H 	0.2439	0.3601	0.4376	0.214
Mof_H 	H 	0.2969	0.3811	0.4631	0.21
Mof_C 	C 	0.4181	0.2407	0.3992	-0.621
Mof_H 	H 	0.4073	0.2087	0.3983	0.199
Mof_H 	H 	0.4567	0.2439	0.412	0.192
Mof_H 	H 	0.4198	0.2527	0.372	0.203
Mof_O 	O 	0.9608	0.9597	0.2994	-0.456
Mof_O 	O 	0.8928	0.9288	0.2586	-0.336
Mof_N 	N 	0.8073	0.7783	0.4732	-0.265
Mof_N 	N 	0.8464	0.7499	0.4554	-0.221
Mof_H 	H 	0.8539	0.7227	0.4645	0.121
Mof_C 	C 	0.9173	0.9331	0.2913	0.349
Mof_C 	C 	0.8974	0.9028	0.3261	-0.167
Mof_C 	C 	0.8635	0.8655	0.3175	0.097
Mof_H 	H 	0.8501	0.8607	0.2909	-0.007
Mof_C 	C 	0.8487	0.8351	0.3469	-0.222
Mof_H 	H 	0.8276	0.8086	0.3399	0.103
Mof_C 	C 	0.8642	0.8424	0.3863	0.189
Mof_C 	C 	0.8957	0.8806	0.3948	-0.212
Mof_H 	H 	0.9056	0.8875	0.4217	0.095
Mof_C 	C 	0.9137	0.9097	0.3639	0.099
Mof_H 	H 	0.9379	0.9349	0.3701	0.019
Mof_C 	C 	0.8499	0.8094	0.4193	-0.273
Mof_C 	C 	0.8089	0.8153	0.4494	0.288
Mof_C 	C 	0.8719	0.7666	0.4234	0.284
Mof_C 	C 	0.7718	0.8546	0.4594	-0.67
Mof_H 	H 	0.7501	0.8485	0.4842	0.196
Mof_H 	H 	0.7439	0.8601	0.4376	0.213
Mof_H 	H 	0.7969	0.8811	0.4631	0.21
Mof_C 	C 	0.9181	0.7407	0.3992	-0.633
Mof_H 	H 	0.9073	0.7087	0.3983	0.204
Mof_H 	H 	0.9567	0.7439	0.412	0.203
Mof_H 	H 	0.9198	0.7527	0.372	0.21
Mof_O 	O 	0.9608	0.4597	0.7994	-0.465
Mof_O 	O 	0.8928	0.4288	0.7586	-0.34
Mof_N 	N 	0.8073	0.2783	0.9732	-0.269
Mof_N 	N 	0.8464	0.2499	0.9554	-0.22
Mof_H 	H 	0.8539	0.2227	0.9645	0.116
Mof_C 	C 	0.9173	0.4331	0.7913	0.35
Mof_C 	C 	0.8974	0.4028	0.8261	-0.169
Mof_C 	C 	0.8635	0.3655	0.8175	0.098
Mof_H 	H 	0.8501	0.3607	0.7909	-0.007
Mof_C 	C 	0.8487	0.3351	0.8469	-0.222
Mof_H 	H 	0.8276	0.3086	0.8399	0.103
Mof_C 	C 	0.8642	0.3424	0.8863	0.188
Mof_C 	C 	0.8957	0.3806	0.8948	-0.212
Mof_H 	H 	0.9056	0.3875	0.9217	0.093
Mof_C 	C 	0.9137	0.4097	0.8639	0.1
Mof_H 	H 	0.9379	0.4349	0.8701	0.015
Mof_C 	C 	0.8499	0.3094	0.9193	-0.271
Mof_C 	C 	0.8089	0.3153	0.9494	0.282
Mof_C 	C 	0.8719	0.2666	0.9234	0.282
Mof_C 	C 	0.7718	0.3546	0.9594	-0.658
Mof_H 	H 	0.7501	0.3485	0.9842	0.186
Mof_H 	H 	0.7439	0.3601	0.9376	0.209
Mof_H 	H 	0.7969	0.3811	0.9631	0.203
Mof_C 	C 	0.9181	0.2407	0.8992	-0.632
Mof_H 	H 	0.9073	0.2087	0.8983	0.204
Mof_H 	H 	0.9567	0.2439	0.912	0.202
Mof_H 	H 	0.9198	0.2527	0.872	0.21
Mof_O 	O 	0.7892	0.2097	0.0494	-0.472
Mof_O 	O 	0.8572	0.1788	0.0086	-0.327
Mof_N 	N 	0.9427	0.0283	0.2232	-0.265
Mof_N 	N 	0.9036	0.9999	0.2054	-0.187
Mof_H 	H 	0.8961	0.9727	0.2145	0.117
Mof_C 	C 	0.8327	0.1831	0.0413	0.347
Mof_C 	C 	0.8526	0.1528	0.0761	-0.16
Mof_C 	C 	0.8865	0.1155	0.0675	0.085
Mof_H 	H 	0.8999	0.1107	0.0409	0.004
Mof_C 	C 	0.9013	0.0851	0.0969	-0.202
Mof_H 	H 	0.9224	0.0586	0.0899	0.098
Mof_C 	C 	0.8858	0.0924	0.1363	0.166
Mof_C 	C 	0.8543	0.1306	0.1448	-0.198
Mof_H 	H 	0.8444	0.1375	0.1717	0.088
Mof_C 	C 	0.8363	0.1597	0.1139	0.088
Mof_H 	H 	0.8121	0.1849	0.1201	0.016
Mof_C 	C 	0.9001	0.0594	0.1693	-0.227
Mof_C 	C 	0.9411	0.0653	0.1994	0.253
Mof_C 	C 	0.8781	0.0166	0.1734	0.201
Mof_C 	C 	0.9782	0.1046	0.2094	-0.572
Mof_H 	H 	0.9999	0.0985	0.2342	0.177
Mof_H 	H 	0.0061	0.1101	0.1876	0.169
Mof_H 	H 	0.9531	0.1311	0.2131	0.185
Mof_C 	C 	0.8319	0.9907	0.1492	-0.471
Mof_H 	H 	0.8427	0.9587	0.1483	0.16
Mof_H 	H 	0.7933	0.9939	0.162	0.157
Mof_H 	H 	0.8302	0.0027	0.122	0.146
Mof_O 	O 	0.7892	0.7097	0.5494	-0.477
Mof_O 	O 	0.8572	0.6788	0.5086	-0.34
Mof_N 	N 	0.9427	0.5283	0.7232	-0.256
Mof_N 	N 	0.9036	0.4999	0.7054	-0.219
Mof_H 	H 	0.8961	0.4727	0.7145	0.121
Mof_C 	C 	0.8327	0.6831	0.5413	0.351
Mof_C 	C 	0.8526	0.6528	0.5761	-0.172
Mof_C 	C 	0.8865	0.6155	0.5675	0.098
Mof_H 	H 	0.8999	0.6107	0.5409	-0.005
Mof_C 	C 	0.9013	0.5851	0.5969	-0.22
Mof_H 	H 	0.9224	0.5586	0.5899	0.107
Mof_C 	C 	0.8858	0.5924	0.6363	0.187
Mof_C 	C 	0.8543	0.6306	0.6448	-0.213
Mof_H 	H 	0.8444	0.6375	0.6717	0.093
Mof_C 	C 	0.8363	0.6597	0.6139	0.1
Mof_H 	H 	0.8121	0.6849	0.6201	0.012
Mof_C 	C 	0.9001	0.5594	0.6693	-0.26
Mof_C 	C 	0.9411	0.5653	0.6994	0.268
Mof_C 	C 	0.8781	0.5166	0.6734	0.276
Mof_C 	C 	0.9782	0.6046	0.7094	-0.586
Mof_H 	H 	0.9999	0.5985	0.7342	0.181
Mof_H 	H 	0.0061	0.6101	0.6876	0.174
Mof_H 	H 	0.9531	0.6311	0.7131	0.19
Mof_C 	C 	0.8319	0.4907	0.6492	-0.617
Mof_H 	H 	0.8427	0.4587	0.6483	0.198
Mof_H 	H 	0.7933	0.4939	0.662	0.191
Mof_H 	H 	0.8302	0.5027	0.622	0.202
Mof_O 	O 	0.2892	0.2097	0.5494	-0.477
Mof_O 	O 	0.3572	0.1788	0.5086	-0.342
Mof_N 	N 	0.4427	0.0283	0.7232	-0.274
Mof_N 	N 	0.4036	0.9999	0.7054	-0.187
Mof_H 	H 	0.3961	0.9727	0.7145	0.115
Mof_C 	C 	0.3327	0.1831	0.5413	0.348
Mof_C 	C 	0.3526	0.1528	0.5761	-0.168
Mof_C 	C 	0.3865	0.1155	0.5675	0.088
Mof_H 	H 	0.3999	0.1107	0.5409	-0.005
Mof_C 	C 	0.4013	0.0851	0.5969	-0.211
Mof_H 	H 	0.4224	0.0586	0.5899	0.096
Mof_C 	C 	0.3858	0.0924	0.6363	0.17
Mof_C 	C 	0.3543	0.1306	0.6448	-0.204
Mof_H 	H 	0.3444	0.1375	0.6717	0.089
Mof_C 	C 	0.3363	0.1597	0.6139	0.092
Mof_H 	H 	0.3121	0.1849	0.6201	0.014
Mof_C 	C 	0.4001	0.0594	0.6693	-0.24
Mof_C 	C 	0.4411	0.0653	0.6994	0.272
Mof_C 	C 	0.3781	0.0166	0.6734	0.203
Mof_C 	C 	0.4782	0.1046	0.7094	-0.656
Mof_H 	H 	0.4999	0.0985	0.7342	0.192
Mof_H 	H 	0.5061	0.1101	0.6876	0.208
Mof_H 	H 	0.4531	0.1311	0.7131	0.206
Mof_C 	C 	0.3319	0.9907	0.6492	-0.471
Mof_H 	H 	0.3427	0.9587	0.6483	0.16
Mof_H 	H 	0.2933	0.9939	0.662	0.157
Mof_H 	H 	0.3302	0.0027	0.622	0.146
Mof_O 	O 	0.2892	0.7097	0.0494	-0.473
Mof_O 	O 	0.3572	0.6788	0.0086	-0.33
Mof_N 	N 	0.4427	0.5283	0.2232	-0.265
Mof_N 	N 	0.4036	0.4999	0.2054	-0.22
Mof_H 	H 	0.3961	0.4727	0.2145	0.12
Mof_C 	C 	0.3327	0.6831	0.0413	0.349
Mof_C 	C 	0.3526	0.6528	0.0761	-0.171
Mof_C 	C 	0.3865	0.6155	0.0675	0.095
Mof_H 	H 	0.3999	0.6107	0.0409	-0.002
Mof_C 	C 	0.4013	0.5851	0.0969	-0.222
Mof_H 	H 	0.4224	0.5586	0.0899	0.104
Mof_C 	C 	0.3858	0.5924	0.1363	0.188
Mof_C 	C 	0.3543	0.6306	0.1448	-0.215
Mof_H 	H 	0.3444	0.6375	0.1717	0.094
Mof_C 	C 	0.3363	0.6597	0.1139	0.099
Mof_H 	H 	0.3121	0.6849	0.1201	0.012
Mof_C 	C 	0.4001	0.5594	0.1693	-0.272
Mof_C 	C 	0.4411	0.5653	0.1994	0.287
Mof_C 	C 	0.3781	0.5166	0.1734	0.278
Mof_C 	C 	0.4782	0.6046	0.2094	-0.67
Mof_H 	H 	0.4999	0.5985	0.2342	0.196
Mof_H 	H 	0.5061	0.6101	0.1876	0.213
Mof_H 	H 	0.4531	0.6311	0.2131	0.21
Mof_C 	C 	0.3319	0.4907	0.1492	-0.62
Mof_H 	H 	0.3427	0.4587	0.1483	0.198
Mof_H 	H 	0.2933	0.4939	0.162	0.192
Mof_H 	H 	0.3302	0.5027	0.122	0.203
Mof_O 	O 	0.7108	0.2903	0.0494	-0.473
Mof_O 	O 	0.6428	0.3212	0.0086	-0.329
Mof_N 	N 	0.5573	0.4717	0.2232	-0.265
Mof_N 	N 	0.5964	0.5001	0.2054	-0.22
Mof_H 	H 	0.6039	0.5273	0.2145	0.12
Mof_C 	C 	0.6673	0.3169	0.0413	0.349
Mof_C 	C 	0.6474	0.3472	0.0761	-0.171
Mof_C 	C 	0.6135	0.3845	0.0675	0.095
Mof_H 	H 	0.6001	0.3893	0.0409	-0.002
Mof_C 	C 	0.5987	0.4149	0.0969	-0.222
Mof_H 	H 	0.5776	0.4414	0.0899	0.104
Mof_C 	C 	0.6142	0.4076	0.1363	0.188
Mof_C 	C 	0.6457	0.3694	0.1448	-0.215
Mof_H 	H 	0.6556	0.3625	0.1717	0.094
Mof_C 	C 	0.6637	0.3403	0.1139	0.099
Mof_H 	H 	0.6879	0.3151	0.1201	0.012
Mof_C 	C 	0.5999	0.4406	0.1693	-0.272
Mof_C 	C 	0.5589	0.4347	0.1994	0.287
Mof_C 	C 	0.6219	0.4834	0.1734	0.278
Mof_C 	C 	0.5218	0.3954	0.2094	-0.67
Mof_H 	H 	0.5001	0.4015	0.2342	0.196
Mof_H 	H 	0.4939	0.3899	0.1876	0.213
Mof_H 	H 	0.5469	0.3689	0.2131	0.21
Mof_C 	C 	0.6681	0.5093	0.1492	-0.621
Mof_H 	H 	0.6573	0.5413	0.1483	0.199
Mof_H 	H 	0.7067	0.5061	0.162	0.192
Mof_H 	H 	0.6698	0.4973	0.122	0.203
Mof_O 	O 	0.7108	0.7903	0.5494	-0.478
Mof_O 	O 	0.6428	0.8212	0.5086	-0.343
Mof_N 	N 	0.5573	0.9717	0.7232	-0.255
Mof_N 	N 	0.5964	0.0001	0.7054	-0.252
Mof_H 	H 	0.6039	0.0273	0.7145	0.125
Mof_C 	C 	0.6673	0.8169	0.5413	0.353
Mof_C 	C 	0.6474	0.8472	0.5761	-0.183
Mof_C 	C 	0.6135	0.8845	0.5675	0.11
Mof_H 	H 	0.6001	0.8893	0.5409	-0.01
Mof_C 	C 	0.5987	0.9149	0.5969	-0.24
Mof_H 	H 	0.5776	0.9414	0.5899	0.112
Mof_C 	C 	0.6142	0.9076	0.6363	0.209
Mof_C 	C 	0.6457	0.8694	0.6448	-0.23
Mof_H 	H 	0.6556	0.8625	0.6717	0.1
Mof_C 	C 	0.6637	0.8403	0.6139	0.112
Mof_H 	H 	0.6879	0.8151	0.6201	0.007
Mof_C 	C 	0.5999	0.9406	0.6693	-0.305
Mof_C 	C 	0.5589	0.9347	0.6994	0.303
Mof_C 	C 	0.6219	0.9834	0.6734	0.354
Mof_C 	C 	0.5218	0.8954	0.7094	-0.685
Mof_H 	H 	0.5001	0.9015	0.7342	0.201
Mof_H 	H 	0.4939	0.8899	0.6876	0.219
Mof_H 	H 	0.5469	0.8689	0.7131	0.215
Mof_C 	C 	0.6681	0.0093	0.6492	-0.77
Mof_H 	H 	0.6573	0.0413	0.6483	0.237
Mof_H 	H 	0.7067	0.0061	0.662	0.227
Mof_H 	H 	0.6698	0.9973	0.622	0.26
Mof_O 	O 	0.2108	0.2903	0.5494	-0.478
Mof_O 	O 	0.1428	0.3212	0.5086	-0.345
Mof_N 	N 	0.0573	0.4717	0.7232	-0.272
Mof_N 	N 	0.0964	0.5001	0.7054	-0.221
Mof_H 	H 	0.1039	0.5273	0.7145	0.119
Mof_C 	C 	0.1673	0.3169	0.5413	0.351
Mof_C 	C 	0.1474	0.3472	0.5761	-0.179
Mof_C 	C 	0.1135	0.3845	0.5675	0.099
Mof_H 	H 	0.1001	0.3893	0.5409	-0.011
Mof_C 	C 	0.0987	0.4149	0.5969	-0.231
Mof_H 	H 	0.0776	0.4414	0.5899	0.101
Mof_C 	C 	0.1142	0.4076	0.6363	0.193
Mof_C 	C 	0.1457	0.3694	0.6448	-0.222
Mof_H 	H 	0.1556	0.3625	0.6717	0.095
Mof_C 	C 	0.1637	0.3403	0.6139	0.104
Mof_H 	H 	0.1879	0.3151	0.6201	0.009
Mof_C 	C 	0.0999	0.4406	0.6693	-0.286
Mof_C 	C 	0.0589	0.4347	0.6994	0.308
Mof_C 	C 	0.1219	0.4834	0.6734	0.282
Mof_C 	C 	0.0218	0.3954	0.7094	-0.755
Mof_H 	H 	0.0001	0.4015	0.7342	0.213
Mof_H 	H 	0.9939	0.3899	0.6876	0.253
Mof_H 	H 	0.0469	0.3689	0.7131	0.231
Mof_C 	C 	0.1681	0.5093	0.6492	-0.624
Mof_H 	H 	0.1573	0.5413	0.6483	0.199
Mof_H 	H 	0.2067	0.5061	0.662	0.193
Mof_H 	H 	0.1698	0.4973	0.622	0.204
Mof_O 	O 	0.2108	0.7903	0.0494	-0.474
Mof_O 	O 	0.1428	0.8212	0.0086	-0.333
Mof_N 	N 	0.0573	0.9717	0.2232	-0.262
Mof_N 	N 	0.0964	0.0001	0.2054	-0.254
Mof_H 	H 	0.1039	0.0273	0.2145	0.124
Mof_C 	C 	0.1673	0.8169	0.0413	0.352
Mof_C 	C 	0.1474	0.8472	0.0761	-0.182
Mof_C 	C 	0.1135	0.8845	0.0675	0.107
Mof_H 	H 	0.1001	0.8893	0.0409	-0.008
Mof_C 	C 	0.0987	0.9149	0.0969	-0.242
Mof_H 	H 	0.0776	0.9414	0.0899	0.11
Mof_C 	C 	0.1142	0.9076	0.1363	0.21
Mof_C 	C 	0.1457	0.8694	0.1448	-0.233
Mof_H 	H 	0.1556	0.8625	0.1717	0.1
Mof_C 	C 	0.1637	0.8403	0.1139	0.11
Mof_H 	H 	0.1879	0.8151	0.1201	0.007
Mof_C 	C 	0.0999	0.9406	0.1693	-0.317
Mof_C 	C 	0.0589	0.9347	0.1994	0.322
Mof_C 	C 	0.1219	0.9834	0.1734	0.357
Mof_C 	C 	0.0218	0.8954	0.2094	-0.767
Mof_H 	H 	0.0001	0.9015	0.2342	0.217
Mof_H 	H 	0.9939	0.8899	0.1876	0.257
Mof_H 	H 	0.0469	0.8689	0.2131	0.235
Mof_C 	C 	0.1681	0.0093	0.1492	-0.772
Mof_H 	H 	0.1573	0.0413	0.1483	0.237
Mof_H 	H 	0.2067	0.0061	0.162	0.228
Mof_H 	H 	0.1698	0.9973	0.122	0.261
Mof_Zn	Zn	0.5	0	0.76288	1.2
Mof_Zn	Zn	0.5	0.5	0.26288	1.207
Mof_Zn	Zn	5.93615e-33	0	0.26288	1.193
Mof_Zn	Zn	1.31811e-32	0.5	0.76288	1.2
Mof_Zn	Zn	0.75	0.25	0.01288	1.212
Mof_Zn	Zn	0.75	0.75	0.51288	1.207
Mof_Zn	Zn	0.25	0.25	0.51288	1.207
Mof_Zn	Zn	0.25	0.75	0.01288	1.212
Mof_Zn	Zn	0.49759	0.25455	0.71821	1.209
Mof_O 	O 	0.5374	0.2935	0.7556	-0.482
Mof_O 	O 	0.6187	0.253	0.7677	-0.321
Mof_O 	O 	0.4565	0.2952	0.6814	-0.49
Mof_O 	O 	0.3714	0.2606	0.6699	-0.338
Mof_N 	N 	0.6504	0.4471	0.9542	-0.22
Mof_H 	H 	0.6376	0.4552	0.978	0.12
Mof_N 	N 	0.6994	0.4639	0.9369	-0.273
Mof_N 	N 	0.3672	0.463	0.4864	-0.232
Mof_H 	H 	0.3819	0.4774	0.4656	0.135
Mof_N 	N 	0.3094	0.4677	0.4987	-0.282
Mof_C 	C 	0.5869	0.287	0.7729	0.352
Mof_C 	C 	0.607	0.3218	0.8028	-0.16
Mof_C 	C 	0.5708	0.357	0.8144	0.102
Mof_H 	H 	0.5336	0.3605	0.8016	0.004
Mof_C 	C 	0.5867	0.3866	0.8434	-0.211
Mof_H 	H 	0.5605	0.4101	0.8508	0.104
Mof_C 	C 	0.6417	0.3828	0.8623	0.177
Mof_C 	C 	0.68	0.3475	0.8508	-0.2
Mof_H 	H 	0.7171	0.3441	0.8635	0.085
Mof_C 	C 	0.6627	0.3174	0.8201	0.077
Mof_H 	H 	0.6888	0.2944	0.8114	0.009
Mof_C 	C 	0.6548	0.4128	0.8969	-0.276
Mof_C 	C 	0.7043	0.4424	0.9016	0.279
Mof_C 	C 	0.6233	0.4165	0.9307	0.314
Mof_C 	C 	0.7543	0.4502	0.8739	-0.673
Mof_H 	H 	0.7899	0.4571	0.8894	0.204
Mof_H 	H 	0.7451	0.4756	0.8562	0.223
Mof_H 	H 	0.7611	0.4231	0.8578	0.218
Mof_C 	C 	0.5697	0.3926	0.9449	-0.695
Mof_H 	H 	0.5541	0.3738	0.9232	0.22
Mof_H 	H 	0.5399	0.4147	0.9529	0.223
Mof_H 	H 	0.5798	0.3736	0.9678	0.228
Mof_C 	C 	0.4076	0.2904	0.6641	0.386
Mof_C 	C 	0.3968	0.3235	0.6312	-0.165
Mof_C 	C 	0.4366	0.3584	0.6234	0.085
Mof_H 	H 	0.4722	0.3604	0.6383	0.004
Mof_C 	C 	0.4243	0.3902	0.5938	-0.193
Mof_H 	H 	0.4515	0.4138	0.5888	0.083
Mof_C 	C 	0.3716	0.3877	0.5711	0.172
Mof_C 	C 	0.3323	0.3507	0.5793	-0.201
Mof_H 	H 	0.2975	0.3472	0.5638	0.088
Mof_C 	C 	0.3442	0.3212	0.6086	0.094
Mof_H 	H 	0.3166	0.2981	0.6144	0.011
Mof_C 	C 	0.3599	0.4197	0.5392	-0.271
Mof_C 	C 	0.3057	0.4412	0.5307	0.273
Mof_C 	C 	0.3985	0.4348	0.5086	0.311
Mof_C 	C 	0.2493	0.4371	0.5534	-0.674
Mof_H 	H 	0.2291	0.4662	0.5536	0.204
Mof_H 	H 	0.2578	0.4278	0.5809	0.221
Mof_H 	H 	0.2241	0.4145	0.5405	0.21
Mof_C 	C 	0.4603	0.4258	0.5009	-0.708
Mof_H 	H 	0.4694	0.433	0.473	0.227
Mof_H 	H 	0.4684	0.3938	0.5058	0.223
Mof_H 	H 	0.4846	0.4442	0.5187	0.221
Mof_Zn	Zn	0.49759	0.75455	0.21821	1.209
Mof_O 	O 	0.5374	0.7935	0.2556	-0.482
Mof_O 	O 	0.6187	0.753	0.2677	-0.321
Mof_O 	O 	0.4565	0.7952	0.1814	-0.49
Mof_O 	O 	0.3714	0.7606	0.1699	-0.338
Mof_N 	N 	0.6504	0.9471	0.4542	-0.222
Mof_H 	H 	0.6376	0.9552	0.478	0.134
Mof_N 	N 	0.6994	0.9639	0.4369	-0.266
Mof_N 	N 	0.3672	0.963	0.9864	-0.242
Mof_H 	H 	0.3819	0.9774	0.9656	0.143
Mof_N 	N 	0.3094	0.9677	0.9987	-0.289
Mof_C 	C 	0.5869	0.787	0.2729	0.353
Mof_C 	C 	0.607	0.8218	0.3028	-0.162
Mof_C 	C 	0.5708	0.857	0.3144	0.104
Mof_H 	H 	0.5336	0.8605	0.3016	0.003
Mof_C 	C 	0.5867	0.8866	0.3434	-0.214
Mof_H 	H 	0.5605	0.9101	0.3508	0.108
Mof_C 	C 	0.6417	0.8828	0.3623	0.181
Mof_C 	C 	0.68	0.8475	0.3508	-0.203
Mof_H 	H 	0.7171	0.8441	0.3635	0.086
Mof_C 	C 	0.6627	0.8174	0.3201	0.078
Mof_H 	H 	0.6888	0.7944	0.3114	0.008
Mof_C 	C 	0.6548	0.9128	0.3969	-0.281
Mof_C 	C 	0.7043	0.9424	0.4016	0.288
Mof_C 	C 	0.6233	0.9165	0.4307	0.325
Mof_C 	C 	0.7543	0.9502	0.3739	-0.687
Mof_H 	H 	0.7899	0.9571	0.3894	0.213
Mof_H 	H 	0.7451	0.9756	0.3562	0.233
Mof_H 	H 	0.7611	0.9231	0.3578	0.222
Mof_C 	C 	0.5697	0.8926	0.4449	-0.711
Mof_H 	H 	0.5541	0.8738	0.4232	0.225
Mof_H 	H 	0.5399	0.9147	0.4529	0.233
Mof_H 	H 	0.5798	0.8736	0.4678	0.237
Mof_C 	C 	0.4076	0.7904	0.1641	0.387
Mof_C 	C 	0.3968	0.8235	0.1312	-0.166
Mof_C 	C 	0.4366	0.8584	0.1234	0.089
Mof_H 	H 	0.4722	0.8604	0.1383	0.004
Mof_C 	C 	0.4243	0.8902	0.0938	-0.196
Mof_H 	H 	0.4515	0.9138	0.0888	0.087
Mof_C 	C 	0.3716	0.8877	0.0711	0.179
Mof_C 	C 	0.3323	0.8507	0.0793	-0.204
Mof_H 	H 	0.2975	0.8472	0.0638	0.092
Mof_C 	C 	0.3442	0.8212	0.1086	0.097
Mof_H 	H 	0.3166	0.7981	0.1144	0.01
Mof_C 	C 	0.3599	0.9197	0.0392	-0.278
Mof_C 	C 	0.3057	0.9412	0.0307	0.3
Mof_C 	C 	0.3985	0.9348	0.0086	0.323
Mof_C 	C 	0.2493	0.9371	0.0534	-0.701
Mof_H 	H 	0.2291	0.9662	0.0536	0.218
Mof_H 	H 	0.2578	0.9278	0.0809	0.23
Mof_H 	H 	0.2241	0.9145	0.0405	0.222
Mof_C 	C 	0.4603	0.9258	0.0009	-0.67
Mof_H 	H 	0.4694	0.933	0.973	0.208
Mof_H 	H 	0.4684	0.8938	0.0058	0.218
Mof_H 	H 	0.4846	0.9442	0.0187	0.218
Mof_Zn	Zn	0.99759	0.25455	0.21821	1.217
Mof_O 	O 	0.0374	0.2935	0.2556	-0.493
Mof_O 	O 	0.1187	0.253	0.2677	-0.323
Mof_O 	O 	0.9565	0.2952	0.1814	-0.48
Mof_O 	O 	0.8714	0.2606	0.1699	-0.335
Mof_N 	N 	0.1504	0.4471	0.4542	-0.22
Mof_H 	H 	0.1376	0.4552	0.478	0.126
Mof_N 	N 	0.1994	0.4639	0.4369	-0.271
Mof_N 	N 	0.8672	0.463	0.9864	-0.242
Mof_H 	H 	0.8819	0.4774	0.9656	0.137
Mof_N 	N 	0.8094	0.4677	0.9987	-0.294
Mof_C 	C 	0.0869	0.287	0.2729	0.353
Mof_C 	C 	0.107	0.3218	0.3028	-0.163
Mof_C 	C 	0.0708	0.357	0.3144	0.101
Mof_H 	H 	0.0336	0.3605	0.3016	-0.002
Mof_C 	C 	0.0867	0.3866	0.3434	-0.212
Mof_H 	H 	0.0605	0.4101	0.3508	0.1
Mof_C 	C 	0.1417	0.3828	0.3623	0.176
Mof_C 	C 	0.18	0.3475	0.3508	-0.201
Mof_H 	H 	0.2171	0.3441	0.3635	0.085
Mof_C 	C 	0.1627	0.3174	0.3201	0.078
Mof_H 	H 	0.1888	0.2944	0.3114	0.009
Mof_C 	C 	0.1548	0.4128	0.3969	-0.275
Mof_C 	C 	0.2043	0.4424	0.4016	0.279
Mof_C 	C 	0.1233	0.4165	0.4307	0.313
Mof_C 	C 	0.2543	0.4502	0.3739	-0.673
Mof_H 	H 	0.2899	0.4571	0.3894	0.205
Mof_H 	H 	0.2451	0.4756	0.3562	0.223
Mof_H 	H 	0.2611	0.4231	0.3578	0.218
Mof_C 	C 	0.0697	0.3926	0.4449	-0.688
Mof_H 	H 	0.0541	0.3738	0.4232	0.212
Mof_H 	H 	0.0399	0.4147	0.4529	0.216
Mof_H 	H 	0.0798	0.3736	0.4678	0.226
Mof_C 	C 	0.9076	0.2904	0.1641	0.386
Mof_C 	C 	0.8968	0.3235	0.1312	-0.162
Mof_C 	C 	0.9366	0.3584	0.1234	0.087
Mof_H 	H 	0.9722	0.3604	0.1383	0.011
Mof_C 	C 	0.9243	0.3902	0.0938	-0.193
Mof_H 	H 	0.9515	0.4138	0.0888	0.088
Mof_C 	C 	0.8716	0.3877	0.0711	0.177
Mof_C 	C 	0.8323	0.3507	0.0793	-0.202
Mof_H 	H 	0.7975	0.3472	0.0638	0.091
Mof_C 	C 	0.8442	0.3212	0.1086	0.096
Mof_H 	H 	0.8166	0.2981	0.1144	0.011
Mof_C 	C 	0.8599	0.4197	0.0392	-0.278
Mof_C 	C 	0.8057	0.4412	0.0307	0.296
Mof_C 	C 	0.8985	0.4348	0.0086	0.325
Mof_C 	C 	0.7493	0.4371	0.0534	-0.694
Mof_H 	H 	0.7291	0.4662	0.0536	0.212
Mof_H 	H 	0.7578	0.4278	0.0809	0.227
Mof_H 	H 	0.7241	0.4145	0.0405	0.219
Mof_C 	C 	0.9603	0.4258	0.0009	-0.68
Mof_H 	H 	0.9694	0.433	0.973	0.214
Mof_H 	H 	0.9684	0.3938	0.0058	0.225
Mof_H 	H 	0.9846	0.4442	0.0187	0.224
Mof_Zn	Zn	0.99759	0.75455	0.71821	1.217
Mof_O 	O 	0.0374	0.7935	0.7556	-0.492
Mof_O 	O 	0.1187	0.753	0.7677	-0.323
Mof_O 	O 	0.9565	0.7952	0.6814	-0.48
Mof_O 	O 	0.8714	0.7606	0.6699	-0.335
Mof_N 	N 	0.1504	0.9471	0.9542	-0.219
Mof_H 	H 	0.1376	0.9552	0.978	0.125
Mof_N 	N 	0.1994	0.9639	0.9369	-0.268
Mof_N 	N 	0.8672	0.963	0.4864	-0.235
Mof_H 	H 	0.8819	0.9774	0.4656	0.146
Mof_N 	N 	0.8094	0.9677	0.4987	-0.276
Mof_C 	C 	0.0869	0.787	0.7729	0.353
Mof_C 	C 	0.107	0.8218	0.8028	-0.163
Mof_C 	C 	0.0708	0.857	0.8144	0.102
Mof_H 	H 	0.0336	0.8605	0.8016	-0.002
Mof_C 	C 	0.0867	0.8866	0.8434	-0.213
Mof_H 	H 	0.0605	0.9101	0.8508	0.102
Mof_C 	C 	0.1417	0.8828	0.8623	0.178
Mof_C 	C 	0.18	0.8475	0.8508	-0.202
Mof_H 	H 	0.2171	0.8441	0.8635	0.086
Mof_C 	C 	0.1627	0.8174	0.8201	0.078
Mof_H 	H 	0.1888	0.7944	0.8114	0.009
Mof_C 	C 	0.1548	0.9128	0.8969	-0.276
Mof_C 	C 	0.2043	0.9424	0.9016	0.286
Mof_C 	C 	0.1233	0.9165	0.9307	0.312
Mof_C 	C 	0.2543	0.9502	0.8739	-0.686
Mof_H 	H 	0.2899	0.9571	0.8894	0.213
Mof_H 	H 	0.2451	0.9756	0.8562	0.233
Mof_H 	H 	0.2611	0.9231	0.8578	0.222
Mof_C 	C 	0.0697	0.8926	0.9449	-0.684
Mof_H 	H 	0.0541	0.8738	0.9232	0.211
Mof_H 	H 	0.0399	0.9147	0.9529	0.216
Mof_H 	H 	0.0798	0.8736	0.9678	0.222
Mof_C 	C 	0.9076	0.7904	0.6641	0.386
Mof_C 	C 	0.8968	0.8235	0.6312	-0.162
Mof_C 	C 	0.9366	0.8584	0.6234	0.087
Mof_H 	H 	0.9722	0.8604	0.6383	0.011
Mof_C 	C 	0.9243	0.8902	0.5938	-0.193
Mof_H 	H 	0.9515	0.9138	0.5888	0.089
Mof_C 	C 	0.8716	0.8877	0.5711	0.176
Mof_C 	C 	0.8323	0.8507	0.5793	-0.202
Mof_H 	H 	0.7975	0.8472	0.5638	0.089
Mof_C 	C 	0.8442	0.8212	0.6086	0.095
Mof_H 	H 	0.8166	0.7981	0.6144	0.011
Mof_C 	C 	0.8599	0.9197	0.5392	-0.277
Mof_C 	C 	0.8057	0.9412	0.5307	0.28
Mof_C 	C 	0.8985	0.9348	0.5086	0.327
Mof_C 	C 	0.7493	0.9371	0.5534	-0.683
Mof_H 	H 	0.7291	0.9662	0.5536	0.212
Mof_H 	H 	0.7578	0.9278	0.5809	0.225
Mof_H 	H 	0.7241	0.9145	0.5405	0.213
Mof_C 	C 	0.9603	0.9258	0.5009	-0.739
Mof_H 	H 	0.9694	0.933	0.473	0.244
Mof_H 	H 	0.9684	0.8938	0.5058	0.237
Mof_H 	H 	0.9846	0.9442	0.5187	0.24
Mof_Zn	Zn	0.75241	0.50455	0.96821	1.206
Mof_O 	O 	0.7126	0.5435	0.0056	-0.471
Mof_O 	O 	0.6313	0.503	0.0177	-0.312
Mof_O 	O 	0.7935	0.5452	0.9314	-0.492
Mof_O 	O 	0.8786	0.5106	0.9199	-0.337
Mof_N 	N 	0.5996	0.6971	0.2042	-0.221
Mof_H 	H 	0.6124	0.7052	0.228	0.128
Mof_N 	N 	0.5506	0.7139	0.1869	-0.271
Mof_N 	N 	0.8828	0.713	0.7364	-0.234
Mof_H 	H 	0.8681	0.7274	0.7156	0.137
Mof_N 	N 	0.9406	0.7177	0.7487	-0.287
Mof_C 	C 	0.6631	0.537	0.0229	0.35
Mof_C 	C 	0.643	0.5718	0.0528	-0.156
Mof_C 	C 	0.6792	0.607	0.0644	0.1
Mof_H 	H 	0.7164	0.6105	0.0516	0.008
Mof_C 	C 	0.6633	0.6366	0.0934	-0.209
Mof_H 	H 	0.6895	0.6601	0.1008	0.104
Mof_C 	C 	0.6083	0.6328	0.1123	0.177
Mof_C 	C 	0.57	0.5975	0.1008	-0.198
Mof_H 	H 	0.5329	0.5941	0.1135	0.085
Mof_C 	C 	0.5873	0.5674	0.0701	0.076
Mof_H 	H 	0.5612	0.5444	0.0614	0.012
Mof_C 	C 	0.5952	0.6628	0.1469	-0.278
Mof_C 	C 	0.5457	0.6924	0.1516	0.282
Mof_C 	C 	0.6267	0.6665	0.1807	0.32
Mof_C 	C 	0.4957	0.7002	0.1239	-0.678
Mof_H 	H 	0.4601	0.7071	0.1394	0.206
Mof_H 	H 	0.5049	0.7256	0.1062	0.226
Mof_H 	H 	0.4889	0.6731	0.1078	0.221
Mof_C 	C 	0.6803	0.6426	0.1949	-0.705
Mof_H 	H 	0.6959	0.6238	0.1732	0.222
Mof_H 	H 	0.7101	0.6647	0.2029	0.228
Mof_H 	H 	0.6702	0.6236	0.2178	0.235
Mof_C 	C 	0.8424	0.5404	0.9141	0.388
Mof_C 	C 	0.8532	0.5735	0.8812	-0.168
Mof_C 	C 	0.8134	0.6084	0.8734	0.091
Mof_H 	H 	0.7778	0.6104	0.8883	0.003
Mof_C 	C 	0.8257	0.6402	0.8438	-0.201
Mof_H 	H 	0.7985	0.6638	0.8388	0.086
Mof_C 	C 	0.8784	0.6377	0.8211	0.186
Mof_C 	C 	0.9177	0.6007	0.8293	-0.211
Mof_H 	H 	0.9525	0.5972	0.8138	0.097
Mof_C 	C 	0.9058	0.5712	0.8586	0.101
Mof_H 	H 	0.9334	0.5481	0.8644	0.013
Mof_C 	C 	0.8901	0.6697	0.7892	-0.297
Mof_C 	C 	0.9443	0.6912	0.7807	0.332
Mof_C 	C 	0.8515	0.6848	0.7586	0.321
Mof_C 	C 	0.0007	0.6871	0.8034	-0.824
Mof_H 	H 	0.0209	0.7162	0.8036	0.241
Mof_H 	H 	0.9922	0.6778	0.8309	0.28
Mof_H 	H 	0.0259	0.6645	0.7905	0.246
Mof_C 	C 	0.7897	0.6758	0.7509	-0.719
Mof_H 	H 	0.7806	0.683	0.723	0.23
Mof_H 	H 	0.7816	0.6438	0.7558	0.226
Mof_H 	H 	0.7654	0.6942	0.7687	0.224
Mof_Zn	Zn	0.75241	0.00455	0.46821	1.203
Mof_O 	O 	0.7126	0.0435	0.5056	-0.488
Mof_O 	O 	0.6313	0.003	0.5177	-0.334
Mof_O 	O 	0.7935	0.0452	0.4314	-0.496
Mof_O 	O 	0.8786	0.0106	0.4199	-0.349
Mof_N 	N 	0.5996	0.1971	0.7042	-0.221
Mof_H 	H 	0.6124	0.2052	0.728	0.128
Mof_N 	N 	0.5506	0.2139	0.6869	-0.271
Mof_N 	N 	0.8828	0.213	0.2364	-0.234
Mof_H 	H 	0.8681	0.2274	0.2156	0.137
Mof_N 	N 	0.9406	0.2177	0.2487	-0.287
Mof_C 	C 	0.6631	0.037	0.5229	0.353
Mof_C 	C 	0.643	0.0718	0.5528	-0.166
Mof_C 	C 	0.6792	0.107	0.5644	0.103
Mof_H 	H 	0.7164	0.1105	0.5516	0.003
Mof_C 	C 	0.6633	0.1366	0.5934	-0.214
Mof_H 	H 	0.6895	0.1601	0.6008	0.106
Mof_C 	C 	0.6083	0.1328	0.6123	0.178
Mof_C 	C 	0.57	0.0975	0.6008	-0.205
Mof_H 	H 	0.5329	0.0941	0.6135	0.085
Mof_C 	C 	0.5873	0.0674	0.5701	0.077
Mof_H 	H 	0.5612	0.0444	0.5614	0.004
Mof_C 	C 	0.5952	0.1628	0.6469	-0.279
Mof_C 	C 	0.5457	0.1924	0.6516	0.281
Mof_C 	C 	0.6267	0.1665	0.6807	0.319
Mof_C 	C 	0.4957	0.2002	0.6239	-0.675
Mof_H 	H 	0.4601	0.2071	0.6394	0.205
Mof_H 	H 	0.5049	0.2256	0.6062	0.223
Mof_H 	H 	0.4889	0.1731	0.6078	0.218
Mof_C 	C 	0.6803	0.1426	0.6949	-0.703
Mof_H 	H 	0.6959	0.1238	0.6732	0.22
Mof_H 	H 	0.7101	0.1647	0.7029	0.228
Mof_H 	H 	0.6702	0.1236	0.7178	0.233
Mof_C 	C 	0.8424	0.0404	0.4141	0.389
Mof_C 	C 	0.8532	0.0735	0.3812	-0.172
Mof_C 	C 	0.8134	0.1084	0.3734	0.092
Mof_H 	H 	0.7778	0.1104	0.3883	0.002
Mof_C 	C 	0.8257	0.1402	0.3438	-0.203
Mof_H 	H 	0.7985	0.1638	0.3388	0.087
Mof_C 	C 	0.8784	0.1377	0.3211	0.187
Mof_C 	C 	0.9177	0.1007	0.3293	-0.214
Mof_H 	H 	0.9525	0.0972	0.3138	0.098
Mof_C 	C 	0.9058	0.0712	0.3586	0.103
Mof_H 	H 	0.9334	0.0481	0.3644	0.009
Mof_C 	C 	0.8901	0.1697	0.2892	-0.297
Mof_C 	C 	0.9443	0.1912	0.2807	0.333
Mof_C 	C 	0.8515	0.1848	0.2586	0.321
Mof_C 	C 	0.0007	0.1871	0.3034	-0.826
Mof_H 	H 	0.0209	0.2162	0.3036	0.241
Mof_H 	H 	0.9922	0.1778	0.3309	0.281
Mof_H 	H 	0.0259	0.1645	0.2905	0.247
Mof_C 	C 	0.7897	0.1758	0.2509	-0.716
Mof_H 	H 	0.7806	0.183	0.223	0.229
Mof_H 	H 	0.7816	0.1438	0.2558	0.224
Mof_H 	H 	0.7654	0.1942	0.2687	0.223
Mof_Zn	Zn	0.25241	0.50455	0.46821	1.209
Mof_O 	O 	0.2126	0.5435	0.5056	-0.482
Mof_O 	O 	0.1313	0.503	0.5177	-0.323
Mof_O 	O 	0.2935	0.5452	0.4314	-0.49
Mof_O 	O 	0.3786	0.5106	0.4199	-0.338
Mof_N 	N 	0.0996	0.6971	0.7042	-0.219
Mof_H 	H 	0.1124	0.7052	0.728	0.126
Mof_N 	N 	0.0506	0.7139	0.6869	-0.267
Mof_N 	N 	0.3828	0.713	0.2364	-0.232
Mof_H 	H 	0.3681	0.7274	0.2156	0.135
Mof_N 	N 	0.4406	0.7177	0.2487	-0.282
Mof_C 	C 	0.1631	0.537	0.5229	0.351
Mof_C 	C 	0.143	0.5718	0.5528	-0.158
Mof_C 	C 	0.1792	0.607	0.5644	0.097
Mof_H 	H 	0.2164	0.6105	0.5516	0.005
Mof_C 	C 	0.1633	0.6366	0.5934	-0.204
Mof_H 	H 	0.1895	0.6601	0.6008	0.102
Mof_C 	C 	0.1083	0.6328	0.6123	0.164
Mof_C 	C 	0.07	0.5975	0.6008	-0.194
Mof_H 	H 	0.0329	0.5941	0.6135	0.078
Mof_C 	C 	0.0873	0.5674	0.5701	0.071
Mof_H 	H 	0.0612	0.5444	0.5614	0.006
Mof_C 	C 	0.0952	0.6628	0.6469	-0.254
Mof_C 	C 	0.0457	0.6924	0.6516	0.223
Mof_C 	C 	0.1267	0.6665	0.6807	0.31
Mof_C 	C 	0.9957	0.7002	0.6239	-0.529
Mof_H 	H 	0.9601	0.7071	0.6394	0.169
Mof_H 	H 	0.0049	0.7256	0.6062	0.167
Mof_H 	H 	0.9889	0.6731	0.6078	0.187
Mof_C 	C 	0.1803	0.6426	0.6949	-0.695
Mof_H 	H 	0.1959	0.6238	0.6732	0.22
Mof_H 	H 	0.2101	0.6647	0.7029	0.226
Mof_H 	H 	0.1702	0.6236	0.7178	0.232
Mof_C 	C 	0.3424	0.5404	0.4141	0.386
Mof_C 	C 	0.3532	0.5735	0.3812	-0.165
Mof_C 	C 	0.3134	0.6084	0.3734	0.085
Mof_H 	H 	0.2778	0.6104	0.3883	0.004
Mof_C 	C 	0.3257	0.6402	0.3438	-0.193
Mof_H 	H 	0.2985	0.6638	0.3388	0.083
Mof_C 	C 	0.3784	0.6377	0.3211	0.171
Mof_C 	C 	0.4177	0.6007	0.3293	-0.201
Mof_H 	H 	0.4525	0.5972	0.3138	0.088
Mof_C 	C 	0.4058	0.5712	0.3586	0.093
Mof_H 	H 	0.4334	0.5481	0.3644	0.011
Mof_C 	C 	0.3901	0.6697	0.2892	-0.271
Mof_C 	C 	0.4443	0.6912	0.2807	0.272
Mof_C 	C 	0.3515	0.6848	0.2586	0.31
Mof_C 	C 	0.5007	0.6871	0.3034	-0.674
Mof_H 	H 	0.5209	0.7162	0.3036	0.204
Mof_H 	H 	0.4922	0.6778	0.3309	0.221
Mof_H 	H 	0.5259	0.6645	0.2905	0.209
Mof_C 	C 	0.2897	0.6758	0.2509	-0.707
Mof_H 	H 	0.2806	0.683	0.223	0.226
Mof_H 	H 	0.2816	0.6438	0.2558	0.222
Mof_H 	H 	0.2654	0.6942	0.2687	0.22
Mof_Zn	Zn	0.25241	0.00455	0.96821	1.199
Mof_O 	O 	0.2126	0.0435	0.0056	-0.477
Mof_O 	O 	0.1313	0.003	0.0177	-0.327
Mof_O 	O 	0.2935	0.0452	0.9314	-0.498
Mof_O 	O 	0.3786	0.0106	0.9199	-0.353
Mof_N 	N 	0.0996	0.1971	0.2042	-0.219
Mof_H 	H 	0.1124	0.2052	0.228	0.126
Mof_N 	N 	0.0506	0.2139	0.1869	-0.267
Mof_N 	N 	0.3828	0.213	0.7364	-0.232
Mof_H 	H 	0.3681	0.2274	0.7156	0.135
Mof_N 	N 	0.4406	0.2177	0.7487	-0.282
Mof_C 	C 	0.1631	0.037	0.0229	0.35
Mof_C 	C 	0.143	0.0718	0.0528	-0.158
Mof_C 	C 	0.1792	0.107	0.0644	0.096
Mof_H 	H 	0.2164	0.1105	0.0516	0.008
Mof_C 	C 	0.1633	0.1366	0.0934	-0.204
Mof_H 	H 	0.1895	0.1601	0.1008	0.102
Mof_C 	C 	0.1083	0.1328	0.1123	0.164
Mof_C 	C 	0.07	0.0975	0.1008	-0.195
Mof_H 	H 	0.0329	0.0941	0.1135	0.077
Mof_C 	C 	0.0873	0.0674	0.0701	0.07
Mof_H 	H 	0.0612	0.0444	0.0614	0.004
Mof_C 	C 	0.0952	0.1628	0.1469	-0.254
Mof_C 	C 	0.0457	0.1924	0.1516	0.225
Mof_C 	C 	0.1267	0.1665	0.1807	0.309
Mof_C 	C 	0.9957	0.2002	0.1239	-0.533
Mof_H 	H 	0.9601	0.2071	0.1394	0.17
Mof_H 	H 	0.0049	0.2256	0.1062	0.17
Mof_H 	H 	0.9889	0.1731	0.1078	0.189
Mof_C 	C 	0.1803	0.1426	0.1949	-0.693
Mof_H 	H 	0.1959	0.1238	0.1732	0.217
Mof_H 	H 	0.2101	0.1647	0.2029	0.225
Mof_H 	H 	0.1702	0.1236	0.2178	0.23
Mof_C 	C 	0.3424	0.0404	0.9141	0.388
Mof_C 	C 	0.3532	0.0735	0.8812	-0.17
Mof_C 	C 	0.3134	0.1084	0.8734	0.086
Mof_H 	H 	0.2778	0.1104	0.8883	0.003
Mof_C 	C 	0.3257	0.1402	0.8438	-0.195
Mof_H 	H 	0.2985	0.1638	0.8388	0.083
Mof_C 	C 	0.3784	0.1377	0.8211	0.172
Mof_C 	C 	0.4177	0.1007	0.8293	-0.204
Mof_H 	H 	0.4525	0.0972	0.8138	0.089
Mof_C 	C 	0.4058	0.0712	0.8586	0.095
Mof_H 	H 	0.4334	0.0481	0.8644	0.006
Mof_C 	C 	0.3901	0.1697	0.7892	-0.271
Mof_C 	C 	0.4443	0.1912	0.7807	0.273
Mof_C 	C 	0.3515	0.1848	0.7586	0.31
Mof_C 	C 	0.5007	0.1871	0.8034	-0.674
Mof_H 	H 	0.5209	0.2162	0.8036	0.204
Mof_H 	H 	0.4922	0.1778	0.8309	0.221
Mof_H 	H 	0.5259	0.1645	0.7905	0.21
Mof_C 	C 	0.2897	0.1758	0.7509	-0.705
Mof_H 	H 	0.2806	0.183	0.723	0.226
Mof_H 	H 	0.2816	0.1438	0.7558	0.221
Mof_H 	H 	0.2654	0.1942	0.7687	0.219
Mof_O 	O 	0.7875	0.2053	0.5783	-0.487
Mof_O 	O 	0.8724	0.239	0.5885	-0.335
Mof_N 	N 	0.8857	0.0372	0.773	-0.222
Mof_H 	H 	0.8705	0.0218	0.793	0.132
Mof_N 	N 	0.9435	0.0355	0.7624	-0.273
Mof_C 	C 	0.8374	0.2089	0.5955	0.384
Mof_C 	C 	0.8515	0.1745	0.6272	-0.158
Mof_C 	C 	0.8152	0.1366	0.6349	0.083
Mof_H 	H 	0.7804	0.1326	0.6196	0
Mof_C 	C 	0.8295	0.1054	0.6642	-0.199
Mof_H 	H 	0.8061	0.0791	0.6679	0.078
Mof_C 	C 	0.8794	0.1134	0.6886	0.182
Mof_C 	C 	0.9178	0.1476	0.6804	-0.201
Mof_H 	H 	0.9533	0.1508	0.6952	0.102
Mof_C 	C 	0.9034	0.1783	0.6493	0.089
Mof_H 	H 	0.9299	0.2021	0.6434	0.002
Mof_C 	C 	0.8935	0.0812	0.7208	-0.24
Mof_C 	C 	0.9485	0.0613	0.7314	0.269
Mof_C 	C 	0.8557	0.0639	0.7507	0.269
Mof_C 	C 	0.0072	0.0667	0.7096	-0.628
Mof_H 	H 	0.0377	0.0492	0.7234	0.164
Mof_H 	H 	0.0185	0.0986	0.7093	0.198
Mof_H 	H 	0.0033	0.0559	0.682	0.187
Mof_C 	C 	0.7898	0.0729	0.7566	-0.608
Mof_H 	H 	0.7813	0.0759	0.7852	0.198
Mof_H 	H 	0.7671	0.0478	0.7455	0.188
Mof_H 	H 	0.7789	0.1008	0.7428	0.196
Mof_O 	O 	0.7875	0.7053	0.0783	-0.485
Mof_O 	O 	0.8724	0.739	0.0885	-0.333
Mof_N 	N 	0.8857	0.5372	0.273	-0.223
Mof_H 	H 	0.8705	0.5218	0.293	0.14
Mof_N 	N 	0.9435	0.5355	0.2624	-0.269
Mof_C 	C 	0.8374	0.7089	0.0955	0.384
Mof_C 	C 	0.8515	0.6745	0.1272	-0.158
Mof_C 	C 	0.8152	0.6366	0.1349	0.085
Mof_H 	H 	0.7804	0.6326	0.1196	0.001
Mof_C 	C 	0.8295	0.6054	0.1642	-0.2
Mof_H 	H 	0.8061	0.5791	0.1679	0.082
Mof_C 	C 	0.8794	0.6134	0.1886	0.184
Mof_C 	C 	0.9178	0.6476	0.1804	-0.202
Mof_H 	H 	0.9533	0.6508	0.1952	0.102
Mof_C 	C 	0.9034	0.6783	0.1493	0.09
Mof_H 	H 	0.9299	0.7021	0.1434	0.002
Mof_C 	C 	0.8935	0.5812	0.2208	-0.242
Mof_C 	C 	0.9485	0.5613	0.2314	0.274
Mof_C 	C 	0.8557	0.5639	0.2507	0.274
Mof_C 	C 	0.0072	0.5667	0.2096	-0.637
Mof_H 	H 	0.0377	0.5492	0.2234	0.171
Mof_H 	H 	0.0185	0.5986	0.2093	0.201
Mof_H 	H 	0.0033	0.5559	0.182	0.194
Mof_C 	C 	0.7898	0.5729	0.2566	-0.615
Mof_H 	H 	0.7813	0.5759	0.2852	0.201
Mof_H 	H 	0.7671	0.5478	0.2455	0.194
Mof_H 	H 	0.7789	0.6008	0.2428	0.198
Mof_O 	O 	0.2875	0.2053	0.0783	-0.485
Mof_O 	O 	0.3724	0.239	0.0885	-0.333
Mof_N 	N 	0.3857	0.0372	0.273	-0.222
Mof_H 	H 	0.3705	0.0218	0.293	0.13
Mof_N 	N 	0.4435	0.0355	0.2624	-0.274
Mof_C 	C 	0.3374	0.2089	0.0955	0.382
Mof_C 	C 	0.3515	0.1745	0.1272	-0.156
Mof_C 	C 	0.3152	0.1366	0.1349	0.079
Mof_H 	H 	0.2804	0.1326	0.1196	0.002
Mof_C 	C 	0.3295	0.1054	0.1642	-0.195
Mof_H 	H 	0.3061	0.0791	0.1679	0.076
Mof_C 	C 	0.3794	0.1134	0.1886	0.174
Mof_C 	C 	0.4178	0.1476	0.1804	-0.198
Mof_H 	H 	0.4533	0.1508	0.1952	0.093
Mof_C 	C 	0.4034	0.1783	0.1493	0.084
Mof_H 	H 	0.4299	0.2021	0.1434	0
Mof_C 	C 	0.3935	0.0812	0.2208	-0.231
Mof_C 	C 	0.4485	0.0613	0.2314	0.241
Mof_C 	C 	0.3557	0.0639	0.2507	0.266
Mof_C 	C 	0.5072	0.0667	0.2096	-0.586
Mof_H 	H 	0.5377	0.0492	0.2234	0.156
Mof_H 	H 	0.5185	0.0986	0.2093	0.193
Mof_H 	H 	0.5033	0.0559	0.182	0.182
Mof_C 	C 	0.2898	0.0729	0.2566	-0.605
Mof_H 	H 	0.2813	0.0759	0.2852	0.197
Mof_H 	H 	0.2671	0.0478	0.2455	0.187
Mof_H 	H 	0.2789	0.1008	0.2428	0.195
Mof_O 	O 	0.2875	0.7053	0.5783	-0.487
Mof_O 	O 	0.3724	0.739	0.5885	-0.335
Mof_N 	N 	0.3857	0.5372	0.773	-0.223
Mof_H 	H 	0.3705	0.5218	0.793	0.138
Mof_N 	N 	0.4435	0.5355	0.7624	-0.271
Mof_C 	C 	0.3374	0.7089	0.5955	0.382
Mof_C 	C 	0.3515	0.6745	0.6272	-0.157
Mof_C 	C 	0.3152	0.6366	0.6349	0.081
Mof_H 	H 	0.2804	0.6326	0.6196	0.002
Mof_C 	C 	0.3295	0.6054	0.6642	-0.197
Mof_H 	H 	0.3061	0.5791	0.6679	0.08
Mof_C 	C 	0.3794	0.6134	0.6886	0.176
Mof_C 	C 	0.4178	0.6476	0.6804	-0.2
Mof_H 	H 	0.4533	0.6508	0.6952	0.094
Mof_C 	C 	0.4034	0.6783	0.6493	0.085
Mof_H 	H 	0.4299	0.7021	0.6434	-0.001
Mof_C 	C 	0.3935	0.5812	0.7208	-0.233
Mof_C 	C 	0.4485	0.5613	0.7314	0.246
Mof_C 	C 	0.3557	0.5639	0.7507	0.271
Mof_C 	C 	0.5072	0.5667	0.7096	-0.595
Mof_H 	H 	0.5377	0.5492	0.7234	0.163
Mof_H 	H 	0.5185	0.5986	0.7093	0.196
Mof_H 	H 	0.5033	0.5559	0.682	0.189
Mof_C 	C 	0.2898	0.5729	0.7566	-0.612
Mof_H 	H 	0.2813	0.5759	0.7852	0.201
Mof_H 	H 	0.2671	0.5478	0.7455	0.193
Mof_H 	H 	0.2789	0.6008	0.7428	0.198
Mof_O 	O 	0.2125	0.7947	0.5783	-0.487
Mof_O 	O 	0.1276	0.761	0.5885	-0.335
Mof_N 	N 	0.1143	0.9628	0.773	-0.223
Mof_H 	H 	0.1295	0.9782	0.793	0.146
Mof_N 	N 	0.0565	0.9645	0.7624	-0.265
Mof_C 	C 	0.1626	0.7911	0.5955	0.381
Mof_C 	C 	0.1485	0.8255	0.6272	-0.157
Mof_C 	C 	0.1848	0.8634	0.6349	0.08
Mof_H 	H 	0.2196	0.8674	0.6196	0.003
Mof_C 	C 	0.1705	0.8946	0.6642	-0.195
Mof_H 	H 	0.1939	0.9209	0.6679	0.082
Mof_C 	C 	0.1206	0.8866	0.6886	0.172
Mof_C 	C 	0.0822	0.8524	0.6804	-0.198
Mof_H 	H 	0.0467	0.8492	0.6952	0.087
Mof_C 	C 	0.0966	0.8217	0.6493	0.081
Mof_H 	H 	0.0701	0.7979	0.6434	-0.003
Mof_C 	C 	0.1065	0.9188	0.7208	-0.227
Mof_C 	C 	0.0515	0.9387	0.7314	0.225
Mof_C 	C 	0.1443	0.9361	0.7507	0.274
Mof_C 	C 	0.9928	0.9333	0.7096	-0.562
Mof_H 	H 	0.9623	0.9508	0.7234	0.164
Mof_H 	H 	0.9815	0.9014	0.7093	0.194
Mof_H 	H 	0.9967	0.9441	0.682	0.191
Mof_C 	C 	0.2102	0.9271	0.7566	-0.617
Mof_H 	H 	0.2187	0.9241	0.7852	0.203
Mof_H 	H 	0.2329	0.9522	0.7455	0.199
Mof_H 	H 	0.2211	0.8992	0.7428	0.199
Mof_O 	O 	0.2125	0.2947	0.0783	-0.485
Mof_O 	O 	0.1276	0.261	0.0885	-0.334
Mof_N 	N 	0.1143	0.4628	0.273	-0.222
Mof_H 	H 	0.1295	0.4782	0.293	0.138
Mof_N 	N 	0.0565	0.4645	0.2624	-0.27
Mof_C 	C 	0.1626	0.2911	0.0955	0.381
Mof_C 	C 	0.1485	0.3255	0.1272	-0.155
Mof_C 	C 	0.1848	0.3634	0.1349	0.078
Mof_H 	H 	0.2196	0.3674	0.1196	0.003
Mof_C 	C 	0.1705	0.3946	0.1642	-0.193
Mof_H 	H 	0.1939	0.4209	0.1679	0.078
Mof_C 	C 	0.1206	0.3866	0.1886	0.168
Mof_C 	C 	0.0822	0.3524	0.1804	-0.196
Mof_H 	H 	0.0467	0.3492	0.1952	0.086
Mof_C 	C 	0.0966	0.3217	0.1493	0.08
Mof_H 	H 	0.0701	0.2979	0.1434	-0.002
Mof_C 	C 	0.1065	0.4188	0.2208	-0.225
Mof_C 	C 	0.0515	0.4387	0.2314	0.218
Mof_C 	C 	0.1443	0.4361	0.2507	0.268
Mof_C 	C 	0.9928	0.4333	0.2096	-0.552
Mof_H 	H 	0.9623	0.4508	0.2234	0.156
Mof_H 	H 	0.9815	0.4014	0.2093	0.191
Mof_H 	H 	0.9967	0.4441	0.182	0.184
Mof_C 	C 	0.2102	0.4271	0.2566	-0.609
Mof_H 	H 	0.2187	0.4241	0.2852	0.2
Mof_H 	H 	0.2329	0.4522	0.2455	0.192
Mof_H 	H 	0.2211	0.3992	0.2428	0.197
Mof_O 	O 	0.7125	0.7947	0.0783	-0.485
Mof_O 	O 	0.6276	0.761	0.0885	-0.334
Mof_N 	N 	0.6143	0.9628	0.273	-0.224
Mof_H 	H 	0.6295	0.9782	0.293	0.147
Mof_N 	N 	0.5565	0.9645	0.2624	-0.266
Mof_C 	C 	0.6626	0.7911	0.0955	0.383
Mof_C 	C 	0.6485	0.8255	0.1272	-0.157
Mof_C 	C 	0.6848	0.8634	0.1349	0.083
Mof_H 	H 	0.7196	0.8674	0.1196	0.002
Mof_C 	C 	0.6705	0.8946	0.1642	-0.198
Mof_H 	H 	0.6939	0.9209	0.1679	0.084
Mof_C 	C 	0.6206	0.8866	0.1886	0.179
Mof_C 	C 	0.5822	0.8524	0.1804	-0.201
Mof_H 	H 	0.5467	0.8492	0.1952	0.094
Mof_C 	C 	0.5966	0.8217	0.1493	0.086
Mof_H 	H 	0.5701	0.7979	0.1434	-0.001
Mof_C 	C 	0.6065	0.9188	0.2208	-0.235
Mof_C 	C 	0.5515	0.9387	0.2314	0.252
Mof_C 	C 	0.6443	0.9361	0.2507	0.277
Mof_C 	C 	0.4928	0.9333	0.2096	-0.604
Mof_H 	H 	0.4623	0.9508	0.2234	0.171
Mof_H 	H 	0.4815	0.9014	0.2093	0.199
Mof_H 	H 	0.4967	0.9441	0.182	0.196
Mof_C 	C 	0.7102	0.9271	0.2566	-0.619
Mof_H 	H 	0.7187	0.9241	0.2852	0.203
Mof_H 	H 	0.7329	0.9522	0.2455	0.199
Mof_H 	H 	0.7211	0.8992	0.2428	0.2
Mof_O 	O 	0.7125	0.2947	0.5783	-0.487
Mof_O 	O 	0.6276	0.261	0.5885	-0.335
Mof_N 	N 	0.6143	0.4628	0.773	-0.223
Mof_H 	H 	0.6295	0.4782	0.793	0.138
Mof_N 	N 	0.5565	0.4645	0.7624	-0.271
Mof_C 	C 	0.6626	0.2911	0.5955	0.382
Mof_C 	C 	0.6485	0.3255	0.6272	-0.157
Mof_C 	C 	0.6848	0.3634	0.6349	0.081
Mof_H 	H 	0.7196	0.3674	0.6196	0.002
Mof_C 	C 	0.6705	0.3946	0.6642	-0.197
Mof_H 	H 	0.6939	0.4209	0.6679	0.08
Mof_C 	C 	0.6206	0.3866	0.6886	0.176
Mof_C 	C 	0.5822	0.3524	0.6804	-0.2
Mof_H 	H 	0.5467	0.3492	0.6952	0.094
Mof_C 	C 	0.5966	0.3217	0.6493	0.085
Mof_H 	H 	0.5701	0.2979	0.6434	-0.001
Mof_C 	C 	0.6065	0.4188	0.7208	-0.233
Mof_C 	C 	0.5515	0.4387	0.7314	0.246
Mof_C 	C 	0.6443	0.4361	0.7507	0.271
Mof_C 	C 	0.4928	0.4333	0.7096	-0.595
Mof_H 	H 	0.4623	0.4508	0.7234	0.164
Mof_H 	H 	0.4815	0.4014	0.7093	0.196
Mof_H 	H 	0.4967	0.4441	0.682	0.189
Mof_C 	C 	0.7102	0.4271	0.7566	-0.612
Mof_H 	H 	0.7187	0.4241	0.7852	0.2
Mof_H 	H 	0.7329	0.4522	0.7455	0.193
Mof_H 	H 	0.7211	0.3992	0.7428	0.198
Mof_O 	O 	0.0375	0.0447	0.8283	-0.502
Mof_O 	O 	0.1224	0.011	0.8385	-0.35
Mof_N 	N 	0.1357	0.2128	0.023	-0.216
Mof_H 	H 	0.1205	0.2282	0.043	0.137
Mof_N 	N 	0.1935	0.2145	0.0124	-0.258
Mof_C 	C 	0.0874	0.0411	0.8455	0.385
Mof_C 	C 	0.1015	0.0755	0.8772	-0.165
Mof_C 	C 	0.0652	0.1134	0.8849	0.081
Mof_H 	H 	0.0304	0.1174	0.8696	-0.007
Mof_C 	C 	0.0795	0.1446	0.9142	-0.199
Mof_H 	H 	0.0561	0.1709	0.9179	0.075
Mof_C 	C 	0.1294	0.1366	0.9386	0.172
Mof_C 	C 	0.1678	0.1024	0.9304	-0.202
Mof_H 	H 	0.2033	0.0992	0.9452	0.091
Mof_C 	C 	0.1534	0.0717	0.8993	0.085
Mof_H 	H 	0.1799	0.0479	0.8934	-0.006
Mof_C 	C 	0.1435	0.1688	0.9708	-0.232
Mof_C 	C 	0.1985	0.1887	0.9814	0.223
Mof_C 	C 	0.1057	0.1861	0.0007	0.253
Mof_C 	C 	0.2572	0.1833	0.9596	-0.574
Mof_H 	H 	0.2877	0.2008	0.9734	0.152
Mof_H 	H 	0.2685	0.1514	0.9593	0.187
Mof_H 	H 	0.2533	0.1941	0.932	0.182
Mof_C 	C 	0.0398	0.1771	0.0066	-0.471
Mof_H 	H 	0.0313	0.1741	0.0352	0.159
Mof_H 	H 	0.0171	0.2022	0.9955	0.134
Mof_H 	H 	0.0289	0.1492	0.9928	0.139
Mof_O 	O 	0.0375	0.5447	0.3283	-0.497
Mof_O 	O 	0.1224	0.511	0.3385	-0.337
Mof_N 	N 	0.1357	0.7128	0.523	-0.221
Mof_H 	H 	0.1205	0.7282	0.543	0.137
Mof_N 	N 	0.1935	0.7145	0.5124	-0.271
Mof_C 	C 	0.0874	0.5411	0.3455	0.383
Mof_C 	C 	0.1015	0.5755	0.3772	-0.161
Mof_C 	C 	0.0652	0.6134	0.3849	0.081
Mof_H 	H 	0.0304	0.6174	0.3696	-0.006
Mof_C 	C 	0.0795	0.6446	0.4142	-0.199
Mof_H 	H 	0.0561	0.6709	0.4179	0.076
Mof_C 	C 	0.1294	0.6366	0.4386	0.175
Mof_C 	C 	0.1678	0.6024	0.4304	-0.2
Mof_H 	H 	0.2033	0.5992	0.4452	0.094
Mof_C 	C 	0.1534	0.5717	0.3993	0.086
Mof_H 	H 	0.1799	0.5479	0.3934	-0.001
Mof_C 	C 	0.1435	0.6688	0.4708	-0.232
Mof_C 	C 	0.1985	0.6887	0.4814	0.245
Mof_C 	C 	0.1057	0.6861	0.5007	0.265
Mof_C 	C 	0.2572	0.6833	0.4596	-0.594
Mof_H 	H 	0.2877	0.7008	0.4734	0.163
Mof_H 	H 	0.2685	0.6514	0.4593	0.196
Mof_H 	H 	0.2533	0.6941	0.432	0.188
Mof_C 	C 	0.0398	0.6771	0.5066	-0.595
Mof_H 	H 	0.0313	0.6741	0.5352	0.192
Mof_H 	H 	0.0171	0.7022	0.4955	0.182
Mof_H 	H 	0.0289	0.6492	0.4928	0.187
Mof_O 	O 	0.5375	0.0447	0.3283	-0.493
Mof_O 	O 	0.6224	0.011	0.3385	-0.349
Mof_N 	N 	0.6357	0.2128	0.523	-0.223
Mof_H 	H 	0.6205	0.2282	0.543	0.138
Mof_N 	N 	0.6935	0.2145	0.5124	-0.271
Mof_C 	C 	0.5874	0.0411	0.3455	0.385
Mof_C 	C 	0.6015	0.0755	0.3772	-0.162
Mof_C 	C 	0.5652	0.1134	0.3849	0.083
Mof_H 	H 	0.5304	0.1174	0.3696	0.001
Mof_C 	C 	0.5795	0.1446	0.4142	-0.199
Mof_H 	H 	0.5561	0.1709	0.4179	0.081
Mof_C 	C 	0.6294	0.1366	0.4386	0.178
Mof_C 	C 	0.6678	0.1024	0.4304	-0.203
Mof_H 	H 	0.7033	0.0992	0.4452	0.095
Mof_C 	C 	0.6534	0.0717	0.3993	0.087
Mof_H 	H 	0.6799	0.0479	0.3934	-0.006
Mof_C 	C 	0.6435	0.1688	0.4708	-0.234
Mof_C 	C 	0.6985	0.1887	0.4814	0.247
Mof_C 	C 	0.6057	0.1861	0.5007	0.271
Mof_C 	C 	0.7572	0.1833	0.4596	-0.597
Mof_H 	H 	0.7877	0.2008	0.4734	0.165
Mof_H 	H 	0.7685	0.1514	0.4593	0.197
Mof_H 	H 	0.7533	0.1941	0.432	0.19
Mof_C 	C 	0.5398	0.1771	0.5066	-0.612
Mof_H 	H 	0.5313	0.1741	0.5352	0.2
Mof_H 	H 	0.5171	0.2022	0.4955	0.193
Mof_H 	H 	0.5289	0.1492	0.4928	0.197
Mof_O 	O 	0.5375	0.5447	0.8283	-0.487
Mof_O 	O 	0.6224	0.511	0.8385	-0.335
Mof_N 	N 	0.6357	0.7128	0.023	-0.217
Mof_H 	H 	0.6205	0.7282	0.043	0.139
Mof_N 	N 	0.6935	0.7145	0.0124	-0.258
Mof_C 	C 	0.5874	0.5411	0.8455	0.382
Mof_C 	C 	0.6015	0.5755	0.8772	-0.157
Mof_C 	C 	0.5652	0.6134	0.8849	0.079
Mof_H 	H 	0.5304	0.6174	0.8696	0.002
Mof_C 	C 	0.5795	0.6446	0.9142	-0.194
Mof_H 	H 	0.5561	0.6709	0.9179	0.079
Mof_C 	C 	0.6294	0.6366	0.9386	0.172
Mof_C 	C 	0.6678	0.6024	0.9304	-0.198
Mof_H 	H 	0.7033	0.5992	0.9452	0.091
Mof_C 	C 	0.6534	0.5717	0.8993	0.083
Mof_H 	H 	0.6799	0.5479	0.8934	-0
Mof_C 	C 	0.6435	0.6688	0.9708	-0.233
Mof_C 	C 	0.6985	0.6887	0.9814	0.225
Mof_C 	C 	0.6057	0.6861	0.0007	0.259
Mof_C 	C 	0.7572	0.6833	0.9596	-0.578
Mof_H 	H 	0.7877	0.7008	0.9734	0.155
Mof_H 	H 	0.7685	0.6514	0.9593	0.189
Mof_H 	H 	0.7533	0.6941	0.932	0.184
Mof_C 	C 	0.5398	0.6771	0.0066	-0.487
Mof_H 	H 	0.5313	0.6741	0.0352	0.168
Mof_H 	H 	0.5171	0.7022	0.9955	0.145
Mof_H 	H 	0.5289	0.6492	0.9928	0.15
Mof_O 	O 	0.4625	0.4553	0.8283	-0.487
Mof_O 	O 	0.3776	0.489	0.8385	-0.335
Mof_N 	N 	0.3643	0.2872	0.023	-0.217
Mof_H 	H 	0.3795	0.2718	0.043	0.138
Mof_N 	N 	0.3065	0.2855	0.0124	-0.257
Mof_C 	C 	0.4126	0.4589	0.8455	0.382
Mof_C 	C 	0.3985	0.4245	0.8772	-0.156
Mof_C 	C 	0.4348	0.3866	0.8849	0.079
Mof_H 	H 	0.4696	0.3826	0.8696	0.002
Mof_C 	C 	0.4205	0.3554	0.9142	-0.194
Mof_H 	H 	0.4439	0.3291	0.9179	0.078
Mof_C 	C 	0.3706	0.3634	0.9386	0.172
Mof_C 	C 	0.3322	0.3976	0.9304	-0.198
Mof_H 	H 	0.2967	0.4008	0.9452	0.091
Mof_C 	C 	0.3466	0.4283	0.8993	0.082
Mof_H 	H 	0.3201	0.4521	0.8934	-0
Mof_C 	C 	0.3565	0.3312	0.9708	-0.233
Mof_C 	C 	0.3015	0.3113	0.9814	0.223
Mof_C 	C 	0.3943	0.3139	0.0007	0.259
Mof_C 	C 	0.2428	0.3167	0.9596	-0.573
Mof_H 	H 	0.2123	0.2992	0.9734	0.151
Mof_H 	H 	0.2315	0.3486	0.9593	0.186
Mof_H 	H 	0.2467	0.3059	0.932	0.182
Mof_C 	C 	0.4602	0.3229	0.0066	-0.486
Mof_H 	H 	0.4687	0.3259	0.0352	0.167
Mof_H 	H 	0.4829	0.2978	0.9955	0.145
Mof_H 	H 	0.4711	0.3508	0.9928	0.15
Mof_O 	O 	0.4625	0.9553	0.3283	-0.479
Mof_O 	O 	0.3776	0.989	0.3385	-0.32
Mof_N 	N 	0.3643	0.7872	0.523	-0.223
Mof_H 	H 	0.3795	0.7718	0.543	0.138
Mof_N 	N 	0.3065	0.7855	0.5124	-0.271
Mof_C 	C 	0.4126	0.9589	0.3455	0.379
Mof_C 	C 	0.3985	0.9245	0.3772	-0.152
Mof_C 	C 	0.4348	0.8866	0.3849	0.079
Mof_H 	H 	0.4696	0.8826	0.3696	0.003
Mof_C 	C 	0.4205	0.8554	0.4142	-0.195
Mof_H 	H 	0.4439	0.8291	0.4179	0.079
Mof_C 	C 	0.3706	0.8634	0.4386	0.175
Mof_C 	C 	0.3322	0.8976	0.4304	-0.196
Mof_H 	H 	0.2967	0.9008	0.4452	0.093
Mof_C 	C 	0.3466	0.9283	0.3993	0.082
Mof_H 	H 	0.3201	0.9521	0.3934	0.005
Mof_C 	C 	0.3565	0.8312	0.4708	-0.233
Mof_C 	C 	0.3015	0.8113	0.4814	0.245
Mof_C 	C 	0.3943	0.8139	0.5007	0.271
Mof_C 	C 	0.2428	0.8167	0.4596	-0.593
Mof_H 	H 	0.2123	0.7992	0.4734	0.162
Mof_H 	H 	0.2315	0.8486	0.4593	0.195
Mof_H 	H 	0.2467	0.8059	0.432	0.188
Mof_C 	C 	0.4602	0.8229	0.5066	-0.612
Mof_H 	H 	0.4687	0.8259	0.5352	0.2
Mof_H 	H 	0.4829	0.7978	0.4955	0.193
Mof_H 	H 	0.4711	0.8508	0.4928	0.198
Mof_O 	O 	0.9625	0.4553	0.3283	-0.475
Mof_O 	O 	0.8776	0.489	0.3385	-0.333
Mof_N 	N 	0.8643	0.2872	0.523	-0.224
Mof_H 	H 	0.8795	0.2718	0.543	0.14
Mof_N 	N 	0.8065	0.2855	0.5124	-0.271
Mof_C 	C 	0.9126	0.4589	0.3455	0.381
Mof_C 	C 	0.8985	0.4245	0.3772	-0.153
Mof_C 	C 	0.9348	0.3866	0.3849	0.081
Mof_H 	H 	0.9696	0.3826	0.3696	0.01
Mof_C 	C 	0.9205	0.3554	0.4142	-0.194
Mof_H 	H 	0.9439	0.3291	0.4179	0.084
Mof_C 	C 	0.8706	0.3634	0.4386	0.178
Mof_C 	C 	0.8322	0.3976	0.4304	-0.199
Mof_H 	H 	0.7967	0.4008	0.4452	0.094
Mof_C 	C 	0.8466	0.4283	0.3993	0.084
Mof_H 	H 	0.8201	0.4521	0.3934	-0
Mof_C 	C 	0.8565	0.3312	0.4708	-0.235
Mof_C 	C 	0.8015	0.3113	0.4814	0.247
Mof_C 	C 	0.8943	0.3139	0.5007	0.278
Mof_C 	C 	0.7428	0.3167	0.4596	-0.596
Mof_H 	H 	0.7123	0.2992	0.4734	0.164
Mof_H 	H 	0.7315	0.3486	0.4593	0.196
Mof_H 	H 	0.7467	0.3059	0.432	0.189
Mof_C 	C 	0.9602	0.3229	0.5066	-0.63
Mof_H 	H 	0.9687	0.3259	0.5352	0.21
Mof_H 	H 	0.9829	0.2978	0.4955	0.205
Mof_H 	H 	0.9711	0.3508	0.4928	0.209
Mof_O 	O 	0.9625	0.9553	0.8283	-0.466
Mof_O 	O 	0.8776	0.989	0.8385	-0.318
Mof_N 	N 	0.8643	0.7872	0.023	-0.218
Mof_H 	H 	0.8795	0.7718	0.043	0.14
Mof_N 	N 	0.8065	0.7855	0.0124	-0.257
Mof_C 	C 	0.9126	0.9589	0.8455	0.377
Mof_C 	C 	0.8985	0.9245	0.8772	-0.147
Mof_C 	C 	0.9348	0.8866	0.8849	0.077
Mof_H 	H 	0.9696	0.8826	0.8696	0.011
Mof_C 	C 	0.9205	0.8554	0.9142	-0.19
Mof_H 	H 	0.9439	0.8291	0.9179	0.082
Mof_C 	C 	0.8706	0.8634	0.9386	0.172
Mof_C 	C 	0.8322	0.8976	0.9304	-0.194
Mof_H 	H 	0.7967	0.9008	0.9452	0.09
Mof_C 	C 	0.8466	0.9283	0.8993	0.079
Mof_H 	H 	0.8201	0.9521	0.8934	0.005
Mof_C 	C 	0.8565	0.8312	0.9708	-0.234
Mof_C 	C 	0.8015	0.8113	0.9814	0.225
Mof_C 	C 	0.8943	0.8139	0.0007	0.266
Mof_C 	C 	0.7428	0.8167	0.9596	-0.577
Mof_H 	H 	0.7123	0.7992	0.9734	0.153
Mof_H 	H 	0.7315	0.8486	0.9593	0.188
Mof_H 	H 	0.7467	0.8059	0.932	0.183
Mof_C 	C 	0.9602	0.8229	0.0066	-0.508
Mof_H 	H 	0.9687	0.8259	0.0352	0.177
Mof_H 	H 	0.9829	0.7978	0.9955	0.158
Mof_H 	H 	0.9711	0.8508	0.9928	0.163
Mof_Zn	Zn	0.75	0.25	0.54552	1.213
Mof_Zn	Zn	0.75	0.75	0.04552	1.214
Mof_Zn	Zn	0.25	0.75	0.54552	1.213
Mof_Zn	Zn	0.25	0.25	0.04552	1.214
Mof_Zn	Zn	1.33613e-32	0	0.79552	1.199
Mof_Zn	Zn	1.63113e-33	0.5	0.29552	1.206
Mof_Zn	Zn	0.5	0.5	0.79552	1.213
Mof_Zn	Zn	0.5	4.48518e-33	0.29552	1.206
Mof_Zn	Zn	0.50241	0.74545	0.71821	1.209
Mof_O 	O 	0.4626	0.7065	0.7556	-0.482
Mof_O 	O 	0.3813	0.747	0.7677	-0.321
Mof_O 	O 	0.5435	0.7048	0.6814	-0.49
Mof_O 	O 	0.6286	0.7394	0.6699	-0.338
Mof_N 	N 	0.3496	0.5529	0.9542	-0.22
Mof_H 	H 	0.3624	0.5448	0.978	0.12
Mof_N 	N 	0.3006	0.5361	0.9369	-0.273
Mof_N 	N 	0.6328	0.537	0.4864	-0.232
Mof_H 	H 	0.6181	0.5226	0.4656	0.135
Mof_N 	N 	0.6906	0.5323	0.4987	-0.282
Mof_C 	C 	0.4131	0.713	0.7729	0.352
Mof_C 	C 	0.393	0.6782	0.8028	-0.161
Mof_C 	C 	0.4292	0.643	0.8144	0.102
Mof_H 	H 	0.4664	0.6395	0.8016	0.004
Mof_C 	C 	0.4133	0.6134	0.8434	-0.211
Mof_H 	H 	0.4395	0.5899	0.8508	0.105
Mof_C 	C 	0.3583	0.6172	0.8623	0.177
Mof_C 	C 	0.32	0.6525	0.8508	-0.2
Mof_H 	H 	0.2829	0.6559	0.8635	0.085
Mof_C 	C 	0.3373	0.6826	0.8201	0.077
Mof_H 	H 	0.3112	0.7056	0.8114	0.009
Mof_C 	C 	0.3452	0.5872	0.8969	-0.276
Mof_C 	C 	0.2957	0.5576	0.9016	0.28
Mof_C 	C 	0.3767	0.5835	0.9307	0.314
Mof_C 	C 	0.2457	0.5498	0.8739	-0.674
Mof_H 	H 	0.2101	0.5429	0.8894	0.205
Mof_H 	H 	0.2549	0.5244	0.8562	0.223
Mof_H 	H 	0.2389	0.5769	0.8578	0.218
Mof_C 	C 	0.4303	0.6074	0.9449	-0.695
Mof_H 	H 	0.4459	0.6262	0.9232	0.22
Mof_H 	H 	0.4601	0.5853	0.9529	0.223
Mof_H 	H 	0.4202	0.6264	0.9678	0.228
Mof_C 	C 	0.5924	0.7096	0.6641	0.386
Mof_C 	C 	0.6032	0.6765	0.6312	-0.165
Mof_C 	C 	0.5634	0.6416	0.6234	0.085
Mof_H 	H 	0.5278	0.6396	0.6383	0.004
Mof_C 	C 	0.5757	0.6098	0.5938	-0.193
Mof_H 	H 	0.5485	0.5862	0.5888	0.083
Mof_C 	C 	0.6284	0.6123	0.5711	0.171
Mof_C 	C 	0.6677	0.6493	0.5793	-0.201
Mof_H 	H 	0.7025	0.6528	0.5638	0.088
Mof_C 	C 	0.6558	0.6788	0.6086	0.093
Mof_H 	H 	0.6834	0.7019	0.6144	0.011
Mof_C 	C 	0.6401	0.5803	0.5392	-0.271
Mof_C 	C 	0.6943	0.5588	0.5307	0.272
Mof_C 	C 	0.6015	0.5652	0.5086	0.311
Mof_C 	C 	0.7507	0.5629	0.5534	-0.673
Mof_H 	H 	0.7709	0.5338	0.5536	0.203
Mof_H 	H 	0.7422	0.5722	0.5809	0.22
Mof_H 	H 	0.7759	0.5855	0.5405	0.209
Mof_C 	C 	0.5397	0.5742	0.5009	-0.707
Mof_H 	H 	0.5306	0.567	0.473	0.227
Mof_H 	H 	0.5316	0.6062	0.5058	0.223
Mof_H 	H 	0.5154	0.5558	0.5187	0.221
Mof_Zn	Zn	0.50241	0.24545	0.21821	1.209
Mof_O 	O 	0.4626	0.2065	0.2556	-0.482
Mof_O 	O 	0.3813	0.247	0.2677	-0.321
Mof_O 	O 	0.5435	0.2048	0.1814	-0.49
Mof_O 	O 	0.6286	0.2394	0.1699	-0.338
Mof_N 	N 	0.3496	0.0529	0.4542	-0.221
Mof_H 	H 	0.3624	0.0448	0.478	0.121
Mof_N 	N 	0.3006	0.0361	0.4369	-0.276
Mof_N 	N 	0.6328	0.037	0.9864	-0.239
Mof_H 	H 	0.6181	0.0226	0.9656	0.126
Mof_N 	N 	0.6906	0.0323	0.9987	-0.299
Mof_C 	C 	0.4131	0.213	0.2729	0.352
Mof_C 	C 	0.393	0.1782	0.3028	-0.16
Mof_C 	C 	0.4292	0.143	0.3144	0.101
Mof_H 	H 	0.4664	0.1395	0.3016	0.004
Mof_C 	C 	0.4133	0.1134	0.3434	-0.21
Mof_H 	H 	0.4395	0.0899	0.3508	0.103
Mof_C 	C 	0.3583	0.1172	0.3623	0.175
Mof_C 	C 	0.32	0.1525	0.3508	-0.199
Mof_H 	H 	0.2829	0.1559	0.3635	0.085
Mof_C 	C 	0.3373	0.1826	0.3201	0.076
Mof_H 	H 	0.3112	0.2056	0.3114	0.009
Mof_C 	C 	0.3452	0.0872	0.3969	-0.276
Mof_C 	C 	0.2957	0.0576	0.4016	0.273
Mof_C 	C 	0.3767	0.0835	0.4307	0.315
Mof_C 	C 	0.2457	0.0498	0.3739	-0.662
Mof_H 	H 	0.2101	0.0429	0.3894	0.197
Mof_H 	H 	0.2549	0.0244	0.3562	0.213
Mof_H 	H 	0.2389	0.0769	0.3578	0.214
Mof_C 	C 	0.4303	0.1074	0.4449	-0.7
Mof_H 	H 	0.4459	0.1262	0.4232	0.221
Mof_H 	H 	0.4601	0.0853	0.4529	0.224
Mof_H 	H 	0.4202	0.1264	0.4678	0.233
Mof_C 	C 	0.5924	0.2096	0.1641	0.386
Mof_C 	C 	0.6032	0.1765	0.1312	-0.165
Mof_C 	C 	0.5634	0.1416	0.1234	0.085
Mof_H 	H 	0.5278	0.1396	0.1383	0.004
Mof_C 	C 	0.5757	0.1098	0.0938	-0.193
Mof_H 	H 	0.5485	0.0862	0.0888	0.082
Mof_C 	C 	0.6284	0.1123	0.0711	0.172
Mof_C 	C 	0.6677	0.1493	0.0793	-0.201
Mof_H 	H 	0.7025	0.1528	0.0638	0.09
Mof_C 	C 	0.6558	0.1788	0.1086	0.094
Mof_H 	H 	0.6834	0.2019	0.1144	0.011
Mof_C 	C 	0.6401	0.0803	0.0392	-0.272
Mof_C 	C 	0.6943	0.0588	0.0307	0.289
Mof_C 	C 	0.6015	0.0652	0.0086	0.309
Mof_C 	C 	0.7507	0.0629	0.0534	-0.684
Mof_H 	H 	0.7709	0.0338	0.0536	0.204
Mof_H 	H 	0.7422	0.0722	0.0809	0.222
Mof_H 	H 	0.7759	0.0855	0.0405	0.215
Mof_C 	C 	0.5397	0.0742	0.0009	-0.647
Mof_H 	H 	0.5306	0.067	0.973	0.196
Mof_H 	H 	0.5316	0.1062	0.0058	0.211
Mof_H 	H 	0.5154	0.0558	0.0187	0.204
Mof_Zn	Zn	0.00241	0.74545	0.21821	1.201
Mof_O 	O 	0.9626	0.7065	0.2556	-0.472
Mof_O 	O 	0.8813	0.747	0.2677	-0.318
Mof_O 	O 	0.0435	0.7048	0.1814	-0.5
Mof_O 	O 	0.1286	0.7394	0.1699	-0.341
Mof_N 	N 	0.8496	0.5529	0.4542	-0.223
Mof_H 	H 	0.8624	0.5448	0.478	0.129
Mof_N 	N 	0.8006	0.5361	0.4369	-0.271
Mof_N 	N 	0.1328	0.537	0.9864	-0.239
Mof_H 	H 	0.1181	0.5226	0.9656	0.133
Mof_N 	N 	0.1906	0.5323	0.9987	-0.295
Mof_C 	C 	0.9131	0.713	0.2729	0.352
Mof_C 	C 	0.893	0.6782	0.3028	-0.159
Mof_C 	C 	0.9292	0.643	0.3144	0.103
Mof_H 	H 	0.9664	0.6395	0.3016	0.009
Mof_C 	C 	0.9133	0.6134	0.3434	-0.212
Mof_H 	H 	0.9395	0.5899	0.3508	0.111
Mof_C 	C 	0.8583	0.6172	0.3623	0.18
Mof_C 	C 	0.82	0.6525	0.3508	-0.202
Mof_H 	H 	0.7829	0.6559	0.3635	0.086
Mof_C 	C 	0.8373	0.6826	0.3201	0.077
Mof_H 	H 	0.8112	0.7056	0.3114	0.009
Mof_C 	C 	0.8452	0.5872	0.3969	-0.281
Mof_C 	C 	0.7957	0.5576	0.4016	0.281
Mof_C 	C 	0.8767	0.5835	0.4307	0.328
Mof_C 	C 	0.7457	0.5498	0.3739	-0.676
Mof_H 	H 	0.7101	0.5429	0.3894	0.205
Mof_H 	H 	0.7549	0.5244	0.3562	0.224
Mof_H 	H 	0.7389	0.5769	0.3578	0.218
Mof_C 	C 	0.9303	0.6074	0.4449	-0.724
Mof_H 	H 	0.9459	0.6262	0.4232	0.233
Mof_H 	H 	0.9601	0.5853	0.4529	0.241
Mof_H 	H 	0.9202	0.6264	0.4678	0.244
Mof_C 	C 	0.0924	0.7096	0.1641	0.387
Mof_C 	C 	0.1032	0.6765	0.1312	-0.169
Mof_C 	C 	0.0634	0.6416	0.1234	0.087
Mof_H 	H 	0.0278	0.6396	0.1383	-0.002
Mof_C 	C 	0.0757	0.6098	0.0938	-0.196
Mof_H 	H 	0.0485	0.5862	0.0888	0.081
Mof_C 	C 	0.1284	0.6123	0.0711	0.174
Mof_C 	C 	0.1677	0.6493	0.0793	-0.203
Mof_H 	H 	0.2025	0.6528	0.0638	0.091
Mof_C 	C 	0.1558	0.6788	0.1086	0.096
Mof_H 	H 	0.1834	0.7019	0.1144	0.01
Mof_C 	C 	0.1401	0.5803	0.0392	-0.272
Mof_C 	C 	0.1943	0.5588	0.0307	0.293
Mof_C 	C 	0.1015	0.5652	0.0086	0.308
Mof_C 	C 	0.2507	0.5629	0.0534	-0.691
Mof_H 	H 	0.2709	0.5338	0.0536	0.21
Mof_H 	H 	0.2422	0.5722	0.0809	0.225
Mof_H 	H 	0.2759	0.5855	0.0405	0.218
Mof_C 	C 	0.0397	0.5742	0.0009	-0.639
Mof_H 	H 	0.0306	0.567	0.973	0.192
Mof_H 	H 	0.0316	0.6062	0.0058	0.205
Mof_H 	H 	0.0154	0.5558	0.0187	0.199
Mof_Zn	Zn	0.00241	0.24545	0.71821	1.201
Mof_O 	O 	0.9626	0.2065	0.7556	-0.471
Mof_O 	O 	0.8813	0.247	0.7677	-0.318
Mof_O 	O 	0.0435	0.2048	0.6814	-0.5
Mof_O 	O 	0.1286	0.2394	0.6699	-0.341
Mof_N 	N 	0.8496	0.0529	0.9542	-0.221
Mof_H 	H 	0.8624	0.0448	0.978	0.115
Mof_N 	N 	0.8006	0.0361	0.9369	-0.278
Mof_N 	N 	0.1328	0.037	0.4864	-0.229
Mof_H 	H 	0.1181	0.0226	0.4656	0.125
Mof_N 	N 	0.1906	0.0323	0.4987	-0.287
Mof_C 	C 	0.9131	0.213	0.7729	0.352
Mof_C 	C 	0.893	0.1782	0.8028	-0.158
Mof_C 	C 	0.9292	0.143	0.8144	0.101
Mof_H 	H 	0.9664	0.1395	0.8016	0.01
Mof_C 	C 	0.9133	0.1134	0.8434	-0.209
Mof_H 	H 	0.9395	0.0899	0.8508	0.108
Mof_C 	C 	0.8583	0.1172	0.8623	0.176
Mof_C 	C 	0.82	0.1525	0.8508	-0.199
Mof_H 	H 	0.7829	0.1559	0.8635	0.085
Mof_C 	C 	0.8373	0.1826	0.8201	0.075
Mof_H 	H 	0.8112	0.2056	0.8114	0.01
Mof_C 	C 	0.8452	0.0872	0.8969	-0.276
Mof_C 	C 	0.7957	0.0576	0.9016	0.273
Mof_C 	C 	0.8767	0.0835	0.9307	0.317
Mof_C 	C 	0.7457	0.0498	0.8739	-0.662
Mof_H 	H 	0.7101	0.0429	0.8894	0.197
Mof_H 	H 	0.7549	0.0244	0.8562	0.214
Mof_H 	H 	0.7389	0.0769	0.8578	0.214
Mof_C 	C 	0.9303	0.1074	0.9449	-0.708
Mof_H 	H 	0.9459	0.1262	0.9232	0.229
Mof_H 	H 	0.9601	0.0853	0.9529	0.232
Mof_H 	H 	0.9202	0.1264	0.9678	0.235
Mof_C 	C 	0.0924	0.2096	0.6641	0.386
Mof_C 	C 	0.1032	0.1765	0.6312	-0.168
Mof_C 	C 	0.0634	0.1416	0.6234	0.083
Mof_H 	H 	0.0278	0.1396	0.6383	-0.002
Mof_C 	C 	0.0757	0.1098	0.5938	-0.193
Mof_H 	H 	0.0485	0.0862	0.5888	0.077
Mof_C 	C 	0.1284	0.1123	0.5711	0.167
Mof_C 	C 	0.1677	0.1493	0.5793	-0.2
Mof_H 	H 	0.2025	0.1528	0.5638	0.088
Mof_C 	C 	0.1558	0.1788	0.6086	0.092
Mof_H 	H 	0.1834	0.2019	0.6144	0.011
Mof_C 	C 	0.1401	0.0803	0.5392	-0.266
Mof_C 	C 	0.1943	0.0588	0.5307	0.266
Mof_C 	C 	0.1015	0.0652	0.5086	0.295
Mof_C 	C 	0.2507	0.0629	0.5534	-0.664
Mof_H 	H 	0.2709	0.0338	0.5536	0.196
Mof_H 	H 	0.2422	0.0722	0.5809	0.217
Mof_H 	H 	0.2759	0.0855	0.5405	0.206
Mof_C 	C 	0.0397	0.0742	0.5009	-0.677
Mof_H 	H 	0.0306	0.067	0.473	0.211
Mof_H 	H 	0.0316	0.1062	0.5058	0.209
Mof_H 	H 	0.0154	0.0558	0.5187	0.202
Mof_Zn	Zn	0.74759	0.99545	0.96821	1.212
Mof_O 	O 	0.7874	0.9565	0.0056	-0.465
Mof_O 	O 	0.8687	0.997	0.0177	-0.297
Mof_O 	O 	0.7065	0.9548	0.9314	-0.487
Mof_O 	O 	0.6214	0.9894	0.9199	-0.326
Mof_N 	N 	0.9004	0.8029	0.2042	-0.223
Mof_H 	H 	0.8876	0.7948	0.228	0.13
Mof_N 	N 	0.9494	0.7861	0.1869	-0.275
Mof_N 	N 	0.6172	0.787	0.7364	-0.232
Mof_H 	H 	0.6319	0.7726	0.7156	0.135
Mof_N 	N 	0.5594	0.7823	0.7487	-0.282
Mof_C 	C 	0.8369	0.963	0.0229	0.351
Mof_C 	C 	0.857	0.9282	0.0528	-0.154
Mof_C 	C 	0.8208	0.893	0.0644	0.104
Mof_H 	H 	0.7836	0.8895	0.0516	0.007
Mof_C 	C 	0.8367	0.8634	0.0934	-0.215
Mof_H 	H 	0.8105	0.8399	0.1008	0.107
Mof_C 	C 	0.8917	0.8672	0.1123	0.19
Mof_C 	C 	0.93	0.9025	0.1008	-0.202
Mof_H 	H 	0.9671	0.9059	0.1135	0.093
Mof_C 	C 	0.9127	0.9326	0.0701	0.081
Mof_H 	H 	0.9388	0.9556	0.0614	0.019
Mof_C 	C 	0.9048	0.8372	0.1469	-0.302
Mof_C 	C 	0.9543	0.8076	0.1516	0.338
Mof_C 	C 	0.8733	0.8335	0.1807	0.331
Mof_C 	C 	0.0043	0.7998	0.1239	-0.822
Mof_H 	H 	0.0399	0.7929	0.1394	0.242
Mof_H 	H 	0.9951	0.7744	0.1062	0.282
Mof_H 	H 	0.0111	0.8269	0.1078	0.252
Mof_C 	C 	0.8197	0.8574	0.1949	-0.717
Mof_H 	H 	0.8041	0.8762	0.1732	0.228
Mof_H 	H 	0.7899	0.8353	0.2029	0.231
Mof_H 	H 	0.8298	0.8764	0.2178	0.239
Mof_C 	C 	0.6576	0.9596	0.9141	0.385
Mof_C 	C 	0.6468	0.9265	0.8812	-0.161
Mof_C 	C 	0.6866	0.8916	0.8734	0.084
Mof_H 	H 	0.7222	0.8896	0.8883	0.006
Mof_C 	C 	0.6743	0.8598	0.8438	-0.191
Mof_H 	H 	0.7015	0.8362	0.8388	0.083
Mof_C 	C 	0.6216	0.8623	0.8211	0.171
Mof_C 	C 	0.5823	0.8993	0.8293	-0.198
Mof_H 	H 	0.5475	0.9028	0.8138	0.088
Mof_C 	C 	0.5942	0.9288	0.8586	0.092
Mof_H 	H 	0.5666	0.9519	0.8644	0.015
Mof_C 	C 	0.6099	0.8303	0.7892	-0.271
Mof_C 	C 	0.5557	0.8088	0.7807	0.272
Mof_C 	C 	0.6485	0.8152	0.7586	0.312
Mof_C 	C 	0.4993	0.8129	0.8034	-0.673
Mof_H 	H 	0.4791	0.7838	0.8036	0.203
Mof_H 	H 	0.5078	0.8222	0.8309	0.22
Mof_H 	H 	0.4741	0.8355	0.7905	0.209
Mof_C 	C 	0.7103	0.8242	0.7509	-0.711
Mof_H 	H 	0.7194	0.817	0.723	0.228
Mof_H 	H 	0.7184	0.8562	0.7558	0.226
Mof_H 	H 	0.7346	0.8058	0.7687	0.222
Mof_Zn	Zn	0.74759	0.49545	0.46821	1.209
Mof_O 	O 	0.7874	0.4565	0.5056	-0.482
Mof_O 	O 	0.8687	0.497	0.5177	-0.319
Mof_O 	O 	0.7065	0.4548	0.4314	-0.49
Mof_O 	O 	0.6214	0.4894	0.4199	-0.338
Mof_N 	N 	0.9004	0.3029	0.7042	-0.223
Mof_H 	H 	0.8876	0.2948	0.728	0.13
Mof_N 	N 	0.9494	0.2861	0.6869	-0.275
Mof_N 	N 	0.6172	0.287	0.2364	-0.232
Mof_H 	H 	0.6319	0.2726	0.2156	0.135
Mof_N 	N 	0.5594	0.2823	0.2487	-0.282
Mof_C 	C 	0.8369	0.463	0.5229	0.354
Mof_C 	C 	0.857	0.4282	0.5528	-0.164
Mof_C 	C 	0.8208	0.393	0.5644	0.108
Mof_H 	H 	0.7836	0.3895	0.5516	0.002
Mof_C 	C 	0.8367	0.3634	0.5934	-0.221
Mof_H 	H 	0.8105	0.3399	0.6008	0.108
Mof_C 	C 	0.8917	0.3672	0.6123	0.192
Mof_C 	C 	0.93	0.4025	0.6008	-0.209
Mof_H 	H 	0.9671	0.4059	0.6135	0.094
Mof_C 	C 	0.9127	0.4326	0.5701	0.083
Mof_H 	H 	0.9388	0.4556	0.5614	0.012
Mof_C 	C 	0.9048	0.3372	0.6469	-0.303
Mof_C 	C 	0.9543	0.3076	0.6516	0.338
Mof_C 	C 	0.8733	0.3335	0.6807	0.331
Mof_C 	C 	0.0043	0.2998	0.6239	-0.821
Mof_H 	H 	0.0399	0.2929	0.6394	0.241
Mof_H 	H 	0.9951	0.2744	0.6062	0.28
Mof_H 	H 	0.0111	0.3269	0.6078	0.25
Mof_C 	C 	0.8197	0.3574	0.6949	-0.716
Mof_H 	H 	0.8041	0.3762	0.6732	0.226
Mof_H 	H 	0.7899	0.3353	0.7029	0.231
Mof_H 	H 	0.8298	0.3764	0.7178	0.238
Mof_C 	C 	0.6576	0.4596	0.4141	0.386
Mof_C 	C 	0.6468	0.4265	0.3812	-0.165
Mof_C 	C 	0.6866	0.3916	0.3734	0.085
Mof_H 	H 	0.7222	0.3896	0.3883	0.005
Mof_C 	C 	0.6743	0.3598	0.3438	-0.193
Mof_H 	H 	0.7015	0.3362	0.3388	0.083
Mof_C 	C 	0.6216	0.3623	0.3211	0.172
Mof_C 	C 	0.5823	0.3993	0.3293	-0.201
Mof_H 	H 	0.5475	0.4028	0.3138	0.088
Mof_C 	C 	0.5942	0.4288	0.3586	0.093
Mof_H 	H 	0.5666	0.4519	0.3644	0.011
Mof_C 	C 	0.6099	0.3303	0.2892	-0.271
Mof_C 	C 	0.5557	0.3088	0.2807	0.272
Mof_C 	C 	0.6485	0.3152	0.2586	0.311
Mof_C 	C 	0.4993	0.3129	0.3034	-0.674
Mof_H 	H 	0.4791	0.2838	0.3036	0.204
Mof_H 	H 	0.5078	0.3222	0.3309	0.221
Mof_H 	H 	0.4741	0.3355	0.2905	0.209
Mof_C 	C 	0.7103	0.3242	0.2509	-0.708
Mof_H 	H 	0.7194	0.317	0.223	0.227
Mof_H 	H 	0.7184	0.3562	0.2558	0.223
Mof_H 	H 	0.7346	0.3058	0.2687	0.221
Mof_Zn	Zn	0.24759	0.99545	0.46821	1.215
Mof_O 	O 	0.2874	0.9565	0.5056	-0.476
Mof_O 	O 	0.3687	0.997	0.5177	-0.307
Mof_O 	O 	0.2065	0.9548	0.4314	-0.484
Mof_O 	O 	0.1214	0.9894	0.4199	-0.326
Mof_N 	N 	0.4004	0.8029	0.7042	-0.221
Mof_H 	H 	0.3876	0.7948	0.728	0.128
Mof_N 	N 	0.4494	0.7861	0.6869	-0.271
Mof_N 	N 	0.1172	0.787	0.2364	-0.231
Mof_H 	H 	0.1319	0.7726	0.2156	0.134
Mof_N 	N 	0.0594	0.7823	0.2487	-0.276
Mof_C 	C 	0.3369	0.963	0.5229	0.352
Mof_C 	C 	0.357	0.9282	0.5528	-0.156
Mof_C 	C 	0.3208	0.893	0.5644	0.101
Mof_H 	H 	0.2836	0.8895	0.5516	0.005
Mof_C 	C 	0.3367	0.8634	0.5934	-0.21
Mof_H 	H 	0.3105	0.8399	0.6008	0.104
Mof_C 	C 	0.3917	0.8672	0.6123	0.178
Mof_C 	C 	0.43	0.9025	0.6008	-0.198
Mof_H 	H 	0.4671	0.9059	0.6135	0.086
Mof_C 	C 	0.4127	0.9326	0.5701	0.077
Mof_H 	H 	0.4388	0.9556	0.5614	0.014
Mof_C 	C 	0.4048	0.8372	0.6469	-0.278
Mof_C 	C 	0.4543	0.8076	0.6516	0.28
Mof_C 	C 	0.3733	0.8335	0.6807	0.321
Mof_C 	C 	0.5043	0.7998	0.6239	-0.674
Mof_H 	H 	0.5399	0.7929	0.6394	0.205
Mof_H 	H 	0.4951	0.7744	0.6062	0.223
Mof_H 	H 	0.5111	0.8269	0.6078	0.218
Mof_C 	C 	0.3197	0.8574	0.6949	-0.708
Mof_H 	H 	0.3041	0.8762	0.6732	0.225
Mof_H 	H 	0.2899	0.8353	0.7029	0.229
Mof_H 	H 	0.3298	0.8764	0.7178	0.236
Mof_C 	C 	0.1576	0.9596	0.4141	0.383
Mof_C 	C 	0.1468	0.9265	0.3812	-0.157
Mof_C 	C 	0.1866	0.8916	0.3734	0.078
Mof_H 	H 	0.2222	0.8896	0.3883	0.007
Mof_C 	C 	0.1743	0.8598	0.3438	-0.182
Mof_H 	H 	0.2015	0.8362	0.3388	0.079
Mof_C 	C 	0.1216	0.8623	0.3211	0.156
Mof_C 	C 	0.0823	0.8993	0.3293	-0.188
Mof_H 	H 	0.0475	0.9028	0.3138	0.08
Mof_C 	C 	0.0942	0.9288	0.3586	0.084
Mof_H 	H 	0.0666	0.9519	0.3644	0.014
Mof_C 	C 	0.1099	0.8303	0.2892	-0.245
Mof_C 	C 	0.0557	0.8088	0.2807	0.212
Mof_C 	C 	0.1485	0.8152	0.2586	0.301
Mof_C 	C 	0.9993	0.8129	0.3034	-0.523
Mof_H 	H 	0.9791	0.7838	0.3036	0.166
Mof_H 	H 	0.0078	0.8222	0.3309	0.161
Mof_H 	H 	0.9741	0.8355	0.2905	0.173
Mof_C 	C 	0.2103	0.8242	0.2509	-0.699
Mof_H 	H 	0.2194	0.817	0.223	0.225
Mof_H 	H 	0.2184	0.8562	0.2558	0.222
Mof_H 	H 	0.2346	0.8058	0.2687	0.218
Mof_Zn	Zn	0.24759	0.49545	0.96821	1.205
Mof_O 	O 	0.2874	0.4565	0.0056	-0.472
Mof_O 	O 	0.3687	0.497	0.0177	-0.312
Mof_O 	O 	0.2065	0.4548	0.9314	-0.493
Mof_O 	O 	0.1214	0.4894	0.9199	-0.342
Mof_N 	N 	0.4004	0.3029	0.2042	-0.221
Mof_H 	H 	0.3876	0.2948	0.228	0.128
Mof_N 	N 	0.4494	0.2861	0.1869	-0.271
Mof_N 	N 	0.1172	0.287	0.7364	-0.23
Mof_H 	H 	0.1319	0.2726	0.7156	0.134
Mof_N 	N 	0.0594	0.2823	0.7487	-0.276
Mof_C 	C 	0.3369	0.463	0.0229	0.351
Mof_C 	C 	0.357	0.4282	0.0528	-0.156
Mof_C 	C 	0.3208	0.393	0.0644	0.1
Mof_H 	H 	0.2836	0.3895	0.0516	0.007
Mof_C 	C 	0.3367	0.3634	0.0934	-0.21
Mof_H 	H 	0.3105	0.3399	0.1008	0.104
Mof_C 	C 	0.3917	0.3672	0.1123	0.177
Mof_C 	C 	0.43	0.4025	0.1008	-0.199
Mof_H 	H 	0.4671	0.4059	0.1135	0.085
Mof_C 	C 	0.4127	0.4326	0.0701	0.076
Mof_H 	H 	0.4388	0.4556	0.0614	0.012
Mof_C 	C 	0.4048	0.3372	0.1469	-0.278
Mof_C 	C 	0.4543	0.3076	0.1516	0.282
Mof_C 	C 	0.3733	0.3335	0.1807	0.32
Mof_C 	C 	0.5043	0.2998	0.1239	-0.679
Mof_H 	H 	0.5399	0.2929	0.1394	0.206
Mof_H 	H 	0.4951	0.2744	0.1062	0.226
Mof_H 	H 	0.5111	0.3269	0.1078	0.221
Mof_C 	C 	0.3197	0.3574	0.1949	-0.705
Mof_H 	H 	0.3041	0.3762	0.1732	0.223
Mof_H 	H 	0.2899	0.3353	0.2029	0.228
Mof_H 	H 	0.3298	0.3764	0.2178	0.235
Mof_C 	C 	0.1576	0.4596	0.9141	0.384
Mof_C 	C 	0.1468	0.4265	0.8812	-0.162
Mof_C 	C 	0.1866	0.3916	0.8734	0.079
Mof_H 	H 	0.2222	0.3896	0.8883	0.006
Mof_C 	C 	0.1743	0.3598	0.8438	-0.185
Mof_H 	H 	0.2015	0.3362	0.8388	0.08
Mof_C 	C 	0.1216	0.3623	0.8211	0.157
Mof_C 	C 	0.0823	0.3993	0.8293	-0.192
Mof_H 	H 	0.0475	0.4028	0.8138	0.08
Mof_C 	C 	0.0942	0.4288	0.8586	0.085
Mof_H 	H 	0.0666	0.4519	0.8644	0.009
Mof_C 	C 	0.1099	0.3303	0.7892	-0.245
Mof_C 	C 	0.0557	0.3088	0.7807	0.212
Mof_C 	C 	0.1485	0.3152	0.7586	0.3
Mof_C 	C 	0.9993	0.3129	0.8034	-0.52
Mof_H 	H 	0.9791	0.2838	0.8036	0.166
Mof_H 	H 	0.0078	0.3222	0.8309	0.16
Mof_H 	H 	0.9741	0.3355	0.7905	0.172
Mof_C 	C 	0.2103	0.3242	0.7509	-0.697
Mof_H 	H 	0.2194	0.317	0.723	0.224
Mof_H 	H 	0.2184	0.3562	0.7558	0.22
Mof_H 	H 	0.2346	0.3058	0.7687	0.218
_end
