data_functionalizedCrystal
_audit_creation_method	'EQeq! by Chris Wilmer'
_symmetry_space_group_name_H-M	'P1'
_symmetry_Int_Tables_number	1
_symmetry_cell_setting	triclinic
loop_
_symmetry_equiv_pos_as_xyz
  x,y,z
_cell_length_a	20.896
_cell_length_b	7.2476
_cell_length_c	15.503
_cell_angle_alpha	90
_cell_angle_beta	90
_cell_angle_gamma	90
loop_
_atom_site_label
_atom_site_type_symbol
_atom_site_fract_x
_atom_site_fract_y
_atom_site_fract_z
_atom_site_charge
Mof_N 	N 	0.4324	0.3501	0.5578	-0.201
Mof_C 	C 	0.3849	0.5996	0.3939	0.121
Mof_H 	H 	0.3718	0.4788	0.3843	-0.012
Mof_C 	C 	0.246	0.845	0.317	-0.033
Mof_C 	C 	0.2982	0.891	0.239	-0.078
Mof_H 	H 	0.2415	0.9014	0.3727	0.05
Mof_H 	H 	0.3265	0.9947	0.2337	0.07
Mof_N 	N 	0.9324	0.8501	0.0578	-0.204
Mof_C 	C 	0.8849	0.0996	0.8939	0.052
Mof_H 	H 	0.8718	0.9788	0.8843	0.064
Mof_C 	C 	0.746	0.345	0.817	-0.035
Mof_C 	C 	0.7982	0.391	0.739	-0.073
Mof_H 	H 	0.7415	0.4014	0.8727	0.058
Mof_H 	H 	0.8265	0.4947	0.7337	0.07
Mof_N 	N 	0.5676	0.1499	0.5578	-0.191
Mof_C 	C 	0.6151	0.9004	0.3939	0.202
Mof_H 	H 	0.6282	0.0212	0.3843	-0.067
Mof_C 	C 	0.754	0.655	0.317	-0.049
Mof_C 	C 	0.7018	0.609	0.239	-0.069
Mof_H 	H 	0.7585	0.5986	0.3727	0.049
Mof_H 	H 	0.6735	0.5053	0.2337	0.05
Mof_N 	N 	0.0676	0.6499	0.0578	-0.217
Mof_C 	C 	0.1151	0.4004	0.8939	0.125
Mof_H 	H 	0.1282	0.5212	0.8843	0.007
Mof_C 	C 	0.254	0.155	0.817	-0.051
Mof_C 	C 	0.2018	0.109	0.739	-0.066
Mof_H 	H 	0.2585	0.0986	0.8727	0.054
Mof_H 	H 	0.1735	0.0053	0.7337	0.045
Mof_N 	N 	0.5676	0.8501	0.4422	-0.204
Mof_C 	C 	0.6151	0.0996	0.6061	0.04
Mof_H 	H 	0.6282	0.9788	0.6157	0.053
Mof_C 	C 	0.754	0.345	0.683	-0.028
Mof_C 	C 	0.7018	0.391	0.761	-0.063
Mof_H 	H 	0.7585	0.4014	0.6273	0.043
Mof_H 	H 	0.6735	0.4947	0.7663	0.069
Mof_N 	N 	0.0676	0.3501	0.9422	-0.176
Mof_C 	C 	0.1151	0.5996	0.1061	0.112
Mof_H 	H 	0.1282	0.4788	0.1157	-0.019
Mof_C 	C 	0.254	0.845	0.183	-0.027
Mof_C 	C 	0.2018	0.891	0.261	-0.069
Mof_H 	H 	0.2585	0.9014	0.1273	0.034
Mof_H 	H 	0.1735	0.9947	0.2663	0.071
Mof_N 	N 	0.4324	0.6499	0.4422	-0.2
Mof_C 	C 	0.3849	0.4004	0.6061	0.119
Mof_H 	H 	0.3718	0.5212	0.6157	-0.004
Mof_C 	C 	0.246	0.155	0.683	-0.045
Mof_C 	C 	0.2982	0.109	0.761	-0.055
Mof_H 	H 	0.2415	0.0986	0.6273	0.035
Mof_H 	H 	0.3265	0.0053	0.7663	0.049
Mof_N 	N 	0.9324	0.1499	0.9422	-0.155
Mof_C 	C 	0.8849	0.9004	0.1061	0.196
Mof_H 	H 	0.8718	0.0212	0.1157	-0.069
Mof_C 	C 	0.746	0.655	0.183	-0.045
Mof_C 	C 	0.7982	0.609	0.261	-0.059
Mof_H 	H 	0.7415	0.5986	0.1273	0.031
Mof_H 	H 	0.8265	0.5053	0.2663	0.057
Mof_N 	N 	0.5676	0.6499	0.4422	-0.2
Mof_C 	C 	0.6151	0.4004	0.6061	0.119
Mof_H 	H 	0.6282	0.5212	0.6157	-0.003
Mof_C 	C 	0.754	0.155	0.683	-0.044
Mof_C 	C 	0.7018	0.109	0.761	-0.055
Mof_H 	H 	0.7585	0.0986	0.6273	0.038
Mof_H 	H 	0.6735	0.0053	0.7663	0.049
Mof_N 	N 	0.0676	0.1499	0.9422	-0.168
Mof_C 	C 	0.1151	0.9004	0.1061	0.193
Mof_H 	H 	0.1282	0.0212	0.1157	-0.075
Mof_C 	C 	0.254	0.655	0.183	-0.044
Mof_C 	C 	0.2018	0.609	0.261	-0.06
Mof_H 	H 	0.2585	0.5986	0.1273	0.03
Mof_H 	H 	0.1735	0.5053	0.2663	0.051
Mof_N 	N 	0.4324	0.8501	0.4422	-0.204
Mof_C 	C 	0.3849	0.0996	0.6061	0.039
Mof_H 	H 	0.3718	0.9788	0.6157	0.053
Mof_C 	C 	0.246	0.345	0.683	-0.028
Mof_C 	C 	0.2982	0.391	0.761	-0.064
Mof_H 	H 	0.2415	0.4014	0.6273	0.04
Mof_H 	H 	0.3265	0.4947	0.7663	0.069
Mof_N 	N 	0.9324	0.3501	0.9422	-0.163
Mof_C 	C 	0.8849	0.5996	0.1061	0.117
Mof_H 	H 	0.8718	0.4788	0.1157	-0.014
Mof_C 	C 	0.746	0.845	0.183	-0.029
Mof_C 	C 	0.7982	0.891	0.261	-0.068
Mof_H 	H 	0.7415	0.9014	0.1273	0.035
Mof_H 	H 	0.8265	0.9947	0.2663	0.077
Mof_N 	N 	0.4324	0.1499	0.5578	-0.191
Mof_C 	C 	0.3849	0.9004	0.3939	0.202
Mof_H 	H 	0.3718	0.0212	0.3843	-0.067
Mof_C 	C 	0.246	0.655	0.317	-0.05
Mof_C 	C 	0.2982	0.609	0.239	-0.07
Mof_H 	H 	0.2415	0.5986	0.3727	0.045
Mof_H 	H 	0.3265	0.5053	0.2337	0.05
Mof_N 	N 	0.9324	0.6499	0.0578	-0.201
Mof_C 	C 	0.8849	0.4004	0.8939	0.129
Mof_H 	H 	0.8718	0.5212	0.8843	0.01
Mof_C 	C 	0.746	0.155	0.817	-0.052
Mof_C 	C 	0.7982	0.109	0.739	-0.065
Mof_H 	H 	0.7415	0.0986	0.8727	0.054
Mof_H 	H 	0.8265	0.0053	0.7337	0.051
Mof_N 	N 	0.5676	0.3501	0.5578	-0.2
Mof_C 	C 	0.6151	0.5996	0.3939	0.122
Mof_H 	H 	0.6282	0.4788	0.3843	-0.011
Mof_C 	C 	0.754	0.845	0.317	-0.033
Mof_C 	C 	0.7018	0.891	0.239	-0.077
Mof_H 	H 	0.7585	0.9014	0.3727	0.053
Mof_H 	H 	0.6735	0.9947	0.2337	0.07
Mof_N 	N 	0.0676	0.8501	0.0578	-0.22
Mof_C 	C 	0.1151	0.0996	0.8939	0.047
Mof_H 	H 	0.1282	0.9788	0.8843	0.062
Mof_C 	C 	0.254	0.345	0.817	-0.034
Mof_C 	C 	0.2018	0.391	0.739	-0.074
Mof_H 	H 	0.2585	0.4014	0.8727	0.058
Mof_H 	H 	0.1735	0.4947	0.7337	0.065
Mof_Br	Br	0.5	0.25	0.3614	-0.442
Mof_Br	Br	-2.97967e-33	0.75	0.8614	-0.376
Mof_Br	Br	0.5	0.75	0.6386	-0.381
Mof_Br	Br	3.85547e-34	0.25	0.1386	-0.483
Mof_Cu	Cu	0.5	0.5	0.5	0.885
Mof_Cu	Cu	-0	0	-0	0.817
Mof_Cu	Cu	0.5	0	0.5	0.867
Mof_Cu	Cu	-0	0.5	-0	0.835
Mof_N 	N 	0.3581	0.75	0.3603	-0.175
Mof_C 	C 	0.3024	0.75	0.3038	0.113
Mof_N 	N 	0.8581	0.25	0.8603	-0.145
Mof_C 	C 	0.8024	0.25	0.8038	0.107
Mof_N 	N 	0.6419	0.75	0.3603	-0.175
Mof_C 	C 	0.6976	0.75	0.3038	0.113
Mof_N 	N 	0.1419	0.25	0.8603	-0.146
Mof_C 	C 	0.1976	0.25	0.8038	0.104
Mof_N 	N 	0.6419	0.25	0.6397	-0.144
Mof_C 	C 	0.6976	0.25	0.6962	0.092
Mof_N 	N 	0.1419	0.75	0.1397	-0.174
Mof_C 	C 	0.1976	0.75	0.1962	0.101
Mof_N 	N 	0.3581	0.25	0.6397	-0.144
Mof_C 	C 	0.3024	0.25	0.6962	0.093
Mof_N 	N 	0.8581	0.75	0.1397	-0.172
Mof_C 	C 	0.8024	0.75	0.1962	0.104
_end
