data_functionalizedCrystal
_audit_creation_method	'EQeq! by Chris Wilmer'
_symmetry_space_group_name_H-M	'P1'
_symmetry_Int_Tables_number	1
_symmetry_cell_setting	triclinic
loop_
_symmetry_equiv_pos_as_xyz
  x,y,z
_cell_length_a	13.1302
_cell_length_b	13.1302
_cell_length_c	17.4559
_cell_angle_alpha	90
_cell_angle_beta	90
_cell_angle_gamma	120
loop_
_atom_site_label
_atom_site_type_symbol
_atom_site_fract_x
_atom_site_fract_y
_atom_site_fract_z
_atom_site_charge
Mof_Al	Al	0.29204	0.85678	0.45859	5.101
Mof_P 	P 	0.16009	0.97326	0.37118	1.253
Mof_H 	H 	0.25	0.055	0.3413	-0.37
Mof_P 	P 	0.12623	0.63092	0.55515	0.834
Mof_H 	H 	0.191	0.692	0.624	-0.11
Mof_O 	O 	0.1904	0.8795	0.39237	-1.233
Mof_O 	O 	0.1312	0.0249	0.44015	-1.183
Mof_O 	O 	0.0653	0.9263	0.30983	-0.739
Mof_O 	O 	0.1566	0.7248	0.4944	-1.356
Mof_O 	O 	0.9967	0.5747	0.5752	-1.066
Mof_O 	O 	0.1647	0.5445	0.5345	-1.248
Mof_O 	O 	0.3201	0.7715	0.3844	-1.227
Mof_Al	Al	0.14322	0.43526	0.45859	4.718
Mof_P 	P 	0.02674	0.18683	0.37118	0.409
Mof_H 	H 	0.945	0.195	0.3413	0.023
Mof_P 	P 	0.36908	0.49531	0.55515	1.001
Mof_H 	H 	0.308	0.499	0.624	-0.121
Mof_O 	O 	0.1205	0.3109	0.39237	-1.108
Mof_O 	O 	0.9751	0.1063	0.44015	-0.695
Mof_O 	O 	0.0737	0.139	0.30983	-0.758
Mof_O 	O 	0.2752	0.4318	0.4944	-1.289
Mof_O 	O 	0.4253	0.422	0.5752	-1.237
Mof_O 	O 	0.4555	0.6202	0.5345	-1.272
Mof_O 	O 	0.2285	0.5486	0.3844	-1.19
Mof_Al	Al	0.56474	0.70796	0.45859	4.952
Mof_P 	P 	0.81317	0.83991	0.37118	0.824
Mof_H 	H 	0.805	0.75	0.3413	-0.132
Mof_P 	P 	0.50469	0.87377	0.55515	1.188
Mof_H 	H 	0.501	0.809	0.624	-0.101
Mof_O 	O 	0.6891	0.8096	0.39237	-1.127
Mof_O 	O 	0.8937	0.8688	0.44015	-0.725
Mof_O 	O 	0.861	0.9347	0.30983	-0.485
Mof_O 	O 	0.5682	0.8434	0.4944	-1.293
Mof_O 	O 	0.578	0.0033	0.5752	-1.419
Mof_O 	O 	0.3798	0.8353	0.5345	-1.284
Mof_O 	O 	0.4514	0.6799	0.3844	-1.201
Mof_Al	Al	0.85678	0.29204	0.04141	4.903
Mof_P 	P 	0.97326	0.16009	0.12882	1.211
Mof_H 	H 	0.055	0.25	0.1587	-0.361
Mof_P 	P 	0.63092	0.12623	0.94485	0.894
Mof_H 	H 	0.692	0.191	0.876	-0.107
Mof_O 	O 	0.8795	0.1904	0.10763	-1.204
Mof_O 	O 	0.0249	0.1312	0.05985	-1.125
Mof_O 	O 	0.9263	0.0653	0.19017	-0.74
Mof_O 	O 	0.7248	0.1566	0.0056	-1.386
Mof_O 	O 	0.5747	0.9967	0.9248	-1.091
Mof_O 	O 	0.5445	0.1647	0.9655	-1.176
Mof_O 	O 	0.7715	0.3201	0.1156	-1.197
Mof_Al	Al	0.43526	0.14322	0.04141	4.525
Mof_P 	P 	0.18683	0.02674	0.12882	0.365
Mof_H 	H 	0.195	0.945	0.1587	0.035
Mof_P 	P 	0.49531	0.36908	0.94485	1.043
Mof_H 	H 	0.499	0.308	0.876	-0.119
Mof_O 	O 	0.3109	0.1205	0.10763	-1.078
Mof_O 	O 	0.1063	0.9751	0.05985	-0.625
Mof_O 	O 	0.139	0.0737	0.19017	-0.751
Mof_O 	O 	0.4318	0.2752	0.0056	-1.313
Mof_O 	O 	0.422	0.4253	0.9248	-1.251
Mof_O 	O 	0.6202	0.4555	0.9655	-1.207
Mof_O 	O 	0.5486	0.2285	0.1156	-1.162
Mof_Al	Al	0.70796	0.56474	0.04141	4.772
Mof_P 	P 	0.83991	0.81317	0.12882	0.798
Mof_H 	H 	0.75	0.805	0.1587	-0.129
Mof_P 	P 	0.87377	0.50469	0.94485	1.233
Mof_H 	H 	0.809	0.501	0.876	-0.099
Mof_O 	O 	0.8096	0.6891	0.10763	-1.1
Mof_O 	O 	0.8688	0.8937	0.05985	-0.671
Mof_O 	O 	0.9347	0.861	0.19017	-0.481
Mof_O 	O 	0.8434	0.5682	0.0056	-1.319
Mof_O 	O 	0.0033	0.578	0.9248	-1.437
Mof_O 	O 	0.8353	0.3798	0.9655	-1.212
Mof_O 	O 	0.6799	0.4514	0.1156	-1.174
Mof_Al	Al	0.70796	0.14322	0.54141	4.762
Mof_P 	P 	0.83991	0.02674	0.62882	0.459
Mof_H 	H 	0.75	0.945	0.6587	0.025
Mof_P 	P 	0.87377	0.36908	0.44485	1.186
Mof_H 	H 	0.809	0.308	0.376	-0.111
Mof_O 	O 	0.8096	0.1205	0.60763	-1.082
Mof_O 	O 	0.8688	0.9751	0.55985	-0.586
Mof_O 	O 	0.9347	0.0737	0.69017	-0.567
Mof_O 	O 	0.8434	0.2752	0.5056	-1.268
Mof_O 	O 	0.0033	0.4253	0.4248	-1.419
Mof_O 	O 	0.8353	0.4555	0.4655	-1.287
Mof_O 	O 	0.6799	0.2285	0.6156	-1.187
Mof_Al	Al	0.85678	0.56474	0.54141	5.114
Mof_P 	P 	0.97326	0.81317	0.62882	1.205
Mof_H 	H 	0.055	0.805	0.6587	-0.322
Mof_P 	P 	0.63092	0.50469	0.44485	1.016
Mof_H 	H 	0.692	0.501	0.376	-0.1
Mof_O 	O 	0.8795	0.6891	0.60763	-1.199
Mof_O 	O 	0.0249	0.8937	0.55985	-1.003
Mof_O 	O 	0.9263	0.861	0.69017	-0.581
Mof_O 	O 	0.7248	0.5682	0.5056	-1.335
Mof_O 	O 	0.5747	0.578	0.4248	-1.246
Mof_O 	O 	0.5445	0.3798	0.4655	-1.264
Mof_O 	O 	0.7715	0.4514	0.6156	-1.219
Mof_Al	Al	0.43526	0.29204	0.54141	4.895
Mof_P 	P 	0.18683	0.16009	0.62882	0.83
Mof_H 	H 	0.195	0.25	0.6587	-0.188
Mof_P 	P 	0.49531	0.12623	0.44485	0.823
Mof_H 	H 	0.499	0.191	0.376	-0.121
Mof_O 	O 	0.3109	0.1904	0.60763	-1.186
Mof_O 	O 	0.1063	0.1312	0.55985	-1.022
Mof_O 	O 	0.139	0.0653	0.69017	-0.857
Mof_O 	O 	0.4318	0.1566	0.5056	-1.334
Mof_O 	O 	0.422	0.9967	0.4248	-1.059
Mof_O 	O 	0.6202	0.1647	0.4655	-1.254
Mof_O 	O 	0.5486	0.3201	0.6156	-1.211
Mof_Al	Al	0.14322	0.70796	0.95859	4.895
Mof_P 	P 	0.02674	0.83991	0.87118	0.429
Mof_H 	H 	0.945	0.75	0.8413	0.04
Mof_P 	P 	0.36908	0.87377	0.05515	1.16
Mof_H 	H 	0.308	0.809	0.124	-0.111
Mof_O 	O 	0.1205	0.8096	0.89237	-1.094
Mof_O 	O 	0.9751	0.8688	0.94015	-0.478
Mof_O 	O 	0.0737	0.9347	0.80983	-0.571
Mof_O 	O 	0.2752	0.8434	0.9944	-1.246
Mof_O 	O 	0.4253	0.0033	0.0752	-1.405
Mof_O 	O 	0.4555	0.8353	0.0345	-1.334
Mof_O 	O 	0.2285	0.6799	0.8844	-1.207
Mof_Al	Al	0.56474	0.85678	0.95859	5.242
Mof_P 	P 	0.81317	0.97326	0.87118	1.164
Mof_H 	H 	0.805	0.055	0.8413	-0.301
Mof_P 	P 	0.50469	0.63092	0.05515	0.978
Mof_H 	H 	0.501	0.692	0.124	-0.101
Mof_O 	O 	0.6891	0.8795	0.89237	-1.207
Mof_O 	O 	0.8937	0.0249	0.94015	-0.875
Mof_O 	O 	0.861	0.9263	0.80983	-0.573
Mof_O 	O 	0.5682	0.7248	0.9944	-1.303
Mof_O 	O 	0.578	0.5747	0.0752	-1.226
Mof_O 	O 	0.3798	0.5445	0.0345	-1.319
Mof_O 	O 	0.4514	0.7715	0.8844	-1.238
Mof_Al	Al	0.29204	0.43526	0.95859	5.051
Mof_P 	P 	0.16009	0.18683	0.87118	0.818
Mof_H 	H 	0.25	0.195	0.8413	-0.181
Mof_P 	P 	0.12623	0.49531	0.05515	0.79
Mof_H 	H 	0.191	0.499	0.124	-0.121
Mof_O 	O 	0.1904	0.3109	0.89237	-1.2
Mof_O 	O 	0.1312	0.1063	0.94015	-0.911
Mof_O 	O 	0.0653	0.139	0.80983	-0.852
Mof_O 	O 	0.1566	0.4318	0.9944	-1.305
Mof_O 	O 	0.9967	0.422	0.0752	-1.043
Mof_O 	O 	0.1647	0.6202	0.0345	-1.3
Mof_O 	O 	0.3201	0.5486	0.8844	-1.234
Mof_Al	Al	-7.26434e-33	-4.84289e-33	0.25	2.37
Mof_Al	Al	-1.93716e-32	0	0.75	2.424
Mof_Al	Al	-1.45287e-32	-9.68579e-33	0.5	2.983
Mof_Al	Al	-0	0	-0	2.541
Mof_P 	P 	0.33333	0.66667	0.36305	1.067
Mof_H 	H 	0.33333	0.66667	0.281	-0.079
Mof_P 	P 	0.66667	0.33333	0.13695	1.036
Mof_H 	H 	0.66667	0.33333	0.219	-0.075
Mof_P 	P 	0.66667	0.33333	0.63695	1.067
Mof_H 	H 	0.66667	0.33333	0.719	-0.077
Mof_P 	P 	0.33333	0.66667	0.86305	1.089
Mof_H 	H 	0.33333	0.66667	0.781	-0.082
_end
