data_functionalizedCrystal
_audit_creation_method	'EQeq! by Chris Wilmer'
_symmetry_space_group_name_H-M	'P1'
_symmetry_Int_Tables_number	1
_symmetry_cell_setting	triclinic
loop_
_symmetry_equiv_pos_as_xyz
  x,y,z
_cell_length_a	14.956
_cell_length_b	23.671
_cell_length_c	9.026
_cell_angle_alpha	90
_cell_angle_beta	90
_cell_angle_gamma	90
loop_
_atom_site_label
_atom_site_type_symbol
_atom_site_fract_x
_atom_site_fract_y
_atom_site_fract_z
_atom_site_charge
Mof_Fe	Fe	0.07315	0.05452	-0	0.905
Mof_O 	O 	0.132	0.07276	0.1993	-0.251
Mof_O 	O 	0.1609	0.12528	0.9406	-0.123
Mof_O 	O 	0.265	0.17951	0.0484	-0.263
Mof_O 	O 	0.2316	0.13075	0.3061	-0.252
Mof_C 	C 	0.1886	0.1125	0.1978	0.279
Mof_C 	C 	0.2059	0.1413	0.0484	0.147
Mof_Cl	Cl	0.18186	0.99597	0.9016	-0.263
Mof_Fe	Fe	0.07315	0.55452	0.5	1.018
Mof_O 	O 	0.132	0.57276	0.6993	-0.235
Mof_O 	O 	0.1609	0.62528	0.4406	-0.245
Mof_O 	O 	0.265	0.67951	0.5484	-0.275
Mof_O 	O 	0.2316	0.63075	0.8061	-0.234
Mof_C 	C 	0.1886	0.6125	0.6978	0.254
Mof_C 	C 	0.2059	0.6413	0.5484	0.259
Mof_Cl	Cl	0.18186	0.49597	0.4016	-0.321
Mof_Fe	Fe	0.57315	0.05452	0.5	1.02
Mof_O 	O 	0.632	0.07276	0.6993	-0.236
Mof_O 	O 	0.6609	0.12528	0.4406	-0.247
Mof_O 	O 	0.765	0.17951	0.5484	-0.276
Mof_O 	O 	0.7316	0.13075	0.8061	-0.234
Mof_C 	C 	0.6886	0.1125	0.6978	0.253
Mof_C 	C 	0.7059	0.1413	0.5484	0.26
Mof_Cl	Cl	0.68186	0.99597	0.4016	-0.345
Mof_Fe	Fe	0.57315	0.55452	-0	0.884
Mof_O 	O 	0.632	0.57276	0.1993	-0.256
Mof_O 	O 	0.6609	0.62528	0.9406	-0.126
Mof_O 	O 	0.765	0.67951	0.0484	-0.265
Mof_O 	O 	0.7316	0.63075	0.3061	-0.253
Mof_C 	C 	0.6886	0.6125	0.1978	0.279
Mof_C 	C 	0.7059	0.6413	0.0484	0.145
Mof_Cl	Cl	0.68186	0.49597	0.9016	-0.244
Mof_Fe	Fe	0.92685	0.94548	-0	0.837
Mof_O 	O 	0.868	0.92724	0.1993	-0.264
Mof_O 	O 	0.8391	0.87472	0.9406	-0.128
Mof_O 	O 	0.735	0.82049	0.0484	-0.264
Mof_O 	O 	0.7684	0.86925	0.3061	-0.256
Mof_C 	C 	0.8114	0.8875	0.1978	0.279
Mof_C 	C 	0.7941	0.8587	0.0484	0.143
Mof_Cl	Cl	0.81814	0.00403	0.9016	-0.226
Mof_Fe	Fe	0.92685	0.44548	0.5	0.985
Mof_O 	O 	0.868	0.42724	0.6993	-0.242
Mof_O 	O 	0.8391	0.37472	0.4406	-0.25
Mof_O 	O 	0.735	0.32049	0.5484	-0.276
Mof_O 	O 	0.7684	0.36925	0.8061	-0.236
Mof_C 	C 	0.8114	0.3875	0.6978	0.253
Mof_C 	C 	0.7941	0.3587	0.5484	0.258
Mof_Cl	Cl	0.81814	0.50403	0.4016	-0.324
Mof_Fe	Fe	0.42685	0.94548	0.5	0.983
Mof_O 	O 	0.368	0.92724	0.6993	-0.242
Mof_O 	O 	0.3391	0.87472	0.4406	-0.248
Mof_O 	O 	0.235	0.82049	0.5484	-0.274
Mof_O 	O 	0.2684	0.86925	0.8061	-0.236
Mof_C 	C 	0.3114	0.8875	0.6978	0.254
Mof_C 	C 	0.2941	0.8587	0.5484	0.258
Mof_Cl	Cl	0.31814	0.00403	0.4016	-0.301
Mof_Fe	Fe	0.42685	0.44548	-0	0.884
Mof_O 	O 	0.368	0.42724	0.1993	-0.256
Mof_O 	O 	0.3391	0.37472	0.9406	-0.125
Mof_O 	O 	0.235	0.32049	0.0484	-0.262
Mof_O 	O 	0.2684	0.36925	0.3061	-0.253
Mof_C 	C 	0.3114	0.3875	0.1978	0.279
Mof_C 	C 	0.2941	0.3587	0.0484	0.145
Mof_Cl	Cl	0.31814	0.50403	0.9016	-0.242
Mof_Fe	Fe	0.32315	0.19548	0.25	1.005
Mof_O 	O 	0.382	0.17724	0.4493	-0.243
Mof_O 	O 	0.4109	0.12472	0.1906	-0.254
Mof_O 	O 	0.515	0.07049	0.2984	-0.276
Mof_O 	O 	0.4816	0.11925	0.5561	-0.24
Mof_C 	C 	0.4386	0.1375	0.4478	0.254
Mof_C 	C 	0.4559	0.1087	0.2984	0.257
Mof_Cl	Cl	0.43186	0.25403	0.1516	-0.346
Mof_Fe	Fe	0.32315	0.69548	0.75	1.014
Mof_O 	O 	0.382	0.67724	0.9493	-0.249
Mof_O 	O 	0.4109	0.62472	0.6906	-0.232
Mof_O 	O 	0.515	0.57049	0.7984	-0.224
Mof_O 	O 	0.4816	0.61925	0.0561	-0.326
Mof_C 	C 	0.4386	0.6375	0.9478	0.366
Mof_C 	C 	0.4559	0.6087	0.7984	0.229
Mof_Cl	Cl	0.43186	0.75403	0.6516	-0.304
Mof_Fe	Fe	0.82315	0.19548	0.75	1.013
Mof_O 	O 	0.882	0.17724	0.9493	-0.254
Mof_O 	O 	0.9109	0.12472	0.6906	-0.227
Mof_O 	O 	0.015	0.07049	0.7984	-0.197
Mof_O 	O 	0.9816	0.11925	0.0561	-0.342
Mof_C 	C 	0.9386	0.1375	0.9478	0.371
Mof_C 	C 	0.9559	0.1087	0.7984	0.2
Mof_Cl	Cl	0.93186	0.25403	0.6516	-0.316
Mof_Fe	Fe	0.82315	0.69548	0.25	1.003
Mof_O 	O 	0.882	0.67724	0.4493	-0.249
Mof_O 	O 	0.9109	0.62472	0.1906	-0.253
Mof_O 	O 	0.015	0.57049	0.2984	-0.257
Mof_O 	O 	0.9816	0.61925	0.5561	-0.257
Mof_C 	C 	0.9386	0.6375	0.4478	0.26
Mof_C 	C 	0.9559	0.6087	0.2984	0.229
Mof_Cl	Cl	0.93186	0.75403	0.1516	-0.358
Mof_Fe	Fe	0.17685	0.30452	0.25	1.005
Mof_O 	O 	0.118	0.32276	0.4493	-0.239
Mof_O 	O 	0.0891	0.37528	0.1906	-0.259
Mof_O 	O 	0.985	0.42951	0.2984	-0.305
Mof_O 	O 	0.0184	0.38075	0.5561	-0.225
Mof_C 	C 	0.0614	0.3625	0.4478	0.246
Mof_C 	C 	0.0441	0.3913	0.2984	0.286
Mof_Cl	Cl	0.06814	0.24597	0.1516	-0.333
Mof_Fe	Fe	0.17685	0.80452	0.75	1.014
Mof_O 	O 	0.118	0.82276	0.9493	-0.244
Mof_O 	O 	0.0891	0.87528	0.6906	-0.238
Mof_O 	O 	0.985	0.92951	0.7984	-0.253
Mof_O 	O 	0.0184	0.88075	0.0561	-0.309
Mof_C 	C 	0.0614	0.8625	0.9478	0.356
Mof_C 	C 	0.0441	0.8913	0.7984	0.258
Mof_Cl	Cl	0.06814	0.74597	0.6516	-0.292
Mof_Fe	Fe	0.67685	0.30452	0.75	1.014
Mof_O 	O 	0.618	0.32276	0.9493	-0.249
Mof_O 	O 	0.5891	0.37528	0.6906	-0.232
Mof_O 	O 	0.485	0.42951	0.7984	-0.224
Mof_O 	O 	0.5184	0.38075	0.0561	-0.326
Mof_C 	C 	0.5614	0.3625	0.9478	0.366
Mof_C 	C 	0.5441	0.3913	0.7984	0.229
Mof_Cl	Cl	0.56814	0.24597	0.6516	-0.303
Mof_Fe	Fe	0.67685	0.80452	0.25	1.004
Mof_O 	O 	0.618	0.82276	0.4493	-0.245
Mof_O 	O 	0.5891	0.87528	0.1906	-0.258
Mof_O 	O 	0.485	0.92951	0.2984	-0.286
Mof_O 	O 	0.5184	0.88075	0.5561	-0.241
Mof_C 	C 	0.5614	0.8625	0.4478	0.252
Mof_C 	C 	0.5441	0.8913	0.2984	0.259
Mof_Cl	Cl	0.56814	0.74597	0.1516	-0.346
Mof_O 	O 	1.71745e-34	0	0.0759	-0.364
Mof_O 	O 	-6.59679e-33	0.5	0.5759	-0.38
Mof_O 	O 	0.5	1.97498e-33	0.5759	-0.38
Mof_O 	O 	0.5	0.5	0.0759	-0.394
Mof_O 	O 	0.25	0.25	0.3259	-0.397
Mof_O 	O 	0.25	0.75	0.8259	-0.388
Mof_O 	O 	0.75	0.25	0.8259	-0.389
Mof_O 	O 	0.75	0.75	0.3259	-0.399
_end
