data_functionalizedCrystal
_audit_creation_method	'EQeq! by Chris Wilmer'
_symmetry_space_group_name_H-M	'P1'
_symmetry_Int_Tables_number	1
_symmetry_cell_setting	triclinic
loop_
_symmetry_equiv_pos_as_xyz
  x,y,z
_cell_length_a	12.429
_cell_length_b	12.712
_cell_length_c	15.821
_cell_angle_alpha	98.159
_cell_angle_beta	92.873
_cell_angle_gamma	93.267
loop_
_atom_site_label
_atom_site_type_symbol
_atom_site_fract_x
_atom_site_fract_y
_atom_site_fract_z
_atom_site_charge
Mof_Cu	Cu	0.92623	0.07248	0.50629	0.901
Mof_Cu	Cu	0.84902	0.35586	0.07176	0.941
Mof_Cu	Cu	0.06662	0.5091	0.0795	0.929
Mof_Cu	Cu	0.46409	0.41177	0.06711	0.912
Mof_O 	O 	0.0165	0.1238	0.4208	-0.4
Mof_O 	O 	0.1477	0.0074	0.4118	-0.383
Mof_O 	O 	0.9602	0.3144	0.1582	-0.399
Mof_O 	O 	0.1146	0.4015	0.144	-0.407
Mof_O 	O 	0.7426	0.2873	0.136	-0.344
Mof_O 	O 	0.6117	0.391	0.1071	-0.37
Mof_O 	O 	0.4371	0.3579	0.3089	-0.201
Mof_O 	O 	0.4225	0.4182	0.1832	-0.351
Mof_O 	O 	0.8056	0.5237	0.0946	-0.37
Mof_O 	O 	0.9568	0.5807	0.1736	-0.345
Mof_O 	O 	0.9667	0.867	0.4018	-0.4
Mof_O 	O 	0.8372	0.986	0.4128	-0.391
Mof_O 	O 	0.1951	0.5996	0.1325	-0.384
Mof_O 	O 	0.2517	0.6956	0.0321	-0.37
Mof_O 	O 	0.4879	0.5951	0.0508	-0.438
Mof_O 	O 	0.5275	0.7658	0.0423	-0.308
Mof_O 	O 	0.9647	0.4008	0.0068	-0.632
Mof_H 	H 	0.0033	0.3395	0.9826	0.17
Mof_C 	C 	0.0988	0.0855	0.3878	0.343
Mof_C 	C 	0.1431	0.1327	0.317	-0.085
Mof_C 	C 	0.2454	0.1122	0.2891	-0.004
Mof_H 	H 	0.2848	0.0622	0.3126	0.053
Mof_C 	C 	0.2907	0.1664	0.2253	-0.015
Mof_C 	C 	0.2277	0.2338	0.1876	0.003
Mof_H 	H 	0.2557	0.2689	0.145	0.037
Mof_C 	C 	0.1213	0.2517	0.2116	-0.09
Mof_C 	C 	0.0808	0.2056	0.2791	0.034
Mof_H 	H 	0.0139	0.2224	0.2991	0.054
Mof_C 	C 	0.0576	0.3285	0.1666	0.392
Mof_C 	C 	0.3973	0.145	0.1918	0.058
Mof_C 	C 	0.4692	0.2324	0.1844	-0.084
Mof_C 	C 	0.5672	0.2171	0.1458	-0.057
Mof_C 	C 	0.5903	0.1125	0.1133	-0.016
Mof_H 	H 	0.6525	0.0992	0.0842	0.055
Mof_C 	C 	0.5177	0.0291	0.1259	-0.021
Mof_H 	H 	0.5346	0.9594	0.1077	0.062
Mof_C 	C 	0.4216	0.0461	0.1643	-0.083
Mof_H 	H 	0.3744	0.9888	0.1708	0.069
Mof_C 	C 	0.4427	0.3422	0.2288	0.284
Mof_C 	C 	0.6417	0.3028	0.126	0.32
Mof_C 	C 	0.8575	0.5843	0.1536	0.314
Mof_C 	C 	0.8017	0.6748	0.2025	-0.063
Mof_C 	C 	0.6888	0.6795	0.1948	-0.026
Mof_H 	H 	0.6473	0.6264	0.159	0.06
Mof_C 	C 	0.6387	0.7629	0.2403	0.002
Mof_C 	C 	0.7	0.8376	0.2961	-0.025
Mof_H 	H 	0.6667	0.8946	0.3251	0.058
Mof_C 	C 	0.8122	0.831	0.3109	-0.064
Mof_C 	C 	0.8601	0.7491	0.2624	0.009
Mof_H 	H 	0.9341	0.7438	0.2703	0.061
Mof_C 	C 	0.8769	0.9033	0.3806	0.344
Mof_C 	C 	0.5177	0.7681	0.2386	0.057
Mof_C 	C 	0.4472	0.7271	0.1668	-0.081
Mof_C 	C 	0.3335	0.725	0.1777	-0.016
Mof_C 	C 	0.2922	0.7712	0.2496	-0.05
Mof_H 	H 	0.2179	0.7741	0.2528	0.062
Mof_C 	C 	0.36	0.8137	0.3177	0.006
Mof_H 	H 	0.3316	0.8426	0.3685	0.036
Mof_C 	C 	0.471	0.8141	0.3121	-0.088
Mof_H 	H 	0.5157	0.846	0.3588	0.072
Mof_C 	C 	0.2524	0.6671	0.1077	0.334
Mof_C 	C 	0.4908	0.6952	0.081	0.329
Mof_Cu	Cu	0.07377	0.92752	0.49371	0.901
Mof_Cu	Cu	0.15098	0.64414	0.92824	0.941
Mof_Cu	Cu	0.93338	0.4909	0.9205	0.929
Mof_Cu	Cu	0.53591	0.58823	0.93289	0.912
Mof_O 	O 	0.9835	0.8762	0.5792	-0.4
Mof_O 	O 	0.8523	0.9926	0.5882	-0.383
Mof_O 	O 	0.0398	0.6856	0.8418	-0.399
Mof_O 	O 	0.8854	0.5985	0.856	-0.407
Mof_O 	O 	0.2574	0.7127	0.864	-0.344
Mof_O 	O 	0.3883	0.609	0.8929	-0.37
Mof_O 	O 	0.5629	0.6421	0.6911	-0.201
Mof_O 	O 	0.5775	0.5818	0.8168	-0.351
Mof_O 	O 	0.1944	0.4763	0.9054	-0.37
Mof_O 	O 	0.0432	0.4193	0.8264	-0.345
Mof_O 	O 	0.0333	0.133	0.5982	-0.4
Mof_O 	O 	0.1628	0.014	0.5872	-0.391
Mof_O 	O 	0.8049	0.4004	0.8675	-0.384
Mof_O 	O 	0.7483	0.3044	0.9679	-0.37
Mof_O 	O 	0.5121	0.4049	0.9492	-0.438
Mof_O 	O 	0.4725	0.2342	0.9577	-0.308
Mof_O 	O 	0.0353	0.5992	0.9932	-0.632
Mof_H 	H 	0.9967	0.6605	0.0174	0.17
Mof_C 	C 	0.9012	0.9145	0.6122	0.343
Mof_C 	C 	0.8569	0.8673	0.683	-0.085
Mof_C 	C 	0.7546	0.8878	0.7109	-0.004
Mof_H 	H 	0.7152	0.9378	0.6874	0.053
Mof_C 	C 	0.7093	0.8336	0.7747	-0.015
Mof_C 	C 	0.7723	0.7662	0.8124	0.003
Mof_H 	H 	0.7443	0.7311	0.855	0.037
Mof_C 	C 	0.8787	0.7483	0.7884	-0.09
Mof_C 	C 	0.9192	0.7944	0.7209	0.034
Mof_H 	H 	0.9861	0.7776	0.7009	0.054
Mof_C 	C 	0.9424	0.6715	0.8334	0.392
Mof_C 	C 	0.6027	0.855	0.8082	0.058
Mof_C 	C 	0.5308	0.7676	0.8156	-0.084
Mof_C 	C 	0.4328	0.7829	0.8542	-0.057
Mof_C 	C 	0.4097	0.8875	0.8867	-0.016
Mof_H 	H 	0.3475	0.9008	0.9158	0.055
Mof_C 	C 	0.4823	0.9709	0.8741	-0.021
Mof_H 	H 	0.4654	0.0406	0.8923	0.062
Mof_C 	C 	0.5784	0.9539	0.8357	-0.083
Mof_H 	H 	0.6256	0.0112	0.8292	0.069
Mof_C 	C 	0.5573	0.6578	0.7712	0.284
Mof_C 	C 	0.3583	0.6972	0.874	0.32
Mof_C 	C 	0.1425	0.4157	0.8464	0.314
Mof_C 	C 	0.1983	0.3252	0.7975	-0.063
Mof_C 	C 	0.3112	0.3205	0.8052	-0.026
Mof_H 	H 	0.3527	0.3736	0.841	0.06
Mof_C 	C 	0.3613	0.2371	0.7597	0.002
Mof_C 	C 	0.3	0.1624	0.7039	-0.025
Mof_H 	H 	0.3333	0.1054	0.6749	0.058
Mof_C 	C 	0.1878	0.169	0.6891	-0.064
Mof_C 	C 	0.1399	0.2509	0.7376	0.009
Mof_H 	H 	0.0659	0.2562	0.7297	0.061
Mof_C 	C 	0.1231	0.0967	0.6194	0.344
Mof_C 	C 	0.4823	0.2319	0.7614	0.057
Mof_C 	C 	0.5528	0.2729	0.8332	-0.081
Mof_C 	C 	0.6665	0.275	0.8223	-0.016
Mof_C 	C 	0.7078	0.2288	0.7504	-0.05
Mof_H 	H 	0.7821	0.2259	0.7472	0.062
Mof_C 	C 	0.64	0.1863	0.6823	0.006
Mof_H 	H 	0.6684	0.1574	0.6315	0.036
Mof_C 	C 	0.529	0.1859	0.6879	-0.088
Mof_H 	H 	0.4843	0.154	0.6412	0.072
Mof_C 	C 	0.7476	0.3329	0.8923	0.334
Mof_C 	C 	0.5092	0.3048	0.919	0.329
_end
