data_functionalizedCrystal
_audit_creation_method	'EQeq! by Chris Wilmer'
_symmetry_space_group_name_H-M	'P1'
_symmetry_Int_Tables_number	1
_symmetry_cell_setting	triclinic
loop_
_symmetry_equiv_pos_as_xyz
  x,y,z
_cell_length_a	15.964
_cell_length_b	16.319
_cell_length_c	16.578
_cell_angle_alpha	90
_cell_angle_beta	118.02
_cell_angle_gamma	90
loop_
_atom_site_label
_atom_site_type_symbol
_atom_site_fract_x
_atom_site_fract_y
_atom_site_fract_z
_atom_site_charge
Mof_Cd	Cd	0.11495	0.70281	0.28863	0.447
Mof_Cd	Cd	0.83906	0.72852	0.17752	0.463
Mof_O 	O 	0.9784	0.6216	0.2094	-0.276
Mof_O 	O 	0.8263	0.6068	0.1106	-0.265
Mof_O 	O 	0.7282	0.3826	0.8643	-0.255
Mof_O 	O 	0.8015	0.2694	0.9358	-0.264
Mof_O 	O 	0.1502	0.3358	0.0817	-0.066
Mof_O 	O 	0.2034	0.4276	0.1856	-0.104
Mof_O 	O 	0.7586	0.677	0.2531	-0.283
Mof_O 	O 	0.7276	0.7037	0.3674	-0.279
Mof_O 	O 	0.7942	0.4966	0.6124	-0.226
Mof_O 	O 	0.8393	0.3737	0.5869	-0.263
Mof_O 	O 	0.9925	0.3493	0.4009	-0.106
Mof_O 	O 	0.952	0.4269	0.287	-0.065
Mof_N 	N 	0.0298	0.782	0.1576	-0.113
Mof_N 	N 	0.9312	0.7827	0.1122	-0.112
Mof_N 	N 	0.9826	0.8487	0.0291	-0.143
Mof_N 	N 	0.0357	0.7686	0.361	-0.106
Mof_N 	N 	0.9386	0.776	0.3196	-0.12
Mof_N 	N 	0.9962	0.8295	0.4552	-0.147
Mof_N 	N 	0.1392	0.3862	0.1306	-0.011
Mof_N 	N 	0.9557	0.4111	0.3576	-0.014
Mof_C 	C 	0.9931	0.0288	0.738	-0.288
Mof_H 	H 	0.0493	0.0642	0.7636	0.133
Mof_H 	H 	0.937	0.064	0.7086	0.124
Mof_C 	C 	0.9891	0.9819	0.8148	0.128
Mof_C 	C 	0.9086	0.9782	0.8236	-0.106
Mof_H 	H 	0.8541	0.0059	0.781	0.079
Mof_C 	C 	0.9046	0.9346	0.8939	-0.05
Mof_H 	H 	0.8486	0.9332	0.8992	0.066
Mof_C 	C 	0.9842	0.8938	0.9551	0.088
Mof_C 	C 	0.0666	0.8964	0.9481	-0.054
Mof_H 	H 	0.121	0.8686	0.9908	0.084
Mof_C 	C 	0.0684	0.9401	0.8778	-0.093
Mof_H 	H 	0.1246	0.9417	0.8726	0.091
Mof_C 	C 	0.9971	0.9732	0.6668	0.12
Mof_C 	C 	0.9223	0.9204	0.6158	-0.09
Mof_H 	H 	0.8703	0.918	0.6277	0.077
Mof_C 	C 	0.9227	0.8719	0.5487	-0.054
Mof_H 	H 	0.8714	0.8368	0.5147	0.077
Mof_C 	C 	0.9998	0.8751	0.5315	0.092
Mof_C 	C 	0.0754	0.9251	0.5827	-0.054
Mof_H 	H 	0.1279	0.927	0.5715	0.078
Mof_C 	C 	0.074	0.9727	0.6508	-0.088
Mof_H 	H 	0.1268	0.0055	0.6871	0.087
Mof_C 	C 	0.0588	0.8225	0.1066	0.091
Mof_H 	H 	0.1225	0.8319	0.1216	0.032
Mof_C 	C 	0.9051	0.8217	0.0365	0.113
Mof_H 	H 	0.8417	0.8304	0.9923	0.017
Mof_C 	C 	0.0694	0.8004	0.4425	0.102
Mof_H 	H 	0.134	0.8028	0.4858	0.023
Mof_C 	C 	0.9177	0.812	0.3779	0.111
Mof_H 	H 	0.8557	0.8242	0.367	0.011
Mof_C 	C 	0.9323	0.5092	0.1035	-0.009
Mof_C 	C 	0.8584	0.4675	0.0338	-0.026
Mof_H 	H 	0.796	0.4874	0.0096	0.071
Mof_C 	C 	0.8771	0.3953	0.9996	-0.014
Mof_C 	C 	0.9681	0.3677	0.0325	-0.086
Mof_H 	H 	0.9808	0.3188	0.0104	0.096
Mof_C 	C 	0.0413	0.4128	0.0989	0.119
Mof_C 	C 	0.0245	0.4823	0.1362	-0.087
Mof_H 	H 	0.075	0.5108	0.1831	0.101
Mof_C 	C 	0.9112	0.5848	0.1441	0.293
Mof_C 	C 	0.7963	0.3463	0.9279	0.277
Mof_C 	C 	0.8106	0.5821	0.3764	-0.025
Mof_C 	C 	0.8006	0.5558	0.4516	-0.032
Mof_H 	H 	0.7686	0.5892	0.4746	0.072
Mof_C 	C 	0.8375	0.4808	0.4931	-0.01
Mof_C 	C 	0.8886	0.4341	0.4608	-0.096
Mof_H 	H 	0.9154	0.3839	0.4886	0.103
Mof_C 	C 	0.8996	0.4617	0.3891	0.118
Mof_C 	C 	0.8615	0.5344	0.345	-0.092
Mof_H 	H 	0.8697	0.5515	0.295	0.096
Mof_C 	C 	0.7629	0.6608	0.3282	0.297
Mof_C 	C 	0.8226	0.4492	0.5712	0.287
Mof_O 	O 	0.153	0.3101	0.119	-0.052
Mof_O 	O 	0.975	0.446	0.298	-0.035
Mof_Cd	Cd	0.38505	0.20281	0.71137	0.446
Mof_Cd	Cd	0.66094	0.22852	0.82248	0.462
Mof_O 	O 	0.5216	0.1216	0.7906	-0.277
Mof_O 	O 	0.6737	0.1068	0.8894	-0.266
Mof_O 	O 	0.7718	0.8826	0.1357	-0.255
Mof_O 	O 	0.6985	0.7694	0.0642	-0.264
Mof_O 	O 	0.3498	0.8358	0.9183	-0.066
Mof_O 	O 	0.2966	0.9276	0.8144	-0.104
Mof_O 	O 	0.7414	0.177	0.7469	-0.284
Mof_O 	O 	0.7724	0.2037	0.6326	-0.28
Mof_O 	O 	0.7058	0.9966	0.3876	-0.227
Mof_O 	O 	0.6607	0.8737	0.4131	-0.265
Mof_O 	O 	0.5075	0.8493	0.5991	-0.106
Mof_O 	O 	0.548	0.9269	0.713	-0.065
Mof_N 	N 	0.4702	0.282	0.8424	-0.113
Mof_N 	N 	0.5688	0.2827	0.8878	-0.112
Mof_N 	N 	0.5174	0.3487	0.9709	-0.143
Mof_N 	N 	0.4643	0.2686	0.639	-0.106
Mof_N 	N 	0.5614	0.276	0.6804	-0.12
Mof_N 	N 	0.5038	0.3295	0.5448	-0.146
Mof_N 	N 	0.3608	0.8862	0.8694	-0.011
Mof_N 	N 	0.5443	0.9111	0.6424	-0.014
Mof_C 	C 	0.5069	0.5288	0.262	-0.303
Mof_H 	H 	0.4507	0.5642	0.2364	0.138
Mof_H 	H 	0.563	0.564	0.2914	0.127
Mof_C 	C 	0.5109	0.4819	0.1852	0.137
Mof_C 	C 	0.5914	0.4782	0.1764	-0.108
Mof_H 	H 	0.6459	0.5059	0.219	0.079
Mof_C 	C 	0.5954	0.4346	0.1061	-0.049
Mof_H 	H 	0.6514	0.4332	0.1008	0.066
Mof_C 	C 	0.5158	0.3938	0.0449	0.091
Mof_C 	C 	0.4334	0.3964	0.0519	-0.055
Mof_H 	H 	0.379	0.3686	0.0092	0.083
Mof_C 	C 	0.4316	0.4401	0.1222	-0.099
Mof_H 	H 	0.3754	0.4417	0.1274	0.092
Mof_C 	C 	0.5029	0.4732	0.3332	0.133
Mof_C 	C 	0.5777	0.4204	0.3842	-0.098
Mof_H 	H 	0.6297	0.418	0.3723	0.08
Mof_C 	C 	0.5773	0.3719	0.4513	-0.048
Mof_H 	H 	0.6286	0.3368	0.4853	0.075
Mof_C 	C 	0.5002	0.3751	0.4685	0.09
Mof_C 	C 	0.4246	0.4251	0.4173	-0.048
Mof_H 	H 	0.3721	0.427	0.4285	0.076
Mof_C 	C 	0.426	0.4727	0.3492	-0.101
Mof_H 	H 	0.3732	0.5055	0.3129	0.092
Mof_C 	C 	0.4412	0.3225	0.8934	0.092
Mof_H 	H 	0.3775	0.3319	0.8784	0.032
Mof_C 	C 	0.5949	0.3217	0.9635	0.11
Mof_H 	H 	0.6583	0.3304	0.0077	0.019
Mof_C 	C 	0.4306	0.3004	0.5575	0.101
Mof_H 	H 	0.366	0.3028	0.5142	0.023
Mof_C 	C 	0.5823	0.312	0.6221	0.111
Mof_H 	H 	0.6443	0.3242	0.633	0.011
Mof_C 	C 	0.5677	0.0092	0.8965	-0.007
Mof_C 	C 	0.6416	0.9675	0.9662	-0.031
Mof_H 	H 	0.704	0.9874	0.9904	0.071
Mof_C 	C 	0.6229	0.8953	0.0004	-0.008
Mof_C 	C 	0.5319	0.8677	0.9675	-0.093
Mof_H 	H 	0.5192	0.8188	0.9896	0.098
Mof_C 	C 	0.4587	0.9128	0.9011	0.124
Mof_C 	C 	0.4755	0.9823	0.8638	-0.088
Mof_H 	H 	0.425	0.0108	0.8169	0.101
Mof_C 	C 	0.5888	0.0848	0.8559	0.292
Mof_C 	C 	0.7037	0.8463	0.0721	0.275
Mof_C 	C 	0.6894	0.0821	0.6236	-0.025
Mof_C 	C 	0.6994	0.0558	0.5484	-0.03
Mof_H 	H 	0.7314	0.0892	0.5254	0.072
Mof_C 	C 	0.6625	0.9808	0.5069	-0.011
Mof_C 	C 	0.6114	0.9341	0.5392	-0.095
Mof_H 	H 	0.5846	0.8839	0.5114	0.103
Mof_C 	C 	0.6004	0.9617	0.6109	0.117
Mof_C 	C 	0.6385	0.0344	0.655	-0.091
Mof_H 	H 	0.6303	0.0515	0.705	0.096
Mof_C 	C 	0.7371	0.1608	0.6718	0.298
Mof_C 	C 	0.6774	0.9492	0.4288	0.287
Mof_O 	O 	0.347	0.8101	0.881	-0.052
Mof_O 	O 	0.525	0.946	0.702	-0.035
Mof_Cd	Cd	0.88505	0.29719	0.71137	0.446
Mof_Cd	Cd	0.16094	0.27148	0.82248	0.462
Mof_O 	O 	0.0216	0.3784	0.7906	-0.277
Mof_O 	O 	0.1737	0.3932	0.8894	-0.266
Mof_O 	O 	0.2718	0.6174	0.1357	-0.256
Mof_O 	O 	0.1985	0.7306	0.0642	-0.265
Mof_O 	O 	0.8498	0.6642	0.9183	-0.067
Mof_O 	O 	0.7966	0.5724	0.8144	-0.105
Mof_O 	O 	0.2414	0.323	0.7469	-0.284
Mof_O 	O 	0.2724	0.2963	0.6326	-0.28
Mof_O 	O 	0.2058	0.5034	0.3876	-0.227
Mof_O 	O 	0.1607	0.6263	0.4131	-0.264
Mof_O 	O 	0.0075	0.6507	0.5991	-0.106
Mof_O 	O 	0.048	0.5731	0.713	-0.065
Mof_N 	N 	0.9702	0.218	0.8424	-0.113
Mof_N 	N 	0.0688	0.2173	0.8878	-0.112
Mof_N 	N 	0.0174	0.1513	0.9709	-0.143
Mof_N 	N 	0.9643	0.2314	0.639	-0.106
Mof_N 	N 	0.0614	0.224	0.6804	-0.12
Mof_N 	N 	0.0038	0.1705	0.5448	-0.147
Mof_N 	N 	0.8608	0.6138	0.8694	-0.011
Mof_N 	N 	0.0443	0.5889	0.6424	-0.014
Mof_C 	C 	0.0069	0.9712	0.262	-0.288
Mof_H 	H 	0.9507	0.9358	0.2364	0.133
Mof_H 	H 	0.063	0.936	0.2914	0.124
Mof_C 	C 	0.0109	0.0181	0.1852	0.128
Mof_C 	C 	0.0914	0.0218	0.1764	-0.106
Mof_H 	H 	0.1459	0.9941	0.219	0.079
Mof_C 	C 	0.0954	0.0654	0.1061	-0.05
Mof_H 	H 	0.1514	0.0668	0.1008	0.066
Mof_C 	C 	0.0158	0.1062	0.0449	0.088
Mof_C 	C 	0.9334	0.1036	0.0519	-0.054
Mof_H 	H 	0.879	0.1314	0.0092	0.084
Mof_C 	C 	0.9316	0.0599	0.1222	-0.093
Mof_H 	H 	0.8754	0.0583	0.1274	0.091
Mof_C 	C 	0.0029	0.0268	0.3332	0.12
Mof_C 	C 	0.0777	0.0796	0.3842	-0.09
Mof_H 	H 	0.1297	0.082	0.3723	0.077
Mof_C 	C 	0.0773	0.1281	0.4513	-0.054
Mof_H 	H 	0.1286	0.1632	0.4853	0.077
Mof_C 	C 	0.0002	0.1249	0.4685	0.092
Mof_C 	C 	0.9246	0.0749	0.4173	-0.054
Mof_H 	H 	0.8721	0.073	0.4285	0.078
Mof_C 	C 	0.926	0.0273	0.3492	-0.088
Mof_H 	H 	0.8732	0.9945	0.3129	0.087
Mof_C 	C 	0.9412	0.1775	0.8934	0.091
Mof_H 	H 	0.8775	0.1681	0.8784	0.032
Mof_C 	C 	0.0949	0.1783	0.9635	0.113
Mof_H 	H 	0.1583	0.1696	0.0077	0.017
Mof_C 	C 	0.9306	0.1996	0.5575	0.102
Mof_H 	H 	0.866	0.1972	0.5142	0.023
Mof_C 	C 	0.0823	0.188	0.6221	0.111
Mof_H 	H 	0.1443	0.1758	0.633	0.011
Mof_C 	C 	0.0677	0.4908	0.8965	-0.009
Mof_C 	C 	0.1416	0.5325	0.9662	-0.026
Mof_H 	H 	0.204	0.5126	0.9904	0.071
Mof_C 	C 	0.1229	0.6047	0.0004	-0.014
Mof_C 	C 	0.0319	0.6323	0.9675	-0.086
Mof_H 	H 	0.0192	0.6812	0.9896	0.096
Mof_C 	C 	0.9587	0.5872	0.9011	0.119
Mof_C 	C 	0.9755	0.5177	0.8638	-0.087
Mof_H 	H 	0.925	0.4892	0.8169	0.101
Mof_C 	C 	0.0888	0.4152	0.8559	0.293
Mof_C 	C 	0.2037	0.6537	0.0721	0.277
Mof_C 	C 	0.1894	0.4179	0.6236	-0.025
Mof_C 	C 	0.1994	0.4442	0.5484	-0.032
Mof_H 	H 	0.2314	0.4108	0.5254	0.072
Mof_C 	C 	0.1625	0.5192	0.5069	-0.01
Mof_C 	C 	0.1114	0.5659	0.5392	-0.096
Mof_H 	H 	0.0846	0.6161	0.5114	0.103
Mof_C 	C 	0.1004	0.5383	0.6109	0.118
Mof_C 	C 	0.1385	0.4656	0.655	-0.092
Mof_H 	H 	0.1303	0.4485	0.705	0.096
Mof_C 	C 	0.2371	0.3392	0.6718	0.297
Mof_C 	C 	0.1774	0.5508	0.4288	0.287
Mof_O 	O 	0.847	0.6899	0.881	-0.052
Mof_O 	O 	0.025	0.554	0.702	-0.035
Mof_Cd	Cd	0.61495	0.79719	0.28863	0.446
Mof_Cd	Cd	0.33906	0.77148	0.17752	0.462
Mof_O 	O 	0.4784	0.8784	0.2094	-0.277
Mof_O 	O 	0.3263	0.8932	0.1106	-0.266
Mof_O 	O 	0.2282	0.1174	0.8643	-0.255
Mof_O 	O 	0.3015	0.2306	0.9358	-0.264
Mof_O 	O 	0.6502	0.1642	0.0817	-0.066
Mof_O 	O 	0.7034	0.0724	0.1856	-0.104
Mof_O 	O 	0.2586	0.823	0.2531	-0.284
Mof_O 	O 	0.2276	0.7963	0.3674	-0.28
Mof_O 	O 	0.2942	0.0034	0.6124	-0.227
Mof_O 	O 	0.3393	0.1263	0.5869	-0.265
Mof_O 	O 	0.4925	0.1507	0.4009	-0.106
Mof_O 	O 	0.452	0.0731	0.287	-0.065
Mof_N 	N 	0.5298	0.718	0.1576	-0.113
Mof_N 	N 	0.4312	0.7173	0.1122	-0.112
Mof_N 	N 	0.4826	0.6513	0.0291	-0.143
Mof_N 	N 	0.5357	0.7314	0.361	-0.106
Mof_N 	N 	0.4386	0.724	0.3196	-0.12
Mof_N 	N 	0.4962	0.6705	0.4552	-0.146
Mof_N 	N 	0.6392	0.1138	0.1306	-0.011
Mof_N 	N 	0.4557	0.0889	0.3576	-0.014
Mof_C 	C 	0.4931	0.4712	0.738	-0.303
Mof_H 	H 	0.5493	0.4358	0.7636	0.138
Mof_H 	H 	0.437	0.436	0.7086	0.127
Mof_C 	C 	0.4891	0.5181	0.8148	0.137
Mof_C 	C 	0.4086	0.5218	0.8236	-0.108
Mof_H 	H 	0.3541	0.4941	0.781	0.079
Mof_C 	C 	0.4046	0.5654	0.8939	-0.049
Mof_H 	H 	0.3486	0.5668	0.8992	0.066
Mof_C 	C 	0.4842	0.6062	0.9551	0.091
Mof_C 	C 	0.5666	0.6036	0.9481	-0.055
Mof_H 	H 	0.621	0.6314	0.9908	0.083
Mof_C 	C 	0.5684	0.5599	0.8778	-0.099
Mof_H 	H 	0.6246	0.5583	0.8726	0.092
Mof_C 	C 	0.4971	0.5268	0.6668	0.133
Mof_C 	C 	0.4223	0.5796	0.6158	-0.098
Mof_H 	H 	0.3703	0.582	0.6277	0.08
Mof_C 	C 	0.4227	0.6281	0.5487	-0.048
Mof_H 	H 	0.3714	0.6632	0.5147	0.075
Mof_C 	C 	0.4998	0.6249	0.5315	0.09
Mof_C 	C 	0.5754	0.5749	0.5827	-0.048
Mof_H 	H 	0.6279	0.573	0.5715	0.076
Mof_C 	C 	0.574	0.5273	0.6508	-0.101
Mof_H 	H 	0.6268	0.4945	0.6871	0.092
Mof_C 	C 	0.5588	0.6775	0.1066	0.092
Mof_H 	H 	0.6225	0.6681	0.1216	0.032
Mof_C 	C 	0.4051	0.6783	0.0365	0.11
Mof_H 	H 	0.3417	0.6696	0.9923	0.019
Mof_C 	C 	0.5694	0.6996	0.4425	0.101
Mof_H 	H 	0.634	0.6972	0.4858	0.023
Mof_C 	C 	0.4177	0.688	0.3779	0.111
Mof_H 	H 	0.3557	0.6758	0.367	0.011
Mof_C 	C 	0.4323	0.9908	0.1035	-0.007
Mof_C 	C 	0.3584	0.0325	0.0338	-0.031
Mof_H 	H 	0.296	0.0126	0.0096	0.071
Mof_C 	C 	0.3771	0.1047	0.9996	-0.008
Mof_C 	C 	0.4681	0.1323	0.0325	-0.093
Mof_H 	H 	0.4808	0.1812	0.0104	0.098
Mof_C 	C 	0.5413	0.0872	0.0989	0.124
Mof_C 	C 	0.5245	0.0177	0.1362	-0.088
Mof_H 	H 	0.575	0.9892	0.1831	0.101
Mof_C 	C 	0.4112	0.9152	0.1441	0.292
Mof_C 	C 	0.2963	0.1537	0.9279	0.275
Mof_C 	C 	0.3106	0.9179	0.3764	-0.025
Mof_C 	C 	0.3006	0.9442	0.4516	-0.03
Mof_H 	H 	0.2686	0.9108	0.4746	0.072
Mof_C 	C 	0.3375	0.0192	0.4931	-0.011
Mof_C 	C 	0.3886	0.0659	0.4608	-0.095
Mof_H 	H 	0.4154	0.1161	0.4886	0.103
Mof_C 	C 	0.3996	0.0383	0.3891	0.117
Mof_C 	C 	0.3615	0.9656	0.345	-0.091
Mof_H 	H 	0.3697	0.9485	0.295	0.096
Mof_C 	C 	0.2629	0.8392	0.3282	0.298
Mof_C 	C 	0.3226	0.0508	0.5712	0.287
Mof_O 	O 	0.653	0.1899	0.119	-0.052
Mof_O 	O 	0.475	0.054	0.298	-0.035
_end
