data_functionalizedCrystal
_audit_creation_method	'EQeq! by Chris Wilmer'
_symmetry_space_group_name_H-M	'P1'
_symmetry_Int_Tables_number	1
_symmetry_cell_setting	triclinic
loop_
_symmetry_equiv_pos_as_xyz
  x,y,z
_cell_length_a	24.2742
_cell_length_b	16.125
_cell_length_c	22.0331
_cell_angle_alpha	90
_cell_angle_beta	100.22
_cell_angle_gamma	90
loop_
_atom_site_label
_atom_site_type_symbol
_atom_site_fract_x
_atom_site_fract_y
_atom_site_fract_z
_atom_site_charge
Mof_Pr	Pr	0.25877	0.21054	0.59563	2.475
Mof_Si	Si	0.37955	0.27381	0.0067	0.849
Mof_C 	C 	0.3572	0.2588	0.9222	-0.33
Mof_C 	C 	0.3929	0.2339	0.8819	0.151
Mof_H 	H 	0.43	0.2218	0.8983	-0.034
Mof_C 	C 	0.3015	0.2697	0.8943	0.151
Mof_H 	H 	0.2754	0.2829	0.9191	-0.03
Mof_C 	C 	0.2833	0.2616	0.8314	-0.161
Mof_H 	H 	0.246	0.2713	0.8144	0.107
Mof_C 	C 	0.3754	0.2266	0.8192	-0.162
Mof_H 	H 	0.4008	0.213	0.7938	0.099
Mof_C 	C 	0.32	0.2398	0.7947	0.055
Mof_C 	C 	0.2994	0.2307	0.7257	0.294
Mof_C 	C 	0.4576	0.2757	0.028	-0.335
Mof_C 	C 	0.4871	0.3444	0.05	0.157
Mof_H 	H 	0.4677	0.3935	0.0531	-0.033
Mof_C 	C 	0.4881	0.2038	0.025	0.147
Mof_H 	H 	0.4692	0.155	0.0121	-0.036
Mof_C 	C 	0.5452	0.3441	0.068	-0.162
Mof_H 	H 	0.5638	0.392	0.0838	0.099
Mof_C 	C 	0.5463	0.2023	0.0406	-0.16
Mof_H 	H 	0.5657	0.1535	0.0364	0.087
Mof_C 	C 	0.5751	0.2726	0.0622	0.039
Mof_C 	C 	0.6379	0.2743	0.0793	0.26
Mof_C 	C 	0.351	0.3756	0.0261	-0.289
Mof_C 	C 	0.3602	0.4435	0.988	0.067
Mof_H 	H 	0.38	0.4358	0.956	-0.004
Mof_C 	C 	0.3227	0.3903	0.0733	0.096
Mof_H 	H 	0.3157	0.3465	0.0983	-0.012
Mof_C 	C 	0.3037	0.4715	0.0851	-0.084
Mof_H 	H 	0.2863	0.4809	0.1188	0.074
Mof_C 	C 	0.3391	0.5227	0.999	-0.06
Mof_H 	H 	0.3445	0.5667	0.9734	0.044
Mof_C 	C 	0.3111	0.5354	0.0466	-0.072
Mof_C 	C 	0.2898	0.6187	0.0587	0.383
Mof_C 	C 	0.3528	0.1884	0.05	-0.313
Mof_C 	C 	0.3222	0.1231	0.0221	0.105
Mof_H 	H 	0.3139	0.1219	0.9792	-0.018
Mof_C 	C 	0.3662	0.1857	0.1131	0.108
Mof_H 	H 	0.3879	0.228	0.1339	-0.019
Mof_C 	C 	0.3481	0.1209	0.1467	-0.097
Mof_H 	H 	0.3574	0.1208	0.1895	0.076
Mof_C 	C 	0.3029	0.0588	0.0546	-0.089
Mof_H 	H 	0.2808	0.0174	0.0334	0.049
Mof_C 	C 	0.316	0.0561	0.1163	-0.06
Mof_C 	C 	0.2924	0.9868	0.1503	0.416
Mof_O 	O 	0.3342	0.2166	0.6906	-0.463
Mof_O 	O 	0.2481	0.2379	0.7047	-0.436
Mof_O 	O 	0.66516	0.2113	0.0653	-0.449
Mof_O 	O 	0.66138	0.3362	0.1067	-0.427
Mof_O 	O 	0.283	0.639	0.1121	-0.49
Mof_O 	O 	0.2771	0.6703	0.0138	-0.678
Mof_O 	O 	0.3002	0.9949	0.2095	-0.271
Mof_O 	O 	0.2672	0.9292	0.123	-0.594
Mof_Pr	Pr	0.75877	0.71054	0.59563	2.474
Mof_Si	Si	0.87955	0.77381	0.0067	0.844
Mof_C 	C 	0.8572	0.7588	0.9222	-0.329
Mof_C 	C 	0.8929	0.7339	0.8819	0.148
Mof_H 	H 	0.93	0.7218	0.8983	-0.034
Mof_C 	C 	0.8015	0.7697	0.8943	0.149
Mof_H 	H 	0.7754	0.7829	0.9191	-0.03
Mof_C 	C 	0.7833	0.7616	0.8314	-0.161
Mof_H 	H 	0.746	0.7713	0.8144	0.106
Mof_C 	C 	0.8754	0.7266	0.8192	-0.161
Mof_H 	H 	0.9008	0.713	0.7938	0.097
Mof_C 	C 	0.82	0.7398	0.7947	0.053
Mof_C 	C 	0.7994	0.7307	0.7257	0.294
Mof_C 	C 	0.9576	0.7757	0.028	-0.334
Mof_C 	C 	0.9871	0.8444	0.05	0.153
Mof_H 	H 	0.9677	0.8935	0.0531	-0.033
Mof_C 	C 	0.9881	0.7038	0.025	0.143
Mof_H 	H 	0.9692	0.655	0.0121	-0.036
Mof_C 	C 	0.0452	0.8441	0.068	-0.16
Mof_H 	H 	0.0638	0.892	0.0838	0.097
Mof_C 	C 	0.0463	0.7023	0.0406	-0.158
Mof_H 	H 	0.0657	0.6535	0.0364	0.085
Mof_C 	C 	0.0751	0.7726	0.0622	0.037
Mof_C 	C 	0.1379	0.7743	0.0793	0.26
Mof_C 	C 	0.851	0.8756	0.0261	-0.29
Mof_C 	C 	0.8602	0.9435	0.988	0.07
Mof_H 	H 	0.88	0.9358	0.956	-0.005
Mof_C 	C 	0.8227	0.8903	0.0733	0.097
Mof_H 	H 	0.8157	0.8465	0.0983	-0.013
Mof_C 	C 	0.8037	0.9715	0.0851	-0.086
Mof_H 	H 	0.7863	0.9809	0.1188	0.075
Mof_C 	C 	0.8391	0.0227	0.999	-0.062
Mof_H 	H 	0.8445	0.0667	0.9734	0.045
Mof_C 	C 	0.8111	0.0354	0.0466	-0.071
Mof_C 	C 	0.7898	0.1187	0.0587	0.383
Mof_C 	C 	0.8528	0.6884	0.05	-0.31
Mof_C 	C 	0.8222	0.6231	0.0221	0.1
Mof_H 	H 	0.8139	0.6219	0.9792	-0.015
Mof_C 	C 	0.8662	0.6857	0.1131	0.105
Mof_H 	H 	0.8879	0.728	0.1339	-0.018
Mof_C 	C 	0.8481	0.6209	0.1467	-0.095
Mof_H 	H 	0.8574	0.6208	0.1895	0.075
Mof_C 	C 	0.8029	0.5588	0.0546	-0.085
Mof_H 	H 	0.7808	0.5174	0.0334	0.048
Mof_C 	C 	0.816	0.5561	0.1163	-0.062
Mof_C 	C 	0.7924	0.4868	0.1503	0.417
Mof_O 	O 	0.8342	0.7166	0.6906	-0.463
Mof_O 	O 	0.7481	0.7379	0.7047	-0.436
Mof_O 	O 	0.16516	0.7113	0.0653	-0.449
Mof_O 	O 	0.16138	0.8362	0.1067	-0.427
Mof_O 	O 	0.783	0.139	0.1121	-0.489
Mof_O 	O 	0.7771	0.1703	0.0138	-0.678
Mof_O 	O 	0.8002	0.4949	0.2095	-0.271
Mof_O 	O 	0.7672	0.4292	0.123	-0.594
Mof_Pr	Pr	0.74123	0.21054	0.90437	2.474
Mof_Si	Si	0.62045	0.27381	0.4933	0.845
Mof_C 	C 	0.6428	0.2588	0.5778	-0.33
Mof_C 	C 	0.6071	0.2339	0.6181	0.149
Mof_H 	H 	0.57	0.2218	0.6017	-0.034
Mof_C 	C 	0.6985	0.2697	0.6057	0.149
Mof_H 	H 	0.7246	0.2829	0.5809	-0.031
Mof_C 	C 	0.7167	0.2616	0.6686	-0.161
Mof_H 	H 	0.754	0.2713	0.6856	0.106
Mof_C 	C 	0.6246	0.2266	0.6808	-0.162
Mof_H 	H 	0.5992	0.213	0.7062	0.098
Mof_C 	C 	0.68	0.2398	0.7053	0.054
Mof_C 	C 	0.7006	0.2307	0.7743	0.293
Mof_C 	C 	0.5424	0.2757	0.472	-0.336
Mof_C 	C 	0.5129	0.3444	0.45	0.155
Mof_H 	H 	0.5323	0.3935	0.4469	-0.034
Mof_C 	C 	0.5119	0.2038	0.475	0.145
Mof_H 	H 	0.5308	0.155	0.4879	-0.037
Mof_C 	C 	0.4548	0.3441	0.432	-0.163
Mof_H 	H 	0.4362	0.392	0.4162	0.098
Mof_C 	C 	0.4537	0.2023	0.4594	-0.161
Mof_H 	H 	0.4343	0.1535	0.4636	0.086
Mof_C 	C 	0.4249	0.2726	0.4378	0.039
Mof_C 	C 	0.3621	0.2743	0.4207	0.26
Mof_C 	C 	0.649	0.3756	0.4739	-0.288
Mof_C 	C 	0.6398	0.4435	0.512	0.067
Mof_H 	H 	0.62	0.4358	0.544	-0.004
Mof_C 	C 	0.6773	0.3903	0.4267	0.096
Mof_H 	H 	0.6843	0.3465	0.4017	-0.012
Mof_C 	C 	0.6963	0.4715	0.4149	-0.083
Mof_H 	H 	0.7137	0.4809	0.3812	0.074
Mof_C 	C 	0.6609	0.5227	0.501	-0.06
Mof_H 	H 	0.6555	0.5667	0.5266	0.044
Mof_C 	C 	0.6889	0.5354	0.4534	-0.073
Mof_C 	C 	0.7102	0.6187	0.4413	0.383
Mof_C 	C 	0.6472	0.1884	0.45	-0.311
Mof_C 	C 	0.6778	0.1231	0.4779	0.102
Mof_H 	H 	0.6861	0.1219	0.5208	-0.016
Mof_C 	C 	0.6338	0.1857	0.3869	0.106
Mof_H 	H 	0.6121	0.228	0.3661	-0.018
Mof_C 	C 	0.6519	0.1209	0.3533	-0.096
Mof_H 	H 	0.6426	0.1208	0.3105	0.075
Mof_C 	C 	0.6971	0.0588	0.4454	-0.087
Mof_H 	H 	0.7192	0.0174	0.4666	0.048
Mof_C 	C 	0.684	0.0561	0.3837	-0.062
Mof_C 	C 	0.7076	0.9868	0.3497	0.417
Mof_O 	O 	0.6658	0.2166	0.8094	-0.463
Mof_O 	O 	0.7519	0.2379	0.7953	-0.436
Mof_O 	O 	0.33484	0.2113	0.4347	-0.449
Mof_O 	O 	0.33862	0.3362	0.3933	-0.427
Mof_O 	O 	0.717	0.639	0.3879	-0.49
Mof_O 	O 	0.7229	0.6703	0.4862	-0.678
Mof_O 	O 	0.6998	0.9949	0.2905	-0.271
Mof_O 	O 	0.7328	0.9292	0.377	-0.594
Mof_Pr	Pr	0.24123	0.71054	0.90437	2.474
Mof_Si	Si	0.12045	0.77381	0.4933	0.845
Mof_C 	C 	0.1428	0.7588	0.5778	-0.33
Mof_C 	C 	0.1071	0.7339	0.6181	0.149
Mof_H 	H 	0.07	0.7218	0.6017	-0.034
Mof_C 	C 	0.1985	0.7697	0.6057	0.149
Mof_H 	H 	0.2246	0.7829	0.5809	-0.031
Mof_C 	C 	0.2167	0.7616	0.6686	-0.161
Mof_H 	H 	0.254	0.7713	0.6856	0.106
Mof_C 	C 	0.1246	0.7266	0.6808	-0.162
Mof_H 	H 	0.0992	0.713	0.7062	0.098
Mof_C 	C 	0.18	0.7398	0.7053	0.054
Mof_C 	C 	0.2006	0.7307	0.7743	0.293
Mof_C 	C 	0.0424	0.7757	0.472	-0.336
Mof_C 	C 	0.0129	0.8444	0.45	0.156
Mof_H 	H 	0.0323	0.8935	0.4469	-0.034
Mof_C 	C 	0.0119	0.7038	0.475	0.145
Mof_H 	H 	0.0308	0.655	0.4879	-0.037
Mof_C 	C 	0.9548	0.8441	0.432	-0.163
Mof_H 	H 	0.9362	0.892	0.4162	0.098
Mof_C 	C 	0.9537	0.7023	0.4594	-0.161
Mof_H 	H 	0.9343	0.6535	0.4636	0.086
Mof_C 	C 	0.9249	0.7726	0.4378	0.039
Mof_C 	C 	0.8621	0.7743	0.4207	0.26
Mof_C 	C 	0.149	0.8756	0.4739	-0.289
Mof_C 	C 	0.1398	0.9435	0.512	0.067
Mof_H 	H 	0.12	0.9358	0.544	-0.004
Mof_C 	C 	0.1773	0.8903	0.4267	0.096
Mof_H 	H 	0.1843	0.8465	0.4017	-0.012
Mof_C 	C 	0.1963	0.9715	0.4149	-0.084
Mof_H 	H 	0.2137	0.9809	0.3812	0.074
Mof_C 	C 	0.1609	0.0227	0.501	-0.06
Mof_H 	H 	0.1555	0.0667	0.5266	0.044
Mof_C 	C 	0.1889	0.0354	0.4534	-0.073
Mof_C 	C 	0.2102	0.1187	0.4413	0.383
Mof_C 	C 	0.1472	0.6884	0.45	-0.311
Mof_C 	C 	0.1778	0.6231	0.4779	0.102
Mof_H 	H 	0.1861	0.6219	0.5208	-0.016
Mof_C 	C 	0.1338	0.6857	0.3869	0.106
Mof_H 	H 	0.1121	0.728	0.3661	-0.018
Mof_C 	C 	0.1519	0.6209	0.3533	-0.096
Mof_H 	H 	0.1426	0.6208	0.3105	0.075
Mof_C 	C 	0.1971	0.5588	0.4454	-0.087
Mof_H 	H 	0.2192	0.5174	0.4666	0.048
Mof_C 	C 	0.184	0.5561	0.3837	-0.062
Mof_C 	C 	0.2076	0.4868	0.3497	0.417
Mof_O 	O 	0.1658	0.7166	0.8094	-0.463
Mof_O 	O 	0.2519	0.7379	0.7953	-0.436
Mof_O 	O 	0.83484	0.7113	0.4347	-0.449
Mof_O 	O 	0.83862	0.8362	0.3933	-0.427
Mof_O 	O 	0.217	0.139	0.3879	-0.49
Mof_O 	O 	0.2229	0.1703	0.4862	-0.678
Mof_O 	O 	0.1998	0.4949	0.2905	-0.271
Mof_O 	O 	0.2328	0.4292	0.377	-0.594
Mof_Pr	Pr	0.74123	0.78946	0.40437	2.474
Mof_Si	Si	0.62045	0.72619	0.9933	0.848
Mof_C 	C 	0.6428	0.7412	0.0778	-0.331
Mof_C 	C 	0.6071	0.7661	0.1181	0.15
Mof_H 	H 	0.57	0.7782	0.1017	-0.035
Mof_C 	C 	0.6985	0.7303	0.1057	0.15
Mof_H 	H 	0.7246	0.7171	0.0809	-0.031
Mof_C 	C 	0.7167	0.7384	0.1686	-0.162
Mof_H 	H 	0.754	0.7287	0.1856	0.106
Mof_C 	C 	0.6246	0.7734	0.1808	-0.163
Mof_H 	H 	0.5992	0.787	0.2062	0.098
Mof_C 	C 	0.68	0.7602	0.2053	0.054
Mof_C 	C 	0.7006	0.7693	0.2743	0.293
Mof_C 	C 	0.5424	0.7243	0.972	-0.336
Mof_C 	C 	0.5129	0.6556	0.95	0.156
Mof_H 	H 	0.5323	0.6065	0.9469	-0.034
Mof_C 	C 	0.5119	0.7962	0.975	0.146
Mof_H 	H 	0.5308	0.845	0.9879	-0.037
Mof_C 	C 	0.4548	0.6559	0.932	-0.163
Mof_H 	H 	0.4362	0.608	0.9162	0.098
Mof_C 	C 	0.4537	0.7977	0.9594	-0.161
Mof_H 	H 	0.4343	0.8465	0.9636	0.086
Mof_C 	C 	0.4249	0.7274	0.9378	0.039
Mof_C 	C 	0.3621	0.7257	0.9207	0.26
Mof_C 	C 	0.649	0.6244	0.9739	-0.289
Mof_C 	C 	0.6398	0.5565	0.012	0.067
Mof_H 	H 	0.62	0.5642	0.044	-0.004
Mof_C 	C 	0.6773	0.6097	0.9267	0.096
Mof_H 	H 	0.6843	0.6535	0.9017	-0.012
Mof_C 	C 	0.6963	0.5285	0.9149	-0.084
Mof_H 	H 	0.7137	0.5191	0.8812	0.074
Mof_C 	C 	0.6609	0.4773	0.001	-0.06
Mof_H 	H 	0.6555	0.4333	0.0266	0.044
Mof_C 	C 	0.6889	0.4646	0.9534	-0.072
Mof_C 	C 	0.7102	0.3813	0.9413	0.383
Mof_C 	C 	0.6472	0.8116	0.95	-0.313
Mof_C 	C 	0.6778	0.8769	0.9779	0.105
Mof_H 	H 	0.6861	0.8781	0.0208	-0.018
Mof_C 	C 	0.6338	0.8143	0.8869	0.108
Mof_H 	H 	0.6121	0.772	0.8661	-0.019
Mof_C 	C 	0.6519	0.8791	0.8533	-0.097
Mof_H 	H 	0.6426	0.8792	0.8105	0.076
Mof_C 	C 	0.6971	0.9412	0.9454	-0.089
Mof_H 	H 	0.7192	0.9826	0.9666	0.049
Mof_C 	C 	0.684	0.9439	0.8837	-0.06
Mof_C 	C 	0.7076	0.0132	0.8497	0.416
Mof_O 	O 	0.6658	0.7834	0.3094	-0.463
Mof_O 	O 	0.7519	0.7621	0.2953	-0.436
Mof_O 	O 	0.33484	0.7887	0.9347	-0.449
Mof_O 	O 	0.33862	0.6638	0.8933	-0.427
Mof_O 	O 	0.717	0.361	0.8879	-0.49
Mof_O 	O 	0.7229	0.3297	0.9862	-0.678
Mof_O 	O 	0.6998	0.0051	0.7905	-0.271
Mof_O 	O 	0.7328	0.0708	0.877	-0.594
Mof_Pr	Pr	0.24123	0.28946	0.40437	2.474
Mof_Si	Si	0.12045	0.22619	0.9933	0.844
Mof_C 	C 	0.1428	0.2412	0.0778	-0.329
Mof_C 	C 	0.1071	0.2661	0.1181	0.148
Mof_H 	H 	0.07	0.2782	0.1017	-0.034
Mof_C 	C 	0.1985	0.2303	0.1057	0.149
Mof_H 	H 	0.2246	0.2171	0.0809	-0.03
Mof_C 	C 	0.2167	0.2384	0.1686	-0.161
Mof_H 	H 	0.254	0.2287	0.1856	0.106
Mof_C 	C 	0.1246	0.2734	0.1808	-0.161
Mof_H 	H 	0.0992	0.287	0.2062	0.097
Mof_C 	C 	0.18	0.2602	0.2053	0.053
Mof_C 	C 	0.2006	0.2693	0.2743	0.294
Mof_C 	C 	0.0424	0.2243	0.972	-0.334
Mof_C 	C 	0.0129	0.1556	0.95	0.153
Mof_H 	H 	0.0323	0.1065	0.9469	-0.033
Mof_C 	C 	0.0119	0.2962	0.975	0.143
Mof_H 	H 	0.0308	0.345	0.9879	-0.036
Mof_C 	C 	0.9548	0.1559	0.932	-0.16
Mof_H 	H 	0.9362	0.108	0.9162	0.097
Mof_C 	C 	0.9537	0.2977	0.9594	-0.158
Mof_H 	H 	0.9343	0.3465	0.9636	0.085
Mof_C 	C 	0.9249	0.2274	0.9378	0.037
Mof_C 	C 	0.8621	0.2257	0.9207	0.26
Mof_C 	C 	0.149	0.1244	0.9739	-0.29
Mof_C 	C 	0.1398	0.0565	0.012	0.07
Mof_H 	H 	0.12	0.0642	0.044	-0.005
Mof_C 	C 	0.1773	0.1097	0.9267	0.097
Mof_H 	H 	0.1843	0.1535	0.9017	-0.013
Mof_C 	C 	0.1963	0.0285	0.9149	-0.086
Mof_H 	H 	0.2137	0.0191	0.8812	0.075
Mof_C 	C 	0.1609	0.9773	0.001	-0.062
Mof_H 	H 	0.1555	0.9333	0.0266	0.045
Mof_C 	C 	0.1889	0.9646	0.9534	-0.071
Mof_C 	C 	0.2102	0.8813	0.9413	0.383
Mof_C 	C 	0.1472	0.3116	0.95	-0.31
Mof_C 	C 	0.1778	0.3769	0.9779	0.1
Mof_H 	H 	0.1861	0.3781	0.0208	-0.015
Mof_C 	C 	0.1338	0.3143	0.8869	0.105
Mof_H 	H 	0.1121	0.272	0.8661	-0.018
Mof_C 	C 	0.1519	0.3791	0.8533	-0.095
Mof_H 	H 	0.1426	0.3792	0.8105	0.075
Mof_C 	C 	0.1971	0.4412	0.9454	-0.085
Mof_H 	H 	0.2192	0.4826	0.9666	0.048
Mof_C 	C 	0.184	0.4439	0.8837	-0.062
Mof_C 	C 	0.2076	0.5132	0.8497	0.417
Mof_O 	O 	0.1658	0.2834	0.3094	-0.463
Mof_O 	O 	0.2519	0.2621	0.2953	-0.436
Mof_O 	O 	0.83484	0.2887	0.9347	-0.449
Mof_O 	O 	0.83862	0.1638	0.8933	-0.427
Mof_O 	O 	0.217	0.861	0.8879	-0.489
Mof_O 	O 	0.2229	0.8297	0.9862	-0.678
Mof_O 	O 	0.1998	0.5051	0.7905	-0.271
Mof_O 	O 	0.2328	0.5708	0.877	-0.594
Mof_Pr	Pr	0.25877	0.78946	0.09563	2.474
Mof_Si	Si	0.37955	0.72619	0.5067	0.845
Mof_C 	C 	0.3572	0.7412	0.4222	-0.33
Mof_C 	C 	0.3929	0.7661	0.3819	0.149
Mof_H 	H 	0.43	0.7782	0.3983	-0.034
Mof_C 	C 	0.3015	0.7303	0.3943	0.149
Mof_H 	H 	0.2754	0.7171	0.4191	-0.031
Mof_C 	C 	0.2833	0.7384	0.3314	-0.161
Mof_H 	H 	0.246	0.7287	0.3144	0.106
Mof_C 	C 	0.3754	0.7734	0.3192	-0.162
Mof_H 	H 	0.4008	0.787	0.2938	0.098
Mof_C 	C 	0.32	0.7602	0.2947	0.054
Mof_C 	C 	0.2994	0.7693	0.2257	0.293
Mof_C 	C 	0.4576	0.7243	0.528	-0.336
Mof_C 	C 	0.4871	0.6556	0.55	0.155
Mof_H 	H 	0.4677	0.6065	0.5531	-0.034
Mof_C 	C 	0.4881	0.7962	0.525	0.145
Mof_H 	H 	0.4692	0.845	0.5121	-0.037
Mof_C 	C 	0.5452	0.6559	0.568	-0.163
Mof_H 	H 	0.5638	0.608	0.5838	0.098
Mof_C 	C 	0.5463	0.7977	0.5406	-0.161
Mof_H 	H 	0.5657	0.8465	0.5364	0.086
Mof_C 	C 	0.5751	0.7274	0.5622	0.039
Mof_C 	C 	0.6379	0.7257	0.5793	0.26
Mof_C 	C 	0.351	0.6244	0.5261	-0.288
Mof_C 	C 	0.3602	0.5565	0.488	0.067
Mof_H 	H 	0.38	0.5642	0.456	-0.004
Mof_C 	C 	0.3227	0.6097	0.5733	0.096
Mof_H 	H 	0.3157	0.6535	0.5983	-0.012
Mof_C 	C 	0.3037	0.5285	0.5851	-0.083
Mof_H 	H 	0.2863	0.5191	0.6188	0.074
Mof_C 	C 	0.3391	0.4773	0.499	-0.06
Mof_H 	H 	0.3445	0.4333	0.4734	0.044
Mof_C 	C 	0.3111	0.4646	0.5466	-0.073
Mof_C 	C 	0.2898	0.3813	0.5587	0.383
Mof_C 	C 	0.3528	0.8116	0.55	-0.311
Mof_C 	C 	0.3222	0.8769	0.5221	0.102
Mof_H 	H 	0.3139	0.8781	0.4792	-0.016
Mof_C 	C 	0.3662	0.8143	0.6131	0.106
Mof_H 	H 	0.3879	0.772	0.6339	-0.018
Mof_C 	C 	0.3481	0.8791	0.6467	-0.096
Mof_H 	H 	0.3574	0.8792	0.6895	0.075
Mof_C 	C 	0.3029	0.9412	0.5546	-0.087
Mof_H 	H 	0.2808	0.9826	0.5334	0.048
Mof_C 	C 	0.316	0.9439	0.6163	-0.062
Mof_C 	C 	0.2924	0.0132	0.6503	0.417
Mof_O 	O 	0.3342	0.7834	0.1906	-0.463
Mof_O 	O 	0.2481	0.7621	0.2047	-0.436
Mof_O 	O 	0.66516	0.7887	0.5653	-0.449
Mof_O 	O 	0.66138	0.6638	0.6067	-0.427
Mof_O 	O 	0.283	0.361	0.6121	-0.49
Mof_O 	O 	0.2771	0.3297	0.5138	-0.678
Mof_O 	O 	0.3002	0.0051	0.7095	-0.271
Mof_O 	O 	0.2672	0.0708	0.623	-0.594
Mof_Pr	Pr	0.75877	0.28946	0.09563	2.474
Mof_Si	Si	0.87955	0.22619	0.5067	0.845
Mof_C 	C 	0.8572	0.2412	0.4222	-0.33
Mof_C 	C 	0.8929	0.2661	0.3819	0.149
Mof_H 	H 	0.93	0.2782	0.3983	-0.034
Mof_C 	C 	0.8015	0.2303	0.3943	0.149
Mof_H 	H 	0.7754	0.2171	0.4191	-0.031
Mof_C 	C 	0.7833	0.2384	0.3314	-0.161
Mof_H 	H 	0.746	0.2287	0.3144	0.106
Mof_C 	C 	0.8754	0.2734	0.3192	-0.162
Mof_H 	H 	0.9008	0.287	0.2938	0.098
Mof_C 	C 	0.82	0.2602	0.2947	0.054
Mof_C 	C 	0.7994	0.2693	0.2257	0.293
Mof_C 	C 	0.9576	0.2243	0.528	-0.336
Mof_C 	C 	0.9871	0.1556	0.55	0.156
Mof_H 	H 	0.9677	0.1065	0.5531	-0.034
Mof_C 	C 	0.9881	0.2962	0.525	0.145
Mof_H 	H 	0.9692	0.345	0.5121	-0.037
Mof_C 	C 	0.0452	0.1559	0.568	-0.163
Mof_H 	H 	0.0638	0.108	0.5838	0.098
Mof_C 	C 	0.0463	0.2977	0.5406	-0.161
Mof_H 	H 	0.0657	0.3465	0.5364	0.086
Mof_C 	C 	0.0751	0.2274	0.5622	0.039
Mof_C 	C 	0.1379	0.2257	0.5793	0.26
Mof_C 	C 	0.851	0.1244	0.5261	-0.289
Mof_C 	C 	0.8602	0.0565	0.488	0.067
Mof_H 	H 	0.88	0.0642	0.456	-0.004
Mof_C 	C 	0.8227	0.1097	0.5733	0.096
Mof_H 	H 	0.8157	0.1535	0.5983	-0.012
Mof_C 	C 	0.8037	0.0285	0.5851	-0.084
Mof_H 	H 	0.7863	0.0191	0.6188	0.074
Mof_C 	C 	0.8391	0.9773	0.499	-0.06
Mof_H 	H 	0.8445	0.9333	0.4734	0.044
Mof_C 	C 	0.8111	0.9646	0.5466	-0.073
Mof_C 	C 	0.7898	0.8813	0.5587	0.383
Mof_C 	C 	0.8528	0.3116	0.55	-0.311
Mof_C 	C 	0.8222	0.3769	0.5221	0.102
Mof_H 	H 	0.8139	0.3781	0.4792	-0.016
Mof_C 	C 	0.8662	0.3143	0.6131	0.106
Mof_H 	H 	0.8879	0.272	0.6339	-0.018
Mof_C 	C 	0.8481	0.3791	0.6467	-0.096
Mof_H 	H 	0.8574	0.3792	0.6895	0.075
Mof_C 	C 	0.8029	0.4412	0.5546	-0.087
Mof_H 	H 	0.7808	0.4826	0.5334	0.048
Mof_C 	C 	0.816	0.4439	0.6163	-0.062
Mof_C 	C 	0.7924	0.5132	0.6503	0.417
Mof_O 	O 	0.8342	0.2834	0.1906	-0.463
Mof_O 	O 	0.7481	0.2621	0.2047	-0.436
Mof_O 	O 	0.16516	0.2887	0.5653	-0.449
Mof_O 	O 	0.16138	0.1638	0.6067	-0.427
Mof_O 	O 	0.783	0.861	0.6121	-0.49
Mof_O 	O 	0.7771	0.8297	0.5138	-0.678
Mof_O 	O 	0.8002	0.5051	0.7095	-0.271
Mof_O 	O 	0.7672	0.5708	0.623	-0.594
_end
