# CIF file generated by openbabel 3.1.0, see https://openbabel.org
data_I
_chemical_name_common 'image0'
_cell_length_a 13.6086
_cell_length_b 13.6086
_cell_length_c 15.2777
_cell_angle_alpha 90
_cell_angle_beta 90
_cell_angle_gamma 120
_space_group_name_H-M_alt 'P 1'
_space_group_name_Hall 'P 1'
loop_
    _symmetry_equiv_pos_as_xyz
    x,y,z
loop_
    _atom_site_label
    _atom_site_type_symbol
    _atom_site_fract_x
    _atom_site_fract_y
    _atom_site_fract_z
    _atom_site_occupancy
    Zn1      Zn       0.97196    0.21547    0.08991    1.000
    P1       P        0.77325    0.97987    0.10648    1.000
    O1       O        0.70530    0.61560    0.14900    1.000
    O2       O        0.11780    0.25670    0.13640    1.000
    O3       O        0.97570    0.27330    0.97190    1.000
    O4       O        0.90020    0.04720    0.07900    1.000
    Zn2      Zn       0.63863    0.54880    0.42324    1.000
    P2       P        0.43992    0.31320    0.43981    1.000
    O5       O        0.37197    0.94893    0.48233    1.000
    O6       O        0.78447    0.59003    0.46973    1.000
    O7       O        0.64237    0.60663    0.30523    1.000
    O8       O        0.56687    0.38053    0.41233    1.000
    Zn3      Zn       0.30529    0.88214    0.75658    1.000
    P3       P        0.10658    0.64654    0.77315    1.000
    O9       O        0.03863    0.28227    0.81567    1.000
    O10      O        0.45113    0.92337    0.80307    1.000
    O11      O        0.30903    0.93997    0.63857    1.000
    O12      O        0.23353    0.71387    0.74567    1.000
    Zn4      Zn       0.78453    0.75649    0.08991    1.000
    P4       P        0.02013    0.79338    0.10648    1.000
    O13      O        0.38440    0.08970    0.14900    1.000
    O14      O        0.74330    0.86110    0.13640    1.000
    O15      O        0.72670    0.70240    0.97190    1.000
    O16      O        0.95280    0.85300    0.07900    1.000
    Zn5      Zn       0.45120    0.08982    0.42324    1.000
    P5       P        0.68680    0.12671    0.43981    1.000
    O17      O        0.05107    0.42303    0.48233    1.000
    O18      O        0.40997    0.19443    0.46973    1.000
    O19      O        0.39337    0.03573    0.30523    1.000
    O20      O        0.61947    0.18633    0.41233    1.000
    Zn6      Zn       0.11786    0.42316    0.75658    1.000
    P6       P        0.35346    0.46005    0.77315    1.000
    O21      O        0.71773    0.75637    0.81567    1.000
    O22      O        0.07663    0.52777    0.80307    1.000
    O23      O        0.06003    0.36907    0.63857    1.000
    O24      O        0.28613    0.51967    0.74567    1.000
    Zn7      Zn       0.24351    0.02804    0.08991    1.000
    P7       P        0.20662    0.22675    0.10648    1.000
    O25      O        0.91030    0.29470    0.14900    1.000
    O26      O        0.13890    0.88220    0.13640    1.000
    O27      O        0.29760    0.02430    0.97190    1.000
    O28      O        0.14700    0.09980    0.07900    1.000
    Zn8      Zn       0.91018    0.36137    0.42324    1.000
    P8       P        0.87329    0.56008    0.43981    1.000
    O29      O        0.57697    0.62803    0.48233    1.000
    O30      O        0.80557    0.21553    0.46973    1.000
    O31      O        0.96427    0.35763    0.30523    1.000
    O32      O        0.81367    0.43313    0.41233    1.000
    Zn9      Zn       0.57684    0.69471    0.75658    1.000
    P9       P        0.53995    0.89342    0.77315    1.000
    O33      O        0.24363    0.96137    0.81567    1.000
    O34      O        0.47223    0.54887    0.80307    1.000
    O35      O        0.63093    0.69097    0.63857    1.000
    O36      O        0.48033    0.76647    0.74567    1.000
    Zn10     Zn       0.02804    0.78453    0.91009    1.000
    P10      P        0.22675    0.02013    0.89352    1.000
    O37      O        0.29470    0.38440    0.85100    1.000
    O38      O        0.88220    0.74330    0.86360    1.000
    O39      O        0.02430    0.72670    0.02810    1.000
    O40      O        0.09980    0.95280    0.92100    1.000
    Zn11     Zn       0.69471    0.11786    0.24342    1.000
    P11      P        0.89342    0.35346    0.22685    1.000
    O41      O        0.96137    0.71773    0.18433    1.000
    O42      O        0.54887    0.07663    0.19693    1.000
    O43      O        0.69097    0.06003    0.36143    1.000
    O44      O        0.76647    0.28613    0.25433    1.000
    Zn12     Zn       0.36137    0.45120    0.57676    1.000
    P12      P        0.56008    0.68680    0.56019    1.000
    O45      O        0.62803    0.05107    0.51767    1.000
    O46      O        0.21553    0.40997    0.53027    1.000
    O47      O        0.35763    0.39337    0.69477    1.000
    O48      O        0.43313    0.61947    0.58767    1.000
    Zn13     Zn       0.21547    0.24351    0.91009    1.000
    P13      P        0.97987    0.20662    0.89352    1.000
    O49      O        0.61560    0.91030    0.85100    1.000
    O50      O        0.25670    0.13890    0.86360    1.000
    O51      O        0.27330    0.29760    0.02810    1.000
    O52      O        0.04720    0.14700    0.92100    1.000
    Zn14     Zn       0.88214    0.57684    0.24342    1.000
    P14      P        0.64654    0.53995    0.22685    1.000
    O53      O        0.28227    0.24363    0.18433    1.000
    O54      O        0.92337    0.47223    0.19693    1.000
    O55      O        0.93997    0.63093    0.36143    1.000
    O56      O        0.71387    0.48033    0.25433    1.000
    Zn15     Zn       0.54880    0.91018    0.57676    1.000
    P15      P        0.31320    0.87329    0.56019    1.000
    O57      O        0.94893    0.57697    0.51767    1.000
    O58      O        0.59003    0.80557    0.53027    1.000
    O59      O        0.60663    0.96427    0.69477    1.000
    O60      O        0.38053    0.81367    0.58767    1.000
    Zn16     Zn       0.75649    0.97196    0.91009    1.000
    P16      P        0.79338    0.77325    0.89352    1.000
    O61      O        0.08970    0.70530    0.85100    1.000
    O62      O        0.86110    0.11780    0.86360    1.000
    O63      O        0.70240    0.97570    0.02810    1.000
    O64      O        0.85300    0.90020    0.92100    1.000
    Zn17     Zn       0.42316    0.30529    0.24342    1.000
    P17      P        0.46005    0.10658    0.22685    1.000
    O65      O        0.75637    0.03863    0.18433    1.000
    O66      O        0.52777    0.45113    0.19693    1.000
    O67      O        0.36907    0.30903    0.36143    1.000
    O68      O        0.51967    0.23353    0.25433    1.000
    Zn18     Zn       0.08982    0.63863    0.57676    1.000
    P18      P        0.12671    0.43992    0.56019    1.000
    O69      O        0.42303    0.37197    0.51767    1.000
    O70      O        0.19443    0.78447    0.53027    1.000
    O71      O        0.03573    0.64237    0.69477    1.000
    O72      O        0.18633    0.56687    0.58767    1.000
    Zn19     Zn       0.00000    0.00000    0.00000    1.000
    Zn20     Zn       0.66667    0.33333    0.33333    1.000
    Zn21     Zn       0.33333    0.66667    0.66667    1.000
