data_functionalizedCrystal
_audit_creation_method	'EQeq! by Chris Wilmer'
_symmetry_space_group_name_H-M	'P1'
_symmetry_Int_Tables_number	1
_symmetry_cell_setting	triclinic
loop_
_symmetry_equiv_pos_as_xyz
  x,y,z
_cell_length_a	26.582
_cell_length_b	26.582
_cell_length_c	39.19
_cell_angle_alpha	90
_cell_angle_beta	90
_cell_angle_gamma	90
loop_
_atom_site_label
_atom_site_type_symbol
_atom_site_fract_x
_atom_site_fract_y
_atom_site_fract_z
_atom_site_charge
Mof_Cu	Cu	0.11039	0.18234	0.14508	0.907
Mof_Cu	Cu	0.14412	0.24254	0.19383	0.937
Mof_O 	O 	0.13961	0.12923	0.17317	-0.413
Mof_O 	O 	0.16787	0.17929	0.21432	-0.395
Mof_O 	O 	0.18111	0.95023	0.17401	-0.401
Mof_O 	O 	0.2304	0.92115	0.21553	-0.383
Mof_O 	O 	0.36593	0.21595	0.46415	-0.408
Mof_O 	O 	0.3468	0.1342	0.46444	-0.405
Mof_O 	O 	0.30412	0.32264	0.37434	-0.403
Mof_O 	O 	0.25406	0.29343	0.33281	-0.382
Mof_O 	O 	0.08386	0.24164	0.12281	-0.404
Mof_O 	O 	0.11096	0.29297	0.16396	-0.384
Mof_O 	O 	0.96625	0.30362	0.03597	-0.409
Mof_O 	O 	0.94651	0.38554	0.03578	-0.409
Mof_O 	O 	0.16274	0.29618	0.22957	-0.382
Mof_C 	C 	0.21314	0.05572	0.31026	0.11
Mof_C 	C 	0.2329	0.09871	0.325	-0.166
Mof_H 	H 	0.2431	0.1252	0.3111	0.098
Mof_C 	C 	0.23794	0.10327	0.36037	0.106
Mof_C 	C 	0.22303	0.06295	0.38071	-0.157
Mof_H 	H 	0.2262	0.0649	0.4043	0.092
Mof_C 	C 	0.20347	0.0201	0.36577	0.086
Mof_H 	H 	0.1934	0.9934	0.3795	0.007
Mof_C 	C 	0.19863	0.01628	0.33117	-0.16
Mof_H 	H 	0.1855	0.9871	0.3216	0.095
Mof_C 	C 	0.20561	0.05247	0.27258	-0.039
Mof_C 	C 	0.19069	0.09445	0.25435	0.006
Mof_H 	H 	0.1889	0.1254	0.2654	0.049
Mof_C 	C 	0.17833	0.09145	0.21998	-0.091
Mof_C 	C 	0.18148	0.04577	0.20352	0.036
Mof_H 	H 	0.1723	0.0434	0.1807	0.051
Mof_C 	C 	0.19816	0.0034	0.22069	-0.086
Mof_C 	C 	0.21017	0.00727	0.25517	0.003
Mof_H 	H 	0.2215	0.9789	0.2668	0.051
Mof_C 	C 	0.16054	0.13724	0.20092	0.371
Mof_C 	C 	0.20402	0.9543	0.202	0.357
Mof_C 	C 	0.26114	0.14849	0.37651	-0.039
Mof_C 	C 	0.2892	0.14411	0.40642	0.004
Mof_H 	H 	0.2929	0.1126	0.4164	0.046
Mof_C 	C 	0.31138	0.18468	0.42158	-0.09
Mof_C 	C 	0.30734	0.23207	0.40675	0.029
Mof_H 	H 	0.3227	0.2597	0.4169	0.054
Mof_C 	C 	0.28003	0.23781	0.37653	-0.083
Mof_C 	C 	0.25715	0.19645	0.36193	-0
Mof_H 	H 	0.2387	0.2005	0.342	0.051
Mof_C 	C 	0.34408	0.17809	0.4525	0.364
Mof_C 	C 	0.27949	0.28878	0.3599	0.352
Mof_C 	C 	0.0103	0.45513	0.14692	0.063
Mof_C 	C 	0.0213	0.4569	0.1826	0.03
Mof_H 	H 	0.0552	0.444	0.1902	0.021
Mof_C 	C 	0.01875	0.40808	0.1279	-0.018
Mof_C 	C 	0.04998	0.3703	0.13986	-0.013
Mof_H 	H 	0.0677	0.3752	0.1601	0.057
Mof_C 	C 	0.05544	0.32531	0.12236	-0.078
Mof_C 	C 	0.03003	0.31796	0.092	0.028
Mof_H 	H 	0.0337	0.2878	0.0803	0.052
Mof_C 	C 	0.99937	0.3551	0.07901	-0.086
Mof_C 	C 	0.99412	0.39985	0.09709	-0.01
Mof_H 	H 	0.9735	0.425	0.0883	0.051
Mof_C 	C 	0.08636	0.28334	0.13782	0.356
Mof_C 	C 	0.96845	0.3468	0.04745	0.363
Mof_C 	C 	0.0149	0.5026	0.19955	0.001
Mof_C 	C 	0.9987	0.4533	0.1817	-0.12
Mof_H 	H 	0.012	0.4259	0.1962	0.062
Mof_Cu	Cu	0.88961	0.81766	0.14508	0.906
Mof_Cu	Cu	0.85588	0.75746	0.19383	0.936
Mof_O 	O 	0.86039	0.87077	0.17317	-0.415
Mof_O 	O 	0.83213	0.82071	0.21432	-0.396
Mof_O 	O 	0.81889	0.04977	0.17401	-0.402
Mof_O 	O 	0.7696	0.07885	0.21553	-0.384
Mof_O 	O 	0.63407	0.78405	0.46415	-0.409
Mof_O 	O 	0.6532	0.8658	0.46444	-0.406
Mof_O 	O 	0.69588	0.67736	0.37434	-0.404
Mof_O 	O 	0.74594	0.70657	0.33281	-0.383
Mof_O 	O 	0.91614	0.75836	0.12281	-0.405
Mof_O 	O 	0.88904	0.70703	0.16396	-0.385
Mof_O 	O 	0.03375	0.69638	0.03597	-0.41
Mof_O 	O 	0.05349	0.61446	0.03578	-0.41
Mof_O 	O 	0.83726	0.70382	0.22957	-0.383
Mof_C 	C 	0.78686	0.94428	0.31026	0.109
Mof_C 	C 	0.7671	0.90129	0.325	-0.166
Mof_H 	H 	0.7569	0.8748	0.3111	0.097
Mof_C 	C 	0.76206	0.89673	0.36037	0.105
Mof_C 	C 	0.77697	0.93705	0.38071	-0.157
Mof_H 	H 	0.7738	0.9351	0.4043	0.09
Mof_C 	C 	0.79653	0.9799	0.36577	0.084
Mof_H 	H 	0.8066	0.0066	0.3795	0.006
Mof_C 	C 	0.80137	0.98372	0.33117	-0.162
Mof_H 	H 	0.8145	0.0129	0.3216	0.094
Mof_C 	C 	0.79439	0.94753	0.27258	-0.04
Mof_C 	C 	0.80931	0.90555	0.25435	0.005
Mof_H 	H 	0.8111	0.8746	0.2654	0.048
Mof_C 	C 	0.82167	0.90855	0.21998	-0.092
Mof_C 	C 	0.81852	0.95423	0.20352	0.035
Mof_H 	H 	0.8277	0.9566	0.1807	0.05
Mof_C 	C 	0.80184	0.9966	0.22069	-0.087
Mof_C 	C 	0.78983	0.99273	0.25517	0.002
Mof_H 	H 	0.7785	0.0211	0.2668	0.051
Mof_C 	C 	0.83946	0.86276	0.20092	0.371
Mof_C 	C 	0.79598	0.0457	0.202	0.358
Mof_C 	C 	0.73886	0.85151	0.37651	-0.038
Mof_C 	C 	0.7108	0.85589	0.40642	0.004
Mof_H 	H 	0.7071	0.8874	0.4164	0.046
Mof_C 	C 	0.68862	0.81532	0.42158	-0.09
Mof_C 	C 	0.69266	0.76793	0.40675	0.029
Mof_H 	H 	0.6773	0.7403	0.4169	0.054
Mof_C 	C 	0.71997	0.76219	0.37653	-0.083
Mof_C 	C 	0.74285	0.80355	0.36193	-0
Mof_H 	H 	0.7613	0.7995	0.342	0.051
Mof_C 	C 	0.65592	0.82191	0.4525	0.364
Mof_C 	C 	0.72051	0.71122	0.3599	0.352
Mof_C 	C 	0.9897	0.54487	0.14692	0.062
Mof_C 	C 	0.9787	0.5431	0.1826	0.03
Mof_H 	H 	0.9448	0.556	0.1902	0.021
Mof_C 	C 	0.98125	0.59192	0.1279	-0.019
Mof_C 	C 	0.95002	0.6297	0.13986	-0.013
Mof_H 	H 	0.9323	0.6248	0.1601	0.057
Mof_C 	C 	0.94456	0.67469	0.12236	-0.078
Mof_C 	C 	0.96997	0.68204	0.092	0.027
Mof_H 	H 	0.9663	0.7122	0.0803	0.052
Mof_C 	C 	0.00063	0.6449	0.07901	-0.085
Mof_C 	C 	0.00588	0.60015	0.09709	-0.009
Mof_H 	H 	0.0265	0.575	0.0883	0.051
Mof_C 	C 	0.91364	0.71666	0.13782	0.356
Mof_C 	C 	0.03155	0.6532	0.04745	0.362
Mof_C 	C 	0.9851	0.4974	0.19955	-0.002
Mof_C 	C 	0.0013	0.5467	0.1817	-0.12
Mof_H 	H 	0.988	0.5741	0.1962	0.061
Mof_Cu	Cu	0.81766	0.11039	0.14508	0.906
Mof_Cu	Cu	0.75746	0.14412	0.19383	0.936
Mof_O 	O 	0.87077	0.13961	0.17317	-0.414
Mof_O 	O 	0.82071	0.16787	0.21432	-0.396
Mof_O 	O 	0.04977	0.18111	0.17401	-0.402
Mof_O 	O 	0.07885	0.2304	0.21553	-0.384
Mof_O 	O 	0.78405	0.36593	0.46415	-0.409
Mof_O 	O 	0.8658	0.3468	0.46444	-0.406
Mof_O 	O 	0.67736	0.30412	0.37434	-0.404
Mof_O 	O 	0.70657	0.25406	0.33281	-0.383
Mof_O 	O 	0.75836	0.08386	0.12281	-0.405
Mof_O 	O 	0.70703	0.11096	0.16396	-0.385
Mof_O 	O 	0.69638	0.96625	0.03597	-0.41
Mof_O 	O 	0.61446	0.94651	0.03578	-0.41
Mof_O 	O 	0.70382	0.16274	0.22957	-0.383
Mof_C 	C 	0.94428	0.21314	0.31026	0.109
Mof_C 	C 	0.90129	0.2329	0.325	-0.166
Mof_H 	H 	0.8748	0.2431	0.3111	0.097
Mof_C 	C 	0.89673	0.23794	0.36037	0.105
Mof_C 	C 	0.93705	0.22303	0.38071	-0.157
Mof_H 	H 	0.9351	0.2262	0.4043	0.09
Mof_C 	C 	0.9799	0.20347	0.36577	0.084
Mof_H 	H 	0.0066	0.1934	0.3795	0.006
Mof_C 	C 	0.98372	0.19863	0.33117	-0.162
Mof_H 	H 	0.0129	0.1855	0.3216	0.094
Mof_C 	C 	0.94753	0.20561	0.27258	-0.04
Mof_C 	C 	0.90555	0.19069	0.25435	0.005
Mof_H 	H 	0.8746	0.1889	0.2654	0.048
Mof_C 	C 	0.90855	0.17833	0.21998	-0.092
Mof_C 	C 	0.95423	0.18148	0.20352	0.035
Mof_H 	H 	0.9566	0.1723	0.1807	0.05
Mof_C 	C 	0.9966	0.19816	0.22069	-0.087
Mof_C 	C 	0.99273	0.21017	0.25517	0.002
Mof_H 	H 	0.0211	0.2215	0.2668	0.051
Mof_C 	C 	0.86276	0.16054	0.20092	0.371
Mof_C 	C 	0.0457	0.20402	0.202	0.358
Mof_C 	C 	0.85151	0.26114	0.37651	-0.038
Mof_C 	C 	0.85589	0.2892	0.40642	0.004
Mof_H 	H 	0.8874	0.2929	0.4164	0.046
Mof_C 	C 	0.81532	0.31138	0.42158	-0.09
Mof_C 	C 	0.76793	0.30734	0.40675	0.029
Mof_H 	H 	0.7403	0.3227	0.4169	0.054
Mof_C 	C 	0.76219	0.28003	0.37653	-0.083
Mof_C 	C 	0.80355	0.25715	0.36193	-0
Mof_H 	H 	0.7995	0.2387	0.342	0.051
Mof_C 	C 	0.82191	0.34408	0.4525	0.364
Mof_C 	C 	0.71122	0.27949	0.3599	0.352
Mof_C 	C 	0.54487	0.0103	0.14692	0.063
Mof_C 	C 	0.5431	0.0213	0.1826	0.03
Mof_H 	H 	0.556	0.0552	0.1902	0.021
Mof_C 	C 	0.59192	0.01875	0.1279	-0.018
Mof_C 	C 	0.6297	0.04998	0.13986	-0.013
Mof_H 	H 	0.6248	0.0677	0.1601	0.057
Mof_C 	C 	0.67469	0.05544	0.12236	-0.078
Mof_C 	C 	0.68204	0.03003	0.092	0.028
Mof_H 	H 	0.7122	0.0337	0.0803	0.052
Mof_C 	C 	0.6449	0.99937	0.07901	-0.086
Mof_C 	C 	0.60015	0.99412	0.09709	-0.01
Mof_H 	H 	0.575	0.9735	0.0883	0.051
Mof_C 	C 	0.71666	0.08636	0.13782	0.356
Mof_C 	C 	0.6532	0.96845	0.04745	0.363
Mof_C 	C 	0.4974	0.0149	0.19955	0.001
Mof_C 	C 	0.5467	0.9987	0.1817	-0.12
Mof_H 	H 	0.5741	0.012	0.1962	0.062
Mof_Cu	Cu	0.18234	0.88961	0.14508	0.906
Mof_Cu	Cu	0.24254	0.85588	0.19383	0.936
Mof_O 	O 	0.12923	0.86039	0.17317	-0.414
Mof_O 	O 	0.17929	0.83213	0.21432	-0.396
Mof_O 	O 	0.95023	0.81889	0.17401	-0.402
Mof_O 	O 	0.92115	0.7696	0.21553	-0.384
Mof_O 	O 	0.21595	0.63407	0.46415	-0.409
Mof_O 	O 	0.1342	0.6532	0.46444	-0.406
Mof_O 	O 	0.32264	0.69588	0.37434	-0.404
Mof_O 	O 	0.29343	0.74594	0.33281	-0.383
Mof_O 	O 	0.24164	0.91614	0.12281	-0.405
Mof_O 	O 	0.29297	0.88904	0.16396	-0.385
Mof_O 	O 	0.30362	0.03375	0.03597	-0.41
Mof_O 	O 	0.38554	0.05349	0.03578	-0.41
Mof_O 	O 	0.29618	0.83726	0.22957	-0.383
Mof_C 	C 	0.05572	0.78686	0.31026	0.109
Mof_C 	C 	0.09871	0.7671	0.325	-0.167
Mof_H 	H 	0.1252	0.7569	0.3111	0.097
Mof_C 	C 	0.10327	0.76206	0.36037	0.105
Mof_C 	C 	0.06295	0.77697	0.38071	-0.158
Mof_H 	H 	0.0649	0.7738	0.4043	0.091
Mof_C 	C 	0.0201	0.79653	0.36577	0.085
Mof_H 	H 	0.9934	0.8066	0.3795	0.006
Mof_C 	C 	0.01628	0.80137	0.33117	-0.161
Mof_H 	H 	0.9871	0.8145	0.3216	0.094
Mof_C 	C 	0.05247	0.79439	0.27258	-0.04
Mof_C 	C 	0.09445	0.80931	0.25435	0.005
Mof_H 	H 	0.1254	0.8111	0.2654	0.048
Mof_C 	C 	0.09145	0.82167	0.21998	-0.092
Mof_C 	C 	0.04577	0.81852	0.20352	0.035
Mof_H 	H 	0.0434	0.8277	0.1807	0.05
Mof_C 	C 	0.0034	0.80184	0.22069	-0.087
Mof_C 	C 	0.00727	0.78983	0.25517	0.002
Mof_H 	H 	0.9789	0.7785	0.2668	0.051
Mof_C 	C 	0.13724	0.83946	0.20092	0.371
Mof_C 	C 	0.9543	0.79598	0.202	0.357
Mof_C 	C 	0.14849	0.73886	0.37651	-0.039
Mof_C 	C 	0.14411	0.7108	0.40642	0.004
Mof_H 	H 	0.1126	0.7071	0.4164	0.046
Mof_C 	C 	0.18468	0.68862	0.42158	-0.09
Mof_C 	C 	0.23207	0.69266	0.40675	0.029
Mof_H 	H 	0.2597	0.6773	0.4169	0.054
Mof_C 	C 	0.23781	0.71997	0.37653	-0.083
Mof_C 	C 	0.19645	0.74285	0.36193	-0
Mof_H 	H 	0.2005	0.7613	0.342	0.051
Mof_C 	C 	0.17809	0.65592	0.4525	0.364
Mof_C 	C 	0.28878	0.72051	0.3599	0.352
Mof_C 	C 	0.45513	0.9897	0.14692	0.062
Mof_C 	C 	0.4569	0.9787	0.1826	0.03
Mof_H 	H 	0.444	0.9448	0.1902	0.021
Mof_C 	C 	0.40808	0.98125	0.1279	-0.019
Mof_C 	C 	0.3703	0.95002	0.13986	-0.013
Mof_H 	H 	0.3752	0.9323	0.1601	0.057
Mof_C 	C 	0.32531	0.94456	0.12236	-0.078
Mof_C 	C 	0.31796	0.96997	0.092	0.027
Mof_H 	H 	0.2878	0.9663	0.0803	0.052
Mof_C 	C 	0.3551	0.00063	0.07901	-0.085
Mof_C 	C 	0.39985	0.00588	0.09709	-0.009
Mof_H 	H 	0.425	0.0265	0.0883	0.051
Mof_C 	C 	0.28334	0.91364	0.13782	0.356
Mof_C 	C 	0.3468	0.03155	0.04745	0.362
Mof_C 	C 	0.5026	0.9851	0.19955	-0.002
Mof_C 	C 	0.4533	0.0013	0.1817	-0.12
Mof_H 	H 	0.4259	0.988	0.1962	0.061
Mof_Cu	Cu	0.38961	0.68234	0.35492	0.906
Mof_Cu	Cu	0.35588	0.74254	0.30617	0.935
Mof_O 	O 	0.36039	0.62923	0.32683	-0.414
Mof_O 	O 	0.33213	0.67929	0.28568	-0.396
Mof_O 	O 	0.31889	0.45023	0.32599	-0.402
Mof_O 	O 	0.2696	0.42115	0.28447	-0.384
Mof_O 	O 	0.13407	0.71595	0.03585	-0.413
Mof_O 	O 	0.1532	0.6342	0.03556	-0.41
Mof_O 	O 	0.19588	0.82264	0.12566	-0.405
Mof_O 	O 	0.24594	0.79343	0.16719	-0.383
Mof_O 	O 	0.41614	0.74164	0.37719	-0.404
Mof_O 	O 	0.38904	0.79297	0.33604	-0.385
Mof_O 	O 	0.53375	0.80362	0.46403	-0.407
Mof_O 	O 	0.55349	0.88554	0.46422	-0.407
Mof_O 	O 	0.33726	0.79618	0.27043	-0.383
Mof_C 	C 	0.28686	0.55572	0.18974	0.109
Mof_C 	C 	0.2671	0.59871	0.175	-0.167
Mof_H 	H 	0.2569	0.6252	0.1889	0.097
Mof_C 	C 	0.26206	0.60327	0.13963	0.105
Mof_C 	C 	0.27697	0.56295	0.11929	-0.158
Mof_H 	H 	0.2738	0.5649	0.0957	0.089
Mof_C 	C 	0.29653	0.5201	0.13423	0.084
Mof_H 	H 	0.3066	0.4934	0.1205	0.005
Mof_C 	C 	0.30137	0.51628	0.16883	-0.162
Mof_H 	H 	0.3145	0.4871	0.1784	0.094
Mof_C 	C 	0.29439	0.55247	0.22742	-0.04
Mof_C 	C 	0.30931	0.59445	0.24565	0.005
Mof_H 	H 	0.3111	0.6254	0.2346	0.048
Mof_C 	C 	0.32167	0.59145	0.28002	-0.092
Mof_C 	C 	0.31852	0.54577	0.29648	0.035
Mof_H 	H 	0.3277	0.5434	0.3193	0.051
Mof_C 	C 	0.30184	0.5034	0.27931	-0.087
Mof_C 	C 	0.28983	0.50727	0.24483	0.002
Mof_H 	H 	0.2785	0.4789	0.2332	0.051
Mof_C 	C 	0.33946	0.63724	0.29908	0.371
Mof_C 	C 	0.29598	0.4543	0.298	0.357
Mof_C 	C 	0.23886	0.64849	0.12349	-0.04
Mof_C 	C 	0.2108	0.64411	0.09358	0.005
Mof_H 	H 	0.2071	0.6126	0.0836	0.045
Mof_C 	C 	0.18862	0.68468	0.07842	-0.092
Mof_C 	C 	0.19266	0.73207	0.09325	0.03
Mof_H 	H 	0.1773	0.7597	0.0831	0.052
Mof_C 	C 	0.21997	0.73781	0.12347	-0.084
Mof_C 	C 	0.24285	0.69645	0.13807	0
Mof_H 	H 	0.2613	0.7005	0.158	0.05
Mof_C 	C 	0.15592	0.67809	0.0475	0.364
Mof_C 	C 	0.22051	0.78878	0.1401	0.352
Mof_C 	C 	0.4897	0.95513	0.35308	0.062
Mof_C 	C 	0.4787	0.9569	0.3174	0.03
Mof_H 	H 	0.4448	0.944	0.3098	0.021
Mof_C 	C 	0.48125	0.90808	0.3721	-0.018
Mof_C 	C 	0.45002	0.8703	0.36014	-0.014
Mof_H 	H 	0.4323	0.8752	0.3399	0.057
Mof_C 	C 	0.44456	0.82531	0.37764	-0.077
Mof_C 	C 	0.46997	0.81796	0.408	0.026
Mof_H 	H 	0.4663	0.7878	0.4197	0.054
Mof_C 	C 	0.50063	0.8551	0.42099	-0.083
Mof_C 	C 	0.50588	0.89985	0.40291	-0.01
Mof_H 	H 	0.5265	0.925	0.4117	0.052
Mof_C 	C 	0.41364	0.78334	0.36218	0.356
Mof_C 	C 	0.53155	0.8468	0.45255	0.362
Mof_C 	C 	0.4851	0.0026	0.30045	0
Mof_C 	C 	0.5013	0.9533	0.3183	-0.121
Mof_H 	H 	0.488	0.9259	0.3038	0.062
Mof_Cu	Cu	0.61039	0.31766	0.35492	0.906
Mof_Cu	Cu	0.64412	0.25746	0.30617	0.936
Mof_O 	O 	0.63961	0.37077	0.32683	-0.414
Mof_O 	O 	0.66787	0.32071	0.28568	-0.396
Mof_O 	O 	0.68111	0.54977	0.32599	-0.402
Mof_O 	O 	0.7304	0.57885	0.28447	-0.384
Mof_O 	O 	0.86593	0.28405	0.03585	-0.413
Mof_O 	O 	0.8468	0.3658	0.03556	-0.41
Mof_O 	O 	0.80412	0.17736	0.12566	-0.405
Mof_O 	O 	0.75406	0.20657	0.16719	-0.383
Mof_O 	O 	0.58386	0.25836	0.37719	-0.404
Mof_O 	O 	0.61096	0.20703	0.33604	-0.385
Mof_O 	O 	0.46625	0.19638	0.46403	-0.407
Mof_O 	O 	0.44651	0.11446	0.46422	-0.407
Mof_O 	O 	0.66274	0.20382	0.27043	-0.383
Mof_C 	C 	0.71314	0.44428	0.18974	0.109
Mof_C 	C 	0.7329	0.40129	0.175	-0.167
Mof_H 	H 	0.7431	0.3748	0.1889	0.097
Mof_C 	C 	0.73794	0.39673	0.13963	0.105
Mof_C 	C 	0.72303	0.43705	0.11929	-0.158
Mof_H 	H 	0.7262	0.4351	0.0957	0.089
Mof_C 	C 	0.70347	0.4799	0.13423	0.084
Mof_H 	H 	0.6934	0.5066	0.1205	0.005
Mof_C 	C 	0.69863	0.48372	0.16883	-0.162
Mof_H 	H 	0.6855	0.5129	0.1784	0.094
Mof_C 	C 	0.70561	0.44753	0.22742	-0.04
Mof_C 	C 	0.69069	0.40555	0.24565	0.005
Mof_H 	H 	0.6889	0.3746	0.2346	0.048
Mof_C 	C 	0.67833	0.40855	0.28002	-0.092
Mof_C 	C 	0.68148	0.45423	0.29648	0.035
Mof_H 	H 	0.6723	0.4566	0.3193	0.051
Mof_C 	C 	0.69816	0.4966	0.27931	-0.087
Mof_C 	C 	0.71017	0.49273	0.24483	0.002
Mof_H 	H 	0.7215	0.5211	0.2332	0.051
Mof_C 	C 	0.66054	0.36276	0.29908	0.371
Mof_C 	C 	0.70402	0.5457	0.298	0.357
Mof_C 	C 	0.76114	0.35151	0.12349	-0.04
Mof_C 	C 	0.7892	0.35589	0.09358	0.005
Mof_H 	H 	0.7929	0.3874	0.0836	0.045
Mof_C 	C 	0.81138	0.31532	0.07842	-0.092
Mof_C 	C 	0.80734	0.26793	0.09325	0.03
Mof_H 	H 	0.8227	0.2403	0.0831	0.052
Mof_C 	C 	0.78003	0.26219	0.12347	-0.084
Mof_C 	C 	0.75715	0.30355	0.13807	0
Mof_H 	H 	0.7387	0.2995	0.158	0.05
Mof_C 	C 	0.84408	0.32191	0.0475	0.364
Mof_C 	C 	0.77949	0.21122	0.1401	0.352
Mof_C 	C 	0.5103	0.04487	0.35308	0.062
Mof_C 	C 	0.5213	0.0431	0.3174	0.029
Mof_H 	H 	0.5552	0.056	0.3098	0.022
Mof_C 	C 	0.51875	0.09192	0.3721	-0.018
Mof_C 	C 	0.54998	0.1297	0.36014	-0.014
Mof_H 	H 	0.5677	0.1248	0.3399	0.057
Mof_C 	C 	0.55544	0.17469	0.37764	-0.077
Mof_C 	C 	0.53003	0.18204	0.408	0.026
Mof_H 	H 	0.5337	0.2122	0.4197	0.054
Mof_C 	C 	0.49937	0.1449	0.42099	-0.083
Mof_C 	C 	0.49412	0.10015	0.40291	-0.01
Mof_H 	H 	0.4735	0.075	0.4117	0.052
Mof_C 	C 	0.58636	0.21666	0.36218	0.356
Mof_C 	C 	0.46845	0.1532	0.45255	0.362
Mof_C 	C 	0.5149	0.9974	0.30045	-0.001
Mof_C 	C 	0.4987	0.0467	0.3183	-0.12
Mof_H 	H 	0.512	0.0741	0.3038	0.062
Mof_Cu	Cu	0.68234	0.61039	0.35492	0.906
Mof_Cu	Cu	0.74254	0.64412	0.30617	0.935
Mof_O 	O 	0.62923	0.63961	0.32683	-0.414
Mof_O 	O 	0.67929	0.66787	0.28568	-0.396
Mof_O 	O 	0.45023	0.68111	0.32599	-0.402
Mof_O 	O 	0.42115	0.7304	0.28447	-0.384
Mof_O 	O 	0.71595	0.86593	0.03585	-0.413
Mof_O 	O 	0.6342	0.8468	0.03556	-0.41
Mof_O 	O 	0.82264	0.80412	0.12566	-0.405
Mof_O 	O 	0.79343	0.75406	0.16719	-0.383
Mof_O 	O 	0.74164	0.58386	0.37719	-0.404
Mof_O 	O 	0.79297	0.61096	0.33604	-0.385
Mof_O 	O 	0.80362	0.46625	0.46403	-0.407
Mof_O 	O 	0.88554	0.44651	0.46422	-0.407
Mof_O 	O 	0.79618	0.66274	0.27043	-0.383
Mof_C 	C 	0.55572	0.71314	0.18974	0.109
Mof_C 	C 	0.59871	0.7329	0.175	-0.167
Mof_H 	H 	0.6252	0.7431	0.1889	0.097
Mof_C 	C 	0.60327	0.73794	0.13963	0.105
Mof_C 	C 	0.56295	0.72303	0.11929	-0.158
Mof_H 	H 	0.5649	0.7262	0.0957	0.089
Mof_C 	C 	0.5201	0.70347	0.13423	0.084
Mof_H 	H 	0.4934	0.6934	0.1205	0.005
Mof_C 	C 	0.51628	0.69863	0.16883	-0.162
Mof_H 	H 	0.4871	0.6855	0.1784	0.094
Mof_C 	C 	0.55247	0.70561	0.22742	-0.04
Mof_C 	C 	0.59445	0.69069	0.24565	0.005
Mof_H 	H 	0.6254	0.6889	0.2346	0.048
Mof_C 	C 	0.59145	0.67833	0.28002	-0.092
Mof_C 	C 	0.54577	0.68148	0.29648	0.035
Mof_H 	H 	0.5434	0.6723	0.3193	0.051
Mof_C 	C 	0.5034	0.69816	0.27931	-0.087
Mof_C 	C 	0.50727	0.71017	0.24483	0.002
Mof_H 	H 	0.4789	0.7215	0.2332	0.051
Mof_C 	C 	0.63724	0.66054	0.29908	0.371
Mof_C 	C 	0.4543	0.70402	0.298	0.357
Mof_C 	C 	0.64849	0.76114	0.12349	-0.04
Mof_C 	C 	0.64411	0.7892	0.09358	0.005
Mof_H 	H 	0.6126	0.7929	0.0836	0.045
Mof_C 	C 	0.68468	0.81138	0.07842	-0.092
Mof_C 	C 	0.73207	0.80734	0.09325	0.03
Mof_H 	H 	0.7597	0.8227	0.0831	0.052
Mof_C 	C 	0.73781	0.78003	0.12347	-0.084
Mof_C 	C 	0.69645	0.75715	0.13807	0
Mof_H 	H 	0.7005	0.7387	0.158	0.05
Mof_C 	C 	0.67809	0.84408	0.0475	0.364
Mof_C 	C 	0.78878	0.77949	0.1401	0.352
Mof_C 	C 	0.95513	0.5103	0.35308	0.062
Mof_C 	C 	0.9569	0.5213	0.3174	0.03
Mof_H 	H 	0.944	0.5552	0.3098	0.021
Mof_C 	C 	0.90808	0.51875	0.3721	-0.018
Mof_C 	C 	0.8703	0.54998	0.36014	-0.014
Mof_H 	H 	0.8752	0.5677	0.3399	0.057
Mof_C 	C 	0.82531	0.55544	0.37764	-0.077
Mof_C 	C 	0.81796	0.53003	0.408	0.026
Mof_H 	H 	0.7878	0.5337	0.4197	0.054
Mof_C 	C 	0.8551	0.49937	0.42099	-0.083
Mof_C 	C 	0.89985	0.49412	0.40291	-0.01
Mof_H 	H 	0.925	0.4735	0.4117	0.052
Mof_C 	C 	0.78334	0.58636	0.36218	0.356
Mof_C 	C 	0.8468	0.46845	0.45255	0.362
Mof_C 	C 	0.0026	0.5149	0.30045	0
Mof_C 	C 	0.9533	0.4987	0.3183	-0.121
Mof_H 	H 	0.9259	0.512	0.3038	0.062
Mof_Cu	Cu	0.31766	0.38961	0.35492	0.906
Mof_Cu	Cu	0.25746	0.35588	0.30617	0.936
Mof_O 	O 	0.37077	0.36039	0.32683	-0.414
Mof_O 	O 	0.32071	0.33213	0.28568	-0.396
Mof_O 	O 	0.54977	0.31889	0.32599	-0.402
Mof_O 	O 	0.57885	0.2696	0.28447	-0.384
Mof_O 	O 	0.28405	0.13407	0.03585	-0.413
Mof_O 	O 	0.3658	0.1532	0.03556	-0.41
Mof_O 	O 	0.17736	0.19588	0.12566	-0.405
Mof_O 	O 	0.20657	0.24594	0.16719	-0.383
Mof_O 	O 	0.25836	0.41614	0.37719	-0.404
Mof_O 	O 	0.20703	0.38904	0.33604	-0.385
Mof_O 	O 	0.19638	0.53375	0.46403	-0.407
Mof_O 	O 	0.11446	0.55349	0.46422	-0.407
Mof_O 	O 	0.20382	0.33726	0.27043	-0.383
Mof_C 	C 	0.44428	0.28686	0.18974	0.109
Mof_C 	C 	0.40129	0.2671	0.175	-0.167
Mof_H 	H 	0.3748	0.2569	0.1889	0.097
Mof_C 	C 	0.39673	0.26206	0.13963	0.105
Mof_C 	C 	0.43705	0.27697	0.11929	-0.158
Mof_H 	H 	0.4351	0.2738	0.0957	0.089
Mof_C 	C 	0.4799	0.29653	0.13423	0.084
Mof_H 	H 	0.5066	0.3066	0.1205	0.005
Mof_C 	C 	0.48372	0.30137	0.16883	-0.162
Mof_H 	H 	0.5129	0.3145	0.1784	0.094
Mof_C 	C 	0.44753	0.29439	0.22742	-0.04
Mof_C 	C 	0.40555	0.30931	0.24565	0.005
Mof_H 	H 	0.3746	0.3111	0.2346	0.048
Mof_C 	C 	0.40855	0.32167	0.28002	-0.092
Mof_C 	C 	0.45423	0.31852	0.29648	0.035
Mof_H 	H 	0.4566	0.3277	0.3193	0.051
Mof_C 	C 	0.4966	0.30184	0.27931	-0.087
Mof_C 	C 	0.49273	0.28983	0.24483	0.002
Mof_H 	H 	0.5211	0.2785	0.2332	0.051
Mof_C 	C 	0.36276	0.33946	0.29908	0.371
Mof_C 	C 	0.5457	0.29598	0.298	0.357
Mof_C 	C 	0.35151	0.23886	0.12349	-0.04
Mof_C 	C 	0.35589	0.2108	0.09358	0.005
Mof_H 	H 	0.3874	0.2071	0.0836	0.045
Mof_C 	C 	0.31532	0.18862	0.07842	-0.092
Mof_C 	C 	0.26793	0.19266	0.09325	0.03
Mof_H 	H 	0.2403	0.1773	0.0831	0.052
Mof_C 	C 	0.26219	0.21997	0.12347	-0.084
Mof_C 	C 	0.30355	0.24285	0.13807	0
Mof_H 	H 	0.2995	0.2613	0.158	0.05
Mof_C 	C 	0.32191	0.15592	0.0475	0.364
Mof_C 	C 	0.21122	0.22051	0.1401	0.352
Mof_C 	C 	0.04487	0.4897	0.35308	0.062
Mof_C 	C 	0.0431	0.4787	0.3174	0.029
Mof_H 	H 	0.056	0.4448	0.3098	0.022
Mof_C 	C 	0.09192	0.48125	0.3721	-0.018
Mof_C 	C 	0.1297	0.45002	0.36014	-0.014
Mof_H 	H 	0.1248	0.4323	0.3399	0.057
Mof_C 	C 	0.17469	0.44456	0.37764	-0.077
Mof_C 	C 	0.18204	0.46997	0.408	0.026
Mof_H 	H 	0.2122	0.4663	0.4197	0.054
Mof_C 	C 	0.1449	0.50063	0.42099	-0.083
Mof_C 	C 	0.10015	0.50588	0.40291	-0.01
Mof_H 	H 	0.075	0.5265	0.4117	0.052
Mof_C 	C 	0.21666	0.41364	0.36218	0.356
Mof_C 	C 	0.1532	0.53155	0.45255	0.362
Mof_C 	C 	0.9974	0.4851	0.30045	-0.001
Mof_C 	C 	0.0467	0.5013	0.3183	-0.12
Mof_H 	H 	0.0741	0.488	0.3038	0.062
Mof_Cu	Cu	0.88961	0.81766	0.85492	0.906
Mof_Cu	Cu	0.85588	0.75746	0.80617	0.935
Mof_O 	O 	0.86039	0.87077	0.82683	-0.414
Mof_O 	O 	0.83213	0.82071	0.78568	-0.396
Mof_O 	O 	0.81889	0.04977	0.82599	-0.402
Mof_O 	O 	0.7696	0.07885	0.78447	-0.384
Mof_O 	O 	0.63407	0.78405	0.53585	-0.409
Mof_O 	O 	0.6532	0.8658	0.53556	-0.407
Mof_O 	O 	0.69588	0.67736	0.62566	-0.404
Mof_O 	O 	0.74594	0.70657	0.66719	-0.383
Mof_O 	O 	0.91614	0.75836	0.87719	-0.403
Mof_O 	O 	0.88904	0.70703	0.83604	-0.385
Mof_O 	O 	0.03375	0.69638	0.96403	-0.401
Mof_O 	O 	0.05349	0.61446	0.96422	-0.4
Mof_O 	O 	0.83726	0.70382	0.77043	-0.383
Mof_C 	C 	0.78686	0.94428	0.68974	0.109
Mof_C 	C 	0.7671	0.90129	0.675	-0.166
Mof_H 	H 	0.7569	0.8748	0.6889	0.097
Mof_C 	C 	0.76206	0.89673	0.63963	0.105
Mof_C 	C 	0.77697	0.93705	0.61929	-0.157
Mof_H 	H 	0.7738	0.9351	0.5957	0.09
Mof_C 	C 	0.79653	0.9799	0.63423	0.084
Mof_H 	H 	0.8066	0.0066	0.6205	0.006
Mof_C 	C 	0.80137	0.98372	0.66883	-0.161
Mof_H 	H 	0.8145	0.0129	0.6784	0.094
Mof_C 	C 	0.79439	0.94753	0.72742	-0.04
Mof_C 	C 	0.80931	0.90555	0.74565	0.004
Mof_H 	H 	0.8111	0.8746	0.7346	0.048
Mof_C 	C 	0.82167	0.90855	0.78002	-0.091
Mof_C 	C 	0.81852	0.95423	0.79648	0.034
Mof_H 	H 	0.8277	0.9566	0.8193	0.051
Mof_C 	C 	0.80184	0.9966	0.77931	-0.087
Mof_C 	C 	0.78983	0.99273	0.74483	0.001
Mof_H 	H 	0.7785	0.0211	0.7332	0.052
Mof_C 	C 	0.83946	0.86276	0.79908	0.37
Mof_C 	C 	0.79598	0.0457	0.798	0.357
Mof_C 	C 	0.73886	0.85151	0.62349	-0.039
Mof_C 	C 	0.7108	0.85589	0.59358	0.004
Mof_H 	H 	0.7071	0.8874	0.5836	0.046
Mof_C 	C 	0.68862	0.81532	0.57842	-0.09
Mof_C 	C 	0.69266	0.76793	0.59325	0.029
Mof_H 	H 	0.6773	0.7403	0.5831	0.054
Mof_C 	C 	0.71997	0.76219	0.62347	-0.083
Mof_C 	C 	0.74285	0.80355	0.63807	-0
Mof_H 	H 	0.7613	0.7995	0.658	0.051
Mof_C 	C 	0.65592	0.82191	0.5475	0.364
Mof_C 	C 	0.72051	0.71122	0.6401	0.352
Mof_C 	C 	0.9897	0.54487	0.85308	0.062
Mof_C 	C 	0.9787	0.5431	0.8174	0.03
Mof_H 	H 	0.9448	0.556	0.8098	0.022
Mof_C 	C 	0.98125	0.59192	0.8721	-0.017
Mof_C 	C 	0.95002	0.6297	0.86014	-0.014
Mof_H 	H 	0.9323	0.6248	0.8399	0.058
Mof_C 	C 	0.94456	0.67469	0.87764	-0.075
Mof_C 	C 	0.96997	0.68204	0.908	0.025
Mof_H 	H 	0.9663	0.7122	0.9197	0.056
Mof_C 	C 	0.00063	0.6449	0.92099	-0.08
Mof_C 	C 	0.00588	0.60015	0.90291	-0.011
Mof_H 	H 	0.0265	0.575	0.9117	0.054
Mof_C 	C 	0.91364	0.71666	0.86218	0.355
Mof_C 	C 	0.03155	0.6532	0.95255	0.36
Mof_C 	C 	0.9851	0.4974	0.80045	-0.002
Mof_C 	C 	0.0013	0.5467	0.8183	-0.12
Mof_H 	H 	0.988	0.5741	0.8038	0.061
Mof_Cu	Cu	0.11039	0.18234	0.85492	0.906
Mof_Cu	Cu	0.14412	0.24254	0.80617	0.935
Mof_O 	O 	0.13961	0.12923	0.82683	-0.414
Mof_O 	O 	0.16787	0.17929	0.78568	-0.396
Mof_O 	O 	0.18111	0.95023	0.82599	-0.402
Mof_O 	O 	0.2304	0.92115	0.78447	-0.384
Mof_O 	O 	0.36593	0.21595	0.53585	-0.409
Mof_O 	O 	0.3468	0.1342	0.53556	-0.406
Mof_O 	O 	0.30412	0.32264	0.62566	-0.404
Mof_O 	O 	0.25406	0.29343	0.66719	-0.383
Mof_O 	O 	0.08386	0.24164	0.87719	-0.403
Mof_O 	O 	0.11096	0.29297	0.83604	-0.385
Mof_O 	O 	0.96625	0.30362	0.96403	-0.401
Mof_O 	O 	0.94651	0.38554	0.96422	-0.401
Mof_O 	O 	0.16274	0.29618	0.77043	-0.383
Mof_C 	C 	0.21314	0.05572	0.68974	0.109
Mof_C 	C 	0.2329	0.09871	0.675	-0.167
Mof_H 	H 	0.2431	0.1252	0.6889	0.097
Mof_C 	C 	0.23794	0.10327	0.63963	0.105
Mof_C 	C 	0.22303	0.06295	0.61929	-0.158
Mof_H 	H 	0.2262	0.0649	0.5957	0.091
Mof_C 	C 	0.20347	0.0201	0.63423	0.085
Mof_H 	H 	0.1934	0.9934	0.6205	0.006
Mof_C 	C 	0.19863	0.01628	0.66883	-0.161
Mof_H 	H 	0.1855	0.9871	0.6784	0.094
Mof_C 	C 	0.20561	0.05247	0.72742	-0.04
Mof_C 	C 	0.19069	0.09445	0.74565	0.004
Mof_H 	H 	0.1889	0.1254	0.7346	0.048
Mof_C 	C 	0.17833	0.09145	0.78002	-0.091
Mof_C 	C 	0.18148	0.04577	0.79648	0.034
Mof_H 	H 	0.1723	0.0434	0.8193	0.051
Mof_C 	C 	0.19816	0.0034	0.77931	-0.086
Mof_C 	C 	0.21017	0.00727	0.74483	0.002
Mof_H 	H 	0.2215	0.9789	0.7332	0.051
Mof_C 	C 	0.16054	0.13724	0.79908	0.37
Mof_C 	C 	0.20402	0.9543	0.798	0.357
Mof_C 	C 	0.26114	0.14849	0.62349	-0.039
Mof_C 	C 	0.2892	0.14411	0.59358	0.004
Mof_H 	H 	0.2929	0.1126	0.5836	0.046
Mof_C 	C 	0.31138	0.18468	0.57842	-0.09
Mof_C 	C 	0.30734	0.23207	0.59325	0.029
Mof_H 	H 	0.3227	0.2597	0.5831	0.054
Mof_C 	C 	0.28003	0.23781	0.62347	-0.083
Mof_C 	C 	0.25715	0.19645	0.63807	-0
Mof_H 	H 	0.2387	0.2005	0.658	0.051
Mof_C 	C 	0.34408	0.17809	0.5475	0.364
Mof_C 	C 	0.27949	0.28878	0.6401	0.352
Mof_C 	C 	0.0103	0.45513	0.85308	0.062
Mof_C 	C 	0.0213	0.4569	0.8174	0.029
Mof_H 	H 	0.0552	0.444	0.8098	0.022
Mof_C 	C 	0.01875	0.40808	0.8721	-0.016
Mof_C 	C 	0.04998	0.3703	0.86014	-0.014
Mof_H 	H 	0.0677	0.3752	0.8399	0.058
Mof_C 	C 	0.05544	0.32531	0.87764	-0.075
Mof_C 	C 	0.03003	0.31796	0.908	0.025
Mof_H 	H 	0.0337	0.2878	0.9197	0.056
Mof_C 	C 	0.99937	0.3551	0.92099	-0.081
Mof_C 	C 	0.99412	0.39985	0.90291	-0.012
Mof_H 	H 	0.9735	0.425	0.9117	0.054
Mof_C 	C 	0.08636	0.28334	0.86218	0.355
Mof_C 	C 	0.96845	0.3468	0.95255	0.361
Mof_C 	C 	0.0149	0.5026	0.80045	0.001
Mof_C 	C 	0.9987	0.4533	0.8183	-0.12
Mof_H 	H 	0.012	0.4259	0.8038	0.062
Mof_Cu	Cu	0.18234	0.88961	0.85492	0.906
Mof_Cu	Cu	0.24254	0.85588	0.80617	0.935
Mof_O 	O 	0.12923	0.86039	0.82683	-0.414
Mof_O 	O 	0.17929	0.83213	0.78568	-0.396
Mof_O 	O 	0.95023	0.81889	0.82599	-0.402
Mof_O 	O 	0.92115	0.7696	0.78447	-0.384
Mof_O 	O 	0.21595	0.63407	0.53585	-0.409
Mof_O 	O 	0.1342	0.6532	0.53556	-0.406
Mof_O 	O 	0.32264	0.69588	0.62566	-0.404
Mof_O 	O 	0.29343	0.74594	0.66719	-0.383
Mof_O 	O 	0.24164	0.91614	0.87719	-0.403
Mof_O 	O 	0.29297	0.88904	0.83604	-0.385
Mof_O 	O 	0.30362	0.03375	0.96403	-0.401
Mof_O 	O 	0.38554	0.05349	0.96422	-0.4
Mof_O 	O 	0.29618	0.83726	0.77043	-0.383
Mof_C 	C 	0.05572	0.78686	0.68974	0.109
Mof_C 	C 	0.09871	0.7671	0.675	-0.167
Mof_H 	H 	0.1252	0.7569	0.6889	0.097
Mof_C 	C 	0.10327	0.76206	0.63963	0.105
Mof_C 	C 	0.06295	0.77697	0.61929	-0.158
Mof_H 	H 	0.0649	0.7738	0.5957	0.091
Mof_C 	C 	0.0201	0.79653	0.63423	0.085
Mof_H 	H 	0.9934	0.8066	0.6205	0.006
Mof_C 	C 	0.01628	0.80137	0.66883	-0.161
Mof_H 	H 	0.9871	0.8145	0.6784	0.094
Mof_C 	C 	0.05247	0.79439	0.72742	-0.04
Mof_C 	C 	0.09445	0.80931	0.74565	0.004
Mof_H 	H 	0.1254	0.8111	0.7346	0.048
Mof_C 	C 	0.09145	0.82167	0.78002	-0.091
Mof_C 	C 	0.04577	0.81852	0.79648	0.034
Mof_H 	H 	0.0434	0.8277	0.8193	0.051
Mof_C 	C 	0.0034	0.80184	0.77931	-0.086
Mof_C 	C 	0.00727	0.78983	0.74483	0.002
Mof_H 	H 	0.9789	0.7785	0.7332	0.051
Mof_C 	C 	0.13724	0.83946	0.79908	0.37
Mof_C 	C 	0.9543	0.79598	0.798	0.357
Mof_C 	C 	0.14849	0.73886	0.62349	-0.039
Mof_C 	C 	0.14411	0.7108	0.59358	0.004
Mof_H 	H 	0.1126	0.7071	0.5836	0.046
Mof_C 	C 	0.18468	0.68862	0.57842	-0.09
Mof_C 	C 	0.23207	0.69266	0.59325	0.029
Mof_H 	H 	0.2597	0.6773	0.5831	0.054
Mof_C 	C 	0.23781	0.71997	0.62347	-0.083
Mof_C 	C 	0.19645	0.74285	0.63807	-0
Mof_H 	H 	0.2005	0.7613	0.658	0.051
Mof_C 	C 	0.17809	0.65592	0.5475	0.364
Mof_C 	C 	0.28878	0.72051	0.6401	0.352
Mof_C 	C 	0.45513	0.9897	0.85308	0.062
Mof_C 	C 	0.4569	0.9787	0.8174	0.03
Mof_H 	H 	0.444	0.9448	0.8098	0.022
Mof_C 	C 	0.40808	0.98125	0.8721	-0.017
Mof_C 	C 	0.3703	0.95002	0.86014	-0.014
Mof_H 	H 	0.3752	0.9323	0.8399	0.058
Mof_C 	C 	0.32531	0.94456	0.87764	-0.075
Mof_C 	C 	0.31796	0.96997	0.908	0.025
Mof_H 	H 	0.2878	0.9663	0.9197	0.056
Mof_C 	C 	0.3551	0.00063	0.92099	-0.08
Mof_C 	C 	0.39985	0.00588	0.90291	-0.011
Mof_H 	H 	0.425	0.0265	0.9117	0.054
Mof_C 	C 	0.28334	0.91364	0.86218	0.355
Mof_C 	C 	0.3468	0.03155	0.95255	0.36
Mof_C 	C 	0.5026	0.9851	0.80045	-0.002
Mof_C 	C 	0.4533	0.0013	0.8183	-0.12
Mof_H 	H 	0.4259	0.988	0.8038	0.061
Mof_Cu	Cu	0.81766	0.11039	0.85492	0.906
Mof_Cu	Cu	0.75746	0.14412	0.80617	0.935
Mof_O 	O 	0.87077	0.13961	0.82683	-0.414
Mof_O 	O 	0.82071	0.16787	0.78568	-0.396
Mof_O 	O 	0.04977	0.18111	0.82599	-0.402
Mof_O 	O 	0.07885	0.2304	0.78447	-0.384
Mof_O 	O 	0.78405	0.36593	0.53585	-0.409
Mof_O 	O 	0.8658	0.3468	0.53556	-0.407
Mof_O 	O 	0.67736	0.30412	0.62566	-0.404
Mof_O 	O 	0.70657	0.25406	0.66719	-0.383
Mof_O 	O 	0.75836	0.08386	0.87719	-0.403
Mof_O 	O 	0.70703	0.11096	0.83604	-0.385
Mof_O 	O 	0.69638	0.96625	0.96403	-0.401
Mof_O 	O 	0.61446	0.94651	0.96422	-0.401
Mof_O 	O 	0.70382	0.16274	0.77043	-0.383
Mof_C 	C 	0.94428	0.21314	0.68974	0.109
Mof_C 	C 	0.90129	0.2329	0.675	-0.166
Mof_H 	H 	0.8748	0.2431	0.6889	0.097
Mof_C 	C 	0.89673	0.23794	0.63963	0.105
Mof_C 	C 	0.93705	0.22303	0.61929	-0.157
Mof_H 	H 	0.9351	0.2262	0.5957	0.09
Mof_C 	C 	0.9799	0.20347	0.63423	0.084
Mof_H 	H 	0.0066	0.1934	0.6205	0.006
Mof_C 	C 	0.98372	0.19863	0.66883	-0.161
Mof_H 	H 	0.0129	0.1855	0.6784	0.094
Mof_C 	C 	0.94753	0.20561	0.72742	-0.04
Mof_C 	C 	0.90555	0.19069	0.74565	0.004
Mof_H 	H 	0.8746	0.1889	0.7346	0.048
Mof_C 	C 	0.90855	0.17833	0.78002	-0.091
Mof_C 	C 	0.95423	0.18148	0.79648	0.034
Mof_H 	H 	0.9566	0.1723	0.8193	0.051
Mof_C 	C 	0.9966	0.19816	0.77931	-0.087
Mof_C 	C 	0.99273	0.21017	0.74483	0.001
Mof_H 	H 	0.0211	0.2215	0.7332	0.052
Mof_C 	C 	0.86276	0.16054	0.79908	0.37
Mof_C 	C 	0.0457	0.20402	0.798	0.357
Mof_C 	C 	0.85151	0.26114	0.62349	-0.039
Mof_C 	C 	0.85589	0.2892	0.59358	0.004
Mof_H 	H 	0.8874	0.2929	0.5836	0.046
Mof_C 	C 	0.81532	0.31138	0.57842	-0.09
Mof_C 	C 	0.76793	0.30734	0.59325	0.029
Mof_H 	H 	0.7403	0.3227	0.5831	0.054
Mof_C 	C 	0.76219	0.28003	0.62347	-0.083
Mof_C 	C 	0.80355	0.25715	0.63807	-0
Mof_H 	H 	0.7995	0.2387	0.658	0.051
Mof_C 	C 	0.82191	0.34408	0.5475	0.364
Mof_C 	C 	0.71122	0.27949	0.6401	0.352
Mof_C 	C 	0.54487	0.0103	0.85308	0.062
Mof_C 	C 	0.5431	0.0213	0.8174	0.029
Mof_H 	H 	0.556	0.0552	0.8098	0.022
Mof_C 	C 	0.59192	0.01875	0.8721	-0.016
Mof_C 	C 	0.6297	0.04998	0.86014	-0.014
Mof_H 	H 	0.6248	0.0677	0.8399	0.058
Mof_C 	C 	0.67469	0.05544	0.87764	-0.075
Mof_C 	C 	0.68204	0.03003	0.908	0.025
Mof_H 	H 	0.7122	0.0337	0.9197	0.056
Mof_C 	C 	0.6449	0.99937	0.92099	-0.081
Mof_C 	C 	0.60015	0.99412	0.90291	-0.012
Mof_H 	H 	0.575	0.9735	0.9117	0.054
Mof_C 	C 	0.71666	0.08636	0.86218	0.355
Mof_C 	C 	0.6532	0.96845	0.95255	0.361
Mof_C 	C 	0.4974	0.0149	0.80045	0.001
Mof_C 	C 	0.5467	0.9987	0.8183	-0.12
Mof_H 	H 	0.5741	0.012	0.8038	0.062
Mof_Cu	Cu	0.61039	0.31766	0.64508	0.906
Mof_Cu	Cu	0.64412	0.25746	0.69383	0.935
Mof_O 	O 	0.63961	0.37077	0.67317	-0.414
Mof_O 	O 	0.66787	0.32071	0.71432	-0.396
Mof_O 	O 	0.68111	0.54977	0.67401	-0.402
Mof_O 	O 	0.7304	0.57885	0.71553	-0.384
Mof_O 	O 	0.86593	0.28405	0.96415	-0.403
Mof_O 	O 	0.8468	0.3658	0.96444	-0.4
Mof_O 	O 	0.80412	0.17736	0.87434	-0.403
Mof_O 	O 	0.75406	0.20657	0.83281	-0.383
Mof_O 	O 	0.58386	0.25836	0.62281	-0.404
Mof_O 	O 	0.61096	0.20703	0.66396	-0.385
Mof_O 	O 	0.46625	0.19638	0.53597	-0.407
Mof_O 	O 	0.44651	0.11446	0.53578	-0.407
Mof_O 	O 	0.66274	0.20382	0.72957	-0.383
Mof_C 	C 	0.71314	0.44428	0.81026	0.109
Mof_C 	C 	0.7329	0.40129	0.825	-0.166
Mof_H 	H 	0.7431	0.3748	0.8111	0.097
Mof_C 	C 	0.73794	0.39673	0.86037	0.105
Mof_C 	C 	0.72303	0.43705	0.88071	-0.157
Mof_H 	H 	0.7262	0.4351	0.9043	0.092
Mof_C 	C 	0.70347	0.4799	0.86577	0.084
Mof_H 	H 	0.6934	0.5066	0.8795	0.007
Mof_C 	C 	0.69863	0.48372	0.83117	-0.161
Mof_H 	H 	0.6855	0.5129	0.8216	0.094
Mof_C 	C 	0.70561	0.44753	0.77258	-0.04
Mof_C 	C 	0.69069	0.40555	0.75435	0.004
Mof_H 	H 	0.6889	0.3746	0.7654	0.048
Mof_C 	C 	0.67833	0.40855	0.71998	-0.091
Mof_C 	C 	0.68148	0.45423	0.70352	0.035
Mof_H 	H 	0.6723	0.4566	0.6807	0.051
Mof_C 	C 	0.69816	0.4966	0.72069	-0.087
Mof_C 	C 	0.71017	0.49273	0.75517	0.002
Mof_H 	H 	0.7215	0.5211	0.7668	0.051
Mof_C 	C 	0.66054	0.36276	0.70092	0.37
Mof_C 	C 	0.70402	0.5457	0.702	0.357
Mof_C 	C 	0.76114	0.35151	0.87651	-0.037
Mof_C 	C 	0.7892	0.35589	0.90642	0.003
Mof_H 	H 	0.7929	0.3874	0.9164	0.048
Mof_C 	C 	0.81138	0.31532	0.92158	-0.088
Mof_C 	C 	0.80734	0.26793	0.90675	0.028
Mof_H 	H 	0.8227	0.2403	0.9169	0.055
Mof_C 	C 	0.78003	0.26219	0.87653	-0.081
Mof_C 	C 	0.75715	0.30355	0.86193	-0.001
Mof_H 	H 	0.7387	0.2995	0.842	0.051
Mof_C 	C 	0.84408	0.32191	0.9525	0.362
Mof_C 	C 	0.77949	0.21122	0.8599	0.352
Mof_C 	C 	0.5103	0.04487	0.64692	0.062
Mof_C 	C 	0.5213	0.0431	0.6826	0.029
Mof_H 	H 	0.5552	0.056	0.6902	0.022
Mof_C 	C 	0.51875	0.09192	0.6279	-0.018
Mof_C 	C 	0.54998	0.1297	0.63986	-0.014
Mof_H 	H 	0.5677	0.1248	0.6601	0.057
Mof_C 	C 	0.55544	0.17469	0.62236	-0.077
Mof_C 	C 	0.53003	0.18204	0.592	0.026
Mof_H 	H 	0.5337	0.2122	0.5803	0.054
Mof_C 	C 	0.49937	0.1449	0.57901	-0.083
Mof_C 	C 	0.49412	0.10015	0.59709	-0.01
Mof_H 	H 	0.4735	0.075	0.5883	0.052
Mof_C 	C 	0.58636	0.21666	0.63782	0.356
Mof_C 	C 	0.46845	0.1532	0.54745	0.362
Mof_C 	C 	0.5149	0.9974	0.69955	-0.001
Mof_C 	C 	0.4987	0.0467	0.6817	-0.12
Mof_H 	H 	0.512	0.0741	0.6962	0.062
Mof_Cu	Cu	0.38961	0.68234	0.64508	0.906
Mof_Cu	Cu	0.35588	0.74254	0.69383	0.935
Mof_O 	O 	0.36039	0.62923	0.67317	-0.414
Mof_O 	O 	0.33213	0.67929	0.71432	-0.396
Mof_O 	O 	0.31889	0.45023	0.67401	-0.402
Mof_O 	O 	0.2696	0.42115	0.71553	-0.384
Mof_O 	O 	0.13407	0.71595	0.96415	-0.403
Mof_O 	O 	0.1532	0.6342	0.96444	-0.4
Mof_O 	O 	0.19588	0.82264	0.87434	-0.403
Mof_O 	O 	0.24594	0.79343	0.83281	-0.383
Mof_O 	O 	0.41614	0.74164	0.62281	-0.404
Mof_O 	O 	0.38904	0.79297	0.66396	-0.385
Mof_O 	O 	0.53375	0.80362	0.53597	-0.407
Mof_O 	O 	0.55349	0.88554	0.53578	-0.407
Mof_O 	O 	0.33726	0.79618	0.72957	-0.383
Mof_C 	C 	0.28686	0.55572	0.81026	0.109
Mof_C 	C 	0.2671	0.59871	0.825	-0.166
Mof_H 	H 	0.2569	0.6252	0.8111	0.097
Mof_C 	C 	0.26206	0.60327	0.86037	0.105
Mof_C 	C 	0.27697	0.56295	0.88071	-0.157
Mof_H 	H 	0.2738	0.5649	0.9043	0.092
Mof_C 	C 	0.29653	0.5201	0.86577	0.084
Mof_H 	H 	0.3066	0.4934	0.8795	0.007
Mof_C 	C 	0.30137	0.51628	0.83117	-0.161
Mof_H 	H 	0.3145	0.4871	0.8216	0.094
Mof_C 	C 	0.29439	0.55247	0.77258	-0.04
Mof_C 	C 	0.30931	0.59445	0.75435	0.004
Mof_H 	H 	0.3111	0.6254	0.7654	0.048
Mof_C 	C 	0.32167	0.59145	0.71998	-0.091
Mof_C 	C 	0.31852	0.54577	0.70352	0.035
Mof_H 	H 	0.3277	0.5434	0.6807	0.051
Mof_C 	C 	0.30184	0.5034	0.72069	-0.087
Mof_C 	C 	0.28983	0.50727	0.75517	0.002
Mof_H 	H 	0.2785	0.4789	0.7668	0.051
Mof_C 	C 	0.33946	0.63724	0.70092	0.37
Mof_C 	C 	0.29598	0.4543	0.702	0.357
Mof_C 	C 	0.23886	0.64849	0.87651	-0.037
Mof_C 	C 	0.2108	0.64411	0.90642	0.003
Mof_H 	H 	0.2071	0.6126	0.9164	0.048
Mof_C 	C 	0.18862	0.68468	0.92158	-0.088
Mof_C 	C 	0.19266	0.73207	0.90675	0.028
Mof_H 	H 	0.1773	0.7597	0.9169	0.055
Mof_C 	C 	0.21997	0.73781	0.87653	-0.081
Mof_C 	C 	0.24285	0.69645	0.86193	-0.001
Mof_H 	H 	0.2613	0.7005	0.842	0.051
Mof_C 	C 	0.15592	0.67809	0.9525	0.362
Mof_C 	C 	0.22051	0.78878	0.8599	0.352
Mof_C 	C 	0.4897	0.95513	0.64692	0.062
Mof_C 	C 	0.4787	0.9569	0.6826	0.03
Mof_H 	H 	0.4448	0.944	0.6902	0.021
Mof_C 	C 	0.48125	0.90808	0.6279	-0.018
Mof_C 	C 	0.45002	0.8703	0.63986	-0.014
Mof_H 	H 	0.4323	0.8752	0.6601	0.057
Mof_C 	C 	0.44456	0.82531	0.62236	-0.077
Mof_C 	C 	0.46997	0.81796	0.592	0.026
Mof_H 	H 	0.4663	0.7878	0.5803	0.054
Mof_C 	C 	0.50063	0.8551	0.57901	-0.083
Mof_C 	C 	0.50588	0.89985	0.59709	-0.01
Mof_H 	H 	0.5265	0.925	0.5883	0.052
Mof_C 	C 	0.41364	0.78334	0.63782	0.356
Mof_C 	C 	0.53155	0.8468	0.54745	0.362
Mof_C 	C 	0.4851	0.0026	0.69955	0
Mof_C 	C 	0.5013	0.9533	0.6817	-0.121
Mof_H 	H 	0.488	0.9259	0.6962	0.062
Mof_Cu	Cu	0.31766	0.38961	0.64508	0.906
Mof_Cu	Cu	0.25746	0.35588	0.69383	0.935
Mof_O 	O 	0.37077	0.36039	0.67317	-0.414
Mof_O 	O 	0.32071	0.33213	0.71432	-0.396
Mof_O 	O 	0.54977	0.31889	0.67401	-0.402
Mof_O 	O 	0.57885	0.2696	0.71553	-0.384
Mof_O 	O 	0.28405	0.13407	0.96415	-0.403
Mof_O 	O 	0.3658	0.1532	0.96444	-0.4
Mof_O 	O 	0.17736	0.19588	0.87434	-0.403
Mof_O 	O 	0.20657	0.24594	0.83281	-0.383
Mof_O 	O 	0.25836	0.41614	0.62281	-0.404
Mof_O 	O 	0.20703	0.38904	0.66396	-0.385
Mof_O 	O 	0.19638	0.53375	0.53597	-0.407
Mof_O 	O 	0.11446	0.55349	0.53578	-0.407
Mof_O 	O 	0.20382	0.33726	0.72957	-0.383
Mof_C 	C 	0.44428	0.28686	0.81026	0.109
Mof_C 	C 	0.40129	0.2671	0.825	-0.166
Mof_H 	H 	0.3748	0.2569	0.8111	0.097
Mof_C 	C 	0.39673	0.26206	0.86037	0.105
Mof_C 	C 	0.43705	0.27697	0.88071	-0.157
Mof_H 	H 	0.4351	0.2738	0.9043	0.092
Mof_C 	C 	0.4799	0.29653	0.86577	0.084
Mof_H 	H 	0.5066	0.3066	0.8795	0.007
Mof_C 	C 	0.48372	0.30137	0.83117	-0.161
Mof_H 	H 	0.5129	0.3145	0.8216	0.094
Mof_C 	C 	0.44753	0.29439	0.77258	-0.04
Mof_C 	C 	0.40555	0.30931	0.75435	0.004
Mof_H 	H 	0.3746	0.3111	0.7654	0.048
Mof_C 	C 	0.40855	0.32167	0.71998	-0.091
Mof_C 	C 	0.45423	0.31852	0.70352	0.035
Mof_H 	H 	0.4566	0.3277	0.6807	0.051
Mof_C 	C 	0.4966	0.30184	0.72069	-0.087
Mof_C 	C 	0.49273	0.28983	0.75517	0.002
Mof_H 	H 	0.5211	0.2785	0.7668	0.051
Mof_C 	C 	0.36276	0.33946	0.70092	0.37
Mof_C 	C 	0.5457	0.29598	0.702	0.357
Mof_C 	C 	0.35151	0.23886	0.87651	-0.037
Mof_C 	C 	0.35589	0.2108	0.90642	0.003
Mof_H 	H 	0.3874	0.2071	0.9164	0.048
Mof_C 	C 	0.31532	0.18862	0.92158	-0.088
Mof_C 	C 	0.26793	0.19266	0.90675	0.028
Mof_H 	H 	0.2403	0.1773	0.9169	0.055
Mof_C 	C 	0.26219	0.21997	0.87653	-0.081
Mof_C 	C 	0.30355	0.24285	0.86193	-0.001
Mof_H 	H 	0.2995	0.2613	0.842	0.051
Mof_C 	C 	0.32191	0.15592	0.9525	0.362
Mof_C 	C 	0.21122	0.22051	0.8599	0.352
Mof_C 	C 	0.04487	0.4897	0.64692	0.062
Mof_C 	C 	0.0431	0.4787	0.6826	0.029
Mof_H 	H 	0.056	0.4448	0.6902	0.022
Mof_C 	C 	0.09192	0.48125	0.6279	-0.018
Mof_C 	C 	0.1297	0.45002	0.63986	-0.014
Mof_H 	H 	0.1248	0.4323	0.6601	0.057
Mof_C 	C 	0.17469	0.44456	0.62236	-0.077
Mof_C 	C 	0.18204	0.46997	0.592	0.026
Mof_H 	H 	0.2122	0.4663	0.5803	0.054
Mof_C 	C 	0.1449	0.50063	0.57901	-0.083
Mof_C 	C 	0.10015	0.50588	0.59709	-0.01
Mof_H 	H 	0.075	0.5265	0.5883	0.052
Mof_C 	C 	0.21666	0.41364	0.63782	0.356
Mof_C 	C 	0.1532	0.53155	0.54745	0.362
Mof_C 	C 	0.9974	0.4851	0.69955	-0.001
Mof_C 	C 	0.0467	0.5013	0.6817	-0.12
Mof_H 	H 	0.0741	0.488	0.6962	0.062
Mof_Cu	Cu	0.68234	0.61039	0.64508	0.906
Mof_Cu	Cu	0.74254	0.64412	0.69383	0.935
Mof_O 	O 	0.62923	0.63961	0.67317	-0.414
Mof_O 	O 	0.67929	0.66787	0.71432	-0.396
Mof_O 	O 	0.45023	0.68111	0.67401	-0.402
Mof_O 	O 	0.42115	0.7304	0.71553	-0.384
Mof_O 	O 	0.71595	0.86593	0.96415	-0.403
Mof_O 	O 	0.6342	0.8468	0.96444	-0.4
Mof_O 	O 	0.82264	0.80412	0.87434	-0.403
Mof_O 	O 	0.79343	0.75406	0.83281	-0.383
Mof_O 	O 	0.74164	0.58386	0.62281	-0.404
Mof_O 	O 	0.79297	0.61096	0.66396	-0.385
Mof_O 	O 	0.80362	0.46625	0.53597	-0.407
Mof_O 	O 	0.88554	0.44651	0.53578	-0.407
Mof_O 	O 	0.79618	0.66274	0.72957	-0.383
Mof_C 	C 	0.55572	0.71314	0.81026	0.109
Mof_C 	C 	0.59871	0.7329	0.825	-0.166
Mof_H 	H 	0.6252	0.7431	0.8111	0.097
Mof_C 	C 	0.60327	0.73794	0.86037	0.105
Mof_C 	C 	0.56295	0.72303	0.88071	-0.157
Mof_H 	H 	0.5649	0.7262	0.9043	0.092
Mof_C 	C 	0.5201	0.70347	0.86577	0.084
Mof_H 	H 	0.4934	0.6934	0.8795	0.007
Mof_C 	C 	0.51628	0.69863	0.83117	-0.161
Mof_H 	H 	0.4871	0.6855	0.8216	0.094
Mof_C 	C 	0.55247	0.70561	0.77258	-0.04
Mof_C 	C 	0.59445	0.69069	0.75435	0.004
Mof_H 	H 	0.6254	0.6889	0.7654	0.048
Mof_C 	C 	0.59145	0.67833	0.71998	-0.091
Mof_C 	C 	0.54577	0.68148	0.70352	0.035
Mof_H 	H 	0.5434	0.6723	0.6807	0.051
Mof_C 	C 	0.5034	0.69816	0.72069	-0.087
Mof_C 	C 	0.50727	0.71017	0.75517	0.002
Mof_H 	H 	0.4789	0.7215	0.7668	0.051
Mof_C 	C 	0.63724	0.66054	0.70092	0.37
Mof_C 	C 	0.4543	0.70402	0.702	0.357
Mof_C 	C 	0.64849	0.76114	0.87651	-0.037
Mof_C 	C 	0.64411	0.7892	0.90642	0.003
Mof_H 	H 	0.6126	0.7929	0.9164	0.048
Mof_C 	C 	0.68468	0.81138	0.92158	-0.088
Mof_C 	C 	0.73207	0.80734	0.90675	0.028
Mof_H 	H 	0.7597	0.8227	0.9169	0.055
Mof_C 	C 	0.73781	0.78003	0.87653	-0.081
Mof_C 	C 	0.69645	0.75715	0.86193	-0.001
Mof_H 	H 	0.7005	0.7387	0.842	0.051
Mof_C 	C 	0.67809	0.84408	0.9525	0.362
Mof_C 	C 	0.78878	0.77949	0.8599	0.352
Mof_C 	C 	0.95513	0.5103	0.64692	0.062
Mof_C 	C 	0.9569	0.5213	0.6826	0.03
Mof_H 	H 	0.944	0.5552	0.6902	0.021
Mof_C 	C 	0.90808	0.51875	0.6279	-0.018
Mof_C 	C 	0.8703	0.54998	0.63986	-0.014
Mof_H 	H 	0.8752	0.5677	0.6601	0.057
Mof_C 	C 	0.82531	0.55544	0.62236	-0.077
Mof_C 	C 	0.81796	0.53003	0.592	0.026
Mof_H 	H 	0.7878	0.5337	0.5803	0.054
Mof_C 	C 	0.8551	0.49937	0.57901	-0.083
Mof_C 	C 	0.89985	0.49412	0.59709	-0.01
Mof_H 	H 	0.925	0.4735	0.5883	0.052
Mof_C 	C 	0.78334	0.58636	0.63782	0.356
Mof_C 	C 	0.8468	0.46845	0.54745	0.362
Mof_C 	C 	0.0026	0.5149	0.69955	0
Mof_C 	C 	0.9533	0.4987	0.6817	-0.121
Mof_H 	H 	0.9259	0.512	0.6962	0.062
Mof_Cu	Cu	0.41741	0.21393	0.5	0.904
Mof_Cu	Cu	0.39525	0.11686	0.5	0.906
Mof_Cu	Cu	0.58259	0.78607	0.5	0.904
Mof_Cu	Cu	0.60475	0.88314	0.5	0.906
Mof_Cu	Cu	0.78607	0.41741	0.5	0.904
Mof_Cu	Cu	0.88314	0.39525	0.5	0.906
Mof_Cu	Cu	0.21393	0.58259	0.5	0.904
Mof_Cu	Cu	0.11686	0.60475	0.5	0.906
Mof_Cu	Cu	0.08259	0.71393	-0	0.898
Mof_Cu	Cu	0.10475	0.61686	-0	0.9
Mof_Cu	Cu	0.91741	0.28607	-0	0.898
Mof_Cu	Cu	0.89525	0.38314	-0	0.9
Mof_Cu	Cu	0.71393	0.91741	-0	0.898
Mof_Cu	Cu	0.61686	0.89525	-0	0.9
Mof_Cu	Cu	0.28607	0.08259	-0	0.898
Mof_Cu	Cu	0.38314	0.10475	-0	0.9
Mof_C 	C 	-1.10645e-33	0.5	0.12966	-0.124
Mof_H 	H 	-4.88415e-33	0.5	0.1059	0.079
Mof_H 	H 	-2.41644e-33	0.5	0.2225	0.032
Mof_C 	C 	0.5	0	0.12966	-0.124
Mof_H 	H 	0.5	0	0.1059	0.079
Mof_H 	H 	0.5	-3.64636e-33	0.2225	0.032
Mof_C 	C 	0.5	0	0.37034	-0.123
Mof_H 	H 	0.5	-7.29272e-33	0.3941	0.079
Mof_H 	H 	0.5	-3.64636e-33	0.2775	0.032
Mof_C 	C 	2.04715e-33	0.5	0.37034	-0.123
Mof_H 	H 	2.17849e-33	0.5	0.3941	0.079
Mof_H 	H 	-5.75877e-33	0.5	0.2775	0.032
Mof_C 	C 	4.81103e-33	0.5	0.87034	-0.123
Mof_H 	H 	1.95278e-32	0.5	0.8941	0.08
Mof_H 	H 	4.29783e-33	0.5	0.7775	0.032
Mof_C 	C 	0.5	-1.45854e-32	0.87034	-0.123
Mof_H 	H 	0.5	0	0.8941	0.08
Mof_H 	H 	0.5	0	0.7775	0.032
Mof_C 	C 	0.5	-7.29272e-33	0.62966	-0.123
Mof_H 	H 	0.5	7.29272e-33	0.6059	0.079
Mof_H 	H 	0.5	-1.45854e-32	0.7225	0.032
Mof_C 	C 	-1.11048e-32	0.5	0.62966	-0.123
Mof_H 	H 	1.0642e-32	0.5	0.6059	0.079
Mof_H 	H 	-3.29892e-33	0.5	0.7225	0.032
Mof_C 	C 	0.1967	0.3033	0.25	0.507
Mof_H 	H 	0.2214	0.2786	0.25	-0.119
Mof_C 	C 	0.8033	0.6967	0.25	0.507
Mof_H 	H 	0.7786	0.7214	0.25	-0.119
Mof_C 	C 	0.6967	0.1967	0.25	0.507
Mof_H 	H 	0.7214	0.2214	0.25	-0.119
Mof_C 	C 	0.3033	0.8033	0.25	0.507
Mof_H 	H 	0.2786	0.7786	0.25	-0.119
Mof_C 	C 	0.8033	0.6967	0.75	0.507
Mof_H 	H 	0.7786	0.7214	0.75	-0.119
Mof_C 	C 	0.1967	0.3033	0.75	0.507
Mof_H 	H 	0.2214	0.2786	0.75	-0.119
Mof_C 	C 	0.3033	0.8033	0.75	0.507
Mof_H 	H 	0.2786	0.7786	0.75	-0.119
Mof_C 	C 	0.6967	0.1967	0.75	0.507
Mof_H 	H 	0.7214	0.2214	0.75	-0.119
_end
