# CIF file generated by openbabel 3.1.0, see https://openbabel.org
data_I
_chemical_name_common 'GAJTOC_clean'
_cell_length_a 12.8345
_cell_length_b 12.8345
_cell_length_c 34.874
_cell_angle_alpha 82.5004
_cell_angle_beta 82.5004
_cell_angle_gamma 63.726
_space_group_name_H-M_alt 'P 1'
_space_group_name_Hall 'P 1'
loop_
    _symmetry_equiv_pos_as_xyz
    x,y,z
loop_
    _atom_site_label
    _atom_site_type_symbol
    _atom_site_fract_x
    _atom_site_fract_y
    _atom_site_fract_z
    _atom_site_occupancy
    Gd1      Gd       0.20377    0.36086    0.05860    1.000
    Gd2      Gd       0.13073    0.34827    0.18443    1.000
    Gd3      Gd       0.36086    0.20377    0.55860    1.000
    Gd4      Gd       0.34827    0.13073    0.68444    1.000
    H1       H        0.24360    0.43580    0.74350    1.000
    H2       H        0.44230    0.09710    0.19130    1.000
    H3       H        0.58970    0.10870    0.08420    1.000
    H4       H        0.00490    0.09910    0.17400    1.000
    H5       H        0.20450    0.66350    0.17980    1.000
    H6       H        0.32870    0.61450    0.06980    1.000
    H7       H        0.12910    0.04330    0.06410    1.000
    H8       H        0.06110    0.90150    0.06780    1.000
    H9       H        0.76010    0.60450    0.16380    1.000
    H10      H        0.86050    0.63490    0.05200    1.000
    H11      H        0.13270    0.61370    0.93750    1.000
    H12      H        0.57900    0.75660    0.15150    1.000
    H13      H        0.39090    0.75770    0.06930    1.000
    H14      H        0.54890    0.32930    0.78760    1.000
    H15      H        0.47920    0.50640    0.81370    1.000
    H16      H        0.48840    0.61220    0.90560    1.000
    H17      H        0.45400    0.52300    0.96450    1.000
    H18      H        0.61820    0.95120    0.20950    1.000
    H19      H        0.43580    0.24360    0.24350    1.000
    H20      H        0.09710    0.44230    0.69130    1.000
    H21      H        0.10870    0.58970    0.58420    1.000
    H22      H        0.09910    0.00490    0.67400    1.000
    H23      H        0.66350    0.20450    0.67980    1.000
    H24      H        0.61450    0.32870    0.56980    1.000
    H25      H        0.04330    0.12910    0.56410    1.000
    H26      H        0.90150    0.06110    0.56780    1.000
    H27      H        0.60450    0.76010    0.66380    1.000
    H28      H        0.63490    0.86050    0.55200    1.000
    H29      H        0.61370    0.13270    0.43750    1.000
    H30      H        0.75660    0.57900    0.65150    1.000
    H31      H        0.75770    0.39090    0.56930    1.000
    H32      H        0.32930    0.54890    0.28760    1.000
    H33      H        0.50640    0.47920    0.31370    1.000
    H34      H        0.61220    0.48840    0.40560    1.000
    H35      H        0.52300    0.45400    0.46450    1.000
    H36      H        0.95120    0.61820    0.70950    1.000
    C1       C        0.21770    0.53130    0.12494    1.000
    C2       C        0.25800    0.62520    0.12474    1.000
    C3       C        0.11460    0.17980    0.11935    1.000
    C4       C        0.07260    0.08800    0.11909    1.000
    C5       C        0.43980    0.24540    0.74768    1.000
    C6       C        0.40280    0.36140    0.76311    1.000
    C7       C        0.70290    0.94750    0.15640    1.000
    C8       C        0.61870    0.77770    0.09419    1.000
    C9       C        0.29200    0.44980    0.75765    1.000
    C10      C        0.83100    0.60280    0.10862    1.000
    C11      C        0.50650    0.07070    0.17326    1.000
    C12      C        0.49760    0.11880    0.13523    1.000
    C13      C        0.59540    0.07640    0.10980    1.000
    C14      C        0.99540    0.92120    0.12335    1.000
    C15      C        0.33110    0.79330    0.12361    1.000
    C16      C        0.01660    0.05900    0.15224    1.000
    C17      C        0.94920    0.50780    0.11483    1.000
    C18      C        0.33170    0.65850    0.88801    1.000
    C19      C        0.32150    0.57310    0.79195    1.000
    C20      C        0.38530    0.21330    0.12201    1.000
    C21      C        0.24100    0.68340    0.15720    1.000
    C22      C        0.31510    0.65370    0.09195    1.000
    C23      C        0.09050    0.02730    0.08694    1.000
    C24      C        0.05060    0.94280    0.08910    1.000
    C25      C        0.26230    0.49610    0.99439    1.000
    C26      C        0.28810    0.55570    0.95752    1.000
    C27      C        0.74530    0.63970    0.13876    1.000
    C28      C        0.80310    0.65850    0.07244    1.000
    C29      C        0.20640    0.61120    0.93103    1.000
    C30      C        0.63740    0.72960    0.13154    1.000
    C31      C        0.35210    0.73850    0.09143    1.000
    C32      C        0.47330    0.38530    0.78389    1.000
    C33      C        0.43300    0.49060    0.79905    1.000
    C34      C        0.41690    0.61010    0.91234    1.000
    C35      C        0.39580    0.55760    0.94741    1.000
    C36      C        0.61030    0.98430    0.18405    1.000
    C37      C        0.53130    0.21770    0.62494    1.000
    C38      C        0.62520    0.25800    0.62474    1.000
    C39      C        0.17980    0.11460    0.61935    1.000
    C40      C        0.08800    0.07260    0.61909    1.000
    C41      C        0.24540    0.43980    0.24768    1.000
    C42      C        0.36140    0.40280    0.26311    1.000
    C43      C        0.94750    0.70290    0.65640    1.000
    C44      C        0.77770    0.61870    0.59419    1.000
    C45      C        0.44980    0.29200    0.25765    1.000
    C46      C        0.60280    0.83100    0.60862    1.000
    C47      C        0.07070    0.50650    0.67326    1.000
    C48      C        0.11880    0.49760    0.63523    1.000
    C49      C        0.07640    0.59540    0.60980    1.000
    C50      C        0.92120    0.99540    0.62335    1.000
    C51      C        0.79330    0.33110    0.62361    1.000
    C52      C        0.05900    0.01660    0.65224    1.000
    C53      C        0.50780    0.94920    0.61483    1.000
    C54      C        0.65850    0.33170    0.38801    1.000
    C55      C        0.57310    0.32150    0.29195    1.000
    C56      C        0.21330    0.38530    0.62201    1.000
    C57      C        0.68340    0.24100    0.65720    1.000
    C58      C        0.65370    0.31510    0.59195    1.000
    C59      C        0.02730    0.09050    0.58694    1.000
    C60      C        0.94280    0.05060    0.58910    1.000
    C61      C        0.49610    0.26230    0.49439    1.000
    C62      C        0.55570    0.28810    0.45752    1.000
    C63      C        0.63970    0.74530    0.63876    1.000
    C64      C        0.65850    0.80310    0.57244    1.000
    C65      C        0.61120    0.20640    0.43103    1.000
    C66      C        0.72960    0.63740    0.63154    1.000
    C67      C        0.73850    0.35210    0.59143    1.000
    C68      C        0.38530    0.47330    0.28389    1.000
    C69      C        0.49060    0.43300    0.29905    1.000
    C70      C        0.61010    0.41690    0.41234    1.000
    C71      C        0.55760    0.39580    0.44741    1.000
    C72      C        0.98430    0.61030    0.68405    1.000
    S1       S        0.83523    0.83465    0.17277    1.000
    S2       S        0.37265    0.90797    0.12679    1.000
    S3       S        0.25160    0.71668    0.80748    1.000
    S4       S        0.36339    0.72381    0.84171    1.000
    S5       S        0.48630    0.89476    0.07967    1.000
    S6       S        0.94962    0.80732    0.12547    1.000
    S7       S        0.83465    0.83523    0.67277    1.000
    S8       S        0.90797    0.37265    0.62679    1.000
    S9       S        0.71668    0.25160    0.30748    1.000
    S10      S        0.72381    0.36339    0.34171    1.000
    S11      S        0.89476    0.48630    0.57967    1.000
    S12      S        0.80732    0.94962    0.62547    1.000
    N1       N        0.25126    0.55406    0.77166    1.000
    N2       N        0.22550    0.66290    0.89585    1.000
    N3       N        0.97770    0.97590    0.15516    1.000
    N4       N        0.69880    0.74440    0.06463    1.000
    N5       N        0.27620    0.76980    0.15706    1.000
    N6       N        0.69830    0.99190    0.11953    1.000
    N7       N        0.55406    0.25126    0.27166    1.000
    N8       N        0.66290    0.22550    0.39585    1.000
    N9       N        0.97590    0.97770    0.65516    1.000
    N10      N        0.74440    0.69880    0.56463    1.000
    N11      N        0.76980    0.27620    0.65706    1.000
    N12      N        0.99190    0.69830    0.61953    1.000
    O1       O        0.10329    0.21849    0.15139    1.000
    O2       O        0.36314    0.22954    0.73376    1.000
    O3       O        0.22730    0.49070    0.09354    1.000
    O4       O        0.15746    0.21086    0.08833    1.000
    O5       O        0.17592    0.50272    0.15682    1.000
    O6       O        0.34420    0.42660    0.01406    1.000
    O7       O        0.37984    0.23924    0.08587    1.000
    O8       O        0.30416    0.26056    0.14684    1.000
    O9       O        0.01781    0.47121    0.08606    1.000
    O10      O        0.97028    0.46988    0.14929    1.000
    O11      O        0.15886    0.51266    0.00486    1.000
    O12      O        0.54356    0.17016    0.75037    1.000
    O13      O        0.21849    0.10329    0.65139    1.000
    O14      O        0.22954    0.36314    0.23376    1.000
    O15      O        0.49070    0.22730    0.59354    1.000
    O16      O        0.21086    0.15746    0.58833    1.000
    O17      O        0.50272    0.17592    0.65682    1.000
    O18      O        0.42660    0.34420    0.51406    1.000
    O19      O        0.23924    0.37984    0.58587    1.000
    O20      O        0.26056    0.30416    0.64684    1.000
    O21      O        0.47121    0.01781    0.58606    1.000
    O22      O        0.46988    0.97028    0.64929    1.000
    O23      O        0.51266    0.15886    0.50486    1.000
    O24      O        0.17016    0.54356    0.25037    1.000
    Gd5      Gd       0.63914    0.79623    0.44140    1.000
    Gd6      Gd       0.65173    0.86927    0.31557    1.000
    Gd7      Gd       0.79623    0.63914    0.94140    1.000
    Gd8      Gd       0.86927    0.65173    0.81557    1.000
    H37      H        0.56420    0.75640    0.75650    1.000
    H38      H        0.90290    0.55770    0.30870    1.000
    H39      H        0.89130    0.41030    0.41580    1.000
    H40      H        0.90090    0.99510    0.32600    1.000
    H41      H        0.33650    0.79550    0.32020    1.000
    H42      H        0.38550    0.67130    0.43020    1.000
    H43      H        0.95670    0.87090    0.43590    1.000
    H44      H        0.09850    0.93890    0.43220    1.000
    H45      H        0.39550    0.23990    0.33620    1.000
    H46      H        0.36510    0.13950    0.44800    1.000
    H47      H        0.38630    0.86730    0.56250    1.000
    H48      H        0.24340    0.42100    0.34850    1.000
    H49      H        0.24230    0.60910    0.43070    1.000
    H50      H        0.67070    0.45110    0.71240    1.000
    H51      H        0.49360    0.52080    0.68630    1.000
    H52      H        0.38780    0.51160    0.59440    1.000
    H53      H        0.47700    0.54600    0.53550    1.000
    H54      H        0.04880    0.38180    0.29050    1.000
    H55      H        0.75640    0.56420    0.25650    1.000
    H56      H        0.55770    0.90290    0.80870    1.000
    H57      H        0.41030    0.89130    0.91580    1.000
    H58      H        0.99510    0.90090    0.82600    1.000
    H59      H        0.79550    0.33650    0.82020    1.000
    H60      H        0.67130    0.38550    0.93020    1.000
    H61      H        0.87090    0.95670    0.93590    1.000
    H62      H        0.93890    0.09850    0.93220    1.000
    H63      H        0.23990    0.39550    0.83620    1.000
    H64      H        0.13950    0.36510    0.94800    1.000
    H65      H        0.86730    0.38630    0.06250    1.000
    H66      H        0.42100    0.24340    0.84850    1.000
    H67      H        0.60910    0.24230    0.93070    1.000
    H68      H        0.45110    0.67070    0.21240    1.000
    H69      H        0.52080    0.49360    0.18630    1.000
    H70      H        0.51160    0.38780    0.09440    1.000
    H71      H        0.54600    0.47700    0.03550    1.000
    H72      H        0.38180    0.04880    0.79050    1.000
    C73      C        0.46870    0.78230    0.37506    1.000
    C74      C        0.37480    0.74200    0.37526    1.000
    C75      C        0.82020    0.88540    0.38065    1.000
    C76      C        0.91200    0.92740    0.38091    1.000
    C77      C        0.75460    0.56020    0.75232    1.000
    C78      C        0.63860    0.59720    0.73689    1.000
    C79      C        0.05250    0.29710    0.34360    1.000
    C80      C        0.22230    0.38130    0.40581    1.000
    C81      C        0.55020    0.70800    0.74235    1.000
    C82      C        0.39720    0.16900    0.39138    1.000
    C83      C        0.92930    0.49350    0.32674    1.000
    C84      C        0.88120    0.50240    0.36477    1.000
    C85      C        0.92360    0.40460    0.39020    1.000
    C86      C        0.07880    0.00460    0.37665    1.000
    C87      C        0.20670    0.66890    0.37639    1.000
    C88      C        0.94100    0.98340    0.34776    1.000
    C89      C        0.49220    0.05080    0.38517    1.000
    C90      C        0.34150    0.66830    0.61199    1.000
    C91      C        0.42690    0.67850    0.70805    1.000
    C92      C        0.78670    0.61470    0.37799    1.000
    C93      C        0.31660    0.75900    0.34280    1.000
    C94      C        0.34630    0.68490    0.40805    1.000
    C95      C        0.97270    0.90950    0.41306    1.000
    C96      C        0.05720    0.94940    0.41090    1.000
    C97      C        0.50390    0.73770    0.50561    1.000
    C98      C        0.44430    0.71190    0.54248    1.000
    C99      C        0.36030    0.25470    0.36124    1.000
    C100     C        0.34150    0.19690    0.42756    1.000
    C101     C        0.38880    0.79360    0.56897    1.000
    C102     C        0.27040    0.36260    0.36846    1.000
    C103     C        0.26150    0.64790    0.40857    1.000
    C104     C        0.61470    0.52670    0.71611    1.000
    C105     C        0.50940    0.56700    0.70095    1.000
    C106     C        0.38990    0.58310    0.58766    1.000
    C107     C        0.44240    0.60420    0.55259    1.000
    C108     C        0.01570    0.38970    0.31595    1.000
    C109     C        0.78230    0.46870    0.87506    1.000
    C110     C        0.74200    0.37480    0.87526    1.000
    C111     C        0.88540    0.82020    0.88065    1.000
    C112     C        0.92740    0.91200    0.88091    1.000
    C113     C        0.56020    0.75460    0.25232    1.000
    C114     C        0.59720    0.63860    0.23689    1.000
    C115     C        0.29710    0.05250    0.84360    1.000
    C116     C        0.38130    0.22230    0.90581    1.000
    C117     C        0.70800    0.55020    0.24235    1.000
    C118     C        0.16900    0.39720    0.89138    1.000
    C119     C        0.49350    0.92930    0.82674    1.000
    C120     C        0.50240    0.88120    0.86477    1.000
    C121     C        0.40460    0.92360    0.89020    1.000
    C122     C        0.00460    0.07880    0.87665    1.000
    C123     C        0.66890    0.20670    0.87639    1.000
    C124     C        0.98340    0.94100    0.84776    1.000
    C125     C        0.05080    0.49220    0.88517    1.000
    C126     C        0.66830    0.34150    0.11199    1.000
    C127     C        0.67850    0.42690    0.20805    1.000
    C128     C        0.61470    0.78670    0.87799    1.000
    C129     C        0.75900    0.31660    0.84280    1.000
    C130     C        0.68490    0.34630    0.90805    1.000
    C131     C        0.90950    0.97270    0.91306    1.000
    C132     C        0.94940    0.05720    0.91090    1.000
    C133     C        0.73770    0.50390    0.00561    1.000
    C134     C        0.71190    0.44430    0.04248    1.000
    C135     C        0.25470    0.36030    0.86124    1.000
    C136     C        0.19690    0.34150    0.92756    1.000
    C137     C        0.79360    0.38880    0.06897    1.000
    C138     C        0.36260    0.27040    0.86846    1.000
    C139     C        0.64790    0.26150    0.90857    1.000
    C140     C        0.52670    0.61470    0.21611    1.000
    C141     C        0.56700    0.50940    0.20095    1.000
    C142     C        0.58310    0.38990    0.08766    1.000
    C143     C        0.60420    0.44240    0.05259    1.000
    C144     C        0.38970    0.01570    0.81595    1.000
    S13      S        0.16535    0.16477    0.32723    1.000
    S14      S        0.09203    0.62735    0.37321    1.000
    S15      S        0.28332    0.74840    0.69252    1.000
    S16      S        0.27619    0.63661    0.65829    1.000
    S17      S        0.10524    0.51370    0.42033    1.000
    S18      S        0.19268    0.05038    0.37453    1.000
    S19      S        0.16477    0.16535    0.82723    1.000
    S20      S        0.62735    0.09203    0.87321    1.000
    S21      S        0.74840    0.28332    0.19252    1.000
    S22      S        0.63661    0.27619    0.15829    1.000
    S23      S        0.51370    0.10524    0.92033    1.000
    S24      S        0.05038    0.19268    0.87453    1.000
    N13      N        0.44594    0.74874    0.72834    1.000
    N14      N        0.33710    0.77450    0.60415    1.000
    N15      N        0.02410    0.02230    0.34484    1.000
    N16      N        0.25560    0.30120    0.43537    1.000
    N17      N        0.23020    0.72380    0.34294    1.000
    N18      N        0.00810    0.30170    0.38047    1.000
    N19      N        0.74874    0.44594    0.22834    1.000
    N20      N        0.77450    0.33710    0.10415    1.000
    N21      N        0.02230    0.02410    0.84484    1.000
    N22      N        0.30120    0.25560    0.93537    1.000
    N23      N        0.72380    0.23020    0.84294    1.000
    N24      N        0.30170    0.00810    0.88047    1.000
    O25      O        0.78151    0.89671    0.34861    1.000
    O26      O        0.77046    0.63686    0.76624    1.000
    O27      O        0.50930    0.77270    0.40646    1.000
    O28      O        0.78914    0.84254    0.41167    1.000
    O29      O        0.49728    0.82408    0.34318    1.000
    O30      O        0.57340    0.65580    0.48594    1.000
    O31      O        0.76076    0.62016    0.41413    1.000
    O32      O        0.73944    0.69584    0.35316    1.000
    O33      O        0.52879    0.98219    0.41394    1.000
    O34      O        0.53012    0.02972    0.35071    1.000
    O35      O        0.48734    0.84114    0.49514    1.000
    O36      O        0.82984    0.45644    0.74963    1.000
    O37      O        0.89671    0.78151    0.84861    1.000
    O38      O        0.63686    0.77046    0.26624    1.000
    O39      O        0.77270    0.50930    0.90646    1.000
    O40      O        0.84254    0.78914    0.91167    1.000
    O41      O        0.82408    0.49728    0.84318    1.000
    O42      O        0.65580    0.57340    0.98594    1.000
    O43      O        0.62016    0.76076    0.91413    1.000
    O44      O        0.69584    0.73944    0.85316    1.000
    O45      O        0.98219    0.52879    0.91394    1.000
    O46      O        0.02972    0.53012    0.85071    1.000
    O47      O        0.84114    0.48734    0.99514    1.000
    O48      O        0.45644    0.82984    0.24963    1.000
