# CIF file generated by openbabel 3.1.0, see https://openbabel.org
data_I
_chemical_name_common 'SEJBAL_clean'
_cell_length_a 8.242
_cell_length_b 11.259
_cell_length_c 12.8981
_cell_angle_alpha 104.239
_cell_angle_beta 108.633
_cell_angle_gamma 90
_space_group_name_H-M_alt 'P 1'
_space_group_name_Hall 'P 1'
loop_
    _symmetry_equiv_pos_as_xyz
    x,y,z
loop_
    _atom_site_label
    _atom_site_type_symbol
    _atom_site_fract_x
    _atom_site_fract_y
    _atom_site_fract_z
    _atom_site_occupancy
    Ni1      Ni       0.49144    0.43674    0.37130    1.000
    Ni2      Ni       0.12014    0.56326    0.62870    1.000
    H1       H        0.99850    0.70070    0.35680    1.000
    H2       H        0.92640    0.78790    0.20520    1.000
    H3       H        0.70750    0.69330    0.03980    1.000
    H4       H        0.32030    0.59800    0.22340    1.000
    H5       H        0.31420    0.79560    0.21680    1.000
    H6       H        0.66180    0.88950    0.52860    1.000
    H7       H        0.64850    0.68940    0.52900    1.000
    H8       H        0.73620    0.25530    0.46400    1.000
    H9       H        0.73900    0.05420    0.46960    1.000
    H10      H        0.25310    0.99300    0.26180    1.000
    H11      H        0.26460    0.19700    0.25820    1.000
    H12      H        0.64170    0.29930    0.64320    1.000
    H13      H        0.72120    0.21210    0.79480    1.000
    H14      H        0.66770    0.30670    0.96020    1.000
    H15      H        0.09690    0.40200    0.77660    1.000
    H16      H        0.09740    0.20440    0.78320    1.000
    H17      H        0.13320    0.11050    0.47140    1.000
    H18      H        0.11950    0.31060    0.47100    1.000
    H19      H        0.27220    0.74470    0.53600    1.000
    H20      H        0.26940    0.94580    0.53040    1.000
    H21      H        0.99130    0.00700    0.73820    1.000
    H22      H        0.00640    0.80300    0.74180    1.000
    C1       C        0.64320    0.55530    0.09660    1.000
    C2       C        0.68390    0.50030    0.18860    1.000
    C3       C        0.81630    0.55880    0.28700    1.000
    C4       C        0.90760    0.66410    0.29140    1.000
    C5       C        0.86590    0.71580    0.20020    1.000
    C6       C        0.73430    0.66020    0.10180    1.000
    C7       C        0.58540    0.38270    0.17760    1.000
    C8       C        0.86040    0.50960    0.39120    1.000
    C9       C        0.38980    0.65750    0.28580    1.000
    C10      C        0.38790    0.77560    0.28020    1.000
    C11      C        0.49640    0.86880    0.36960    1.000
    C12      C        0.59200    0.83190    0.46480    1.000
    C13      C        0.58300    0.71120    0.46420    1.000
    C14      C        0.63700    0.20300    0.42300    1.000
    C15      C        0.63930    0.08070    0.42640    1.000
    C16      C        0.50060    0.99900    0.36840    1.000
    C17      C        0.35290    0.04440    0.30340    1.000
    C18      C        0.36070    0.16830    0.30300    1.000
    C19      C        0.54660    0.44470    0.90340    1.000
    C20      C        0.49530    0.49970    0.81140    1.000
    C21      C        0.52930    0.44120    0.71300    1.000
    C22      C        0.61620    0.33590    0.70860    1.000
    C23      C        0.66570    0.28420    0.79980    1.000
    C24      C        0.63250    0.33980    0.89820    1.000
    C25      C        0.40780    0.61730    0.82240    1.000
    C26      C        0.46920    0.49040    0.60880    1.000
    C27      C        0.10400    0.34250    0.71420    1.000
    C28      C        0.10770    0.22440    0.71980    1.000
    C29      C        0.12680    0.13120    0.63040    1.000
    C30      C        0.12720    0.16810    0.53520    1.000
    C31      C        0.11880    0.28880    0.53580    1.000
    C32      C        0.21400    0.79700    0.57700    1.000
    C33      C        0.21290    0.91930    0.57360    1.000
    C34      C        0.13220    0.00100    0.63160    1.000
    C35      C        0.04950    0.95560    0.69660    1.000
    C36      C        0.05770    0.83170    0.69700    1.000
    N1       N        0.48602    0.62070    0.37624    1.000
    N2       N        0.49931    0.24890    0.36402    1.000
    N3       N        0.10978    0.37930    0.62376    1.000
    N4       N        0.13529    0.75110    0.63598    1.000
    O1       O        0.44471    0.38610    0.19722    1.000
    O2       O        0.64405    0.28440    0.13890    1.000
    O3       O        0.75352    0.44800    0.40824    1.000
    O4       O        0.01337    0.53760    0.45694    1.000
    O5       O        0.24749    0.61390    0.80278    1.000
    O6       O        0.50515    0.71560    0.86110    1.000
    O7       O        0.34528    0.55200    0.59176    1.000
    O8       O        0.55643    0.46240    0.54306    1.000
    O9       O        0.50360    0.50000    0.00000    1.000
