# CIF file generated by openbabel 3.1.0, see https://openbabel.org
data_I
_chemical_name_common 'image0'
_cell_length_a 12.8414
_cell_length_b 24.1086
_cell_length_c 12.3488
_cell_angle_alpha 90
_cell_angle_beta 90
_cell_angle_gamma 90
_space_group_name_H-M_alt 'P 1'
_space_group_name_Hall 'P 1'
loop_
    _symmetry_equiv_pos_as_xyz
    x,y,z
loop_
    _atom_site_label
    _atom_site_type_symbol
    _atom_site_fract_x
    _atom_site_fract_y
    _atom_site_fract_z
    _atom_site_occupancy
    C1       C        0.27890    0.66860    0.99170    1.000
    C2       C        0.29970    0.72770    0.98540    1.000
    H1       H        0.30160    0.74560    0.91870    1.000
    C3       C        0.31630    0.75610    0.07720    1.000
    C4       C        0.31170    0.73090    0.17690    1.000
    H2       H        0.32200    0.75160    0.23960    1.000
    C5       C        0.29130    0.67350    0.18350    1.000
    C6       C        0.27310    0.64260    0.08870    1.000
    H3       H        0.25730    0.60500    0.09270    1.000
    C7       C        0.23640    0.58660    0.88970    1.000
    H4       H        0.28440    0.56380    0.93240    1.000
    C8       C        0.12690    0.58040    0.93370    1.000
    C9       C        0.24120    0.56940    0.77390    1.000
    H5       H        0.19020    0.58970    0.73310    1.000
    H6       H        0.22700    0.53040    0.76840    1.000
    H7       H        0.30930    0.57700    0.74560    1.000
    C10      C        0.27640    0.59510    0.30530    1.000
    H8       H        0.21160    0.58350    0.27010    1.000
    C11      C        0.36650    0.56240    0.25770    1.000
    C12      C        0.26740    0.58570    0.42390    1.000
    H9       H        0.32790    0.60040    0.45960    1.000
    H10      H        0.26220    0.54670    0.43810    1.000
    H11      H        0.20630    0.60420    0.45070    1.000
    C13      C        0.33980    0.81790    0.06970    1.000
    C14      C        0.02630    0.95180    0.23610    1.000
    C15      C        0.02760    0.95280    0.34960    1.000
    H12      H        0.04710    0.92120    0.38790    1.000
    C16      C        0.05050    0.89580    0.07600    1.000
    H13      H        0.98500    0.91110    0.04840    1.000
    C17      C        0.14120    0.92490    0.01740    1.000
    C18      C        0.05080    0.83350    0.05490    1.000
    H14      H        0.11560    0.81800    0.07910    1.000
    H15      H        0.04270    0.82680    0.97880    1.000
    H16      H        0.99440    0.81660    0.09360    1.000
    C19      C        0.51280    0.05000    0.45280    1.000
    H17      H        0.52120    0.08350    0.41640    1.000
    C20      C        0.51250    0.04740    0.56240    1.000
    C21      C        0.51040    0.10510    0.72570    1.000
    H18      H        0.44690    0.08620    0.74980    1.000
    C22      C        0.60540    0.07830    0.77950    1.000
    C23      C        0.50400    0.16680    0.75470    1.000
    H19      H        0.56960    0.18430    0.73980    1.000
    H20      H        0.48790    0.17070    0.83030    1.000
    H21      H        0.45040    0.18420    0.71240    1.000
    Nd1      Nd       0.39822    0.93180    0.05460    1.000
    Nd2      Nd       0.62488    0.58231    0.27481    1.000
    O1       O        0.29200    0.65340    0.28700    1.000
    O2       O        0.44670    0.58570    0.23130    1.000
    O3       O        0.34640    0.51070    0.25350    1.000
    O4       O        0.26930    0.64350    0.89330    1.000
    O5       O        0.09790    0.53250    0.95950    1.000
    O6       O        0.06810    0.62070    0.93510    1.000
    O7       O        0.33420    0.84110    0.97960    1.000
    O8       O        0.36230    0.84410    0.15440    1.000
    O9       O        0.05200    0.90250    0.19060    1.000
    O10      O        0.21560    0.93970    0.07210    1.000
    O11      O        0.13310    0.92660    0.91790    1.000
    O12      O        0.04160    0.96060    0.57220    1.000
    O13      O        0.58790    0.05870    0.87080    1.000
    O14      O        0.68900    0.07910    0.73420    1.000
    O15      O        0.51960    0.10070    0.60890    1.000
    O16      O        0.45370    0.96070    0.22790    1.000
    C24      C        0.72110    0.33140    0.99170    1.000
    C25      C        0.70030    0.27230    0.98540    1.000
    H22      H        0.69840    0.25440    0.91870    1.000
    C26      C        0.68370    0.24390    0.07720    1.000
    C27      C        0.68830    0.26910    0.17690    1.000
    H23      H        0.67800    0.24840    0.23960    1.000
    C28      C        0.70870    0.32650    0.18350    1.000
    C29      C        0.72690    0.35740    0.08870    1.000
    H24      H        0.74270    0.39500    0.09270    1.000
    C30      C        0.76360    0.41340    0.88970    1.000
    H25      H        0.71560    0.43620    0.93240    1.000
    C31      C        0.87310    0.41960    0.93370    1.000
    C32      C        0.75880    0.43060    0.77390    1.000
    H26      H        0.80980    0.41030    0.73310    1.000
    H27      H        0.77300    0.46960    0.76840    1.000
    H28      H        0.69070    0.42300    0.74560    1.000
    C33      C        0.72360    0.40490    0.30530    1.000
    H29      H        0.78840    0.41650    0.27010    1.000
    C34      C        0.63350    0.43760    0.25770    1.000
    C35      C        0.73260    0.41430    0.42390    1.000
    H30      H        0.67210    0.39960    0.45960    1.000
    H31      H        0.73780    0.45330    0.43810    1.000
    H32      H        0.79370    0.39580    0.45070    1.000
    C36      C        0.66020    0.18210    0.06970    1.000
    C37      C        0.97370    0.04820    0.23610    1.000
    C38      C        0.97240    0.04720    0.34960    1.000
    H33      H        0.95290    0.07880    0.38790    1.000
    C39      C        0.94950    0.10420    0.07600    1.000
    H34      H        0.01500    0.08890    0.04840    1.000
    C40      C        0.85880    0.07510    0.01740    1.000
    C41      C        0.94920    0.16650    0.05490    1.000
    H35      H        0.88440    0.18200    0.07910    1.000
    H36      H        0.95730    0.17320    0.97880    1.000
    H37      H        0.00560    0.18340    0.09360    1.000
    C42      C        0.48720    0.95000    0.45280    1.000
    H38      H        0.47880    0.91650    0.41640    1.000
    C43      C        0.48750    0.95260    0.56240    1.000
    C44      C        0.48960    0.89490    0.72570    1.000
    H39      H        0.55310    0.91380    0.74980    1.000
    C45      C        0.39460    0.92170    0.77950    1.000
    C46      C        0.49600    0.83320    0.75470    1.000
    H40      H        0.43040    0.81570    0.73980    1.000
    H41      H        0.51210    0.82930    0.83030    1.000
    H42      H        0.54960    0.81580    0.71240    1.000
    Nd3      Nd       0.60178    0.06820    0.05460    1.000
    Nd4      Nd       0.37512    0.41769    0.27481    1.000
    O17      O        0.70800    0.34660    0.28700    1.000
    O18      O        0.55330    0.41430    0.23130    1.000
    O19      O        0.65360    0.48930    0.25350    1.000
    O20      O        0.73070    0.35650    0.89330    1.000
    O21      O        0.90210    0.46750    0.95950    1.000
    O22      O        0.93190    0.37930    0.93510    1.000
    O23      O        0.66580    0.15890    0.97960    1.000
    O24      O        0.63770    0.15590    0.15440    1.000
    O25      O        0.94800    0.09750    0.19060    1.000
    O26      O        0.78440    0.06030    0.07210    1.000
    O27      O        0.86690    0.07340    0.91790    1.000
    O28      O        0.95840    0.03940    0.57220    1.000
    O29      O        0.41210    0.94130    0.87080    1.000
    O30      O        0.31100    0.92090    0.73420    1.000
    O31      O        0.48040    0.89930    0.60890    1.000
    O32      O        0.54630    0.03930    0.22790    1.000
    C47      C        0.22110    0.16860    0.00830    1.000
    C48      C        0.20030    0.22770    0.01460    1.000
    H43      H        0.19840    0.24560    0.08130    1.000
    C49      C        0.18370    0.25610    0.92280    1.000
    C50      C        0.18830    0.23090    0.82310    1.000
    H44      H        0.17800    0.25160    0.76040    1.000
    C51      C        0.20870    0.17350    0.81650    1.000
    C52      C        0.22690    0.14260    0.91130    1.000
    H45      H        0.24270    0.10500    0.90730    1.000
    C53      C        0.26360    0.08660    0.11030    1.000
    H46      H        0.21560    0.06380    0.06760    1.000
    C54      C        0.37310    0.08040    0.06630    1.000
    C55      C        0.25880    0.06940    0.22610    1.000
    H47      H        0.30980    0.08970    0.26690    1.000
    H48      H        0.27300    0.03040    0.23160    1.000
    H49      H        0.19070    0.07700    0.25440    1.000
    C56      C        0.22360    0.09510    0.69470    1.000
    H50      H        0.28840    0.08350    0.72990    1.000
    C57      C        0.13350    0.06240    0.74230    1.000
    C58      C        0.23260    0.08570    0.57610    1.000
    H51      H        0.17210    0.10040    0.54040    1.000
    H52      H        0.23780    0.04670    0.56190    1.000
    H53      H        0.29370    0.10420    0.54930    1.000
    C59      C        0.16020    0.31790    0.93030    1.000
    C60      C        0.47370    0.45180    0.76390    1.000
    C61      C        0.47240    0.45280    0.65040    1.000
    H54      H        0.45290    0.42120    0.61210    1.000
    C62      C        0.44950    0.39580    0.92400    1.000
    H55      H        0.51500    0.41110    0.95160    1.000
    C63      C        0.35880    0.42490    0.98260    1.000
    C64      C        0.44920    0.33350    0.94510    1.000
    H56      H        0.38440    0.31800    0.92090    1.000
    H57      H        0.45730    0.32680    0.02120    1.000
    H58      H        0.50560    0.31660    0.90640    1.000
    C65      C        0.98720    0.55000    0.54720    1.000
    H59      H        0.97880    0.58350    0.58360    1.000
    C66      C        0.98750    0.54740    0.43760    1.000
    C67      C        0.98960    0.60510    0.27430    1.000
    H60      H        0.05310    0.58620    0.25020    1.000
    C68      C        0.89460    0.57830    0.22050    1.000
    C69      C        0.99600    0.66680    0.24530    1.000
    H61      H        0.93040    0.68430    0.26020    1.000
    H62      H        0.01210    0.67070    0.16970    1.000
    H63      H        0.04960    0.68420    0.28760    1.000
    Nd5      Nd       0.10178    0.43180    0.94540    1.000
    Nd6      Nd       0.87512    0.08231    0.72519    1.000
    O33      O        0.20800    0.15340    0.71300    1.000
    O34      O        0.05330    0.08570    0.76870    1.000
    O35      O        0.15360    0.01070    0.74650    1.000
    O36      O        0.23070    0.14350    0.10670    1.000
    O37      O        0.40210    0.03250    0.04050    1.000
    O38      O        0.43190    0.12070    0.06490    1.000
    O39      O        0.16580    0.34110    0.02040    1.000
    O40      O        0.13770    0.34410    0.84560    1.000
    O41      O        0.44800    0.40250    0.80940    1.000
    O42      O        0.28440    0.43970    0.92790    1.000
    O43      O        0.36690    0.42660    0.08210    1.000
    O44      O        0.45840    0.46060    0.42780    1.000
    O45      O        0.91210    0.55870    0.12920    1.000
    O46      O        0.81100    0.57910    0.26580    1.000
    O47      O        0.98040    0.60070    0.39110    1.000
    O48      O        0.04630    0.46070    0.77210    1.000
    C70      C        0.77890    0.83140    0.00830    1.000
    C71      C        0.79970    0.77230    0.01460    1.000
    H64      H        0.80160    0.75440    0.08130    1.000
    C72      C        0.81630    0.74390    0.92280    1.000
    C73      C        0.81170    0.76910    0.82310    1.000
    H65      H        0.82200    0.74840    0.76040    1.000
    C74      C        0.79130    0.82650    0.81650    1.000
    C75      C        0.77310    0.85740    0.91130    1.000
    H66      H        0.75730    0.89500    0.90730    1.000
    C76      C        0.73640    0.91340    0.11030    1.000
    H67      H        0.78440    0.93620    0.06760    1.000
    C77      C        0.62690    0.91960    0.06630    1.000
    C78      C        0.74120    0.93060    0.22610    1.000
    H68      H        0.69020    0.91030    0.26690    1.000
    H69      H        0.72700    0.96960    0.23160    1.000
    H70      H        0.80930    0.92300    0.25440    1.000
    C79      C        0.77640    0.90490    0.69470    1.000
    H71      H        0.71160    0.91650    0.72990    1.000
    C80      C        0.86650    0.93760    0.74230    1.000
    C81      C        0.76740    0.91430    0.57610    1.000
    H72      H        0.82790    0.89960    0.54040    1.000
    H73      H        0.76220    0.95330    0.56190    1.000
    H74      H        0.70630    0.89580    0.54930    1.000
    C82      C        0.83980    0.68210    0.93030    1.000
    C83      C        0.52630    0.54820    0.76390    1.000
    C84      C        0.52760    0.54720    0.65040    1.000
    H75      H        0.54710    0.57880    0.61210    1.000
    C85      C        0.55050    0.60420    0.92400    1.000
    H76      H        0.48500    0.58890    0.95160    1.000
    C86      C        0.64120    0.57510    0.98260    1.000
    C87      C        0.55080    0.66650    0.94510    1.000
    H77      H        0.61560    0.68200    0.92090    1.000
    H78      H        0.54270    0.67320    0.02120    1.000
    H79      H        0.49440    0.68340    0.90640    1.000
    C88      C        0.01280    0.45000    0.54720    1.000
    H80      H        0.02120    0.41650    0.58360    1.000
    C89      C        0.01250    0.45260    0.43760    1.000
    C90      C        0.01040    0.39490    0.27430    1.000
    H81      H        0.94690    0.41380    0.25020    1.000
    C91      C        0.10540    0.42170    0.22050    1.000
    C92      C        0.00400    0.33320    0.24530    1.000
    H82      H        0.06960    0.31570    0.26020    1.000
    H83      H        0.98790    0.32930    0.16970    1.000
    H84      H        0.95040    0.31580    0.28760    1.000
    Nd7      Nd       0.89822    0.56820    0.94540    1.000
    Nd8      Nd       0.12488    0.91769    0.72519    1.000
    O49      O        0.79200    0.84660    0.71300    1.000
    O50      O        0.94670    0.91430    0.76870    1.000
    O51      O        0.84640    0.98930    0.74650    1.000
    O52      O        0.76930    0.85650    0.10670    1.000
    O53      O        0.59790    0.96750    0.04050    1.000
    O54      O        0.56810    0.87930    0.06490    1.000
    O55      O        0.83420    0.65890    0.02040    1.000
    O56      O        0.86230    0.65590    0.84560    1.000
    O57      O        0.55200    0.59750    0.80940    1.000
    O58      O        0.71560    0.56030    0.92790    1.000
    O59      O        0.63310    0.57340    0.08210    1.000
    O60      O        0.54160    0.53940    0.42780    1.000
    O61      O        0.08790    0.44130    0.12920    1.000
    O62      O        0.18900    0.42090    0.26580    1.000
    O63      O        0.01960    0.39930    0.39110    1.000
    O64      O        0.95370    0.53930    0.77210    1.000
    C93      C        0.00000    0.00000    0.17740    1.000
    H85      H        0.00000    0.00000    0.10210    1.000
    C94      C        0.00000    0.00000    0.40440    1.000
    C95      C        0.00000    0.00000    0.52570    1.000
    C96      C        0.50000    0.50000    0.82260    1.000
    H86      H        0.50000    0.50000    0.89790    1.000
    C97      C        0.50000    0.50000    0.59560    1.000
    C98      C        0.50000    0.50000    0.47430    1.000
    C99      C        0.50000    0.00000    0.39680    1.000
    C100     C        0.50000    0.00000    0.62090    1.000
    H87      H        0.50000    0.00000    0.69620    1.000
    C101     C        0.50000    0.00000    0.27360    1.000
    C102     C        0.00000    0.50000    0.60320    1.000
    C103     C        0.00000    0.50000    0.37910    1.000
    H88      H        0.00000    0.50000    0.30380    1.000
    C104     C        0.00000    0.50000    0.72640    1.000
