# CIF file generated by openbabel 3.1.0, see https://openbabel.org
data_I
_chemical_name_common 'ZIDNEH_clean'
_cell_length_a 21.5588
_cell_length_b 23.597
_cell_length_c 43.755
_cell_angle_alpha 92.3438
_cell_angle_beta 90
_cell_angle_gamma 117.182
_space_group_name_H-M_alt 'P 1'
_space_group_name_Hall 'P 1'
loop_
    _symmetry_equiv_pos_as_xyz
    x,y,z
loop_
    _atom_site_label
    _atom_site_type_symbol
    _atom_site_fract_x
    _atom_site_fract_y
    _atom_site_fract_z
    _atom_site_occupancy
    In1      In       0.34434    0.58502    0.49501    1.000
    In2      In       0.28075    0.07960    0.74405    1.000
    In3      In       0.24068    0.58502    0.99501    1.000
    In4      In       0.79885    0.07960    0.24405    1.000
    H1       H        0.27650    0.86980    0.77350    1.000
    H2       H        0.21400    0.75140    0.58420    1.000
    H3       H        0.22900    0.68080    0.54940    1.000
    H4       H        0.43150    0.75340    0.57670    1.000
    H5       H        0.41650    0.82400    0.61140    1.000
    H6       H        0.37680    0.30600    0.81930    1.000
    H7       H        0.36780    0.37760    0.85540    1.000
    H8       H        0.16640    0.25140    0.86920    1.000
    H9       H        0.17530    0.17980    0.83310    1.000
    H10      H        0.36170    0.40820    0.90370    1.000
    H11      H        0.35450    0.48260    0.93870    1.000
    H12      H        0.15050    0.41720    0.91540    1.000
    H13      H        0.15760    0.34260    0.88050    1.000
    H14      H        0.30580    0.29960    0.71500    1.000
    H15      H        0.29360    0.30060    0.77160    1.000
    H16      H        0.30350    0.02580    0.63090    1.000
    H17      H        0.41940    0.29680    0.67180    1.000
    H18      H        0.42610    0.36460    0.63300    1.000
    H19      H        0.22020    0.25620    0.61360    1.000
    H20      H        0.21340    0.18840    0.65250    1.000
    H21      H        0.35210    0.90560    0.87440    1.000
    H22      H        0.35880    0.97520    0.83660    1.000
    H23      H        0.15100    0.87220    0.81960    1.000
    H24      H        0.14430    0.80260    0.85750    1.000
    H25      H        0.27730    0.86460    0.71540    1.000
    H26      H        0.26250    0.13320    0.85840    1.000
    H27      H        0.30610    0.13260    0.62970    1.000
    H28      H        0.40250    0.91300    0.61950    1.000
    H29      H        0.39110    0.98480    0.65470    1.000
    H30      H        0.19160    0.85500    0.66950    1.000
    H31      H        0.20290    0.78320    0.63420    1.000
    H32      H        0.33210    0.73860    0.92300    1.000
    H33      H        0.13250    0.69980    0.94080    1.000
    H34      H        0.13830    0.77320    0.90520    1.000
    H35      H        0.33800    0.81220    0.88740    1.000
    H36      H        0.44000    0.40300    0.59050    1.000
    H37      H        0.23100    0.34060    0.59250    1.000
    H38      H        0.24020    0.41320    0.55580    1.000
    H39      H        0.44930    0.47560    0.55380    1.000
    H40      H        0.25800    0.02920    0.85800    1.000
    H41      H        0.59330    0.86980    0.27350    1.000
    H42      H        0.53740    0.75140    0.08420    1.000
    H43      H        0.45180    0.68080    0.04940    1.000
    H44      H        0.32190    0.75340    0.07670    1.000
    H45      H        0.40750    0.82400    0.11140    1.000
    H46      H        0.92920    0.30600    0.31930    1.000
    H47      H        0.00980    0.37760    0.35540    1.000
    H48      H        0.08500    0.25140    0.36920    1.000
    H49      H        0.00450    0.17980    0.33310    1.000
    H50      H        0.04650    0.40820    0.40370    1.000
    H51      H        0.12810    0.48260    0.43870    1.000
    H52      H        0.26670    0.41720    0.41540    1.000
    H53      H        0.18500    0.34260    0.38050    1.000
    H54      H        0.99380    0.29960    0.21500    1.000
    H55      H        0.00700    0.30060    0.27160    1.000
    H56      H        0.72230    0.02580    0.13090    1.000
    H57      H        0.87740    0.29680    0.17180    1.000
    H58      H        0.93850    0.36460    0.13300    1.000
    H59      H        0.03600    0.25620    0.11360    1.000
    H60      H        0.97500    0.18840    0.15250    1.000
    H61      H        0.55350    0.90560    0.37440    1.000
    H62      H        0.61640    0.97520    0.33660    1.000
    H63      H        0.72120    0.87220    0.31960    1.000
    H64      H        0.65830    0.80260    0.35750    1.000
    H65      H        0.58730    0.86460    0.21540    1.000
    H66      H        0.87070    0.13320    0.35840    1.000
    H67      H        0.82650    0.13260    0.12970    1.000
    H68      H        0.51050    0.91300    0.11950    1.000
    H69      H        0.59370    0.98480    0.15470    1.000
    H70      H        0.66340    0.85500    0.16950    1.000
    H71      H        0.58030    0.78320    0.13420    1.000
    H72      H        0.40650    0.73860    0.42300    1.000
    H73      H        0.56730    0.69980    0.44080    1.000
    H74      H        0.63490    0.77320    0.40520    1.000
    H75      H        0.47420    0.81220    0.38740    1.000
    H76      H        0.96300    0.40300    0.09050    1.000
    H77      H        0.10960    0.34060    0.09250    1.000
    H78      H        0.17300    0.41320    0.05580    1.000
    H79      H        0.02630    0.47560    0.05380    1.000
    H80      H        0.77120    0.02920    0.35800    1.000
    C1       C        0.22900    0.66860    0.96040    1.000
    C2       C        0.26160    0.95240    0.77100    1.000
    C3       C        0.35020    0.50200    0.53070    1.000
    C4       C        0.27230    0.89920    0.76050    1.000
    C5       C        0.28740    0.20640    0.76860    1.000
    C6       C        0.25880    0.02860    0.80970    1.000
    C7       C        0.28090    0.19120    0.79940    1.000
    C8       C        0.25810    0.75180    0.58270    1.000
    C9       C        0.26702    0.70984    0.56202    1.000
    C10      C        0.33163    0.71046    0.55979    1.000
    C11      C        0.38730    0.75300    0.57820    1.000
    C12      C        0.37850    0.79500    0.59885    1.000
    C13      C        0.31390    0.79440    0.60108    1.000
    C14      C        0.27080    0.12980    0.80940    1.000
    C15      C        0.27680    0.23600    0.82277    1.000
    C16      C        0.33400    0.29480    0.82940    1.000
    C17      C        0.32870    0.33740    0.85090    1.000
    C18      C        0.26630    0.32120    0.86572    1.000
    C19      C        0.20900    0.26240    0.85910    1.000
    C20      C        0.21435    0.21990    0.83760    1.000
    C21      C        0.26030    0.36840    0.88880    1.000
    C22      C        0.31880    0.41000    0.90610    1.000
    C23      C        0.31460    0.45420    0.92680    1.000
    C24      C        0.25180    0.45680    0.93030    1.000
    C25      C        0.19340    0.41540    0.91310    1.000
    C26      C        0.19750    0.37100    0.89230    1.000
    C27      C        0.30100    0.26660    0.72800    1.000
    C28      C        0.30010    0.03260    0.68040    1.000
    C29      C        0.34450    0.66660    0.53620    1.000
    C30      C        0.29410    0.26720    0.75890    1.000
    C31      C        0.30260    0.05080    0.64830    1.000
    C32      C        0.25850    0.97360    0.79980    1.000
    C33      C        0.30040    0.12740    0.67790    1.000
    C34      C        0.31580    0.23620    0.66580    1.000
    C35      C        0.37900    0.28860    0.66000    1.000
    C36      C        0.38290    0.32880    0.63690    1.000
    C37      C        0.32380    0.31680    0.61960    1.000
    C38      C        0.26060    0.26440    0.62540    1.000
    C39      C        0.25660    0.22420    0.64850    1.000
    C40      C        0.30380    0.18480    0.68890    1.000
    C41      C        0.27560    0.95680    0.72120    1.000
    C42      C        0.24750    0.84740    0.86950    1.000
    C43      C        0.31130    0.89880    0.86330    1.000
    C44      C        0.31520    0.94000    0.84080    1.000
    C45      C        0.25550    0.93020    0.82450    1.000
    C46      C        0.19180    0.87900    0.83070    1.000
    C47      C        0.18790    0.83760    0.85320    1.000
    C48      C        0.27550    0.89660    0.72870    1.000
    C49      C        0.29990    0.20540    0.71820    1.000
    C50      C        0.26390    0.10920    0.84070    1.000
    C51      C        0.30370    0.10940    0.64730    1.000
    C52      C        0.30380    0.84140    0.62353    1.000
    C53      C        0.35960    0.90120    0.62960    1.000
    C54      C        0.35291    0.94382    0.65060    1.000
    C55      C        0.29020    0.92660    0.66544    1.000
    C56      C        0.23440    0.86680    0.65930    1.000
    C57      C        0.24115    0.82410    0.63840    1.000
    C58      C        0.28280    0.97060    0.68950    1.000
    C59      C        0.29270    0.74560    0.91940    1.000
    C60      C        0.23180    0.71240    0.93520    1.000
    C61      C        0.17420    0.72260    0.92990    1.000
    C62      C        0.17760    0.76620    0.90880    1.000
    C63      C        0.23870    0.79960    0.89290    1.000
    C64      C        0.29630    0.78940    0.89820    1.000
    C65      C        0.39950    0.40500    0.58350    1.000
    C66      C        0.33470    0.36500    0.59500    1.000
    C67      C        0.27530    0.36800    0.58470    1.000
    C68      C        0.28080    0.41120    0.56290    1.000
    C69      C        0.34560    0.45120    0.55140    1.000
    C70      C        0.40500    0.44820    0.56170    1.000
    C71      C        0.25990    0.05180    0.84030    1.000
    C72      C        0.24700    0.50480    0.95230    1.000
    C73      C        0.43960    0.66860    0.46040    1.000
    C74      C        0.69080    0.95240    0.27100    1.000
    C75      C        0.15180    0.50200    0.03070    1.000
    C76      C        0.62690    0.89920    0.26050    1.000
    C77      C        0.91900    0.20640    0.26860    1.000
    C78      C        0.76980    0.02860    0.30970    1.000
    C79      C        0.91030    0.19120    0.29940    1.000
    C80      C        0.49370    0.75180    0.08270    1.000
    C81      C        0.44282    0.70984    0.06202    1.000
    C82      C        0.37883    0.71046    0.05979    1.000
    C83      C        0.36570    0.75300    0.07820    1.000
    C84      C        0.41650    0.79500    0.09885    1.000
    C85      C        0.48050    0.79440    0.10108    1.000
    C86      C        0.85900    0.12980    0.30940    1.000
    C87      C        0.95920    0.23600    0.32277    1.000
    C88      C        0.96080    0.29480    0.32940    1.000
    C89      C        0.00870    0.33740    0.35090    1.000
    C90      C        0.05490    0.32120    0.36572    1.000
    C91      C        0.05340    0.26240    0.35910    1.000
    C92      C        0.00555    0.21990    0.33760    1.000
    C93      C        0.10810    0.36840    0.38880    1.000
    C94      C        0.09120    0.41000    0.40610    1.000
    C95      C        0.13960    0.45420    0.42680    1.000
    C96      C        0.20500    0.45680    0.43030    1.000
    C97      C        0.22200    0.41540    0.41310    1.000
    C98      C        0.17350    0.37100    0.39230    1.000
    C99      C        0.96560    0.26660    0.22800    1.000
    C100     C        0.73250    0.03260    0.18040    1.000
    C101     C        0.32210    0.66660    0.03620    1.000
    C102     C        0.97310    0.26720    0.25890    1.000
    C103     C        0.74820    0.05080    0.14830    1.000
    C104     C        0.71510    0.97360    0.29980    1.000
    C105     C        0.82700    0.12740    0.17790    1.000
    C106     C        0.92040    0.23620    0.16580    1.000
    C107     C        0.90960    0.28860    0.16000    1.000
    C108     C        0.94590    0.32880    0.13690    1.000
    C109     C        0.99300    0.31680    0.11960    1.000
    C110     C        0.00380    0.26440    0.12540    1.000
    C111     C        0.96760    0.22420    0.14850    1.000
    C112     C        0.88100    0.18480    0.18890    1.000
    C113     C        0.68120    0.95680    0.22120    1.000
    C114     C        0.59990    0.84740    0.36950    1.000
    C115     C        0.58750    0.89880    0.36330    1.000
    C116     C        0.62480    0.94000    0.34080    1.000
    C117     C        0.67470    0.93020    0.32450    1.000
    C118     C        0.68720    0.87900    0.33070    1.000
    C119     C        0.64970    0.83760    0.35320    1.000
    C120     C        0.62110    0.89660    0.22870    1.000
    C121     C        0.90550    0.20540    0.21820    1.000
    C122     C        0.84530    0.10920    0.34070    1.000
    C123     C        0.80570    0.10940    0.14730    1.000
    C124     C        0.53760    0.84140    0.12353    1.000
    C125     C        0.54160    0.90120    0.12960    1.000
    C126     C        0.59091    0.94382    0.15060    1.000
    C127     C        0.63640    0.92660    0.16544    1.000
    C128     C        0.63240    0.86680    0.15930    1.000
    C129     C        0.58295    0.82410    0.13840    1.000
    C130     C        0.68780    0.97060    0.18950    1.000
    C131     C        0.45290    0.74560    0.41940    1.000
    C132     C        0.48060    0.71240    0.43520    1.000
    C133     C        0.54840    0.72260    0.42990    1.000
    C134     C        0.58860    0.76620    0.40880    1.000
    C135     C        0.56090    0.79960    0.39290    1.000
    C136     C        0.49310    0.78940    0.39820    1.000
    C137     C        0.00550    0.40500    0.08350    1.000
    C138     C        0.03030    0.36500    0.09500    1.000
    C139     C        0.09270    0.36800    0.08470    1.000
    C140     C        0.13040    0.41120    0.06290    1.000
    C141     C        0.10560    0.45120    0.05140    1.000
    C142     C        0.04320    0.44820    0.06170    1.000
    C143     C        0.79190    0.05180    0.34030    1.000
    C144     C        0.25780    0.50480    0.45230    1.000
    N1       N        0.26790    0.07500    0.79050    1.000
    N2       N        0.29390    0.08000    0.69690    1.000
    N3       N        0.29200    0.17120    0.74420    1.000
    N4       N        0.26660    0.98820    0.74340    1.000
    N5       N        0.80710    0.07500    0.29050    1.000
    N6       N        0.78610    0.08000    0.19690    1.000
    N7       N        0.87920    0.17120    0.24420    1.000
    N8       N        0.72160    0.98820    0.24340    1.000
    O1       O        0.18740    0.50600    0.95580    1.000
    O2       O        0.28220    0.65740    0.96030    1.000
    O3       O        0.39770    0.66420    0.53390    1.000
    O4       O        0.29870    0.50780    0.52670    1.000
    O5       O        0.17680    0.63800    0.97400    1.000
    O6       O        0.29110    0.63100    0.51890    1.000
    O7       O        0.40220    0.53780    0.52040    1.000
    O8       O        0.30090    0.54060    0.96770    1.000
    O9       O        0.31860    0.50600    0.45580    1.000
    O10      O        0.37520    0.65740    0.46030    1.000
    O11      O        0.26650    0.66420    0.03390    1.000
    O12      O        0.20910    0.50780    0.02670    1.000
    O13      O        0.46120    0.63800    0.47400    1.000
    O14      O        0.33990    0.63100    0.01890    1.000
    O15      O        0.13560    0.53780    0.02040    1.000
    O16      O        0.23970    0.54060    0.46770    1.000
    In5      In       0.08634    0.08518    0.36953    1.000
    In6      In       0.03990    0.58528    0.61840    1.000
    In7      In       0.99884    0.08518    0.86953    1.000
    In8      In       0.54538    0.58528    0.11840    1.000
    H81      H        0.00380    0.67900    0.51030    1.000
    H82      H        0.01490    0.75140    0.47320    1.000
    H83      H        0.17240    0.89220    0.52320    1.000
    H84      H        0.16120    0.81960    0.56030    1.000
    H85      H        0.05480    0.38060    0.64940    1.000
    H86      H        0.07500    0.38360    0.59340    1.000
    H87      H        0.18450    0.24740    0.45040    1.000
    H88      H        0.18220    0.32340    0.48580    1.000
    H89      H        0.98350    0.27500    0.45920    1.000
    H90      H        0.98590    0.19920    0.42380    1.000
    H91      H        0.04070    0.80140    0.64430    1.000
    H92      H        0.10390    0.54640    0.50620    1.000
    H93      H        0.11770    0.65680    0.50840    1.000
    H94      H        0.91280    0.83880    0.76070    1.000
    H95      H        0.12310    0.92200    0.77140    1.000
    H96      H        0.11850    0.99780    0.80620    1.000
    H97      H        0.90820    0.91460    0.79550    1.000
    H98      H        0.19660    0.91760    0.46650    1.000
    H99      H        0.19680    0.99000    0.43150    1.000
    H100     H        0.98560    0.90660    0.43220    1.000
    H101     H        0.98540    0.83420    0.46730    1.000
    H102     H        0.18130    0.41700    0.49590    1.000
    H103     H        0.17740    0.49240    0.53140    1.000
    H104     H        0.97200    0.37680    0.54380    1.000
    H105     H        0.97600    0.30160    0.50840    1.000
    H106     H        0.92850    0.29380    0.72060    1.000
    H107     H        0.93780    0.36660    0.68400    1.000
    H108     H        0.11870    0.49760    0.72430    1.000
    H109     H        0.10950    0.42480    0.76090    1.000
    H110     H        0.05460    0.80340    0.58850    1.000
    H111     H        0.02550    0.64300    0.73290    1.000
    H112     H        0.90860    0.25000    0.76180    1.000
    H113     H        0.90080    0.17460    0.79670    1.000
    H114     H        0.11070    0.26640    0.80960    1.000
    H115     H        0.11850    0.34180    0.77470    1.000
    H116     H        0.93030    0.73120    0.68230    1.000
    H117     H        0.92580    0.80260    0.71990    1.000
    H118     H        0.11290    0.83120    0.75430    1.000
    H119     H        0.11740    0.75980    0.71670    1.000
    H120     H        0.01740    0.53440    0.73230    1.000
    H121     H        0.67520    0.67900    0.01030    1.000
    H122     H        0.73650    0.75140    0.97320    1.000
    H123     H        0.71980    0.89220    0.02320    1.000
    H124     H        0.65840    0.81960    0.06030    1.000
    H125     H        0.32580    0.38060    0.14940    1.000
    H126     H        0.30860    0.38360    0.09340    1.000
    H127     H        0.06290    0.24740    0.95040    1.000
    H128     H        0.14120    0.32340    0.98580    1.000
    H129     H        0.29150    0.27500    0.95920    1.000
    H130     H        0.21330    0.19920    0.92380    1.000
    H131     H        0.76070    0.80140    0.14430    1.000
    H132     H        0.44250    0.54640    0.00620    1.000
    H133     H        0.53910    0.65680    0.00840    1.000
    H134     H        0.92600    0.83880    0.26070    1.000
    H135     H        0.79890    0.92200    0.27140    1.000
    H136     H        0.87930    0.99780    0.30620    1.000
    H137     H        0.00640    0.91460    0.29550    1.000
    H138     H        0.72100    0.91760    0.96650    1.000
    H139     H        0.79320    0.99000    0.93150    1.000
    H140     H        0.92100    0.90660    0.93220    1.000
    H141     H        0.84880    0.83420    0.96730    1.000
    H142     H        0.23570    0.41700    0.99590    1.000
    H143     H        0.31500    0.49240    0.03140    1.000
    H144     H        0.40480    0.37680    0.04380    1.000
    H145     H        0.32560    0.30160    0.00840    1.000
    H146     H        0.36530    0.29380    0.22060    1.000
    H147     H        0.42880    0.36660    0.18400    1.000
    H148     H        0.37890    0.49760    0.22430    1.000
    H149     H        0.31530    0.42480    0.26090    1.000
    H150     H        0.74880    0.80340    0.08850    1.000
    H151     H        0.61750    0.64300    0.23290    1.000
    H152     H        0.34140    0.25000    0.26180    1.000
    H153     H        0.27380    0.17460    0.29670    1.000
    H154     H        0.15570    0.26640    0.30960    1.000
    H155     H        0.22330    0.34180    0.27470    1.000
    H156     H        0.80090    0.73120    0.18230    1.000
    H157     H        0.87680    0.80260    0.21990    1.000
    H158     H        0.71830    0.83120    0.25430    1.000
    H159     H        0.64240    0.75980    0.21670    1.000
    H160     H        0.51700    0.53440    0.23230    1.000
    C145     C        0.07820    0.54620    0.55430    1.000
    C146     C        0.03070    0.54000    0.68480    1.000
    C147     C        0.08155    0.74250    0.53879    1.000
    C148     C        0.03802    0.72224    0.51290    1.000
    C149     C        0.04470    0.76540    0.49091    1.000
    C150     C        0.09460    0.82860    0.49472    1.000
    C151     C        0.13816    0.84892    0.52060    1.000
    C152     C        0.13150    0.80580    0.54260    1.000
    C153     C        0.07740    0.63960    0.55310    1.000
    C154     C        0.01480    0.00940    0.82790    1.000
    C155     C        0.07550    0.69760    0.56310    1.000
    C156     C        0.05810    0.46620    0.59490    1.000
    C157     C        0.05640    0.41220    0.63620    1.000
    C158     C        0.06540    0.41280    0.60550    1.000
    C159     C        0.05980    0.71520    0.59290    1.000
    C160     C        0.04960    0.46820    0.64510    1.000
    C161     C        0.14370    0.25300    0.45220    1.000
    C162     C        0.14240    0.29820    0.47320    1.000
    C163     C        0.08270    0.30640    0.47587    1.000
    C164     C        0.02430    0.26940    0.45740    1.000
    C165     C        0.02570    0.22440    0.43637    1.000
    C166     C        0.08537    0.21614    0.43373    1.000
    C167     C        0.04520    0.76960    0.63180    1.000
    C168     C        0.06780    0.48760    0.56470    1.000
    C169     C        0.04440    0.71240    0.64290    1.000
    C170     C        0.09670    0.56860    0.52330    1.000
    C171     C        0.10120    0.62780    0.52440    1.000
    C172     C        0.95450    0.87100    0.76990    1.000
    C173     C        0.01840    0.87320    0.76280    1.000
    C174     C        0.07950    0.92060    0.77630    1.000
    C175     C        0.07680    0.96560    0.79690    1.000
    C176     C        0.01290    0.96340    0.80410    1.000
    C177     C        0.95180    0.91620    0.79060    1.000
    C178     C        0.09090    0.86900    0.47019    1.000
    C179     C        0.15380    0.91540    0.45960    1.000
    C180     C        0.15386    0.95832    0.43870    1.000
    C181     C        0.09120    0.95500    0.42856    1.000
    C182     C        0.02840    0.90880    0.43920    1.000
    C183     C        0.02830    0.86580    0.46000    1.000
    C184     C        0.03690    0.63700    0.68470    1.000
    C185     C        0.03180    0.48320    0.67620    1.000
    C186     C        0.07902    0.35224    0.49884    1.000
    C187     C        0.13890    0.40900    0.50566    1.000
    C188     C        0.13650    0.45360    0.52671    1.000
    C189     C        0.07431    0.44162    0.54093    1.000
    C190     C        0.01450    0.38500    0.53411    1.000
    C191     C        0.01683    0.34026    0.51310    1.000
    C192     C        0.96705    0.33510    0.72130    1.000
    C193     C        0.97260    0.37840    0.69958    1.000
    C194     C        0.02910    0.43900    0.70067    1.000
    C195     C        0.08010    0.45620    0.72350    1.000
    C196     C        0.07460    0.41300    0.74528    1.000
    C197     C        0.01810    0.35240    0.74420    1.000
    C198     C        0.05330    0.77160    0.60150    1.000
    C199     C        0.03170    0.69200    0.67440    1.000
    C200     C        0.02810    0.61880    0.71550    1.000
    C201     C        0.01430    0.30300    0.76493    1.000
    C202     C        0.94970    0.25340    0.77150    1.000
    C203     C        0.94500    0.20860    0.79220    1.000
    C204     C        0.00500    0.21340    0.80641    1.000
    C205     C        0.06970    0.26320    0.79990    1.000
    C206     C        0.07430    0.30780    0.77910    1.000
    C207     C        0.02430    0.73880    0.69600    1.000
    C208     C        0.96740    0.75140    0.69690    1.000
    C209     C        0.96470    0.79380    0.71920    1.000
    C210     C        0.01890    0.82360    0.74062    1.000
    C211     C        0.07580    0.81080    0.73970    1.000
    C212     C        0.07850    0.76840    0.71740    1.000
    C213     C        0.02390    0.55920    0.71490    1.000
    C214     C        0.00060    0.16600    0.83070    1.000
    C215     C        0.08660    0.16700    0.41280    1.000
    C216     C        0.08470    0.99980    0.40570    1.000
    C217     C        0.46800    0.54620    0.05430    1.000
    C218     C        0.50930    0.54000    0.18480    1.000
    C219     C        0.66095    0.74250    0.03879    1.000
    C220     C        0.68422    0.72224    0.01290    1.000
    C221     C        0.72070    0.76540    0.99091    1.000
    C222     C        0.73400    0.82860    0.99472    1.000
    C223     C        0.71076    0.84892    0.02060    1.000
    C224     C        0.67430    0.80580    0.04260    1.000
    C225     C        0.56220    0.63960    0.05310    1.000
    C226     C        0.99460    0.00940    0.32790    1.000
    C227     C        0.62210    0.69760    0.06310    1.000
    C228     C        0.40810    0.46620    0.09490    1.000
    C229     C        0.35580    0.41220    0.13620    1.000
    C230     C        0.34740    0.41280    0.10550    1.000
    C231     C        0.65540    0.71520    0.09290    1.000
    C232     C        0.41860    0.46820    0.14510    1.000
    C233     C        0.10930    0.25300    0.95220    1.000
    C234     C        0.15580    0.29820    0.97320    1.000
    C235     C        0.22370    0.30640    0.97587    1.000
    C236     C        0.24510    0.26940    0.95740    1.000
    C237     C        0.19870    0.22440    0.93637    1.000
    C238     C        0.13077    0.21614    0.93373    1.000
    C239     C        0.72440    0.76960    0.13180    1.000
    C240     C        0.41980    0.48760    0.06470    1.000
    C241     C        0.66800    0.71240    0.14290    1.000
    C242     C        0.47190    0.56860    0.02330    1.000
    C243     C        0.52660    0.62780    0.02440    1.000
    C244     C        0.91650    0.87100    0.26990    1.000
    C245     C        0.85480    0.87320    0.26280    1.000
    C246     C        0.84110    0.92060    0.27630    1.000
    C247     C        0.88880    0.96560    0.29690    1.000
    C248     C        0.95050    0.96340    0.30410    1.000
    C249     C        0.96440    0.91620    0.29060    1.000
    C250     C        0.77810    0.86900    0.97019    1.000
    C251     C        0.76160    0.91540    0.95960    1.000
    C252     C        0.80446    0.95832    0.93870    1.000
    C253     C        0.86380    0.95500    0.92856    1.000
    C254     C        0.88040    0.90880    0.93920    1.000
    C255     C        0.83750    0.86580    0.96000    1.000
    C256     C        0.60010    0.63700    0.18470    1.000
    C257     C        0.45140    0.48320    0.17620    1.000
    C258     C        0.27322    0.35224    0.99884    1.000
    C259     C        0.27010    0.40900    0.00566    1.000
    C260     C        0.31710    0.45360    0.02671    1.000
    C261     C        0.36731    0.44162    0.04093    1.000
    C262     C        0.37050    0.38500    0.03411    1.000
    C263     C        0.32343    0.34026    0.01310    1.000
    C264     C        0.36805    0.33510    0.22130    1.000
    C265     C        0.40580    0.37840    0.19958    1.000
    C266     C        0.40990    0.43900    0.20067    1.000
    C267     C        0.37610    0.45620    0.22350    1.000
    C268     C        0.33840    0.41300    0.24528    1.000
    C269     C        0.33430    0.35240    0.24420    1.000
    C270     C        0.71830    0.77160    0.10150    1.000
    C271     C        0.66030    0.69200    0.17440    1.000
    C272     C        0.59070    0.61880    0.21550    1.000
    C273     C        0.28870    0.30300    0.26493    1.000
    C274     C        0.30370    0.25340    0.27150    1.000
    C275     C        0.26360    0.20860    0.29220    1.000
    C276     C        0.20840    0.21340    0.30641    1.000
    C277     C        0.19350    0.26320    0.29990    1.000
    C278     C        0.23350    0.30780    0.27910    1.000
    C279     C        0.71450    0.73880    0.19600    1.000
    C280     C        0.78400    0.75140    0.19690    1.000
    C281     C        0.82910    0.79380    0.21920    1.000
    C282     C        0.80470    0.82360    0.24062    1.000
    C283     C        0.73500    0.81080    0.23970    1.000
    C284     C        0.68990    0.76840    0.21740    1.000
    C285     C        0.53530    0.55920    0.21490    1.000
    C286     C        0.16540    0.16600    0.33070    1.000
    C287     C        0.08040    0.16700    0.91280    1.000
    C288     C        0.91510    0.99980    0.90570    1.000
    N9       N        0.05500    0.67800    0.61730    1.000
    N10      N        0.06850    0.58900    0.57090    1.000
    N11      N        0.05080    0.50360    0.61940    1.000
    N12      N        0.04030    0.58920    0.66600    1.000
    N13      N        0.62300    0.67800    0.11730    1.000
    N14      N        0.52050    0.58900    0.07090    1.000
    N15      N        0.45280    0.50360    0.11940    1.000
    N16      N        0.54890    0.58920    0.16600    1.000
    O17      O        0.14150    0.16380    0.40870    1.000
    O18      O        0.03280    0.00480    0.40210    1.000
    O19      O        0.05180    0.16280    0.83770    1.000
    O20      O        0.06570    0.04340    0.84310    1.000
    O21      O        0.03510    0.13240    0.39620    1.000
    O22      O        0.14140    0.03540    0.39240    1.000
    O23      O        0.95740    0.01140    0.83110    1.000
    O24      O        0.93640    0.13160    0.84100    1.000
    O25      O        0.02230    0.16380    0.90870    1.000
    O26      O        0.97200    0.00480    0.90210    1.000
    O27      O        0.11100    0.16280    0.33770    1.000
    O28      O        0.97770    0.04340    0.34310    1.000
    O29      O        0.09730    0.13240    0.89620    1.000
    O30      O        0.89400    0.03540    0.89240    1.000
    O31      O        0.05400    0.01140    0.33110    1.000
    O32      O        0.19520    0.13160    0.34100    1.000
    In9      In       0.77536    0.63896    0.93853    1.000
    In10     In       0.79634    0.13060    0.68796    1.000
    In11     In       0.86360    0.63896    0.43853    1.000
    In12     In       0.33426    0.13060    0.18796    1.000
    H161     H        0.79940    0.34340    0.65930    1.000
    H162     H        0.79350    0.34180    0.71420    1.000
    H163     H        0.78170    0.91420    0.71780    1.000
    H164     H        0.87280    0.90160    0.84700    1.000
    H165     H        0.87350    0.82740    0.88070    1.000
    H166     H        0.66390    0.72480    0.87000    1.000
    H167     H        0.66320    0.79900    0.83630    1.000
    H168     H        0.85010    0.28020    0.79360    1.000
    H169     H        0.84970    0.35540    0.83010    1.000
    H170     H        0.67320    0.34280    0.79090    1.000
    H171     H        0.67380    0.26780    0.75440    1.000
    H172     H        0.73620    0.15980    0.79860    1.000
    H173     H        0.73650    0.05740    0.79920    1.000
    H174     H        0.83580    0.08800    0.57690    1.000
    H175     H        0.68430    0.83040    0.78780    1.000
    H176     H        0.83930    0.97760    0.83570    1.000
    H177     H        0.84380    0.04700    0.79810    1.000
    H178     H        0.68880    0.89980    0.75020    1.000
    H179     H        0.80960    0.17720    0.57170    1.000
    H180     H        0.90290    0.34980    0.62280    1.000
    H181     H        0.91030    0.42160    0.58600    1.000
    H182     H        0.72420    0.29220    0.54930    1.000
    H183     H        0.71670    0.22020    0.58610    1.000
    H184     H        0.87410    0.54080    0.87160    1.000
    H185     H        0.87210    0.46260    0.83640    1.000
    H186     H        0.66100    0.37080    0.83920    1.000
    H187     H        0.66300    0.44900    0.87440    1.000
    H188     H        0.92620    0.93840    0.58270    1.000
    H189     H        0.91500    0.00980    0.61840    1.000
    H190     H        0.71150    0.94100    0.59340    1.000
    H191     H        0.72270    0.86980    0.55780    1.000
    H192     H        0.93020    0.45000    0.54090    1.000
    H193     H        0.94570    0.52820    0.50630    1.000
    H194     H        0.73620    0.46040    0.49890    1.000
    H195     H        0.72070    0.38220    0.53350    1.000
    H196     H        0.76350    0.77720    0.48030    1.000
    H197     H        0.92910    0.78040    0.52560    1.000
    H198     H        0.92290    0.85160    0.56280    1.000
    H199     H        0.75730    0.84840    0.51750    1.000
    H200     H        0.83410    0.93780    0.66790    1.000
    H201     H        0.54400    0.34340    0.15930    1.000
    H202     H        0.54830    0.34180    0.21420    1.000
    H203     H        0.13250    0.91420    0.21780    1.000
    H204     H        0.02880    0.90160    0.34700    1.000
    H205     H        0.95390    0.82740    0.38070    1.000
    H206     H        0.06090    0.72480    0.37000    1.000
    H207     H        0.13580    0.79900    0.33630    1.000
    H208     H        0.43010    0.28020    0.29360    1.000
    H209     H        0.50570    0.35540    0.33010    1.000
    H210     H        0.66960    0.34280    0.29090    1.000
    H211     H        0.59400    0.26780    0.25440    1.000
    H212     H        0.42360    0.15980    0.29860    1.000
    H213     H        0.32090    0.05740    0.29920    1.000
    H214     H        0.25220    0.08800    0.07690    1.000
    H215     H        0.14610    0.83040    0.28780    1.000
    H216     H        0.13830    0.97760    0.33570    1.000
    H217     H        0.20320    0.04700    0.29810    1.000
    H218     H        0.21100    0.89980    0.25020    1.000
    H219     H        0.36760    0.17720    0.07170    1.000
    H220     H        0.44690    0.34980    0.12280    1.000
    H221     H        0.51130    0.42160    0.08600    1.000
    H222     H        0.56800    0.29220    0.04930    1.000
    H223     H        0.50350    0.22020    0.08610    1.000
    H224     H        0.66670    0.54080    0.37160    1.000
    H225     H        0.59050    0.46260    0.33640    1.000
    H226     H        0.70980    0.37080    0.33920    1.000
    H227     H        0.78600    0.44900    0.37440    1.000
    H228     H        0.01220    0.93840    0.08270    1.000
    H229     H        0.09480    0.00980    0.11840    1.000
    H230     H        0.22950    0.94100    0.09340    1.000
    H231     H        0.14710    0.86980    0.05780    1.000
    H232     H        0.51980    0.45000    0.04090    1.000
    H233     H        0.58250    0.52820    0.00630    1.000
    H234     H        0.72420    0.46040    0.99890    1.000
    H235     H        0.66150    0.38220    0.03350    1.000
    H236     H        0.01370    0.77720    0.98030    1.000
    H237     H        0.85130    0.78040    0.02560    1.000
    H238     H        0.92870    0.85160    0.06280    1.000
    H239     H        0.09110    0.84840    0.01750    1.000
    H240     H        0.10370    0.93780    0.16790    1.000
    C289     C        0.77890    0.02580    0.74590    1.000
    C290     C        0.80320    0.17380    0.62080    1.000
    C291     C        0.77090    0.07800    0.75390    1.000
    C292     C        0.76700    0.72160    0.89960    1.000
    C293     C        0.78200    0.00380    0.71490    1.000
    C294     C        0.75940    0.16740    0.75180    1.000
    C295     C        0.79830    0.31080    0.67160    1.000
    C296     C        0.79240    0.30720    0.70200    1.000
    C297     C        0.77130    0.55200    0.90020    1.000
    C298     C        0.79040    0.95020    0.70620    1.000
    C299     C        0.76800    0.85740    0.83850    1.000
    C300     C        0.83040    0.86580    0.85170    1.000
    C301     C        0.83080    0.82160    0.87170    1.000
    C302     C        0.76880    0.76920    0.87850    1.000
    C303     C        0.70620    0.76060    0.86530    1.000
    C304     C        0.70590    0.80480    0.84530    1.000
    C305     C        0.80540    0.01060    0.66270    1.000
    C306     C        0.80500    0.23260    0.63200    1.000
    C307     C        0.80110    0.08040    0.62200    1.000
    C308     C        0.76200    0.26700    0.77060    1.000
    C309     C        0.81430    0.29300    0.79310    1.000
    C310     C        0.81400    0.33760    0.81470    1.000
    C311     C        0.76140    0.35620    0.81390    1.000
    C312     C        0.70920    0.33020    0.79140    1.000
    C313     C        0.70950    0.28560    0.76980    1.000
    C314     C        0.74590    0.13980    0.78130    1.000
    C315     C        0.78470    0.25220    0.71520    1.000
    C316     C        0.74790    0.08500    0.78270    1.000
    C317     C        0.81920    0.10600    0.59270    1.000
    C318     C        0.77010    0.22940    0.74430    1.000
    C319     C        0.71670    0.87440    0.78990    1.000
    C320     C        0.76130    0.89740    0.81530    1.000
    C321     C        0.80870    0.96180    0.81840    1.000
    C322     C        0.81140    0.00300    0.79600    1.000
    C323     C        0.76660    0.97980    0.77060    1.000
    C324     C        0.71930    0.91560    0.76760    1.000
    C325     C        0.81060    0.15680    0.58980    1.000
    C326     C        0.80960    0.03100    0.63310    1.000
    C327     C        0.80910    0.27820    0.60790    1.000
    C328     C        0.86660    0.33800    0.60790    1.000
    C329     C        0.87100    0.38080    0.58610    1.000
    C330     C        0.81790    0.36360    0.56420    1.000
    C331     C        0.76040    0.30380    0.56420    1.000
    C332     C        0.75600    0.26120    0.58610    1.000
    C333     C        0.83080    0.50620    0.86500    1.000
    C334     C        0.82970    0.45980    0.84410    1.000
    C335     C        0.76630    0.40920    0.83450    1.000
    C336     C        0.70430    0.40540    0.84580    1.000
    C337     C        0.70550    0.45180    0.86670    1.000
    C338     C        0.76870    0.50220    0.87630    1.000
    C339     C        0.80250    0.25440    0.66210    1.000
    C340     C        0.82550    0.89740    0.56690    1.000
    C341     C        0.88260    0.93900    0.58490    1.000
    C342     C        0.87600    0.98140    0.60610    1.000
    C343     C        0.81230    0.98220    0.60920    1.000
    C344     C        0.75510    0.94060    0.59120    1.000
    C345     C        0.76180    0.89820    0.57010    1.000
    C346     C        0.82400    0.40880    0.54040    1.000
    C347     C        0.89080    0.45220    0.53240    1.000
    C348     C        0.90000    0.49860    0.51180    1.000
    C349     C        0.84240    0.50160    0.49930    1.000
    C350     C        0.77550    0.45820    0.50740    1.000
    C351     C        0.76630    0.41180    0.52800    1.000
    C352     C        0.85010    0.72460    0.47840    1.000
    C353     C        0.84680    0.55020    0.47700    1.000
    C354     C        0.79590    0.79240    0.49700    1.000
    C355     C        0.84700    0.77220    0.49940    1.000
    C356     C        0.89430    0.79420    0.52390    1.000
    C357     C        0.89050    0.83640    0.54600    1.000
    C358     C        0.83950    0.85660    0.54360    1.000
    C359     C        0.79220    0.83460    0.51910    1.000
    C360     C        0.81340    0.96140    0.67770    1.000
    C361     C        0.24690    0.02580    0.24590    1.000
    C362     C        0.37060    0.17380    0.12080    1.000
    C363     C        0.30710    0.07800    0.25390    1.000
    C364     C        0.95460    0.72160    0.39960    1.000
    C365     C        0.22180    0.00380    0.21490    1.000
    C366     C        0.40800    0.16740    0.25180    1.000
    C367     C        0.51250    0.31080    0.17160    1.000
    C368     C        0.51480    0.30720    0.20200    1.000
    C369     C        0.78070    0.55200    0.40020    1.000
    C370     C        0.15980    0.95020    0.20620    1.000
    C371     C        0.08940    0.85740    0.33850    1.000
    C372     C        0.03540    0.86580    0.35170    1.000
    C373     C        0.99080    0.82160    0.37170    1.000
    C374     C        0.00040    0.76920    0.37850    1.000
    C375     C        0.05440    0.76060    0.36530    1.000
    C376     C        0.09890    0.80480    0.34530    1.000
    C377     C        0.20520    0.01060    0.16270    1.000
    C378     C        0.42760    0.23260    0.13200    1.000
    C379     C        0.27930    0.08040    0.12200    1.000
    C380     C        0.50500    0.26700    0.27060    1.000
    C381     C        0.47870    0.29300    0.29310    1.000
    C382     C        0.52360    0.33760    0.31470    1.000
    C383     C        0.59480    0.35620    0.31390    1.000
    C384     C        0.62100    0.33020    0.29140    1.000
    C385     C        0.57610    0.28560    0.26980    1.000
    C386     C        0.39390    0.13980    0.28130    1.000
    C387     C        0.46750    0.25220    0.21520    1.000
    C388     C        0.33710    0.08500    0.28270    1.000
    C389     C        0.28680    0.10600    0.09270    1.000
    C390     C        0.45930    0.22940    0.24430    1.000
    C391     C        0.15770    0.87440    0.28990    1.000
    C392     C        0.13610    0.89740    0.31530    1.000
    C393     C        0.15310    0.96180    0.31840    1.000
    C394     C        0.19160    0.00300    0.29600    1.000
    C395     C        0.21320    0.97980    0.27060    1.000
    C396     C        0.19630    0.91560    0.26760    1.000
    C397     C        0.34620    0.15680    0.08980    1.000
    C398     C        0.22140    0.03100    0.13310    1.000
    C399     C        0.46910    0.27820    0.10790    1.000
    C400     C        0.47140    0.33800    0.10790    1.000
    C401     C        0.50980    0.38080    0.08610    1.000
    C402     C        0.54570    0.36360    0.06420    1.000
    C403     C        0.54340    0.30380    0.06420    1.000
    C404     C        0.50520    0.26120    0.08610    1.000
    C405     C        0.67540    0.50620    0.36500    1.000
    C406     C        0.63010    0.45980    0.34410    1.000
    C407     C        0.64290    0.40920    0.33450    1.000
    C408     C        0.70110    0.40540    0.34580    1.000
    C409     C        0.74630    0.45180    0.36670    1.000
    C410     C        0.73350    0.50220    0.37630    1.000
    C411     C        0.45190    0.25440    0.16210    1.000
    C412     C        0.07190    0.89740    0.06690    1.000
    C413     C        0.05640    0.93900    0.08490    1.000
    C414     C        0.10540    0.98140    0.10610    1.000
    C415     C        0.16990    0.98220    0.10920    1.000
    C416     C        0.18550    0.94060    0.09120    1.000
    C417     C        0.13640    0.89820    0.07010    1.000
    C418     C        0.58480    0.40880    0.04040    1.000
    C419     C        0.56140    0.45220    0.03240    1.000
    C420     C        0.59860    0.49860    0.01180    1.000
    C421     C        0.65920    0.50160    0.99930    1.000
    C422     C        0.68270    0.45820    0.00740    1.000
    C423     C        0.64550    0.41180    0.02800    1.000
    C424     C        0.87450    0.72460    0.97840    1.000
    C425     C        0.70340    0.55020    0.97700    1.000
    C426     C        0.99650    0.79240    0.99700    1.000
    C427     C        0.92520    0.77220    0.99940    1.000
    C428     C        0.89990    0.79420    0.02390    1.000
    C429     C        0.94590    0.83640    0.04600    1.000
    C430     C        0.01710    0.85660    0.04360    1.000
    C431     C        0.04240    0.83460    0.01910    1.000
    C432     C        0.14800    0.96140    0.17770    1.000
    N17      N        0.77560    0.12300    0.73560    1.000
    N18      N        0.79870    0.12580    0.64050    1.000
    N19      N        0.78860    0.03920    0.68910    1.000
    N20      N        0.79430    0.22200    0.68860    1.000
    N21      N        0.34740    0.12300    0.23560    1.000
    N22      N        0.32710    0.12580    0.14050    1.000
    N23      N        0.25060    0.03920    0.18910    1.000
    N24      N        0.42770    0.22200    0.18860    1.000
    O33      O        0.82870    0.59200    0.91190    1.000
    O34      O        0.82250    0.71700    0.90440    1.000
    O35      O        0.72510    0.69040    0.91840    1.000
    O36      O        0.71500    0.55720    0.90420    1.000
    O37      O        0.89710    0.71060    0.47670    1.000
    O38      O        0.79140    0.55540    0.46940    1.000
    O39      O        0.81220    0.69840    0.45810    1.000
    O40      O        0.90690    0.59320    0.46780    1.000
    O41      O        0.76330    0.59200    0.41190    1.000
    O42      O        0.89450    0.71700    0.40440    1.000
    O43      O        0.96530    0.69040    0.41840    1.000
    O44      O        0.84220    0.55720    0.40420    1.000
    O45      O        0.81350    0.71060    0.97670    1.000
    O46      O        0.76400    0.55540    0.96940    1.000
    O47      O        0.88620    0.69840    0.95810    1.000
    O48      O        0.68630    0.59320    0.96780    1.000
    In13     In       0.53245    0.52134    0.84068    1.000
    In14     In       0.45317    0.00956    0.08868    1.000
    In15     In       0.98889    0.52134    0.34068    1.000
    In16     In       0.55639    0.00956    0.58868    1.000
    H241     H        0.45120    0.11420    0.64760    1.000
    H242     H        0.44690    0.19020    0.68230    1.000
    H243     H        0.65570    0.26580    0.69710    1.000
    H244     H        0.66000    0.18980    0.66230    1.000
    H245     H        0.53540    0.30840    0.81060    1.000
    H246     H        0.53190    0.73020    0.81220    1.000
    H247     H        0.59080    0.83860    0.00250    1.000
    H248     H        0.57620    0.90820    0.03800    1.000
    H249     H        0.37300    0.83540    0.01180    1.000
    H250     H        0.38760    0.76580    0.97630    1.000
    H251     H        0.44620    0.22980    0.72850    1.000
    H252     H        0.44240    0.30440    0.76440    1.000
    H253     H        0.64570    0.42360    0.74920    1.000
    H254     H        0.64930    0.34880    0.71340    1.000
    H255     H        0.56820    0.17240    0.01930    1.000
    H256     H        0.57530    0.24640    0.98370    1.000
    H257     H        0.36640    0.18320    0.98810    1.000
    H258     H        0.35940    0.10940    0.02370    1.000
    H259     H        0.38340    0.21920    0.93860    1.000
    H260     H        0.39780    0.29460    0.90260    1.000
    H261     H        0.58420    0.41580    0.94220    1.000
    H262     H        0.56970    0.34040    0.97820    1.000
    H263     H        0.48410    0.45760    0.95420    1.000
    H264     H        0.50480    0.30080    0.86570    1.000
    H265     H        0.51650    0.57580    0.95530    1.000
    H266     H        0.56750    0.57780    0.72580    1.000
    H267     H        0.46180    0.77680    0.69460    1.000
    H268     H        0.46260    0.84600    0.65760    1.000
    H269     H        0.67060    0.91000    0.64790    1.000
    H270     H        0.66980    0.84080    0.68490    1.000
    H271     H        0.56150    0.47080    0.72570    1.000
    H272     H        0.52940    0.73560    0.86980    1.000
    H273     H        0.66380    0.70200    0.74860    1.000
    H274     H        0.66330    0.76740    0.71000    1.000
    H275     H        0.46780    0.73420    0.73280    1.000
    H276     H        0.46820    0.66860    0.77140    1.000
    H277     H        0.41330    0.60820    0.93030    1.000
    H278     H        0.39940    0.67600    0.96720    1.000
    H279     H        0.60120    0.80620    0.95770    1.000
    H280     H        0.61500    0.73840    0.92080    1.000
    H281     H        0.66300    0.11420    0.14760    1.000
    H282     H        0.74330    0.19020    0.18230    1.000
    H283     H        0.61010    0.26580    0.19710    1.000
    H284     H        0.52980    0.18980    0.16230    1.000
    H285     H        0.77300    0.30840    0.31060    1.000
    H286     H        0.19830    0.73020    0.31220    1.000
    H287     H        0.24780    0.83860    0.50250    1.000
    H288     H        0.33200    0.90820    0.53800    1.000
    H289     H        0.46240    0.83540    0.51180    1.000
    H290     H        0.37820    0.76580    0.47630    1.000
    H291     H        0.78360    0.22980    0.22850    1.000
    H292     H        0.86200    0.30440    0.26440    1.000
    H293     H        0.77790    0.42360    0.24920    1.000
    H294     H        0.69950    0.34880    0.21340    1.000
    H295     H        0.60420    0.17240    0.51930    1.000
    H296     H        0.67110    0.24640    0.48370    1.000
    H297     H        0.81680    0.18320    0.48810    1.000
    H298     H        0.75000    0.10940    0.52370    1.000
    H299     H        0.83580    0.21920    0.43860    1.000
    H300     H        0.89680    0.29460    0.40260    1.000
    H301     H        0.83160    0.41580    0.44220    1.000
    H302     H        0.77070    0.34040    0.47820    1.000
    H303     H        0.97350    0.45760    0.45420    1.000
    H304     H        0.79600    0.30080    0.36570    1.000
    H305     H        0.05930    0.57580    0.45530    1.000
    H306     H        0.01030    0.57780    0.22580    1.000
    H307     H        0.31500    0.77680    0.19460    1.000
    H308     H        0.38340    0.84600    0.15760    1.000
    H309     H        0.23940    0.91000    0.14790    1.000
    H310     H        0.17100    0.84080    0.18490    1.000
    H311     H        0.90930    0.47080    0.22570    1.000
    H312     H        0.20620    0.73560    0.36980    1.000
    H313     H        0.03820    0.70200    0.24860    1.000
    H314     H        0.10410    0.76740    0.21000    1.000
    H315     H        0.26640    0.73420    0.23280    1.000
    H316     H        0.20040    0.66860    0.27140    1.000
    H317     H        0.19490    0.60820    0.43030    1.000
    H318     H        0.27660    0.67600    0.46720    1.000
    H319     H        0.20500    0.80620    0.45770    1.000
    H320     H        0.12340    0.73840    0.42080    1.000
    C433     C        0.56390    0.57300    0.77540    1.000
    C434     C        0.55599    0.14478    0.65168    1.000
    C435     C        0.49268    0.14496    0.65761    1.000
    C436     C        0.49020    0.19020    0.67830    1.000
    C437     C        0.55092    0.23524    0.69298    1.000
    C438     C        0.61420    0.23500    0.68700    1.000
    C439     C        0.61670    0.18980    0.66640    1.000
    C440     C        0.46390    0.92540    0.05110    1.000
    C441     C        0.51630    0.56240    0.90520    1.000
    C442     C        0.52780    0.33820    0.82330    1.000
    C443     C        0.50790    0.46960    0.90590    1.000
    C444     C        0.54960    0.47640    0.77440    1.000
    C445     C        0.53390    0.70000    0.82540    1.000
    C446     C        0.49050    0.79560    0.98606    1.000
    C447     C        0.54660    0.83800    0.00440    1.000
    C448     C        0.53800    0.87940    0.02550    1.000
    C449     C        0.47330    0.87840    0.02830    1.000
    C450     C        0.41720    0.83600    0.00990    1.000
    C451     C        0.42590    0.79480    0.98883    1.000
    C452     C        0.45650    0.08580    0.04800    1.000
    C453     C        0.54818    0.28236    0.71756    1.000
    C454     C        0.48669    0.26918    0.73272    1.000
    C455     C        0.48450    0.31360    0.75403    1.000
    C456     C        0.54371    0.37102    0.76019    1.000
    C457     C        0.60521    0.38422    0.74500    1.000
    C458     C        0.60730    0.33980    0.72372    1.000
    C459     C        0.46314    0.13388    0.02480    1.000
    C460     C        0.52720    0.17460    0.01290    1.000
    C461     C        0.53150    0.21860    0.99180    1.000
    C462     C        0.47149    0.22178    0.98251    1.000
    C463     C        0.40740    0.18100    0.99440    1.000
    C464     C        0.40320    0.13720    0.01550    1.000
    C465     C        0.47511    0.27262    0.96182    1.000
    C466     C        0.42412    0.25904    0.93936    1.000
    C467     C        0.43270    0.30380    0.91796    1.000
    C468     C        0.49235    0.36230    0.91903    1.000
    C469     C        0.54344    0.37588    0.94150    1.000
    C470     C        0.53480    0.33100    0.96289    1.000
    C471     C        0.52900    0.39540    0.81560    1.000
    C472     C        0.54050    0.64440    0.81570    1.000
    C473     C        0.49760    0.48520    0.93750    1.000
    C474     C        0.51320    0.33600    0.85360    1.000
    C475     C        0.54070    0.41840    0.78450    1.000
    C476     C        0.51130    0.54800    0.93800    1.000
    C477     C        0.52960    0.62560    0.89740    1.000
    C478     C        0.51230    0.39200    0.86460    1.000
    C479     C        0.53100    0.64460    0.86540    1.000
    C480     C        0.50230    0.40900    0.89530    1.000
    C481     C        0.56430    0.55360    0.74310    1.000
    C482     C        0.56580    0.80240    0.69320    1.000
    C483     C        0.50420    0.80380    0.68510    1.000
    C484     C        0.50470    0.84500    0.66312    1.000
    C485     C        0.56670    0.88460    0.64930    1.000
    C486     C        0.62820    0.88300    0.65740    1.000
    C487     C        0.62770    0.84180    0.67930    1.000
    C488     C        0.55930    0.49540    0.74300    1.000
    C489     C        0.56060    0.63060    0.78710    1.000
    C490     C        0.56020    0.09820    0.62980    1.000
    C491     C        0.53100    0.70300    0.85690    1.000
    C492     C        0.56890    0.93180    0.62570    1.000
    C493     C        0.56605    0.67910    0.76365    1.000
    C494     C        0.62390    0.70840    0.74540    1.000
    C495     C        0.62370    0.74740    0.72247    1.000
    C496     C        0.56550    0.75700    0.71775    1.000
    C497     C        0.50750    0.72760    0.73600    1.000
    C498     C        0.50780    0.68860    0.75893    1.000
    C499     C        0.51550    0.66700    0.92205    1.000
    C500     C        0.45142    0.64844    0.93580    1.000
    C501     C        0.44310    0.68860    0.95780    1.000
    C502     C        0.49890    0.74740    0.96592    1.000
    C503     C        0.56298    0.76596    0.95210    1.000
    C504     C        0.57130    0.72580    0.93020    1.000
    C505     C        0.00910    0.57300    0.27540    1.000
    C506     C        0.58879    0.14478    0.15168    1.000
    C507     C        0.65228    0.14496    0.15761    1.000
    C508     C        0.70000    0.19020    0.17830    1.000
    C509     C        0.68432    0.23524    0.19298    1.000
    C510     C        0.62080    0.23500    0.18700    1.000
    C511     C        0.57310    0.18980    0.16640    1.000
    C512     C        0.46150    0.92540    0.55110    1.000
    C513     C        0.04610    0.56240    0.40520    1.000
    C514     C        0.81040    0.33820    0.32330    1.000
    C515     C        0.96170    0.46960    0.40590    1.000
    C516     C        0.92680    0.47640    0.27440    1.000
    C517     C        0.16610    0.70000    0.32540    1.000
    C518     C        0.30510    0.79560    0.48606    1.000
    C519     C        0.29140    0.83800    0.50440    1.000
    C520     C        0.34140    0.87940    0.52550    1.000
    C521     C        0.40510    0.87840    0.52830    1.000
    C522     C        0.41880    0.83600    0.50990    1.000
    C523     C        0.36890    0.79480    0.48883    1.000
    C524     C        0.62930    0.08580    0.54800    1.000
    C525     C        0.73418    0.28236    0.21756    1.000
    C526     C        0.78249    0.26918    0.23272    1.000
    C527     C        0.82910    0.31360    0.25403    1.000
    C528     C        0.82731    0.37102    0.26019    1.000
    C529     C        0.77901    0.38422    0.24500    1.000
    C530     C        0.73250    0.33980    0.22372    1.000
    C531     C        0.67074    0.13388    0.52480    1.000
    C532     C        0.64740    0.17460    0.51290    1.000
    C533     C        0.68710    0.21860    0.49180    1.000
    C534     C        0.75029    0.22178    0.48251    1.000
    C535     C        0.77360    0.18100    0.49440    1.000
    C536     C        0.73400    0.13720    0.51550    1.000
    C537     C        0.79751    0.27262    0.46182    1.000
    C538     C        0.83492    0.25904    0.43936    1.000
    C539     C        0.87110    0.30380    0.41796    1.000
    C540     C        0.86995    0.36230    0.41903    1.000
    C541     C        0.83244    0.37588    0.44150    1.000
    C542     C        0.79620    0.33100    0.46289    1.000
    C543     C        0.86640    0.39540    0.31560    1.000
    C544     C        0.10390    0.64440    0.31570    1.000
    C545     C        0.98760    0.48520    0.43750    1.000
    C546     C        0.82280    0.33600    0.35360    1.000
    C547     C        0.87770    0.41840    0.28450    1.000
    C548     C        0.03670    0.54800    0.43800    1.000
    C549     C        0.09600    0.62560    0.39740    1.000
    C550     C        0.87970    0.39200    0.36460    1.000
    C551     C        0.11360    0.64460    0.36540    1.000
    C552     C        0.90670    0.40900    0.39530    1.000
    C553     C        0.98930    0.55360    0.24310    1.000
    C554     C        0.23660    0.80240    0.19320    1.000
    C555     C        0.29960    0.80380    0.18510    1.000
    C556     C        0.34030    0.84500    0.16312    1.000
    C557     C        0.31790    0.88460    0.14930    1.000
    C558     C        0.25480    0.88300    0.15740    1.000
    C559     C        0.21410    0.84180    0.17930    1.000
    C560     C        0.93610    0.49540    0.24300    1.000
    C561     C        0.07000    0.63060    0.28710    1.000
    C562     C        0.53800    0.09820    0.12980    1.000
    C563     C        0.17200    0.70300    0.35690    1.000
    C564     C        0.36290    0.93180    0.12570    1.000
    C565     C        0.11305    0.67910    0.26365    1.000
    C566     C        0.08450    0.70840    0.24540    1.000
    C567     C        0.12370    0.74740    0.22247    1.000
    C568     C        0.19150    0.75700    0.21775    1.000
    C569     C        0.22010    0.72760    0.23600    1.000
    C570     C        0.18080    0.68860    0.25893    1.000
    C571     C        0.15150    0.66700    0.42205    1.000
    C572     C        0.19702    0.64844    0.43580    1.000
    C573     C        0.24550    0.68860    0.45780    1.000
    C574     C        0.24850    0.74740    0.46592    1.000
    C575     C        0.20298    0.76596    0.45210    1.000
    C576     C        0.15450    0.72580    0.43020    1.000
    N25      N        0.51780    0.51740    0.88750    1.000
    N26      N        0.52400    0.42740    0.84000    1.000
    N27      N        0.53910    0.61060    0.84030    1.000
    N28      N        0.55200    0.52260    0.79170    1.000
    N29      N        0.99960    0.51740    0.38750    1.000
    N30      N        0.90340    0.42740    0.34000    1.000
    N31      N        0.07150    0.61060    0.34030    1.000
    N32      N        0.97060    0.52260    0.29170    1.000
    O49      O        0.40630    0.92500    0.05280    1.000
    O50      O        0.49910    0.05880    0.61470    1.000
    O51      O        0.61970    0.96380    0.61150    1.000
    O52      O        0.40010    0.05380    0.05970    1.000
    O53      O        0.51380    0.08720    0.05550    1.000
    O54      O        0.51810    0.96140    0.06740    1.000
    O55      O        0.61180    0.09300    0.62433    1.000
    O56      O        0.51620    0.93940    0.62470    1.000
    O57      O        0.51870    0.92500    0.55280    1.000
    O58      O        0.55970    0.05880    0.11470    1.000
    O59      O        0.34410    0.96380    0.11150    1.000
    O60      O        0.65370    0.05380    0.55970    1.000
    O61      O        0.57340    0.08720    0.55550    1.000
    O62      O        0.44330    0.96140    0.56740    1.000
    O63      O        0.48120    0.09300    0.12433    1.000
    O64      O        0.42320    0.93940    0.12470    1.000
