# CIF file generated by openbabel 3.1.0, see https://openbabel.org
data_I
_chemical_name_common 'image0'
_cell_length_a 11.868
_cell_length_b 16.265
_cell_length_c 16.379
_cell_angle_alpha 108.099
_cell_angle_beta 102.855
_cell_angle_gamma 101.216
_space_group_name_H-M_alt 'P 1'
_space_group_name_Hall 'P 1'
loop_
    _symmetry_equiv_pos_as_xyz
    x,y,z
loop_
    _atom_site_label
    _atom_site_type_symbol
    _atom_site_fract_x
    _atom_site_fract_y
    _atom_site_fract_z
    _atom_site_occupancy
    Co1      Co       0.18269    0.89444    0.38414    1.000
    O1       O        0.48380    0.48810    0.15750    1.000
    C1       C        0.45910    0.33990    0.05830    1.000
    O2       O        0.47470    0.86480    0.41050    1.000
    C2       C        0.40360    0.41240    0.10200    1.000
    H1       H        0.35030    0.42460    0.05400    1.000
    H2       H        0.35320    0.38940    0.13520    1.000
    O3       O        0.27900    0.81010    0.33120    1.000
    C3       C        0.44950    0.56390    0.19450    1.000
    O4       O        0.67230    0.40530    0.12960    1.000
    C4       C        0.54250    0.63470    0.25080    1.000
    H3       H        0.62250    0.63060    0.25700    1.000
    O5       O        0.01790    0.80600    0.27590    1.000
    O6       O        0.04860    0.77800    0.39980    1.000
    C5       C        0.40710    0.72150    0.29230    1.000
    O7       O        0.41860    0.21030    0.92652    1.000
    C6       C        0.31320    0.64900    0.23390    1.000
    H4       H        0.23290    0.65220    0.22810    1.000
    O8       O        0.32050    0.95766    0.52203    1.000
    C7       C        0.33350    0.56950    0.18220    1.000
    H5       H        0.26780    0.52050    0.13940    1.000
    O9       O        0.14480    0.98790    0.50760    1.000
    C8       C        0.38460    0.80550    0.34840    1.000
    O10      O        0.36080    0.23670    0.11490    1.000
    C9       C        0.58310    0.37960    0.04970    1.000
    H6       H        0.60060    0.33390    0.00180    1.000
    H7       H        0.58140    0.43250    0.03220    1.000
    O11      O        0.21280    0.99530    0.33060    1.000
    C10      C        0.74800    0.49130    0.17070    1.000
    O12      O        0.41330    0.03470    0.38990    1.000
    C11      C        0.78100    0.54650    0.12700    1.000
    H8       H        0.74930    0.52640    0.06330    1.000
    C12      C        0.86070    0.63210    0.17540    1.000
    H9       H        0.88210    0.67020    0.14410    1.000
    C13      C        0.90890    0.66270    0.26690    1.000
    C14      C        0.87940    0.60630    0.31170    1.000
    H10      H        0.91450    0.62540    0.37500    1.000
    C15      C        0.79690    0.52040    0.26270    1.000
    H11      H        0.77460    0.48200    0.29350    1.000
    C16      C        0.99610    0.75390    0.31680    1.000
    C17      C        0.37220    0.28370    0.96330    1.000
    H12      H        0.29020    0.26080    0.96610    1.000
    H13      H        0.36850    0.32080    0.92540    1.000
    C18      C        0.36980    0.15890    0.83640    1.000
    C19      C        0.43810    0.10550    0.79990    1.000
    H14      H        0.51150    0.10500    0.83730    1.000
    C20      C        0.39870    0.05350    0.70930    1.000
    H15      H        0.44660    0.01870    0.68370    1.000
    C21      C        0.28950    0.05160    0.65520    1.000
    C22      C        0.21980    0.10320    0.69200    1.000
    H16      H        0.14530    0.10220    0.65470    1.000
    C23      C        0.25960    0.15680    0.78380    1.000
    H17      H        0.21160    0.19120    0.80970    1.000
    C24      C        0.24890    0.99700    0.55640    1.000
    C25      C        0.47640    0.28200    0.11520    1.000
    H18      H        0.51770    0.23750    0.08970    1.000
    H19      H        0.52650    0.32050    0.17770    1.000
    C26      C        0.35640    0.18830    0.16950    1.000
    C27      C        0.24400    0.14440    0.16850    1.000
    H20      H        0.17410    0.14760    0.12930    1.000
    C28      C        0.23090    0.09670    0.22250    1.000
    H21      H        0.15240    0.06920    0.22230    1.000
    C29      C        0.32970    0.08790    0.27730    1.000
    C30      C        0.44260    0.13090    0.27770    1.000
    H22      H        0.51180    0.12590    0.31600    1.000
    C31      C        0.45830    0.18100    0.22420    1.000
    H23      H        0.53670    0.20960    0.22520    1.000
    C32      C        0.31780    0.03600    0.33750    1.000
    C33      C        0.52310    0.71470    0.30070    1.000
    H24      H        0.58990    0.76460    0.34060    1.000
    Co2      Co       0.81731    0.10556    0.61586    1.000
    O13      O        0.51620    0.51190    0.84250    1.000
    C34      C        0.54090    0.66010    0.94170    1.000
    O14      O        0.52530    0.13520    0.58950    1.000
    C35      C        0.59640    0.58760    0.89800    1.000
    H25      H        0.64970    0.57540    0.94600    1.000
    H26      H        0.64680    0.61060    0.86480    1.000
    O15      O        0.72100    0.18990    0.66880    1.000
    C36      C        0.55050    0.43610    0.80550    1.000
    O16      O        0.32770    0.59470    0.87040    1.000
    C37      C        0.45750    0.36530    0.74920    1.000
    H27      H        0.37750    0.36940    0.74300    1.000
    O17      O        0.98210    0.19400    0.72410    1.000
    O18      O        0.95140    0.22200    0.60020    1.000
    C38      C        0.59290    0.27850    0.70770    1.000
    O19      O        0.58140    0.78970    0.07348    1.000
    C39      C        0.68680    0.35100    0.76610    1.000
    H28      H        0.76710    0.34780    0.77190    1.000
    O20      O        0.67950    0.04234    0.47797    1.000
    C40      C        0.66650    0.43050    0.81780    1.000
    H29      H        0.73220    0.47950    0.86060    1.000
    O21      O        0.85520    0.01210    0.49240    1.000
    C41      C        0.61540    0.19450    0.65160    1.000
    O22      O        0.63920    0.76330    0.88510    1.000
    C42      C        0.41690    0.62040    0.95030    1.000
    H30      H        0.39940    0.66610    0.99820    1.000
    H31      H        0.41860    0.56750    0.96780    1.000
    O23      O        0.78720    0.00470    0.66940    1.000
    C43      C        0.25200    0.50870    0.82930    1.000
    O24      O        0.58670    0.96530    0.61010    1.000
    C44      C        0.21900    0.45350    0.87300    1.000
    H32      H        0.25070    0.47360    0.93670    1.000
    C45      C        0.13930    0.36790    0.82460    1.000
    H33      H        0.11790    0.32980    0.85590    1.000
    C46      C        0.09110    0.33730    0.73310    1.000
    C47      C        0.12060    0.39370    0.68830    1.000
    H34      H        0.08550    0.37460    0.62500    1.000
    C48      C        0.20310    0.47960    0.73730    1.000
    H35      H        0.22540    0.51800    0.70650    1.000
    C49      C        0.00390    0.24610    0.68320    1.000
    C50      C        0.62780    0.71630    0.03670    1.000
    H36      H        0.70980    0.73920    0.03390    1.000
    H37      H        0.63150    0.67920    0.07460    1.000
    C51      C        0.63020    0.84110    0.16360    1.000
    C52      C        0.56190    0.89450    0.20010    1.000
    H38      H        0.48850    0.89500    0.16270    1.000
    C53      C        0.60130    0.94650    0.29070    1.000
    H39      H        0.55340    0.98130    0.31630    1.000
    C54      C        0.71050    0.94840    0.34480    1.000
    C55      C        0.78020    0.89680    0.30800    1.000
    H40      H        0.85470    0.89780    0.34530    1.000
    C56      C        0.74040    0.84320    0.21620    1.000
    H41      H        0.78840    0.80880    0.19030    1.000
    C57      C        0.75110    0.00300    0.44360    1.000
    C58      C        0.52360    0.71800    0.88480    1.000
    H42      H        0.48230    0.76250    0.91030    1.000
    H43      H        0.47350    0.67950    0.82230    1.000
    C59      C        0.64360    0.81170    0.83050    1.000
    C60      C        0.75600    0.85560    0.83150    1.000
    H44      H        0.82590    0.85240    0.87070    1.000
    C61      C        0.76910    0.90330    0.77750    1.000
    H45      H        0.84760    0.93080    0.77770    1.000
    C62      C        0.67030    0.91210    0.72270    1.000
    C63      C        0.55740    0.86910    0.72230    1.000
    H46      H        0.48820    0.87410    0.68400    1.000
    C64      C        0.54170    0.81900    0.77580    1.000
    H47      H        0.46330    0.79040    0.77480    1.000
    C65      C        0.68220    0.96400    0.66250    1.000
    C66      C        0.47690    0.28530    0.69930    1.000
    H48      H        0.41010    0.23540    0.65940    1.000
    Co3      Co       0.50000    0.00000    0.50000    1.000
