# CIF file generated by openbabel 3.1.0, see https://openbabel.org
data_I
_chemical_name_common 'image0'
_cell_length_a 25.9263
_cell_length_b 25.9263
_cell_length_c 19.6532
_cell_angle_alpha 90
_cell_angle_beta 90
_cell_angle_gamma 120
_space_group_name_H-M_alt 'P 1'
_space_group_name_Hall 'P 1'
loop_
    _symmetry_equiv_pos_as_xyz
    x,y,z
loop_
    _atom_site_label
    _atom_site_type_symbol
    _atom_site_fract_x
    _atom_site_fract_y
    _atom_site_fract_z
    _atom_site_occupancy
    Zn1      Zn       0.10131    0.43277    0.40307    1.000
    N1       N        0.03600    0.37340    0.45850    1.000
    C1       C        0.02150    0.31670    0.47460    1.000
    C2       C        0.04800    0.28210    0.44340    1.000
    H1       H        0.07620    0.29570    0.40740    1.000
    C3       C        0.02360    0.22440    0.47720    1.000
    H2       H        0.04160    0.20110    0.46710    1.000
    C4       C        0.03900    0.17800    0.45200    1.000
    H3       H        0.00330    0.13890    0.44940    1.000
    H4       H        0.06760    0.17590    0.48380    1.000
    H5       H        0.05780    0.18930    0.40680    1.000
    N2       N        0.17200    0.43180    0.43680    1.000
    C5       C        0.19020    0.43380    0.50120    1.000
    C6       C        0.15770    0.43280    0.56670    1.000
    H6       H        0.12010    0.43090    0.56760    1.000
    C7       C        0.19080    0.43530    0.62720    1.000
    C8       C        0.14700    0.43700    0.67900    1.000
    H7       H        0.16850    0.46250    0.71680    1.000
    H8       H        0.11990    0.39610    0.69530    1.000
    H9       H        0.12300    0.45170    0.65610    1.000
    N3       N        0.11270    0.51290    0.42730    1.000
    C9       C        0.15990    0.55240    0.46120    1.000
    H10      H        0.18890    0.54550    0.48200    1.000
    O1       O        0.01330    0.54730    0.36870    1.000
    N4       N        0.08190    0.40580    0.30610    1.000
    C10      C        0.03110    0.35440    0.28350    1.000
    H11      H        0.00150    0.32450    0.31180    1.000
    O2       O        0.18510    0.50970    0.30490    1.000
    H12      H        0.17470    0.43700    0.67000    1.000
    Zn2      Zn       0.56723    0.66854    0.40307    1.000
    N5       N        0.62660    0.66260    0.45850    1.000
    C11      C        0.68330    0.70480    0.47460    1.000
    C12      C        0.71790    0.76590    0.44340    1.000
    H13      H        0.70430    0.78050    0.40740    1.000
    C13      C        0.77560    0.79920    0.47720    1.000
    H14      H        0.79890    0.84050    0.46710    1.000
    C14      C        0.82200    0.86100    0.45200    1.000
    H15      H        0.86110    0.86440    0.44940    1.000
    H16      H        0.82410    0.89170    0.48380    1.000
    H17      H        0.81070    0.86850    0.40680    1.000
    N6       N        0.56820    0.74020    0.43680    1.000
    C15      C        0.56620    0.75640    0.50120    1.000
    C16      C        0.56720    0.72490    0.56670    1.000
    H18      H        0.56910    0.68920    0.56760    1.000
    C17      C        0.56470    0.75550    0.62720    1.000
    C18      C        0.56300    0.71000    0.67900    1.000
    H19      H        0.53750    0.70600    0.71680    1.000
    H20      H        0.60390    0.72380    0.69530    1.000
    H21      H        0.54830    0.67130    0.65610    1.000
    N7       N        0.48710    0.59980    0.42730    1.000
    C19      C        0.44760    0.60750    0.46120    1.000
    H22      H        0.45450    0.64340    0.48200    1.000
    O3       O        0.45270    0.46600    0.36870    1.000
    N8       N        0.59420    0.67610    0.30610    1.000
    C20      C        0.64560    0.67670    0.28350    1.000
    H23      H        0.67550    0.67700    0.31180    1.000
    O4       O        0.49030    0.67540    0.30490    1.000
    H24      H        0.56300    0.73770    0.67000    1.000
    Zn3      Zn       0.33146    0.89869    0.40307    1.000
    N9       N        0.33740    0.96400    0.45850    1.000
    C21      C        0.29520    0.97850    0.47460    1.000
    C22      C        0.23410    0.95200    0.44340    1.000
    H25      H        0.21950    0.92380    0.40740    1.000
    C23      C        0.20080    0.97640    0.47720    1.000
    H26      H        0.15950    0.95840    0.46710    1.000
    C24      C        0.13900    0.96100    0.45200    1.000
    H27      H        0.13560    0.99670    0.44940    1.000
    H28      H        0.10830    0.93240    0.48380    1.000
    H29      H        0.13150    0.94220    0.40680    1.000
    N10      N        0.25980    0.82800    0.43680    1.000
    C25      C        0.24360    0.80980    0.50120    1.000
    C26      C        0.27510    0.84230    0.56670    1.000
    H30      H        0.31080    0.87990    0.56760    1.000
    C27      C        0.24450    0.80920    0.62720    1.000
    C28      C        0.29000    0.85300    0.67900    1.000
    H31      H        0.29400    0.83150    0.71680    1.000
    H32      H        0.27620    0.88010    0.69530    1.000
    H33      H        0.32870    0.87700    0.65610    1.000
    N11      N        0.40020    0.88730    0.42730    1.000
    C29      C        0.39250    0.84010    0.46120    1.000
    H34      H        0.35660    0.81110    0.48200    1.000
    O5       O        0.53400    0.98670    0.36870    1.000
    N12      N        0.32390    0.91810    0.30610    1.000
    C30      C        0.32330    0.96890    0.28350    1.000
    H35      H        0.32300    0.99850    0.31180    1.000
    O6       O        0.32460    0.81490    0.30490    1.000
    H36      H        0.26230    0.82530    0.67000    1.000
    Zn4      Zn       0.89869    0.56723    0.90307    1.000
    N13      N        0.96400    0.62660    0.95850    1.000
    C31      C        0.97850    0.68330    0.97460    1.000
    C32      C        0.95200    0.71790    0.94340    1.000
    H37      H        0.92380    0.70430    0.90740    1.000
    C33      C        0.97640    0.77560    0.97720    1.000
    H38      H        0.95840    0.79890    0.96710    1.000
    C34      C        0.96100    0.82200    0.95200    1.000
    H39      H        0.99670    0.86110    0.94940    1.000
    H40      H        0.93240    0.82410    0.98380    1.000
    H41      H        0.94220    0.81070    0.90680    1.000
    N14      N        0.82800    0.56820    0.93680    1.000
    C35      C        0.80980    0.56620    0.00120    1.000
    C36      C        0.84230    0.56720    0.06670    1.000
    H42      H        0.87990    0.56910    0.06760    1.000
    C37      C        0.80920    0.56470    0.12720    1.000
    C38      C        0.85300    0.56300    0.17900    1.000
    H43      H        0.83150    0.53750    0.21680    1.000
    H44      H        0.88010    0.60390    0.19530    1.000
    H45      H        0.87700    0.54830    0.15610    1.000
    N15      N        0.88730    0.48710    0.92730    1.000
    C39      C        0.84010    0.44760    0.96120    1.000
    H46      H        0.81110    0.45450    0.98200    1.000
    O7       O        0.98670    0.45270    0.86870    1.000
    N16      N        0.91810    0.59420    0.80610    1.000
    C40      C        0.96890    0.64560    0.78350    1.000
    H47      H        0.99850    0.67550    0.81180    1.000
    O8       O        0.81490    0.49030    0.80490    1.000
    H48      H        0.82530    0.56300    0.17000    1.000
    Zn5      Zn       0.43277    0.33146    0.90307    1.000
    N17      N        0.37340    0.33740    0.95850    1.000
    C41      C        0.31670    0.29520    0.97460    1.000
    C42      C        0.28210    0.23410    0.94340    1.000
    H49      H        0.29570    0.21950    0.90740    1.000
    C43      C        0.22440    0.20080    0.97720    1.000
    H50      H        0.20110    0.15950    0.96710    1.000
    C44      C        0.17800    0.13900    0.95200    1.000
    H51      H        0.13890    0.13560    0.94940    1.000
    H52      H        0.17590    0.10830    0.98380    1.000
    H53      H        0.18930    0.13150    0.90680    1.000
    N18      N        0.43180    0.25980    0.93680    1.000
    C45      C        0.43380    0.24360    0.00120    1.000
    C46      C        0.43280    0.27510    0.06670    1.000
    H54      H        0.43090    0.31080    0.06760    1.000
    C47      C        0.43530    0.24450    0.12720    1.000
    C48      C        0.43700    0.29000    0.17900    1.000
    H55      H        0.46250    0.29400    0.21680    1.000
    H56      H        0.39610    0.27620    0.19530    1.000
    H57      H        0.45170    0.32870    0.15610    1.000
    N19      N        0.51290    0.40020    0.92730    1.000
    C49      C        0.55240    0.39250    0.96120    1.000
    H58      H        0.54550    0.35660    0.98200    1.000
    O9       O        0.54730    0.53400    0.86870    1.000
    N20      N        0.40580    0.32390    0.80610    1.000
    C50      C        0.35440    0.32330    0.78350    1.000
    H59      H        0.32450    0.32300    0.81180    1.000
    O10      O        0.50970    0.32460    0.80490    1.000
    H60      H        0.43700    0.26230    0.17000    1.000
    Zn6      Zn       0.66854    0.10131    0.90307    1.000
    N21      N        0.66260    0.03600    0.95850    1.000
    C51      C        0.70480    0.02150    0.97460    1.000
    C52      C        0.76590    0.04800    0.94340    1.000
    H61      H        0.78050    0.07620    0.90740    1.000
    C53      C        0.79920    0.02360    0.97720    1.000
    H62      H        0.84050    0.04160    0.96710    1.000
    C54      C        0.86100    0.03900    0.95200    1.000
    H63      H        0.86440    0.00330    0.94940    1.000
    H64      H        0.89170    0.06760    0.98380    1.000
    H65      H        0.86850    0.05780    0.90680    1.000
    N22      N        0.74020    0.17200    0.93680    1.000
    C55      C        0.75640    0.19020    0.00120    1.000
    C56      C        0.72490    0.15770    0.06670    1.000
    H66      H        0.68920    0.12010    0.06760    1.000
    C57      C        0.75550    0.19080    0.12720    1.000
    C58      C        0.71000    0.14700    0.17900    1.000
    H67      H        0.70600    0.16850    0.21680    1.000
    H68      H        0.72380    0.11990    0.19530    1.000
    H69      H        0.67130    0.12300    0.15610    1.000
    N23      N        0.59980    0.11270    0.92730    1.000
    C59      C        0.60750    0.15990    0.96120    1.000
    H70      H        0.64340    0.18890    0.98200    1.000
    O11      O        0.46600    0.01330    0.86870    1.000
    N24      N        0.67610    0.08190    0.80610    1.000
    C60      C        0.67670    0.03110    0.78350    1.000
    H71      H        0.67700    0.00150    0.81180    1.000
    O12      O        0.67540    0.18510    0.80490    1.000
    H72      H        0.73770    0.17470    0.17000    1.000
    Zn7      Zn       0.43277    0.10131    0.59693    1.000
    N25      N        0.37340    0.03600    0.54150    1.000
    C61      C        0.31670    0.02150    0.52540    1.000
    C62      C        0.28210    0.04800    0.55660    1.000
    H73      H        0.29570    0.07620    0.59260    1.000
    C63      C        0.22440    0.02360    0.52280    1.000
    H74      H        0.20110    0.04160    0.53290    1.000
    C64      C        0.17800    0.03900    0.54800    1.000
    H75      H        0.13890    0.00330    0.55060    1.000
    H76      H        0.17590    0.06760    0.51620    1.000
    H77      H        0.18930    0.05780    0.59320    1.000
    N26      N        0.43180    0.17200    0.56320    1.000
    C65      C        0.43380    0.19020    0.49880    1.000
    C66      C        0.43280    0.15770    0.43330    1.000
    H78      H        0.43090    0.12010    0.43240    1.000
    C67      C        0.43530    0.19080    0.37280    1.000
    C68      C        0.43700    0.14700    0.32100    1.000
    H79      H        0.46250    0.16850    0.28320    1.000
    H80      H        0.39610    0.11990    0.30470    1.000
    H81      H        0.45170    0.12300    0.34390    1.000
    N27      N        0.51290    0.11270    0.57270    1.000
    C69      C        0.55240    0.15990    0.53880    1.000
    H82      H        0.54550    0.18890    0.51800    1.000
    O13      O        0.54730    0.01330    0.63130    1.000
    N28      N        0.40580    0.08190    0.69390    1.000
    C70      C        0.35440    0.03110    0.71650    1.000
    H83      H        0.32450    0.00150    0.68820    1.000
    O14      O        0.50970    0.18510    0.69510    1.000
    H84      H        0.43700    0.17470    0.33000    1.000
    Zn8      Zn       0.66854    0.56723    0.59693    1.000
    N29      N        0.66260    0.62660    0.54150    1.000
    C71      C        0.70480    0.68330    0.52540    1.000
    C72      C        0.76590    0.71790    0.55660    1.000
    H85      H        0.78050    0.70430    0.59260    1.000
    C73      C        0.79920    0.77560    0.52280    1.000
    H86      H        0.84050    0.79890    0.53290    1.000
    C74      C        0.86100    0.82200    0.54800    1.000
    H87      H        0.86440    0.86110    0.55060    1.000
    H88      H        0.89170    0.82410    0.51620    1.000
    H89      H        0.86850    0.81070    0.59320    1.000
    N30      N        0.74020    0.56820    0.56320    1.000
    C75      C        0.75640    0.56620    0.49880    1.000
    C76      C        0.72490    0.56720    0.43330    1.000
    H90      H        0.68920    0.56910    0.43240    1.000
    C77      C        0.75550    0.56470    0.37280    1.000
    C78      C        0.71000    0.56300    0.32100    1.000
    H91      H        0.70600    0.53750    0.28320    1.000
    H92      H        0.72380    0.60390    0.30470    1.000
    H93      H        0.67130    0.54830    0.34390    1.000
    N31      N        0.59980    0.48710    0.57270    1.000
    C79      C        0.60750    0.44760    0.53880    1.000
    H94      H        0.64340    0.45450    0.51800    1.000
    O15      O        0.46600    0.45270    0.63130    1.000
    N32      N        0.67610    0.59420    0.69390    1.000
    C80      C        0.67670    0.64560    0.71650    1.000
    H95      H        0.67700    0.67550    0.68820    1.000
    O16      O        0.67540    0.49030    0.69510    1.000
    H96      H        0.73770    0.56300    0.33000    1.000
    Zn9      Zn       0.89869    0.33146    0.59693    1.000
    N33      N        0.96400    0.33740    0.54150    1.000
    C81      C        0.97850    0.29520    0.52540    1.000
    C82      C        0.95200    0.23410    0.55660    1.000
    H97      H        0.92380    0.21950    0.59260    1.000
    C83      C        0.97640    0.20080    0.52280    1.000
    H98      H        0.95840    0.15950    0.53290    1.000
    C84      C        0.96100    0.13900    0.54800    1.000
    H99      H        0.99670    0.13560    0.55060    1.000
    H100     H        0.93240    0.10830    0.51620    1.000
    H101     H        0.94220    0.13150    0.59320    1.000
    N34      N        0.82800    0.25980    0.56320    1.000
    C85      C        0.80980    0.24360    0.49880    1.000
    C86      C        0.84230    0.27510    0.43330    1.000
    H102     H        0.87990    0.31080    0.43240    1.000
    C87      C        0.80920    0.24450    0.37280    1.000
    C88      C        0.85300    0.29000    0.32100    1.000
    H103     H        0.83150    0.29400    0.28320    1.000
    H104     H        0.88010    0.27620    0.30470    1.000
    H105     H        0.87700    0.32870    0.34390    1.000
    N35      N        0.88730    0.40020    0.57270    1.000
    C89      C        0.84010    0.39250    0.53880    1.000
    H106     H        0.81110    0.35660    0.51800    1.000
    O17      O        0.98670    0.53400    0.63130    1.000
    N36      N        0.91810    0.32390    0.69390    1.000
    C90      C        0.96890    0.32330    0.71650    1.000
    H107     H        0.99850    0.32300    0.68820    1.000
    O18      O        0.81490    0.32460    0.69510    1.000
    H108     H        0.82530    0.26230    0.33000    1.000
    Zn10     Zn       0.56723    0.89869    0.09693    1.000
    N37      N        0.62660    0.96400    0.04150    1.000
    C91      C        0.68330    0.97850    0.02540    1.000
    C92      C        0.71790    0.95200    0.05660    1.000
    H109     H        0.70430    0.92380    0.09260    1.000
    C93      C        0.77560    0.97640    0.02280    1.000
    H110     H        0.79890    0.95840    0.03290    1.000
    C94      C        0.82200    0.96100    0.04800    1.000
    H111     H        0.86110    0.99670    0.05060    1.000
    H112     H        0.82410    0.93240    0.01620    1.000
    H113     H        0.81070    0.94220    0.09320    1.000
    N38      N        0.56820    0.82800    0.06320    1.000
    C95      C        0.56620    0.80980    0.99880    1.000
    C96      C        0.56720    0.84230    0.93330    1.000
    H114     H        0.56910    0.87990    0.93240    1.000
    C97      C        0.56470    0.80920    0.87280    1.000
    C98      C        0.56300    0.85300    0.82100    1.000
    H115     H        0.53750    0.83150    0.78320    1.000
    H116     H        0.60390    0.88010    0.80470    1.000
    H117     H        0.54830    0.87700    0.84390    1.000
    N39      N        0.48710    0.88730    0.07270    1.000
    C99      C        0.44760    0.84010    0.03880    1.000
    H118     H        0.45450    0.81110    0.01800    1.000
    O19      O        0.45270    0.98670    0.13130    1.000
    N40      N        0.59420    0.91810    0.19390    1.000
    C100     C        0.64560    0.96890    0.21650    1.000
    H119     H        0.67550    0.99850    0.18820    1.000
    O20      O        0.49030    0.81490    0.19510    1.000
    H120     H        0.56300    0.82530    0.83000    1.000
    Zn11     Zn       0.33146    0.43277    0.09693    1.000
    N41      N        0.33740    0.37340    0.04150    1.000
    C101     C        0.29520    0.31670    0.02540    1.000
    C102     C        0.23410    0.28210    0.05660    1.000
    H121     H        0.21950    0.29570    0.09260    1.000
    C103     C        0.20080    0.22440    0.02280    1.000
    H122     H        0.15950    0.20110    0.03290    1.000
    C104     C        0.13900    0.17800    0.04800    1.000
    H123     H        0.13560    0.13890    0.05060    1.000
    H124     H        0.10830    0.17590    0.01620    1.000
    H125     H        0.13150    0.18930    0.09320    1.000
    N42      N        0.25980    0.43180    0.06320    1.000
    C105     C        0.24360    0.43380    0.99880    1.000
    C106     C        0.27510    0.43280    0.93330    1.000
    H126     H        0.31080    0.43090    0.93240    1.000
    C107     C        0.24450    0.43530    0.87280    1.000
    C108     C        0.29000    0.43700    0.82100    1.000
    H127     H        0.29400    0.46250    0.78320    1.000
    H128     H        0.27620    0.39610    0.80470    1.000
    H129     H        0.32870    0.45170    0.84390    1.000
    N43      N        0.40020    0.51290    0.07270    1.000
    C109     C        0.39250    0.55240    0.03880    1.000
    H130     H        0.35660    0.54550    0.01800    1.000
    O21      O        0.53400    0.54730    0.13130    1.000
    N44      N        0.32390    0.40580    0.19390    1.000
    C110     C        0.32330    0.35440    0.21650    1.000
    H131     H        0.32300    0.32450    0.18820    1.000
    O22      O        0.32460    0.50970    0.19510    1.000
    H132     H        0.26230    0.43700    0.83000    1.000
    Zn12     Zn       0.10131    0.66854    0.09693    1.000
    N45      N        0.03600    0.66260    0.04150    1.000
    C111     C        0.02150    0.70480    0.02540    1.000
    C112     C        0.04800    0.76590    0.05660    1.000
    H133     H        0.07620    0.78050    0.09260    1.000
    C113     C        0.02360    0.79920    0.02280    1.000
    H134     H        0.04160    0.84050    0.03290    1.000
    C114     C        0.03900    0.86100    0.04800    1.000
    H135     H        0.00330    0.86440    0.05060    1.000
    H136     H        0.06760    0.89170    0.01620    1.000
    H137     H        0.05780    0.86850    0.09320    1.000
    N46      N        0.17200    0.74020    0.06320    1.000
    C115     C        0.19020    0.75640    0.99880    1.000
    C116     C        0.15770    0.72490    0.93330    1.000
    H138     H        0.12010    0.68920    0.93240    1.000
    C117     C        0.19080    0.75550    0.87280    1.000
    C118     C        0.14700    0.71000    0.82100    1.000
    H139     H        0.16850    0.70600    0.78320    1.000
    H140     H        0.11990    0.72380    0.80470    1.000
    H141     H        0.12300    0.67130    0.84390    1.000
    N47      N        0.11270    0.59980    0.07270    1.000
    C119     C        0.15990    0.60750    0.03880    1.000
    H142     H        0.18890    0.64340    0.01800    1.000
    O23      O        0.01330    0.46600    0.13130    1.000
    N48      N        0.08190    0.67610    0.19390    1.000
    C120     C        0.03110    0.67670    0.21650    1.000
    H143     H        0.00150    0.67700    0.18820    1.000
    O24      O        0.18510    0.67540    0.19510    1.000
    H144     H        0.17470    0.73770    0.83000    1.000
    Zn13     Zn       0.89869    0.56723    0.59693    1.000
    N49      N        0.96400    0.62660    0.54150    1.000
    C121     C        0.97850    0.68330    0.52540    1.000
    C122     C        0.95200    0.71790    0.55660    1.000
    H145     H        0.92380    0.70430    0.59260    1.000
    C123     C        0.97640    0.77560    0.52280    1.000
    H146     H        0.95840    0.79890    0.53290    1.000
    C124     C        0.96100    0.82200    0.54800    1.000
    H147     H        0.99670    0.86110    0.55060    1.000
    H148     H        0.93240    0.82410    0.51620    1.000
    H149     H        0.94220    0.81070    0.59320    1.000
    N50      N        0.82800    0.56820    0.56320    1.000
    C125     C        0.80980    0.56620    0.49880    1.000
    C126     C        0.84230    0.56720    0.43330    1.000
    H150     H        0.87990    0.56910    0.43240    1.000
    C127     C        0.80920    0.56470    0.37280    1.000
    C128     C        0.85300    0.56300    0.32100    1.000
    H151     H        0.83150    0.53750    0.28320    1.000
    H152     H        0.88010    0.60390    0.30470    1.000
    H153     H        0.87700    0.54830    0.34390    1.000
    N51      N        0.88730    0.48710    0.57270    1.000
    C129     C        0.84010    0.44760    0.53880    1.000
    H154     H        0.81110    0.45450    0.51800    1.000
    O25      O        0.98670    0.45270    0.63130    1.000
    N52      N        0.91810    0.59420    0.69390    1.000
    C130     C        0.96890    0.64560    0.71650    1.000
    H155     H        0.99850    0.67550    0.68820    1.000
    O26      O        0.81490    0.49030    0.69510    1.000
    H156     H        0.82530    0.56300    0.33000    1.000
    Zn14     Zn       0.43277    0.33146    0.59693    1.000
    N53      N        0.37340    0.33740    0.54150    1.000
    C131     C        0.31670    0.29520    0.52540    1.000
    C132     C        0.28210    0.23410    0.55660    1.000
    H157     H        0.29570    0.21950    0.59260    1.000
    C133     C        0.22440    0.20080    0.52280    1.000
    H158     H        0.20110    0.15950    0.53290    1.000
    C134     C        0.17800    0.13900    0.54800    1.000
    H159     H        0.13890    0.13560    0.55060    1.000
    H160     H        0.17590    0.10830    0.51620    1.000
    H161     H        0.18930    0.13150    0.59320    1.000
    N54      N        0.43180    0.25980    0.56320    1.000
    C135     C        0.43380    0.24360    0.49880    1.000
    C136     C        0.43280    0.27510    0.43330    1.000
    H162     H        0.43090    0.31080    0.43240    1.000
    C137     C        0.43530    0.24450    0.37280    1.000
    C138     C        0.43700    0.29000    0.32100    1.000
    H163     H        0.46250    0.29400    0.28320    1.000
    H164     H        0.39610    0.27620    0.30470    1.000
    H165     H        0.45170    0.32870    0.34390    1.000
    N55      N        0.51290    0.40020    0.57270    1.000
    C139     C        0.55240    0.39250    0.53880    1.000
    H166     H        0.54550    0.35660    0.51800    1.000
    O27      O        0.54730    0.53400    0.63130    1.000
    N56      N        0.40580    0.32390    0.69390    1.000
    C140     C        0.35440    0.32330    0.71650    1.000
    H167     H        0.32450    0.32300    0.68820    1.000
    O28      O        0.50970    0.32460    0.69510    1.000
    H168     H        0.43700    0.26230    0.33000    1.000
    Zn15     Zn       0.66854    0.10131    0.59693    1.000
    N57      N        0.66260    0.03600    0.54150    1.000
    C141     C        0.70480    0.02150    0.52540    1.000
    C142     C        0.76590    0.04800    0.55660    1.000
    H169     H        0.78050    0.07620    0.59260    1.000
    C143     C        0.79920    0.02360    0.52280    1.000
    H170     H        0.84050    0.04160    0.53290    1.000
    C144     C        0.86100    0.03900    0.54800    1.000
    H171     H        0.86440    0.00330    0.55060    1.000
    H172     H        0.89170    0.06760    0.51620    1.000
    H173     H        0.86850    0.05780    0.59320    1.000
    N58      N        0.74020    0.17200    0.56320    1.000
    C145     C        0.75640    0.19020    0.49880    1.000
    C146     C        0.72490    0.15770    0.43330    1.000
    H174     H        0.68920    0.12010    0.43240    1.000
    C147     C        0.75550    0.19080    0.37280    1.000
    C148     C        0.71000    0.14700    0.32100    1.000
    H175     H        0.70600    0.16850    0.28320    1.000
    H176     H        0.72380    0.11990    0.30470    1.000
    H177     H        0.67130    0.12300    0.34390    1.000
    N59      N        0.59980    0.11270    0.57270    1.000
    C149     C        0.60750    0.15990    0.53880    1.000
    H178     H        0.64340    0.18890    0.51800    1.000
    O29      O        0.46600    0.01330    0.63130    1.000
    N60      N        0.67610    0.08190    0.69390    1.000
    C150     C        0.67670    0.03110    0.71650    1.000
    H179     H        0.67700    0.00150    0.68820    1.000
    O30      O        0.67540    0.18510    0.69510    1.000
    H180     H        0.73770    0.17470    0.33000    1.000
    Zn16     Zn       0.10131    0.43277    0.09693    1.000
    N61      N        0.03600    0.37340    0.04150    1.000
    C151     C        0.02150    0.31670    0.02540    1.000
    C152     C        0.04800    0.28210    0.05660    1.000
    H181     H        0.07620    0.29570    0.09260    1.000
    C153     C        0.02360    0.22440    0.02280    1.000
    H182     H        0.04160    0.20110    0.03290    1.000
    C154     C        0.03900    0.17800    0.04800    1.000
    H183     H        0.00330    0.13890    0.05060    1.000
    H184     H        0.06760    0.17590    0.01620    1.000
    H185     H        0.05780    0.18930    0.09320    1.000
    N62      N        0.17200    0.43180    0.06320    1.000
    C155     C        0.19020    0.43380    0.99880    1.000
    C156     C        0.15770    0.43280    0.93330    1.000
    H186     H        0.12010    0.43090    0.93240    1.000
    C157     C        0.19080    0.43530    0.87280    1.000
    C158     C        0.14700    0.43700    0.82100    1.000
    H187     H        0.16850    0.46250    0.78320    1.000
    H188     H        0.11990    0.39610    0.80470    1.000
    H189     H        0.12300    0.45170    0.84390    1.000
    N63      N        0.11270    0.51290    0.07270    1.000
    C159     C        0.15990    0.55240    0.03880    1.000
    H190     H        0.18890    0.54550    0.01800    1.000
    O31      O        0.01330    0.54730    0.13130    1.000
    N64      N        0.08190    0.40580    0.19390    1.000
    C160     C        0.03110    0.35440    0.21650    1.000
    H191     H        0.00150    0.32450    0.18820    1.000
    O32      O        0.18510    0.50970    0.19510    1.000
    H192     H        0.17470    0.43700    0.83000    1.000
    Zn17     Zn       0.56723    0.66854    0.09693    1.000
    N65      N        0.62660    0.66260    0.04150    1.000
    C161     C        0.68330    0.70480    0.02540    1.000
    C162     C        0.71790    0.76590    0.05660    1.000
    H193     H        0.70430    0.78050    0.09260    1.000
    C163     C        0.77560    0.79920    0.02280    1.000
    H194     H        0.79890    0.84050    0.03290    1.000
    C164     C        0.82200    0.86100    0.04800    1.000
    H195     H        0.86110    0.86440    0.05060    1.000
    H196     H        0.82410    0.89170    0.01620    1.000
    H197     H        0.81070    0.86850    0.09320    1.000
    N66      N        0.56820    0.74020    0.06320    1.000
    C165     C        0.56620    0.75640    0.99880    1.000
    C166     C        0.56720    0.72490    0.93330    1.000
    H198     H        0.56910    0.68920    0.93240    1.000
    C167     C        0.56470    0.75550    0.87280    1.000
    C168     C        0.56300    0.71000    0.82100    1.000
    H199     H        0.53750    0.70600    0.78320    1.000
    H200     H        0.60390    0.72380    0.80470    1.000
    H201     H        0.54830    0.67130    0.84390    1.000
    N67      N        0.48710    0.59980    0.07270    1.000
    C169     C        0.44760    0.60750    0.03880    1.000
    H202     H        0.45450    0.64340    0.01800    1.000
    O33      O        0.45270    0.46600    0.13130    1.000
    N68      N        0.59420    0.67610    0.19390    1.000
    C170     C        0.64560    0.67670    0.21650    1.000
    H203     H        0.67550    0.67700    0.18820    1.000
    O34      O        0.49030    0.67540    0.19510    1.000
    H204     H        0.56300    0.73770    0.83000    1.000
    Zn18     Zn       0.33146    0.89869    0.09693    1.000
    N69      N        0.33740    0.96400    0.04150    1.000
    C171     C        0.29520    0.97850    0.02540    1.000
    C172     C        0.23410    0.95200    0.05660    1.000
    H205     H        0.21950    0.92380    0.09260    1.000
    C173     C        0.20080    0.97640    0.02280    1.000
    H206     H        0.15950    0.95840    0.03290    1.000
    C174     C        0.13900    0.96100    0.04800    1.000
    H207     H        0.13560    0.99670    0.05060    1.000
    H208     H        0.10830    0.93240    0.01620    1.000
    H209     H        0.13150    0.94220    0.09320    1.000
    N70      N        0.25980    0.82800    0.06320    1.000
    C175     C        0.24360    0.80980    0.99880    1.000
    C176     C        0.27510    0.84230    0.93330    1.000
    H210     H        0.31080    0.87990    0.93240    1.000
    C177     C        0.24450    0.80920    0.87280    1.000
    C178     C        0.29000    0.85300    0.82100    1.000
    H211     H        0.29400    0.83150    0.78320    1.000
    H212     H        0.27620    0.88010    0.80470    1.000
    H213     H        0.32870    0.87700    0.84390    1.000
    N71      N        0.40020    0.88730    0.07270    1.000
    C179     C        0.39250    0.84010    0.03880    1.000
    H214     H        0.35660    0.81110    0.01800    1.000
    O35      O        0.53400    0.98670    0.13130    1.000
    N72      N        0.32390    0.91810    0.19390    1.000
    C180     C        0.32330    0.96890    0.21650    1.000
    H215     H        0.32300    0.99850    0.18820    1.000
    O36      O        0.32460    0.81490    0.19510    1.000
    H216     H        0.26230    0.82530    0.83000    1.000
    Zn19     Zn       0.56723    0.89869    0.40307    1.000
    N73      N        0.62660    0.96400    0.45850    1.000
    C181     C        0.68330    0.97850    0.47460    1.000
    C182     C        0.71790    0.95200    0.44340    1.000
    H217     H        0.70430    0.92380    0.40740    1.000
    C183     C        0.77560    0.97640    0.47720    1.000
    H218     H        0.79890    0.95840    0.46710    1.000
    C184     C        0.82200    0.96100    0.45200    1.000
    H219     H        0.86110    0.99670    0.44940    1.000
    H220     H        0.82410    0.93240    0.48380    1.000
    H221     H        0.81070    0.94220    0.40680    1.000
    N74      N        0.56820    0.82800    0.43680    1.000
    C185     C        0.56620    0.80980    0.50120    1.000
    C186     C        0.56720    0.84230    0.56670    1.000
    H222     H        0.56910    0.87990    0.56760    1.000
    C187     C        0.56470    0.80920    0.62720    1.000
    C188     C        0.56300    0.85300    0.67900    1.000
    H223     H        0.53750    0.83150    0.71680    1.000
    H224     H        0.60390    0.88010    0.69530    1.000
    H225     H        0.54830    0.87700    0.65610    1.000
    N75      N        0.48710    0.88730    0.42730    1.000
    C189     C        0.44760    0.84010    0.46120    1.000
    H226     H        0.45450    0.81110    0.48200    1.000
    O37      O        0.45270    0.98670    0.36870    1.000
    N76      N        0.59420    0.91810    0.30610    1.000
    C190     C        0.64560    0.96890    0.28350    1.000
    H227     H        0.67550    0.99850    0.31180    1.000
    O38      O        0.49030    0.81490    0.30490    1.000
    H228     H        0.56300    0.82530    0.67000    1.000
    Zn20     Zn       0.33146    0.43277    0.40307    1.000
    N77      N        0.33740    0.37340    0.45850    1.000
    C191     C        0.29520    0.31670    0.47460    1.000
    C192     C        0.23410    0.28210    0.44340    1.000
    H229     H        0.21950    0.29570    0.40740    1.000
    C193     C        0.20080    0.22440    0.47720    1.000
    H230     H        0.15950    0.20110    0.46710    1.000
    C194     C        0.13900    0.17800    0.45200    1.000
    H231     H        0.13560    0.13890    0.44940    1.000
    H232     H        0.10830    0.17590    0.48380    1.000
    H233     H        0.13150    0.18930    0.40680    1.000
    N78      N        0.25980    0.43180    0.43680    1.000
    C195     C        0.24360    0.43380    0.50120    1.000
    C196     C        0.27510    0.43280    0.56670    1.000
    H234     H        0.31080    0.43090    0.56760    1.000
    C197     C        0.24450    0.43530    0.62720    1.000
    C198     C        0.29000    0.43700    0.67900    1.000
    H235     H        0.29400    0.46250    0.71680    1.000
    H236     H        0.27620    0.39610    0.69530    1.000
    H237     H        0.32870    0.45170    0.65610    1.000
    N79      N        0.40020    0.51290    0.42730    1.000
    C199     C        0.39250    0.55240    0.46120    1.000
    H238     H        0.35660    0.54550    0.48200    1.000
    O39      O        0.53400    0.54730    0.36870    1.000
    N80      N        0.32390    0.40580    0.30610    1.000
    C200     C        0.32330    0.35440    0.28350    1.000
    H239     H        0.32300    0.32450    0.31180    1.000
    O40      O        0.32460    0.50970    0.30490    1.000
    H240     H        0.26230    0.43700    0.67000    1.000
    Zn21     Zn       0.10131    0.66854    0.40307    1.000
    N81      N        0.03600    0.66260    0.45850    1.000
    C201     C        0.02150    0.70480    0.47460    1.000
    C202     C        0.04800    0.76590    0.44340    1.000
    H241     H        0.07620    0.78050    0.40740    1.000
    C203     C        0.02360    0.79920    0.47720    1.000
    H242     H        0.04160    0.84050    0.46710    1.000
    C204     C        0.03900    0.86100    0.45200    1.000
    H243     H        0.00330    0.86440    0.44940    1.000
    H244     H        0.06760    0.89170    0.48380    1.000
    H245     H        0.05780    0.86850    0.40680    1.000
    N82      N        0.17200    0.74020    0.43680    1.000
    C205     C        0.19020    0.75640    0.50120    1.000
    C206     C        0.15770    0.72490    0.56670    1.000
    H246     H        0.12010    0.68920    0.56760    1.000
    C207     C        0.19080    0.75550    0.62720    1.000
    C208     C        0.14700    0.71000    0.67900    1.000
    H247     H        0.16850    0.70600    0.71680    1.000
    H248     H        0.11990    0.72380    0.69530    1.000
    H249     H        0.12300    0.67130    0.65610    1.000
    N83      N        0.11270    0.59980    0.42730    1.000
    C209     C        0.15990    0.60750    0.46120    1.000
    H250     H        0.18890    0.64340    0.48200    1.000
    O41      O        0.01330    0.46600    0.36870    1.000
    N84      N        0.08190    0.67610    0.30610    1.000
    C210     C        0.03110    0.67670    0.28350    1.000
    H251     H        0.00150    0.67700    0.31180    1.000
    O42      O        0.18510    0.67540    0.30490    1.000
    H252     H        0.17470    0.73770    0.67000    1.000
    Zn22     Zn       0.43277    0.10131    0.90307    1.000
    N85      N        0.37340    0.03600    0.95850    1.000
    C211     C        0.31670    0.02150    0.97460    1.000
    C212     C        0.28210    0.04800    0.94340    1.000
    H253     H        0.29570    0.07620    0.90740    1.000
    C213     C        0.22440    0.02360    0.97720    1.000
    H254     H        0.20110    0.04160    0.96710    1.000
    C214     C        0.17800    0.03900    0.95200    1.000
    H255     H        0.13890    0.00330    0.94940    1.000
    H256     H        0.17590    0.06760    0.98380    1.000
    H257     H        0.18930    0.05780    0.90680    1.000
    N86      N        0.43180    0.17200    0.93680    1.000
    C215     C        0.43380    0.19020    0.00120    1.000
    C216     C        0.43280    0.15770    0.06670    1.000
    H258     H        0.43090    0.12010    0.06760    1.000
    C217     C        0.43530    0.19080    0.12720    1.000
    C218     C        0.43700    0.14700    0.17900    1.000
    H259     H        0.46250    0.16850    0.21680    1.000
    H260     H        0.39610    0.11990    0.19530    1.000
    H261     H        0.45170    0.12300    0.15610    1.000
    N87      N        0.51290    0.11270    0.92730    1.000
    C219     C        0.55240    0.15990    0.96120    1.000
    H262     H        0.54550    0.18890    0.98200    1.000
    O43      O        0.54730    0.01330    0.86870    1.000
    N88      N        0.40580    0.08190    0.80610    1.000
    C220     C        0.35440    0.03110    0.78350    1.000
    H263     H        0.32450    0.00150    0.81180    1.000
    O44      O        0.50970    0.18510    0.80490    1.000
    H264     H        0.43700    0.17470    0.17000    1.000
    Zn23     Zn       0.66854    0.56723    0.90307    1.000
    N89      N        0.66260    0.62660    0.95850    1.000
    C221     C        0.70480    0.68330    0.97460    1.000
    C222     C        0.76590    0.71790    0.94340    1.000
    H265     H        0.78050    0.70430    0.90740    1.000
    C223     C        0.79920    0.77560    0.97720    1.000
    H266     H        0.84050    0.79890    0.96710    1.000
    C224     C        0.86100    0.82200    0.95200    1.000
    H267     H        0.86440    0.86110    0.94940    1.000
    H268     H        0.89170    0.82410    0.98380    1.000
    H269     H        0.86850    0.81070    0.90680    1.000
    N90      N        0.74020    0.56820    0.93680    1.000
    C225     C        0.75640    0.56620    0.00120    1.000
    C226     C        0.72490    0.56720    0.06670    1.000
    H270     H        0.68920    0.56910    0.06760    1.000
    C227     C        0.75550    0.56470    0.12720    1.000
    C228     C        0.71000    0.56300    0.17900    1.000
    H271     H        0.70600    0.53750    0.21680    1.000
    H272     H        0.72380    0.60390    0.19530    1.000
    H273     H        0.67130    0.54830    0.15610    1.000
    N91      N        0.59980    0.48710    0.92730    1.000
    C229     C        0.60750    0.44760    0.96120    1.000
    H274     H        0.64340    0.45450    0.98200    1.000
    O45      O        0.46600    0.45270    0.86870    1.000
    N92      N        0.67610    0.59420    0.80610    1.000
    C230     C        0.67670    0.64560    0.78350    1.000
    H275     H        0.67700    0.67550    0.81180    1.000
    O46      O        0.67540    0.49030    0.80490    1.000
    H276     H        0.73770    0.56300    0.17000    1.000
    Zn24     Zn       0.89869    0.33146    0.90307    1.000
    N93      N        0.96400    0.33740    0.95850    1.000
    C231     C        0.97850    0.29520    0.97460    1.000
    C232     C        0.95200    0.23410    0.94340    1.000
    H277     H        0.92380    0.21950    0.90740    1.000
    C233     C        0.97640    0.20080    0.97720    1.000
    H278     H        0.95840    0.15950    0.96710    1.000
    C234     C        0.96100    0.13900    0.95200    1.000
    H279     H        0.99670    0.13560    0.94940    1.000
    H280     H        0.93240    0.10830    0.98380    1.000
    H281     H        0.94220    0.13150    0.90680    1.000
    N94      N        0.82800    0.25980    0.93680    1.000
    C235     C        0.80980    0.24360    0.00120    1.000
    C236     C        0.84230    0.27510    0.06670    1.000
    H282     H        0.87990    0.31080    0.06760    1.000
    C237     C        0.80920    0.24450    0.12720    1.000
    C238     C        0.85300    0.29000    0.17900    1.000
    H283     H        0.83150    0.29400    0.21680    1.000
    H284     H        0.88010    0.27620    0.19530    1.000
    H285     H        0.87700    0.32870    0.15610    1.000
    N95      N        0.88730    0.40020    0.92730    1.000
    C239     C        0.84010    0.39250    0.96120    1.000
    H286     H        0.81110    0.35660    0.98200    1.000
    O47      O        0.98670    0.53400    0.86870    1.000
    N96      N        0.91810    0.32390    0.80610    1.000
    C240     C        0.96890    0.32330    0.78350    1.000
    H287     H        0.99850    0.32300    0.81180    1.000
    O48      O        0.81490    0.32460    0.80490    1.000
    H288     H        0.82530    0.26230    0.17000    1.000
    C241     C        0.00000    0.38360    0.50000    1.000
    H289     H        0.00000    0.42020    0.50000    1.000
    C242     C        0.61640    0.61640    0.50000    1.000
    H290     H        0.57980    0.57980    0.50000    1.000
    C243     C        0.38360    0.00000    0.50000    1.000
    H291     H        0.42020    0.00000    0.50000    1.000
    C244     C        0.00000    0.61640    0.00000    1.000
    H292     H        0.00000    0.57980    0.00000    1.000
    C245     C        0.38360    0.38360    0.00000    1.000
    H293     H        0.42020    0.42020    0.00000    1.000
    C246     C        0.61640    0.00000    0.00000    1.000
    H294     H        0.57980    0.00000    0.00000    1.000
    C247     C        0.00000    0.61640    0.50000    1.000
    H295     H        0.00000    0.57980    0.50000    1.000
    C248     C        0.38360    0.38360    0.50000    1.000
    H296     H        0.42020    0.42020    0.50000    1.000
    C249     C        0.61640    0.00000    0.50000    1.000
    H297     H        0.57980    0.00000    0.50000    1.000
    C250     C        0.00000    0.38360    0.00000    1.000
    H298     H        0.00000    0.42020    0.00000    1.000
    C251     C        0.61640    0.61640    0.00000    1.000
    H299     H        0.57980    0.57980    0.00000    1.000
    C252     C        0.38360    0.00000    0.00000    1.000
    H300     H        0.42020    0.00000    0.00000    1.000
    C253     C        0.21650    0.43300    0.39970    1.000
    H301     H        0.21735    0.43470    0.35140    1.000
    C254     C        0.56700    0.78350    0.39970    1.000
    H302     H        0.56530    0.78265    0.35140    1.000
    C255     C        0.21650    0.78350    0.39970    1.000
    H303     H        0.21735    0.78265    0.35140    1.000
    C256     C        0.78350    0.56700    0.89970    1.000
    H304     H        0.78265    0.56530    0.85140    1.000
    C257     C        0.43300    0.21650    0.89970    1.000
    H305     H        0.43470    0.21735    0.85140    1.000
    C258     C        0.78350    0.21650    0.89970    1.000
    H306     H        0.78265    0.21735    0.85140    1.000
    C259     C        0.43300    0.21650    0.60030    1.000
    H307     H        0.43470    0.21735    0.64860    1.000
    C260     C        0.78350    0.56700    0.60030    1.000
    H308     H        0.78265    0.56530    0.64860    1.000
    C261     C        0.78350    0.21650    0.60030    1.000
    H309     H        0.78265    0.21735    0.64860    1.000
    C262     C        0.56700    0.78350    0.10030    1.000
    H310     H        0.56530    0.78265    0.14860    1.000
    C263     C        0.21650    0.43300    0.10030    1.000
    H311     H        0.21735    0.43470    0.14860    1.000
    C264     C        0.21650    0.78350    0.10030    1.000
    H312     H        0.21735    0.78265    0.14860    1.000
    C265     C        0.09230    0.54615    0.41310    1.000
    N97      N        0.03900    0.51950    0.37510    1.000
    C266     C        0.45385    0.54615    0.41310    1.000
    N98      N        0.48050    0.51950    0.37510    1.000
    C267     C        0.45385    0.90770    0.41310    1.000
    N99      N        0.48050    0.96100    0.37510    1.000
    C268     C        0.90770    0.45385    0.91310    1.000
    N100     N        0.96100    0.48050    0.87510    1.000
    C269     C        0.54615    0.45385    0.91310    1.000
    N101     N        0.51950    0.48050    0.87510    1.000
    C270     C        0.54615    0.09230    0.91310    1.000
    N102     N        0.51950    0.03900    0.87510    1.000
    C271     C        0.54615    0.09230    0.58690    1.000
    N103     N        0.51950    0.03900    0.62490    1.000
    C272     C        0.54615    0.45385    0.58690    1.000
    N104     N        0.51950    0.48050    0.62490    1.000
    C273     C        0.90770    0.45385    0.58690    1.000
    N105     N        0.96100    0.48050    0.62490    1.000
    C274     C        0.45385    0.90770    0.08690    1.000
    N106     N        0.48050    0.96100    0.12490    1.000
    C275     C        0.45385    0.54615    0.08690    1.000
    N107     N        0.48050    0.51950    0.12490    1.000
    C276     C        0.09230    0.54615    0.08690    1.000
    N108     N        0.03900    0.51950    0.12490    1.000
    C277     C        0.10730    0.43000    0.25000    1.000
    N109     N        0.16130    0.48490    0.25000    1.000
    C278     C        0.57000    0.67730    0.25000    1.000
    N110     N        0.51510    0.67640    0.25000    1.000
    C279     C        0.32270    0.89270    0.25000    1.000
    N111     N        0.32360    0.83870    0.25000    1.000
    C280     C        0.89270    0.57000    0.75000    1.000
    N112     N        0.83870    0.51510    0.75000    1.000
    C281     C        0.43000    0.32270    0.75000    1.000
    N113     N        0.48490    0.32360    0.75000    1.000
    C282     C        0.67730    0.10730    0.75000    1.000
    N114     N        0.67640    0.16130    0.75000    1.000
    C283     C        0.43000    0.10730    0.75000    1.000
    N115     N        0.48490    0.16130    0.75000    1.000
    C284     C        0.67730    0.57000    0.75000    1.000
    N116     N        0.67640    0.51510    0.75000    1.000
    C285     C        0.89270    0.32270    0.75000    1.000
    N117     N        0.83870    0.32360    0.75000    1.000
    C286     C        0.57000    0.89270    0.25000    1.000
    N118     N        0.51510    0.83870    0.25000    1.000
    C287     C        0.32270    0.43000    0.25000    1.000
    N119     N        0.32360    0.48490    0.25000    1.000
    C288     C        0.10730    0.67730    0.25000    1.000
    N120     N        0.16130    0.67640    0.25000    1.000
