data_functionalizedCrystal
_audit_creation_method	'EQeq! by Chris Wilmer'
_symmetry_space_group_name_H-M	'P1'
_symmetry_Int_Tables_number	1
_symmetry_cell_setting	triclinic
loop_
_symmetry_equiv_pos_as_xyz
  x,y,z
_cell_length_a	6.626
_cell_length_b	13.052
_cell_length_c	13.958
_cell_angle_alpha	90
_cell_angle_beta	90
_cell_angle_gamma	90
loop_
_atom_site_label
_atom_site_type_symbol
_atom_site_fract_x
_atom_site_fract_y
_atom_site_fract_z
_atom_site_charge
Mof_Cd	Cd	-1.47971e-32	0.25	0.77423	0.397
Mof_Cd	Cd	0.5	0.75	0.72577	0.456
Mof_Cd	Cd	-8.67288e-33	0.75	0.22577	0.351
Mof_Cd	Cd	0.5	0.25	0.27423	0.439
Mof_Cu	Cu	0.5	0.5	0.5	0.951
Mof_Cu	Cu	-0	0	-0	0.82
Mof_Cu	Cu	0.5	0	0.5	0.911
Mof_Cu	Cu	-1.04561e-32	0.5	-0	0.858
Mof_H 	H 	0.4336	0.3815	0.7236	0.272
Mof_H 	H 	0.6441	0.3976	0.7714	0.284
Mof_H 	H 	0.0664	0.8815	0.7764	0.13
Mof_H 	H 	0.8559	0.8976	0.7286	0.187
Mof_H 	H 	0.5664	0.1185	0.7236	0.307
Mof_H 	H 	0.3559	0.1024	0.7714	0.297
Mof_H 	H 	0.9336	0.6185	0.7764	0.351
Mof_H 	H 	0.1441	0.6024	0.7286	0.279
Mof_H 	H 	0.5664	0.6185	0.2764	0.264
Mof_H 	H 	0.3559	0.6024	0.2286	0.245
Mof_H 	H 	0.9336	0.1185	0.2236	0.387
Mof_H 	H 	0.1441	0.1024	0.2714	0.317
Mof_H 	H 	0.4336	0.8815	0.2764	0.226
Mof_H 	H 	0.6441	0.8976	0.2286	0.231
Mof_H 	H 	0.0664	0.3815	0.2236	0.167
Mof_H 	H 	0.8559	0.3976	0.2714	0.228
Mof_C 	C 	0.6657	0.3507	0.63298	0.538
Mof_C 	C 	0.5669	0.4101	0.7135	-0.729
Mof_C 	C 	0.544	0.5245	0.7025	0.525
Mof_C 	C 	0.8343	0.8507	0.86702	0.442
Mof_C 	C 	0.9331	0.9101	0.7865	-0.38
Mof_C 	C 	0.956	0.0245	0.7975	0.423
Mof_C 	C 	0.3343	0.1493	0.63298	0.561
Mof_C 	C 	0.4331	0.0899	0.7135	-0.872
Mof_C 	C 	0.456	0.9755	0.7025	0.628
Mof_C 	C 	0.1657	0.6493	0.86702	0.536
Mof_C 	C 	0.0669	0.5899	0.7865	-0.826
Mof_C 	C 	0.044	0.4755	0.7975	0.443
Mof_C 	C 	0.3343	0.6493	0.36702	0.52
Mof_C 	C 	0.4331	0.5899	0.2865	-0.716
Mof_C 	C 	0.456	0.4755	0.2975	0.509
Mof_C 	C 	0.1657	0.1493	0.13298	0.595
Mof_C 	C 	0.0669	0.0899	0.2135	-1.008
Mof_C 	C 	0.044	0.9755	0.2025	0.571
Mof_C 	C 	0.6657	0.8507	0.36702	0.492
Mof_C 	C 	0.5669	0.9101	0.2865	-0.559
Mof_C 	C 	0.544	0.0245	0.2975	0.4
Mof_C 	C 	0.8343	0.3507	0.13298	0.508
Mof_C 	C 	0.9331	0.4101	0.2135	-0.578
Mof_C 	C 	0.956	0.5245	0.2025	0.578
Mof_O 	O 	0.7631	0.27235	0.6535	-0.304
Mof_O 	O 	0.6376	0.37808	0.54691	-0.41
Mof_O 	O 	0.4933	0.56341	0.62323	-0.456
Mof_O 	O 	0.566	0.58042	0.77397	-0.331
Mof_O 	O 	0.7369	0.77235	0.8465	-0.269
Mof_O 	O 	0.8624	0.87808	0.95309	-0.257
Mof_O 	O 	0.0067	0.06341	0.87677	-0.449
Mof_O 	O 	0.934	0.08042	0.72603	-0.301
Mof_O 	O 	0.2369	0.22765	0.6535	-0.355
Mof_O 	O 	0.3624	0.12192	0.54691	-0.455
Mof_O 	O 	0.5067	0.93659	0.62323	-0.443
Mof_O 	O 	0.434	0.91958	0.77397	-0.339
Mof_O 	O 	0.2631	0.72765	0.8465	-0.318
Mof_O 	O 	0.1376	0.62192	0.95309	-0.363
Mof_O 	O 	0.9933	0.43659	0.87677	-0.303
Mof_O 	O 	0.066	0.41958	0.72603	-0.35
Mof_O 	O 	0.2369	0.72765	0.3465	-0.335
Mof_O 	O 	0.3624	0.62192	0.45309	-0.422
Mof_O 	O 	0.5067	0.43659	0.37677	-0.453
Mof_O 	O 	0.434	0.41958	0.22603	-0.357
Mof_O 	O 	0.2631	0.22765	0.1535	-0.378
Mof_O 	O 	0.1376	0.12192	0.04691	-0.516
Mof_O 	O 	0.9933	0.93659	0.12323	-0.373
Mof_O 	O 	0.066	0.91958	0.27397	-0.362
Mof_O 	O 	0.7631	0.77235	0.3465	-0.28
Mof_O 	O 	0.6376	0.87808	0.45309	-0.36
Mof_O 	O 	0.4933	0.06341	0.37677	-0.448
Mof_O 	O 	0.566	0.08042	0.22603	-0.345
Mof_O 	O 	0.7369	0.27235	0.1535	-0.328
Mof_O 	O 	0.8624	0.37808	0.04691	-0.421
Mof_O 	O 	0.0067	0.56341	0.12323	-0.557
Mof_O 	O 	0.934	0.58042	0.27397	-0.318
_end
