data_functionalizedCrystal
_audit_creation_method	'EQeq! by Chris Wilmer'
_symmetry_space_group_name_H-M	'P1'
_symmetry_Int_Tables_number	1
_symmetry_cell_setting	triclinic
loop_
_symmetry_equiv_pos_as_xyz
  x,y,z
_cell_length_a	6.694
_cell_length_b	32.1967
_cell_length_c	32.1967
_cell_angle_alpha	60.4755
_cell_angle_beta	86.0261
_cell_angle_gamma	93.9739
loop_
_atom_site_label
_atom_site_type_symbol
_atom_site_fract_x
_atom_site_fract_y
_atom_site_fract_z
_atom_site_charge
Mof_Mg	Mg	0.28374	0.3703	0.32628	1.48
Mof_Mg	Mg	0.71495	0.63018	0.67253	1.48
Mof_Mg	Mg	0.61002	0.32628	0.30342	1.48
Mof_Mg	Mg	0.38748	0.67253	0.69729	1.48
Mof_Mg	Mg	0.91344	0.30342	0.3703	1.479
Mof_Mg	Mg	0.08477	0.69729	0.63018	1.479
Mof_H 	H 	0.62765	0.51936	0.42281	0.043
Mof_H 	H 	0.96758	0.4253	0.51292	0.034
Mof_H 	H 	0.20283	0.53731	0.56325	0.058
Mof_H 	H 	0.42309	0.57214	0.6006	0.002
Mof_H 	H 	0.72814	0.61526	0.57658	0.092
Mof_H 	H 	0.2727	0.3903	0.42008	0.097
Mof_H 	H 	0.57238	0.4294	0.39705	-0.013
Mof_H 	H 	0.78992	0.46558	0.43353	0.067
Mof_H 	H 	0.7362	0.62149	0.49626	0.035
Mof_H 	H 	0.64592	0.4439	0.55942	0.04
Mof_H 	H 	0.29957	0.47192	0.36184	0.063
Mof_H 	H 	0.55875	0.46847	0.37528	0.069
Mof_H 	H 	0.45914	0.52648	0.34851	0.059
Mof_H 	H 	0.27075	0.43605	0.58769	0.056
Mof_H 	H 	0.01311	0.43878	0.57314	0.054
Mof_H 	H 	0.16958	0.49386	0.55949	0.053
Mof_H 	H 	0.57166	0.62866	0.42645	0.057
Mof_H 	H 	0.34892	0.60751	0.47064	0.06
Mof_H 	H 	0.3988	0.57752	0.43585	0.064
Mof_H 	H 	0.79193	0.46615	0.64263	0.058
Mof_H 	H 	0.03523	0.4808	0.60664	0.054
Mof_H 	H 	0.8576	0.43152	0.61352	0.052
Mof_H 	H 	0.05046	0.42281	0.05783	0.041
Mof_H 	H 	0.4805	0.51292	0.06178	0.034
Mof_H 	H 	0.76608	0.56325	0.89944	0.06
Mof_H 	H 	0.02369	0.6006	0.82726	-0.01
Mof_H 	H 	0.30472	0.57658	0.80816	0.097
Mof_H 	H 	0.69278	0.42008	0.18962	0.1
Mof_H 	H 	0.96943	0.39705	0.17355	-0.016
Mof_H 	H 	0.22345	0.43353	0.10089	0.067
Mof_H 	H 	0.23246	0.49626	0.88225	0.031
Mof_H 	H 	0.20534	0.55942	0.99668	0.039
Mof_H 	H 	0.66141	0.36184	0.16624	0.063
Mof_H 	H 	0.93403	0.37528	0.15625	0.069
Mof_H 	H 	0.80765	0.34851	0.12501	0.059
Mof_H 	H 	0.85844	0.58769	0.97626	0.058
Mof_H 	H 	0.58625	0.57314	0.98808	0.056
Mof_H 	H 	0.72907	0.55949	0.94665	0.055
Mof_H 	H 	0.99811	0.42645	0.94489	0.058
Mof_H 	H 	0.81956	0.47064	0.92185	0.062
Mof_H 	H 	0.83465	0.43585	0.98663	0.063
Mof_H 	H 	0.43456	0.64263	0.89122	0.059
Mof_H 	H 	0.64187	0.60664	0.91256	0.062
Mof_H 	H 	0.47112	0.61352	0.95496	0.053
Mof_H 	H 	0.10829	0.05783	0.51936	0.042
Mof_H 	H 	0.54228	0.06178	0.4253	0.033
Mof_H 	H 	0.66552	0.89944	0.53731	0.057
Mof_H 	H 	0.85095	0.82726	0.57214	0.005
Mof_H 	H 	0.11288	0.80816	0.61526	0.092
Mof_H 	H 	0.8824	0.18962	0.3903	0.098
Mof_H 	H 	0.14298	0.17355	0.4294	-0.013
Mof_H 	H 	0.32434	0.10089	0.46558	0.066
Mof_H 	H 	0.11471	0.88225	0.62149	0.031
Mof_H 	H 	0.20202	0.99668	0.4439	0.038
Mof_H 	H 	0.82765	0.16624	0.47192	0.063
Mof_H 	H 	0.09028	0.15625	0.46847	0.072
Mof_H 	H 	0.93266	0.12501	0.52648	0.059
Mof_H 	H 	0.8347	0.97626	0.43605	0.058
Mof_H 	H 	0.57433	0.98808	0.43878	0.056
Mof_H 	H 	0.67572	0.94665	0.49386	0.055
Mof_H 	H 	0.943	0.94489	0.62866	0.057
Mof_H 	H 	0.74141	0.92185	0.60751	0.061
Mof_H 	H 	0.82128	0.98663	0.57752	0.063
Mof_H 	H 	0.32578	0.89122	0.46615	0.057
Mof_H 	H 	0.55443	0.91256	0.4808	0.061
Mof_H 	H 	0.42608	0.95496	0.43152	0.052
Mof_C 	C 	0.35729	0.47854	0.42279	0.077
Mof_C 	C 	0.47997	0.49822	0.44295	-0.088
Mof_C 	C 	0.4228	0.49216	0.48816	-0.003
Mof_C 	C 	0.23882	0.46566	0.51326	0.032
Mof_C 	C 	0.11605	0.44612	0.49297	-0.038
Mof_C 	C 	0.17462	0.45198	0.44807	-0.075
Mof_C 	C 	0.26627	0.58137	0.59564	0.138
Mof_C 	C 	0.14456	0.56205	0.57515	-0.174
Mof_C 	C 	0.95046	0.57297	0.56918	0.135
Mof_C 	C 	0.88275	0.60471	0.58262	-0.211
Mof_C 	C 	0.99763	0.37857	0.39404	0.29
Mof_C 	C 	0.7993	0.3895	0.38727	-0.352
Mof_C 	C 	0.66373	0.37292	0.36271	0.558
Mof_C 	C 	0.33458	0.62832	0.63581	0.552
Mof_C 	C 	0.19883	0.61254	0.61064	-0.343
Mof_C 	C 	0.00157	0.62419	0.6036	0.266
Mof_C 	C 	0.11583	0.39914	0.41422	-0.231
Mof_C 	C 	0.04459	0.43065	0.42749	0.137
Mof_C 	C 	0.85038	0.44088	0.42185	-0.173
Mof_C 	C 	0.72999	0.42077	0.40189	0.146
Mof_C 	C 	0.81748	0.55175	0.54853	-0.067
Mof_C 	C 	0.71429	0.5816	0.51106	-0.043
Mof_C 	C 	0.58371	0.56284	0.49149	0.037
Mof_C 	C 	0.55798	0.51338	0.50854	-0.007
Mof_C 	C 	0.66207	0.4836	0.54581	-0.078
Mof_C 	C 	0.78644	0.50216	0.56665	0.067
Mof_C 	C 	0.42264	0.48685	0.37416	-0.194
Mof_C 	C 	0.16886	0.45814	0.56127	-0.167
Mof_C 	C 	0.46883	0.59615	0.45382	-0.176
Mof_C 	C 	0.87303	0.46811	0.60997	-0.177
Mof_C 	C 	0.78008	0.42279	0.09867	0.077
Mof_C 	C 	0.92292	0.44295	0.05883	-0.086
Mof_C 	C 	0.91096	0.48816	0.01968	0.001
Mof_C 	C 	0.75208	0.51326	0.02108	0.032
Mof_C 	C 	0.60902	0.49297	0.06091	-0.037
Mof_C 	C 	0.62269	0.44807	0.09995	-0.076
Mof_C 	C 	0.86191	0.59564	0.82299	0.162
Mof_C 	C 	0.71971	0.57515	0.8628	-0.172
Mof_C 	C 	0.51964	0.56918	0.85785	0.135
Mof_C 	C 	0.46537	0.58262	0.81267	-0.238
Mof_C 	C 	0.39167	0.39404	0.22739	0.306
Mof_C 	C 	0.18657	0.38727	0.22323	-0.359
Mof_C 	C 	0.02644	0.36271	0.26437	0.568
Mof_C 	C 	0.97039	0.63581	0.73587	0.58
Mof_C 	C 	0.80947	0.61064	0.77682	-0.362
Mof_C 	C 	0.60517	0.6036	0.77221	0.307
Mof_C 	C 	0.53005	0.41422	0.18664	-0.242
Mof_C 	C 	0.47208	0.42749	0.14186	0.139
Mof_C 	C 	0.27223	0.42185	0.13727	-0.174
Mof_C 	C 	0.13188	0.40189	0.17734	0.152
Mof_C 	C 	0.36601	0.54853	0.89972	-0.072
Mof_C 	C 	0.22535	0.51106	0.90734	-0.04
Mof_C 	C 	0.0752	0.49149	0.94567	0.028
Mof_C 	C 	0.06652	0.50854	0.97808	-0.009
Mof_C 	C 	0.20788	0.54581	0.97059	-0.08
Mof_C 	C 	0.35309	0.56665	0.93119	0.07
Mof_C 	C 	0.7968	0.37416	0.13899	-0.194
Mof_C 	C 	0.73013	0.56127	0.98059	-0.166
Mof_C 	C 	0.92265	0.45382	0.95003	-0.168
Mof_C 	C 	0.483	0.60997	0.92192	-0.189
Mof_C 	C 	0.87875	0.09867	0.47854	0.078
Mof_C 	C 	0.98175	0.05883	0.49822	-0.089
Mof_C 	C 	0.93064	0.01968	0.49216	0.003
Mof_C 	C 	0.77316	0.02108	0.46566	0.031
Mof_C 	C 	0.66993	0.06091	0.44612	-0.037
Mof_C 	C 	0.72264	0.09995	0.45198	-0.076
Mof_C 	C 	0.6849	0.82299	0.58137	0.14
Mof_C 	C 	0.58251	0.8628	0.56205	-0.163
Mof_C 	C 	0.37749	0.85785	0.57297	0.128
Mof_C 	C 	0.27804	0.81267	0.60471	-0.235
Mof_C 	C 	0.61906	0.22739	0.37857	0.304
Mof_C 	C 	0.4098	0.22323	0.3895	-0.356
Mof_C 	C 	0.29081	0.26437	0.37292	0.559
Mof_C 	C 	0.70626	0.73587	0.62832	0.555
Mof_C 	C 	0.58629	0.77682	0.61254	-0.35
Mof_C 	C 	0.37738	0.77221	0.62419	0.3
Mof_C 	C 	0.71669	0.18664	0.39914	-0.241
Mof_C 	C 	0.61394	0.14186	0.43065	0.138
Mof_C 	C 	0.4095	0.13727	0.44088	-0.172
Mof_C 	C 	0.30922	0.17734	0.42077	0.147
Mof_C 	C 	0.26573	0.89972	0.55175	-0.07
Mof_C 	C 	0.13269	0.90734	0.5816	-0.042
Mof_C 	C 	0.02087	0.94567	0.56284	0.028
Mof_C 	C 	0.0446	0.97808	0.51338	-0.011
Mof_C 	C 	0.17847	0.97059	0.4836	-0.079
Mof_C 	C 	0.28428	0.93119	0.50216	0.067
Mof_C 	C 	0.93579	0.13899	0.48685	-0.199
Mof_C 	C 	0.71072	0.98059	0.45814	-0.166
Mof_C 	C 	0.87268	0.95003	0.59615	-0.167
Mof_C 	C 	0.40492	0.92192	0.46811	-0.187
Mof_O 	O 	0.08133	0.3458	0.38434	-0.639
Mof_O 	O 	0.71733	0.34584	0.34712	-0.779
Mof_O 	O 	0.49162	0.38662	0.3573	-0.565
Mof_O 	O 	0.50704	0.61476	0.64076	-0.562
Mof_O 	O 	0.28061	0.65458	0.65241	-0.78
Mof_O 	O 	0.91809	0.65625	0.61439	-0.629
Mof_O 	O 	0.46567	0.38434	0.26986	-0.646
Mof_O 	O 	0.06445	0.34712	0.30704	-0.778
Mof_O 	O 	0.84892	0.3573	0.25608	-0.571
Mof_O 	O 	0.1478	0.64076	0.74448	-0.578
Mof_O 	O 	0.93302	0.65241	0.69301	-0.777
Mof_O 	O 	0.53248	0.61439	0.72936	-0.648
Mof_O 	O 	0.73553	0.26986	0.3458	-0.648
Mof_O 	O 	0.37149	0.30704	0.34584	-0.778
Mof_O 	O 	0.105	0.25608	0.38662	-0.563
Mof_O 	O 	0.89228	0.74448	0.61476	-0.556
Mof_O 	O 	0.62603	0.69301	0.65458	-0.776
Mof_O 	O 	0.26184	0.72936	0.65625	-0.651
_end
