data_functionalizedCrystal
_audit_creation_method	'EQeq! by Chris Wilmer'
_symmetry_space_group_name_H-M	'P1'
_symmetry_Int_Tables_number	1
_symmetry_cell_setting	triclinic
loop_
_symmetry_equiv_pos_as_xyz
  x,y,z
_cell_length_a	38.7204
_cell_length_b	38.7204
_cell_length_c	38.7204
_cell_angle_alpha	90
_cell_angle_beta	90
_cell_angle_gamma	90
loop_
_atom_site_label
_atom_site_type_symbol
_atom_site_fract_x
_atom_site_fract_y
_atom_site_fract_z
_atom_site_charge
Mof_O 	O 	0.82577	0.87622	0.96495	-0.406
Mof_O 	O 	0.78584	0.83452	0.96414	-0.396
Mof_C 	C 	0.7995	0.86174	0.95395	0.351
Mof_C 	C 	0.78151	0.88044	0.92488	-0.025
Mof_C 	C 	0.75303	0.86594	0.90863	-0.113
Mof_H 	H 	0.7442	0.8445	0.9165	0.114
Mof_C 	C 	0.69235	0.88172	0.8367	0.205
Mof_C 	C 	0.66197	0.86384	0.81827	-0.062
Mof_O 	O 	0.70069	0.90839	0.82081	-0.227
Mof_C 	C 	0.6695	0.83818	0.79354	0.026
Mof_C 	C 	0.62887	0.87116	0.8267	0.025
Mof_H 	H 	0.6928	0.8324	0.7885	0.02
Mof_C 	C 	0.64327	0.82168	0.77691	-0.127
Mof_C 	C 	0.60194	0.85412	0.81097	-0.121
Mof_H 	H 	0.6242	0.8882	0.8437	0.028
Mof_H 	H 	0.6484	0.8053	0.7594	0.078
Mof_C 	C 	0.60923	0.82859	0.78526	0.12
Mof_H 	H 	0.5788	0.8593	0.8171	0.074
Mof_N 	N 	0.579	0.8113	0.7649	-0.229
Mof_O 	O 	0.576	0.8065	0.7671	0.023
Mof_H 	H 	0.5717	0.8189	0.7442	0.137
Mof_H 	H 	0.6983	0.8452	0.8731	-0.006
Mof_O 	O 	0.32577	0.37622	0.46495	-0.41
Mof_O 	O 	0.28584	0.33452	0.46414	-0.4
Mof_C 	C 	0.2995	0.36174	0.45395	0.352
Mof_C 	C 	0.28151	0.38044	0.42488	-0.027
Mof_C 	C 	0.25303	0.36594	0.40863	-0.112
Mof_H 	H 	0.2442	0.3445	0.4165	0.114
Mof_C 	C 	0.19235	0.38172	0.3367	0.205
Mof_C 	C 	0.16197	0.36384	0.31827	-0.063
Mof_O 	O 	0.20069	0.40839	0.32081	-0.228
Mof_C 	C 	0.1695	0.33818	0.29354	0.026
Mof_C 	C 	0.12887	0.37116	0.3267	0.025
Mof_H 	H 	0.1928	0.3324	0.2885	0.02
Mof_C 	C 	0.14327	0.32168	0.27691	-0.127
Mof_C 	C 	0.10194	0.35412	0.31097	-0.121
Mof_H 	H 	0.1242	0.3882	0.3437	0.026
Mof_H 	H 	0.1484	0.3053	0.2594	0.078
Mof_C 	C 	0.10923	0.32859	0.28526	0.12
Mof_H 	H 	0.0788	0.3593	0.3171	0.073
Mof_N 	N 	0.079	0.3113	0.2649	-0.229
Mof_O 	O 	0.076	0.3065	0.2671	0.023
Mof_H 	H 	0.0717	0.3189	0.2442	0.137
Mof_H 	H 	0.1983	0.3452	0.3731	-0.005
Mof_O 	O 	0.17423	0.12378	0.96495	-0.407
Mof_O 	O 	0.21416	0.16548	0.96414	-0.396
Mof_C 	C 	0.2005	0.13826	0.95395	0.353
Mof_C 	C 	0.21849	0.11956	0.92488	-0.026
Mof_C 	C 	0.24697	0.13406	0.90863	-0.111
Mof_H 	H 	0.2558	0.1555	0.9165	0.115
Mof_C 	C 	0.30765	0.11828	0.8367	0.206
Mof_C 	C 	0.33803	0.13616	0.81827	-0.062
Mof_O 	O 	0.29931	0.09161	0.82081	-0.228
Mof_C 	C 	0.3305	0.16182	0.79354	0.027
Mof_C 	C 	0.37113	0.12884	0.8267	0.026
Mof_H 	H 	0.3072	0.1676	0.7885	0.021
Mof_C 	C 	0.35673	0.17832	0.77691	-0.126
Mof_C 	C 	0.39806	0.14588	0.81097	-0.12
Mof_H 	H 	0.3758	0.1118	0.8437	0.028
Mof_H 	H 	0.3516	0.1947	0.7594	0.079
Mof_C 	C 	0.39077	0.17141	0.78526	0.121
Mof_H 	H 	0.4212	0.1407	0.8171	0.074
Mof_N 	N 	0.421	0.1887	0.7649	-0.228
Mof_O 	O 	0.424	0.1935	0.7671	0.024
Mof_H 	H 	0.4283	0.1811	0.7442	0.137
Mof_H 	H 	0.3017	0.1548	0.8731	-0.005
Mof_O 	O 	0.67423	0.62378	0.46495	-0.409
Mof_O 	O 	0.71416	0.66548	0.46414	-0.399
Mof_C 	C 	0.7005	0.63826	0.45395	0.353
Mof_C 	C 	0.71849	0.61956	0.42488	-0.026
Mof_C 	C 	0.74697	0.63406	0.40863	-0.111
Mof_H 	H 	0.7558	0.6555	0.4165	0.115
Mof_C 	C 	0.80765	0.61828	0.3367	0.206
Mof_C 	C 	0.83803	0.63616	0.31827	-0.062
Mof_O 	O 	0.79931	0.59161	0.32081	-0.227
Mof_C 	C 	0.8305	0.66182	0.29354	0.028
Mof_C 	C 	0.87113	0.62884	0.3267	0.026
Mof_H 	H 	0.8072	0.6676	0.2885	0.021
Mof_C 	C 	0.85673	0.67832	0.27691	-0.127
Mof_C 	C 	0.89806	0.64588	0.31097	-0.121
Mof_H 	H 	0.8758	0.6118	0.3437	0.028
Mof_H 	H 	0.8516	0.6947	0.2594	0.079
Mof_C 	C 	0.89077	0.67141	0.28526	0.121
Mof_H 	H 	0.9212	0.6407	0.3171	0.076
Mof_N 	N 	0.921	0.6887	0.2649	-0.228
Mof_O 	O 	0.924	0.6935	0.2671	0.024
Mof_H 	H 	0.9283	0.6811	0.2442	0.138
Mof_H 	H 	0.8017	0.6548	0.3731	-0.005
Mof_O 	O 	0.17423	0.87622	0.03505	-0.411
Mof_O 	O 	0.21416	0.83452	0.03586	-0.4
Mof_C 	C 	0.2005	0.86174	0.04605	0.353
Mof_C 	C 	0.21849	0.88044	0.07512	-0.026
Mof_C 	C 	0.24697	0.86594	0.09137	-0.111
Mof_H 	H 	0.2558	0.8445	0.0835	0.115
Mof_C 	C 	0.30765	0.88172	0.1633	0.206
Mof_C 	C 	0.33803	0.86384	0.18173	-0.062
Mof_O 	O 	0.29931	0.90839	0.17919	-0.227
Mof_C 	C 	0.3305	0.83818	0.20646	0.028
Mof_C 	C 	0.37113	0.87116	0.1733	0.026
Mof_H 	H 	0.3072	0.8324	0.2115	0.021
Mof_C 	C 	0.35673	0.82168	0.22309	-0.126
Mof_C 	C 	0.39806	0.85412	0.18903	-0.12
Mof_H 	H 	0.3758	0.8882	0.1563	0.028
Mof_H 	H 	0.3516	0.8053	0.2406	0.079
Mof_C 	C 	0.39077	0.82859	0.21474	0.121
Mof_H 	H 	0.4212	0.8593	0.1829	0.075
Mof_N 	N 	0.421	0.8113	0.2351	-0.228
Mof_O 	O 	0.424	0.8065	0.2329	0.024
Mof_H 	H 	0.4283	0.8189	0.2558	0.138
Mof_H 	H 	0.3017	0.8452	0.1269	-0.005
Mof_O 	O 	0.67423	0.37622	0.53505	-0.409
Mof_O 	O 	0.71416	0.33452	0.53586	-0.399
Mof_C 	C 	0.7005	0.36174	0.54605	0.353
Mof_C 	C 	0.71849	0.38044	0.57512	-0.026
Mof_C 	C 	0.74697	0.36594	0.59137	-0.111
Mof_H 	H 	0.7558	0.3445	0.5835	0.115
Mof_C 	C 	0.80765	0.38172	0.6633	0.206
Mof_C 	C 	0.83803	0.36384	0.68173	-0.062
Mof_O 	O 	0.79931	0.40839	0.67919	-0.227
Mof_C 	C 	0.8305	0.33818	0.70646	0.028
Mof_C 	C 	0.87113	0.37116	0.6733	0.027
Mof_H 	H 	0.8072	0.3324	0.7115	0.021
Mof_C 	C 	0.85673	0.32168	0.72309	-0.127
Mof_C 	C 	0.89806	0.35412	0.68903	-0.121
Mof_H 	H 	0.8758	0.3882	0.6563	0.028
Mof_H 	H 	0.8516	0.3053	0.7406	0.079
Mof_C 	C 	0.89077	0.32859	0.71474	0.121
Mof_H 	H 	0.9212	0.3593	0.6829	0.076
Mof_N 	N 	0.921	0.3113	0.7351	-0.228
Mof_O 	O 	0.924	0.3065	0.7329	0.024
Mof_H 	H 	0.9283	0.3189	0.7558	0.138
Mof_H 	H 	0.8017	0.3452	0.6269	-0.005
Mof_O 	O 	0.82577	0.12378	0.03505	-0.411
Mof_O 	O 	0.78584	0.16548	0.03586	-0.4
Mof_C 	C 	0.7995	0.13826	0.04605	0.354
Mof_C 	C 	0.78151	0.11956	0.07512	-0.028
Mof_C 	C 	0.75303	0.13406	0.09137	-0.11
Mof_H 	H 	0.7442	0.1555	0.0835	0.114
Mof_C 	C 	0.69235	0.11828	0.1633	0.206
Mof_C 	C 	0.66197	0.13616	0.18173	-0.062
Mof_O 	O 	0.70069	0.09161	0.17919	-0.228
Mof_C 	C 	0.6695	0.16182	0.20646	0.028
Mof_C 	C 	0.62887	0.12884	0.1733	0.026
Mof_H 	H 	0.6928	0.1676	0.2115	0.021
Mof_C 	C 	0.64327	0.17832	0.22309	-0.127
Mof_C 	C 	0.60194	0.14588	0.18903	-0.121
Mof_H 	H 	0.6242	0.1118	0.1563	0.027
Mof_H 	H 	0.6484	0.1947	0.2406	0.079
Mof_C 	C 	0.60923	0.17141	0.21474	0.121
Mof_H 	H 	0.5788	0.1407	0.1829	0.074
Mof_N 	N 	0.579	0.1887	0.2351	-0.228
Mof_O 	O 	0.576	0.1935	0.2329	0.024
Mof_H 	H 	0.5717	0.1811	0.2558	0.137
Mof_H 	H 	0.6983	0.1548	0.1269	-0.005
Mof_O 	O 	0.32577	0.62378	0.53505	-0.41
Mof_O 	O 	0.28584	0.66548	0.53586	-0.399
Mof_C 	C 	0.2995	0.63826	0.54605	0.353
Mof_C 	C 	0.28151	0.61956	0.57512	-0.026
Mof_C 	C 	0.25303	0.63406	0.59137	-0.111
Mof_H 	H 	0.2442	0.6555	0.5835	0.115
Mof_C 	C 	0.19235	0.61828	0.6633	0.206
Mof_C 	C 	0.16197	0.63616	0.68173	-0.062
Mof_O 	O 	0.20069	0.59161	0.67919	-0.228
Mof_C 	C 	0.1695	0.66182	0.70646	0.027
Mof_C 	C 	0.12887	0.62884	0.6733	0.026
Mof_H 	H 	0.1928	0.6676	0.7115	0.021
Mof_C 	C 	0.14327	0.67832	0.72309	-0.126
Mof_C 	C 	0.10194	0.64588	0.68903	-0.12
Mof_H 	H 	0.1242	0.6118	0.6563	0.027
Mof_H 	H 	0.1484	0.6947	0.7406	0.079
Mof_C 	C 	0.10923	0.67141	0.71474	0.121
Mof_H 	H 	0.0788	0.6407	0.6829	0.074
Mof_N 	N 	0.079	0.6887	0.7351	-0.228
Mof_O 	O 	0.076	0.6935	0.7329	0.024
Mof_H 	H 	0.0717	0.6811	0.7558	0.137
Mof_H 	H 	0.1983	0.6548	0.6269	-0.005
Mof_O 	O 	0.96495	0.82577	0.87622	-0.405
Mof_O 	O 	0.96414	0.78584	0.83452	-0.395
Mof_C 	C 	0.95395	0.7995	0.86174	0.352
Mof_C 	C 	0.92488	0.78151	0.88044	-0.024
Mof_C 	C 	0.90863	0.75303	0.86594	-0.112
Mof_H 	H 	0.9165	0.7442	0.8445	0.115
Mof_C 	C 	0.8367	0.69235	0.88172	0.206
Mof_C 	C 	0.81827	0.66197	0.86384	-0.061
Mof_O 	O 	0.82081	0.70069	0.90839	-0.226
Mof_C 	C 	0.79354	0.6695	0.83818	0.027
Mof_C 	C 	0.8267	0.62887	0.87116	0.026
Mof_H 	H 	0.7885	0.6928	0.8324	0.021
Mof_C 	C 	0.77691	0.64327	0.82168	-0.126
Mof_C 	C 	0.81097	0.60194	0.85412	-0.12
Mof_H 	H 	0.8437	0.6242	0.8882	0.029
Mof_H 	H 	0.7594	0.6484	0.8053	0.079
Mof_C 	C 	0.78526	0.60923	0.82859	0.121
Mof_H 	H 	0.8171	0.5788	0.8593	0.075
Mof_N 	N 	0.7649	0.579	0.8113	-0.228
Mof_O 	O 	0.7671	0.576	0.8065	0.024
Mof_H 	H 	0.7442	0.5717	0.8189	0.138
Mof_H 	H 	0.8731	0.6983	0.8452	-0.005
Mof_O 	O 	0.46495	0.32577	0.37622	-0.409
Mof_O 	O 	0.46414	0.28584	0.33452	-0.399
Mof_C 	C 	0.45395	0.2995	0.36174	0.353
Mof_C 	C 	0.42488	0.28151	0.38044	-0.026
Mof_C 	C 	0.40863	0.25303	0.36594	-0.111
Mof_H 	H 	0.4165	0.2442	0.3445	0.115
Mof_C 	C 	0.3367	0.19235	0.38172	0.206
Mof_C 	C 	0.31827	0.16197	0.36384	-0.062
Mof_O 	O 	0.32081	0.20069	0.40839	-0.227
Mof_C 	C 	0.29354	0.1695	0.33818	0.027
Mof_C 	C 	0.3267	0.12887	0.37116	0.026
Mof_H 	H 	0.2885	0.1928	0.3324	0.021
Mof_C 	C 	0.27691	0.14327	0.32168	-0.126
Mof_C 	C 	0.31097	0.10194	0.35412	-0.12
Mof_H 	H 	0.3437	0.1242	0.3882	0.027
Mof_H 	H 	0.2594	0.1484	0.3053	0.079
Mof_C 	C 	0.28526	0.10923	0.32859	0.121
Mof_H 	H 	0.3171	0.0788	0.3593	0.074
Mof_N 	N 	0.2649	0.079	0.3113	-0.228
Mof_O 	O 	0.2671	0.076	0.3065	0.024
Mof_H 	H 	0.2442	0.0717	0.3189	0.137
Mof_H 	H 	0.3731	0.1983	0.3452	-0.005
Mof_O 	O 	0.96495	0.17423	0.12378	-0.407
Mof_O 	O 	0.96414	0.21416	0.16548	-0.396
Mof_C 	C 	0.95395	0.2005	0.13826	0.353
Mof_C 	C 	0.92488	0.21849	0.11956	-0.026
Mof_C 	C 	0.90863	0.24697	0.13406	-0.111
Mof_H 	H 	0.9165	0.2558	0.1555	0.115
Mof_C 	C 	0.8367	0.30765	0.11828	0.206
Mof_C 	C 	0.81827	0.33803	0.13616	-0.062
Mof_O 	O 	0.82081	0.29931	0.09161	-0.228
Mof_C 	C 	0.79354	0.3305	0.16182	0.027
Mof_C 	C 	0.8267	0.37113	0.12884	0.026
Mof_H 	H 	0.7885	0.3072	0.1676	0.021
Mof_C 	C 	0.77691	0.35673	0.17832	-0.126
Mof_C 	C 	0.81097	0.39806	0.14588	-0.12
Mof_H 	H 	0.8437	0.3758	0.1118	0.028
Mof_H 	H 	0.7594	0.3516	0.1947	0.079
Mof_C 	C 	0.78526	0.39077	0.17141	0.121
Mof_H 	H 	0.8171	0.4212	0.1407	0.074
Mof_N 	N 	0.7649	0.421	0.1887	-0.228
Mof_O 	O 	0.7671	0.424	0.1935	0.024
Mof_H 	H 	0.7442	0.4283	0.1811	0.137
Mof_H 	H 	0.8731	0.3017	0.1548	-0.005
Mof_O 	O 	0.46495	0.67423	0.62378	-0.409
Mof_O 	O 	0.46414	0.71416	0.66548	-0.399
Mof_C 	C 	0.45395	0.7005	0.63826	0.353
Mof_C 	C 	0.42488	0.71849	0.61956	-0.026
Mof_C 	C 	0.40863	0.74697	0.63406	-0.111
Mof_H 	H 	0.4165	0.7558	0.6555	0.115
Mof_C 	C 	0.3367	0.80765	0.61828	0.206
Mof_C 	C 	0.31827	0.83803	0.63616	-0.062
Mof_O 	O 	0.32081	0.79931	0.59161	-0.227
Mof_C 	C 	0.29354	0.8305	0.66182	0.028
Mof_C 	C 	0.3267	0.87113	0.62884	0.026
Mof_H 	H 	0.2885	0.8072	0.6676	0.021
Mof_C 	C 	0.27691	0.85673	0.67832	-0.127
Mof_C 	C 	0.31097	0.89806	0.64588	-0.121
Mof_H 	H 	0.3437	0.8758	0.6118	0.028
Mof_H 	H 	0.2594	0.8516	0.6947	0.079
Mof_C 	C 	0.28526	0.89077	0.67141	0.121
Mof_H 	H 	0.3171	0.9212	0.6407	0.076
Mof_N 	N 	0.2649	0.921	0.6887	-0.228
Mof_O 	O 	0.2671	0.924	0.6935	0.024
Mof_H 	H 	0.2442	0.9283	0.6811	0.138
Mof_H 	H 	0.3731	0.8017	0.6548	-0.005
Mof_O 	O 	0.03505	0.17423	0.87622	-0.411
Mof_O 	O 	0.03586	0.21416	0.83452	-0.4
Mof_C 	C 	0.04605	0.2005	0.86174	0.353
Mof_C 	C 	0.07512	0.21849	0.88044	-0.026
Mof_C 	C 	0.09137	0.24697	0.86594	-0.111
Mof_H 	H 	0.0835	0.2558	0.8445	0.115
Mof_C 	C 	0.1633	0.30765	0.88172	0.206
Mof_C 	C 	0.18173	0.33803	0.86384	-0.062
Mof_O 	O 	0.17919	0.29931	0.90839	-0.227
Mof_C 	C 	0.20646	0.3305	0.83818	0.028
Mof_C 	C 	0.1733	0.37113	0.87116	0.026
Mof_H 	H 	0.2115	0.3072	0.8324	0.021
Mof_C 	C 	0.22309	0.35673	0.82168	-0.126
Mof_C 	C 	0.18903	0.39806	0.85412	-0.12
Mof_H 	H 	0.1563	0.3758	0.8882	0.028
Mof_H 	H 	0.2406	0.3516	0.8053	0.079
Mof_C 	C 	0.21474	0.39077	0.82859	0.121
Mof_H 	H 	0.1829	0.4212	0.8593	0.075
Mof_N 	N 	0.2351	0.421	0.8113	-0.228
Mof_O 	O 	0.2329	0.424	0.8065	0.024
Mof_H 	H 	0.2558	0.4283	0.8189	0.138
Mof_H 	H 	0.1269	0.3017	0.8452	-0.005
Mof_O 	O 	0.53505	0.67423	0.37622	-0.409
Mof_O 	O 	0.53586	0.71416	0.33452	-0.399
Mof_C 	C 	0.54605	0.7005	0.36174	0.353
Mof_C 	C 	0.57512	0.71849	0.38044	-0.026
Mof_C 	C 	0.59137	0.74697	0.36594	-0.111
Mof_H 	H 	0.5835	0.7558	0.3445	0.115
Mof_C 	C 	0.6633	0.80765	0.38172	0.206
Mof_C 	C 	0.68173	0.83803	0.36384	-0.062
Mof_O 	O 	0.67919	0.79931	0.40839	-0.227
Mof_C 	C 	0.70646	0.8305	0.33818	0.028
Mof_C 	C 	0.6733	0.87113	0.37116	0.027
Mof_H 	H 	0.7115	0.8072	0.3324	0.021
Mof_C 	C 	0.72309	0.85673	0.32168	-0.127
Mof_C 	C 	0.68903	0.89806	0.35412	-0.121
Mof_H 	H 	0.6563	0.8758	0.3882	0.028
Mof_H 	H 	0.7406	0.8516	0.3053	0.079
Mof_C 	C 	0.71474	0.89077	0.32859	0.121
Mof_H 	H 	0.6829	0.9212	0.3593	0.076
Mof_N 	N 	0.7351	0.921	0.3113	-0.228
Mof_O 	O 	0.7329	0.924	0.3065	0.024
Mof_H 	H 	0.7558	0.9283	0.3189	0.138
Mof_H 	H 	0.6269	0.8017	0.3452	-0.005
Mof_O 	O 	0.03505	0.82577	0.12378	-0.411
Mof_O 	O 	0.03586	0.78584	0.16548	-0.4
Mof_C 	C 	0.04605	0.7995	0.13826	0.354
Mof_C 	C 	0.07512	0.78151	0.11956	-0.028
Mof_C 	C 	0.09137	0.75303	0.13406	-0.11
Mof_H 	H 	0.0835	0.7442	0.1555	0.114
Mof_C 	C 	0.1633	0.69235	0.11828	0.206
Mof_C 	C 	0.18173	0.66197	0.13616	-0.062
Mof_O 	O 	0.17919	0.70069	0.09161	-0.228
Mof_C 	C 	0.20646	0.6695	0.16182	0.028
Mof_C 	C 	0.1733	0.62887	0.12884	0.026
Mof_H 	H 	0.2115	0.6928	0.1676	0.021
Mof_C 	C 	0.22309	0.64327	0.17832	-0.127
Mof_C 	C 	0.18903	0.60194	0.14588	-0.121
Mof_H 	H 	0.1563	0.6242	0.1118	0.027
Mof_H 	H 	0.2406	0.6484	0.1947	0.079
Mof_C 	C 	0.21474	0.60923	0.17141	0.121
Mof_H 	H 	0.1829	0.5788	0.1407	0.074
Mof_N 	N 	0.2351	0.579	0.1887	-0.228
Mof_O 	O 	0.2329	0.576	0.1935	0.024
Mof_H 	H 	0.2558	0.5717	0.1811	0.137
Mof_H 	H 	0.1269	0.6983	0.1548	-0.005
Mof_O 	O 	0.53505	0.32577	0.62378	-0.41
Mof_O 	O 	0.53586	0.28584	0.66548	-0.399
Mof_C 	C 	0.54605	0.2995	0.63826	0.353
Mof_C 	C 	0.57512	0.28151	0.61956	-0.026
Mof_C 	C 	0.59137	0.25303	0.63406	-0.111
Mof_H 	H 	0.5835	0.2442	0.6555	0.115
Mof_C 	C 	0.6633	0.19235	0.61828	0.206
Mof_C 	C 	0.68173	0.16197	0.63616	-0.062
Mof_O 	O 	0.67919	0.20069	0.59161	-0.228
Mof_C 	C 	0.70646	0.1695	0.66182	0.027
Mof_C 	C 	0.6733	0.12887	0.62884	0.026
Mof_H 	H 	0.7115	0.1928	0.6676	0.021
Mof_C 	C 	0.72309	0.14327	0.67832	-0.126
Mof_C 	C 	0.68903	0.10194	0.64588	-0.12
Mof_H 	H 	0.6563	0.1242	0.6118	0.027
Mof_H 	H 	0.7406	0.1484	0.6947	0.079
Mof_C 	C 	0.71474	0.10923	0.67141	0.121
Mof_H 	H 	0.6829	0.0788	0.6407	0.074
Mof_N 	N 	0.7351	0.079	0.6887	-0.228
Mof_O 	O 	0.7329	0.076	0.6935	0.024
Mof_H 	H 	0.7558	0.0717	0.6811	0.137
Mof_H 	H 	0.6269	0.1983	0.6548	-0.005
Mof_O 	O 	0.87622	0.96495	0.82577	-0.405
Mof_O 	O 	0.83452	0.96414	0.78584	-0.395
Mof_C 	C 	0.86174	0.95395	0.7995	0.352
Mof_C 	C 	0.88044	0.92488	0.78151	-0.024
Mof_C 	C 	0.86594	0.90863	0.75303	-0.112
Mof_H 	H 	0.8445	0.9165	0.7442	0.115
Mof_C 	C 	0.88172	0.8367	0.69235	0.206
Mof_C 	C 	0.86384	0.81827	0.66197	-0.061
Mof_O 	O 	0.90839	0.82081	0.70069	-0.226
Mof_C 	C 	0.83818	0.79354	0.6695	0.027
Mof_C 	C 	0.87116	0.8267	0.62887	0.026
Mof_H 	H 	0.8324	0.7885	0.6928	0.021
Mof_C 	C 	0.82168	0.77691	0.64327	-0.126
Mof_C 	C 	0.85412	0.81097	0.60194	-0.12
Mof_H 	H 	0.8882	0.8437	0.6242	0.029
Mof_H 	H 	0.8053	0.7594	0.6484	0.079
Mof_C 	C 	0.82859	0.78526	0.60923	0.121
Mof_H 	H 	0.8593	0.8171	0.5788	0.075
Mof_N 	N 	0.8113	0.7649	0.579	-0.228
Mof_O 	O 	0.8065	0.7671	0.576	0.024
Mof_H 	H 	0.8189	0.7442	0.5717	0.138
Mof_H 	H 	0.8452	0.8731	0.6983	-0.005
Mof_O 	O 	0.37622	0.46495	0.32577	-0.409
Mof_O 	O 	0.33452	0.46414	0.28584	-0.399
Mof_C 	C 	0.36174	0.45395	0.2995	0.353
Mof_C 	C 	0.38044	0.42488	0.28151	-0.026
Mof_C 	C 	0.36594	0.40863	0.25303	-0.111
Mof_H 	H 	0.3445	0.4165	0.2442	0.115
Mof_C 	C 	0.38172	0.3367	0.19235	0.206
Mof_C 	C 	0.36384	0.31827	0.16197	-0.062
Mof_O 	O 	0.40839	0.32081	0.20069	-0.227
Mof_C 	C 	0.33818	0.29354	0.1695	0.027
Mof_C 	C 	0.37116	0.3267	0.12887	0.026
Mof_H 	H 	0.3324	0.2885	0.1928	0.021
Mof_C 	C 	0.32168	0.27691	0.14327	-0.126
Mof_C 	C 	0.35412	0.31097	0.10194	-0.12
Mof_H 	H 	0.3882	0.3437	0.1242	0.027
Mof_H 	H 	0.3053	0.2594	0.1484	0.079
Mof_C 	C 	0.32859	0.28526	0.10923	0.121
Mof_H 	H 	0.3593	0.3171	0.0788	0.074
Mof_N 	N 	0.3113	0.2649	0.079	-0.228
Mof_O 	O 	0.3065	0.2671	0.076	0.024
Mof_H 	H 	0.3189	0.2442	0.0717	0.137
Mof_H 	H 	0.3452	0.3731	0.1983	-0.005
Mof_O 	O 	0.12378	0.96495	0.17423	-0.407
Mof_O 	O 	0.16548	0.96414	0.21416	-0.396
Mof_C 	C 	0.13826	0.95395	0.2005	0.353
Mof_C 	C 	0.11956	0.92488	0.21849	-0.026
Mof_C 	C 	0.13406	0.90863	0.24697	-0.111
Mof_H 	H 	0.1555	0.9165	0.2558	0.115
Mof_C 	C 	0.11828	0.8367	0.30765	0.206
Mof_C 	C 	0.13616	0.81827	0.33803	-0.062
Mof_O 	O 	0.09161	0.82081	0.29931	-0.228
Mof_C 	C 	0.16182	0.79354	0.3305	0.027
Mof_C 	C 	0.12884	0.8267	0.37113	0.026
Mof_H 	H 	0.1676	0.7885	0.3072	0.021
Mof_C 	C 	0.17832	0.77691	0.35673	-0.126
Mof_C 	C 	0.14588	0.81097	0.39806	-0.12
Mof_H 	H 	0.1118	0.8437	0.3758	0.028
Mof_H 	H 	0.1947	0.7594	0.3516	0.079
Mof_C 	C 	0.17141	0.78526	0.39077	0.121
Mof_H 	H 	0.1407	0.8171	0.4212	0.074
Mof_N 	N 	0.1887	0.7649	0.421	-0.228
Mof_O 	O 	0.1935	0.7671	0.424	0.024
Mof_H 	H 	0.1811	0.7442	0.4283	0.137
Mof_H 	H 	0.1548	0.8731	0.3017	-0.005
Mof_O 	O 	0.62378	0.46495	0.67423	-0.409
Mof_O 	O 	0.66548	0.46414	0.71416	-0.399
Mof_C 	C 	0.63826	0.45395	0.7005	0.353
Mof_C 	C 	0.61956	0.42488	0.71849	-0.026
Mof_C 	C 	0.63406	0.40863	0.74697	-0.111
Mof_H 	H 	0.6555	0.4165	0.7558	0.115
Mof_C 	C 	0.61828	0.3367	0.80765	0.206
Mof_C 	C 	0.63616	0.31827	0.83803	-0.062
Mof_O 	O 	0.59161	0.32081	0.79931	-0.227
Mof_C 	C 	0.66182	0.29354	0.8305	0.028
Mof_C 	C 	0.62884	0.3267	0.87113	0.026
Mof_H 	H 	0.6676	0.2885	0.8072	0.021
Mof_C 	C 	0.67832	0.27691	0.85673	-0.127
Mof_C 	C 	0.64588	0.31097	0.89806	-0.121
Mof_H 	H 	0.6118	0.3437	0.8758	0.028
Mof_H 	H 	0.6947	0.2594	0.8516	0.079
Mof_C 	C 	0.67141	0.28526	0.89077	0.121
Mof_H 	H 	0.6407	0.3171	0.9212	0.076
Mof_N 	N 	0.6887	0.2649	0.921	-0.228
Mof_O 	O 	0.6935	0.2671	0.924	0.024
Mof_H 	H 	0.6811	0.2442	0.9283	0.138
Mof_H 	H 	0.6548	0.3731	0.8017	-0.005
Mof_O 	O 	0.87622	0.03505	0.17423	-0.411
Mof_O 	O 	0.83452	0.03586	0.21416	-0.4
Mof_C 	C 	0.86174	0.04605	0.2005	0.353
Mof_C 	C 	0.88044	0.07512	0.21849	-0.026
Mof_C 	C 	0.86594	0.09137	0.24697	-0.111
Mof_H 	H 	0.8445	0.0835	0.2558	0.115
Mof_C 	C 	0.88172	0.1633	0.30765	0.206
Mof_C 	C 	0.86384	0.18173	0.33803	-0.062
Mof_O 	O 	0.90839	0.17919	0.29931	-0.227
Mof_C 	C 	0.83818	0.20646	0.3305	0.028
Mof_C 	C 	0.87116	0.1733	0.37113	0.026
Mof_H 	H 	0.8324	0.2115	0.3072	0.021
Mof_C 	C 	0.82168	0.22309	0.35673	-0.126
Mof_C 	C 	0.85412	0.18903	0.39806	-0.12
Mof_H 	H 	0.8882	0.1563	0.3758	0.028
Mof_H 	H 	0.8053	0.2406	0.3516	0.079
Mof_C 	C 	0.82859	0.21474	0.39077	0.121
Mof_H 	H 	0.8593	0.1829	0.4212	0.075
Mof_N 	N 	0.8113	0.2351	0.421	-0.228
Mof_O 	O 	0.8065	0.2329	0.424	0.024
Mof_H 	H 	0.8189	0.2558	0.4283	0.138
Mof_H 	H 	0.8452	0.1269	0.3017	-0.005
Mof_O 	O 	0.37622	0.53505	0.67423	-0.409
Mof_O 	O 	0.33452	0.53586	0.71416	-0.399
Mof_C 	C 	0.36174	0.54605	0.7005	0.353
Mof_C 	C 	0.38044	0.57512	0.71849	-0.026
Mof_C 	C 	0.36594	0.59137	0.74697	-0.111
Mof_H 	H 	0.3445	0.5835	0.7558	0.115
Mof_C 	C 	0.38172	0.6633	0.80765	0.206
Mof_C 	C 	0.36384	0.68173	0.83803	-0.062
Mof_O 	O 	0.40839	0.67919	0.79931	-0.227
Mof_C 	C 	0.33818	0.70646	0.8305	0.028
Mof_C 	C 	0.37116	0.6733	0.87113	0.027
Mof_H 	H 	0.3324	0.7115	0.8072	0.021
Mof_C 	C 	0.32168	0.72309	0.85673	-0.127
Mof_C 	C 	0.35412	0.68903	0.89806	-0.121
Mof_H 	H 	0.3882	0.6563	0.8758	0.028
Mof_H 	H 	0.3053	0.7406	0.8516	0.079
Mof_C 	C 	0.32859	0.71474	0.89077	0.121
Mof_H 	H 	0.3593	0.6829	0.9212	0.076
Mof_N 	N 	0.3113	0.7351	0.921	-0.228
Mof_O 	O 	0.3065	0.7329	0.924	0.024
Mof_H 	H 	0.3189	0.7558	0.9283	0.138
Mof_H 	H 	0.3452	0.6269	0.8017	-0.005
Mof_O 	O 	0.12378	0.03505	0.82577	-0.411
Mof_O 	O 	0.16548	0.03586	0.78584	-0.4
Mof_C 	C 	0.13826	0.04605	0.7995	0.354
Mof_C 	C 	0.11956	0.07512	0.78151	-0.028
Mof_C 	C 	0.13406	0.09137	0.75303	-0.11
Mof_H 	H 	0.1555	0.0835	0.7442	0.114
Mof_C 	C 	0.11828	0.1633	0.69235	0.206
Mof_C 	C 	0.13616	0.18173	0.66197	-0.062
Mof_O 	O 	0.09161	0.17919	0.70069	-0.228
Mof_C 	C 	0.16182	0.20646	0.6695	0.028
Mof_C 	C 	0.12884	0.1733	0.62887	0.026
Mof_H 	H 	0.1676	0.2115	0.6928	0.021
Mof_C 	C 	0.17832	0.22309	0.64327	-0.127
Mof_C 	C 	0.14588	0.18903	0.60194	-0.121
Mof_H 	H 	0.1118	0.1563	0.6242	0.027
Mof_H 	H 	0.1947	0.2406	0.6484	0.079
Mof_C 	C 	0.17141	0.21474	0.60923	0.121
Mof_H 	H 	0.1407	0.1829	0.5788	0.074
Mof_N 	N 	0.1887	0.2351	0.579	-0.228
Mof_O 	O 	0.1935	0.2329	0.576	0.024
Mof_H 	H 	0.1811	0.2558	0.5717	0.137
Mof_H 	H 	0.1548	0.1269	0.6983	-0.005
Mof_O 	O 	0.62378	0.53505	0.32577	-0.41
Mof_O 	O 	0.66548	0.53586	0.28584	-0.399
Mof_C 	C 	0.63826	0.54605	0.2995	0.353
Mof_C 	C 	0.61956	0.57512	0.28151	-0.026
Mof_C 	C 	0.63406	0.59137	0.25303	-0.111
Mof_H 	H 	0.6555	0.5835	0.2442	0.115
Mof_C 	C 	0.61828	0.6633	0.19235	0.206
Mof_C 	C 	0.63616	0.68173	0.16197	-0.062
Mof_O 	O 	0.59161	0.67919	0.20069	-0.228
Mof_C 	C 	0.66182	0.70646	0.1695	0.027
Mof_C 	C 	0.62884	0.6733	0.12887	0.026
Mof_H 	H 	0.6676	0.7115	0.1928	0.021
Mof_C 	C 	0.67832	0.72309	0.14327	-0.126
Mof_C 	C 	0.64588	0.68903	0.10194	-0.12
Mof_H 	H 	0.6118	0.6563	0.1242	0.027
Mof_H 	H 	0.6947	0.7406	0.1484	0.079
Mof_C 	C 	0.67141	0.71474	0.10923	0.121
Mof_H 	H 	0.6407	0.6829	0.0788	0.074
Mof_N 	N 	0.6887	0.7351	0.079	-0.228
Mof_O 	O 	0.6935	0.7329	0.076	0.024
Mof_H 	H 	0.6811	0.7558	0.0717	0.137
Mof_H 	H 	0.6548	0.6269	0.1983	-0.005
Mof_O 	O 	0.87622	0.82577	0.03505	-0.41
Mof_O 	O 	0.83452	0.78584	0.03586	-0.4
Mof_C 	C 	0.86174	0.7995	0.04605	0.353
Mof_C 	C 	0.88044	0.78151	0.07512	-0.026
Mof_C 	C 	0.86594	0.75303	0.09137	-0.111
Mof_H 	H 	0.8445	0.7442	0.0835	0.115
Mof_C 	C 	0.88172	0.69235	0.1633	0.206
Mof_C 	C 	0.86384	0.66197	0.18173	-0.062
Mof_O 	O 	0.90839	0.70069	0.17919	-0.227
Mof_C 	C 	0.83818	0.6695	0.20646	0.028
Mof_C 	C 	0.87116	0.62887	0.1733	0.026
Mof_H 	H 	0.8324	0.6928	0.2115	0.021
Mof_C 	C 	0.82168	0.64327	0.22309	-0.126
Mof_C 	C 	0.85412	0.60194	0.18903	-0.12
Mof_H 	H 	0.8882	0.6242	0.1563	0.028
Mof_H 	H 	0.8053	0.6484	0.2406	0.079
Mof_C 	C 	0.82859	0.60923	0.21474	0.121
Mof_H 	H 	0.8593	0.5788	0.1829	0.075
Mof_N 	N 	0.8113	0.579	0.2351	-0.228
Mof_O 	O 	0.8065	0.576	0.2329	0.024
Mof_H 	H 	0.8189	0.5717	0.2558	0.138
Mof_H 	H 	0.8452	0.6983	0.1269	-0.005
Mof_O 	O 	0.37622	0.32577	0.53505	-0.409
Mof_O 	O 	0.33452	0.28584	0.53586	-0.399
Mof_C 	C 	0.36174	0.2995	0.54605	0.353
Mof_C 	C 	0.38044	0.28151	0.57512	-0.026
Mof_C 	C 	0.36594	0.25303	0.59137	-0.111
Mof_H 	H 	0.3445	0.2442	0.5835	0.115
Mof_C 	C 	0.38172	0.19235	0.6633	0.206
Mof_C 	C 	0.36384	0.16197	0.68173	-0.062
Mof_O 	O 	0.40839	0.20069	0.67919	-0.227
Mof_C 	C 	0.33818	0.1695	0.70646	0.027
Mof_C 	C 	0.37116	0.12887	0.6733	0.026
Mof_H 	H 	0.3324	0.1928	0.7115	0.021
Mof_C 	C 	0.32168	0.14327	0.72309	-0.126
Mof_C 	C 	0.35412	0.10194	0.68903	-0.12
Mof_H 	H 	0.3882	0.1242	0.6563	0.027
Mof_H 	H 	0.3053	0.1484	0.7406	0.079
Mof_C 	C 	0.32859	0.10923	0.71474	0.121
Mof_H 	H 	0.3593	0.0788	0.6829	0.074
Mof_N 	N 	0.3113	0.079	0.7351	-0.228
Mof_O 	O 	0.3065	0.076	0.7329	0.024
Mof_H 	H 	0.3189	0.0717	0.7558	0.137
Mof_H 	H 	0.3452	0.1983	0.6269	-0.005
Mof_O 	O 	0.12378	0.17423	0.03505	-0.412
Mof_O 	O 	0.16548	0.21416	0.03586	-0.4
Mof_C 	C 	0.13826	0.2005	0.04605	0.354
Mof_C 	C 	0.11956	0.21849	0.07512	-0.028
Mof_C 	C 	0.13406	0.24697	0.09137	-0.11
Mof_H 	H 	0.1555	0.2558	0.0835	0.114
Mof_C 	C 	0.11828	0.30765	0.1633	0.206
Mof_C 	C 	0.13616	0.33803	0.18173	-0.062
Mof_O 	O 	0.09161	0.29931	0.17919	-0.228
Mof_C 	C 	0.16182	0.3305	0.20646	0.028
Mof_C 	C 	0.12884	0.37113	0.1733	0.026
Mof_H 	H 	0.1676	0.3072	0.2115	0.021
Mof_C 	C 	0.17832	0.35673	0.22309	-0.127
Mof_C 	C 	0.14588	0.39806	0.18903	-0.121
Mof_H 	H 	0.1118	0.3758	0.1563	0.027
Mof_H 	H 	0.1947	0.3516	0.2406	0.079
Mof_C 	C 	0.17141	0.39077	0.21474	0.121
Mof_H 	H 	0.1407	0.4212	0.1829	0.074
Mof_N 	N 	0.1887	0.421	0.2351	-0.228
Mof_O 	O 	0.1935	0.424	0.2329	0.024
Mof_H 	H 	0.1811	0.4283	0.2558	0.137
Mof_H 	H 	0.1548	0.3017	0.1269	-0.005
Mof_O 	O 	0.62378	0.67423	0.53505	-0.409
Mof_O 	O 	0.66548	0.71416	0.53586	-0.399
Mof_C 	C 	0.63826	0.7005	0.54605	0.353
Mof_C 	C 	0.61956	0.71849	0.57512	-0.026
Mof_C 	C 	0.63406	0.74697	0.59137	-0.111
Mof_H 	H 	0.6555	0.7558	0.5835	0.115
Mof_C 	C 	0.61828	0.80765	0.6633	0.206
Mof_C 	C 	0.63616	0.83803	0.68173	-0.062
Mof_O 	O 	0.59161	0.79931	0.67919	-0.227
Mof_C 	C 	0.66182	0.8305	0.70646	0.028
Mof_C 	C 	0.62884	0.87113	0.6733	0.027
Mof_H 	H 	0.6676	0.8072	0.7115	0.021
Mof_C 	C 	0.67832	0.85673	0.72309	-0.127
Mof_C 	C 	0.64588	0.89806	0.68903	-0.121
Mof_H 	H 	0.6118	0.8758	0.6563	0.028
Mof_H 	H 	0.6947	0.8516	0.7406	0.079
Mof_C 	C 	0.67141	0.89077	0.71474	0.121
Mof_H 	H 	0.6407	0.9212	0.6829	0.076
Mof_N 	N 	0.6887	0.921	0.7351	-0.228
Mof_O 	O 	0.6935	0.924	0.7329	0.024
Mof_H 	H 	0.6811	0.9283	0.7558	0.138
Mof_H 	H 	0.6548	0.8017	0.6269	-0.005
Mof_O 	O 	0.87622	0.17423	0.96495	-0.406
Mof_O 	O 	0.83452	0.21416	0.96414	-0.395
Mof_C 	C 	0.86174	0.2005	0.95395	0.353
Mof_C 	C 	0.88044	0.21849	0.92488	-0.024
Mof_C 	C 	0.86594	0.24697	0.90863	-0.111
Mof_H 	H 	0.8445	0.2558	0.9165	0.115
Mof_C 	C 	0.88172	0.30765	0.8367	0.206
Mof_C 	C 	0.86384	0.33803	0.81827	-0.061
Mof_O 	O 	0.90839	0.29931	0.82081	-0.226
Mof_C 	C 	0.83818	0.3305	0.79354	0.027
Mof_C 	C 	0.87116	0.37113	0.8267	0.026
Mof_H 	H 	0.8324	0.3072	0.7885	0.021
Mof_C 	C 	0.82168	0.35673	0.77691	-0.126
Mof_C 	C 	0.85412	0.39806	0.81097	-0.12
Mof_H 	H 	0.8882	0.3758	0.8437	0.029
Mof_H 	H 	0.8053	0.3516	0.7594	0.079
Mof_C 	C 	0.82859	0.39077	0.78526	0.121
Mof_H 	H 	0.8593	0.4212	0.8171	0.075
Mof_N 	N 	0.8113	0.421	0.7649	-0.228
Mof_O 	O 	0.8065	0.424	0.7671	0.024
Mof_H 	H 	0.8189	0.4283	0.7442	0.138
Mof_H 	H 	0.8452	0.3017	0.8731	-0.005
Mof_O 	O 	0.37622	0.67423	0.46495	-0.409
Mof_O 	O 	0.33452	0.71416	0.46414	-0.399
Mof_C 	C 	0.36174	0.7005	0.45395	0.353
Mof_C 	C 	0.38044	0.71849	0.42488	-0.026
Mof_C 	C 	0.36594	0.74697	0.40863	-0.111
Mof_H 	H 	0.3445	0.7558	0.4165	0.115
Mof_C 	C 	0.38172	0.80765	0.3367	0.206
Mof_C 	C 	0.36384	0.83803	0.31827	-0.062
Mof_O 	O 	0.40839	0.79931	0.32081	-0.227
Mof_C 	C 	0.33818	0.8305	0.29354	0.028
Mof_C 	C 	0.37116	0.87113	0.3267	0.027
Mof_H 	H 	0.3324	0.8072	0.2885	0.021
Mof_C 	C 	0.32168	0.85673	0.27691	-0.127
Mof_C 	C 	0.35412	0.89806	0.31097	-0.121
Mof_H 	H 	0.3882	0.8758	0.3437	0.028
Mof_H 	H 	0.3053	0.8516	0.2594	0.079
Mof_C 	C 	0.32859	0.89077	0.28526	0.121
Mof_H 	H 	0.3593	0.9212	0.3171	0.076
Mof_N 	N 	0.3113	0.921	0.2649	-0.228
Mof_O 	O 	0.3065	0.924	0.2671	0.024
Mof_H 	H 	0.3189	0.9283	0.2442	0.138
Mof_H 	H 	0.3452	0.8017	0.3731	-0.005
Mof_O 	O 	0.12378	0.82577	0.96495	-0.406
Mof_O 	O 	0.16548	0.78584	0.96414	-0.396
Mof_C 	C 	0.13826	0.7995	0.95395	0.353
Mof_C 	C 	0.11956	0.78151	0.92488	-0.025
Mof_C 	C 	0.13406	0.75303	0.90863	-0.111
Mof_H 	H 	0.1555	0.7442	0.9165	0.115
Mof_C 	C 	0.11828	0.69235	0.8367	0.206
Mof_C 	C 	0.13616	0.66197	0.81827	-0.062
Mof_O 	O 	0.09161	0.70069	0.82081	-0.228
Mof_C 	C 	0.16182	0.6695	0.79354	0.027
Mof_C 	C 	0.12884	0.62887	0.8267	0.026
Mof_H 	H 	0.1676	0.6928	0.7885	0.021
Mof_C 	C 	0.17832	0.64327	0.77691	-0.127
Mof_C 	C 	0.14588	0.60194	0.81097	-0.121
Mof_H 	H 	0.1118	0.6242	0.8437	0.028
Mof_H 	H 	0.1947	0.6484	0.7594	0.079
Mof_C 	C 	0.17141	0.60923	0.78526	0.121
Mof_H 	H 	0.1407	0.5788	0.8171	0.074
Mof_N 	N 	0.1887	0.579	0.7649	-0.228
Mof_O 	O 	0.1935	0.576	0.7671	0.024
Mof_H 	H 	0.1811	0.5717	0.7442	0.137
Mof_H 	H 	0.1548	0.6983	0.8731	-0.005
Mof_O 	O 	0.62378	0.32577	0.46495	-0.409
Mof_O 	O 	0.66548	0.28584	0.46414	-0.399
Mof_C 	C 	0.63826	0.2995	0.45395	0.353
Mof_C 	C 	0.61956	0.28151	0.42488	-0.026
Mof_C 	C 	0.63406	0.25303	0.40863	-0.111
Mof_H 	H 	0.6555	0.2442	0.4165	0.115
Mof_C 	C 	0.61828	0.19235	0.3367	0.206
Mof_C 	C 	0.63616	0.16197	0.31827	-0.062
Mof_O 	O 	0.59161	0.20069	0.32081	-0.227
Mof_C 	C 	0.66182	0.1695	0.29354	0.027
Mof_C 	C 	0.62884	0.12887	0.3267	0.026
Mof_H 	H 	0.6676	0.1928	0.2885	0.021
Mof_C 	C 	0.67832	0.14327	0.27691	-0.126
Mof_C 	C 	0.64588	0.10194	0.31097	-0.12
Mof_H 	H 	0.6118	0.1242	0.3437	0.027
Mof_H 	H 	0.6947	0.1484	0.2594	0.079
Mof_C 	C 	0.67141	0.10923	0.28526	0.12
Mof_H 	H 	0.6407	0.0788	0.3171	0.074
Mof_N 	N 	0.6887	0.079	0.2649	-0.228
Mof_O 	O 	0.6935	0.076	0.2671	0.024
Mof_H 	H 	0.6811	0.0717	0.2442	0.137
Mof_H 	H 	0.6548	0.1983	0.3731	-0.005
Mof_O 	O 	0.82577	0.96495	0.12378	-0.406
Mof_O 	O 	0.78584	0.96414	0.16548	-0.396
Mof_C 	C 	0.7995	0.95395	0.13826	0.353
Mof_C 	C 	0.78151	0.92488	0.11956	-0.025
Mof_C 	C 	0.75303	0.90863	0.13406	-0.111
Mof_H 	H 	0.7442	0.9165	0.1555	0.115
Mof_C 	C 	0.69235	0.8367	0.11828	0.206
Mof_C 	C 	0.66197	0.81827	0.13616	-0.062
Mof_O 	O 	0.70069	0.82081	0.09161	-0.228
Mof_C 	C 	0.6695	0.79354	0.16182	0.027
Mof_C 	C 	0.62887	0.8267	0.12884	0.026
Mof_H 	H 	0.6928	0.7885	0.1676	0.021
Mof_C 	C 	0.64327	0.77691	0.17832	-0.127
Mof_C 	C 	0.60194	0.81097	0.14588	-0.121
Mof_H 	H 	0.6242	0.8437	0.1118	0.028
Mof_H 	H 	0.6484	0.7594	0.1947	0.079
Mof_C 	C 	0.60923	0.78526	0.17141	0.121
Mof_H 	H 	0.5788	0.8171	0.1407	0.074
Mof_N 	N 	0.579	0.7649	0.1887	-0.228
Mof_O 	O 	0.576	0.7671	0.1935	0.024
Mof_H 	H 	0.5717	0.7442	0.1811	0.137
Mof_H 	H 	0.6983	0.8731	0.1548	-0.005
Mof_O 	O 	0.32577	0.46495	0.62378	-0.409
Mof_O 	O 	0.28584	0.46414	0.66548	-0.399
Mof_C 	C 	0.2995	0.45395	0.63826	0.353
Mof_C 	C 	0.28151	0.42488	0.61956	-0.026
Mof_C 	C 	0.25303	0.40863	0.63406	-0.111
Mof_H 	H 	0.2442	0.4165	0.6555	0.115
Mof_C 	C 	0.19235	0.3367	0.61828	0.206
Mof_C 	C 	0.16197	0.31827	0.63616	-0.062
Mof_O 	O 	0.20069	0.32081	0.59161	-0.227
Mof_C 	C 	0.1695	0.29354	0.66182	0.027
Mof_C 	C 	0.12887	0.3267	0.62884	0.026
Mof_H 	H 	0.1928	0.2885	0.6676	0.021
Mof_C 	C 	0.14327	0.27691	0.67832	-0.126
Mof_C 	C 	0.10194	0.31097	0.64588	-0.12
Mof_H 	H 	0.1242	0.3437	0.6118	0.027
Mof_H 	H 	0.1484	0.2594	0.6947	0.079
Mof_C 	C 	0.10923	0.28526	0.67141	0.12
Mof_H 	H 	0.0788	0.3171	0.6407	0.074
Mof_N 	N 	0.079	0.2649	0.6887	-0.228
Mof_O 	O 	0.076	0.2671	0.6935	0.024
Mof_H 	H 	0.0717	0.2442	0.6811	0.137
Mof_H 	H 	0.1983	0.3731	0.6548	-0.005
Mof_O 	O 	0.17423	0.96495	0.87622	-0.406
Mof_O 	O 	0.21416	0.96414	0.83452	-0.395
Mof_C 	C 	0.2005	0.95395	0.86174	0.353
Mof_C 	C 	0.21849	0.92488	0.88044	-0.024
Mof_C 	C 	0.24697	0.90863	0.86594	-0.111
Mof_H 	H 	0.2558	0.9165	0.8445	0.115
Mof_C 	C 	0.30765	0.8367	0.88172	0.206
Mof_C 	C 	0.33803	0.81827	0.86384	-0.061
Mof_O 	O 	0.29931	0.82081	0.90839	-0.226
Mof_C 	C 	0.3305	0.79354	0.83818	0.027
Mof_C 	C 	0.37113	0.8267	0.87116	0.026
Mof_H 	H 	0.3072	0.7885	0.8324	0.021
Mof_C 	C 	0.35673	0.77691	0.82168	-0.126
Mof_C 	C 	0.39806	0.81097	0.85412	-0.12
Mof_H 	H 	0.3758	0.8437	0.8882	0.029
Mof_H 	H 	0.3516	0.7594	0.8053	0.079
Mof_C 	C 	0.39077	0.78526	0.82859	0.121
Mof_H 	H 	0.4212	0.8171	0.8593	0.075
Mof_N 	N 	0.421	0.7649	0.8113	-0.228
Mof_O 	O 	0.424	0.7671	0.8065	0.024
Mof_H 	H 	0.4283	0.7442	0.8189	0.138
Mof_H 	H 	0.3017	0.8731	0.8452	-0.005
Mof_O 	O 	0.67423	0.46495	0.37622	-0.409
Mof_O 	O 	0.71416	0.46414	0.33452	-0.399
Mof_C 	C 	0.7005	0.45395	0.36174	0.353
Mof_C 	C 	0.71849	0.42488	0.38044	-0.026
Mof_C 	C 	0.74697	0.40863	0.36594	-0.111
Mof_H 	H 	0.7558	0.4165	0.3445	0.115
Mof_C 	C 	0.80765	0.3367	0.38172	0.206
Mof_C 	C 	0.83803	0.31827	0.36384	-0.062
Mof_O 	O 	0.79931	0.32081	0.40839	-0.227
Mof_C 	C 	0.8305	0.29354	0.33818	0.028
Mof_C 	C 	0.87113	0.3267	0.37116	0.027
Mof_H 	H 	0.8072	0.2885	0.3324	0.021
Mof_C 	C 	0.85673	0.27691	0.32168	-0.127
Mof_C 	C 	0.89806	0.31097	0.35412	-0.121
Mof_H 	H 	0.8758	0.3437	0.3882	0.028
Mof_H 	H 	0.8516	0.2594	0.3053	0.079
Mof_C 	C 	0.89077	0.28526	0.32859	0.121
Mof_H 	H 	0.9212	0.3171	0.3593	0.076
Mof_N 	N 	0.921	0.2649	0.3113	-0.228
Mof_O 	O 	0.924	0.2671	0.3065	0.024
Mof_H 	H 	0.9283	0.2442	0.3189	0.138
Mof_H 	H 	0.8017	0.3731	0.3452	-0.005
Mof_O 	O 	0.17423	0.03505	0.12378	-0.412
Mof_O 	O 	0.21416	0.03586	0.16548	-0.4
Mof_C 	C 	0.2005	0.04605	0.13826	0.354
Mof_C 	C 	0.21849	0.07512	0.11956	-0.028
Mof_C 	C 	0.24697	0.09137	0.13406	-0.11
Mof_H 	H 	0.2558	0.0835	0.1555	0.114
Mof_C 	C 	0.30765	0.1633	0.11828	0.206
Mof_C 	C 	0.33803	0.18173	0.13616	-0.062
Mof_O 	O 	0.29931	0.17919	0.09161	-0.228
Mof_C 	C 	0.3305	0.20646	0.16182	0.028
Mof_C 	C 	0.37113	0.1733	0.12884	0.026
Mof_H 	H 	0.3072	0.2115	0.1676	0.021
Mof_C 	C 	0.35673	0.22309	0.17832	-0.127
Mof_C 	C 	0.39806	0.18903	0.14588	-0.121
Mof_H 	H 	0.3758	0.1563	0.1118	0.027
Mof_H 	H 	0.3516	0.2406	0.1947	0.079
Mof_C 	C 	0.39077	0.21474	0.17141	0.121
Mof_H 	H 	0.4212	0.1829	0.1407	0.074
Mof_N 	N 	0.421	0.2351	0.1887	-0.228
Mof_O 	O 	0.424	0.2329	0.1935	0.024
Mof_H 	H 	0.4283	0.2558	0.1811	0.137
Mof_H 	H 	0.3017	0.1269	0.1548	-0.005
Mof_O 	O 	0.67423	0.53505	0.62378	-0.409
Mof_O 	O 	0.71416	0.53586	0.66548	-0.399
Mof_C 	C 	0.7005	0.54605	0.63826	0.353
Mof_C 	C 	0.71849	0.57512	0.61956	-0.026
Mof_C 	C 	0.74697	0.59137	0.63406	-0.111
Mof_H 	H 	0.7558	0.5835	0.6555	0.115
Mof_C 	C 	0.80765	0.6633	0.61828	0.206
Mof_C 	C 	0.83803	0.68173	0.63616	-0.062
Mof_O 	O 	0.79931	0.67919	0.59161	-0.227
Mof_C 	C 	0.8305	0.70646	0.66182	0.028
Mof_C 	C 	0.87113	0.6733	0.62884	0.027
Mof_H 	H 	0.8072	0.7115	0.6676	0.021
Mof_C 	C 	0.85673	0.72309	0.67832	-0.127
Mof_C 	C 	0.89806	0.68903	0.64588	-0.121
Mof_H 	H 	0.8758	0.6563	0.6118	0.028
Mof_H 	H 	0.8516	0.7406	0.6947	0.079
Mof_C 	C 	0.89077	0.71474	0.67141	0.121
Mof_H 	H 	0.9212	0.6829	0.6407	0.076
Mof_N 	N 	0.921	0.7351	0.6887	-0.228
Mof_O 	O 	0.924	0.7329	0.6935	0.024
Mof_H 	H 	0.9283	0.7558	0.6811	0.138
Mof_H 	H 	0.8017	0.6269	0.6548	-0.005
Mof_O 	O 	0.82577	0.03505	0.87622	-0.41
Mof_O 	O 	0.78584	0.03586	0.83452	-0.4
Mof_C 	C 	0.7995	0.04605	0.86174	0.353
Mof_C 	C 	0.78151	0.07512	0.88044	-0.026
Mof_C 	C 	0.75303	0.09137	0.86594	-0.111
Mof_H 	H 	0.7442	0.0835	0.8445	0.115
Mof_C 	C 	0.69235	0.1633	0.88172	0.206
Mof_C 	C 	0.66197	0.18173	0.86384	-0.062
Mof_O 	O 	0.70069	0.17919	0.90839	-0.227
Mof_C 	C 	0.6695	0.20646	0.83818	0.028
Mof_C 	C 	0.62887	0.1733	0.87116	0.026
Mof_H 	H 	0.6928	0.2115	0.8324	0.021
Mof_C 	C 	0.64327	0.22309	0.82168	-0.126
Mof_C 	C 	0.60194	0.18903	0.85412	-0.12
Mof_H 	H 	0.6242	0.1563	0.8882	0.028
Mof_H 	H 	0.6484	0.2406	0.8053	0.079
Mof_C 	C 	0.60923	0.21474	0.82859	0.121
Mof_H 	H 	0.5788	0.1829	0.8593	0.075
Mof_N 	N 	0.579	0.2351	0.8113	-0.228
Mof_O 	O 	0.576	0.2329	0.8065	0.024
Mof_H 	H 	0.5717	0.2558	0.8189	0.138
Mof_H 	H 	0.6983	0.1269	0.8452	-0.005
Mof_O 	O 	0.32577	0.53505	0.37622	-0.409
Mof_O 	O 	0.28584	0.53586	0.33452	-0.399
Mof_C 	C 	0.2995	0.54605	0.36174	0.353
Mof_C 	C 	0.28151	0.57512	0.38044	-0.026
Mof_C 	C 	0.25303	0.59137	0.36594	-0.111
Mof_H 	H 	0.2442	0.5835	0.3445	0.115
Mof_C 	C 	0.19235	0.6633	0.38172	0.206
Mof_C 	C 	0.16197	0.68173	0.36384	-0.062
Mof_O 	O 	0.20069	0.67919	0.40839	-0.227
Mof_C 	C 	0.1695	0.70646	0.33818	0.027
Mof_C 	C 	0.12887	0.6733	0.37116	0.026
Mof_H 	H 	0.1928	0.7115	0.3324	0.021
Mof_C 	C 	0.14327	0.72309	0.32168	-0.126
Mof_C 	C 	0.10194	0.68903	0.35412	-0.12
Mof_H 	H 	0.1242	0.6563	0.3882	0.027
Mof_H 	H 	0.1484	0.7406	0.3053	0.079
Mof_C 	C 	0.10923	0.71474	0.32859	0.121
Mof_H 	H 	0.0788	0.6829	0.3593	0.074
Mof_N 	N 	0.079	0.7351	0.3113	-0.228
Mof_O 	O 	0.076	0.7329	0.3065	0.024
Mof_H 	H 	0.0717	0.7558	0.3189	0.137
Mof_H 	H 	0.1983	0.6269	0.3452	-0.005
Mof_O 	O 	0.96495	0.87622	0.17423	-0.406
Mof_O 	O 	0.96414	0.83452	0.21416	-0.395
Mof_C 	C 	0.95395	0.86174	0.2005	0.353
Mof_C 	C 	0.92488	0.88044	0.21849	-0.024
Mof_C 	C 	0.90863	0.86594	0.24697	-0.111
Mof_H 	H 	0.9165	0.8445	0.2558	0.115
Mof_C 	C 	0.8367	0.88172	0.30765	0.206
Mof_C 	C 	0.81827	0.86384	0.33803	-0.061
Mof_O 	O 	0.82081	0.90839	0.29931	-0.226
Mof_C 	C 	0.79354	0.83818	0.3305	0.027
Mof_C 	C 	0.8267	0.87116	0.37113	0.026
Mof_H 	H 	0.7885	0.8324	0.3072	0.021
Mof_C 	C 	0.77691	0.82168	0.35673	-0.126
Mof_C 	C 	0.81097	0.85412	0.39806	-0.12
Mof_H 	H 	0.8437	0.8882	0.3758	0.029
Mof_H 	H 	0.7594	0.8053	0.3516	0.079
Mof_C 	C 	0.78526	0.82859	0.39077	0.121
Mof_H 	H 	0.8171	0.8593	0.4212	0.075
Mof_N 	N 	0.7649	0.8113	0.421	-0.228
Mof_O 	O 	0.7671	0.8065	0.424	0.024
Mof_H 	H 	0.7442	0.8189	0.4283	0.138
Mof_H 	H 	0.8731	0.8452	0.3017	-0.005
Mof_O 	O 	0.46495	0.37622	0.67423	-0.409
Mof_O 	O 	0.46414	0.33452	0.71416	-0.399
Mof_C 	C 	0.45395	0.36174	0.7005	0.353
Mof_C 	C 	0.42488	0.38044	0.71849	-0.026
Mof_C 	C 	0.40863	0.36594	0.74697	-0.111
Mof_H 	H 	0.4165	0.3445	0.7558	0.115
Mof_C 	C 	0.3367	0.38172	0.80765	0.206
Mof_C 	C 	0.31827	0.36384	0.83803	-0.062
Mof_O 	O 	0.32081	0.40839	0.79931	-0.227
Mof_C 	C 	0.29354	0.33818	0.8305	0.028
Mof_C 	C 	0.3267	0.37116	0.87113	0.027
Mof_H 	H 	0.2885	0.3324	0.8072	0.021
Mof_C 	C 	0.27691	0.32168	0.85673	-0.127
Mof_C 	C 	0.31097	0.35412	0.89806	-0.121
Mof_H 	H 	0.3437	0.3882	0.8758	0.028
Mof_H 	H 	0.2594	0.3053	0.8516	0.079
Mof_C 	C 	0.28526	0.32859	0.89077	0.121
Mof_H 	H 	0.3171	0.3593	0.9212	0.076
Mof_N 	N 	0.2649	0.3113	0.921	-0.228
Mof_O 	O 	0.2671	0.3065	0.924	0.024
Mof_H 	H 	0.2442	0.3189	0.9283	0.138
Mof_H 	H 	0.3731	0.3452	0.8017	-0.005
Mof_O 	O 	0.96495	0.12378	0.82577	-0.406
Mof_O 	O 	0.96414	0.16548	0.78584	-0.396
Mof_C 	C 	0.95395	0.13826	0.7995	0.353
Mof_C 	C 	0.92488	0.11956	0.78151	-0.025
Mof_C 	C 	0.90863	0.13406	0.75303	-0.111
Mof_H 	H 	0.9165	0.1555	0.7442	0.115
Mof_C 	C 	0.8367	0.11828	0.69235	0.206
Mof_C 	C 	0.81827	0.13616	0.66197	-0.062
Mof_O 	O 	0.82081	0.09161	0.70069	-0.228
Mof_C 	C 	0.79354	0.16182	0.6695	0.027
Mof_C 	C 	0.8267	0.12884	0.62887	0.026
Mof_H 	H 	0.7885	0.1676	0.6928	0.021
Mof_C 	C 	0.77691	0.17832	0.64327	-0.127
Mof_C 	C 	0.81097	0.14588	0.60194	-0.121
Mof_H 	H 	0.8437	0.1118	0.6242	0.028
Mof_H 	H 	0.7594	0.1947	0.6484	0.079
Mof_C 	C 	0.78526	0.17141	0.60923	0.121
Mof_H 	H 	0.8171	0.1407	0.5788	0.074
Mof_N 	N 	0.7649	0.1887	0.579	-0.228
Mof_O 	O 	0.7671	0.1935	0.576	0.024
Mof_H 	H 	0.7442	0.1811	0.5717	0.137
Mof_H 	H 	0.8731	0.1548	0.6983	-0.005
Mof_O 	O 	0.46495	0.62378	0.32577	-0.409
Mof_O 	O 	0.46414	0.66548	0.28584	-0.399
Mof_C 	C 	0.45395	0.63826	0.2995	0.353
Mof_C 	C 	0.42488	0.61956	0.28151	-0.026
Mof_C 	C 	0.40863	0.63406	0.25303	-0.111
Mof_H 	H 	0.4165	0.6555	0.2442	0.115
Mof_C 	C 	0.3367	0.61828	0.19235	0.206
Mof_C 	C 	0.31827	0.63616	0.16197	-0.062
Mof_O 	O 	0.32081	0.59161	0.20069	-0.227
Mof_C 	C 	0.29354	0.66182	0.1695	0.027
Mof_C 	C 	0.3267	0.62884	0.12887	0.026
Mof_H 	H 	0.2885	0.6676	0.1928	0.021
Mof_C 	C 	0.27691	0.67832	0.14327	-0.126
Mof_C 	C 	0.31097	0.64588	0.10194	-0.12
Mof_H 	H 	0.3437	0.6118	0.1242	0.027
Mof_H 	H 	0.2594	0.6947	0.1484	0.079
Mof_C 	C 	0.28526	0.67141	0.10923	0.12
Mof_H 	H 	0.3171	0.6407	0.0788	0.074
Mof_N 	N 	0.2649	0.6887	0.079	-0.228
Mof_O 	O 	0.2671	0.6935	0.076	0.024
Mof_H 	H 	0.2442	0.6811	0.0717	0.137
Mof_H 	H 	0.3731	0.6548	0.1983	-0.005
Mof_O 	O 	0.03505	0.87622	0.82577	-0.41
Mof_O 	O 	0.03586	0.83452	0.78584	-0.4
Mof_C 	C 	0.04605	0.86174	0.7995	0.353
Mof_C 	C 	0.07512	0.88044	0.78151	-0.026
Mof_C 	C 	0.09137	0.86594	0.75303	-0.111
Mof_H 	H 	0.0835	0.8445	0.7442	0.115
Mof_C 	C 	0.1633	0.88172	0.69235	0.206
Mof_C 	C 	0.18173	0.86384	0.66197	-0.062
Mof_O 	O 	0.17919	0.90839	0.70069	-0.227
Mof_C 	C 	0.20646	0.83818	0.6695	0.028
Mof_C 	C 	0.1733	0.87116	0.62887	0.026
Mof_H 	H 	0.2115	0.8324	0.6928	0.021
Mof_C 	C 	0.22309	0.82168	0.64327	-0.126
Mof_C 	C 	0.18903	0.85412	0.60194	-0.12
Mof_H 	H 	0.1563	0.8882	0.6242	0.028
Mof_H 	H 	0.2406	0.8053	0.6484	0.079
Mof_C 	C 	0.21474	0.82859	0.60923	0.121
Mof_H 	H 	0.1829	0.8593	0.5788	0.075
Mof_N 	N 	0.2351	0.8113	0.579	-0.228
Mof_O 	O 	0.2329	0.8065	0.576	0.024
Mof_H 	H 	0.2558	0.8189	0.5717	0.138
Mof_H 	H 	0.1269	0.8452	0.6983	-0.005
Mof_O 	O 	0.53505	0.37622	0.32577	-0.409
Mof_O 	O 	0.53586	0.33452	0.28584	-0.399
Mof_C 	C 	0.54605	0.36174	0.2995	0.353
Mof_C 	C 	0.57512	0.38044	0.28151	-0.026
Mof_C 	C 	0.59137	0.36594	0.25303	-0.111
Mof_H 	H 	0.5835	0.3445	0.2442	0.115
Mof_C 	C 	0.6633	0.38172	0.19235	0.206
Mof_C 	C 	0.68173	0.36384	0.16197	-0.062
Mof_O 	O 	0.67919	0.40839	0.20069	-0.227
Mof_C 	C 	0.70646	0.33818	0.1695	0.027
Mof_C 	C 	0.6733	0.37116	0.12887	0.026
Mof_H 	H 	0.7115	0.3324	0.1928	0.021
Mof_C 	C 	0.72309	0.32168	0.14327	-0.126
Mof_C 	C 	0.68903	0.35412	0.10194	-0.12
Mof_H 	H 	0.6563	0.3882	0.1242	0.027
Mof_H 	H 	0.7406	0.3053	0.1484	0.079
Mof_C 	C 	0.71474	0.32859	0.10923	0.121
Mof_H 	H 	0.6829	0.3593	0.0788	0.074
Mof_N 	N 	0.7351	0.3113	0.079	-0.228
Mof_O 	O 	0.7329	0.3065	0.076	0.024
Mof_H 	H 	0.7558	0.3189	0.0717	0.137
Mof_H 	H 	0.6269	0.3452	0.1983	-0.005
Mof_O 	O 	0.03505	0.12378	0.17423	-0.412
Mof_O 	O 	0.03586	0.16548	0.21416	-0.4
Mof_C 	C 	0.04605	0.13826	0.2005	0.354
Mof_C 	C 	0.07512	0.11956	0.21849	-0.028
Mof_C 	C 	0.09137	0.13406	0.24697	-0.11
Mof_H 	H 	0.0835	0.1555	0.2558	0.114
Mof_C 	C 	0.1633	0.11828	0.30765	0.206
Mof_C 	C 	0.18173	0.13616	0.33803	-0.062
Mof_O 	O 	0.17919	0.09161	0.29931	-0.228
Mof_C 	C 	0.20646	0.16182	0.3305	0.028
Mof_C 	C 	0.1733	0.12884	0.37113	0.026
Mof_H 	H 	0.2115	0.1676	0.3072	0.021
Mof_C 	C 	0.22309	0.17832	0.35673	-0.127
Mof_C 	C 	0.18903	0.14588	0.39806	-0.121
Mof_H 	H 	0.1563	0.1118	0.3758	0.027
Mof_H 	H 	0.2406	0.1947	0.3516	0.079
Mof_C 	C 	0.21474	0.17141	0.39077	0.121
Mof_H 	H 	0.1829	0.1407	0.4212	0.074
Mof_N 	N 	0.2351	0.1887	0.421	-0.228
Mof_O 	O 	0.2329	0.1935	0.424	0.024
Mof_H 	H 	0.2558	0.1811	0.4283	0.137
Mof_H 	H 	0.1269	0.1548	0.3017	-0.005
Mof_O 	O 	0.53505	0.62378	0.67423	-0.409
Mof_O 	O 	0.53586	0.66548	0.71416	-0.399
Mof_C 	C 	0.54605	0.63826	0.7005	0.353
Mof_C 	C 	0.57512	0.61956	0.71849	-0.026
Mof_C 	C 	0.59137	0.63406	0.74697	-0.111
Mof_H 	H 	0.5835	0.6555	0.7558	0.115
Mof_C 	C 	0.6633	0.61828	0.80765	0.206
Mof_C 	C 	0.68173	0.63616	0.83803	-0.062
Mof_O 	O 	0.67919	0.59161	0.79931	-0.227
Mof_C 	C 	0.70646	0.66182	0.8305	0.028
Mof_C 	C 	0.6733	0.62884	0.87113	0.027
Mof_H 	H 	0.7115	0.6676	0.8072	0.021
Mof_C 	C 	0.72309	0.67832	0.85673	-0.127
Mof_C 	C 	0.68903	0.64588	0.89806	-0.121
Mof_H 	H 	0.6563	0.6118	0.8758	0.028
Mof_H 	H 	0.7406	0.6947	0.8516	0.079
Mof_C 	C 	0.71474	0.67141	0.89077	0.121
Mof_H 	H 	0.6829	0.6407	0.9212	0.076
Mof_N 	N 	0.7351	0.6887	0.921	-0.228
Mof_O 	O 	0.7329	0.6935	0.924	0.024
Mof_H 	H 	0.7558	0.6811	0.9283	0.138
Mof_H 	H 	0.6269	0.6548	0.8017	-0.005
Mof_O 	O 	0.17423	0.12378	0.03505	-0.412
Mof_O 	O 	0.21416	0.16548	0.03586	-0.4
Mof_C 	C 	0.2005	0.13826	0.04605	0.354
Mof_C 	C 	0.21849	0.11956	0.07512	-0.028
Mof_C 	C 	0.24697	0.13406	0.09137	-0.11
Mof_H 	H 	0.2558	0.1555	0.0835	0.114
Mof_C 	C 	0.30765	0.11828	0.1633	0.206
Mof_C 	C 	0.33803	0.13616	0.18173	-0.062
Mof_O 	O 	0.29931	0.09161	0.17919	-0.228
Mof_C 	C 	0.3305	0.16182	0.20646	0.028
Mof_C 	C 	0.37113	0.12884	0.1733	0.026
Mof_H 	H 	0.3072	0.1676	0.2115	0.021
Mof_C 	C 	0.35673	0.17832	0.22309	-0.127
Mof_C 	C 	0.39806	0.14588	0.18903	-0.121
Mof_H 	H 	0.3758	0.1118	0.1563	0.027
Mof_H 	H 	0.3516	0.1947	0.2406	0.079
Mof_C 	C 	0.39077	0.17141	0.21474	0.121
Mof_H 	H 	0.4212	0.1407	0.1829	0.074
Mof_N 	N 	0.421	0.1887	0.2351	-0.228
Mof_O 	O 	0.424	0.1935	0.2329	0.024
Mof_H 	H 	0.4283	0.1811	0.2558	0.137
Mof_H 	H 	0.3017	0.1548	0.1269	-0.005
Mof_O 	O 	0.67423	0.62378	0.53505	-0.409
Mof_O 	O 	0.71416	0.66548	0.53586	-0.399
Mof_C 	C 	0.7005	0.63826	0.54605	0.353
Mof_C 	C 	0.71849	0.61956	0.57512	-0.026
Mof_C 	C 	0.74697	0.63406	0.59137	-0.111
Mof_H 	H 	0.7558	0.6555	0.5835	0.115
Mof_C 	C 	0.80765	0.61828	0.6633	0.206
Mof_C 	C 	0.83803	0.63616	0.68173	-0.062
Mof_O 	O 	0.79931	0.59161	0.67919	-0.227
Mof_C 	C 	0.8305	0.66182	0.70646	0.028
Mof_C 	C 	0.87113	0.62884	0.6733	0.027
Mof_H 	H 	0.8072	0.6676	0.7115	0.021
Mof_C 	C 	0.85673	0.67832	0.72309	-0.127
Mof_C 	C 	0.89806	0.64588	0.68903	-0.121
Mof_H 	H 	0.8758	0.6118	0.6563	0.028
Mof_H 	H 	0.8516	0.6947	0.7406	0.079
Mof_C 	C 	0.89077	0.67141	0.71474	0.121
Mof_H 	H 	0.9212	0.6407	0.6829	0.076
Mof_N 	N 	0.921	0.6887	0.7351	-0.228
Mof_O 	O 	0.924	0.6935	0.7329	0.024
Mof_H 	H 	0.9283	0.6811	0.7558	0.138
Mof_H 	H 	0.8017	0.6548	0.6269	-0.005
Mof_O 	O 	0.82577	0.87622	0.03505	-0.41
Mof_O 	O 	0.78584	0.83452	0.03586	-0.4
Mof_C 	C 	0.7995	0.86174	0.04605	0.353
Mof_C 	C 	0.78151	0.88044	0.07512	-0.026
Mof_C 	C 	0.75303	0.86594	0.09137	-0.111
Mof_H 	H 	0.7442	0.8445	0.0835	0.115
Mof_C 	C 	0.69235	0.88172	0.1633	0.206
Mof_C 	C 	0.66197	0.86384	0.18173	-0.062
Mof_O 	O 	0.70069	0.90839	0.17919	-0.227
Mof_C 	C 	0.6695	0.83818	0.20646	0.028
Mof_C 	C 	0.62887	0.87116	0.1733	0.026
Mof_H 	H 	0.6928	0.8324	0.2115	0.021
Mof_C 	C 	0.64327	0.82168	0.22309	-0.126
Mof_C 	C 	0.60194	0.85412	0.18903	-0.12
Mof_H 	H 	0.6242	0.8882	0.1563	0.028
Mof_H 	H 	0.6484	0.8053	0.2406	0.079
Mof_C 	C 	0.60923	0.82859	0.21474	0.121
Mof_H 	H 	0.5788	0.8593	0.1829	0.075
Mof_N 	N 	0.579	0.8113	0.2351	-0.228
Mof_O 	O 	0.576	0.8065	0.2329	0.024
Mof_H 	H 	0.5717	0.8189	0.2558	0.138
Mof_H 	H 	0.6983	0.8452	0.1269	-0.005
Mof_O 	O 	0.32577	0.37622	0.53505	-0.409
Mof_O 	O 	0.28584	0.33452	0.53586	-0.399
Mof_C 	C 	0.2995	0.36174	0.54605	0.353
Mof_C 	C 	0.28151	0.38044	0.57512	-0.026
Mof_C 	C 	0.25303	0.36594	0.59137	-0.111
Mof_H 	H 	0.2442	0.3445	0.5835	0.115
Mof_C 	C 	0.19235	0.38172	0.6633	0.206
Mof_C 	C 	0.16197	0.36384	0.68173	-0.062
Mof_O 	O 	0.20069	0.40839	0.67919	-0.227
Mof_C 	C 	0.1695	0.33818	0.70646	0.027
Mof_C 	C 	0.12887	0.37116	0.6733	0.026
Mof_H 	H 	0.1928	0.3324	0.7115	0.021
Mof_C 	C 	0.14327	0.32168	0.72309	-0.126
Mof_C 	C 	0.10194	0.35412	0.68903	-0.12
Mof_H 	H 	0.1242	0.3882	0.6563	0.027
Mof_H 	H 	0.1484	0.3053	0.7406	0.079
Mof_C 	C 	0.10923	0.32859	0.71474	0.121
Mof_H 	H 	0.0788	0.3593	0.6829	0.074
Mof_N 	N 	0.079	0.3113	0.7351	-0.228
Mof_O 	O 	0.076	0.3065	0.7329	0.024
Mof_H 	H 	0.0717	0.3189	0.7558	0.137
Mof_H 	H 	0.1983	0.3452	0.6269	-0.005
Mof_O 	O 	0.82577	0.12378	0.96495	-0.406
Mof_O 	O 	0.78584	0.16548	0.96414	-0.396
Mof_C 	C 	0.7995	0.13826	0.95395	0.353
Mof_C 	C 	0.78151	0.11956	0.92488	-0.025
Mof_C 	C 	0.75303	0.13406	0.90863	-0.111
Mof_H 	H 	0.7442	0.1555	0.9165	0.115
Mof_C 	C 	0.69235	0.11828	0.8367	0.206
Mof_C 	C 	0.66197	0.13616	0.81827	-0.062
Mof_O 	O 	0.70069	0.09161	0.82081	-0.228
Mof_C 	C 	0.6695	0.16182	0.79354	0.027
Mof_C 	C 	0.62887	0.12884	0.8267	0.026
Mof_H 	H 	0.6928	0.1676	0.7885	0.021
Mof_C 	C 	0.64327	0.17832	0.77691	-0.127
Mof_C 	C 	0.60194	0.14588	0.81097	-0.121
Mof_H 	H 	0.6242	0.1118	0.8437	0.028
Mof_H 	H 	0.6484	0.1947	0.7594	0.079
Mof_C 	C 	0.60923	0.17141	0.78526	0.121
Mof_H 	H 	0.5788	0.1407	0.8171	0.074
Mof_N 	N 	0.579	0.1887	0.7649	-0.228
Mof_O 	O 	0.576	0.1935	0.7671	0.024
Mof_H 	H 	0.5717	0.1811	0.7442	0.137
Mof_H 	H 	0.6983	0.1548	0.8731	-0.005
Mof_O 	O 	0.32577	0.62378	0.46495	-0.409
Mof_O 	O 	0.28584	0.66548	0.46414	-0.399
Mof_C 	C 	0.2995	0.63826	0.45395	0.353
Mof_C 	C 	0.28151	0.61956	0.42488	-0.026
Mof_C 	C 	0.25303	0.63406	0.40863	-0.111
Mof_H 	H 	0.2442	0.6555	0.4165	0.115
Mof_C 	C 	0.19235	0.61828	0.3367	0.206
Mof_C 	C 	0.16197	0.63616	0.31827	-0.062
Mof_O 	O 	0.20069	0.59161	0.32081	-0.227
Mof_C 	C 	0.1695	0.66182	0.29354	0.027
Mof_C 	C 	0.12887	0.62884	0.3267	0.026
Mof_H 	H 	0.1928	0.6676	0.2885	0.021
Mof_C 	C 	0.14327	0.67832	0.27691	-0.126
Mof_C 	C 	0.10194	0.64588	0.31097	-0.12
Mof_H 	H 	0.1242	0.6118	0.3437	0.027
Mof_H 	H 	0.1484	0.6947	0.2594	0.079
Mof_C 	C 	0.10923	0.67141	0.28526	0.12
Mof_H 	H 	0.0788	0.6407	0.3171	0.074
Mof_N 	N 	0.079	0.6887	0.2649	-0.228
Mof_O 	O 	0.076	0.6935	0.2671	0.024
Mof_H 	H 	0.0717	0.6811	0.2442	0.137
Mof_H 	H 	0.1983	0.6548	0.3731	-0.005
Mof_O 	O 	0.17423	0.87622	0.96495	-0.406
Mof_O 	O 	0.21416	0.83452	0.96414	-0.395
Mof_C 	C 	0.2005	0.86174	0.95395	0.353
Mof_C 	C 	0.21849	0.88044	0.92488	-0.024
Mof_C 	C 	0.24697	0.86594	0.90863	-0.111
Mof_H 	H 	0.2558	0.8445	0.9165	0.115
Mof_C 	C 	0.30765	0.88172	0.8367	0.206
Mof_C 	C 	0.33803	0.86384	0.81827	-0.061
Mof_O 	O 	0.29931	0.90839	0.82081	-0.226
Mof_C 	C 	0.3305	0.83818	0.79354	0.027
Mof_C 	C 	0.37113	0.87116	0.8267	0.026
Mof_H 	H 	0.3072	0.8324	0.7885	0.021
Mof_C 	C 	0.35673	0.82168	0.77691	-0.126
Mof_C 	C 	0.39806	0.85412	0.81097	-0.12
Mof_H 	H 	0.3758	0.8882	0.8437	0.029
Mof_H 	H 	0.3516	0.8053	0.7594	0.079
Mof_C 	C 	0.39077	0.82859	0.78526	0.121
Mof_H 	H 	0.4212	0.8593	0.8171	0.075
Mof_N 	N 	0.421	0.8113	0.7649	-0.228
Mof_O 	O 	0.424	0.8065	0.7671	0.024
Mof_H 	H 	0.4283	0.8189	0.7442	0.138
Mof_H 	H 	0.3017	0.8452	0.8731	-0.005
Mof_O 	O 	0.67423	0.37622	0.46495	-0.409
Mof_O 	O 	0.71416	0.33452	0.46414	-0.399
Mof_C 	C 	0.7005	0.36174	0.45395	0.353
Mof_C 	C 	0.71849	0.38044	0.42488	-0.026
Mof_C 	C 	0.74697	0.36594	0.40863	-0.111
Mof_H 	H 	0.7558	0.3445	0.4165	0.115
Mof_C 	C 	0.80765	0.38172	0.3367	0.206
Mof_C 	C 	0.83803	0.36384	0.31827	-0.062
Mof_O 	O 	0.79931	0.40839	0.32081	-0.227
Mof_C 	C 	0.8305	0.33818	0.29354	0.028
Mof_C 	C 	0.87113	0.37116	0.3267	0.027
Mof_H 	H 	0.8072	0.3324	0.2885	0.021
Mof_C 	C 	0.85673	0.32168	0.27691	-0.127
Mof_C 	C 	0.89806	0.35412	0.31097	-0.121
Mof_H 	H 	0.8758	0.3882	0.3437	0.028
Mof_H 	H 	0.8516	0.3053	0.2594	0.079
Mof_C 	C 	0.89077	0.32859	0.28526	0.121
Mof_H 	H 	0.9212	0.3593	0.3171	0.076
Mof_N 	N 	0.921	0.3113	0.2649	-0.228
Mof_O 	O 	0.924	0.3065	0.2671	0.024
Mof_H 	H 	0.9283	0.3189	0.2442	0.138
Mof_H 	H 	0.8017	0.3452	0.3731	-0.005
Mof_O 	O 	0.03505	0.17423	0.12378	-0.412
Mof_O 	O 	0.03586	0.21416	0.16548	-0.4
Mof_C 	C 	0.04605	0.2005	0.13826	0.354
Mof_C 	C 	0.07512	0.21849	0.11956	-0.028
Mof_C 	C 	0.09137	0.24697	0.13406	-0.11
Mof_H 	H 	0.0835	0.2558	0.1555	0.114
Mof_C 	C 	0.1633	0.30765	0.11828	0.206
Mof_C 	C 	0.18173	0.33803	0.13616	-0.062
Mof_O 	O 	0.17919	0.29931	0.09161	-0.228
Mof_C 	C 	0.20646	0.3305	0.16182	0.028
Mof_C 	C 	0.1733	0.37113	0.12884	0.026
Mof_H 	H 	0.2115	0.3072	0.1676	0.021
Mof_C 	C 	0.22309	0.35673	0.17832	-0.127
Mof_C 	C 	0.18903	0.39806	0.14588	-0.121
Mof_H 	H 	0.1563	0.3758	0.1118	0.027
Mof_H 	H 	0.2406	0.3516	0.1947	0.079
Mof_C 	C 	0.21474	0.39077	0.17141	0.121
Mof_H 	H 	0.1829	0.4212	0.1407	0.074
Mof_N 	N 	0.2351	0.421	0.1887	-0.228
Mof_O 	O 	0.2329	0.424	0.1935	0.024
Mof_H 	H 	0.2558	0.4283	0.1811	0.137
Mof_H 	H 	0.1269	0.3017	0.1548	-0.005
Mof_O 	O 	0.53505	0.67423	0.62378	-0.409
Mof_O 	O 	0.53586	0.71416	0.66548	-0.399
Mof_C 	C 	0.54605	0.7005	0.63826	0.353
Mof_C 	C 	0.57512	0.71849	0.61956	-0.026
Mof_C 	C 	0.59137	0.74697	0.63406	-0.111
Mof_H 	H 	0.5835	0.7558	0.6555	0.115
Mof_C 	C 	0.6633	0.80765	0.61828	0.206
Mof_C 	C 	0.68173	0.83803	0.63616	-0.062
Mof_O 	O 	0.67919	0.79931	0.59161	-0.227
Mof_C 	C 	0.70646	0.8305	0.66182	0.028
Mof_C 	C 	0.6733	0.87113	0.62884	0.027
Mof_H 	H 	0.7115	0.8072	0.6676	0.021
Mof_C 	C 	0.72309	0.85673	0.67832	-0.127
Mof_C 	C 	0.68903	0.89806	0.64588	-0.121
Mof_H 	H 	0.6563	0.8758	0.6118	0.028
Mof_H 	H 	0.7406	0.8516	0.6947	0.079
Mof_C 	C 	0.71474	0.89077	0.67141	0.121
Mof_H 	H 	0.6829	0.9212	0.6407	0.076
Mof_N 	N 	0.7351	0.921	0.6887	-0.228
Mof_O 	O 	0.7329	0.924	0.6935	0.024
Mof_H 	H 	0.7558	0.9283	0.6811	0.138
Mof_H 	H 	0.6269	0.8017	0.6548	-0.005
Mof_O 	O 	0.03505	0.82577	0.87622	-0.41
Mof_O 	O 	0.03586	0.78584	0.83452	-0.4
Mof_C 	C 	0.04605	0.7995	0.86174	0.353
Mof_C 	C 	0.07512	0.78151	0.88044	-0.026
Mof_C 	C 	0.09137	0.75303	0.86594	-0.111
Mof_H 	H 	0.0835	0.7442	0.8445	0.115
Mof_C 	C 	0.1633	0.69235	0.88172	0.206
Mof_C 	C 	0.18173	0.66197	0.86384	-0.062
Mof_O 	O 	0.17919	0.70069	0.90839	-0.227
Mof_C 	C 	0.20646	0.6695	0.83818	0.028
Mof_C 	C 	0.1733	0.62887	0.87116	0.026
Mof_H 	H 	0.2115	0.6928	0.8324	0.021
Mof_C 	C 	0.22309	0.64327	0.82168	-0.126
Mof_C 	C 	0.18903	0.60194	0.85412	-0.12
Mof_H 	H 	0.1563	0.6242	0.8882	0.028
Mof_H 	H 	0.2406	0.6484	0.8053	0.079
Mof_C 	C 	0.21474	0.60923	0.82859	0.121
Mof_H 	H 	0.1829	0.5788	0.8593	0.075
Mof_N 	N 	0.2351	0.579	0.8113	-0.228
Mof_O 	O 	0.2329	0.576	0.8065	0.024
Mof_H 	H 	0.2558	0.5717	0.8189	0.138
Mof_H 	H 	0.1269	0.6983	0.8452	-0.005
Mof_O 	O 	0.53505	0.32577	0.37622	-0.409
Mof_O 	O 	0.53586	0.28584	0.33452	-0.399
Mof_C 	C 	0.54605	0.2995	0.36174	0.353
Mof_C 	C 	0.57512	0.28151	0.38044	-0.026
Mof_C 	C 	0.59137	0.25303	0.36594	-0.111
Mof_H 	H 	0.5835	0.2442	0.3445	0.115
Mof_C 	C 	0.6633	0.19235	0.38172	0.206
Mof_C 	C 	0.68173	0.16197	0.36384	-0.062
Mof_O 	O 	0.67919	0.20069	0.40839	-0.227
Mof_C 	C 	0.70646	0.1695	0.33818	0.027
Mof_C 	C 	0.6733	0.12887	0.37116	0.026
Mof_H 	H 	0.7115	0.1928	0.3324	0.021
Mof_C 	C 	0.72309	0.14327	0.32168	-0.126
Mof_C 	C 	0.68903	0.10194	0.35412	-0.12
Mof_H 	H 	0.6563	0.1242	0.3882	0.027
Mof_H 	H 	0.7406	0.1484	0.3053	0.079
Mof_C 	C 	0.71474	0.10923	0.32859	0.121
Mof_H 	H 	0.6829	0.0788	0.3593	0.074
Mof_N 	N 	0.7351	0.079	0.3113	-0.228
Mof_O 	O 	0.7329	0.076	0.3065	0.024
Mof_H 	H 	0.7558	0.0717	0.3189	0.137
Mof_H 	H 	0.6269	0.1983	0.3452	-0.005
Mof_O 	O 	0.96495	0.82577	0.12378	-0.406
Mof_O 	O 	0.96414	0.78584	0.16548	-0.396
Mof_C 	C 	0.95395	0.7995	0.13826	0.353
Mof_C 	C 	0.92488	0.78151	0.11956	-0.025
Mof_C 	C 	0.90863	0.75303	0.13406	-0.111
Mof_H 	H 	0.9165	0.7442	0.1555	0.115
Mof_C 	C 	0.8367	0.69235	0.11828	0.206
Mof_C 	C 	0.81827	0.66197	0.13616	-0.062
Mof_O 	O 	0.82081	0.70069	0.09161	-0.228
Mof_C 	C 	0.79354	0.6695	0.16182	0.027
Mof_C 	C 	0.8267	0.62887	0.12884	0.026
Mof_H 	H 	0.7885	0.6928	0.1676	0.021
Mof_C 	C 	0.77691	0.64327	0.17832	-0.127
Mof_C 	C 	0.81097	0.60194	0.14588	-0.121
Mof_H 	H 	0.8437	0.6242	0.1118	0.028
Mof_H 	H 	0.7594	0.6484	0.1947	0.079
Mof_C 	C 	0.78526	0.60923	0.17141	0.121
Mof_H 	H 	0.8171	0.5788	0.1407	0.074
Mof_N 	N 	0.7649	0.579	0.1887	-0.228
Mof_O 	O 	0.7671	0.576	0.1935	0.024
Mof_H 	H 	0.7442	0.5717	0.1811	0.137
Mof_H 	H 	0.8731	0.6983	0.1548	-0.005
Mof_O 	O 	0.46495	0.32577	0.62378	-0.409
Mof_O 	O 	0.46414	0.28584	0.66548	-0.399
Mof_C 	C 	0.45395	0.2995	0.63826	0.353
Mof_C 	C 	0.42488	0.28151	0.61956	-0.026
Mof_C 	C 	0.40863	0.25303	0.63406	-0.111
Mof_H 	H 	0.4165	0.2442	0.6555	0.115
Mof_C 	C 	0.3367	0.19235	0.61828	0.206
Mof_C 	C 	0.31827	0.16197	0.63616	-0.062
Mof_O 	O 	0.32081	0.20069	0.59161	-0.227
Mof_C 	C 	0.29354	0.1695	0.66182	0.027
Mof_C 	C 	0.3267	0.12887	0.62884	0.026
Mof_H 	H 	0.2885	0.1928	0.6676	0.021
Mof_C 	C 	0.27691	0.14327	0.67832	-0.126
Mof_C 	C 	0.31097	0.10194	0.64588	-0.12
Mof_H 	H 	0.3437	0.1242	0.6118	0.027
Mof_H 	H 	0.2594	0.1484	0.6947	0.079
Mof_C 	C 	0.28526	0.10923	0.67141	0.12
Mof_H 	H 	0.3171	0.0788	0.6407	0.074
Mof_N 	N 	0.2649	0.079	0.6887	-0.228
Mof_O 	O 	0.2671	0.076	0.6935	0.024
Mof_H 	H 	0.2442	0.0717	0.6811	0.137
Mof_H 	H 	0.3731	0.1983	0.6548	-0.005
Mof_O 	O 	0.96495	0.17423	0.87622	-0.406
Mof_O 	O 	0.96414	0.21416	0.83452	-0.395
Mof_C 	C 	0.95395	0.2005	0.86174	0.353
Mof_C 	C 	0.92488	0.21849	0.88044	-0.024
Mof_C 	C 	0.90863	0.24697	0.86594	-0.111
Mof_H 	H 	0.9165	0.2558	0.8445	0.115
Mof_C 	C 	0.8367	0.30765	0.88172	0.206
Mof_C 	C 	0.81827	0.33803	0.86384	-0.061
Mof_O 	O 	0.82081	0.29931	0.90839	-0.226
Mof_C 	C 	0.79354	0.3305	0.83818	0.027
Mof_C 	C 	0.8267	0.37113	0.87116	0.026
Mof_H 	H 	0.7885	0.3072	0.8324	0.021
Mof_C 	C 	0.77691	0.35673	0.82168	-0.126
Mof_C 	C 	0.81097	0.39806	0.85412	-0.12
Mof_H 	H 	0.8437	0.3758	0.8882	0.029
Mof_H 	H 	0.7594	0.3516	0.8053	0.079
Mof_C 	C 	0.78526	0.39077	0.82859	0.121
Mof_H 	H 	0.8171	0.4212	0.8593	0.075
Mof_N 	N 	0.7649	0.421	0.8113	-0.228
Mof_O 	O 	0.7671	0.424	0.8065	0.024
Mof_H 	H 	0.7442	0.4283	0.8189	0.138
Mof_H 	H 	0.8731	0.3017	0.8452	-0.005
Mof_O 	O 	0.46495	0.67423	0.37622	-0.409
Mof_O 	O 	0.46414	0.71416	0.33452	-0.399
Mof_C 	C 	0.45395	0.7005	0.36174	0.353
Mof_C 	C 	0.42488	0.71849	0.38044	-0.026
Mof_C 	C 	0.40863	0.74697	0.36594	-0.111
Mof_H 	H 	0.4165	0.7558	0.3445	0.115
Mof_C 	C 	0.3367	0.80765	0.38172	0.206
Mof_C 	C 	0.31827	0.83803	0.36384	-0.062
Mof_O 	O 	0.32081	0.79931	0.40839	-0.227
Mof_C 	C 	0.29354	0.8305	0.33818	0.028
Mof_C 	C 	0.3267	0.87113	0.37116	0.027
Mof_H 	H 	0.2885	0.8072	0.3324	0.021
Mof_C 	C 	0.27691	0.85673	0.32168	-0.127
Mof_C 	C 	0.31097	0.89806	0.35412	-0.121
Mof_H 	H 	0.3437	0.8758	0.3882	0.028
Mof_H 	H 	0.2594	0.8516	0.3053	0.079
Mof_C 	C 	0.28526	0.89077	0.32859	0.121
Mof_H 	H 	0.3171	0.9212	0.3593	0.076
Mof_N 	N 	0.2649	0.921	0.3113	-0.228
Mof_O 	O 	0.2671	0.924	0.3065	0.024
Mof_H 	H 	0.2442	0.9283	0.3189	0.138
Mof_H 	H 	0.3731	0.8017	0.3452	-0.005
Mof_O 	O 	0.12378	0.03505	0.17423	-0.412
Mof_O 	O 	0.16548	0.03586	0.21416	-0.4
Mof_C 	C 	0.13826	0.04605	0.2005	0.354
Mof_C 	C 	0.11956	0.07512	0.21849	-0.028
Mof_C 	C 	0.13406	0.09137	0.24697	-0.11
Mof_H 	H 	0.1555	0.0835	0.2558	0.114
Mof_C 	C 	0.11828	0.1633	0.30765	0.206
Mof_C 	C 	0.13616	0.18173	0.33803	-0.062
Mof_O 	O 	0.09161	0.17919	0.29931	-0.228
Mof_C 	C 	0.16182	0.20646	0.3305	0.028
Mof_C 	C 	0.12884	0.1733	0.37113	0.026
Mof_H 	H 	0.1676	0.2115	0.3072	0.021
Mof_C 	C 	0.17832	0.22309	0.35673	-0.127
Mof_C 	C 	0.14588	0.18903	0.39806	-0.121
Mof_H 	H 	0.1118	0.1563	0.3758	0.027
Mof_H 	H 	0.1947	0.2406	0.3516	0.079
Mof_C 	C 	0.17141	0.21474	0.39077	0.121
Mof_H 	H 	0.1407	0.1829	0.4212	0.074
Mof_N 	N 	0.1887	0.2351	0.421	-0.228
Mof_O 	O 	0.1935	0.2329	0.424	0.024
Mof_H 	H 	0.1811	0.2558	0.4283	0.137
Mof_H 	H 	0.1548	0.1269	0.3017	-0.005
Mof_O 	O 	0.62378	0.53505	0.67423	-0.409
Mof_O 	O 	0.66548	0.53586	0.71416	-0.399
Mof_C 	C 	0.63826	0.54605	0.7005	0.353
Mof_C 	C 	0.61956	0.57512	0.71849	-0.026
Mof_C 	C 	0.63406	0.59137	0.74697	-0.111
Mof_H 	H 	0.6555	0.5835	0.7558	0.115
Mof_C 	C 	0.61828	0.6633	0.80765	0.206
Mof_C 	C 	0.63616	0.68173	0.83803	-0.062
Mof_O 	O 	0.59161	0.67919	0.79931	-0.227
Mof_C 	C 	0.66182	0.70646	0.8305	0.028
Mof_C 	C 	0.62884	0.6733	0.87113	0.027
Mof_H 	H 	0.6676	0.7115	0.8072	0.021
Mof_C 	C 	0.67832	0.72309	0.85673	-0.127
Mof_C 	C 	0.64588	0.68903	0.89806	-0.121
Mof_H 	H 	0.6118	0.6563	0.8758	0.028
Mof_H 	H 	0.6947	0.7406	0.8516	0.079
Mof_C 	C 	0.67141	0.71474	0.89077	0.121
Mof_H 	H 	0.6407	0.6829	0.9212	0.076
Mof_N 	N 	0.6887	0.7351	0.921	-0.228
Mof_O 	O 	0.6935	0.7329	0.924	0.024
Mof_H 	H 	0.6811	0.7558	0.9283	0.138
Mof_H 	H 	0.6548	0.6269	0.8017	-0.005
Mof_O 	O 	0.87622	0.03505	0.82577	-0.41
Mof_O 	O 	0.83452	0.03586	0.78584	-0.4
Mof_C 	C 	0.86174	0.04605	0.7995	0.353
Mof_C 	C 	0.88044	0.07512	0.78151	-0.026
Mof_C 	C 	0.86594	0.09137	0.75303	-0.111
Mof_H 	H 	0.8445	0.0835	0.7442	0.115
Mof_C 	C 	0.88172	0.1633	0.69235	0.206
Mof_C 	C 	0.86384	0.18173	0.66197	-0.062
Mof_O 	O 	0.90839	0.17919	0.70069	-0.227
Mof_C 	C 	0.83818	0.20646	0.6695	0.028
Mof_C 	C 	0.87116	0.1733	0.62887	0.026
Mof_H 	H 	0.8324	0.2115	0.6928	0.021
Mof_C 	C 	0.82168	0.22309	0.64327	-0.126
Mof_C 	C 	0.85412	0.18903	0.60194	-0.12
Mof_H 	H 	0.8882	0.1563	0.6242	0.028
Mof_H 	H 	0.8053	0.2406	0.6484	0.079
Mof_C 	C 	0.82859	0.21474	0.60923	0.121
Mof_H 	H 	0.8593	0.1829	0.5788	0.075
Mof_N 	N 	0.8113	0.2351	0.579	-0.228
Mof_O 	O 	0.8065	0.2329	0.576	0.024
Mof_H 	H 	0.8189	0.2558	0.5717	0.138
Mof_H 	H 	0.8452	0.1269	0.6983	-0.005
Mof_O 	O 	0.37622	0.53505	0.32577	-0.409
Mof_O 	O 	0.33452	0.53586	0.28584	-0.399
Mof_C 	C 	0.36174	0.54605	0.2995	0.353
Mof_C 	C 	0.38044	0.57512	0.28151	-0.026
Mof_C 	C 	0.36594	0.59137	0.25303	-0.111
Mof_H 	H 	0.3445	0.5835	0.2442	0.115
Mof_C 	C 	0.38172	0.6633	0.19235	0.206
Mof_C 	C 	0.36384	0.68173	0.16197	-0.062
Mof_O 	O 	0.40839	0.67919	0.20069	-0.227
Mof_C 	C 	0.33818	0.70646	0.1695	0.027
Mof_C 	C 	0.37116	0.6733	0.12887	0.026
Mof_H 	H 	0.3324	0.7115	0.1928	0.021
Mof_C 	C 	0.32168	0.72309	0.14327	-0.126
Mof_C 	C 	0.35412	0.68903	0.10194	-0.12
Mof_H 	H 	0.3882	0.6563	0.1242	0.027
Mof_H 	H 	0.3053	0.7406	0.1484	0.079
Mof_C 	C 	0.32859	0.71474	0.10923	0.121
Mof_H 	H 	0.3593	0.6829	0.0788	0.074
Mof_N 	N 	0.3113	0.7351	0.079	-0.228
Mof_O 	O 	0.3065	0.7329	0.076	0.024
Mof_H 	H 	0.3189	0.7558	0.0717	0.137
Mof_H 	H 	0.3452	0.6269	0.1983	-0.005
Mof_O 	O 	0.12378	0.96495	0.82577	-0.406
Mof_O 	O 	0.16548	0.96414	0.78584	-0.396
Mof_C 	C 	0.13826	0.95395	0.7995	0.353
Mof_C 	C 	0.11956	0.92488	0.78151	-0.025
Mof_C 	C 	0.13406	0.90863	0.75303	-0.111
Mof_H 	H 	0.1555	0.9165	0.7442	0.115
Mof_C 	C 	0.11828	0.8367	0.69235	0.206
Mof_C 	C 	0.13616	0.81827	0.66197	-0.062
Mof_O 	O 	0.09161	0.82081	0.70069	-0.228
Mof_C 	C 	0.16182	0.79354	0.6695	0.027
Mof_C 	C 	0.12884	0.8267	0.62887	0.026
Mof_H 	H 	0.1676	0.7885	0.6928	0.021
Mof_C 	C 	0.17832	0.77691	0.64327	-0.127
Mof_C 	C 	0.14588	0.81097	0.60194	-0.121
Mof_H 	H 	0.1118	0.8437	0.6242	0.028
Mof_H 	H 	0.1947	0.7594	0.6484	0.079
Mof_C 	C 	0.17141	0.78526	0.60923	0.121
Mof_H 	H 	0.1407	0.8171	0.5788	0.074
Mof_N 	N 	0.1887	0.7649	0.579	-0.228
Mof_O 	O 	0.1935	0.7671	0.576	0.024
Mof_H 	H 	0.1811	0.7442	0.5717	0.137
Mof_H 	H 	0.1548	0.8731	0.6983	-0.005
Mof_O 	O 	0.62378	0.46495	0.32577	-0.409
Mof_O 	O 	0.66548	0.46414	0.28584	-0.399
Mof_C 	C 	0.63826	0.45395	0.2995	0.353
Mof_C 	C 	0.61956	0.42488	0.28151	-0.026
Mof_C 	C 	0.63406	0.40863	0.25303	-0.111
Mof_H 	H 	0.6555	0.4165	0.2442	0.115
Mof_C 	C 	0.61828	0.3367	0.19235	0.206
Mof_C 	C 	0.63616	0.31827	0.16197	-0.062
Mof_O 	O 	0.59161	0.32081	0.20069	-0.227
Mof_C 	C 	0.66182	0.29354	0.1695	0.027
Mof_C 	C 	0.62884	0.3267	0.12887	0.026
Mof_H 	H 	0.6676	0.2885	0.1928	0.021
Mof_C 	C 	0.67832	0.27691	0.14327	-0.126
Mof_C 	C 	0.64588	0.31097	0.10194	-0.12
Mof_H 	H 	0.6118	0.3437	0.1242	0.027
Mof_H 	H 	0.6947	0.2594	0.1484	0.079
Mof_C 	C 	0.67141	0.28526	0.10923	0.12
Mof_H 	H 	0.6407	0.3171	0.0788	0.074
Mof_N 	N 	0.6887	0.2649	0.079	-0.228
Mof_O 	O 	0.6935	0.2671	0.076	0.024
Mof_H 	H 	0.6811	0.2442	0.0717	0.137
Mof_H 	H 	0.6548	0.3731	0.1983	-0.005
Mof_O 	O 	0.87622	0.96495	0.17423	-0.406
Mof_O 	O 	0.83452	0.96414	0.21416	-0.395
Mof_C 	C 	0.86174	0.95395	0.2005	0.353
Mof_C 	C 	0.88044	0.92488	0.21849	-0.024
Mof_C 	C 	0.86594	0.90863	0.24697	-0.111
Mof_H 	H 	0.8445	0.9165	0.2558	0.115
Mof_C 	C 	0.88172	0.8367	0.30765	0.206
Mof_C 	C 	0.86384	0.81827	0.33803	-0.061
Mof_O 	O 	0.90839	0.82081	0.29931	-0.226
Mof_C 	C 	0.83818	0.79354	0.3305	0.027
Mof_C 	C 	0.87116	0.8267	0.37113	0.026
Mof_H 	H 	0.8324	0.7885	0.3072	0.021
Mof_C 	C 	0.82168	0.77691	0.35673	-0.126
Mof_C 	C 	0.85412	0.81097	0.39806	-0.12
Mof_H 	H 	0.8882	0.8437	0.3758	0.029
Mof_H 	H 	0.8053	0.7594	0.3516	0.079
Mof_C 	C 	0.82859	0.78526	0.39077	0.121
Mof_H 	H 	0.8593	0.8171	0.4212	0.075
Mof_N 	N 	0.8113	0.7649	0.421	-0.228
Mof_O 	O 	0.8065	0.7671	0.424	0.024
Mof_H 	H 	0.8189	0.7442	0.4283	0.138
Mof_H 	H 	0.8452	0.8731	0.3017	-0.005
Mof_O 	O 	0.37622	0.46495	0.67423	-0.409
Mof_O 	O 	0.33452	0.46414	0.71416	-0.399
Mof_C 	C 	0.36174	0.45395	0.7005	0.353
Mof_C 	C 	0.38044	0.42488	0.71849	-0.026
Mof_C 	C 	0.36594	0.40863	0.74697	-0.111
Mof_H 	H 	0.3445	0.4165	0.7558	0.115
Mof_C 	C 	0.38172	0.3367	0.80765	0.206
Mof_C 	C 	0.36384	0.31827	0.83803	-0.062
Mof_O 	O 	0.40839	0.32081	0.79931	-0.227
Mof_C 	C 	0.33818	0.29354	0.8305	0.028
Mof_C 	C 	0.37116	0.3267	0.87113	0.027
Mof_H 	H 	0.3324	0.2885	0.8072	0.021
Mof_C 	C 	0.32168	0.27691	0.85673	-0.127
Mof_C 	C 	0.35412	0.31097	0.89806	-0.121
Mof_H 	H 	0.3882	0.3437	0.8758	0.028
Mof_H 	H 	0.3053	0.2594	0.8516	0.079
Mof_C 	C 	0.32859	0.28526	0.89077	0.121
Mof_H 	H 	0.3593	0.3171	0.9212	0.076
Mof_N 	N 	0.3113	0.2649	0.921	-0.228
Mof_O 	O 	0.3065	0.2671	0.924	0.024
Mof_H 	H 	0.3189	0.2442	0.9283	0.138
Mof_H 	H 	0.3452	0.3731	0.8017	-0.005
Mof_O 	O 	0.12378	0.17423	0.96495	-0.407
Mof_O 	O 	0.16548	0.21416	0.96414	-0.396
Mof_C 	C 	0.13826	0.2005	0.95395	0.353
Mof_C 	C 	0.11956	0.21849	0.92488	-0.026
Mof_C 	C 	0.13406	0.24697	0.90863	-0.111
Mof_H 	H 	0.1555	0.2558	0.9165	0.115
Mof_C 	C 	0.11828	0.30765	0.8367	0.206
Mof_C 	C 	0.13616	0.33803	0.81827	-0.062
Mof_O 	O 	0.09161	0.29931	0.82081	-0.228
Mof_C 	C 	0.16182	0.3305	0.79354	0.027
Mof_C 	C 	0.12884	0.37113	0.8267	0.026
Mof_H 	H 	0.1676	0.3072	0.7885	0.021
Mof_C 	C 	0.17832	0.35673	0.77691	-0.126
Mof_C 	C 	0.14588	0.39806	0.81097	-0.12
Mof_H 	H 	0.1118	0.3758	0.8437	0.028
Mof_H 	H 	0.1947	0.3516	0.7594	0.079
Mof_C 	C 	0.17141	0.39077	0.78526	0.121
Mof_H 	H 	0.1407	0.4212	0.8171	0.074
Mof_N 	N 	0.1887	0.421	0.7649	-0.228
Mof_O 	O 	0.1935	0.424	0.7671	0.024
Mof_H 	H 	0.1811	0.4283	0.7442	0.137
Mof_H 	H 	0.1548	0.3017	0.8731	-0.005
Mof_O 	O 	0.62378	0.67423	0.46495	-0.409
Mof_O 	O 	0.66548	0.71416	0.46414	-0.399
Mof_C 	C 	0.63826	0.7005	0.45395	0.353
Mof_C 	C 	0.61956	0.71849	0.42488	-0.026
Mof_C 	C 	0.63406	0.74697	0.40863	-0.111
Mof_H 	H 	0.6555	0.7558	0.4165	0.115
Mof_C 	C 	0.61828	0.80765	0.3367	0.206
Mof_C 	C 	0.63616	0.83803	0.31827	-0.062
Mof_O 	O 	0.59161	0.79931	0.32081	-0.227
Mof_C 	C 	0.66182	0.8305	0.29354	0.028
Mof_C 	C 	0.62884	0.87113	0.3267	0.026
Mof_H 	H 	0.6676	0.8072	0.2885	0.021
Mof_C 	C 	0.67832	0.85673	0.27691	-0.127
Mof_C 	C 	0.64588	0.89806	0.31097	-0.121
Mof_H 	H 	0.6118	0.8758	0.3437	0.028
Mof_H 	H 	0.6947	0.8516	0.2594	0.079
Mof_C 	C 	0.67141	0.89077	0.28526	0.121
Mof_H 	H 	0.6407	0.9212	0.3171	0.076
Mof_N 	N 	0.6887	0.921	0.2649	-0.228
Mof_O 	O 	0.6935	0.924	0.2671	0.024
Mof_H 	H 	0.6811	0.9283	0.2442	0.138
Mof_H 	H 	0.6548	0.8017	0.3731	-0.005
Mof_O 	O 	0.87622	0.82577	0.96495	-0.405
Mof_O 	O 	0.83452	0.78584	0.96414	-0.395
Mof_C 	C 	0.86174	0.7995	0.95395	0.352
Mof_C 	C 	0.88044	0.78151	0.92488	-0.024
Mof_C 	C 	0.86594	0.75303	0.90863	-0.112
Mof_H 	H 	0.8445	0.7442	0.9165	0.115
Mof_C 	C 	0.88172	0.69235	0.8367	0.206
Mof_C 	C 	0.86384	0.66197	0.81827	-0.061
Mof_O 	O 	0.90839	0.70069	0.82081	-0.226
Mof_C 	C 	0.83818	0.6695	0.79354	0.027
Mof_C 	C 	0.87116	0.62887	0.8267	0.026
Mof_H 	H 	0.8324	0.6928	0.7885	0.021
Mof_C 	C 	0.82168	0.64327	0.77691	-0.126
Mof_C 	C 	0.85412	0.60194	0.81097	-0.12
Mof_H 	H 	0.8882	0.6242	0.8437	0.029
Mof_H 	H 	0.8053	0.6484	0.7594	0.079
Mof_C 	C 	0.82859	0.60923	0.78526	0.121
Mof_H 	H 	0.8593	0.5788	0.8171	0.075
Mof_N 	N 	0.8113	0.579	0.7649	-0.228
Mof_O 	O 	0.8065	0.576	0.7671	0.024
Mof_H 	H 	0.8189	0.5717	0.7442	0.138
Mof_H 	H 	0.8452	0.6983	0.8731	-0.005
Mof_O 	O 	0.37622	0.32577	0.46495	-0.409
Mof_O 	O 	0.33452	0.28584	0.46414	-0.399
Mof_C 	C 	0.36174	0.2995	0.45395	0.353
Mof_C 	C 	0.38044	0.28151	0.42488	-0.026
Mof_C 	C 	0.36594	0.25303	0.40863	-0.111
Mof_H 	H 	0.3445	0.2442	0.4165	0.115
Mof_C 	C 	0.38172	0.19235	0.3367	0.206
Mof_C 	C 	0.36384	0.16197	0.31827	-0.062
Mof_O 	O 	0.40839	0.20069	0.32081	-0.227
Mof_C 	C 	0.33818	0.1695	0.29354	0.027
Mof_C 	C 	0.37116	0.12887	0.3267	0.026
Mof_H 	H 	0.3324	0.1928	0.2885	0.021
Mof_C 	C 	0.32168	0.14327	0.27691	-0.126
Mof_C 	C 	0.35412	0.10194	0.31097	-0.12
Mof_H 	H 	0.3882	0.1242	0.3437	0.027
Mof_H 	H 	0.3053	0.1484	0.2594	0.079
Mof_C 	C 	0.32859	0.10923	0.28526	0.121
Mof_H 	H 	0.3593	0.0788	0.3171	0.074
Mof_N 	N 	0.3113	0.079	0.2649	-0.228
Mof_O 	O 	0.3065	0.076	0.2671	0.024
Mof_H 	H 	0.3189	0.0717	0.2442	0.137
Mof_H 	H 	0.3452	0.1983	0.3731	-0.005
Mof_O 	O 	0.12378	0.82577	0.03505	-0.411
Mof_O 	O 	0.16548	0.78584	0.03586	-0.4
Mof_C 	C 	0.13826	0.7995	0.04605	0.354
Mof_C 	C 	0.11956	0.78151	0.07512	-0.028
Mof_C 	C 	0.13406	0.75303	0.09137	-0.11
Mof_H 	H 	0.1555	0.7442	0.0835	0.114
Mof_C 	C 	0.11828	0.69235	0.1633	0.206
Mof_C 	C 	0.13616	0.66197	0.18173	-0.062
Mof_O 	O 	0.09161	0.70069	0.17919	-0.228
Mof_C 	C 	0.16182	0.6695	0.20646	0.028
Mof_C 	C 	0.12884	0.62887	0.1733	0.026
Mof_H 	H 	0.1676	0.6928	0.2115	0.021
Mof_C 	C 	0.17832	0.64327	0.22309	-0.127
Mof_C 	C 	0.14588	0.60194	0.18903	-0.121
Mof_H 	H 	0.1118	0.6242	0.1563	0.027
Mof_H 	H 	0.1947	0.6484	0.2406	0.079
Mof_C 	C 	0.17141	0.60923	0.21474	0.121
Mof_H 	H 	0.1407	0.5788	0.1829	0.074
Mof_N 	N 	0.1887	0.579	0.2351	-0.228
Mof_O 	O 	0.1935	0.576	0.2329	0.024
Mof_H 	H 	0.1811	0.5717	0.2558	0.137
Mof_H 	H 	0.1548	0.6983	0.1269	-0.005
Mof_O 	O 	0.62378	0.32577	0.53505	-0.41
Mof_O 	O 	0.66548	0.28584	0.53586	-0.399
Mof_C 	C 	0.63826	0.2995	0.54605	0.353
Mof_C 	C 	0.61956	0.28151	0.57512	-0.026
Mof_C 	C 	0.63406	0.25303	0.59137	-0.111
Mof_H 	H 	0.6555	0.2442	0.5835	0.115
Mof_C 	C 	0.61828	0.19235	0.6633	0.206
Mof_C 	C 	0.63616	0.16197	0.68173	-0.062
Mof_O 	O 	0.59161	0.20069	0.67919	-0.228
Mof_C 	C 	0.66182	0.1695	0.70646	0.027
Mof_C 	C 	0.62884	0.12887	0.6733	0.026
Mof_H 	H 	0.6676	0.1928	0.7115	0.021
Mof_C 	C 	0.67832	0.14327	0.72309	-0.126
Mof_C 	C 	0.64588	0.10194	0.68903	-0.12
Mof_H 	H 	0.6118	0.1242	0.6563	0.027
Mof_H 	H 	0.6947	0.1484	0.7406	0.079
Mof_C 	C 	0.67141	0.10923	0.71474	0.121
Mof_H 	H 	0.6407	0.0788	0.6829	0.074
Mof_N 	N 	0.6887	0.079	0.7351	-0.228
Mof_O 	O 	0.6935	0.076	0.7329	0.024
Mof_H 	H 	0.6811	0.0717	0.7558	0.137
Mof_H 	H 	0.6548	0.1983	0.6269	-0.005
Mof_O 	O 	0.87622	0.17423	0.03505	-0.411
Mof_O 	O 	0.83452	0.21416	0.03586	-0.4
Mof_C 	C 	0.86174	0.2005	0.04605	0.353
Mof_C 	C 	0.88044	0.21849	0.07512	-0.026
Mof_C 	C 	0.86594	0.24697	0.09137	-0.111
Mof_H 	H 	0.8445	0.2558	0.0835	0.115
Mof_C 	C 	0.88172	0.30765	0.1633	0.206
Mof_C 	C 	0.86384	0.33803	0.18173	-0.062
Mof_O 	O 	0.90839	0.29931	0.17919	-0.227
Mof_C 	C 	0.83818	0.3305	0.20646	0.028
Mof_C 	C 	0.87116	0.37113	0.1733	0.026
Mof_H 	H 	0.8324	0.3072	0.2115	0.021
Mof_C 	C 	0.82168	0.35673	0.22309	-0.126
Mof_C 	C 	0.85412	0.39806	0.18903	-0.12
Mof_H 	H 	0.8882	0.3758	0.1563	0.028
Mof_H 	H 	0.8053	0.3516	0.2406	0.079
Mof_C 	C 	0.82859	0.39077	0.21474	0.121
Mof_H 	H 	0.8593	0.4212	0.1829	0.075
Mof_N 	N 	0.8113	0.421	0.2351	-0.228
Mof_O 	O 	0.8065	0.424	0.2329	0.024
Mof_H 	H 	0.8189	0.4283	0.2558	0.138
Mof_H 	H 	0.8452	0.3017	0.1269	-0.005
Mof_O 	O 	0.37622	0.67423	0.53505	-0.409
Mof_O 	O 	0.33452	0.71416	0.53586	-0.399
Mof_C 	C 	0.36174	0.7005	0.54605	0.353
Mof_C 	C 	0.38044	0.71849	0.57512	-0.026
Mof_C 	C 	0.36594	0.74697	0.59137	-0.111
Mof_H 	H 	0.3445	0.7558	0.5835	0.115
Mof_C 	C 	0.38172	0.80765	0.6633	0.206
Mof_C 	C 	0.36384	0.83803	0.68173	-0.062
Mof_O 	O 	0.40839	0.79931	0.67919	-0.227
Mof_C 	C 	0.33818	0.8305	0.70646	0.028
Mof_C 	C 	0.37116	0.87113	0.6733	0.027
Mof_H 	H 	0.3324	0.8072	0.7115	0.021
Mof_C 	C 	0.32168	0.85673	0.72309	-0.127
Mof_C 	C 	0.35412	0.89806	0.68903	-0.121
Mof_H 	H 	0.3882	0.8758	0.6563	0.028
Mof_H 	H 	0.3053	0.8516	0.7406	0.079
Mof_C 	C 	0.32859	0.89077	0.71474	0.121
Mof_H 	H 	0.3593	0.9212	0.6829	0.076
Mof_N 	N 	0.3113	0.921	0.7351	-0.228
Mof_O 	O 	0.3065	0.924	0.7329	0.024
Mof_H 	H 	0.3189	0.9283	0.7558	0.138
Mof_H 	H 	0.3452	0.8017	0.6269	-0.005
Mof_O 	O 	0.17423	0.03505	0.87622	-0.411
Mof_O 	O 	0.21416	0.03586	0.83452	-0.4
Mof_C 	C 	0.2005	0.04605	0.86174	0.353
Mof_C 	C 	0.21849	0.07512	0.88044	-0.026
Mof_C 	C 	0.24697	0.09137	0.86594	-0.111
Mof_H 	H 	0.2558	0.0835	0.8445	0.115
Mof_C 	C 	0.30765	0.1633	0.88172	0.206
Mof_C 	C 	0.33803	0.18173	0.86384	-0.062
Mof_O 	O 	0.29931	0.17919	0.90839	-0.227
Mof_C 	C 	0.3305	0.20646	0.83818	0.028
Mof_C 	C 	0.37113	0.1733	0.87116	0.026
Mof_H 	H 	0.3072	0.2115	0.8324	0.021
Mof_C 	C 	0.35673	0.22309	0.82168	-0.126
Mof_C 	C 	0.39806	0.18903	0.85412	-0.12
Mof_H 	H 	0.3758	0.1563	0.8882	0.028
Mof_H 	H 	0.3516	0.2406	0.8053	0.079
Mof_C 	C 	0.39077	0.21474	0.82859	0.121
Mof_H 	H 	0.4212	0.1829	0.8593	0.075
Mof_N 	N 	0.421	0.2351	0.8113	-0.228
Mof_O 	O 	0.424	0.2329	0.8065	0.024
Mof_H 	H 	0.4283	0.2558	0.8189	0.138
Mof_H 	H 	0.3017	0.1269	0.8452	-0.005
Mof_O 	O 	0.67423	0.53505	0.37622	-0.409
Mof_O 	O 	0.71416	0.53586	0.33452	-0.399
Mof_C 	C 	0.7005	0.54605	0.36174	0.353
Mof_C 	C 	0.71849	0.57512	0.38044	-0.026
Mof_C 	C 	0.74697	0.59137	0.36594	-0.111
Mof_H 	H 	0.7558	0.5835	0.3445	0.115
Mof_C 	C 	0.80765	0.6633	0.38172	0.206
Mof_C 	C 	0.83803	0.68173	0.36384	-0.062
Mof_O 	O 	0.79931	0.67919	0.40839	-0.227
Mof_C 	C 	0.8305	0.70646	0.33818	0.028
Mof_C 	C 	0.87113	0.6733	0.37116	0.027
Mof_H 	H 	0.8072	0.7115	0.3324	0.021
Mof_C 	C 	0.85673	0.72309	0.32168	-0.127
Mof_C 	C 	0.89806	0.68903	0.35412	-0.121
Mof_H 	H 	0.8758	0.6563	0.3882	0.028
Mof_H 	H 	0.8516	0.7406	0.3053	0.079
Mof_C 	C 	0.89077	0.71474	0.32859	0.121
Mof_H 	H 	0.9212	0.6829	0.3593	0.076
Mof_N 	N 	0.921	0.7351	0.3113	-0.228
Mof_O 	O 	0.924	0.7329	0.3065	0.024
Mof_H 	H 	0.9283	0.7558	0.3189	0.138
Mof_H 	H 	0.8017	0.6269	0.3452	-0.005
Mof_O 	O 	0.82577	0.03505	0.12378	-0.411
Mof_O 	O 	0.78584	0.03586	0.16548	-0.4
Mof_C 	C 	0.7995	0.04605	0.13826	0.354
Mof_C 	C 	0.78151	0.07512	0.11956	-0.028
Mof_C 	C 	0.75303	0.09137	0.13406	-0.11
Mof_H 	H 	0.7442	0.0835	0.1555	0.114
Mof_C 	C 	0.69235	0.1633	0.11828	0.206
Mof_C 	C 	0.66197	0.18173	0.13616	-0.062
Mof_O 	O 	0.70069	0.17919	0.09161	-0.228
Mof_C 	C 	0.6695	0.20646	0.16182	0.028
Mof_C 	C 	0.62887	0.1733	0.12884	0.026
Mof_H 	H 	0.6928	0.2115	0.1676	0.021
Mof_C 	C 	0.64327	0.22309	0.17832	-0.127
Mof_C 	C 	0.60194	0.18903	0.14588	-0.121
Mof_H 	H 	0.6242	0.1563	0.1118	0.027
Mof_H 	H 	0.6484	0.2406	0.1947	0.079
Mof_C 	C 	0.60923	0.21474	0.17141	0.121
Mof_H 	H 	0.5788	0.1829	0.1407	0.074
Mof_N 	N 	0.579	0.2351	0.1887	-0.228
Mof_O 	O 	0.576	0.2329	0.1935	0.024
Mof_H 	H 	0.5717	0.2558	0.1811	0.137
Mof_H 	H 	0.6983	0.1269	0.1548	-0.005
Mof_O 	O 	0.32577	0.53505	0.62378	-0.41
Mof_O 	O 	0.28584	0.53586	0.66548	-0.399
Mof_C 	C 	0.2995	0.54605	0.63826	0.353
Mof_C 	C 	0.28151	0.57512	0.61956	-0.026
Mof_C 	C 	0.25303	0.59137	0.63406	-0.111
Mof_H 	H 	0.2442	0.5835	0.6555	0.115
Mof_C 	C 	0.19235	0.6633	0.61828	0.206
Mof_C 	C 	0.16197	0.68173	0.63616	-0.062
Mof_O 	O 	0.20069	0.67919	0.59161	-0.228
Mof_C 	C 	0.1695	0.70646	0.66182	0.027
Mof_C 	C 	0.12887	0.6733	0.62884	0.026
Mof_H 	H 	0.1928	0.7115	0.6676	0.021
Mof_C 	C 	0.14327	0.72309	0.67832	-0.126
Mof_C 	C 	0.10194	0.68903	0.64588	-0.12
Mof_H 	H 	0.1242	0.6563	0.6118	0.027
Mof_H 	H 	0.1484	0.7406	0.6947	0.079
Mof_C 	C 	0.10923	0.71474	0.67141	0.121
Mof_H 	H 	0.0788	0.6829	0.6407	0.074
Mof_N 	N 	0.079	0.7351	0.6887	-0.228
Mof_O 	O 	0.076	0.7329	0.6935	0.024
Mof_H 	H 	0.0717	0.7558	0.6811	0.137
Mof_H 	H 	0.1983	0.6269	0.6548	-0.005
Mof_O 	O 	0.82577	0.96495	0.87622	-0.405
Mof_O 	O 	0.78584	0.96414	0.83452	-0.395
Mof_C 	C 	0.7995	0.95395	0.86174	0.352
Mof_C 	C 	0.78151	0.92488	0.88044	-0.024
Mof_C 	C 	0.75303	0.90863	0.86594	-0.112
Mof_H 	H 	0.7442	0.9165	0.8445	0.115
Mof_C 	C 	0.69235	0.8367	0.88172	0.206
Mof_C 	C 	0.66197	0.81827	0.86384	-0.061
Mof_O 	O 	0.70069	0.82081	0.90839	-0.226
Mof_C 	C 	0.6695	0.79354	0.83818	0.027
Mof_C 	C 	0.62887	0.8267	0.87116	0.026
Mof_H 	H 	0.6928	0.7885	0.8324	0.021
Mof_C 	C 	0.64327	0.77691	0.82168	-0.126
Mof_C 	C 	0.60194	0.81097	0.85412	-0.12
Mof_H 	H 	0.6242	0.8437	0.8882	0.029
Mof_H 	H 	0.6484	0.7594	0.8053	0.079
Mof_C 	C 	0.60923	0.78526	0.82859	0.121
Mof_H 	H 	0.5788	0.8171	0.8593	0.075
Mof_N 	N 	0.579	0.7649	0.8113	-0.228
Mof_O 	O 	0.576	0.7671	0.8065	0.024
Mof_H 	H 	0.5717	0.7442	0.8189	0.138
Mof_H 	H 	0.6983	0.8731	0.8452	-0.005
Mof_O 	O 	0.32577	0.46495	0.37622	-0.409
Mof_O 	O 	0.28584	0.46414	0.33452	-0.399
Mof_C 	C 	0.2995	0.45395	0.36174	0.353
Mof_C 	C 	0.28151	0.42488	0.38044	-0.026
Mof_C 	C 	0.25303	0.40863	0.36594	-0.111
Mof_H 	H 	0.2442	0.4165	0.3445	0.115
Mof_C 	C 	0.19235	0.3367	0.38172	0.206
Mof_C 	C 	0.16197	0.31827	0.36384	-0.062
Mof_O 	O 	0.20069	0.32081	0.40839	-0.227
Mof_C 	C 	0.1695	0.29354	0.33818	0.027
Mof_C 	C 	0.12887	0.3267	0.37116	0.026
Mof_H 	H 	0.1928	0.2885	0.3324	0.021
Mof_C 	C 	0.14327	0.27691	0.32168	-0.126
Mof_C 	C 	0.10194	0.31097	0.35412	-0.12
Mof_H 	H 	0.1242	0.3437	0.3882	0.027
Mof_H 	H 	0.1484	0.2594	0.3053	0.079
Mof_C 	C 	0.10923	0.28526	0.32859	0.121
Mof_H 	H 	0.0788	0.3171	0.3593	0.074
Mof_N 	N 	0.079	0.2649	0.3113	-0.228
Mof_O 	O 	0.076	0.2671	0.3065	0.024
Mof_H 	H 	0.0717	0.2442	0.3189	0.137
Mof_H 	H 	0.1983	0.3731	0.3452	-0.005
Mof_O 	O 	0.17423	0.96495	0.12378	-0.407
Mof_O 	O 	0.21416	0.96414	0.16548	-0.396
Mof_C 	C 	0.2005	0.95395	0.13826	0.353
Mof_C 	C 	0.21849	0.92488	0.11956	-0.026
Mof_C 	C 	0.24697	0.90863	0.13406	-0.111
Mof_H 	H 	0.2558	0.9165	0.1555	0.115
Mof_C 	C 	0.30765	0.8367	0.11828	0.206
Mof_C 	C 	0.33803	0.81827	0.13616	-0.062
Mof_O 	O 	0.29931	0.82081	0.09161	-0.228
Mof_C 	C 	0.3305	0.79354	0.16182	0.027
Mof_C 	C 	0.37113	0.8267	0.12884	0.026
Mof_H 	H 	0.3072	0.7885	0.1676	0.021
Mof_C 	C 	0.35673	0.77691	0.17832	-0.126
Mof_C 	C 	0.39806	0.81097	0.14588	-0.12
Mof_H 	H 	0.3758	0.8437	0.1118	0.028
Mof_H 	H 	0.3516	0.7594	0.1947	0.079
Mof_C 	C 	0.39077	0.78526	0.17141	0.121
Mof_H 	H 	0.4212	0.8171	0.1407	0.074
Mof_N 	N 	0.421	0.7649	0.1887	-0.228
Mof_O 	O 	0.424	0.7671	0.1935	0.024
Mof_H 	H 	0.4283	0.7442	0.1811	0.137
Mof_H 	H 	0.3017	0.8731	0.1548	-0.005
Mof_O 	O 	0.67423	0.46495	0.62378	-0.409
Mof_O 	O 	0.71416	0.46414	0.66548	-0.399
Mof_C 	C 	0.7005	0.45395	0.63826	0.353
Mof_C 	C 	0.71849	0.42488	0.61956	-0.026
Mof_C 	C 	0.74697	0.40863	0.63406	-0.111
Mof_H 	H 	0.7558	0.4165	0.6555	0.115
Mof_C 	C 	0.80765	0.3367	0.61828	0.206
Mof_C 	C 	0.83803	0.31827	0.63616	-0.062
Mof_O 	O 	0.79931	0.32081	0.59161	-0.227
Mof_C 	C 	0.8305	0.29354	0.66182	0.028
Mof_C 	C 	0.87113	0.3267	0.62884	0.026
Mof_H 	H 	0.8072	0.2885	0.6676	0.021
Mof_C 	C 	0.85673	0.27691	0.67832	-0.127
Mof_C 	C 	0.89806	0.31097	0.64588	-0.121
Mof_H 	H 	0.8758	0.3437	0.6118	0.028
Mof_H 	H 	0.8516	0.2594	0.6947	0.079
Mof_C 	C 	0.89077	0.28526	0.67141	0.121
Mof_H 	H 	0.9212	0.3171	0.6407	0.076
Mof_N 	N 	0.921	0.2649	0.6887	-0.228
Mof_O 	O 	0.924	0.2671	0.6935	0.024
Mof_H 	H 	0.9283	0.2442	0.6811	0.138
Mof_H 	H 	0.8017	0.3731	0.6548	-0.005
Mof_O 	O 	0.03505	0.12378	0.82577	-0.411
Mof_O 	O 	0.03586	0.16548	0.78584	-0.4
Mof_C 	C 	0.04605	0.13826	0.7995	0.354
Mof_C 	C 	0.07512	0.11956	0.78151	-0.028
Mof_C 	C 	0.09137	0.13406	0.75303	-0.11
Mof_H 	H 	0.0835	0.1555	0.7442	0.114
Mof_C 	C 	0.1633	0.11828	0.69235	0.206
Mof_C 	C 	0.18173	0.13616	0.66197	-0.062
Mof_O 	O 	0.17919	0.09161	0.70069	-0.228
Mof_C 	C 	0.20646	0.16182	0.6695	0.028
Mof_C 	C 	0.1733	0.12884	0.62887	0.026
Mof_H 	H 	0.2115	0.1676	0.6928	0.021
Mof_C 	C 	0.22309	0.17832	0.64327	-0.127
Mof_C 	C 	0.18903	0.14588	0.60194	-0.121
Mof_H 	H 	0.1563	0.1118	0.6242	0.027
Mof_H 	H 	0.2406	0.1947	0.6484	0.079
Mof_C 	C 	0.21474	0.17141	0.60923	0.121
Mof_H 	H 	0.1829	0.1407	0.5788	0.074
Mof_N 	N 	0.2351	0.1887	0.579	-0.228
Mof_O 	O 	0.2329	0.1935	0.576	0.024
Mof_H 	H 	0.2558	0.1811	0.5717	0.137
Mof_H 	H 	0.1269	0.1548	0.6983	-0.005
Mof_O 	O 	0.53505	0.62378	0.32577	-0.41
Mof_O 	O 	0.53586	0.66548	0.28584	-0.399
Mof_C 	C 	0.54605	0.63826	0.2995	0.353
Mof_C 	C 	0.57512	0.61956	0.28151	-0.026
Mof_C 	C 	0.59137	0.63406	0.25303	-0.111
Mof_H 	H 	0.5835	0.6555	0.2442	0.115
Mof_C 	C 	0.6633	0.61828	0.19235	0.206
Mof_C 	C 	0.68173	0.63616	0.16197	-0.062
Mof_O 	O 	0.67919	0.59161	0.20069	-0.228
Mof_C 	C 	0.70646	0.66182	0.1695	0.027
Mof_C 	C 	0.6733	0.62884	0.12887	0.026
Mof_H 	H 	0.7115	0.6676	0.1928	0.021
Mof_C 	C 	0.72309	0.67832	0.14327	-0.126
Mof_C 	C 	0.68903	0.64588	0.10194	-0.12
Mof_H 	H 	0.6563	0.6118	0.1242	0.027
Mof_H 	H 	0.7406	0.6947	0.1484	0.079
Mof_C 	C 	0.71474	0.67141	0.10923	0.121
Mof_H 	H 	0.6829	0.6407	0.0788	0.074
Mof_N 	N 	0.7351	0.6887	0.079	-0.228
Mof_O 	O 	0.7329	0.6935	0.076	0.024
Mof_H 	H 	0.7558	0.6811	0.0717	0.137
Mof_H 	H 	0.6269	0.6548	0.1983	-0.005
Mof_O 	O 	0.03505	0.87622	0.17423	-0.411
Mof_O 	O 	0.03586	0.83452	0.21416	-0.4
Mof_C 	C 	0.04605	0.86174	0.2005	0.353
Mof_C 	C 	0.07512	0.88044	0.21849	-0.026
Mof_C 	C 	0.09137	0.86594	0.24697	-0.111
Mof_H 	H 	0.0835	0.8445	0.2558	0.115
Mof_C 	C 	0.1633	0.88172	0.30765	0.206
Mof_C 	C 	0.18173	0.86384	0.33803	-0.062
Mof_O 	O 	0.17919	0.90839	0.29931	-0.227
Mof_C 	C 	0.20646	0.83818	0.3305	0.028
Mof_C 	C 	0.1733	0.87116	0.37113	0.026
Mof_H 	H 	0.2115	0.8324	0.3072	0.021
Mof_C 	C 	0.22309	0.82168	0.35673	-0.126
Mof_C 	C 	0.18903	0.85412	0.39806	-0.12
Mof_H 	H 	0.1563	0.8882	0.3758	0.028
Mof_H 	H 	0.2406	0.8053	0.3516	0.079
Mof_C 	C 	0.21474	0.82859	0.39077	0.121
Mof_H 	H 	0.1829	0.8593	0.4212	0.075
Mof_N 	N 	0.2351	0.8113	0.421	-0.228
Mof_O 	O 	0.2329	0.8065	0.424	0.024
Mof_H 	H 	0.2558	0.8189	0.4283	0.138
Mof_H 	H 	0.1269	0.8452	0.3017	-0.005
Mof_O 	O 	0.53505	0.37622	0.67423	-0.409
Mof_O 	O 	0.53586	0.33452	0.71416	-0.399
Mof_C 	C 	0.54605	0.36174	0.7005	0.353
Mof_C 	C 	0.57512	0.38044	0.71849	-0.026
Mof_C 	C 	0.59137	0.36594	0.74697	-0.111
Mof_H 	H 	0.5835	0.3445	0.7558	0.115
Mof_C 	C 	0.6633	0.38172	0.80765	0.206
Mof_C 	C 	0.68173	0.36384	0.83803	-0.062
Mof_O 	O 	0.67919	0.40839	0.79931	-0.227
Mof_C 	C 	0.70646	0.33818	0.8305	0.028
Mof_C 	C 	0.6733	0.37116	0.87113	0.027
Mof_H 	H 	0.7115	0.3324	0.8072	0.021
Mof_C 	C 	0.72309	0.32168	0.85673	-0.127
Mof_C 	C 	0.68903	0.35412	0.89806	-0.121
Mof_H 	H 	0.6563	0.3882	0.8758	0.028
Mof_H 	H 	0.7406	0.3053	0.8516	0.079
Mof_C 	C 	0.71474	0.32859	0.89077	0.121
Mof_H 	H 	0.6829	0.3593	0.9212	0.076
Mof_N 	N 	0.7351	0.3113	0.921	-0.228
Mof_O 	O 	0.7329	0.3065	0.924	0.024
Mof_H 	H 	0.7558	0.3189	0.9283	0.138
Mof_H 	H 	0.6269	0.3452	0.8017	-0.005
Mof_O 	O 	0.96495	0.12378	0.17423	-0.407
Mof_O 	O 	0.96414	0.16548	0.21416	-0.396
Mof_C 	C 	0.95395	0.13826	0.2005	0.353
Mof_C 	C 	0.92488	0.11956	0.21849	-0.026
Mof_C 	C 	0.90863	0.13406	0.24697	-0.111
Mof_H 	H 	0.9165	0.1555	0.2558	0.115
Mof_C 	C 	0.8367	0.11828	0.30765	0.206
Mof_C 	C 	0.81827	0.13616	0.33803	-0.062
Mof_O 	O 	0.82081	0.09161	0.29931	-0.228
Mof_C 	C 	0.79354	0.16182	0.3305	0.027
Mof_C 	C 	0.8267	0.12884	0.37113	0.026
Mof_H 	H 	0.7885	0.1676	0.3072	0.021
Mof_C 	C 	0.77691	0.17832	0.35673	-0.126
Mof_C 	C 	0.81097	0.14588	0.39806	-0.12
Mof_H 	H 	0.8437	0.1118	0.3758	0.028
Mof_H 	H 	0.7594	0.1947	0.3516	0.079
Mof_C 	C 	0.78526	0.17141	0.39077	0.121
Mof_H 	H 	0.8171	0.1407	0.4212	0.074
Mof_N 	N 	0.7649	0.1887	0.421	-0.228
Mof_O 	O 	0.7671	0.1935	0.424	0.024
Mof_H 	H 	0.7442	0.1811	0.4283	0.137
Mof_H 	H 	0.8731	0.1548	0.3017	-0.005
Mof_O 	O 	0.46495	0.62378	0.67423	-0.409
Mof_O 	O 	0.46414	0.66548	0.71416	-0.399
Mof_C 	C 	0.45395	0.63826	0.7005	0.353
Mof_C 	C 	0.42488	0.61956	0.71849	-0.026
Mof_C 	C 	0.40863	0.63406	0.74697	-0.111
Mof_H 	H 	0.4165	0.6555	0.7558	0.115
Mof_C 	C 	0.3367	0.61828	0.80765	0.206
Mof_C 	C 	0.31827	0.63616	0.83803	-0.062
Mof_O 	O 	0.32081	0.59161	0.79931	-0.227
Mof_C 	C 	0.29354	0.66182	0.8305	0.028
Mof_C 	C 	0.3267	0.62884	0.87113	0.026
Mof_H 	H 	0.2885	0.6676	0.8072	0.021
Mof_C 	C 	0.27691	0.67832	0.85673	-0.127
Mof_C 	C 	0.31097	0.64588	0.89806	-0.121
Mof_H 	H 	0.3437	0.6118	0.8758	0.028
Mof_H 	H 	0.2594	0.6947	0.8516	0.079
Mof_C 	C 	0.28526	0.67141	0.89077	0.121
Mof_H 	H 	0.3171	0.6407	0.9212	0.076
Mof_N 	N 	0.2649	0.6887	0.921	-0.228
Mof_O 	O 	0.2671	0.6935	0.924	0.024
Mof_H 	H 	0.2442	0.6811	0.9283	0.138
Mof_H 	H 	0.3731	0.6548	0.8017	-0.005
Mof_O 	O 	0.96495	0.87622	0.82577	-0.405
Mof_O 	O 	0.96414	0.83452	0.78584	-0.395
Mof_C 	C 	0.95395	0.86174	0.7995	0.352
Mof_C 	C 	0.92488	0.88044	0.78151	-0.024
Mof_C 	C 	0.90863	0.86594	0.75303	-0.112
Mof_H 	H 	0.9165	0.8445	0.7442	0.115
Mof_C 	C 	0.8367	0.88172	0.69235	0.206
Mof_C 	C 	0.81827	0.86384	0.66197	-0.061
Mof_O 	O 	0.82081	0.90839	0.70069	-0.226
Mof_C 	C 	0.79354	0.83818	0.6695	0.027
Mof_C 	C 	0.8267	0.87116	0.62887	0.026
Mof_H 	H 	0.7885	0.8324	0.6928	0.021
Mof_C 	C 	0.77691	0.82168	0.64327	-0.126
Mof_C 	C 	0.81097	0.85412	0.60194	-0.12
Mof_H 	H 	0.8437	0.8882	0.6242	0.029
Mof_H 	H 	0.7594	0.8053	0.6484	0.079
Mof_C 	C 	0.78526	0.82859	0.60923	0.121
Mof_H 	H 	0.8171	0.8593	0.5788	0.075
Mof_N 	N 	0.7649	0.8113	0.579	-0.228
Mof_O 	O 	0.7671	0.8065	0.576	0.024
Mof_H 	H 	0.7442	0.8189	0.5717	0.138
Mof_H 	H 	0.8731	0.8452	0.6983	-0.005
Mof_O 	O 	0.46495	0.37622	0.32577	-0.409
Mof_O 	O 	0.46414	0.33452	0.28584	-0.399
Mof_C 	C 	0.45395	0.36174	0.2995	0.353
Mof_C 	C 	0.42488	0.38044	0.28151	-0.026
Mof_C 	C 	0.40863	0.36594	0.25303	-0.111
Mof_H 	H 	0.4165	0.3445	0.2442	0.115
Mof_C 	C 	0.3367	0.38172	0.19235	0.206
Mof_C 	C 	0.31827	0.36384	0.16197	-0.062
Mof_O 	O 	0.32081	0.40839	0.20069	-0.227
Mof_C 	C 	0.29354	0.33818	0.1695	0.027
Mof_C 	C 	0.3267	0.37116	0.12887	0.026
Mof_H 	H 	0.2885	0.3324	0.1928	0.021
Mof_C 	C 	0.27691	0.32168	0.14327	-0.126
Mof_C 	C 	0.31097	0.35412	0.10194	-0.12
Mof_H 	H 	0.3437	0.3882	0.1242	0.027
Mof_H 	H 	0.2594	0.3053	0.1484	0.079
Mof_C 	C 	0.28526	0.32859	0.10923	0.121
Mof_H 	H 	0.3171	0.3593	0.0788	0.074
Mof_N 	N 	0.2649	0.3113	0.079	-0.228
Mof_O 	O 	0.2671	0.3065	0.076	0.024
Mof_H 	H 	0.2442	0.3189	0.0717	0.137
Mof_H 	H 	0.3731	0.3452	0.1983	-0.005
Mof_Cu	Cu	0.85478	0.85478	-0	0.905
Mof_Cu	Cu	0.8066	0.8066	-0	0.924
Mof_Cu	Cu	0.35478	0.35478	0.5	0.908
Mof_Cu	Cu	0.3066	0.3066	0.5	0.926
Mof_Cu	Cu	0.14522	0.14522	-0	0.904
Mof_Cu	Cu	0.1934	0.1934	-0	0.924
Mof_Cu	Cu	0.64522	0.64522	0.5	0.908
Mof_Cu	Cu	0.6934	0.6934	0.5	0.926
Mof_Cu	Cu	0.14522	0.85478	-0	0.905
Mof_Cu	Cu	0.1934	0.8066	-0	0.924
Mof_Cu	Cu	0.64522	0.35478	0.5	0.908
Mof_Cu	Cu	0.6934	0.3066	0.5	0.926
Mof_Cu	Cu	0.85478	0.14522	-0	0.905
Mof_Cu	Cu	0.8066	0.1934	-0	0.924
Mof_Cu	Cu	0.35478	0.64522	0.5	0.908
Mof_Cu	Cu	0.3066	0.6934	0.5	0.926
Mof_Cu	Cu	3.20491e-33	0.85478	0.85478	0.905
Mof_Cu	Cu	-3.9332e-33	0.8066	0.8066	0.924
Mof_Cu	Cu	0.5	0.35478	0.35478	0.908
Mof_Cu	Cu	0.5	0.3066	0.3066	0.926
Mof_Cu	Cu	5.44488e-34	0.14522	0.14522	0.904
Mof_Cu	Cu	2.4645e-33	0.1934	0.1934	0.924
Mof_Cu	Cu	0.5	0.64522	0.64522	0.908
Mof_Cu	Cu	0.5	0.6934	0.6934	0.926
Mof_Cu	Cu	-3.75255e-33	0.14522	0.85478	0.905
Mof_Cu	Cu	3.02427e-33	0.1934	0.8066	0.924
Mof_Cu	Cu	0.5	0.64522	0.35478	0.908
Mof_Cu	Cu	0.5	0.6934	0.3066	0.926
Mof_Cu	Cu	5.44488e-34	0.85478	0.14522	0.905
Mof_Cu	Cu	2.4645e-33	0.8066	0.1934	0.924
Mof_Cu	Cu	0.5	0.35478	0.64522	0.908
Mof_Cu	Cu	0.5	0.3066	0.6934	0.926
Mof_Cu	Cu	0.85478	0	0.85478	0.905
Mof_Cu	Cu	0.8066	0	0.8066	0.924
Mof_Cu	Cu	0.35478	0.5	0.35478	0.908
Mof_Cu	Cu	0.3066	0.5	0.3066	0.926
Mof_Cu	Cu	0.14522	0	0.14522	0.904
Mof_Cu	Cu	0.1934	1.73937e-33	0.1934	0.924
Mof_Cu	Cu	0.64522	0.5	0.64522	0.908
Mof_Cu	Cu	0.6934	0.5	0.6934	0.926
Mof_Cu	Cu	0.85478	0	0.14522	0.905
Mof_Cu	Cu	0.8066	1.73937e-33	0.1934	0.924
Mof_Cu	Cu	0.35478	0.5	0.64522	0.908
Mof_Cu	Cu	0.3066	0.5	0.6934	0.926
Mof_Cu	Cu	0.14522	0	0.85478	0.905
Mof_Cu	Cu	0.1934	0	0.8066	0.924
Mof_Cu	Cu	0.64522	0.5	0.35478	0.908
Mof_Cu	Cu	0.6934	0.5	0.3066	0.926
Mof_N 	N 	0.5	0.73204	0.73204	-0.173
Mof_C 	C 	0.5	0.7825	0.7825	-0.025
Mof_H 	H 	0.5	0.7998	0.7998	0.043
Mof_N 	N 	-2.60872e-33	0.23204	0.23204	-0.177
Mof_C 	C 	1.05921e-33	0.2825	0.2825	-0.037
Mof_H 	H 	1.12407e-33	0.2998	0.2998	0.044
Mof_N 	N 	0.5	0.26796	0.73204	-0.173
Mof_C 	C 	0.5	0.2175	0.7825	-0.025
Mof_H 	H 	0.5	0.2002	0.7998	0.042
Mof_N 	N 	-4.34809e-33	0.76796	0.23204	-0.177
Mof_C 	C 	-5.89826e-33	0.7175	0.2825	-0.037
Mof_H 	H 	-2.35466e-33	0.7002	0.2998	0.044
Mof_N 	N 	0.5	0.73204	0.26796	-0.173
Mof_C 	C 	0.5	0.7825	0.2175	-0.025
Mof_H 	H 	0.5	0.7998	0.2002	0.042
Mof_N 	N 	-4.07807e-33	0.23204	0.76796	-0.177
Mof_C 	C 	-4.26727e-33	0.2825	0.7175	-0.037
Mof_H 	H 	-4.33213e-33	0.2998	0.7002	0.044
Mof_N 	N 	0.5	0.26796	0.26796	-0.173
Mof_C 	C 	0.5	0.2175	0.2175	-0.025
Mof_H 	H 	0.5	0.2002	0.2002	0.042
Mof_N 	N 	2.87939e-33	0.76796	0.76796	-0.177
Mof_C 	C 	2.69019e-33	0.7175	0.7175	-0.037
Mof_H 	H 	2.62533e-33	0.7002	0.7002	0.044
Mof_N 	N 	0.73204	0.5	0.73204	-0.173
Mof_C 	C 	0.7825	0.5	0.7825	-0.025
Mof_H 	H 	0.7998	0.5	0.7998	0.043
Mof_N 	N 	0.23204	-1.73937e-33	0.23204	-0.177
Mof_C 	C 	0.2825	0	0.2825	-0.037
Mof_H 	H 	0.2998	0	0.2998	0.044
Mof_N 	N 	0.73204	0.5	0.26796	-0.173
Mof_C 	C 	0.7825	0.5	0.2175	-0.025
Mof_H 	H 	0.7998	0.5	0.2002	0.042
Mof_N 	N 	0.23204	0	0.76796	-0.177
Mof_C 	C 	0.2825	0	0.7175	-0.037
Mof_H 	H 	0.2998	0	0.7002	0.044
Mof_N 	N 	0.26796	0.5	0.73204	-0.173
Mof_C 	C 	0.2175	0.5	0.7825	-0.025
Mof_H 	H 	0.2002	0.5	0.7998	0.042
Mof_N 	N 	0.76796	-1.73937e-33	0.23204	-0.177
Mof_C 	C 	0.7175	0	0.2825	-0.037
Mof_H 	H 	0.7002	0	0.2998	0.044
Mof_N 	N 	0.26796	0.5	0.26796	-0.173
Mof_C 	C 	0.2175	0.5	0.2175	-0.025
Mof_H 	H 	0.2002	0.5	0.2002	0.042
Mof_N 	N 	0.76796	0	0.76796	-0.177
Mof_C 	C 	0.7175	0	0.7175	-0.037
Mof_H 	H 	0.7002	0	0.7002	0.044
Mof_N 	N 	0.73204	0.73204	0.5	-0.173
Mof_C 	C 	0.7825	0.7825	0.5	-0.025
Mof_H 	H 	0.7998	0.7998	0.5	0.043
Mof_N 	N 	0.23204	0.23204	-0	-0.177
Mof_C 	C 	0.2825	0.2825	-0	-0.037
Mof_H 	H 	0.2998	0.2998	-0	0.044
Mof_N 	N 	0.26796	0.73204	0.5	-0.173
Mof_C 	C 	0.2175	0.7825	0.5	-0.025
Mof_H 	H 	0.2002	0.7998	0.5	0.042
Mof_N 	N 	0.76796	0.23204	-0	-0.177
Mof_C 	C 	0.7175	0.2825	-0	-0.037
Mof_H 	H 	0.7002	0.2998	-0	0.044
Mof_N 	N 	0.73204	0.26796	0.5	-0.173
Mof_C 	C 	0.7825	0.2175	0.5	-0.025
Mof_H 	H 	0.7998	0.2002	0.5	0.042
Mof_N 	N 	0.23204	0.76796	-0	-0.177
Mof_C 	C 	0.2825	0.7175	-0	-0.037
Mof_H 	H 	0.2998	0.7002	-0	0.044
Mof_N 	N 	0.26796	0.26796	0.5	-0.173
Mof_C 	C 	0.2175	0.2175	0.5	-0.025
Mof_H 	H 	0.2002	0.2002	0.5	0.042
Mof_N 	N 	0.76796	0.76796	-0	-0.177
Mof_C 	C 	0.7175	0.7175	-0	-0.037
Mof_H 	H 	0.7002	0.7002	-0	0.044
Mof_C 	C 	0.79426	0.91261	0.91261	-0.019
Mof_H 	H 	0.8107	0.9255	0.9255	0.071
Mof_C 	C 	0.73796	0.88196	0.88196	0.14
Mof_N 	N 	0.70696	0.86518	0.86518	-0.18
Mof_C 	C 	0.56453	0.78245	0.78245	0.11
Mof_C 	C 	0.53007	0.76918	0.76918	-0.033
Mof_C 	C 	0.52968	0.74411	0.74411	0.041
Mof_H 	H 	0.5508	0.7353	0.7353	0.038
Mof_C 	C 	0.29426	0.41261	0.41261	-0.018
Mof_H 	H 	0.3107	0.4255	0.4255	0.069
Mof_C 	C 	0.23796	0.38196	0.38196	0.138
Mof_N 	N 	0.20696	0.36518	0.36518	-0.18
Mof_C 	C 	0.06453	0.28245	0.28245	0.109
Mof_C 	C 	0.03007	0.26918	0.26918	-0.03
Mof_C 	C 	0.02968	0.24411	0.24411	0.038
Mof_H 	H 	0.0508	0.2353	0.2353	0.039
Mof_C 	C 	0.20574	0.08739	0.91261	-0.018
Mof_H 	H 	0.1893	0.0745	0.9255	0.069
Mof_C 	C 	0.26204	0.11804	0.88196	0.138
Mof_N 	N 	0.29304	0.13482	0.86518	-0.18
Mof_C 	C 	0.43547	0.21755	0.78245	0.11
Mof_C 	C 	0.46993	0.23082	0.76918	-0.033
Mof_C 	C 	0.47032	0.25589	0.74411	0.041
Mof_H 	H 	0.4492	0.2647	0.7353	0.038
Mof_C 	C 	0.70574	0.58739	0.41261	-0.018
Mof_H 	H 	0.6893	0.5745	0.4255	0.069
Mof_C 	C 	0.76204	0.61804	0.38196	0.138
Mof_N 	N 	0.79304	0.63482	0.36518	-0.18
Mof_C 	C 	0.93547	0.71755	0.28245	0.11
Mof_C 	C 	0.96993	0.73082	0.26918	-0.025
Mof_C 	C 	0.97032	0.75589	0.24411	0.045
Mof_H 	H 	0.9492	0.7647	0.2353	0.037
Mof_C 	C 	0.20574	0.91261	0.08739	-0.018
Mof_H 	H 	0.1893	0.9255	0.0745	0.069
Mof_C 	C 	0.26204	0.88196	0.11804	0.138
Mof_N 	N 	0.29304	0.86518	0.13482	-0.18
Mof_C 	C 	0.43547	0.78245	0.21755	0.11
Mof_C 	C 	0.46993	0.76918	0.23082	-0.033
Mof_C 	C 	0.47032	0.74411	0.25589	0.041
Mof_H 	H 	0.4492	0.7353	0.2647	0.038
Mof_C 	C 	0.70574	0.41261	0.58739	-0.018
Mof_H 	H 	0.6893	0.4255	0.5745	0.069
Mof_C 	C 	0.76204	0.38196	0.61804	0.138
Mof_N 	N 	0.79304	0.36518	0.63482	-0.18
Mof_C 	C 	0.93547	0.28245	0.71755	0.11
Mof_C 	C 	0.96993	0.26918	0.73082	-0.025
Mof_C 	C 	0.97032	0.24411	0.75589	0.045
Mof_H 	H 	0.9492	0.2353	0.7647	0.037
Mof_C 	C 	0.79426	0.08739	0.08739	-0.018
Mof_H 	H 	0.8107	0.0745	0.0745	0.067
Mof_C 	C 	0.73796	0.11804	0.11804	0.137
Mof_N 	N 	0.70696	0.13482	0.13482	-0.18
Mof_C 	C 	0.56453	0.21755	0.21755	0.11
Mof_C 	C 	0.53007	0.23082	0.23082	-0.033
Mof_C 	C 	0.52968	0.25589	0.25589	0.041
Mof_H 	H 	0.5508	0.2647	0.2647	0.038
Mof_C 	C 	0.29426	0.58739	0.58739	-0.018
Mof_H 	H 	0.3107	0.5745	0.5745	0.069
Mof_C 	C 	0.23796	0.61804	0.61804	0.138
Mof_N 	N 	0.20696	0.63482	0.63482	-0.18
Mof_C 	C 	0.06453	0.71755	0.71755	0.109
Mof_C 	C 	0.03007	0.73082	0.73082	-0.03
Mof_C 	C 	0.02968	0.75589	0.75589	0.038
Mof_H 	H 	0.0508	0.7647	0.7647	0.039
Mof_C 	C 	0.91261	0.79426	0.91261	-0.019
Mof_H 	H 	0.9255	0.8107	0.9255	0.071
Mof_C 	C 	0.88196	0.73796	0.88196	0.14
Mof_N 	N 	0.86518	0.70696	0.86518	-0.18
Mof_C 	C 	0.78245	0.56453	0.78245	0.11
Mof_C 	C 	0.76918	0.53007	0.76918	-0.033
Mof_C 	C 	0.74411	0.52968	0.74411	0.041
Mof_H 	H 	0.7353	0.5508	0.7353	0.038
Mof_C 	C 	0.41261	0.29426	0.41261	-0.018
Mof_H 	H 	0.4255	0.3107	0.4255	0.069
Mof_C 	C 	0.38196	0.23796	0.38196	0.138
Mof_N 	N 	0.36518	0.20696	0.36518	-0.18
Mof_C 	C 	0.28245	0.06453	0.28245	0.109
Mof_C 	C 	0.26918	0.03007	0.26918	-0.03
Mof_C 	C 	0.24411	0.02968	0.24411	0.038
Mof_H 	H 	0.2353	0.0508	0.2353	0.039
Mof_C 	C 	0.91261	0.20574	0.08739	-0.018
Mof_H 	H 	0.9255	0.1893	0.0745	0.069
Mof_C 	C 	0.88196	0.26204	0.11804	0.138
Mof_N 	N 	0.86518	0.29304	0.13482	-0.18
Mof_C 	C 	0.78245	0.43547	0.21755	0.11
Mof_C 	C 	0.76918	0.46993	0.23082	-0.033
Mof_C 	C 	0.74411	0.47032	0.25589	0.041
Mof_H 	H 	0.7353	0.4492	0.2647	0.038
Mof_C 	C 	0.41261	0.70574	0.58739	-0.018
Mof_H 	H 	0.4255	0.6893	0.5745	0.069
Mof_C 	C 	0.38196	0.76204	0.61804	0.138
Mof_N 	N 	0.36518	0.79304	0.63482	-0.18
Mof_C 	C 	0.28245	0.93547	0.71755	0.11
Mof_C 	C 	0.26918	0.96993	0.73082	-0.025
Mof_C 	C 	0.24411	0.97032	0.75589	0.045
Mof_H 	H 	0.2353	0.9492	0.7647	0.037
Mof_C 	C 	0.08739	0.20574	0.91261	-0.018
Mof_H 	H 	0.0745	0.1893	0.9255	0.069
Mof_C 	C 	0.11804	0.26204	0.88196	0.138
Mof_N 	N 	0.13482	0.29304	0.86518	-0.18
Mof_C 	C 	0.21755	0.43547	0.78245	0.11
Mof_C 	C 	0.23082	0.46993	0.76918	-0.033
Mof_C 	C 	0.25589	0.47032	0.74411	0.041
Mof_H 	H 	0.2647	0.4492	0.7353	0.038
Mof_C 	C 	0.58739	0.70574	0.41261	-0.018
Mof_H 	H 	0.5745	0.6893	0.4255	0.069
Mof_C 	C 	0.61804	0.76204	0.38196	0.138
Mof_N 	N 	0.63482	0.79304	0.36518	-0.18
Mof_C 	C 	0.71755	0.93547	0.28245	0.11
Mof_C 	C 	0.73082	0.96993	0.26918	-0.025
Mof_C 	C 	0.75589	0.97032	0.24411	0.045
Mof_H 	H 	0.7647	0.9492	0.2353	0.037
Mof_C 	C 	0.08739	0.79426	0.08739	-0.018
Mof_H 	H 	0.0745	0.8107	0.0745	0.067
Mof_C 	C 	0.11804	0.73796	0.11804	0.137
Mof_N 	N 	0.13482	0.70696	0.13482	-0.18
Mof_C 	C 	0.21755	0.56453	0.21755	0.11
Mof_C 	C 	0.23082	0.53007	0.23082	-0.033
Mof_C 	C 	0.25589	0.52968	0.25589	0.041
Mof_H 	H 	0.2647	0.5508	0.2647	0.038
Mof_C 	C 	0.58739	0.29426	0.58739	-0.018
Mof_H 	H 	0.5745	0.3107	0.5745	0.069
Mof_C 	C 	0.61804	0.23796	0.61804	0.138
Mof_N 	N 	0.63482	0.20696	0.63482	-0.18
Mof_C 	C 	0.71755	0.06453	0.71755	0.109
Mof_C 	C 	0.73082	0.03007	0.73082	-0.03
Mof_C 	C 	0.75589	0.02968	0.75589	0.038
Mof_H 	H 	0.7647	0.0508	0.7647	0.039
Mof_C 	C 	0.91261	0.91261	0.79426	-0.019
Mof_H 	H 	0.9255	0.9255	0.8107	0.071
Mof_C 	C 	0.88196	0.88196	0.73796	0.14
Mof_N 	N 	0.86518	0.86518	0.70696	-0.18
Mof_C 	C 	0.78245	0.78245	0.56453	0.11
Mof_C 	C 	0.76918	0.76918	0.53007	-0.033
Mof_C 	C 	0.74411	0.74411	0.52968	0.041
Mof_H 	H 	0.7353	0.7353	0.5508	0.038
Mof_C 	C 	0.41261	0.41261	0.29426	-0.018
Mof_H 	H 	0.4255	0.4255	0.3107	0.069
Mof_C 	C 	0.38196	0.38196	0.23796	0.138
Mof_N 	N 	0.36518	0.36518	0.20696	-0.18
Mof_C 	C 	0.28245	0.28245	0.06453	0.109
Mof_C 	C 	0.26918	0.26918	0.03007	-0.03
Mof_C 	C 	0.24411	0.24411	0.02968	0.038
Mof_H 	H 	0.2353	0.2353	0.0508	0.039
Mof_C 	C 	0.08739	0.91261	0.20574	-0.018
Mof_H 	H 	0.0745	0.9255	0.1893	0.069
Mof_C 	C 	0.11804	0.88196	0.26204	0.138
Mof_N 	N 	0.13482	0.86518	0.29304	-0.18
Mof_C 	C 	0.21755	0.78245	0.43547	0.11
Mof_C 	C 	0.23082	0.76918	0.46993	-0.033
Mof_C 	C 	0.25589	0.74411	0.47032	0.041
Mof_H 	H 	0.2647	0.7353	0.4492	0.038
Mof_C 	C 	0.58739	0.41261	0.70574	-0.018
Mof_H 	H 	0.5745	0.4255	0.6893	0.069
Mof_C 	C 	0.61804	0.38196	0.76204	0.138
Mof_N 	N 	0.63482	0.36518	0.79304	-0.18
Mof_C 	C 	0.71755	0.28245	0.93547	0.11
Mof_C 	C 	0.73082	0.26918	0.96993	-0.025
Mof_C 	C 	0.75589	0.24411	0.97032	0.045
Mof_H 	H 	0.7647	0.2353	0.9492	0.037
Mof_C 	C 	0.91261	0.08739	0.20574	-0.018
Mof_H 	H 	0.9255	0.0745	0.1893	0.069
Mof_C 	C 	0.88196	0.11804	0.26204	0.138
Mof_N 	N 	0.86518	0.13482	0.29304	-0.18
Mof_C 	C 	0.78245	0.21755	0.43547	0.11
Mof_C 	C 	0.76918	0.23082	0.46993	-0.033
Mof_C 	C 	0.74411	0.25589	0.47032	0.041
Mof_H 	H 	0.7353	0.2647	0.4492	0.038
Mof_C 	C 	0.41261	0.58739	0.70574	-0.018
Mof_H 	H 	0.4255	0.5745	0.6893	0.069
Mof_C 	C 	0.38196	0.61804	0.76204	0.138
Mof_N 	N 	0.36518	0.63482	0.79304	-0.18
Mof_C 	C 	0.28245	0.71755	0.93547	0.11
Mof_C 	C 	0.26918	0.73082	0.96993	-0.025
Mof_C 	C 	0.24411	0.75589	0.97032	0.045
Mof_H 	H 	0.2353	0.7647	0.9492	0.037
Mof_C 	C 	0.08739	0.08739	0.79426	-0.018
Mof_H 	H 	0.0745	0.0745	0.8107	0.067
Mof_C 	C 	0.11804	0.11804	0.73796	0.137
Mof_N 	N 	0.13482	0.13482	0.70696	-0.18
Mof_C 	C 	0.21755	0.21755	0.56453	0.11
Mof_C 	C 	0.23082	0.23082	0.53007	-0.033
Mof_C 	C 	0.25589	0.25589	0.52968	0.041
Mof_H 	H 	0.2647	0.2647	0.5508	0.038
Mof_C 	C 	0.58739	0.58739	0.29426	-0.018
Mof_H 	H 	0.5745	0.5745	0.3107	0.069
Mof_C 	C 	0.61804	0.61804	0.23796	0.138
Mof_N 	N 	0.63482	0.63482	0.20696	-0.18
Mof_C 	C 	0.71755	0.71755	0.06453	0.109
Mof_C 	C 	0.73082	0.73082	0.03007	-0.03
Mof_C 	C 	0.75589	0.75589	0.02968	0.038
Mof_H 	H 	0.7647	0.7647	0.0508	0.039
Mof_C 	C 	0.91261	0.79426	0.08739	-0.019
Mof_H 	H 	0.9255	0.8107	0.0745	0.069
Mof_C 	C 	0.88196	0.73796	0.11804	0.138
Mof_N 	N 	0.86518	0.70696	0.13482	-0.18
Mof_C 	C 	0.78245	0.56453	0.21755	0.11
Mof_C 	C 	0.76918	0.53007	0.23082	-0.033
Mof_C 	C 	0.74411	0.52968	0.25589	0.041
Mof_H 	H 	0.7353	0.5508	0.2647	0.038
Mof_C 	C 	0.41261	0.29426	0.58739	-0.018
Mof_H 	H 	0.4255	0.3107	0.5745	0.069
Mof_C 	C 	0.38196	0.23796	0.61804	0.138
Mof_N 	N 	0.36518	0.20696	0.63482	-0.18
Mof_C 	C 	0.28245	0.06453	0.71755	0.109
Mof_C 	C 	0.26918	0.03007	0.73082	-0.03
Mof_C 	C 	0.24411	0.02968	0.75589	0.038
Mof_H 	H 	0.2353	0.0508	0.7647	0.039
Mof_C 	C 	0.08739	0.20574	0.08739	-0.018
Mof_H 	H 	0.0745	0.1893	0.0745	0.067
Mof_C 	C 	0.11804	0.26204	0.11804	0.137
Mof_N 	N 	0.13482	0.29304	0.13482	-0.18
Mof_C 	C 	0.21755	0.43547	0.21755	0.11
Mof_C 	C 	0.23082	0.46993	0.23082	-0.033
Mof_C 	C 	0.25589	0.47032	0.25589	0.041
Mof_H 	H 	0.2647	0.4492	0.2647	0.038
Mof_C 	C 	0.58739	0.70574	0.58739	-0.018
Mof_H 	H 	0.5745	0.6893	0.5745	0.069
Mof_C 	C 	0.61804	0.76204	0.61804	0.138
Mof_N 	N 	0.63482	0.79304	0.63482	-0.18
Mof_C 	C 	0.71755	0.93547	0.71755	0.11
Mof_C 	C 	0.73082	0.96993	0.73082	-0.025
Mof_C 	C 	0.75589	0.97032	0.75589	0.045
Mof_H 	H 	0.7647	0.9492	0.7647	0.037
Mof_C 	C 	0.91261	0.20574	0.91261	-0.019
Mof_H 	H 	0.9255	0.1893	0.9255	0.07
Mof_C 	C 	0.88196	0.26204	0.88196	0.139
Mof_N 	N 	0.86518	0.29304	0.86518	-0.18
Mof_C 	C 	0.78245	0.43547	0.78245	0.11
Mof_C 	C 	0.76918	0.46993	0.76918	-0.033
Mof_C 	C 	0.74411	0.47032	0.74411	0.041
Mof_H 	H 	0.7353	0.4492	0.7353	0.038
Mof_C 	C 	0.41261	0.70574	0.41261	-0.018
Mof_H 	H 	0.4255	0.6893	0.4255	0.069
Mof_C 	C 	0.38196	0.76204	0.38196	0.138
Mof_N 	N 	0.36518	0.79304	0.36518	-0.18
Mof_C 	C 	0.28245	0.93547	0.28245	0.11
Mof_C 	C 	0.26918	0.96993	0.26918	-0.025
Mof_C 	C 	0.24411	0.97032	0.24411	0.045
Mof_H 	H 	0.2353	0.9492	0.2353	0.037
Mof_C 	C 	0.08739	0.79426	0.91261	-0.019
Mof_H 	H 	0.0745	0.8107	0.9255	0.069
Mof_C 	C 	0.11804	0.73796	0.88196	0.138
Mof_N 	N 	0.13482	0.70696	0.86518	-0.18
Mof_C 	C 	0.21755	0.56453	0.78245	0.11
Mof_C 	C 	0.23082	0.53007	0.76918	-0.033
Mof_C 	C 	0.25589	0.52968	0.74411	0.041
Mof_H 	H 	0.2647	0.5508	0.7353	0.038
Mof_C 	C 	0.58739	0.29426	0.41261	-0.018
Mof_H 	H 	0.5745	0.3107	0.4255	0.069
Mof_C 	C 	0.61804	0.23796	0.38196	0.138
Mof_N 	N 	0.63482	0.20696	0.36518	-0.18
Mof_C 	C 	0.71755	0.06453	0.28245	0.109
Mof_C 	C 	0.73082	0.03007	0.26918	-0.03
Mof_C 	C 	0.75589	0.02968	0.24411	0.038
Mof_H 	H 	0.7647	0.0508	0.2353	0.039
Mof_C 	C 	0.79426	0.91261	0.08739	-0.019
Mof_H 	H 	0.8107	0.9255	0.0745	0.069
Mof_C 	C 	0.73796	0.88196	0.11804	0.138
Mof_N 	N 	0.70696	0.86518	0.13482	-0.18
Mof_C 	C 	0.56453	0.78245	0.21755	0.11
Mof_C 	C 	0.53007	0.76918	0.23082	-0.033
Mof_C 	C 	0.52968	0.74411	0.25589	0.041
Mof_H 	H 	0.5508	0.7353	0.2647	0.038
Mof_C 	C 	0.29426	0.41261	0.58739	-0.018
Mof_H 	H 	0.3107	0.4255	0.5745	0.069
Mof_C 	C 	0.23796	0.38196	0.61804	0.138
Mof_N 	N 	0.20696	0.36518	0.63482	-0.18
Mof_C 	C 	0.06453	0.28245	0.71755	0.109
Mof_C 	C 	0.03007	0.26918	0.73082	-0.03
Mof_C 	C 	0.02968	0.24411	0.75589	0.038
Mof_H 	H 	0.0508	0.2353	0.7647	0.039
Mof_C 	C 	0.20574	0.91261	0.91261	-0.019
Mof_H 	H 	0.1893	0.9255	0.9255	0.07
Mof_C 	C 	0.26204	0.88196	0.88196	0.139
Mof_N 	N 	0.29304	0.86518	0.86518	-0.18
Mof_C 	C 	0.43547	0.78245	0.78245	0.11
Mof_C 	C 	0.46993	0.76918	0.76918	-0.033
Mof_C 	C 	0.47032	0.74411	0.74411	0.041
Mof_H 	H 	0.4492	0.7353	0.7353	0.038
Mof_C 	C 	0.70574	0.41261	0.41261	-0.018
Mof_H 	H 	0.6893	0.4255	0.4255	0.069
Mof_C 	C 	0.76204	0.38196	0.38196	0.138
Mof_N 	N 	0.79304	0.36518	0.36518	-0.18
Mof_C 	C 	0.93547	0.28245	0.28245	0.11
Mof_C 	C 	0.96993	0.26918	0.26918	-0.025
Mof_C 	C 	0.97032	0.24411	0.24411	0.045
Mof_H 	H 	0.9492	0.2353	0.2353	0.037
Mof_C 	C 	0.20574	0.08739	0.08739	-0.018
Mof_H 	H 	0.1893	0.0745	0.0745	0.067
Mof_C 	C 	0.26204	0.11804	0.11804	0.137
Mof_N 	N 	0.29304	0.13482	0.13482	-0.18
Mof_C 	C 	0.43547	0.21755	0.21755	0.11
Mof_C 	C 	0.46993	0.23082	0.23082	-0.033
Mof_C 	C 	0.47032	0.25589	0.25589	0.041
Mof_H 	H 	0.4492	0.2647	0.2647	0.038
Mof_C 	C 	0.70574	0.58739	0.58739	-0.018
Mof_H 	H 	0.6893	0.5745	0.5745	0.069
Mof_C 	C 	0.76204	0.61804	0.61804	0.138
Mof_N 	N 	0.79304	0.63482	0.63482	-0.18
Mof_C 	C 	0.93547	0.71755	0.71755	0.11
Mof_C 	C 	0.96993	0.73082	0.73082	-0.025
Mof_C 	C 	0.97032	0.75589	0.75589	0.045
Mof_H 	H 	0.9492	0.7647	0.7647	0.037
Mof_C 	C 	0.79426	0.08739	0.91261	-0.019
Mof_H 	H 	0.8107	0.0745	0.9255	0.069
Mof_C 	C 	0.73796	0.11804	0.88196	0.138
Mof_N 	N 	0.70696	0.13482	0.86518	-0.18
Mof_C 	C 	0.56453	0.21755	0.78245	0.11
Mof_C 	C 	0.53007	0.23082	0.76918	-0.033
Mof_C 	C 	0.52968	0.25589	0.74411	0.041
Mof_H 	H 	0.5508	0.2647	0.7353	0.038
Mof_C 	C 	0.29426	0.58739	0.41261	-0.018
Mof_H 	H 	0.3107	0.5745	0.4255	0.069
Mof_C 	C 	0.23796	0.61804	0.38196	0.138
Mof_N 	N 	0.20696	0.63482	0.36518	-0.18
Mof_C 	C 	0.06453	0.71755	0.28245	0.109
Mof_C 	C 	0.03007	0.73082	0.26918	-0.03
Mof_C 	C 	0.02968	0.75589	0.24411	0.038
Mof_H 	H 	0.0508	0.7647	0.2353	0.039
Mof_C 	C 	0.91261	0.91261	0.20574	-0.019
Mof_H 	H 	0.9255	0.9255	0.1893	0.07
Mof_C 	C 	0.88196	0.88196	0.26204	0.139
Mof_N 	N 	0.86518	0.86518	0.29304	-0.18
Mof_C 	C 	0.78245	0.78245	0.43547	0.11
Mof_C 	C 	0.76918	0.76918	0.46993	-0.033
Mof_C 	C 	0.74411	0.74411	0.47032	0.041
Mof_H 	H 	0.7353	0.7353	0.4492	0.038
Mof_C 	C 	0.41261	0.41261	0.70574	-0.018
Mof_H 	H 	0.4255	0.4255	0.6893	0.069
Mof_C 	C 	0.38196	0.38196	0.76204	0.138
Mof_N 	N 	0.36518	0.36518	0.79304	-0.18
Mof_C 	C 	0.28245	0.28245	0.93547	0.11
Mof_C 	C 	0.26918	0.26918	0.96993	-0.025
Mof_C 	C 	0.24411	0.24411	0.97032	0.045
Mof_H 	H 	0.2353	0.2353	0.9492	0.037
Mof_C 	C 	0.91261	0.08739	0.79426	-0.019
Mof_H 	H 	0.9255	0.0745	0.8107	0.069
Mof_C 	C 	0.88196	0.11804	0.73796	0.138
Mof_N 	N 	0.86518	0.13482	0.70696	-0.18
Mof_C 	C 	0.78245	0.21755	0.56453	0.11
Mof_C 	C 	0.76918	0.23082	0.53007	-0.033
Mof_C 	C 	0.74411	0.25589	0.52968	0.041
Mof_H 	H 	0.7353	0.2647	0.5508	0.038
Mof_C 	C 	0.41261	0.58739	0.29426	-0.018
Mof_H 	H 	0.4255	0.5745	0.3107	0.069
Mof_C 	C 	0.38196	0.61804	0.23796	0.138
Mof_N 	N 	0.36518	0.63482	0.20696	-0.18
Mof_C 	C 	0.28245	0.71755	0.06453	0.109
Mof_C 	C 	0.26918	0.73082	0.03007	-0.03
Mof_C 	C 	0.24411	0.75589	0.02968	0.038
Mof_H 	H 	0.2353	0.7647	0.0508	0.039
Mof_C 	C 	0.08739	0.91261	0.79426	-0.019
Mof_H 	H 	0.0745	0.9255	0.8107	0.069
Mof_C 	C 	0.11804	0.88196	0.73796	0.138
Mof_N 	N 	0.13482	0.86518	0.70696	-0.18
Mof_C 	C 	0.21755	0.78245	0.56453	0.11
Mof_C 	C 	0.23082	0.76918	0.53007	-0.033
Mof_C 	C 	0.25589	0.74411	0.52968	0.041
Mof_H 	H 	0.2647	0.7353	0.5508	0.038
Mof_C 	C 	0.58739	0.41261	0.29426	-0.018
Mof_H 	H 	0.5745	0.4255	0.3107	0.069
Mof_C 	C 	0.61804	0.38196	0.23796	0.138
Mof_N 	N 	0.63482	0.36518	0.20696	-0.18
Mof_C 	C 	0.71755	0.28245	0.06453	0.109
Mof_C 	C 	0.73082	0.26918	0.03007	-0.03
Mof_C 	C 	0.75589	0.24411	0.02968	0.038
Mof_H 	H 	0.7647	0.2353	0.0508	0.039
Mof_C 	C 	0.08739	0.08739	0.20574	-0.018
Mof_H 	H 	0.0745	0.0745	0.1893	0.067
Mof_C 	C 	0.11804	0.11804	0.26204	0.137
Mof_N 	N 	0.13482	0.13482	0.29304	-0.18
Mof_C 	C 	0.21755	0.21755	0.43547	0.11
Mof_C 	C 	0.23082	0.23082	0.46993	-0.033
Mof_C 	C 	0.25589	0.25589	0.47032	0.041
Mof_H 	H 	0.2647	0.2647	0.4492	0.038
Mof_C 	C 	0.58739	0.58739	0.70574	-0.018
Mof_H 	H 	0.5745	0.5745	0.6893	0.069
Mof_C 	C 	0.61804	0.61804	0.76204	0.138
Mof_N 	N 	0.63482	0.63482	0.79304	-0.18
Mof_C 	C 	0.71755	0.71755	0.93547	0.11
Mof_C 	C 	0.73082	0.73082	0.96993	-0.025
Mof_C 	C 	0.75589	0.75589	0.97032	0.045
Mof_H 	H 	0.7647	0.7647	0.9492	0.037
_end
