data_functionalizedCrystal
_audit_creation_method	'EQeq! by Chris Wilmer'
_symmetry_space_group_name_H-M	'P1'
_symmetry_Int_Tables_number	1
_symmetry_cell_setting	triclinic
loop_
_symmetry_equiv_pos_as_xyz
  x,y,z
_cell_length_a	24.7168
_cell_length_b	13.0121
_cell_length_c	14.9778
_cell_angle_alpha	90
_cell_angle_beta	96.682
_cell_angle_gamma	90
loop_
_atom_site_label
_atom_site_type_symbol
_atom_site_fract_x
_atom_site_fract_y
_atom_site_fract_z
_atom_site_charge
Mof_Pr	Pr	0.32881	0.79544	0.03267	2.253
Mof_O 	O 	0.30531	0.7384	0.8784	-0.551
Mof_O 	O 	0.22721	0.6531	0.8496	-0.592
Mof_O 	O 	0.20146	0.4491	0.5611	-0.512
Mof_O 	O 	0.27373	0.3582	0.5382	-0.652
Mof_O 	O 	0.59904	0.6671	0.5018	-0.473
Mof_O 	O 	0.58532	0.8265	0.5413	-0.478
Mof_C 	C 	0.27477	0.6762	0.8347	0.521
Mof_C 	C 	0.29652	0.6258	0.755	-0.215
Mof_C 	C 	0.26524	0.5577	0.701	0.133
Mof_H 	H 	0.2295	0.5451	0.7114	-0.015
Mof_C 	C 	0.28644	0.5078	0.6315	-0.211
Mof_C 	C 	0.25179	0.4338	0.5743	0.457
Mof_C 	C 	0.33963	0.5287	0.6143	0.066
Mof_H 	H 	0.3544	0.4934	0.5689	-0.003
Mof_C 	C 	0.37055	0.6017	0.6644	-0.108
Mof_C 	C 	0.34844	0.6492	0.7364	0.077
Mof_H 	H 	0.3691	0.6969	0.7719	0.012
Mof_C 	C 	0.42481	0.6341	0.6402	0.115
Mof_C 	C 	0.4596	0.5644	0.607	-0.166
Mof_H 	H 	0.4504	0.4951	0.6042	0.083
Mof_C 	C 	0.5081	0.5962	0.578	0.07
Mof_H 	H 	0.5312	0.548	0.5567	0.012
Mof_C 	C 	0.5224	0.6985	0.5803	-0.141
Mof_C 	C 	0.57224	0.7329	0.5394	0.342
Mof_C 	C 	0.489	0.7678	0.6158	0.072
Mof_H 	H 	0.499	0.8367	0.62	0
Mof_C 	C 	0.4406	0.7365	0.6455	-0.167
Mof_H 	H 	0.4184	0.7846	0.6691	0.078
Mof_Pr	Pr	0.82881	0.29544	0.03267	2.249
Mof_O 	O 	0.80531	0.2384	0.8784	-0.551
Mof_O 	O 	0.72721	0.1531	0.8496	-0.594
Mof_O 	O 	0.70146	0.9491	0.5611	-0.513
Mof_O 	O 	0.77373	0.8582	0.5382	-0.654
Mof_O 	O 	0.09904	0.1671	0.5018	-0.474
Mof_O 	O 	0.08532	0.3265	0.5413	-0.479
Mof_C 	C 	0.77477	0.1762	0.8347	0.52
Mof_C 	C 	0.79652	0.1258	0.755	-0.215
Mof_C 	C 	0.76524	0.0577	0.701	0.133
Mof_H 	H 	0.7295	0.0451	0.7114	-0.015
Mof_C 	C 	0.78644	0.0078	0.6315	-0.211
Mof_C 	C 	0.75179	0.9338	0.5743	0.457
Mof_C 	C 	0.83963	0.0287	0.6143	0.066
Mof_H 	H 	0.8544	0.9934	0.5689	-0.003
Mof_C 	C 	0.87055	0.1017	0.6644	-0.108
Mof_C 	C 	0.84844	0.1492	0.7364	0.077
Mof_H 	H 	0.8691	0.1969	0.7719	0.012
Mof_C 	C 	0.92481	0.1341	0.6402	0.116
Mof_C 	C 	0.9596	0.0644	0.607	-0.166
Mof_H 	H 	0.9504	0.9951	0.6042	0.083
Mof_C 	C 	0.0081	0.0962	0.578	0.07
Mof_H 	H 	0.0312	0.048	0.5567	0.012
Mof_C 	C 	0.0224	0.1985	0.5803	-0.141
Mof_C 	C 	0.07224	0.2329	0.5394	0.342
Mof_C 	C 	0.989	0.2678	0.6158	0.073
Mof_H 	H 	0.999	0.3367	0.62	0
Mof_C 	C 	0.9406	0.2365	0.6455	-0.167
Mof_H 	H 	0.9184	0.2846	0.6691	0.078
Mof_Pr	Pr	0.67119	0.79544	0.46733	2.251
Mof_O 	O 	0.69469	0.7384	0.6216	-0.551
Mof_O 	O 	0.77279	0.6531	0.6504	-0.593
Mof_O 	O 	0.79854	0.4491	0.9389	-0.512
Mof_O 	O 	0.72627	0.3582	0.9618	-0.653
Mof_O 	O 	0.40096	0.6671	0.9982	-0.474
Mof_O 	O 	0.41468	0.8265	0.9587	-0.478
Mof_C 	C 	0.72523	0.6762	0.6653	0.52
Mof_C 	C 	0.70348	0.6258	0.745	-0.214
Mof_C 	C 	0.73476	0.5577	0.799	0.132
Mof_H 	H 	0.7705	0.5451	0.7886	-0.015
Mof_C 	C 	0.71356	0.5078	0.8685	-0.211
Mof_C 	C 	0.74821	0.4338	0.9257	0.456
Mof_C 	C 	0.66037	0.5287	0.8857	0.066
Mof_H 	H 	0.6456	0.4934	0.9311	-0.003
Mof_C 	C 	0.62945	0.6017	0.8356	-0.108
Mof_C 	C 	0.65156	0.6492	0.7636	0.077
Mof_H 	H 	0.6309	0.6969	0.7281	0.012
Mof_C 	C 	0.57519	0.6341	0.8598	0.115
Mof_C 	C 	0.5404	0.5644	0.893	-0.166
Mof_H 	H 	0.5496	0.4951	0.8958	0.083
Mof_C 	C 	0.4919	0.5962	0.922	0.07
Mof_H 	H 	0.4688	0.548	0.9433	0.012
Mof_C 	C 	0.4776	0.6985	0.9197	-0.14
Mof_C 	C 	0.42776	0.7329	0.9606	0.342
Mof_C 	C 	0.511	0.7678	0.8842	0.072
Mof_H 	H 	0.501	0.8367	0.88	0
Mof_C 	C 	0.5594	0.7365	0.8545	-0.167
Mof_H 	H 	0.5816	0.7846	0.8309	0.078
Mof_Pr	Pr	0.17119	0.29544	0.46733	2.252
Mof_O 	O 	0.19469	0.2384	0.6216	-0.552
Mof_O 	O 	0.27279	0.1531	0.6504	-0.594
Mof_O 	O 	0.29854	0.9491	0.9389	-0.513
Mof_O 	O 	0.22627	0.8582	0.9618	-0.653
Mof_O 	O 	0.90096	0.1671	0.9982	-0.474
Mof_O 	O 	0.91468	0.3265	0.9587	-0.477
Mof_C 	C 	0.22523	0.1762	0.6653	0.52
Mof_C 	C 	0.20348	0.1258	0.745	-0.215
Mof_C 	C 	0.23476	0.0577	0.799	0.133
Mof_H 	H 	0.2705	0.0451	0.7886	-0.015
Mof_C 	C 	0.21356	0.0078	0.8685	-0.212
Mof_C 	C 	0.24821	0.9338	0.9257	0.457
Mof_C 	C 	0.16037	0.0287	0.8857	0.065
Mof_H 	H 	0.1456	0.9934	0.9311	-0.002
Mof_C 	C 	0.12945	0.1017	0.8356	-0.108
Mof_C 	C 	0.15156	0.1492	0.7636	0.078
Mof_H 	H 	0.1309	0.1969	0.7281	0.011
Mof_C 	C 	0.07519	0.1341	0.8598	0.117
Mof_C 	C 	0.0404	0.0644	0.893	-0.172
Mof_H 	H 	0.0496	0.9951	0.8958	0.085
Mof_C 	C 	0.9919	0.0962	0.922	0.074
Mof_H 	H 	0.9688	0.048	0.9433	0.011
Mof_C 	C 	0.9776	0.1985	0.9197	-0.14
Mof_C 	C 	0.92776	0.2329	0.9606	0.342
Mof_C 	C 	0.011	0.2678	0.8842	0.07
Mof_H 	H 	0.001	0.3367	0.88	0
Mof_C 	C 	0.0594	0.2365	0.8545	-0.167
Mof_H 	H 	0.0816	0.2846	0.8309	0.078
Mof_Pr	Pr	0.67119	0.20456	0.96733	2.252
Mof_O 	O 	0.69469	0.2616	0.1216	-0.552
Mof_O 	O 	0.77279	0.3469	0.1504	-0.593
Mof_O 	O 	0.79854	0.5509	0.4389	-0.513
Mof_O 	O 	0.72627	0.6418	0.4618	-0.653
Mof_O 	O 	0.40096	0.3329	0.4982	-0.474
Mof_O 	O 	0.41468	0.1735	0.4587	-0.479
Mof_C 	C 	0.72523	0.3238	0.1653	0.52
Mof_C 	C 	0.70348	0.3742	0.245	-0.215
Mof_C 	C 	0.73476	0.4423	0.299	0.133
Mof_H 	H 	0.7705	0.4549	0.2886	-0.015
Mof_C 	C 	0.71356	0.4922	0.3685	-0.211
Mof_C 	C 	0.74821	0.5662	0.4257	0.457
Mof_C 	C 	0.66037	0.4713	0.3857	0.066
Mof_H 	H 	0.6456	0.5066	0.4311	-0.003
Mof_C 	C 	0.62945	0.3983	0.3356	-0.108
Mof_C 	C 	0.65156	0.3508	0.2636	0.077
Mof_H 	H 	0.6309	0.3031	0.2281	0.012
Mof_C 	C 	0.57519	0.3659	0.3598	0.115
Mof_C 	C 	0.5404	0.4356	0.393	-0.166
Mof_H 	H 	0.5496	0.5049	0.3958	0.083
Mof_C 	C 	0.4919	0.4038	0.422	0.07
Mof_H 	H 	0.4688	0.452	0.4433	0.012
Mof_C 	C 	0.4776	0.3015	0.4197	-0.141
Mof_C 	C 	0.42776	0.2671	0.4606	0.342
Mof_C 	C 	0.511	0.2322	0.3842	0.072
Mof_H 	H 	0.501	0.1633	0.38	0
Mof_C 	C 	0.5594	0.2635	0.3545	-0.167
Mof_H 	H 	0.5816	0.2154	0.3309	0.078
Mof_Pr	Pr	0.17119	0.70456	0.96733	2.249
Mof_O 	O 	0.19469	0.7616	0.1216	-0.551
Mof_O 	O 	0.27279	0.8469	0.1504	-0.594
Mof_O 	O 	0.29854	0.0509	0.4389	-0.513
Mof_O 	O 	0.22627	0.1418	0.4618	-0.654
Mof_O 	O 	0.90096	0.8329	0.4982	-0.474
Mof_O 	O 	0.91468	0.6735	0.4587	-0.479
Mof_C 	C 	0.22523	0.8238	0.1653	0.52
Mof_C 	C 	0.20348	0.8742	0.245	-0.215
Mof_C 	C 	0.23476	0.9423	0.299	0.133
Mof_H 	H 	0.2705	0.9549	0.2886	-0.015
Mof_C 	C 	0.21356	0.9922	0.3685	-0.211
Mof_C 	C 	0.24821	0.0662	0.4257	0.457
Mof_C 	C 	0.16037	0.9713	0.3857	0.066
Mof_H 	H 	0.1456	0.0066	0.4311	-0.003
Mof_C 	C 	0.12945	0.8983	0.3356	-0.108
Mof_C 	C 	0.15156	0.8508	0.2636	0.077
Mof_H 	H 	0.1309	0.8031	0.2281	0.012
Mof_C 	C 	0.07519	0.8659	0.3598	0.116
Mof_C 	C 	0.0404	0.9356	0.393	-0.166
Mof_H 	H 	0.0496	0.0049	0.3958	0.083
Mof_C 	C 	0.9919	0.9038	0.422	0.07
Mof_H 	H 	0.9688	0.952	0.4433	0.012
Mof_C 	C 	0.9776	0.8015	0.4197	-0.141
Mof_C 	C 	0.92776	0.7671	0.4606	0.342
Mof_C 	C 	0.011	0.7322	0.3842	0.073
Mof_H 	H 	0.001	0.6633	0.38	0
Mof_C 	C 	0.0594	0.7635	0.3545	-0.167
Mof_H 	H 	0.0816	0.7154	0.3309	0.078
Mof_Pr	Pr	0.32881	0.20456	0.53267	2.251
Mof_O 	O 	0.30531	0.2616	0.3784	-0.551
Mof_O 	O 	0.22721	0.3469	0.3496	-0.593
Mof_O 	O 	0.20146	0.5509	0.0611	-0.512
Mof_O 	O 	0.27373	0.6418	0.0382	-0.653
Mof_O 	O 	0.59904	0.3329	0.0018	-0.474
Mof_O 	O 	0.58532	0.1735	0.0413	-0.478
Mof_C 	C 	0.27477	0.3238	0.3347	0.52
Mof_C 	C 	0.29652	0.3742	0.255	-0.214
Mof_C 	C 	0.26524	0.4423	0.201	0.132
Mof_H 	H 	0.2295	0.4549	0.2114	-0.015
Mof_C 	C 	0.28644	0.4922	0.1315	-0.211
Mof_C 	C 	0.25179	0.5662	0.0743	0.456
Mof_C 	C 	0.33963	0.4713	0.1143	0.066
Mof_H 	H 	0.3544	0.5066	0.0689	-0.003
Mof_C 	C 	0.37055	0.3983	0.1644	-0.108
Mof_C 	C 	0.34844	0.3508	0.2364	0.077
Mof_H 	H 	0.3691	0.3031	0.2719	0.012
Mof_C 	C 	0.42481	0.3659	0.1402	0.115
Mof_C 	C 	0.4596	0.4356	0.107	-0.166
Mof_H 	H 	0.4504	0.5049	0.1042	0.083
Mof_C 	C 	0.5081	0.4038	0.078	0.07
Mof_H 	H 	0.5312	0.452	0.0567	0.012
Mof_C 	C 	0.5224	0.3015	0.0803	-0.14
Mof_C 	C 	0.57224	0.2671	0.0394	0.342
Mof_C 	C 	0.489	0.2322	0.1158	0.072
Mof_H 	H 	0.499	0.1633	0.12	0
Mof_C 	C 	0.4406	0.2635	0.1455	-0.167
Mof_H 	H 	0.4184	0.2154	0.1691	0.078
Mof_Pr	Pr	0.82881	0.70456	0.53267	2.252
Mof_O 	O 	0.80531	0.7616	0.3784	-0.552
Mof_O 	O 	0.72721	0.8469	0.3496	-0.594
Mof_O 	O 	0.70146	0.0509	0.0611	-0.513
Mof_O 	O 	0.77373	0.1418	0.0382	-0.653
Mof_O 	O 	0.09904	0.8329	0.0018	-0.474
Mof_O 	O 	0.08532	0.6735	0.0413	-0.477
Mof_C 	C 	0.77477	0.8238	0.3347	0.52
Mof_C 	C 	0.79652	0.8742	0.255	-0.215
Mof_C 	C 	0.76524	0.9423	0.201	0.133
Mof_H 	H 	0.7295	0.9549	0.2114	-0.015
Mof_C 	C 	0.78644	0.9922	0.1315	-0.212
Mof_C 	C 	0.75179	0.0662	0.0743	0.457
Mof_C 	C 	0.83963	0.9713	0.1143	0.065
Mof_H 	H 	0.8544	0.0066	0.0689	-0.002
Mof_C 	C 	0.87055	0.8983	0.1644	-0.108
Mof_C 	C 	0.84844	0.8508	0.2364	0.078
Mof_H 	H 	0.8691	0.8031	0.2719	0.011
Mof_C 	C 	0.92481	0.8659	0.1402	0.117
Mof_C 	C 	0.9596	0.9356	0.107	-0.172
Mof_H 	H 	0.9504	0.0049	0.1042	0.085
Mof_C 	C 	0.0081	0.9038	0.078	0.074
Mof_H 	H 	0.0312	0.952	0.0567	0.011
Mof_C 	C 	0.0224	0.8015	0.0803	-0.14
Mof_C 	C 	0.07224	0.7671	0.0394	0.342
Mof_C 	C 	0.989	0.7322	0.1158	0.07
Mof_H 	H 	0.999	0.6633	0.12	0
Mof_C 	C 	0.9406	0.7635	0.1455	-0.167
Mof_H 	H 	0.9184	0.7154	0.1691	0.078
_end
