# CIF file generated by openbabel 3.1.0, see https://openbabel.org
data_I
_chemical_name_common 'image0'
_cell_length_a 14.297
_cell_length_b 10.472
_cell_length_c 18.539
_cell_angle_alpha 90
_cell_angle_beta 114.068
_cell_angle_gamma 90
_space_group_name_H-M_alt 'P 1'
_space_group_name_Hall 'P 1'
loop_
    _symmetry_equiv_pos_as_xyz
    x,y,z
loop_
    _atom_site_label
    _atom_site_type_symbol
    _atom_site_fract_x
    _atom_site_fract_y
    _atom_site_fract_z
    _atom_site_occupancy
    Cu1      Cu       0.42007    0.37395    0.09131    1.000
    O1       O        0.37330    0.24720    0.00270    1.000
    O2       O        0.26930    0.35080    0.07960    1.000
    O3       O        0.56040    0.39600    0.07920    1.000
    O4       O        0.38370    0.52640    0.00690    1.000
    O5       O        0.46290    0.48940    0.18450    1.000
    O6       O        0.47320    0.23420    0.18390    1.000
    C1       C        0.28000    0.21900    0.97710    1.000
    C2       C        0.55090    0.46260    0.02020    1.000
    Cu2      Cu       0.92007    0.87395    0.09131    1.000
    O7       O        0.87330    0.74720    0.00270    1.000
    O8       O        0.76930    0.85080    0.07960    1.000
    O9       O        0.06040    0.89600    0.07920    1.000
    O10      O        0.88370    0.02640    0.00690    1.000
    O11      O        0.96290    0.98940    0.18450    1.000
    O12      O        0.97320    0.73420    0.18390    1.000
    C3       C        0.78000    0.71900    0.97710    1.000
    C4       C        0.05090    0.96260    0.02020    1.000
    Cu3      Cu       0.57993    0.37395    0.40869    1.000
    O13      O        0.62670    0.24720    0.49730    1.000
    O14      O        0.73070    0.35080    0.42040    1.000
    O15      O        0.43960    0.39600    0.42080    1.000
    O16      O        0.61630    0.52640    0.49310    1.000
    O17      O        0.53710    0.48940    0.31550    1.000
    O18      O        0.52680    0.23420    0.31610    1.000
    C5       C        0.72000    0.21900    0.52290    1.000
    C6       C        0.44910    0.46260    0.47980    1.000
    Cu4      Cu       0.07993    0.87395    0.40869    1.000
    O19      O        0.12670    0.74720    0.49730    1.000
    O20      O        0.23070    0.85080    0.42040    1.000
    O21      O        0.93960    0.89600    0.42080    1.000
    O22      O        0.11630    0.02640    0.49310    1.000
    O23      O        0.03710    0.98940    0.31550    1.000
    O24      O        0.02680    0.73420    0.31610    1.000
    C7       C        0.22000    0.71900    0.52290    1.000
    C8       C        0.94910    0.96260    0.47980    1.000
    Cu5      Cu       0.57993    0.62605    0.90869    1.000
    O25      O        0.62670    0.75280    0.99730    1.000
    O26      O        0.73070    0.64920    0.92040    1.000
    O27      O        0.43960    0.60400    0.92080    1.000
    O28      O        0.61630    0.47360    0.99310    1.000
    O29      O        0.53710    0.51060    0.81550    1.000
    O30      O        0.52680    0.76580    0.81610    1.000
    C9       C        0.72000    0.78100    0.02290    1.000
    C10      C        0.44910    0.53740    0.97980    1.000
    Cu6      Cu       0.07993    0.12605    0.90869    1.000
    O31      O        0.12670    0.25280    0.99730    1.000
    O32      O        0.23070    0.14920    0.92040    1.000
    O33      O        0.93960    0.10400    0.92080    1.000
    O34      O        0.11630    0.97360    0.99310    1.000
    O35      O        0.03710    0.01060    0.81550    1.000
    O36      O        0.02680    0.26580    0.81610    1.000
    C11      C        0.22000    0.28100    0.02290    1.000
    C12      C        0.94910    0.03740    0.97980    1.000
    Cu7      Cu       0.42007    0.62605    0.59131    1.000
    O37      O        0.37330    0.75280    0.50270    1.000
    O38      O        0.26930    0.64920    0.57960    1.000
    O39      O        0.56040    0.60400    0.57920    1.000
    O40      O        0.38370    0.47360    0.50690    1.000
    O41      O        0.46290    0.51060    0.68450    1.000
    O42      O        0.47320    0.76580    0.68390    1.000
    C13      C        0.28000    0.78100    0.47710    1.000
    C14      C        0.55090    0.53740    0.52020    1.000
    Cu8      Cu       0.92007    0.12605    0.59131    1.000
    O43      O        0.87330    0.25280    0.50270    1.000
    O44      O        0.76930    0.14920    0.57960    1.000
    O45      O        0.06040    0.10400    0.57920    1.000
    O46      O        0.88370    0.97360    0.50690    1.000
    O47      O        0.96290    0.01060    0.68450    1.000
    O48      O        0.97320    0.26580    0.68390    1.000
    C15      C        0.78000    0.28100    0.47710    1.000
    C16      C        0.05090    0.03740    0.52020    1.000
    C17      C        0.50000    0.43350    0.25000    1.000
    C18      C        0.50000    0.28720    0.25000    1.000
    C19      C        0.00000    0.93350    0.25000    1.000
    C20      C        0.00000    0.78720    0.25000    1.000
    C21      C        0.50000    0.56650    0.75000    1.000
    C22      C        0.50000    0.71280    0.75000    1.000
    C23      C        0.00000    0.06650    0.75000    1.000
    C24      C        0.00000    0.21280    0.75000    1.000
