data_functionalizedCrystal
_audit_creation_method	'EQeq! by Chris Wilmer'
_symmetry_space_group_name_H-M	'P1'
_symmetry_Int_Tables_number	1
_symmetry_cell_setting	triclinic
loop_
_symmetry_equiv_pos_as_xyz
  x,y,z
_cell_length_a	10.297
_cell_length_b	8.3034
_cell_length_c	10.5
_cell_angle_alpha	90
_cell_angle_beta	90
_cell_angle_gamma	90
loop_
_atom_site_label
_atom_site_type_symbol
_atom_site_fract_x
_atom_site_fract_y
_atom_site_fract_z
_atom_site_charge
Mof_P 	P 	0.6672	0.0673	0.3733	0.5
Mof_O 	O 	0.7704	0.074	0.2703	-0.497
Mof_O 	O 	0.5295	0.0693	0.3178	-0.481
Mof_O 	O 	0.6883	0.9294	0.4633	-0.517
Mof_H 	H 	0.0034	0.1735	0.9618	0.135
Mof_H 	H 	0.7982	0.1564	0.6075	0.164
Mof_P 	P 	0.8328	0.9327	0.8733	0.496
Mof_O 	O 	0.7296	0.926	0.7703	-0.495
Mof_O 	O 	0.9705	0.9307	0.8178	-0.469
Mof_O 	O 	0.8117	0.0706	0.9633	-0.504
Mof_H 	H 	0.4966	0.8265	0.4618	0.132
Mof_H 	H 	0.7018	0.8436	0.1075	0.171
Mof_P 	P 	0.3328	0.5673	0.6267	0.503
Mof_O 	O 	0.2296	0.574	0.7297	-0.492
Mof_O 	O 	0.4705	0.5693	0.6822	-0.479
Mof_O 	O 	0.3117	0.4294	0.5367	-0.519
Mof_H 	H 	0.9966	0.6735	0.0382	0.132
Mof_H 	H 	0.2018	0.6564	0.3925	0.164
Mof_P 	P 	0.1672	0.4327	0.1267	0.501
Mof_O 	O 	0.2704	0.426	0.2297	-0.494
Mof_O 	O 	0.0295	0.4307	0.1822	-0.469
Mof_O 	O 	0.1883	0.5706	0.0367	-0.508
Mof_H 	H 	0.5034	0.3265	0.5382	0.132
Mof_H 	H 	0.2982	0.3436	0.8925	0.169
Mof_P 	P 	0.3328	0.9327	0.6267	0.501
Mof_O 	O 	0.2296	0.926	0.7297	-0.496
Mof_O 	O 	0.4705	0.9307	0.6822	-0.481
Mof_O 	O 	0.3117	0.0706	0.5367	-0.517
Mof_H 	H 	0.9966	0.8265	0.0382	0.135
Mof_H 	H 	0.2018	0.8436	0.3925	0.164
Mof_P 	P 	0.1672	0.0673	0.1267	0.496
Mof_O 	O 	0.2704	0.074	0.2297	-0.495
Mof_O 	O 	0.0295	0.0693	0.1822	-0.469
Mof_O 	O 	0.1883	0.9294	0.0367	-0.504
Mof_H 	H 	0.5034	0.1735	0.5382	0.132
Mof_H 	H 	0.2982	0.1564	0.8925	0.171
Mof_P 	P 	0.6672	0.4327	0.3733	0.503
Mof_O 	O 	0.7704	0.426	0.2703	-0.492
Mof_O 	O 	0.5295	0.4307	0.3178	-0.479
Mof_O 	O 	0.6883	0.5706	0.4633	-0.519
Mof_H 	H 	0.0034	0.3265	0.9618	0.132
Mof_H 	H 	0.7982	0.3436	0.6075	0.164
Mof_P 	P 	0.8328	0.5673	0.8733	0.501
Mof_O 	O 	0.7296	0.574	0.7703	-0.494
Mof_O 	O 	0.9705	0.5693	0.8178	-0.469
Mof_O 	O 	0.8117	0.4294	0.9633	-0.508
Mof_H 	H 	0.4966	0.6735	0.4618	0.132
Mof_H 	H 	0.7018	0.6564	0.1075	0.169
Mof_Tb	Tb	0.86	0.25	0.12043	2.109
Mof_O 	O 	0.5578	0.25	0.5449	-0.496
Mof_C 	C 	0.6773	0.25	0.468	0.014
Mof_C 	C 	0.7997	0.25	0.554	-0.415
Mof_H 	H 	0.8757	0.25	0.5014	0.13
Mof_Tb	Tb	0.64	0.75	0.62043	2.156
Mof_O 	O 	0.9422	0.75	0.0449	-0.502
Mof_C 	C 	0.8227	0.75	0.968	0.025
Mof_C 	C 	0.7003	0.75	0.054	-0.435
Mof_H 	H 	0.6243	0.75	0.0014	0.138
Mof_Tb	Tb	0.14	0.75	0.87957	2.109
Mof_O 	O 	0.4422	0.75	0.4551	-0.496
Mof_C 	C 	0.3227	0.75	0.532	0.014
Mof_C 	C 	0.2003	0.75	0.446	-0.415
Mof_H 	H 	0.1243	0.75	0.4986	0.13
Mof_Tb	Tb	0.36	0.25	0.37957	2.156
Mof_O 	O 	0.0578	0.25	0.9551	-0.502
Mof_C 	C 	0.1773	0.25	0.032	0.025
Mof_C 	C 	0.2997	0.25	0.946	-0.435
Mof_H 	H 	0.3757	0.25	0.9986	0.138
_end
