data_functionalizedCrystal
_audit_creation_method	'EQeq! by Chris Wilmer'
_symmetry_space_group_name_H-M	'P1'
_symmetry_Int_Tables_number	1
_symmetry_cell_setting	triclinic
loop_
_symmetry_equiv_pos_as_xyz
  x,y,z
_cell_length_a	7.5074
_cell_length_b	9.2012
_cell_length_c	11.6139
_cell_angle_alpha	100.368
_cell_angle_beta	104.665
_cell_angle_gamma	94.691
loop_
_atom_site_label
_atom_site_type_symbol
_atom_site_fract_x
_atom_site_fract_y
_atom_site_fract_z
_atom_site_charge
Mof_Cu	Cu	0.8395	0.8788	0.48816	0.911
Mof_Cu	Cu	0.3587	0.92474	0.27853	0.907
Mof_Cu	Cu	0.1605	0.1212	0.51184	0.911
Mof_Cu	Cu	0.6413	0.07526	0.72147	0.907
Mof_P 	P 	0.6468	0.1639	0.4759	0.412
Mof_P 	P 	0.9655	0.9197	0.2609	0.386
Mof_P 	P 	0.3532	0.8361	0.5241	0.412
Mof_P 	P 	0.0345	0.0803	0.7391	0.386
Mof_H 	H 	0.685	0.4419	0.652	0.061
Mof_H 	H 	0.7612	0.6912	0.6506	0.015
Mof_H 	H 	0.8349	0.5871	0.3255	0.023
Mof_H 	H 	0.7653	0.3381	0.3194	0.064
Mof_H 	H 	0.9177	0.1838	0.1625	0.068
Mof_H 	H 	0.7901	0.2326	0.9736	0.003
Mof_H 	H 	0.6005	0.8129	0.8403	0.015
Mof_H 	H 	0.7207	0.7538	0.0255	0.065
Mof_H 	H 	0.315	0.5581	0.348	0.061
Mof_H 	H 	0.2388	0.3088	0.3494	0.015
Mof_H 	H 	0.1651	0.4129	0.6745	0.023
Mof_H 	H 	0.2347	0.6619	0.6806	0.064
Mof_H 	H 	0.0823	0.8162	0.8375	0.068
Mof_H 	H 	0.2099	0.7674	0.0264	0.003
Mof_H 	H 	0.3995	0.1871	0.1597	0.015
Mof_H 	H 	0.2793	0.2462	0.9745	0.065
Mof_C 	C 	0.7162	0.359	0.4838	-0.013
Mof_C 	C 	0.7149	0.4686	0.5849	-0.074
Mof_C 	C 	0.7595	0.6191	0.5829	0.05
Mof_C 	C 	0.804	0.5575	0.3911	0.04
Mof_C 	C 	0.762	0.4076	0.3875	-0.072
Mof_C 	C 	0.8404	0.9618	0.1171	-0.01
Mof_C 	C 	0.856	0.1057	0.0983	-0.078
Mof_C 	C 	0.779	0.1346	0.9839	0.05
Mof_C 	C 	0.667	0.8881	0.9054	0.06
Mof_C 	C 	0.74	0.852	0.017	-0.092
Mof_C 	C 	0.2838	0.641	0.5162	-0.013
Mof_C 	C 	0.2851	0.5314	0.4151	-0.074
Mof_C 	C 	0.2405	0.3809	0.4171	0.05
Mof_C 	C 	0.196	0.4425	0.6089	0.04
Mof_C 	C 	0.238	0.5924	0.6125	-0.072
Mof_C 	C 	0.1596	0.0382	0.8829	-0.01
Mof_C 	C 	0.144	0.8943	0.9017	-0.078
Mof_C 	C 	0.221	0.8654	0.0161	0.05
Mof_C 	C 	0.333	0.1119	0.0946	0.06
Mof_C 	C 	0.26	0.148	0.983	-0.092
Mof_N 	N 	0.7994	0.6625	0.4884	-0.206
Mof_N 	N 	0.6901	0.0267	0.8878	-0.213
Mof_N 	N 	0.2006	0.3375	0.5116	-0.206
Mof_N 	N 	0.3099	0.9733	0.1122	-0.213
Mof_O 	O 	0.8255	0.0909	0.4937	-0.429
Mof_O 	O 	0.5137	0.1121	0.3493	-0.39
Mof_O 	O 	0.5478	0.1561	0.576	-0.42
Mof_O 	O 	0.8192	0.8471	0.3109	-0.373
Mof_O 	O 	0.0735	0.0689	0.3339	-0.408
Mof_O 	O 	0.1007	0.8117	0.2312	-0.352
Mof_O 	O 	0.1745	0.9091	0.5063	-0.429
Mof_O 	O 	0.4863	0.8879	0.6507	-0.39
Mof_O 	O 	0.4522	0.8439	0.424	-0.42
Mof_O 	O 	0.1808	0.1529	0.6891	-0.373
Mof_O 	O 	0.9265	0.9311	0.6661	-0.408
Mof_O 	O 	0.8993	0.1883	0.7688	-0.352
_end
