data_functionalizedCrystal
_audit_creation_method	'EQeq! by Chris Wilmer'
_symmetry_space_group_name_H-M	'P1'
_symmetry_Int_Tables_number	1
_symmetry_cell_setting	triclinic
loop_
_symmetry_equiv_pos_as_xyz
  x,y,z
_cell_length_a	9.1428
_cell_length_b	16.0129
_cell_length_c	15.1324
_cell_angle_alpha	90
_cell_angle_beta	93.151
_cell_angle_gamma	90
loop_
_atom_site_label
_atom_site_type_symbol
_atom_site_fract_x
_atom_site_fract_y
_atom_site_fract_z
_atom_site_charge
Mof_Co	Co	0.39054	0.36526	0.66464	1.152
Mof_Co	Co	0.46907	0.14219	0.70795	1.16
Mof_O 	O 	0.56425	0.19854	0.60208	-0.428
Mof_O 	O 	0.58925	0.33727	0.62083	-0.434
Mof_O 	O 	0.1535	0.36657	0.65418	-0.391
Mof_O 	O 	0.2791	0.32131	0.5471	-0.392
Mof_O 	O 	0.9274	0.12364	0.30286	-0.409
Mof_O 	O 	0.87369	0.24821	0.25251	-0.521
Mof_O 	O 	0.4566	0.9757	0.33358	-0.453
Mof_O 	O 	0.2996	0.03756	0.23626	-0.526
Mof_H 	H 	0.2672	0.9901	0.2297	0.32
Mof_O 	O 	0.16097	0.32466	0.28306	-0.422
Mof_O 	O 	0.3411	0.41472	0.31521	-0.314
Mof_N 	N 	0.2795	0.11145	0.6248	-0.23
Mof_C 	C 	0.6257	0.26678	0.59051	0.392
Mof_C 	C 	0.7621	0.26685	0.53825	-0.139
Mof_C 	C 	0.8912	0.29787	0.57963	0.058
Mof_H 	H 	0.8892	0.3222	0.6354	0.047
Mof_C 	C 	0.0227	0.29267	0.53815	-0.116
Mof_C 	C 	0.159	0.32936	0.5822	0.322
Mof_C 	C 	0.0259	0.25574	0.45502	0.066
Mof_H 	H 	0.1149	0.2483	0.429	0.033
Mof_C 	C 	0.8961	0.22996	0.41067	-0.159
Mof_C 	C 	0.9007	0.19898	0.31698	0.366
Mof_C 	C 	0.7617	0.2355	0.45136	0.106
Mof_C 	C 	0.619	0.21705	0.40192	-0.042
Mof_C 	C 	0.5787	0.13657	0.37476	0.026
Mof_H 	H 	0.6415	0.0918	0.3869	0.039
Mof_C 	C 	0.4438	0.12359	0.32935	-0.124
Mof_C 	C 	0.4005	0.03796	0.29895	0.437
Mof_C 	C 	0.3485	0.18988	0.3102	0.06
Mof_H 	H 	0.2582	0.1803	0.2806	0.043
Mof_C 	C 	0.3893	0.27032	0.33563	-0.108
Mof_C 	C 	0.524	0.2832	0.38188	0.019
Mof_H 	H 	0.5507	0.337	0.3996	0.032
Mof_C 	C 	0.2886	0.34151	0.3094	0.368
Mof_C 	C 	0.3008	0.0806	0.54455	0.083
Mof_H 	H 	0.3919	0.0883	0.5213	0.018
Mof_C 	C 	0.1946	0.0378	0.49407	-0.128
Mof_H 	H 	0.2159	0.0174	0.4387	0.09
Mof_C 	C 	0.0572	0.02512	0.52526	0.069
Mof_C 	C 	0.0323	0.0606	0.6069	-0.121
Mof_H 	H 	0.9405	0.0563	0.6301	0.083
Mof_C 	C 	0.1446	0.1024	0.6536	0.073
Mof_H 	H 	0.125	0.1255	0.7081	-0.006
Mof_Co	Co	0.10946	0.86526	0.83536	1.15
Mof_Co	Co	0.03093	0.64219	0.79205	1.158
Mof_O 	O 	0.93575	0.69854	0.89792	-0.423
Mof_O 	O 	0.91075	0.83727	0.87917	-0.429
Mof_O 	O 	0.3465	0.86657	0.84582	-0.391
Mof_O 	O 	0.2209	0.82131	0.9529	-0.395
Mof_O 	O 	0.5726	0.62364	0.19714	-0.406
Mof_O 	O 	0.62631	0.74821	0.24749	-0.519
Mof_O 	O 	0.0434	0.4757	0.16642	-0.448
Mof_O 	O 	0.2004	0.53756	0.26374	-0.529
Mof_H 	H 	0.2328	0.4901	0.2703	0.323
Mof_O 	O 	0.33903	0.82466	0.21694	-0.423
Mof_O 	O 	0.1589	0.91472	0.18479	-0.313
Mof_N 	N 	0.2205	0.61145	0.8752	-0.23
Mof_C 	C 	0.8743	0.76678	0.90949	0.39
Mof_C 	C 	0.7379	0.76685	0.96175	-0.131
Mof_C 	C 	0.6088	0.79787	0.92037	0.054
Mof_H 	H 	0.6108	0.8222	0.8646	0.048
Mof_C 	C 	0.4773	0.79267	0.96185	-0.112
Mof_C 	C 	0.341	0.82936	0.9178	0.32
Mof_C 	C 	0.4741	0.75574	0.04498	0.057
Mof_H 	H 	0.3851	0.7483	0.071	0.036
Mof_C 	C 	0.6039	0.72996	0.08933	-0.151
Mof_C 	C 	0.5993	0.69898	0.18302	0.363
Mof_C 	C 	0.7383	0.7355	0.04864	0.096
Mof_C 	C 	0.881	0.71705	0.09808	-0.034
Mof_C 	C 	0.9213	0.63657	0.12524	0.014
Mof_H 	H 	0.8585	0.5918	0.1131	0.042
Mof_C 	C 	0.0562	0.62359	0.17065	-0.114
Mof_C 	C 	0.0995	0.53796	0.20105	0.434
Mof_C 	C 	0.1515	0.68988	0.1898	0.053
Mof_H 	H 	0.2418	0.6803	0.2194	0.045
Mof_C 	C 	0.1107	0.77032	0.16437	-0.1
Mof_C 	C 	0.976	0.7832	0.11812	0.01
Mof_H 	H 	0.9493	0.837	0.1004	0.034
Mof_C 	C 	0.2114	0.84151	0.1906	0.366
Mof_C 	C 	0.1992	0.5806	0.95545	0.077
Mof_H 	H 	0.1081	0.5883	0.9787	0.017
Mof_C 	C 	0.3054	0.5378	0.00593	-0.12
Mof_H 	H 	0.2841	0.5174	0.0613	0.087
Mof_C 	C 	0.4428	0.52512	0.97474	0.066
Mof_C 	C 	0.4677	0.5606	0.8931	-0.124
Mof_H 	H 	0.5595	0.5563	0.8699	0.086
Mof_C 	C 	0.3554	0.6024	0.8464	0.073
Mof_H 	H 	0.375	0.6255	0.7919	-0.006
Mof_Co	Co	0.60946	0.63474	0.33536	1.152
Mof_Co	Co	0.53093	0.85781	0.29205	1.16
Mof_O 	O 	0.43575	0.80146	0.39792	-0.428
Mof_O 	O 	0.41075	0.66273	0.37917	-0.434
Mof_O 	O 	0.8465	0.63343	0.34582	-0.391
Mof_O 	O 	0.7209	0.67869	0.4529	-0.392
Mof_O 	O 	0.0726	0.87636	0.69714	-0.409
Mof_O 	O 	0.12631	0.75179	0.74749	-0.521
Mof_O 	O 	0.5434	0.0243	0.66642	-0.453
Mof_O 	O 	0.7004	0.96244	0.76374	-0.526
Mof_H 	H 	0.7328	0.0099	0.7703	0.32
Mof_O 	O 	0.83903	0.67534	0.71694	-0.422
Mof_O 	O 	0.6589	0.58528	0.68479	-0.314
Mof_N 	N 	0.7205	0.88855	0.3752	-0.23
Mof_C 	C 	0.3743	0.73322	0.40949	0.392
Mof_C 	C 	0.2379	0.73315	0.46175	-0.139
Mof_C 	C 	0.1088	0.70213	0.42037	0.058
Mof_H 	H 	0.1108	0.6778	0.3646	0.047
Mof_C 	C 	0.9773	0.70733	0.46185	-0.116
Mof_C 	C 	0.841	0.67064	0.4178	0.322
Mof_C 	C 	0.9741	0.74426	0.54498	0.066
Mof_H 	H 	0.8851	0.7517	0.571	0.033
Mof_C 	C 	0.1039	0.77004	0.58933	-0.159
Mof_C 	C 	0.0993	0.80102	0.68302	0.366
Mof_C 	C 	0.2383	0.7645	0.54864	0.106
Mof_C 	C 	0.381	0.78295	0.59808	-0.042
Mof_C 	C 	0.4213	0.86343	0.62524	0.026
Mof_H 	H 	0.3585	0.9082	0.6131	0.039
Mof_C 	C 	0.5562	0.87641	0.67065	-0.124
Mof_C 	C 	0.5995	0.96204	0.70105	0.437
Mof_C 	C 	0.6515	0.81012	0.6898	0.06
Mof_H 	H 	0.7418	0.8197	0.7194	0.043
Mof_C 	C 	0.6107	0.72968	0.66437	-0.108
Mof_C 	C 	0.476	0.7168	0.61812	0.019
Mof_H 	H 	0.4493	0.663	0.6004	0.032
Mof_C 	C 	0.7114	0.65849	0.6906	0.368
Mof_C 	C 	0.6992	0.9194	0.45545	0.083
Mof_H 	H 	0.6081	0.9117	0.4787	0.018
Mof_C 	C 	0.8054	0.9622	0.50593	-0.128
Mof_H 	H 	0.7841	0.9826	0.5613	0.09
Mof_C 	C 	0.9428	0.97488	0.47474	0.069
Mof_C 	C 	0.9677	0.9394	0.3931	-0.121
Mof_H 	H 	0.0595	0.9437	0.3699	0.083
Mof_C 	C 	0.8554	0.8976	0.3464	0.073
Mof_H 	H 	0.875	0.8745	0.2919	-0.006
Mof_Co	Co	0.89054	0.13474	0.16464	1.15
Mof_Co	Co	0.96907	0.35781	0.20795	1.158
Mof_O 	O 	0.06425	0.30146	0.10208	-0.423
Mof_O 	O 	0.08925	0.16273	0.12083	-0.429
Mof_O 	O 	0.6535	0.13343	0.15418	-0.391
Mof_O 	O 	0.7791	0.17869	0.0471	-0.395
Mof_O 	O 	0.4274	0.37636	0.80286	-0.406
Mof_O 	O 	0.37369	0.25179	0.75251	-0.519
Mof_O 	O 	0.9566	0.5243	0.83358	-0.448
Mof_O 	O 	0.7996	0.46244	0.73626	-0.529
Mof_H 	H 	0.7672	0.5099	0.7297	0.323
Mof_O 	O 	0.66097	0.17534	0.78306	-0.423
Mof_O 	O 	0.8411	0.08528	0.81521	-0.313
Mof_N 	N 	0.7795	0.38855	0.1248	-0.23
Mof_C 	C 	0.1257	0.23322	0.09051	0.39
Mof_C 	C 	0.2621	0.23315	0.03825	-0.131
Mof_C 	C 	0.3912	0.20213	0.07963	0.054
Mof_H 	H 	0.3892	0.1778	0.1354	0.048
Mof_C 	C 	0.5227	0.20733	0.03815	-0.112
Mof_C 	C 	0.659	0.17064	0.0822	0.32
Mof_C 	C 	0.5259	0.24426	0.95502	0.057
Mof_H 	H 	0.6149	0.2517	0.929	0.036
Mof_C 	C 	0.3961	0.27004	0.91067	-0.151
Mof_C 	C 	0.4007	0.30102	0.81698	0.363
Mof_C 	C 	0.2617	0.2645	0.95136	0.096
Mof_C 	C 	0.119	0.28295	0.90192	-0.034
Mof_C 	C 	0.0787	0.36343	0.87476	0.014
Mof_H 	H 	0.1415	0.4082	0.8869	0.042
Mof_C 	C 	0.9438	0.37641	0.82935	-0.114
Mof_C 	C 	0.9005	0.46204	0.79895	0.434
Mof_C 	C 	0.8485	0.31012	0.8102	0.053
Mof_H 	H 	0.7582	0.3197	0.7806	0.045
Mof_C 	C 	0.8893	0.22968	0.83563	-0.1
Mof_C 	C 	0.024	0.2168	0.88188	0.01
Mof_H 	H 	0.0507	0.163	0.8996	0.034
Mof_C 	C 	0.7886	0.15849	0.8094	0.366
Mof_C 	C 	0.8008	0.4194	0.04455	0.077
Mof_H 	H 	0.8919	0.4117	0.0213	0.017
Mof_C 	C 	0.6946	0.4622	0.99407	-0.12
Mof_H 	H 	0.7159	0.4826	0.9387	0.087
Mof_C 	C 	0.5572	0.47488	0.02526	0.066
Mof_C 	C 	0.5323	0.4394	0.1069	-0.124
Mof_H 	H 	0.4405	0.4437	0.1301	0.086
Mof_C 	C 	0.6446	0.3976	0.1536	0.073
Mof_H 	H 	0.625	0.3745	0.2081	-0.006
_end
