data_functionalizedCrystal
_audit_creation_method	'EQeq! by Chris Wilmer'
_symmetry_space_group_name_H-M	'P1'
_symmetry_Int_Tables_number	1
_symmetry_cell_setting	triclinic
loop_
_symmetry_equiv_pos_as_xyz
  x,y,z
_cell_length_a	17.6972
_cell_length_b	17.6972
_cell_length_c	76.397
_cell_angle_alpha	90
_cell_angle_beta	90
_cell_angle_gamma	120
loop_
_atom_site_label
_atom_site_type_symbol
_atom_site_fract_x
_atom_site_fract_y
_atom_site_fract_z
_atom_site_charge
Mof_C 	C 	0.8611	0.8353	0.42061	0.787
Mof_C 	C 	0.8299	0.8589	0.43692	-0.246
Mof_C 	C 	0.7563	0.8219	0.44737	-0.254
Mof_C 	C 	0.6686	0.7404	0.44818	0.74
Mof_C 	C 	0.5694	0.7395	0.50545	0.302
Mof_C 	C 	0.6511	0.7329	0.50676	-0.019
Mof_C 	C 	0.6884	0.6963	0.51686	-0.019
Mof_C 	C 	0.6638	0.6377	0.53263	0.298
Mof_Co	Co	0.67204	0.83991	0.47717	1.186
Mof_N 	N 	0.8841	0.9364	0.44389	-0.131
Mof_N 	N 	0.8494	0.9515	0.45789	-0.047
Mof_N 	N 	0.7717	0.8823	0.45981	-0.153
Mof_N 	N 	0.7113	0.7766	0.49366	-0.184
Mof_N 	N 	0.7791	0.7663	0.49552	-0.052
Mof_N 	N 	0.7664	0.7191	0.50938	-0.182
Mof_O 	O 	0.9375	0.893	0.41612	-0.454
Mof_O 	O 	0.8144	0.7661	0.41309	-1.751
Mof_O 	O 	0.647	0.6822	0.43692	-1.738
Mof_O 	O 	0.6207	0.7366	0.46083	-0.487
Mof_O 	O 	0.5662	0.7817	0.4925	-0.355
Mof_O 	O 	0.5126	0.7038	0.51642	-0.211
Mof_O 	O 	0.5938	0.6133	0.53997	-0.244
Mof_O 	O 	0.7215	0.6186	0.5371	-0.38
Mof_C 	C 	0.52777	0.16863	0.75394	0.749
Mof_C 	C 	0.49657	0.19223	0.77025	-0.243
Mof_C 	C 	0.42297	0.15523	0.7807	-0.242
Mof_C 	C 	0.33527	0.07373	0.78151	0.7
Mof_C 	C 	0.23607	0.07283	0.83878	0.295
Mof_C 	C 	0.31777	0.06623	0.84009	-0.013
Mof_C 	C 	0.35507	0.02963	0.85019	-0.098
Mof_C 	C 	0.33047	0.97103	0.86596	0.375
Mof_Co	Co	0.33871	0.17324	0.81051	1.18
Mof_N 	N 	0.55077	0.26973	0.77722	-0.163
Mof_N 	N 	0.51607	0.28483	0.79122	-0.071
Mof_N 	N 	0.43837	0.21563	0.79314	-0.161
Mof_N 	N 	0.37797	0.10993	0.82699	-0.19
Mof_N 	N 	0.44577	0.09963	0.82885	-0.065
Mof_N 	N 	0.43307	0.05243	0.84271	-0.187
Mof_O 	O 	0.60417	0.22633	0.74945	-0.504
Mof_O 	O 	0.48107	0.09943	0.74642	-1.65
Mof_O 	O 	0.31367	0.01553	0.77025	-1.639
Mof_O 	O 	0.28737	0.06993	0.79416	-0.499
Mof_O 	O 	0.23287	0.11503	0.82583	-0.378
Mof_O 	O 	0.17927	0.03713	0.84975	-0.254
Mof_O 	O 	0.26047	0.94663	0.8733	-0.241
Mof_O 	O 	0.38817	0.95193	0.87043	-0.368
Mof_C 	C 	0.19443	0.50197	0.08728	0.75
Mof_C 	C 	0.16323	0.52557	0.10359	-0.263
Mof_C 	C 	0.08963	0.48857	0.11404	-0.19
Mof_C 	C 	0.00193	0.40707	0.11485	0.503
Mof_C 	C 	0.90273	0.40617	0.17212	0.249
Mof_C 	C 	0.98443	0.39957	0.17343	0.161
Mof_C 	C 	0.02173	0.36297	0.18353	-0.223
Mof_C 	C 	0.99713	0.30437	0.1993	0.498
Mof_Co	Co	0.00537	0.50658	0.14384	1.146
Mof_N 	N 	0.21743	0.60307	0.11056	-0.161
Mof_N 	N 	0.18273	0.61817	0.12456	-0.074
Mof_N 	N 	0.10503	0.54897	0.12648	-0.178
Mof_N 	N 	0.04463	0.44327	0.16033	-0.244
Mof_N 	N 	0.11243	0.43297	0.16219	-0.063
Mof_N 	N 	0.09973	0.38577	0.17605	-0.161
Mof_O 	O 	0.27083	0.55967	0.08279	-0.504
Mof_O 	O 	0.14773	0.43277	0.07976	-1.626
Mof_O 	O 	0.98033	0.34887	0.10359	-1.47
Mof_O 	O 	0.95403	0.40327	0.1275	-0.371
Mof_O 	O 	0.89953	0.44837	0.15917	-0.323
Mof_O 	O 	0.84593	0.37047	0.18309	-0.186
Mof_O 	O 	0.92713	0.27997	0.20664	-0.281
Mof_O 	O 	0.05483	0.28527	0.20377	-0.481
Mof_C 	C 	0.1647	0.0258	0.42061	0.669
Mof_C 	C 	0.1411	0.971	0.43692	-0.162
Mof_C 	C 	0.1781	0.9344	0.44737	-0.242
Mof_C 	C 	0.2596	0.9282	0.44818	0.7
Mof_C 	C 	0.2605	0.8299	0.50545	0.324
Mof_C 	C 	0.2671	0.9182	0.50676	-0.06
Mof_C 	C 	0.3037	0.9921	0.51686	0.117
Mof_C 	C 	0.3623	0.0261	0.53263	0.139
Mof_Co	Co	0.16009	0.83213	0.47717	1.181
Mof_N 	N 	0.0636	0.9477	0.44389	-0.164
Mof_N 	N 	0.0485	0.8979	0.45789	-0.077
Mof_N 	N 	0.1177	0.8894	0.45981	-0.16
Mof_N 	N 	0.2234	0.9347	0.49366	-0.154
Mof_N 	N 	0.2337	0.0128	0.49552	-0.096
Mof_N 	N 	0.2809	0.0473	0.50938	-0.231
Mof_O 	O 	0.107	0.0445	0.41612	-0.52
Mof_O 	O 	0.2339	0.0483	0.41309	-1.62
Mof_O 	O 	0.3178	0.9648	0.43692	-1.554
Mof_O 	O 	0.2634	0.8841	0.46083	-0.469
Mof_O 	O 	0.2183	0.7845	0.4925	-0.369
Mof_O 	O 	0.2962	0.8088	0.51642	-0.217
Mof_O 	O 	0.3867	0.9805	0.53997	-0.157
Mof_O 	O 	0.3814	0.1029	0.5371	-0.357
Mof_C 	C 	0.83137	0.35913	0.75394	0.745
Mof_C 	C 	0.80777	0.30433	0.77025	-0.233
Mof_C 	C 	0.84477	0.26773	0.7807	-0.227
Mof_C 	C 	0.92627	0.26153	0.78151	0.694
Mof_C 	C 	0.92717	0.16323	0.83878	0.313
Mof_C 	C 	0.93377	0.25153	0.84009	-0.031
Mof_C 	C 	0.97037	0.32543	0.85019	0.041
Mof_C 	C 	0.02897	0.35943	0.86596	0.238
Mof_Co	Co	0.82676	0.16546	0.81051	1.183
Mof_N 	N 	0.73027	0.28103	0.77722	-0.164
Mof_N 	N 	0.71517	0.23123	0.79122	-0.072
Mof_N 	N 	0.78437	0.22273	0.79314	-0.162
Mof_N 	N 	0.89007	0.26803	0.82699	-0.183
Mof_N 	N 	0.90037	0.34613	0.82885	-0.053
Mof_N 	N 	0.94757	0.38063	0.84271	-0.183
Mof_O 	O 	0.77367	0.37783	0.74945	-0.494
Mof_O 	O 	0.90057	0.38163	0.74642	-1.598
Mof_O 	O 	0.98447	0.29813	0.77025	-1.568
Mof_O 	O 	0.93007	0.21743	0.79416	-0.464
Mof_O 	O 	0.88497	0.11783	0.82583	-0.367
Mof_O 	O 	0.96287	0.14213	0.84975	-0.204
Mof_O 	O 	0.05337	0.31383	0.8733	-0.256
Mof_O 	O 	0.04807	0.43623	0.87043	-0.395
Mof_C 	C 	0.49803	0.69247	0.08728	0.793
Mof_C 	C 	0.47443	0.63767	0.10359	-0.259
Mof_C 	C 	0.51143	0.60107	0.11404	-0.254
Mof_C 	C 	0.59293	0.59487	0.11485	0.737
Mof_C 	C 	0.59383	0.49657	0.17212	0.303
Mof_C 	C 	0.60043	0.58487	0.17343	-0.019
Mof_C 	C 	0.63703	0.65877	0.18353	-0.016
Mof_C 	C 	0.69563	0.69277	0.1993	0.297
Mof_Co	Co	0.49342	0.4988	0.14384	1.181
Mof_N 	N 	0.39693	0.61437	0.11056	-0.16
Mof_N 	N 	0.38183	0.56457	0.12456	-0.07
Mof_N 	N 	0.45103	0.55607	0.12648	-0.159
Mof_N 	N 	0.55673	0.60137	0.16033	-0.186
Mof_N 	N 	0.56703	0.67947	0.16219	-0.058
Mof_N 	N 	0.61423	0.71397	0.17605	-0.185
Mof_O 	O 	0.44033	0.71117	0.08279	-0.513
Mof_O 	O 	0.56723	0.71497	0.07976	-1.762
Mof_O 	O 	0.65113	0.63147	0.10359	-1.733
Mof_O 	O 	0.59673	0.55077	0.1275	-0.486
Mof_O 	O 	0.55163	0.45117	0.15917	-0.361
Mof_O 	O 	0.62953	0.47547	0.18309	-0.208
Mof_O 	O 	0.72003	0.64717	0.20664	-0.227
Mof_O 	O 	0.71473	0.76957	0.20377	-0.367
Mof_C 	C 	0.9742	0.1389	0.42061	0.889
Mof_C 	C 	0.029	0.1701	0.43692	-0.346
Mof_C 	C 	0.0656	0.2437	0.44737	-0.267
Mof_C 	C 	0.0718	0.3314	0.44818	0.76
Mof_C 	C 	0.1701	0.4306	0.50545	0.28
Mof_C 	C 	0.0818	0.3489	0.50676	0.02
Mof_C 	C 	0.0079	0.3116	0.51686	-0.168
Mof_C 	C 	0.9739	0.3362	0.53263	0.472
Mof_Co	Co	0.16787	0.32796	0.47717	1.178
Mof_N 	N 	0.0523	0.1159	0.44389	-0.166
Mof_N 	N 	0.1021	0.1506	0.45789	-0.086
Mof_N 	N 	0.1106	0.2283	0.45981	-0.164
Mof_N 	N 	0.0653	0.2887	0.49366	-0.22
Mof_N 	N 	0.9872	0.2209	0.49552	-0.031
Mof_N 	N 	0.9527	0.2336	0.50938	-0.14
Mof_O 	O 	0.9555	0.0625	0.41612	-0.539
Mof_O 	O 	0.9517	0.1856	0.41309	-1.879
Mof_O 	O 	0.0352	0.353	0.43692	-1.874
Mof_O 	O 	0.1159	0.3793	0.46083	-0.507
Mof_O 	O 	0.2155	0.4338	0.4925	-0.357
Mof_O 	O 	0.1912	0.4874	0.51642	-0.211
Mof_O 	O 	0.0195	0.4062	0.53997	-0.341
Mof_O 	O 	0.8971	0.2785	0.5371	-0.412
Mof_C 	C 	0.64087	0.47223	0.75394	0.794
Mof_C 	C 	0.69567	0.50343	0.77025	-0.258
Mof_C 	C 	0.73227	0.57703	0.7807	-0.252
Mof_C 	C 	0.73847	0.66473	0.78151	0.738
Mof_C 	C 	0.83677	0.76393	0.83878	0.299
Mof_C 	C 	0.74847	0.68223	0.84009	-0.015
Mof_C 	C 	0.67457	0.64493	0.85019	-0.019
Mof_C 	C 	0.64057	0.66953	0.86596	0.296
Mof_Co	Co	0.83454	0.66129	0.81051	1.181
Mof_N 	N 	0.71897	0.44923	0.77722	-0.158
Mof_N 	N 	0.76877	0.48393	0.79122	-0.066
Mof_N 	N 	0.77727	0.56163	0.79314	-0.158
Mof_N 	N 	0.73197	0.62203	0.82699	-0.186
Mof_N 	N 	0.65387	0.55423	0.82885	-0.059
Mof_N 	N 	0.61937	0.56693	0.84271	-0.185
Mof_O 	O 	0.62217	0.39583	0.74945	-0.514
Mof_O 	O 	0.61837	0.51893	0.74642	-1.765
Mof_O 	O 	0.70187	0.68633	0.77025	-1.73
Mof_O 	O 	0.78257	0.71263	0.79416	-0.478
Mof_O 	O 	0.88217	0.76713	0.82583	-0.338
Mof_O 	O 	0.85787	0.82073	0.84975	-0.182
Mof_O 	O 	0.68617	0.73953	0.8733	-0.232
Mof_O 	O 	0.56377	0.61183	0.87043	-0.38
Mof_C 	C 	0.30753	0.80557	0.08728	0.82
Mof_C 	C 	0.36233	0.83677	0.10359	-0.257
Mof_C 	C 	0.39893	0.91037	0.11404	-0.305
Mof_C 	C 	0.40513	0.99807	0.11485	0.919
Mof_C 	C 	0.50343	0.09727	0.17212	0.348
Mof_C 	C 	0.41513	0.01557	0.17343	-0.171
Mof_C 	C 	0.34123	0.97827	0.18353	0.151
Mof_C 	C 	0.30723	0.00287	0.1993	0.128
Mof_Co	Co	0.5012	0.99463	0.14384	1.209
Mof_N 	N 	0.38563	0.78257	0.11056	-0.161
Mof_N 	N 	0.43543	0.81727	0.12456	-0.069
Mof_N 	N 	0.44393	0.89497	0.12648	-0.145
Mof_N 	N 	0.39863	0.95537	0.16033	-0.14
Mof_N 	N 	0.32053	0.88757	0.16219	-0.057
Mof_N 	N 	0.28603	0.90027	0.17605	-0.206
Mof_O 	O 	0.28883	0.72917	0.08279	-0.524
Mof_O 	O 	0.28503	0.85227	0.07976	-1.866
Mof_O 	O 	0.36853	0.01967	0.10359	-1.939
Mof_O 	O 	0.44923	0.04597	0.1275	-0.583
Mof_O 	O 	0.54883	0.10047	0.15917	-0.39
Mof_O 	O 	0.52453	0.15407	0.18309	-0.233
Mof_O 	O 	0.35283	0.07287	0.20664	-0.218
Mof_O 	O 	0.23043	0.94517	0.20377	-0.303
Mof_C 	C 	0.8353	0.8611	0.07939	0.788
Mof_C 	C 	0.8589	0.8299	0.06308	-0.245
Mof_C 	C 	0.8219	0.7563	0.05263	-0.253
Mof_C 	C 	0.7404	0.6686	0.05182	0.741
Mof_C 	C 	0.7395	0.5694	0.99455	0.303
Mof_C 	C 	0.7329	0.6511	0.99324	-0.019
Mof_C 	C 	0.6963	0.6884	0.98314	-0.019
Mof_C 	C 	0.6377	0.6638	0.96737	0.298
Mof_Co	Co	0.83991	0.67204	0.02283	1.186
Mof_N 	N 	0.9364	0.8841	0.05611	-0.131
Mof_N 	N 	0.9515	0.8494	0.04211	-0.047
Mof_N 	N 	0.8823	0.7717	0.04019	-0.153
Mof_N 	N 	0.7766	0.7113	0.00634	-0.184
Mof_N 	N 	0.7663	0.7791	0.00448	-0.052
Mof_N 	N 	0.7191	0.7664	0.99062	-0.182
Mof_O 	O 	0.893	0.9375	0.08388	-0.454
Mof_O 	O 	0.7661	0.8144	0.08691	-1.751
Mof_O 	O 	0.6822	0.647	0.06308	-1.738
Mof_O 	O 	0.7366	0.6207	0.03917	-0.487
Mof_O 	O 	0.7817	0.5662	0.0075	-0.355
Mof_O 	O 	0.7038	0.5126	0.98358	-0.211
Mof_O 	O 	0.6133	0.5938	0.96003	-0.244
Mof_O 	O 	0.6186	0.7215	0.9629	-0.38
Mof_C 	C 	0.50197	0.19443	0.41272	0.75
Mof_C 	C 	0.52557	0.16323	0.39641	-0.263
Mof_C 	C 	0.48857	0.08963	0.38596	-0.19
Mof_C 	C 	0.40707	0.00193	0.38515	0.503
Mof_C 	C 	0.40617	0.90273	0.32788	0.249
Mof_C 	C 	0.39957	0.98443	0.32657	0.161
Mof_C 	C 	0.36297	0.02173	0.31647	-0.223
Mof_C 	C 	0.30437	0.99713	0.3007	0.498
Mof_Co	Co	0.50658	0.00537	0.35616	1.146
Mof_N 	N 	0.60307	0.21743	0.38944	-0.161
Mof_N 	N 	0.61817	0.18273	0.37544	-0.074
Mof_N 	N 	0.54897	0.10503	0.37352	-0.178
Mof_N 	N 	0.44327	0.04463	0.33967	-0.244
Mof_N 	N 	0.43297	0.11243	0.33781	-0.063
Mof_N 	N 	0.38577	0.09973	0.32395	-0.161
Mof_O 	O 	0.55967	0.27083	0.41721	-0.504
Mof_O 	O 	0.43277	0.14773	0.42024	-1.626
Mof_O 	O 	0.34887	0.98033	0.39641	-1.47
Mof_O 	O 	0.40327	0.95403	0.3725	-0.371
Mof_O 	O 	0.44837	0.89953	0.34083	-0.323
Mof_O 	O 	0.37047	0.84593	0.31691	-0.186
Mof_O 	O 	0.27997	0.92713	0.29336	-0.281
Mof_O 	O 	0.28527	0.05483	0.29623	-0.481
Mof_C 	C 	0.16863	0.52777	0.74606	0.749
Mof_C 	C 	0.19223	0.49657	0.72975	-0.243
Mof_C 	C 	0.15523	0.42297	0.7193	-0.242
Mof_C 	C 	0.07373	0.33527	0.71849	0.7
Mof_C 	C 	0.07283	0.23607	0.66122	0.295
Mof_C 	C 	0.06623	0.31777	0.65991	-0.013
Mof_C 	C 	0.02963	0.35507	0.64981	-0.098
Mof_C 	C 	0.97103	0.33047	0.63404	0.375
Mof_Co	Co	0.17324	0.33871	0.68949	1.18
Mof_N 	N 	0.26973	0.55077	0.72278	-0.163
Mof_N 	N 	0.28483	0.51607	0.70878	-0.071
Mof_N 	N 	0.21563	0.43837	0.70686	-0.161
Mof_N 	N 	0.10993	0.37797	0.67301	-0.19
Mof_N 	N 	0.09963	0.44577	0.67115	-0.065
Mof_N 	N 	0.05243	0.43307	0.65729	-0.187
Mof_O 	O 	0.22633	0.60417	0.75055	-0.504
Mof_O 	O 	0.09943	0.48107	0.75358	-1.65
Mof_O 	O 	0.01553	0.31367	0.72975	-1.639
Mof_O 	O 	0.06993	0.28737	0.70584	-0.499
Mof_O 	O 	0.11503	0.23287	0.67417	-0.378
Mof_O 	O 	0.03713	0.17927	0.65025	-0.254
Mof_O 	O 	0.94663	0.26047	0.6267	-0.241
Mof_O 	O 	0.95193	0.38817	0.62957	-0.368
Mof_C 	C 	0.0258	0.1647	0.07939	0.669
Mof_C 	C 	0.971	0.1411	0.06308	-0.162
Mof_C 	C 	0.9344	0.1781	0.05263	-0.242
Mof_C 	C 	0.9282	0.2596	0.05182	0.7
Mof_C 	C 	0.8299	0.2605	0.99455	0.324
Mof_C 	C 	0.9182	0.2671	0.99324	-0.06
Mof_C 	C 	0.9921	0.3037	0.98314	0.117
Mof_C 	C 	0.0261	0.3623	0.96737	0.139
Mof_Co	Co	0.83213	0.16009	0.02283	1.181
Mof_N 	N 	0.9477	0.0636	0.05611	-0.164
Mof_N 	N 	0.8979	0.0485	0.04211	-0.077
Mof_N 	N 	0.8894	0.1177	0.04019	-0.16
Mof_N 	N 	0.9347	0.2234	0.00634	-0.154
Mof_N 	N 	0.0128	0.2337	0.00448	-0.096
Mof_N 	N 	0.0473	0.2809	0.99062	-0.231
Mof_O 	O 	0.0445	0.107	0.08388	-0.52
Mof_O 	O 	0.0483	0.2339	0.08691	-1.62
Mof_O 	O 	0.9648	0.3178	0.06308	-1.554
Mof_O 	O 	0.8841	0.2634	0.03917	-0.469
Mof_O 	O 	0.7845	0.2183	0.0075	-0.369
Mof_O 	O 	0.8088	0.2962	0.98358	-0.217
Mof_O 	O 	0.9805	0.3867	0.96003	-0.157
Mof_O 	O 	0.1029	0.3814	0.9629	-0.357
Mof_C 	C 	0.69247	0.49803	0.41272	0.793
Mof_C 	C 	0.63767	0.47443	0.39641	-0.259
Mof_C 	C 	0.60107	0.51143	0.38596	-0.254
Mof_C 	C 	0.59487	0.59293	0.38515	0.737
Mof_C 	C 	0.49657	0.59383	0.32788	0.303
Mof_C 	C 	0.58487	0.60043	0.32657	-0.019
Mof_C 	C 	0.65877	0.63703	0.31647	-0.016
Mof_C 	C 	0.69277	0.69563	0.3007	0.297
Mof_Co	Co	0.4988	0.49342	0.35616	1.181
Mof_N 	N 	0.61437	0.39693	0.38944	-0.16
Mof_N 	N 	0.56457	0.38183	0.37544	-0.07
Mof_N 	N 	0.55607	0.45103	0.37352	-0.159
Mof_N 	N 	0.60137	0.55673	0.33967	-0.186
Mof_N 	N 	0.67947	0.56703	0.33781	-0.058
Mof_N 	N 	0.71397	0.61423	0.32395	-0.185
Mof_O 	O 	0.71117	0.44033	0.41721	-0.513
Mof_O 	O 	0.71497	0.56723	0.42024	-1.762
Mof_O 	O 	0.63147	0.65113	0.39641	-1.733
Mof_O 	O 	0.55077	0.59673	0.3725	-0.486
Mof_O 	O 	0.45117	0.55163	0.34083	-0.361
Mof_O 	O 	0.47547	0.62953	0.31691	-0.208
Mof_O 	O 	0.64717	0.72003	0.29336	-0.227
Mof_O 	O 	0.76957	0.71473	0.29623	-0.367
Mof_C 	C 	0.35913	0.83137	0.74606	0.745
Mof_C 	C 	0.30433	0.80777	0.72975	-0.233
Mof_C 	C 	0.26773	0.84477	0.7193	-0.227
Mof_C 	C 	0.26153	0.92627	0.71849	0.694
Mof_C 	C 	0.16323	0.92717	0.66122	0.313
Mof_C 	C 	0.25153	0.93377	0.65991	-0.031
Mof_C 	C 	0.32543	0.97037	0.64981	0.041
Mof_C 	C 	0.35943	0.02897	0.63404	0.238
Mof_Co	Co	0.16546	0.82676	0.68949	1.183
Mof_N 	N 	0.28103	0.73027	0.72278	-0.164
Mof_N 	N 	0.23123	0.71517	0.70878	-0.072
Mof_N 	N 	0.22273	0.78437	0.70686	-0.162
Mof_N 	N 	0.26803	0.89007	0.67301	-0.183
Mof_N 	N 	0.34613	0.90037	0.67115	-0.053
Mof_N 	N 	0.38063	0.94757	0.65729	-0.183
Mof_O 	O 	0.37783	0.77367	0.75055	-0.494
Mof_O 	O 	0.38163	0.90057	0.75358	-1.598
Mof_O 	O 	0.29813	0.98447	0.72975	-1.568
Mof_O 	O 	0.21743	0.93007	0.70584	-0.464
Mof_O 	O 	0.11783	0.88497	0.67417	-0.367
Mof_O 	O 	0.14213	0.96287	0.65025	-0.204
Mof_O 	O 	0.31383	0.05337	0.6267	-0.256
Mof_O 	O 	0.43623	0.04807	0.62957	-0.395
Mof_C 	C 	0.1389	0.9742	0.07939	0.889
Mof_C 	C 	0.1701	0.029	0.06308	-0.346
Mof_C 	C 	0.2437	0.0656	0.05263	-0.267
Mof_C 	C 	0.3314	0.0718	0.05182	0.76
Mof_C 	C 	0.4306	0.1701	0.99455	0.28
Mof_C 	C 	0.3489	0.0818	0.99324	0.02
Mof_C 	C 	0.3116	0.0079	0.98314	-0.168
Mof_C 	C 	0.3362	0.9739	0.96737	0.472
Mof_Co	Co	0.32796	0.16787	0.02283	1.178
Mof_N 	N 	0.1159	0.0523	0.05611	-0.166
Mof_N 	N 	0.1506	0.1021	0.04211	-0.086
Mof_N 	N 	0.2283	0.1106	0.04019	-0.164
Mof_N 	N 	0.2887	0.0653	0.00634	-0.22
Mof_N 	N 	0.2209	0.9872	0.00448	-0.031
Mof_N 	N 	0.2336	0.9527	0.99062	-0.14
Mof_O 	O 	0.0625	0.9555	0.08388	-0.539
Mof_O 	O 	0.1856	0.9517	0.08691	-1.879
Mof_O 	O 	0.353	0.0352	0.06308	-1.874
Mof_O 	O 	0.3793	0.1159	0.03917	-0.507
Mof_O 	O 	0.4338	0.2155	0.0075	-0.357
Mof_O 	O 	0.4874	0.1912	0.98358	-0.211
Mof_O 	O 	0.4062	0.0195	0.96003	-0.341
Mof_O 	O 	0.2785	0.8971	0.9629	-0.412
Mof_C 	C 	0.80557	0.30753	0.41272	0.82
Mof_C 	C 	0.83677	0.36233	0.39641	-0.257
Mof_C 	C 	0.91037	0.39893	0.38596	-0.305
Mof_C 	C 	0.99807	0.40513	0.38515	0.919
Mof_C 	C 	0.09727	0.50343	0.32788	0.348
Mof_C 	C 	0.01557	0.41513	0.32657	-0.171
Mof_C 	C 	0.97827	0.34123	0.31647	0.151
Mof_C 	C 	0.00287	0.30723	0.3007	0.128
Mof_Co	Co	0.99463	0.5012	0.35616	1.209
Mof_N 	N 	0.78257	0.38563	0.38944	-0.161
Mof_N 	N 	0.81727	0.43543	0.37544	-0.069
Mof_N 	N 	0.89497	0.44393	0.37352	-0.145
Mof_N 	N 	0.95537	0.39863	0.33967	-0.14
Mof_N 	N 	0.88757	0.32053	0.33781	-0.057
Mof_N 	N 	0.90027	0.28603	0.32395	-0.206
Mof_O 	O 	0.72917	0.28883	0.41721	-0.524
Mof_O 	O 	0.85227	0.28503	0.42024	-1.866
Mof_O 	O 	0.01967	0.36853	0.39641	-1.939
Mof_O 	O 	0.04597	0.44923	0.3725	-0.583
Mof_O 	O 	0.10047	0.54883	0.34083	-0.39
Mof_O 	O 	0.15407	0.52453	0.31691	-0.233
Mof_O 	O 	0.07287	0.35283	0.29336	-0.218
Mof_O 	O 	0.94517	0.23043	0.29623	-0.303
Mof_C 	C 	0.47223	0.64087	0.74606	0.794
Mof_C 	C 	0.50343	0.69567	0.72975	-0.258
Mof_C 	C 	0.57703	0.73227	0.7193	-0.252
Mof_C 	C 	0.66473	0.73847	0.71849	0.738
Mof_C 	C 	0.76393	0.83677	0.66122	0.299
Mof_C 	C 	0.68223	0.74847	0.65991	-0.015
Mof_C 	C 	0.64493	0.67457	0.64981	-0.019
Mof_C 	C 	0.66953	0.64057	0.63404	0.296
Mof_Co	Co	0.66129	0.83454	0.68949	1.181
Mof_N 	N 	0.44923	0.71897	0.72278	-0.158
Mof_N 	N 	0.48393	0.76877	0.70878	-0.066
Mof_N 	N 	0.56163	0.77727	0.70686	-0.158
Mof_N 	N 	0.62203	0.73197	0.67301	-0.186
Mof_N 	N 	0.55423	0.65387	0.67115	-0.059
Mof_N 	N 	0.56693	0.61937	0.65729	-0.185
Mof_O 	O 	0.39583	0.62217	0.75055	-0.514
Mof_O 	O 	0.51893	0.61837	0.75358	-1.765
Mof_O 	O 	0.68633	0.70187	0.72975	-1.73
Mof_O 	O 	0.71263	0.78257	0.70584	-0.478
Mof_O 	O 	0.76713	0.88217	0.67417	-0.338
Mof_O 	O 	0.82073	0.85787	0.65025	-0.182
Mof_O 	O 	0.73953	0.68617	0.6267	-0.232
Mof_O 	O 	0.61183	0.56377	0.62957	-0.38
Mof_C 	C 	0.1389	0.1647	0.57939	0.789
Mof_C 	C 	0.1701	0.1411	0.56308	-0.269
Mof_C 	C 	0.2437	0.1781	0.55263	-0.256
Mof_C 	C 	0.3314	0.2596	0.55182	0.73
Mof_C 	C 	0.4306	0.2605	0.49455	0.303
Mof_C 	C 	0.3489	0.2671	0.49324	-0.023
Mof_C 	C 	0.3116	0.3037	0.48314	-0.022
Mof_C 	C 	0.3362	0.3623	0.46737	0.298
Mof_Co	Co	0.32796	0.16009	0.52283	1.177
Mof_N 	N 	0.1159	0.0636	0.55611	-0.177
Mof_N 	N 	0.1506	0.0485	0.54211	-0.093
Mof_N 	N 	0.2283	0.1177	0.54019	-0.165
Mof_N 	N 	0.2887	0.2234	0.50634	-0.189
Mof_N 	N 	0.2209	0.2337	0.50448	-0.068
Mof_N 	N 	0.2336	0.2809	0.49062	-0.189
Mof_O 	O 	0.0625	0.107	0.58388	-0.556
Mof_O 	O 	0.1856	0.2339	0.58691	-1.765
Mof_O 	O 	0.353	0.3178	0.56308	-1.727
Mof_O 	O 	0.3793	0.2634	0.53917	-0.49
Mof_O 	O 	0.4338	0.2183	0.5075	-0.366
Mof_O 	O 	0.4874	0.2962	0.48358	-0.215
Mof_O 	O 	0.4062	0.3867	0.46003	-0.246
Mof_O 	O 	0.2785	0.3814	0.4629	-0.385
Mof_C 	C 	0.80557	0.49803	0.91272	0.822
Mof_C 	C 	0.83677	0.47443	0.89641	-0.257
Mof_C 	C 	0.91037	0.51143	0.88596	-0.303
Mof_C 	C 	0.99807	0.59293	0.88515	0.916
Mof_C 	C 	0.09727	0.59383	0.82788	0.347
Mof_C 	C 	0.01557	0.60043	0.82657	-0.166
Mof_C 	C 	0.97827	0.63703	0.81647	0.151
Mof_C 	C 	0.00287	0.69563	0.8007	0.132
Mof_Co	Co	0.99463	0.49342	0.85616	1.209
Mof_N 	N 	0.78257	0.39693	0.88944	-0.16
Mof_N 	N 	0.81727	0.38183	0.87544	-0.069
Mof_N 	N 	0.89497	0.45103	0.87352	-0.145
Mof_N 	N 	0.95537	0.55673	0.83967	-0.14
Mof_N 	N 	0.88757	0.56703	0.83781	-0.056
Mof_N 	N 	0.90027	0.61423	0.82395	-0.205
Mof_O 	O 	0.72917	0.44033	0.91721	-0.522
Mof_O 	O 	0.85227	0.56723	0.92024	-1.865
Mof_O 	O 	0.01967	0.65113	0.89641	-1.935
Mof_O 	O 	0.04597	0.59673	0.8725	-0.579
Mof_O 	O 	0.10047	0.55163	0.84083	-0.39
Mof_O 	O 	0.15407	0.62953	0.81691	-0.229
Mof_O 	O 	0.07287	0.72003	0.79336	-0.203
Mof_O 	O 	0.94517	0.71473	0.79623	-0.293
Mof_C 	C 	0.47223	0.83137	0.24606	0.749
Mof_C 	C 	0.50343	0.80777	0.22975	-0.233
Mof_C 	C 	0.57703	0.84477	0.2193	-0.226
Mof_C 	C 	0.66473	0.92627	0.21849	0.697
Mof_C 	C 	0.76393	0.92717	0.16122	0.308
Mof_C 	C 	0.68223	0.93377	0.15991	-0.024
Mof_C 	C 	0.64493	0.97037	0.14981	0.041
Mof_C 	C 	0.66953	0.02897	0.13404	0.238
Mof_Co	Co	0.66129	0.82676	0.18949	1.183
Mof_N 	N 	0.44923	0.73027	0.22278	-0.162
Mof_N 	N 	0.48393	0.71517	0.20878	-0.069
Mof_N 	N 	0.56163	0.78437	0.20686	-0.161
Mof_N 	N 	0.62203	0.89007	0.17301	-0.183
Mof_N 	N 	0.55423	0.90037	0.17115	-0.052
Mof_N 	N 	0.56693	0.94757	0.15729	-0.183
Mof_O 	O 	0.39583	0.77367	0.25055	-0.494
Mof_O 	O 	0.51893	0.90057	0.25358	-1.606
Mof_O 	O 	0.68633	0.98447	0.22975	-1.569
Mof_O 	O 	0.71263	0.93007	0.20584	-0.454
Mof_O 	O 	0.76713	0.88497	0.17417	-0.342
Mof_O 	O 	0.82073	0.96287	0.15025	-0.172
Mof_O 	O 	0.73953	0.05337	0.1267	-0.242
Mof_O 	O 	0.61183	0.04807	0.12957	-0.393
Mof_C 	C 	0.8353	0.9742	0.57939	0.882
Mof_C 	C 	0.8589	0.029	0.56308	-0.328
Mof_C 	C 	0.8219	0.0656	0.55263	-0.266
Mof_C 	C 	0.7404	0.0718	0.55182	0.765
Mof_C 	C 	0.7395	0.1701	0.49455	0.281
Mof_C 	C 	0.7329	0.0818	0.49324	0.021
Mof_C 	C 	0.6963	0.0079	0.48314	-0.162
Mof_C 	C 	0.6377	0.9739	0.46737	0.468
Mof_Co	Co	0.83991	0.16787	0.52283	1.183
Mof_N 	N 	0.9364	0.0523	0.55611	-0.14
Mof_N 	N 	0.9515	0.1021	0.54211	-0.06
Mof_N 	N 	0.8823	0.1106	0.54019	-0.157
Mof_N 	N 	0.7766	0.0653	0.50634	-0.217
Mof_N 	N 	0.7663	0.9872	0.50448	-0.025
Mof_N 	N 	0.7191	0.9527	0.49062	-0.139
Mof_O 	O 	0.893	0.9555	0.58388	-0.483
Mof_O 	O 	0.7661	0.9517	0.58691	-1.867
Mof_O 	O 	0.6822	0.0352	0.56308	-1.875
Mof_O 	O 	0.7366	0.1159	0.53917	-0.504
Mof_O 	O 	0.7817	0.2155	0.5075	-0.352
Mof_O 	O 	0.7038	0.1912	0.48358	-0.209
Mof_O 	O 	0.6133	0.0195	0.46003	-0.339
Mof_O 	O 	0.6186	0.8971	0.4629	-0.409
Mof_C 	C 	0.50197	0.30753	0.91272	0.786
Mof_C 	C 	0.52557	0.36233	0.89641	-0.259
Mof_C 	C 	0.48857	0.39893	0.88596	-0.254
Mof_C 	C 	0.40707	0.40513	0.88515	0.733
Mof_C 	C 	0.40617	0.50343	0.82788	0.302
Mof_C 	C 	0.39957	0.41513	0.82657	-0.022
Mof_C 	C 	0.36297	0.34123	0.81647	-0.023
Mof_C 	C 	0.30437	0.30723	0.8007	0.297
Mof_Co	Co	0.50658	0.5012	0.85616	1.181
Mof_N 	N 	0.60307	0.38563	0.88944	-0.161
Mof_N 	N 	0.61817	0.43543	0.87544	-0.072
Mof_N 	N 	0.54897	0.44393	0.87352	-0.16
Mof_N 	N 	0.44327	0.39863	0.83967	-0.187
Mof_N 	N 	0.43297	0.32053	0.83781	-0.061
Mof_N 	N 	0.38577	0.28603	0.82395	-0.186
Mof_O 	O 	0.55967	0.28883	0.91721	-0.516
Mof_O 	O 	0.43277	0.28503	0.92024	-1.756
Mof_O 	O 	0.34887	0.36853	0.89641	-1.728
Mof_O 	O 	0.40327	0.44923	0.8725	-0.49
Mof_O 	O 	0.44837	0.54883	0.84083	-0.36
Mof_O 	O 	0.37047	0.52453	0.81691	-0.214
Mof_O 	O 	0.27997	0.35283	0.79336	-0.253
Mof_O 	O 	0.28527	0.23043	0.79623	-0.392
Mof_C 	C 	0.16863	0.64087	0.24606	0.754
Mof_C 	C 	0.19223	0.69567	0.22975	-0.242
Mof_C 	C 	0.15523	0.73227	0.2193	-0.24
Mof_C 	C 	0.07373	0.73847	0.21849	0.704
Mof_C 	C 	0.07283	0.83677	0.16122	0.291
Mof_C 	C 	0.06623	0.74847	0.15991	-0.008
Mof_C 	C 	0.02963	0.67457	0.14981	-0.096
Mof_C 	C 	0.97103	0.64057	0.13404	0.372
Mof_Co	Co	0.17324	0.83454	0.18949	1.18
Mof_N 	N 	0.26973	0.71897	0.22278	-0.161
Mof_N 	N 	0.28483	0.76877	0.20878	-0.066
Mof_N 	N 	0.21563	0.77727	0.20686	-0.159
Mof_N 	N 	0.10993	0.73197	0.17301	-0.19
Mof_N 	N 	0.09963	0.65387	0.17115	-0.065
Mof_N 	N 	0.05243	0.61937	0.15729	-0.187
Mof_O 	O 	0.22633	0.62217	0.25055	-0.507
Mof_O 	O 	0.09943	0.61837	0.25358	-1.659
Mof_O 	O 	0.01553	0.70187	0.22975	-1.638
Mof_O 	O 	0.06993	0.78257	0.20584	-0.489
Mof_O 	O 	0.11503	0.88217	0.17417	-0.356
Mof_O 	O 	0.03713	0.85787	0.15025	-0.226
Mof_O 	O 	0.94663	0.68617	0.1267	-0.231
Mof_O 	O 	0.95193	0.56377	0.12957	-0.366
Mof_C 	C 	0.0258	0.8611	0.57939	0.673
Mof_C 	C 	0.971	0.8299	0.56308	-0.156
Mof_C 	C 	0.9344	0.7563	0.55263	-0.24
Mof_C 	C 	0.9282	0.6686	0.55182	0.705
Mof_C 	C 	0.8299	0.5694	0.49455	0.324
Mof_C 	C 	0.9182	0.6511	0.49324	-0.057
Mof_C 	C 	0.9921	0.6884	0.48314	0.113
Mof_C 	C 	0.0261	0.6638	0.46737	0.143
Mof_Co	Co	0.83213	0.67204	0.52283	1.185
Mof_N 	N 	0.9477	0.8841	0.55611	-0.144
Mof_N 	N 	0.8979	0.8494	0.54211	-0.056
Mof_N 	N 	0.8894	0.7717	0.54019	-0.155
Mof_N 	N 	0.9347	0.7113	0.50634	-0.154
Mof_N 	N 	0.0128	0.7791	0.50448	-0.087
Mof_N 	N 	0.0473	0.7664	0.49062	-0.226
Mof_O 	O 	0.0445	0.9375	0.58388	-0.473
Mof_O 	O 	0.0483	0.8144	0.58691	-1.616
Mof_O 	O 	0.9648	0.647	0.56308	-1.563
Mof_O 	O 	0.8841	0.6207	0.53917	-0.468
Mof_O 	O 	0.7845	0.5662	0.5075	-0.363
Mof_O 	O 	0.8088	0.5126	0.48358	-0.214
Mof_O 	O 	0.9805	0.5938	0.46003	-0.159
Mof_O 	O 	0.1029	0.7215	0.4629	-0.355
Mof_C 	C 	0.69247	0.19443	0.91272	0.754
Mof_C 	C 	0.63767	0.16323	0.89641	-0.263
Mof_C 	C 	0.60107	0.08963	0.88596	-0.192
Mof_C 	C 	0.59487	0.00193	0.88515	0.509
Mof_C 	C 	0.49657	0.90273	0.82788	0.251
Mof_C 	C 	0.58487	0.98443	0.82657	0.158
Mof_C 	C 	0.65877	0.02173	0.81647	-0.216
Mof_C 	C 	0.69277	0.99713	0.8007	0.492
Mof_Co	Co	0.4988	0.00537	0.85616	1.147
Mof_N 	N 	0.61437	0.21743	0.88944	-0.16
Mof_N 	N 	0.56457	0.18273	0.87544	-0.073
Mof_N 	N 	0.55607	0.10503	0.87352	-0.177
Mof_N 	N 	0.60137	0.04463	0.83967	-0.242
Mof_N 	N 	0.67947	0.11243	0.83781	-0.062
Mof_N 	N 	0.71397	0.09973	0.82395	-0.161
Mof_O 	O 	0.71117	0.27083	0.91721	-0.503
Mof_O 	O 	0.71497	0.14773	0.92024	-1.631
Mof_O 	O 	0.63147	0.98033	0.89641	-1.478
Mof_O 	O 	0.55077	0.95403	0.8725	-0.371
Mof_O 	O 	0.45117	0.89953	0.84083	-0.323
Mof_O 	O 	0.47547	0.84593	0.81691	-0.185
Mof_O 	O 	0.64717	0.92713	0.79336	-0.271
Mof_O 	O 	0.76957	0.05483	0.79623	-0.466
Mof_C 	C 	0.35913	0.52777	0.24606	0.786
Mof_C 	C 	0.30433	0.49657	0.22975	-0.26
Mof_C 	C 	0.26773	0.42297	0.2193	-0.256
Mof_C 	C 	0.26153	0.33527	0.21849	0.734
Mof_C 	C 	0.16323	0.23607	0.16122	0.307
Mof_C 	C 	0.25153	0.31777	0.15991	-0.026
Mof_C 	C 	0.32543	0.35507	0.14981	-0.022
Mof_C 	C 	0.35943	0.33047	0.13404	0.3
Mof_Co	Co	0.16546	0.33871	0.18949	1.182
Mof_N 	N 	0.28103	0.55077	0.22278	-0.161
Mof_N 	N 	0.23123	0.51607	0.20878	-0.074
Mof_N 	N 	0.22273	0.43837	0.20686	-0.16
Mof_N 	N 	0.26803	0.37797	0.17301	-0.187
Mof_N 	N 	0.34613	0.44577	0.17115	-0.06
Mof_N 	N 	0.38063	0.43307	0.15729	-0.186
Mof_O 	O 	0.37783	0.60417	0.25055	-0.511
Mof_O 	O 	0.38163	0.48107	0.25358	-1.753
Mof_O 	O 	0.29813	0.31367	0.22975	-1.736
Mof_O 	O 	0.21743	0.28737	0.20584	-0.497
Mof_O 	O 	0.11783	0.23287	0.17417	-0.383
Mof_O 	O 	0.14213	0.17927	0.15025	-0.242
Mof_O 	O 	0.31383	0.26047	0.1267	-0.256
Mof_O 	O 	0.43623	0.38817	0.12957	-0.385
Mof_C 	C 	0.1647	0.1389	0.92061	0.789
Mof_C 	C 	0.1411	0.1701	0.93692	-0.269
Mof_C 	C 	0.1781	0.2437	0.94737	-0.256
Mof_C 	C 	0.2596	0.3314	0.94818	0.73
Mof_C 	C 	0.2605	0.4306	0.00545	0.303
Mof_C 	C 	0.2671	0.3489	0.00676	-0.023
Mof_C 	C 	0.3037	0.3116	0.01686	-0.022
Mof_C 	C 	0.3623	0.3362	0.03263	0.298
Mof_Co	Co	0.16009	0.32796	0.97717	1.177
Mof_N 	N 	0.0636	0.1159	0.94389	-0.177
Mof_N 	N 	0.0485	0.1506	0.95789	-0.093
Mof_N 	N 	0.1177	0.2283	0.95981	-0.165
Mof_N 	N 	0.2234	0.2887	0.99366	-0.189
Mof_N 	N 	0.2337	0.2209	0.99552	-0.068
Mof_N 	N 	0.2809	0.2336	0.00938	-0.189
Mof_O 	O 	0.107	0.0625	0.91612	-0.556
Mof_O 	O 	0.2339	0.1856	0.91309	-1.765
Mof_O 	O 	0.3178	0.353	0.93692	-1.727
Mof_O 	O 	0.2634	0.3793	0.96083	-0.49
Mof_O 	O 	0.2183	0.4338	0.9925	-0.366
Mof_O 	O 	0.2962	0.4874	0.01642	-0.215
Mof_O 	O 	0.3867	0.4062	0.03997	-0.246
Mof_O 	O 	0.3814	0.2785	0.0371	-0.385
Mof_C 	C 	0.83137	0.47223	0.25394	0.749
Mof_C 	C 	0.80777	0.50343	0.27025	-0.233
Mof_C 	C 	0.84477	0.57703	0.2807	-0.226
Mof_C 	C 	0.92627	0.66473	0.28151	0.697
Mof_C 	C 	0.92717	0.76393	0.33878	0.308
Mof_C 	C 	0.93377	0.68223	0.34009	-0.024
Mof_C 	C 	0.97037	0.64493	0.35019	0.041
Mof_C 	C 	0.02897	0.66953	0.36596	0.238
Mof_Co	Co	0.82676	0.66129	0.31051	1.183
Mof_N 	N 	0.73027	0.44923	0.27722	-0.162
Mof_N 	N 	0.71517	0.48393	0.29122	-0.069
Mof_N 	N 	0.78437	0.56163	0.29314	-0.161
Mof_N 	N 	0.89007	0.62203	0.32699	-0.183
Mof_N 	N 	0.90037	0.55423	0.32885	-0.052
Mof_N 	N 	0.94757	0.56693	0.34271	-0.183
Mof_O 	O 	0.77367	0.39583	0.24945	-0.494
Mof_O 	O 	0.90057	0.51893	0.24642	-1.606
Mof_O 	O 	0.98447	0.68633	0.27025	-1.569
Mof_O 	O 	0.93007	0.71263	0.29416	-0.454
Mof_O 	O 	0.88497	0.76713	0.32583	-0.342
Mof_O 	O 	0.96287	0.82073	0.34975	-0.172
Mof_O 	O 	0.05337	0.73953	0.3733	-0.242
Mof_O 	O 	0.04807	0.61183	0.37043	-0.393
Mof_C 	C 	0.49803	0.80557	0.58728	0.822
Mof_C 	C 	0.47443	0.83677	0.60359	-0.257
Mof_C 	C 	0.51143	0.91037	0.61404	-0.303
Mof_C 	C 	0.59293	0.99807	0.61485	0.916
Mof_C 	C 	0.59383	0.09727	0.67212	0.347
Mof_C 	C 	0.60043	0.01557	0.67343	-0.166
Mof_C 	C 	0.63703	0.97827	0.68353	0.151
Mof_C 	C 	0.69563	0.00287	0.6993	0.132
Mof_Co	Co	0.49342	0.99463	0.64384	1.209
Mof_N 	N 	0.39693	0.78257	0.61056	-0.16
Mof_N 	N 	0.38183	0.81727	0.62456	-0.069
Mof_N 	N 	0.45103	0.89497	0.62648	-0.145
Mof_N 	N 	0.55673	0.95537	0.66033	-0.14
Mof_N 	N 	0.56703	0.88757	0.66219	-0.056
Mof_N 	N 	0.61423	0.90027	0.67605	-0.205
Mof_O 	O 	0.44033	0.72917	0.58279	-0.522
Mof_O 	O 	0.56723	0.85227	0.57976	-1.865
Mof_O 	O 	0.65113	0.01967	0.60359	-1.935
Mof_O 	O 	0.59673	0.04597	0.6275	-0.579
Mof_O 	O 	0.55163	0.10047	0.65917	-0.39
Mof_O 	O 	0.62953	0.15407	0.68309	-0.229
Mof_O 	O 	0.72003	0.07287	0.70664	-0.203
Mof_O 	O 	0.71473	0.94517	0.70377	-0.293
Mof_C 	C 	0.9742	0.8353	0.92061	0.882
Mof_C 	C 	0.029	0.8589	0.93692	-0.328
Mof_C 	C 	0.0656	0.8219	0.94737	-0.266
Mof_C 	C 	0.0718	0.7404	0.94818	0.765
Mof_C 	C 	0.1701	0.7395	0.00545	0.281
Mof_C 	C 	0.0818	0.7329	0.00676	0.021
Mof_C 	C 	0.0079	0.6963	0.01686	-0.162
Mof_C 	C 	0.9739	0.6377	0.03263	0.468
Mof_Co	Co	0.16787	0.83991	0.97717	1.183
Mof_N 	N 	0.0523	0.9364	0.94389	-0.14
Mof_N 	N 	0.1021	0.9515	0.95789	-0.06
Mof_N 	N 	0.1106	0.8823	0.95981	-0.157
Mof_N 	N 	0.0653	0.7766	0.99366	-0.217
Mof_N 	N 	0.9872	0.7663	0.99552	-0.025
Mof_N 	N 	0.9527	0.7191	0.00938	-0.139
Mof_O 	O 	0.9555	0.893	0.91612	-0.483
Mof_O 	O 	0.9517	0.7661	0.91309	-1.867
Mof_O 	O 	0.0352	0.6822	0.93692	-1.875
Mof_O 	O 	0.1159	0.7366	0.96083	-0.504
Mof_O 	O 	0.2155	0.7817	0.9925	-0.352
Mof_O 	O 	0.1912	0.7038	0.01642	-0.209
Mof_O 	O 	0.0195	0.6133	0.03997	-0.339
Mof_O 	O 	0.8971	0.6186	0.0371	-0.409
Mof_C 	C 	0.64087	0.16863	0.25394	0.754
Mof_C 	C 	0.69567	0.19223	0.27025	-0.242
Mof_C 	C 	0.73227	0.15523	0.2807	-0.24
Mof_C 	C 	0.73847	0.07373	0.28151	0.704
Mof_C 	C 	0.83677	0.07283	0.33878	0.291
Mof_C 	C 	0.74847	0.06623	0.34009	-0.008
Mof_C 	C 	0.67457	0.02963	0.35019	-0.096
Mof_C 	C 	0.64057	0.97103	0.36596	0.372
Mof_Co	Co	0.83454	0.17324	0.31051	1.18
Mof_N 	N 	0.71897	0.26973	0.27722	-0.161
Mof_N 	N 	0.76877	0.28483	0.29122	-0.066
Mof_N 	N 	0.77727	0.21563	0.29314	-0.159
Mof_N 	N 	0.73197	0.10993	0.32699	-0.19
Mof_N 	N 	0.65387	0.09963	0.32885	-0.065
Mof_N 	N 	0.61937	0.05243	0.34271	-0.187
Mof_O 	O 	0.62217	0.22633	0.24945	-0.507
Mof_O 	O 	0.61837	0.09943	0.24642	-1.659
Mof_O 	O 	0.70187	0.01553	0.27025	-1.638
Mof_O 	O 	0.78257	0.06993	0.29416	-0.489
Mof_O 	O 	0.88217	0.11503	0.32583	-0.356
Mof_O 	O 	0.85787	0.03713	0.34975	-0.226
Mof_O 	O 	0.68617	0.94663	0.3733	-0.231
Mof_O 	O 	0.56377	0.95193	0.37043	-0.366
Mof_C 	C 	0.30753	0.50197	0.58728	0.786
Mof_C 	C 	0.36233	0.52557	0.60359	-0.259
Mof_C 	C 	0.39893	0.48857	0.61404	-0.254
Mof_C 	C 	0.40513	0.40707	0.61485	0.733
Mof_C 	C 	0.50343	0.40617	0.67212	0.302
Mof_C 	C 	0.41513	0.39957	0.67343	-0.022
Mof_C 	C 	0.34123	0.36297	0.68353	-0.023
Mof_C 	C 	0.30723	0.30437	0.6993	0.297
Mof_Co	Co	0.5012	0.50658	0.64384	1.181
Mof_N 	N 	0.38563	0.60307	0.61056	-0.161
Mof_N 	N 	0.43543	0.61817	0.62456	-0.072
Mof_N 	N 	0.44393	0.54897	0.62648	-0.16
Mof_N 	N 	0.39863	0.44327	0.66033	-0.187
Mof_N 	N 	0.32053	0.43297	0.66219	-0.061
Mof_N 	N 	0.28603	0.38577	0.67605	-0.186
Mof_O 	O 	0.28883	0.55967	0.58279	-0.516
Mof_O 	O 	0.28503	0.43277	0.57976	-1.756
Mof_O 	O 	0.36853	0.34887	0.60359	-1.728
Mof_O 	O 	0.44923	0.40327	0.6275	-0.49
Mof_O 	O 	0.54883	0.44837	0.65917	-0.36
Mof_O 	O 	0.52453	0.37047	0.68309	-0.214
Mof_O 	O 	0.35283	0.27997	0.70664	-0.253
Mof_O 	O 	0.23043	0.28527	0.70377	-0.392
Mof_C 	C 	0.8611	0.0258	0.92061	0.673
Mof_C 	C 	0.8299	0.971	0.93692	-0.156
Mof_C 	C 	0.7563	0.9344	0.94737	-0.24
Mof_C 	C 	0.6686	0.9282	0.94818	0.705
Mof_C 	C 	0.5694	0.8299	0.00545	0.324
Mof_C 	C 	0.6511	0.9182	0.00676	-0.057
Mof_C 	C 	0.6884	0.9921	0.01686	0.113
Mof_C 	C 	0.6638	0.0261	0.03263	0.143
Mof_Co	Co	0.67204	0.83213	0.97717	1.185
Mof_N 	N 	0.8841	0.9477	0.94389	-0.144
Mof_N 	N 	0.8494	0.8979	0.95789	-0.056
Mof_N 	N 	0.7717	0.8894	0.95981	-0.155
Mof_N 	N 	0.7113	0.9347	0.99366	-0.154
Mof_N 	N 	0.7791	0.0128	0.99552	-0.087
Mof_N 	N 	0.7664	0.0473	0.00938	-0.226
Mof_O 	O 	0.9375	0.0445	0.91612	-0.473
Mof_O 	O 	0.8144	0.0483	0.91309	-1.616
Mof_O 	O 	0.647	0.9648	0.93692	-1.563
Mof_O 	O 	0.6207	0.8841	0.96083	-0.468
Mof_O 	O 	0.5662	0.7845	0.9925	-0.363
Mof_O 	O 	0.5126	0.8088	0.01642	-0.214
Mof_O 	O 	0.5938	0.9805	0.03997	-0.159
Mof_O 	O 	0.7215	0.1029	0.0371	-0.355
Mof_C 	C 	0.52777	0.35913	0.25394	0.786
Mof_C 	C 	0.49657	0.30433	0.27025	-0.26
Mof_C 	C 	0.42297	0.26773	0.2807	-0.256
Mof_C 	C 	0.33527	0.26153	0.28151	0.734
Mof_C 	C 	0.23607	0.16323	0.33878	0.307
Mof_C 	C 	0.31777	0.25153	0.34009	-0.026
Mof_C 	C 	0.35507	0.32543	0.35019	-0.022
Mof_C 	C 	0.33047	0.35943	0.36596	0.3
Mof_Co	Co	0.33871	0.16546	0.31051	1.182
Mof_N 	N 	0.55077	0.28103	0.27722	-0.161
Mof_N 	N 	0.51607	0.23123	0.29122	-0.074
Mof_N 	N 	0.43837	0.22273	0.29314	-0.16
Mof_N 	N 	0.37797	0.26803	0.32699	-0.187
Mof_N 	N 	0.44577	0.34613	0.32885	-0.06
Mof_N 	N 	0.43307	0.38063	0.34271	-0.186
Mof_O 	O 	0.60417	0.37783	0.24945	-0.511
Mof_O 	O 	0.48107	0.38163	0.24642	-1.753
Mof_O 	O 	0.31367	0.29813	0.27025	-1.736
Mof_O 	O 	0.28737	0.21743	0.29416	-0.497
Mof_O 	O 	0.23287	0.11783	0.32583	-0.383
Mof_O 	O 	0.17927	0.14213	0.34975	-0.242
Mof_O 	O 	0.26047	0.31383	0.3733	-0.256
Mof_O 	O 	0.38817	0.43623	0.37043	-0.385
Mof_C 	C 	0.19443	0.69247	0.58728	0.754
Mof_C 	C 	0.16323	0.63767	0.60359	-0.263
Mof_C 	C 	0.08963	0.60107	0.61404	-0.192
Mof_C 	C 	0.00193	0.59487	0.61485	0.509
Mof_C 	C 	0.90273	0.49657	0.67212	0.251
Mof_C 	C 	0.98443	0.58487	0.67343	0.158
Mof_C 	C 	0.02173	0.65877	0.68353	-0.216
Mof_C 	C 	0.99713	0.69277	0.6993	0.492
Mof_Co	Co	0.00537	0.4988	0.64384	1.147
Mof_N 	N 	0.21743	0.61437	0.61056	-0.16
Mof_N 	N 	0.18273	0.56457	0.62456	-0.073
Mof_N 	N 	0.10503	0.55607	0.62648	-0.177
Mof_N 	N 	0.04463	0.60137	0.66033	-0.242
Mof_N 	N 	0.11243	0.67947	0.66219	-0.062
Mof_N 	N 	0.09973	0.71397	0.67605	-0.161
Mof_O 	O 	0.27083	0.71117	0.58279	-0.503
Mof_O 	O 	0.14773	0.71497	0.57976	-1.631
Mof_O 	O 	0.98033	0.63147	0.60359	-1.478
Mof_O 	O 	0.95403	0.55077	0.6275	-0.371
Mof_O 	O 	0.89953	0.45117	0.65917	-0.323
Mof_O 	O 	0.84593	0.47547	0.68309	-0.185
Mof_O 	O 	0.92713	0.64717	0.70664	-0.271
Mof_O 	O 	0.05483	0.76957	0.70377	-0.466
Mof_Co	Co	-0	0	0.4312	1.122
Mof_Co	Co	0.66667	0.33333	0.76453	1.178
Mof_Co	Co	0.33333	0.66667	0.09786	1.178
Mof_Co	Co	-4.87298e-33	0	0.0688	1.122
Mof_Co	Co	0.66667	0.33333	0.40214	1.178
Mof_Co	Co	0.33333	0.66667	0.73547	1.178
Mof_Co	Co	-1.94919e-32	0	0.5688	1.122
Mof_Co	Co	0.66667	0.33333	0.90214	1.178
Mof_Co	Co	0.33333	0.66667	0.23547	1.178
Mof_Co	Co	-0	0	0.9312	1.122
Mof_Co	Co	0.66667	0.33333	0.26453	1.178
Mof_Co	Co	0.33333	0.66667	0.59786	1.178
Mof_Li	Li	0.70118	0.66667	0.41667	6.773
Mof_Li	Li	0.36785	0	0.75	6.172
Mof_Li	Li	0.33333	0.03452	0.41667	6.074
Mof_Li	Li	2.04722e-17	0.36785	0.75	6.172
Mof_Li	Li	0.96548	0.29882	0.41667	7.264
Mof_Li	Li	0.63215	0.63215	0.75	6.78
Mof_Li	Li	0.66667	0.70118	0.08333	6.773
Mof_Li	Li	0.03452	0.33333	0.08333	6.074
Mof_Li	Li	0.29882	0.96548	0.08333	7.264
Mof_Li	Li	0.29882	0.33333	0.58333	6.709
Mof_Li	Li	0.66667	0.96548	0.58333	7.278
Mof_Li	Li	0.03452	0.70118	0.58333	6.117
Mof_Li	Li	0.33333	0.29882	0.91667	6.709
Mof_Li	Li	-4.9125e-19	0.63215	0.25	6.214
Mof_Li	Li	0.96548	0.66667	0.91667	7.278
Mof_Li	Li	0.63215	0	0.25	6.214
Mof_Li	Li	0.70118	0.03452	0.91667	6.117
Mof_Li	Li	0.36785	0.36785	0.25	6.719
_end
