data_functionalizedCrystal
_audit_creation_method	'EQeq! by Chris Wilmer'
_symmetry_space_group_name_H-M	'P1'
_symmetry_Int_Tables_number	1
_symmetry_cell_setting	triclinic
loop_
_symmetry_equiv_pos_as_xyz
  x,y,z
_cell_length_a	14.365
_cell_length_b	16.305
_cell_length_c	8.734
_cell_angle_alpha	90
_cell_angle_beta	90.243
_cell_angle_gamma	90
loop_
_atom_site_label
_atom_site_type_symbol
_atom_site_fract_x
_atom_site_fract_y
_atom_site_fract_z
_atom_site_charge
Mof_Ga	Ga	0.1365	0.03417	0.57163	3.444
Mof_Ga	Ga	0.04238	0.27163	0.6324	4.185
Mof_Ga	Ga	0.52554	0.12625	0.41042	3.829
Mof_Ga	Ga	0.36576	0.16159	0.81337	3.788
Mof_P 	P 	0.14798	0.15184	0.84854	1.129
Mof_P 	P 	0.64016	0.96929	0.44728	1.046
Mof_P 	P 	0.47275	0.21882	0.10989	1.061
Mof_P 	P 	0.97136	0.13241	0.41427	1.1
Mof_O 	O 	0.4479	0.163	0.9765	-1.181
Mof_O 	O 	0.536	0.1709	0.2187	-1.157
Mof_O 	O 	0.9661	0.1972	0.5409	-1.292
Mof_O 	O 	0.6299	0.0628	0.4393	-1.149
Mof_O 	O 	0.9636	0.3265	0.7574	-1.251
Mof_O 	O 	0.2498	0.1493	0.8965	-1.222
Mof_O 	O 	0.1352	0.2251	0.7428	-1.427
Mof_O 	O 	0.0883	0.1587	0.9916	-1.264
Mof_O 	O 	0.1184	0.0727	0.7705	-1.142
Mof_O 	O 	0.3842	0.253	0.6913	-1.282
Mof_O 	O 	0.4197	0.0638	0.4221	-1.228
Mof_O 	O 	0.0625	0.0856	0.4233	-1.246
Mof_O 	O 	0.2599	0.0521	0.5152	-1.141
Mof_O 	O 	0.392	0.0664	0.7056	-1.248
Mof_O 	O 	0.5296	0.2928	0.0566	-1.229
Mof_O 	O 	0.1137	0.9219	0.5674	-1.06
Mof_Ga	Ga	0.8635	0.53417	0.92837	3.427
Mof_Ga	Ga	0.95762	0.77163	0.8676	4.004
Mof_Ga	Ga	0.47446	0.62625	0.08958	3.827
Mof_Ga	Ga	0.63424	0.66159	0.68663	3.783
Mof_P 	P 	0.85202	0.65184	0.65146	1.129
Mof_P 	P 	0.35984	0.46929	0.05272	1.046
Mof_P 	P 	0.52725	0.71882	0.39011	1.064
Mof_P 	P 	0.02864	0.63241	0.08573	1.049
Mof_O 	O 	0.5521	0.663	0.5235	-1.182
Mof_O 	O 	0.464	0.6709	0.2813	-1.157
Mof_O 	O 	0.0339	0.6972	0.9591	-1.231
Mof_O 	O 	0.3701	0.5628	0.0607	-1.155
Mof_O 	O 	0.0364	0.8265	0.7426	-1.207
Mof_O 	O 	0.7502	0.6493	0.6035	-1.224
Mof_O 	O 	0.8648	0.7251	0.7572	-1.402
Mof_O 	O 	0.9117	0.6587	0.5084	-1.308
Mof_O 	O 	0.8816	0.5727	0.7295	-1.137
Mof_O 	O 	0.6158	0.753	0.8087	-1.285
Mof_O 	O 	0.5803	0.5638	0.0779	-1.221
Mof_O 	O 	0.9375	0.5856	0.0767	-1.2
Mof_O 	O 	0.7401	0.5521	0.9848	-1.14
Mof_O 	O 	0.608	0.5664	0.7944	-1.246
Mof_O 	O 	0.4704	0.7928	0.4434	-1.231
Mof_O 	O 	0.8863	0.4219	0.9326	-1.066
Mof_Ga	Ga	0.8635	0.96583	0.42837	3.444
Mof_Ga	Ga	0.95762	0.72837	0.3676	4.185
Mof_Ga	Ga	0.47446	0.87375	0.58958	3.829
Mof_Ga	Ga	0.63424	0.83841	0.18663	3.788
Mof_P 	P 	0.85202	0.84816	0.15146	1.129
Mof_P 	P 	0.35984	0.03071	0.55272	1.046
Mof_P 	P 	0.52725	0.78118	0.89011	1.061
Mof_P 	P 	0.02864	0.86759	0.58573	1.1
Mof_O 	O 	0.5521	0.837	0.0235	-1.181
Mof_O 	O 	0.464	0.8291	0.7813	-1.157
Mof_O 	O 	0.0339	0.8028	0.4591	-1.292
Mof_O 	O 	0.3701	0.9372	0.5607	-1.149
Mof_O 	O 	0.0364	0.6735	0.2426	-1.251
Mof_O 	O 	0.7502	0.8507	0.1035	-1.222
Mof_O 	O 	0.8648	0.7749	0.2572	-1.427
Mof_O 	O 	0.9117	0.8413	0.0084	-1.264
Mof_O 	O 	0.8816	0.9273	0.2295	-1.142
Mof_O 	O 	0.6158	0.747	0.3087	-1.282
Mof_O 	O 	0.5803	0.9362	0.5779	-1.228
Mof_O 	O 	0.9375	0.9144	0.5767	-1.246
Mof_O 	O 	0.7401	0.9479	0.4848	-1.141
Mof_O 	O 	0.608	0.9336	0.2944	-1.248
Mof_O 	O 	0.4704	0.7072	0.9434	-1.229
Mof_O 	O 	0.8863	0.0781	0.4326	-1.06
Mof_Ga	Ga	0.1365	0.46583	0.07163	3.427
Mof_Ga	Ga	0.04238	0.22837	0.1324	4.004
Mof_Ga	Ga	0.52554	0.37375	0.91042	3.827
Mof_Ga	Ga	0.36576	0.33841	0.31337	3.783
Mof_P 	P 	0.14798	0.34816	0.34854	1.129
Mof_P 	P 	0.64016	0.53071	0.94728	1.046
Mof_P 	P 	0.47275	0.28118	0.60989	1.064
Mof_P 	P 	0.97136	0.36759	0.91427	1.049
Mof_O 	O 	0.4479	0.337	0.4765	-1.182
Mof_O 	O 	0.536	0.3291	0.7187	-1.157
Mof_O 	O 	0.9661	0.3028	0.0409	-1.231
Mof_O 	O 	0.6299	0.4372	0.9393	-1.155
Mof_O 	O 	0.9636	0.1735	0.2574	-1.207
Mof_O 	O 	0.2498	0.3507	0.3965	-1.224
Mof_O 	O 	0.1352	0.2749	0.2428	-1.402
Mof_O 	O 	0.0883	0.3413	0.4916	-1.308
Mof_O 	O 	0.1184	0.4273	0.2705	-1.137
Mof_O 	O 	0.3842	0.247	0.1913	-1.285
Mof_O 	O 	0.4197	0.4362	0.9221	-1.221
Mof_O 	O 	0.0625	0.4144	0.9233	-1.2
Mof_O 	O 	0.2599	0.4479	0.0152	-1.14
Mof_O 	O 	0.392	0.4336	0.2056	-1.246
Mof_O 	O 	0.5296	0.2072	0.5566	-1.231
Mof_O 	O 	0.1137	0.5781	0.0674	-1.066
_end
