data_functionalizedCrystal
_audit_creation_method	'EQeq! by Chris Wilmer'
_symmetry_space_group_name_H-M	'P1'
_symmetry_Int_Tables_number	1
_symmetry_cell_setting	triclinic
loop_
_symmetry_equiv_pos_as_xyz
  x,y,z
_cell_length_a	13.846
_cell_length_b	16.954
_cell_length_c	16.954
_cell_angle_alpha	120
_cell_angle_beta	90
_cell_angle_gamma	90
loop_
_atom_site_label
_atom_site_type_symbol
_atom_site_fract_x
_atom_site_fract_y
_atom_site_fract_z
_atom_site_charge
Mof_Ni	Ni	0.39827	0.33333	0.66666	1.105
Mof_Ni	Ni	0.10173	0.33333	0.66666	1.105
Mof_Ni	Ni	0.60173	0.66667	0.33334	1.105
Mof_Ni	Ni	0.89827	0.66667	0.33334	1.105
Mof_H 	H 	0.112	0.0668	0.4947	0.097
Mof_H 	H 	0.0876	0.7833	0.4187	-0.009
Mof_H 	H 	0.8474	0.7772	0.2143	0.085
Mof_H 	H 	0.8364	0.8958	0.1835	0.032
Mof_H 	H 	0.9447	0.0155	0.2451	0.041
Mof_H 	H 	0.0639	0.0251	0.3464	0.065
Mof_H 	H 	0.112	0.4279	0.9332	0.096
Mof_H 	H 	0.0876	0.6354	0.2167	-0.01
Mof_H 	H 	0.8474	0.4371	0.2228	0.084
Mof_H 	H 	0.8364	0.2877	0.1042	0.031
Mof_H 	H 	0.9447	0.2296	0.9845	0.041
Mof_H 	H 	0.0639	0.3213	0.9749	0.065
Mof_H 	H 	0.112	0.5053	0.5721	0.096
Mof_H 	H 	0.0876	0.5813	0.3646	-0.01
Mof_H 	H 	0.8474	0.7857	0.5629	0.085
Mof_H 	H 	0.8364	0.8165	0.7123	0.03
Mof_H 	H 	0.9447	0.7549	0.7704	0.042
Mof_H 	H 	0.0639	0.6536	0.6787	0.063
Mof_H 	H 	0.388	0.4279	0.4947	0.096
Mof_H 	H 	0.4124	0.6354	0.4187	-0.01
Mof_H 	H 	0.6526	0.4371	0.2143	0.085
Mof_H 	H 	0.6636	0.2877	0.1835	0.03
Mof_H 	H 	0.5553	0.2296	0.2451	0.042
Mof_H 	H 	0.4361	0.3213	0.3464	0.063
Mof_H 	H 	0.388	0.5053	0.9332	0.096
Mof_H 	H 	0.4124	0.5813	0.2167	-0.01
Mof_H 	H 	0.6526	0.7857	0.2228	0.084
Mof_H 	H 	0.6636	0.8165	0.1042	0.03
Mof_H 	H 	0.5553	0.7549	0.9845	0.042
Mof_H 	H 	0.4361	0.6536	0.9749	0.063
Mof_H 	H 	0.388	0.0668	0.5721	0.096
Mof_H 	H 	0.4124	0.7833	0.3646	-0.01
Mof_H 	H 	0.6526	0.7772	0.5629	0.084
Mof_H 	H 	0.6636	0.8958	0.7123	0.03
Mof_H 	H 	0.5553	0.0155	0.7704	0.042
Mof_H 	H 	0.4361	0.0251	0.6787	0.063
Mof_H 	H 	0.888	0.9332	0.5053	0.096
Mof_H 	H 	0.9124	0.2167	0.5813	-0.01
Mof_H 	H 	0.1526	0.2228	0.7857	0.084
Mof_H 	H 	0.1636	0.1042	0.8165	0.031
Mof_H 	H 	0.0553	0.9845	0.7549	0.041
Mof_H 	H 	0.9361	0.9749	0.6536	0.065
Mof_H 	H 	0.888	0.5721	0.0668	0.096
Mof_H 	H 	0.9124	0.3646	0.7833	-0.01
Mof_H 	H 	0.1526	0.5629	0.7772	0.084
Mof_H 	H 	0.1636	0.7123	0.8958	0.031
Mof_H 	H 	0.0553	0.7704	0.0155	0.041
Mof_H 	H 	0.9361	0.6787	0.0251	0.065
Mof_H 	H 	0.888	0.4947	0.4279	0.096
Mof_H 	H 	0.9124	0.4187	0.6354	-0.01
Mof_H 	H 	0.1526	0.2143	0.4371	0.085
Mof_H 	H 	0.1636	0.1835	0.2877	0.03
Mof_H 	H 	0.0553	0.2451	0.2296	0.042
Mof_H 	H 	0.9361	0.3464	0.3213	0.063
Mof_H 	H 	0.612	0.5721	0.5053	0.096
Mof_H 	H 	0.5876	0.3646	0.5813	-0.01
Mof_H 	H 	0.3474	0.5629	0.7857	0.085
Mof_H 	H 	0.3364	0.7123	0.8165	0.03
Mof_H 	H 	0.4447	0.7704	0.7549	0.042
Mof_H 	H 	0.5639	0.6787	0.6536	0.063
Mof_H 	H 	0.612	0.4947	0.0668	0.096
Mof_H 	H 	0.5876	0.4187	0.7833	-0.01
Mof_H 	H 	0.3474	0.2143	0.7772	0.084
Mof_H 	H 	0.3364	0.1835	0.8958	0.03
Mof_H 	H 	0.4447	0.2451	0.0155	0.042
Mof_H 	H 	0.5639	0.3464	0.0251	0.063
Mof_H 	H 	0.612	0.9332	0.4279	0.096
Mof_H 	H 	0.5876	0.2167	0.6354	-0.01
Mof_H 	H 	0.3474	0.2228	0.4371	0.084
Mof_H 	H 	0.3364	0.1042	0.2877	0.03
Mof_H 	H 	0.4447	0.9845	0.2296	0.042
Mof_H 	H 	0.5639	0.9749	0.3213	0.063
Mof_H 	H 	0.25	0.8299	0.41495	0.109
Mof_H 	H 	0.25	0.58505	0.1701	0.109
Mof_H 	H 	0.25	0.58505	0.41495	0.109
Mof_H 	H 	0.75	0.1701	0.58505	0.109
Mof_H 	H 	0.75	0.41495	0.8299	0.109
Mof_H 	H 	0.75	0.41495	0.58505	0.109
Mof_C 	C 	0.1673	0.03534	0.49398	-0.144
Mof_C 	C 	0.16885	0.94147	0.44627	0.16
Mof_C 	C 	0.05757	0.8094	0.38818	0.092
Mof_C 	C 	0.9615	0.8316	0.30136	0.07
Mof_C 	C 	0.8898	0.8262	0.2409	-0.115
Mof_C 	C 	0.8845	0.8969	0.2223	-0.008
Mof_C 	C 	0.9495	0.9701	0.2605	-0.032
Mof_C 	C 	0.021	0.9764	0.3207	-0.088
Mof_C 	C 	0.0254	0.9066	0.3408	0.058
Mof_C 	C 	0.1673	0.45864	0.96466	-0.144
Mof_C 	C 	0.16885	0.5048	0.05853	0.16
Mof_C 	C 	0.05757	0.57878	0.1906	0.092
Mof_C 	C 	0.9615	0.46976	0.1684	0.07
Mof_C 	C 	0.8898	0.4147	0.1738	-0.115
Mof_C 	C 	0.8845	0.3254	0.1031	-0.008
Mof_C 	C 	0.9495	0.2904	0.0299	-0.033
Mof_C 	C 	0.021	0.3443	0.0236	-0.087
Mof_C 	C 	0.0254	0.4342	0.0934	0.058
Mof_C 	C 	0.1673	0.50602	0.54136	-0.145
Mof_C 	C 	0.16885	0.55373	0.4952	0.161
Mof_C 	C 	0.05757	0.61182	0.42122	0.092
Mof_C 	C 	0.9615	0.69864	0.53024	0.07
Mof_C 	C 	0.8898	0.7591	0.5853	-0.116
Mof_C 	C 	0.8845	0.7777	0.6746	-0.006
Mof_C 	C 	0.9495	0.7395	0.7096	-0.036
Mof_C 	C 	0.021	0.6793	0.6557	-0.084
Mof_C 	C 	0.0254	0.6592	0.5658	0.057
Mof_C 	C 	0.3327	0.45864	0.49398	-0.145
Mof_C 	C 	0.33115	0.5048	0.44627	0.161
Mof_C 	C 	0.44243	0.57878	0.38818	0.092
Mof_C 	C 	0.5385	0.46976	0.30136	0.07
Mof_C 	C 	0.6102	0.4147	0.2409	-0.116
Mof_C 	C 	0.6155	0.3254	0.2223	-0.006
Mof_C 	C 	0.5505	0.2904	0.2605	-0.036
Mof_C 	C 	0.479	0.3443	0.3207	-0.084
Mof_C 	C 	0.4746	0.4342	0.3408	0.057
Mof_C 	C 	0.3327	0.50602	0.96466	-0.144
Mof_C 	C 	0.33115	0.55373	0.05853	0.16
Mof_C 	C 	0.44243	0.61182	0.1906	0.092
Mof_C 	C 	0.5385	0.69864	0.1684	0.07
Mof_C 	C 	0.6102	0.7591	0.1738	-0.116
Mof_C 	C 	0.6155	0.7777	0.1031	-0.006
Mof_C 	C 	0.5505	0.7395	0.0299	-0.036
Mof_C 	C 	0.479	0.6793	0.0236	-0.084
Mof_C 	C 	0.4746	0.6592	0.0934	0.057
Mof_C 	C 	0.3327	0.03534	0.54136	-0.144
Mof_C 	C 	0.33115	0.94147	0.4952	0.16
Mof_C 	C 	0.44243	0.8094	0.42122	0.092
Mof_C 	C 	0.5385	0.8316	0.53024	0.07
Mof_C 	C 	0.6102	0.8262	0.5853	-0.116
Mof_C 	C 	0.6155	0.8969	0.6746	-0.006
Mof_C 	C 	0.5505	0.9701	0.7096	-0.036
Mof_C 	C 	0.479	0.9764	0.6557	-0.084
Mof_C 	C 	0.4746	0.9066	0.5658	0.057
Mof_C 	C 	0.8327	0.96466	0.50602	-0.144
Mof_C 	C 	0.83115	0.05853	0.55373	0.16
Mof_C 	C 	0.94243	0.1906	0.61182	0.092
Mof_C 	C 	0.0385	0.1684	0.69864	0.07
Mof_C 	C 	0.1102	0.1738	0.7591	-0.115
Mof_C 	C 	0.1155	0.1031	0.7777	-0.008
Mof_C 	C 	0.0505	0.0299	0.7395	-0.032
Mof_C 	C 	0.979	0.0236	0.6793	-0.088
Mof_C 	C 	0.9746	0.0934	0.6592	0.058
Mof_C 	C 	0.8327	0.54136	0.03534	-0.144
Mof_C 	C 	0.83115	0.4952	0.94147	0.16
Mof_C 	C 	0.94243	0.42122	0.8094	0.092
Mof_C 	C 	0.0385	0.53024	0.8316	0.07
Mof_C 	C 	0.1102	0.5853	0.8262	-0.115
Mof_C 	C 	0.1155	0.6746	0.8969	-0.008
Mof_C 	C 	0.0505	0.7096	0.9701	-0.033
Mof_C 	C 	0.979	0.6557	0.9764	-0.087
Mof_C 	C 	0.9746	0.5658	0.9066	0.058
Mof_C 	C 	0.8327	0.49398	0.45864	-0.145
Mof_C 	C 	0.83115	0.44627	0.5048	0.161
Mof_C 	C 	0.94243	0.38818	0.57878	0.092
Mof_C 	C 	0.0385	0.30136	0.46976	0.07
Mof_C 	C 	0.1102	0.2409	0.4147	-0.116
Mof_C 	C 	0.1155	0.2223	0.3254	-0.006
Mof_C 	C 	0.0505	0.2605	0.2904	-0.036
Mof_C 	C 	0.979	0.3207	0.3443	-0.084
Mof_C 	C 	0.9746	0.3408	0.4342	0.057
Mof_C 	C 	0.6673	0.54136	0.50602	-0.145
Mof_C 	C 	0.66885	0.4952	0.55373	0.161
Mof_C 	C 	0.55757	0.42122	0.61182	0.092
Mof_C 	C 	0.4615	0.53024	0.69864	0.07
Mof_C 	C 	0.3898	0.5853	0.7591	-0.116
Mof_C 	C 	0.3845	0.6746	0.7777	-0.006
Mof_C 	C 	0.4495	0.7096	0.7395	-0.036
Mof_C 	C 	0.521	0.6557	0.6793	-0.084
Mof_C 	C 	0.5254	0.5658	0.6592	0.057
Mof_C 	C 	0.6673	0.49398	0.03534	-0.144
Mof_C 	C 	0.66885	0.44627	0.94147	0.16
Mof_C 	C 	0.55757	0.38818	0.8094	0.092
Mof_C 	C 	0.4615	0.30136	0.8316	0.07
Mof_C 	C 	0.3898	0.2409	0.8262	-0.116
Mof_C 	C 	0.3845	0.2223	0.8969	-0.006
Mof_C 	C 	0.4495	0.2605	0.9701	-0.036
Mof_C 	C 	0.521	0.3207	0.9764	-0.084
Mof_C 	C 	0.5254	0.3408	0.9066	0.057
Mof_C 	C 	0.6673	0.96466	0.45864	-0.144
Mof_C 	C 	0.66885	0.05853	0.5048	0.16
Mof_C 	C 	0.55757	0.1906	0.57878	0.092
Mof_C 	C 	0.4615	0.1684	0.46976	0.07
Mof_C 	C 	0.3898	0.1738	0.4147	-0.116
Mof_C 	C 	0.3845	0.1031	0.3254	-0.006
Mof_C 	C 	0.4495	0.0299	0.2904	-0.036
Mof_C 	C 	0.521	0.0236	0.3443	-0.084
Mof_C 	C 	0.5254	0.0934	0.4342	0.057
Mof_C 	C 	0.25	0.1848	0.5924	0.326
Mof_C 	C 	0.25	0.0824	0.5412	0.011
Mof_C 	C 	0.25	0.8932	0.4466	-0.212
Mof_C 	C 	0.25	0.4076	0.8152	0.326
Mof_C 	C 	0.25	0.4588	0.9176	0.011
Mof_C 	C 	0.25	0.5534	0.1068	-0.212
Mof_C 	C 	0.25	0.4076	0.5924	0.326
Mof_C 	C 	0.25	0.4588	0.5412	0.012
Mof_C 	C 	0.25	0.5534	0.4466	-0.213
Mof_C 	C 	0.75	0.8152	0.4076	0.326
Mof_C 	C 	0.75	0.9176	0.4588	0.011
Mof_C 	C 	0.75	0.1068	0.5534	-0.212
Mof_C 	C 	0.75	0.5924	0.1848	0.326
Mof_C 	C 	0.75	0.5412	0.0824	0.011
Mof_C 	C 	0.75	0.4466	0.8932	-0.212
Mof_C 	C 	0.75	0.5924	0.4076	0.326
Mof_C 	C 	0.75	0.5412	0.4588	0.012
Mof_C 	C 	0.75	0.4466	0.5534	-0.213
Mof_N 	N 	0.08583	0.89055	0.39654	-0.156
Mof_N 	N 	0.98406	0.77193	0.3331	-0.223
Mof_N 	N 	0.08583	0.50599	0.10945	-0.156
Mof_N 	N 	0.98406	0.56117	0.22807	-0.223
Mof_N 	N 	0.08583	0.60346	0.49401	-0.156
Mof_N 	N 	0.98406	0.6669	0.43883	-0.224
Mof_N 	N 	0.41417	0.50599	0.39654	-0.156
Mof_N 	N 	0.51594	0.56117	0.3331	-0.224
Mof_N 	N 	0.41417	0.60346	0.10945	-0.156
Mof_N 	N 	0.51594	0.6669	0.22807	-0.224
Mof_N 	N 	0.41417	0.89055	0.49401	-0.156
Mof_N 	N 	0.51594	0.77193	0.43883	-0.224
Mof_N 	N 	0.91417	0.10945	0.60346	-0.156
Mof_N 	N 	0.01594	0.22807	0.6669	-0.223
Mof_N 	N 	0.91417	0.49401	0.89055	-0.156
Mof_N 	N 	0.01594	0.43883	0.77193	-0.223
Mof_N 	N 	0.91417	0.39654	0.50599	-0.156
Mof_N 	N 	0.01594	0.3331	0.56117	-0.224
Mof_N 	N 	0.58583	0.49401	0.60346	-0.156
Mof_N 	N 	0.48406	0.43883	0.6669	-0.224
Mof_N 	N 	0.58583	0.39654	0.89055	-0.156
Mof_N 	N 	0.48406	0.3331	0.77193	-0.224
Mof_N 	N 	0.58583	0.10945	0.50599	-0.156
Mof_N 	N 	0.48406	0.22807	0.56117	-0.224
Mof_O 	O 	0.31936	0.22311	0.64669	-0.405
Mof_O 	O 	0.31936	0.42358	0.77689	-0.405
Mof_O 	O 	0.31936	0.35331	0.57642	-0.405
Mof_O 	O 	0.18064	0.42358	0.64669	-0.405
Mof_O 	O 	0.18064	0.35331	0.77689	-0.405
Mof_O 	O 	0.18064	0.22311	0.57642	-0.405
Mof_O 	O 	0.68064	0.77689	0.35331	-0.405
Mof_O 	O 	0.68064	0.57642	0.22311	-0.405
Mof_O 	O 	0.68064	0.64669	0.42358	-0.405
Mof_O 	O 	0.81936	0.57642	0.35331	-0.405
Mof_O 	O 	0.81936	0.64669	0.22311	-0.405
Mof_O 	O 	0.81936	0.77689	0.42358	-0.405
_end
