data_functionalizedCrystal
_audit_creation_method	'EQeq! by Chris Wilmer'
_symmetry_space_group_name_H-M	'P1'
_symmetry_Int_Tables_number	1
_symmetry_cell_setting	triclinic
loop_
_symmetry_equiv_pos_as_xyz
  x,y,z
_cell_length_a	11.946
_cell_length_b	13.302
_cell_length_c	17.777
_cell_angle_alpha	90
_cell_angle_beta	98.35
_cell_angle_gamma	90
loop_
_atom_site_label
_atom_site_type_symbol
_atom_site_fract_x
_atom_site_fract_y
_atom_site_fract_z
_atom_site_charge
Mof_Zn	Zn	0.67246	0.54085	0.20304	1.172
Mof_Cu	Cu	0.04136	0.67703	0.44284	0.845
Mof_N 	N 	0.6539	0.4254	0.1326	-0.301
Mof_N 	N 	0.5664	0.2895	0.0754	-0.233
Mof_N 	N 	0.563	0.5262	0.2767	-0.295
Mof_N 	N 	0.4974	0.5118	0.388	-0.236
Mof_N 	N 	0.8261	0.5536	0.2632	-0.298
Mof_N 	N 	0.967	0.6082	0.3494	-0.211
Mof_N 	N 	0.1593	0.5712	0.458	-0.243
Mof_N 	N 	0.333	0.508	0.4844	-0.239
Mof_N 	N 	0.0929	0.7277	0.5474	-0.24
Mof_N 	N 	0.1433	0.8339	0.6431	-0.294
Mof_C 	C 	0.5764	0.3542	0.1335	0.087
Mof_H 	H 	0.5319	0.3496	0.1721	-0.056
Mof_C 	C 	0.6971	0.4061	0.0683	0.028
Mof_H 	H 	0.7539	0.4427	0.0502	-0.023
Mof_C 	C 	0.6438	0.3242	0.0341	-0.075
Mof_H 	H 	0.6589	0.2962	0.9887	0.048
Mof_C 	C 	0.5861	0.5153	0.3504	0.094
Mof_H 	H 	0.66	0.5102	0.3751	-0.041
Mof_C 	C 	0.4492	0.5259	0.2641	0.005
Mof_H 	H 	0.4052	0.5318	0.2166	-0.013
Mof_C 	C 	0.4084	0.516	0.3302	-0.024
Mof_H 	H 	0.3323	0.5125	0.3359	0.017
Mof_C 	C 	0.8555	0.6091	0.3251	0.09
Mof_H 	H 	0.8039	0.6448	0.3491	-0.043
Mof_C 	C 	0.9242	0.5156	0.2469	0.054
Mof_H 	H 	0.9317	0.4741	0.2058	-0.023
Mof_C 	C 	0.0103	0.5472	0.2996	-0.084
Mof_H 	H 	0.0861	0.53	0.3013	0.033
Mof_C 	C 	0.2693	0.5893	0.4742	0.098
Mof_H 	H 	0.2991	0.654	0.478	-0.053
Mof_C 	C 	0.1514	0.4696	0.4584	0.001
Mof_H 	H 	0.0847	0.4327	0.4493	-0.02
Mof_C 	C 	0.2573	0.4307	0.4743	-0.018
Mof_H 	H 	0.2752	0.3626	0.4778	0.002
Mof_C 	C 	0.1026	0.8226	0.5704	0.093
Mof_H 	H 	0.0825	0.8767	0.538	-0.048
Mof_C 	C 	0.1298	0.6735	0.6113	-0.015
Mof_H 	H 	0.134	0.6037	0.6143	0.01
Mof_C 	C 	0.1589	0.7375	0.6688	-0.007
Mof_H 	H 	0.1855	0.7192	0.7187	-0.011
Mof_Zn	Zn	0.82754	0.04085	0.29696	1.167
Mof_Cu	Cu	0.45864	0.17703	0.05716	0.844
Mof_N 	N 	0.8461	0.9254	0.3674	-0.287
Mof_N 	N 	0.9336	0.7895	0.4246	-0.233
Mof_N 	N 	0.937	0.0262	0.2233	-0.291
Mof_N 	N 	0.0026	0.0118	0.112	-0.257
Mof_N 	N 	0.6739	0.0536	0.2368	-0.284
Mof_N 	N 	0.533	0.1082	0.1506	-0.243
Mof_N 	N 	0.3407	0.0712	0.042	-0.258
Mof_N 	N 	0.167	0.008	0.0156	-0.259
Mof_N 	N 	0.4071	0.2277	0.9526	-0.228
Mof_N 	N 	0.3567	0.3339	0.8569	-0.294
Mof_C 	C 	0.9236	0.8542	0.3665	0.091
Mof_H 	H 	0.9681	0.8496	0.3279	-0.043
Mof_C 	C 	0.8029	0.9061	0.4317	0.001
Mof_H 	H 	0.7461	0.9427	0.4498	-0.001
Mof_C 	C 	0.8562	0.8242	0.4659	-0.001
Mof_H 	H 	0.8411	0.7962	0.5113	0.01
Mof_C 	C 	0.9139	0.0153	0.1496	0.111
Mof_H 	H 	0.84	0.0102	0.1249	-0.058
Mof_C 	C 	0.0508	0.0259	0.2359	-0.024
Mof_H 	H 	0.0948	0.0318	0.2834	-0.01
Mof_C 	C 	0.0916	0.016	0.1698	-0.019
Mof_H 	H 	0.1677	0.0125	0.1641	0.011
Mof_C 	C 	0.6445	0.1091	0.1749	0.084
Mof_H 	H 	0.6961	0.1448	0.1509	-0.045
Mof_C 	C 	0.5758	0.0156	0.2531	-0.066
Mof_H 	H 	0.5683	0.9741	0.2942	0.033
Mof_C 	C 	0.4897	0.0472	0.2004	0.016
Mof_H 	H 	0.4139	0.03	0.1987	-0.005
Mof_C 	C 	0.2307	0.0893	0.0258	0.09
Mof_H 	H 	0.2009	0.154	0.022	-0.063
Mof_C 	C 	0.3486	0.9696	0.0416	0.02
Mof_H 	H 	0.4153	0.9327	0.0507	-0.019
Mof_C 	C 	0.2427	0.9307	0.0257	-0.005
Mof_H 	H 	0.2248	0.8626	0.0222	-0.006
Mof_C 	C 	0.3974	0.3226	0.9296	0.096
Mof_H 	H 	0.4175	0.3767	0.962	-0.039
Mof_C 	C 	0.3702	0.1735	0.8887	-0.011
Mof_H 	H 	0.366	0.1037	0.8857	0.009
Mof_C 	C 	0.3411	0.2375	0.8312	-0.007
Mof_H 	H 	0.3145	0.2192	0.7813	-0.013
Mof_Zn	Zn	0.32754	0.45915	0.79696	1.171
Mof_Cu	Cu	0.95864	0.32297	0.55716	0.861
Mof_N 	N 	0.3461	0.5746	0.8674	-0.29
Mof_N 	N 	0.4336	0.7105	0.9246	-0.246
Mof_N 	N 	0.437	0.4738	0.7233	-0.295
Mof_N 	N 	0.5026	0.4882	0.612	-0.237
Mof_N 	N 	0.1739	0.4464	0.7368	-0.283
Mof_N 	N 	0.033	0.3918	0.6506	-0.257
Mof_N 	N 	0.8407	0.4288	0.542	-0.239
Mof_N 	N 	0.667	0.492	0.5156	-0.239
Mof_N 	N 	0.9071	0.2723	0.4526	-0.234
Mof_N 	N 	0.8567	0.1661	0.3569	-0.296
Mof_C 	C 	0.4236	0.6458	0.8665	0.088
Mof_H 	H 	0.4681	0.6504	0.8279	-0.052
Mof_C 	C 	0.3029	0.5939	0.9317	-0.033
Mof_H 	H 	0.2461	0.5573	0.9498	0.008
Mof_C 	C 	0.3562	0.6758	0.9659	0.06
Mof_H 	H 	0.3411	0.7038	0.0113	-0.035
Mof_C 	C 	0.4139	0.4847	0.6496	0.094
Mof_H 	H 	0.34	0.4898	0.6249	-0.041
Mof_C 	C 	0.5508	0.4741	0.7359	0.005
Mof_H 	H 	0.5948	0.4682	0.7834	-0.007
Mof_C 	C 	0.5916	0.484	0.6698	-0.022
Mof_H 	H 	0.6677	0.4875	0.6641	0.021
Mof_C 	C 	0.1445	0.3909	0.6749	0.086
Mof_H 	H 	0.1961	0.3552	0.6509	-0.044
Mof_C 	C 	0.0758	0.4844	0.7531	-0.053
Mof_H 	H 	0.0683	0.5259	0.7942	0.007
Mof_C 	C 	0.9897	0.4528	0.7004	0.056
Mof_H 	H 	0.9139	0.47	0.6987	-0.005
Mof_C 	C 	0.7307	0.4107	0.5258	0.099
Mof_H 	H 	0.7009	0.346	0.522	-0.055
Mof_C 	C 	0.8486	0.5304	0.5416	0.003
Mof_H 	H 	0.9153	0.5673	0.5507	-0.007
Mof_C 	C 	0.7427	0.5693	0.5257	-0.015
Mof_H 	H 	0.7248	0.6374	0.5222	0.004
Mof_C 	C 	0.8974	0.1774	0.4296	0.097
Mof_H 	H 	0.9175	0.1233	0.462	-0.048
Mof_C 	C 	0.8702	0.3265	0.3887	-0.012
Mof_H 	H 	0.866	0.3963	0.3857	0.015
Mof_C 	C 	0.8411	0.2625	0.3312	-0.003
Mof_H 	H 	0.8145	0.2808	0.2813	-0.011
Mof_Zn	Zn	0.17246	0.95915	0.70304	1.174
Mof_Cu	Cu	0.54136	0.82297	0.94284	0.861
Mof_N 	N 	0.1539	0.0746	0.6326	-0.303
Mof_N 	N 	0.0664	0.2105	0.5754	-0.246
Mof_N 	N 	0.063	0.9738	0.7767	-0.303
Mof_N 	N 	0.9974	0.9882	0.888	-0.203
Mof_N 	N 	0.3261	0.9464	0.7632	-0.296
Mof_N 	N 	0.467	0.8918	0.8494	-0.228
Mof_N 	N 	0.6593	0.9288	0.958	-0.227
Mof_N 	N 	0.833	0.992	0.9844	-0.21
Mof_N 	N 	0.5929	0.7723	0.0474	-0.244
Mof_N 	N 	0.6433	0.6661	0.1431	-0.296
Mof_C 	C 	0.0764	0.1458	0.6335	0.084
Mof_H 	H 	0.0319	0.1504	0.6721	-0.064
Mof_C 	C 	0.1971	0.0939	0.5683	-0.006
Mof_H 	H 	0.2539	0.0573	0.5502	-0.014
Mof_C 	C 	0.1438	0.1758	0.5341	-0.01
Mof_H 	H 	0.1589	0.2038	0.4887	0.002
Mof_C 	C 	0.0861	0.9847	0.8504	0.07
Mof_H 	H 	0.16	0.9898	0.8751	-0.023
Mof_C 	C 	0.9492	0.9741	0.7641	0.044
Mof_H 	H 	0.9052	0.9682	0.7166	-0.012
Mof_C 	C 	0.9084	0.984	0.8302	-0.03
Mof_H 	H 	0.8323	0.9875	0.8359	0.03
Mof_C 	C 	0.3555	0.8909	0.8251	0.091
Mof_H 	H 	0.3039	0.8552	0.8491	-0.042
Mof_C 	C 	0.4242	0.9844	0.7469	0.055
Mof_H 	H 	0.4317	0.0259	0.7058	-0.043
Mof_C 	C 	0.5103	0.9528	0.7996	-0.035
Mof_H 	H 	0.5861	0.97	0.8013	0.029
Mof_C 	C 	0.7693	0.9107	0.9742	0.106
Mof_H 	H 	0.7991	0.846	0.978	-0.043
Mof_C 	C 	0.6514	0.0304	0.9584	-0.013
Mof_H 	H 	0.5847	0.0673	0.9493	-0.008
Mof_C 	C 	0.7573	0.0693	0.9743	-0.03
Mof_H 	H 	0.7752	0.1374	0.9778	0.015
Mof_C 	C 	0.6026	0.6774	0.0704	0.095
Mof_H 	H 	0.5825	0.6233	0.038	-0.055
Mof_C 	C 	0.6298	0.8265	0.1113	-0.015
Mof_H 	H 	0.634	0.8963	0.1143	0.019
Mof_C 	C 	0.6589	0.7625	0.1688	-0.002
Mof_H 	H 	0.6855	0.7808	0.2187	-0.009
Mof_Cu	Cu	0.5	0.5	0.5	0.851
Mof_Cu	Cu	-0	0	-0	0.821
_end
