# CIF file generated by openbabel 3.1.0, see https://openbabel.org
data_I
_chemical_name_common 'image0'
_cell_length_a 27.55
_cell_length_b 13.281
_cell_length_c 20.356
_cell_angle_alpha 90
_cell_angle_beta 97.03
_cell_angle_gamma 90
_space_group_name_H-M_alt 'P 1'
_space_group_name_Hall 'P 1'
loop_
    _symmetry_equiv_pos_as_xyz
    x,y,z
loop_
    _atom_site_label
    _atom_site_type_symbol
    _atom_site_fract_x
    _atom_site_fract_y
    _atom_site_fract_z
    _atom_site_occupancy
    Mo1      Mo       0.85686    0.47143    0.86109    1.000
    Cu1      Cu       0.78812    0.42052    0.76046    1.000
    Cu2      Cu       0.80964    0.64943    0.86923    1.000
    Cu3      Cu       0.91189    0.54552    0.77150    1.000
    S1       S        0.87063    0.39560    0.76608    1.000
    S2       S        0.89240    0.62512    0.86395    1.000
    S3       S        0.77500    0.49139    0.85948    1.000
    N1       N        0.76740    0.52880    0.68310    1.000
    N2       N        0.81890    0.70770    0.96870    1.000
    N3       N        0.61480    0.86480    0.30810    1.000
    N4       N        0.74830    0.31220    0.71560    1.000
    C1       C        0.72610    0.25330    0.68280    1.000
    C2       C        0.67100    0.73910    0.35770    1.000
    C3       C        0.73410    0.59950    0.68820    1.000
    H1       H        0.75940    0.65310    0.69840    1.000
    C4       C        0.64920    0.79480    0.30450    1.000
    H2       H        0.65950    0.78230    0.26240    1.000
    C5       C        0.84630    0.65800    0.01740    1.000
    H3       H        0.85680    0.59170    0.00880    1.000
    C6       C        0.85990    0.69920    0.08000    1.000
    C7       C        0.77870    0.50700    0.62310    1.000
    H4       H        0.80320    0.45740    0.61980    1.000
    C8       C        0.59990    0.88030    0.36750    1.000
    H5       H        0.57560    0.92980    0.37140    1.000
    C9       C        0.80420    0.79950    0.98120    1.000
    H6       H        0.78440    0.83440    0.94710    1.000
    C10      C        0.75730    0.55200    0.56470    1.000
    H7       H        0.73600    0.49570    0.54530    1.000
    C11      C        0.97950    0.52410    0.75580    1.000
    N5       N        0.01910    0.54020    0.74250    1.000
    C12      C        0.83830    0.75610    0.58740    1.000
    C13      C        0.68620    0.69470    0.52960    1.000
    C14      C        0.79140    0.84390    0.50400    1.000
    C15      C        0.70700    0.65750    0.64340    1.000
    C16      C        0.61880    0.82680    0.42390    1.000
    C17      C        0.77050    0.88220    0.43990    1.000
    C18      C        0.66960    0.71870    0.48890    1.000
    C19      C        0.81610    0.84820    0.04200    1.000
    C20      C        0.64640    0.77070    0.42550    1.000
    C21      C        0.80840    0.81830    0.53350    1.000
    C22      C        0.78360    0.85550    0.38150    1.000
    C23      C        0.71320    0.63780    0.58310    1.000
    Mo2      Mo       0.35686    0.97143    0.86109    1.000
    Cu4      Cu       0.28812    0.92052    0.76046    1.000
    Cu5      Cu       0.30964    0.14943    0.86923    1.000
    Cu6      Cu       0.41189    0.04552    0.77150    1.000
    S4       S        0.37063    0.89560    0.76608    1.000
    S5       S        0.39240    0.12512    0.86395    1.000
    S6       S        0.27500    0.99139    0.85948    1.000
    N6       N        0.26740    0.02880    0.68310    1.000
    N7       N        0.31890    0.20770    0.96870    1.000
    N8       N        0.11480    0.36480    0.30810    1.000
    N9       N        0.24830    0.81220    0.71560    1.000
    C24      C        0.22610    0.75330    0.68280    1.000
    C25      C        0.17100    0.23910    0.35770    1.000
    C26      C        0.23410    0.09950    0.68820    1.000
    H8       H        0.25940    0.15310    0.69840    1.000
    C27      C        0.14920    0.29480    0.30450    1.000
    H9       H        0.15950    0.28230    0.26240    1.000
    C28      C        0.34630    0.15800    0.01740    1.000
    H10      H        0.35680    0.09170    0.00880    1.000
    C29      C        0.35990    0.19920    0.08000    1.000
    C30      C        0.27870    0.00700    0.62310    1.000
    H11      H        0.30320    0.95740    0.61980    1.000
    C31      C        0.09990    0.38030    0.36750    1.000
    H12      H        0.07560    0.42980    0.37140    1.000
    C32      C        0.30420    0.29950    0.98120    1.000
    H13      H        0.28440    0.33440    0.94710    1.000
    C33      C        0.25730    0.05200    0.56470    1.000
    H14      H        0.23600    0.99570    0.54530    1.000
    C34      C        0.47950    0.02410    0.75580    1.000
    N10      N        0.51910    0.04020    0.74250    1.000
    C35      C        0.33830    0.25610    0.58740    1.000
    C36      C        0.18620    0.19470    0.52960    1.000
    C37      C        0.29140    0.34390    0.50400    1.000
    C38      C        0.20700    0.15750    0.64340    1.000
    C39      C        0.11880    0.32680    0.42390    1.000
    C40      C        0.27050    0.38220    0.43990    1.000
    C41      C        0.16960    0.21870    0.48890    1.000
    C42      C        0.31610    0.34820    0.04200    1.000
    C43      C        0.14640    0.27070    0.42550    1.000
    C44      C        0.30840    0.31830    0.53350    1.000
    C45      C        0.28360    0.35550    0.38150    1.000
    C46      C        0.21320    0.13780    0.58310    1.000
    Mo3      Mo       0.14314    0.47143    0.63891    1.000
    Cu7      Cu       0.21188    0.42052    0.73954    1.000
    Cu8      Cu       0.19036    0.64943    0.63077    1.000
    Cu9      Cu       0.08811    0.54552    0.72850    1.000
    S7       S        0.12937    0.39560    0.73392    1.000
    S8       S        0.10760    0.62512    0.63605    1.000
    S9       S        0.22500    0.49139    0.64052    1.000
    N11      N        0.23260    0.52880    0.81690    1.000
    N12      N        0.18110    0.70770    0.53130    1.000
    N13      N        0.38520    0.86480    0.19190    1.000
    N14      N        0.25170    0.31220    0.78440    1.000
    C47      C        0.27390    0.25330    0.81720    1.000
    C48      C        0.32900    0.73910    0.14230    1.000
    C49      C        0.26590    0.59950    0.81180    1.000
    H15      H        0.24060    0.65310    0.80160    1.000
    C50      C        0.35080    0.79480    0.19550    1.000
    H16      H        0.34050    0.78230    0.23760    1.000
    C51      C        0.15370    0.65800    0.48260    1.000
    H17      H        0.14320    0.59170    0.49120    1.000
    C52      C        0.14010    0.69920    0.42000    1.000
    C53      C        0.22130    0.50700    0.87690    1.000
    H18      H        0.19680    0.45740    0.88020    1.000
    C54      C        0.40010    0.88030    0.13250    1.000
    H19      H        0.42440    0.92980    0.12860    1.000
    C55      C        0.19580    0.79950    0.51880    1.000
    H20      H        0.21560    0.83440    0.55290    1.000
    C56      C        0.24270    0.55200    0.93530    1.000
    H21      H        0.26400    0.49570    0.95470    1.000
    C57      C        0.02050    0.52410    0.74420    1.000
    N15      N        0.98090    0.54020    0.75750    1.000
    C58      C        0.16170    0.75610    0.91260    1.000
    C59      C        0.31380    0.69470    0.97040    1.000
    C60      C        0.20860    0.84390    0.99600    1.000
    C61      C        0.29300    0.65750    0.85660    1.000
    C62      C        0.38120    0.82680    0.07610    1.000
    C63      C        0.22950    0.88220    0.06010    1.000
    C64      C        0.33040    0.71870    0.01110    1.000
    C65      C        0.18390    0.84820    0.45800    1.000
    C66      C        0.35360    0.77070    0.07450    1.000
    C67      C        0.19160    0.81830    0.96650    1.000
    C68      C        0.21640    0.85550    0.11850    1.000
    C69      C        0.28680    0.63780    0.91690    1.000
    Mo4      Mo       0.64314    0.97143    0.63891    1.000
    Cu10     Cu       0.71188    0.92052    0.73954    1.000
    Cu11     Cu       0.69036    0.14943    0.63077    1.000
    Cu12     Cu       0.58811    0.04552    0.72850    1.000
    S10      S        0.62937    0.89560    0.73392    1.000
    S11      S        0.60760    0.12512    0.63605    1.000
    S12      S        0.72500    0.99139    0.64052    1.000
    N16      N        0.73260    0.02880    0.81690    1.000
    N17      N        0.68110    0.20770    0.53130    1.000
    N18      N        0.88520    0.36480    0.19190    1.000
    N19      N        0.75170    0.81220    0.78440    1.000
    C70      C        0.77390    0.75330    0.81720    1.000
    C71      C        0.82900    0.23910    0.14230    1.000
    C72      C        0.76590    0.09950    0.81180    1.000
    H22      H        0.74060    0.15310    0.80160    1.000
    C73      C        0.85080    0.29480    0.19550    1.000
    H23      H        0.84050    0.28230    0.23760    1.000
    C74      C        0.65370    0.15800    0.48260    1.000
    H24      H        0.64320    0.09170    0.49120    1.000
    C75      C        0.64010    0.19920    0.42000    1.000
    C76      C        0.72130    0.00700    0.87690    1.000
    H25      H        0.69680    0.95740    0.88020    1.000
    C77      C        0.90010    0.38030    0.13250    1.000
    H26      H        0.92440    0.42980    0.12860    1.000
    C78      C        0.69580    0.29950    0.51880    1.000
    H27      H        0.71560    0.33440    0.55290    1.000
    C79      C        0.74270    0.05200    0.93530    1.000
    H28      H        0.76400    0.99570    0.95470    1.000
    C80      C        0.52050    0.02410    0.74420    1.000
    N20      N        0.48090    0.04020    0.75750    1.000
    C81      C        0.66170    0.25610    0.91260    1.000
    C82      C        0.81380    0.19470    0.97040    1.000
    C83      C        0.70860    0.34390    0.99600    1.000
    C84      C        0.79300    0.15750    0.85660    1.000
    C85      C        0.88120    0.32680    0.07610    1.000
    C86      C        0.72950    0.38220    0.06010    1.000
    C87      C        0.83040    0.21870    0.01110    1.000
    C88      C        0.68390    0.34820    0.45800    1.000
    C89      C        0.85360    0.27070    0.07450    1.000
    C90      C        0.69160    0.31830    0.96650    1.000
    C91      C        0.71640    0.35550    0.11850    1.000
    C92      C        0.78680    0.13780    0.91690    1.000
    Mo5      Mo       0.14314    0.52857    0.13891    1.000
    Cu13     Cu       0.21188    0.57948    0.23954    1.000
    Cu14     Cu       0.19036    0.35057    0.13077    1.000
    Cu15     Cu       0.08811    0.45448    0.22850    1.000
    S13      S        0.12937    0.60440    0.23392    1.000
    S14      S        0.10760    0.37488    0.13605    1.000
    S15      S        0.22500    0.50861    0.14052    1.000
    N21      N        0.23260    0.47120    0.31690    1.000
    N22      N        0.18110    0.29230    0.03130    1.000
    N23      N        0.38520    0.13520    0.69190    1.000
    N24      N        0.25170    0.68780    0.28440    1.000
    C93      C        0.27390    0.74670    0.31720    1.000
    C94      C        0.32900    0.26090    0.64230    1.000
    C95      C        0.26590    0.40050    0.31180    1.000
    H29      H        0.24060    0.34690    0.30160    1.000
    C96      C        0.35080    0.20520    0.69550    1.000
    H30      H        0.34050    0.21770    0.73760    1.000
    C97      C        0.15370    0.34200    0.98260    1.000
    H31      H        0.14320    0.40830    0.99120    1.000
    C98      C        0.14010    0.30080    0.92000    1.000
    C99      C        0.22130    0.49300    0.37690    1.000
    H32      H        0.19680    0.54260    0.38020    1.000
    C100     C        0.40010    0.11970    0.63250    1.000
    H33      H        0.42440    0.07020    0.62860    1.000
    C101     C        0.19580    0.20050    0.01880    1.000
    H34      H        0.21560    0.16560    0.05290    1.000
    C102     C        0.24270    0.44800    0.43530    1.000
    H35      H        0.26400    0.50430    0.45470    1.000
    C103     C        0.02050    0.47590    0.24420    1.000
    N25      N        0.98090    0.45980    0.25750    1.000
    C104     C        0.16170    0.24390    0.41260    1.000
    C105     C        0.31380    0.30530    0.47040    1.000
    C106     C        0.20860    0.15610    0.49600    1.000
    C107     C        0.29300    0.34250    0.35660    1.000
    C108     C        0.38120    0.17320    0.57610    1.000
    C109     C        0.22950    0.11780    0.56010    1.000
    C110     C        0.33040    0.28130    0.51110    1.000
    C111     C        0.18390    0.15180    0.95800    1.000
    C112     C        0.35360    0.22930    0.57450    1.000
    C113     C        0.19160    0.18170    0.46650    1.000
    C114     C        0.21640    0.14450    0.61850    1.000
    C115     C        0.28680    0.36220    0.41690    1.000
    Mo6      Mo       0.64314    0.02857    0.13891    1.000
    Cu16     Cu       0.71188    0.07948    0.23954    1.000
    Cu17     Cu       0.69036    0.85057    0.13077    1.000
    Cu18     Cu       0.58811    0.95448    0.22850    1.000
    S16      S        0.62937    0.10440    0.23392    1.000
    S17      S        0.60760    0.87488    0.13605    1.000
    S18      S        0.72500    0.00861    0.14052    1.000
    N26      N        0.73260    0.97120    0.31690    1.000
    N27      N        0.68110    0.79230    0.03130    1.000
    N28      N        0.88520    0.63520    0.69190    1.000
    N29      N        0.75170    0.18780    0.28440    1.000
    C116     C        0.77390    0.24670    0.31720    1.000
    C117     C        0.82900    0.76090    0.64230    1.000
    C118     C        0.76590    0.90050    0.31180    1.000
    H36      H        0.74060    0.84690    0.30160    1.000
    C119     C        0.85080    0.70520    0.69550    1.000
    H37      H        0.84050    0.71770    0.73760    1.000
    C120     C        0.65370    0.84200    0.98260    1.000
    H38      H        0.64320    0.90830    0.99120    1.000
    C121     C        0.64010    0.80080    0.92000    1.000
    C122     C        0.72130    0.99300    0.37690    1.000
    H39      H        0.69680    0.04260    0.38020    1.000
    C123     C        0.90010    0.61970    0.63250    1.000
    H40      H        0.92440    0.57020    0.62860    1.000
    C124     C        0.69580    0.70050    0.01880    1.000
    H41      H        0.71560    0.66560    0.05290    1.000
    C125     C        0.74270    0.94800    0.43530    1.000
    H42      H        0.76400    0.00430    0.45470    1.000
    C126     C        0.52050    0.97590    0.24420    1.000
    N30      N        0.48090    0.95980    0.25750    1.000
    C127     C        0.66170    0.74390    0.41260    1.000
    C128     C        0.81380    0.80530    0.47040    1.000
    C129     C        0.70860    0.65610    0.49600    1.000
    C130     C        0.79300    0.84250    0.35660    1.000
    C131     C        0.88120    0.67320    0.57610    1.000
    C132     C        0.72950    0.61780    0.56010    1.000
    C133     C        0.83040    0.78130    0.51110    1.000
    C134     C        0.68390    0.65180    0.95800    1.000
    C135     C        0.85360    0.72930    0.57450    1.000
    C136     C        0.69160    0.68170    0.46650    1.000
    C137     C        0.71640    0.64450    0.61850    1.000
    C138     C        0.78680    0.86220    0.41690    1.000
    Mo7      Mo       0.85686    0.52857    0.36109    1.000
    Cu19     Cu       0.78812    0.57948    0.26046    1.000
    Cu20     Cu       0.80964    0.35057    0.36923    1.000
    Cu21     Cu       0.91189    0.45448    0.27150    1.000
    S19      S        0.87063    0.60440    0.26608    1.000
    S20      S        0.89240    0.37488    0.36395    1.000
    S21      S        0.77500    0.50861    0.35948    1.000
    N31      N        0.76740    0.47120    0.18310    1.000
    N32      N        0.81890    0.29230    0.46870    1.000
    N33      N        0.61480    0.13520    0.80810    1.000
    N34      N        0.74830    0.68780    0.21560    1.000
    C139     C        0.72610    0.74670    0.18280    1.000
    C140     C        0.67100    0.26090    0.85770    1.000
    C141     C        0.73410    0.40050    0.18820    1.000
    H43      H        0.75940    0.34690    0.19840    1.000
    C142     C        0.64920    0.20520    0.80450    1.000
    H44      H        0.65950    0.21770    0.76240    1.000
    C143     C        0.84630    0.34200    0.51740    1.000
    H45      H        0.85680    0.40830    0.50880    1.000
    C144     C        0.85990    0.30080    0.58000    1.000
    C145     C        0.77870    0.49300    0.12310    1.000
    H46      H        0.80320    0.54260    0.11980    1.000
    C146     C        0.59990    0.11970    0.86750    1.000
    H47      H        0.57560    0.07020    0.87140    1.000
    C147     C        0.80420    0.20050    0.48120    1.000
    H48      H        0.78440    0.16560    0.44710    1.000
    C148     C        0.75730    0.44800    0.06470    1.000
    H49      H        0.73600    0.50430    0.04530    1.000
    C149     C        0.97950    0.47590    0.25580    1.000
    N35      N        0.01910    0.45980    0.24250    1.000
    C150     C        0.83830    0.24390    0.08740    1.000
    C151     C        0.68620    0.30530    0.02960    1.000
    C152     C        0.79140    0.15610    0.00400    1.000
    C153     C        0.70700    0.34250    0.14340    1.000
    C154     C        0.61880    0.17320    0.92390    1.000
    C155     C        0.77050    0.11780    0.93990    1.000
    C156     C        0.66960    0.28130    0.98890    1.000
    C157     C        0.81610    0.15180    0.54200    1.000
    C158     C        0.64640    0.22930    0.92550    1.000
    C159     C        0.80840    0.18170    0.03350    1.000
    C160     C        0.78360    0.14450    0.88150    1.000
    C161     C        0.71320    0.36220    0.08310    1.000
    Mo8      Mo       0.35686    0.02857    0.36109    1.000
    Cu22     Cu       0.28812    0.07948    0.26046    1.000
    Cu23     Cu       0.30964    0.85057    0.36923    1.000
    Cu24     Cu       0.41189    0.95448    0.27150    1.000
    S22      S        0.37063    0.10440    0.26608    1.000
    S23      S        0.39240    0.87488    0.36395    1.000
    S24      S        0.27500    0.00861    0.35948    1.000
    N36      N        0.26740    0.97120    0.18310    1.000
    N37      N        0.31890    0.79230    0.46870    1.000
    N38      N        0.11480    0.63520    0.80810    1.000
    N39      N        0.24830    0.18780    0.21560    1.000
    C162     C        0.22610    0.24670    0.18280    1.000
    C163     C        0.17100    0.76090    0.85770    1.000
    C164     C        0.23410    0.90050    0.18820    1.000
    H50      H        0.25940    0.84690    0.19840    1.000
    C165     C        0.14920    0.70520    0.80450    1.000
    H51      H        0.15950    0.71770    0.76240    1.000
    C166     C        0.34630    0.84200    0.51740    1.000
    H52      H        0.35680    0.90830    0.50880    1.000
    C167     C        0.35990    0.80080    0.58000    1.000
    C168     C        0.27870    0.99300    0.12310    1.000
    H53      H        0.30320    0.04260    0.11980    1.000
    C169     C        0.09990    0.61970    0.86750    1.000
    H54      H        0.07560    0.57020    0.87140    1.000
    C170     C        0.30420    0.70050    0.48120    1.000
    H55      H        0.28440    0.66560    0.44710    1.000
    C171     C        0.25730    0.94800    0.06470    1.000
    H56      H        0.23600    0.00430    0.04530    1.000
    C172     C        0.47950    0.97590    0.25580    1.000
    N40      N        0.51910    0.95980    0.24250    1.000
    C173     C        0.33830    0.74390    0.08740    1.000
    C174     C        0.18620    0.80530    0.02960    1.000
    C175     C        0.29140    0.65610    0.00400    1.000
    C176     C        0.20700    0.84250    0.14340    1.000
    C177     C        0.11880    0.67320    0.92390    1.000
    C178     C        0.27050    0.61780    0.93990    1.000
    C179     C        0.16960    0.78130    0.98890    1.000
    C180     C        0.31610    0.65180    0.54200    1.000
    C181     C        0.14640    0.72930    0.92550    1.000
    C182     C        0.30840    0.68170    0.03350    1.000
    C183     C        0.28360    0.64450    0.88150    1.000
    C184     C        0.21320    0.86220    0.08310    1.000
