# CIF file generated by openbabel 3.1.0, see https://openbabel.org
data_I
_chemical_name_common 'image0'
_cell_length_a 22.3119
_cell_length_b 17.3774
_cell_length_c 10.1854
_cell_angle_alpha 90
_cell_angle_beta 110.295
_cell_angle_gamma 90
_space_group_name_H-M_alt 'P 1'
_space_group_name_Hall 'P 1'
loop_
    _symmetry_equiv_pos_as_xyz
    x,y,z
loop_
    _atom_site_label
    _atom_site_type_symbol
    _atom_site_fract_x
    _atom_site_fract_y
    _atom_site_fract_z
    _atom_site_occupancy
    Sr1      Sr       0.33446    0.10099    0.52804    1.000
    P1       P        0.47608    0.15365    0.46018    1.000
    O1       O        0.45743    0.12420    0.58030    1.000
    C1       C        0.56170    0.17330    0.51680    1.000
    P2       P        0.60921    0.08607    0.57914    1.000
    O2       O        0.45905    0.10170    0.33480    1.000
    C2       C        0.57850    0.23300    0.63460    1.000
    H1       H        0.57020    0.21190    0.71370    1.000
    H2       H        0.55300    0.27830    0.60260    1.000
    H3       H        0.62300    0.24610    0.66150    1.000
    P3       P        0.19184    0.17692    0.59334    1.000
    O3       O        0.44620    0.23510    0.41310    1.000
    H4       H        0.41150    0.24080    0.42890    1.000
    C3       C        0.16560    0.11150    0.44280    1.000
    P4       P        0.18730    0.01105    0.47960    1.000
    O4       O        0.59940    0.06350    0.71350    1.000
    C4       C        0.09350    0.11830    0.36390    1.000
    H5       H        0.08240    0.17140    0.34270    1.000
    H6       H        0.07080    0.09840    0.42120    1.000
    H7       H        0.08220    0.08930    0.27850    1.000
    O5       O        0.59294    0.02770    0.46400    1.000
    O6       O        0.68002    0.11160    0.60900    1.000
    O7       O        0.25690    0.00600    0.55840    1.000
    O8       O        0.16220    0.25430    0.54450    1.000
    O9       O        0.20270    0.13560    0.35650    1.000
    H8       H        0.19500    0.18080    0.33410    1.000
    O10      O        0.16270    0.14820    0.70370    1.000
    H9       H        0.17420    0.10380    0.72610    1.000
    O11      O        0.14630    0.97910    0.56240    1.000
    H10      H        0.15910    0.99710    0.64180    1.000
    O12      O        0.26408    0.17570    0.64940    1.000
    O13      O        0.57606    0.20650    0.40160    1.000
    H11      H        0.56570    0.17600    0.33190    1.000
    O14      O        0.16870    0.97870    0.33390    1.000
    O15      O        0.15120    0.94920    0.38280    1.000
    Sr2      Sr       0.83446    0.60099    0.52804    1.000
    P5       P        0.97608    0.65365    0.46018    1.000
    O16      O        0.95743    0.62420    0.58030    1.000
    C5       C        0.06170    0.67330    0.51680    1.000
    P6       P        0.10921    0.58607    0.57914    1.000
    O17      O        0.95905    0.60170    0.33480    1.000
    C6       C        0.07850    0.73300    0.63460    1.000
    H12      H        0.07020    0.71190    0.71370    1.000
    H13      H        0.05300    0.77830    0.60260    1.000
    H14      H        0.12300    0.74610    0.66150    1.000
    P7       P        0.69184    0.67692    0.59334    1.000
    O18      O        0.94620    0.73510    0.41310    1.000
    H15      H        0.91150    0.74080    0.42890    1.000
    C7       C        0.66560    0.61150    0.44280    1.000
    P8       P        0.68730    0.51105    0.47960    1.000
    O19      O        0.09940    0.56350    0.71350    1.000
    C8       C        0.59350    0.61830    0.36390    1.000
    H16      H        0.58240    0.67140    0.34270    1.000
    H17      H        0.57080    0.59840    0.42120    1.000
    H18      H        0.58220    0.58930    0.27850    1.000
    O20      O        0.09294    0.52770    0.46400    1.000
    O21      O        0.18002    0.61160    0.60900    1.000
    O22      O        0.75690    0.50600    0.55840    1.000
    O23      O        0.66220    0.75430    0.54450    1.000
    O24      O        0.70270    0.63560    0.35650    1.000
    H19      H        0.69500    0.68080    0.33410    1.000
    O25      O        0.66270    0.64820    0.70370    1.000
    H20      H        0.67420    0.60380    0.72610    1.000
    O26      O        0.64630    0.47910    0.56240    1.000
    H21      H        0.65910    0.49710    0.64180    1.000
    O27      O        0.76408    0.67570    0.64940    1.000
    O28      O        0.07606    0.70650    0.40160    1.000
    H22      H        0.06570    0.67600    0.33190    1.000
    O29      O        0.66870    0.47870    0.33390    1.000
    O30      O        0.65120    0.44920    0.38280    1.000
    Sr3      Sr       0.66554    0.10099    0.97196    1.000
    P9       P        0.52392    0.15365    0.03982    1.000
    O31      O        0.54257    0.12420    0.91970    1.000
    C9       C        0.43830    0.17330    0.98320    1.000
    P10      P        0.39079    0.08607    0.92086    1.000
    O32      O        0.54095    0.10170    0.16520    1.000
    C10      C        0.42150    0.23300    0.86540    1.000
    H23      H        0.42980    0.21190    0.78630    1.000
    H24      H        0.44700    0.27830    0.89740    1.000
    H25      H        0.37700    0.24610    0.83850    1.000
    P11      P        0.80816    0.17692    0.90666    1.000
    O33      O        0.55380    0.23510    0.08690    1.000
    H26      H        0.58850    0.24080    0.07110    1.000
    C11      C        0.83440    0.11150    0.05720    1.000
    P12      P        0.81270    0.01105    0.02040    1.000
    O34      O        0.40060    0.06350    0.78650    1.000
    C12      C        0.90650    0.11830    0.13610    1.000
    H27      H        0.91760    0.17140    0.15730    1.000
    H28      H        0.92920    0.09840    0.07880    1.000
    H29      H        0.91780    0.08930    0.22150    1.000
    O35      O        0.40706    0.02770    0.03600    1.000
    O36      O        0.31998    0.11160    0.89100    1.000
    O37      O        0.74310    0.00600    0.94160    1.000
    O38      O        0.83780    0.25430    0.95550    1.000
    O39      O        0.79730    0.13560    0.14350    1.000
    H30      H        0.80500    0.18080    0.16590    1.000
    O40      O        0.83730    0.14820    0.79630    1.000
    H31      H        0.82580    0.10380    0.77390    1.000
    O41      O        0.85370    0.97910    0.93760    1.000
    H32      H        0.84090    0.99710    0.85820    1.000
    O42      O        0.73592    0.17570    0.85060    1.000
    O43      O        0.42394    0.20650    0.09840    1.000
    H33      H        0.43430    0.17600    0.16810    1.000
    O44      O        0.83130    0.97870    0.16610    1.000
    O45      O        0.84880    0.94920    0.11720    1.000
    Sr4      Sr       0.16554    0.60099    0.97196    1.000
    P13      P        0.02392    0.65365    0.03982    1.000
    O46      O        0.04257    0.62420    0.91970    1.000
    C13      C        0.93830    0.67330    0.98320    1.000
    P14      P        0.89079    0.58607    0.92086    1.000
    O47      O        0.04095    0.60170    0.16520    1.000
    C14      C        0.92150    0.73300    0.86540    1.000
    H34      H        0.92980    0.71190    0.78630    1.000
    H35      H        0.94700    0.77830    0.89740    1.000
    H36      H        0.87700    0.74610    0.83850    1.000
    P15      P        0.30816    0.67692    0.90666    1.000
    O48      O        0.05380    0.73510    0.08690    1.000
    H37      H        0.08850    0.74080    0.07110    1.000
    C15      C        0.33440    0.61150    0.05720    1.000
    P16      P        0.31270    0.51105    0.02040    1.000
    O49      O        0.90060    0.56350    0.78650    1.000
    C16      C        0.40650    0.61830    0.13610    1.000
    H38      H        0.41760    0.67140    0.15730    1.000
    H39      H        0.42920    0.59840    0.07880    1.000
    H40      H        0.41780    0.58930    0.22150    1.000
    O50      O        0.90706    0.52770    0.03600    1.000
    O51      O        0.81998    0.61160    0.89100    1.000
    O52      O        0.24310    0.50600    0.94160    1.000
    O53      O        0.33780    0.75430    0.95550    1.000
    O54      O        0.29730    0.63560    0.14350    1.000
    H41      H        0.30500    0.68080    0.16590    1.000
    O55      O        0.33730    0.64820    0.79630    1.000
    H42      H        0.32580    0.60380    0.77390    1.000
    O56      O        0.35370    0.47910    0.93760    1.000
    H43      H        0.34090    0.49710    0.85820    1.000
    O57      O        0.23592    0.67570    0.85060    1.000
    O58      O        0.92394    0.70650    0.09840    1.000
    H44      H        0.93430    0.67600    0.16810    1.000
    O59      O        0.33130    0.47870    0.16610    1.000
    O60      O        0.34880    0.44920    0.11720    1.000
    Sr5      Sr       0.66554    0.89901    0.47196    1.000
    P17      P        0.52392    0.84635    0.53982    1.000
    O61      O        0.54257    0.87580    0.41970    1.000
    C17      C        0.43830    0.82670    0.48320    1.000
    P18      P        0.39079    0.91393    0.42086    1.000
    O62      O        0.54095    0.89830    0.66520    1.000
    C18      C        0.42150    0.76700    0.36540    1.000
    H45      H        0.42980    0.78810    0.28630    1.000
    H46      H        0.44700    0.72170    0.39740    1.000
    H47      H        0.37700    0.75390    0.33850    1.000
    P19      P        0.80816    0.82308    0.40666    1.000
    O63      O        0.55380    0.76490    0.58690    1.000
    H48      H        0.58850    0.75920    0.57110    1.000
    C19      C        0.83440    0.88850    0.55720    1.000
    P20      P        0.81270    0.98895    0.52040    1.000
    O64      O        0.40060    0.93650    0.28650    1.000
    C20      C        0.90650    0.88170    0.63610    1.000
    H49      H        0.91760    0.82860    0.65730    1.000
    H50      H        0.92920    0.90160    0.57880    1.000
    H51      H        0.91780    0.91070    0.72150    1.000
    O65      O        0.40706    0.97230    0.53600    1.000
    O66      O        0.31998    0.88840    0.39100    1.000
    O67      O        0.74310    0.99400    0.44160    1.000
    O68      O        0.83780    0.74570    0.45550    1.000
    O69      O        0.79730    0.86440    0.64350    1.000
    H52      H        0.80500    0.81920    0.66590    1.000
    O70      O        0.83730    0.85180    0.29630    1.000
    H53      H        0.82580    0.89620    0.27390    1.000
    O71      O        0.85370    0.02090    0.43760    1.000
    H54      H        0.84090    0.00290    0.35820    1.000
    O72      O        0.73592    0.82430    0.35060    1.000
    O73      O        0.42394    0.79350    0.59840    1.000
    H55      H        0.43430    0.82400    0.66810    1.000
    O74      O        0.83130    0.02130    0.66610    1.000
    O75      O        0.84880    0.05080    0.61720    1.000
    Sr6      Sr       0.16554    0.39901    0.47196    1.000
    P21      P        0.02392    0.34635    0.53982    1.000
    O76      O        0.04257    0.37580    0.41970    1.000
    C21      C        0.93830    0.32670    0.48320    1.000
    P22      P        0.89079    0.41393    0.42086    1.000
    O77      O        0.04095    0.39830    0.66520    1.000
    C22      C        0.92150    0.26700    0.36540    1.000
    H56      H        0.92980    0.28810    0.28630    1.000
    H57      H        0.94700    0.22170    0.39740    1.000
    H58      H        0.87700    0.25390    0.33850    1.000
    P23      P        0.30816    0.32308    0.40666    1.000
    O78      O        0.05380    0.26490    0.58690    1.000
    H59      H        0.08850    0.25920    0.57110    1.000
    C23      C        0.33440    0.38850    0.55720    1.000
    P24      P        0.31270    0.48895    0.52040    1.000
    O79      O        0.90060    0.43650    0.28650    1.000
    C24      C        0.40650    0.38170    0.63610    1.000
    H60      H        0.41760    0.32860    0.65730    1.000
    H61      H        0.42920    0.40160    0.57880    1.000
    H62      H        0.41780    0.41070    0.72150    1.000
    O80      O        0.90706    0.47230    0.53600    1.000
    O81      O        0.81998    0.38840    0.39100    1.000
    O82      O        0.24310    0.49400    0.44160    1.000
    O83      O        0.33780    0.24570    0.45550    1.000
    O84      O        0.29730    0.36440    0.64350    1.000
    H63      H        0.30500    0.31920    0.66590    1.000
    O85      O        0.33730    0.35180    0.29630    1.000
    H64      H        0.32580    0.39620    0.27390    1.000
    O86      O        0.35370    0.52090    0.43760    1.000
    H65      H        0.34090    0.50290    0.35820    1.000
    O87      O        0.23592    0.32430    0.35060    1.000
    O88      O        0.92394    0.29350    0.59840    1.000
    H66      H        0.93430    0.32400    0.66810    1.000
    O89      O        0.33130    0.52130    0.66610    1.000
    O90      O        0.34880    0.55080    0.61720    1.000
    Sr7      Sr       0.33446    0.89901    0.02804    1.000
    P25      P        0.47608    0.84635    0.96018    1.000
    O91      O        0.45743    0.87580    0.08030    1.000
    C25      C        0.56170    0.82670    0.01680    1.000
    P26      P        0.60921    0.91393    0.07914    1.000
    O92      O        0.45905    0.89830    0.83480    1.000
    C26      C        0.57850    0.76700    0.13460    1.000
    H67      H        0.57020    0.78810    0.21370    1.000
    H68      H        0.55300    0.72170    0.10260    1.000
    H69      H        0.62300    0.75390    0.16150    1.000
    P27      P        0.19184    0.82308    0.09334    1.000
    O93      O        0.44620    0.76490    0.91310    1.000
    H70      H        0.41150    0.75920    0.92890    1.000
    C27      C        0.16560    0.88850    0.94280    1.000
    P28      P        0.18730    0.98895    0.97960    1.000
    O94      O        0.59940    0.93650    0.21350    1.000
    C28      C        0.09350    0.88170    0.86390    1.000
    H71      H        0.08240    0.82860    0.84270    1.000
    H72      H        0.07080    0.90160    0.92120    1.000
    H73      H        0.08220    0.91070    0.77850    1.000
    O95      O        0.59294    0.97230    0.96400    1.000
    O96      O        0.68002    0.88840    0.10900    1.000
    O97      O        0.25690    0.99400    0.05840    1.000
    O98      O        0.16220    0.74570    0.04450    1.000
    O99      O        0.20270    0.86440    0.85650    1.000
    H74      H        0.19500    0.81920    0.83410    1.000
    O100     O        0.16270    0.85180    0.20370    1.000
    H75      H        0.17420    0.89620    0.22610    1.000
    O101     O        0.14630    0.02090    0.06240    1.000
    H76      H        0.15910    0.00290    0.14180    1.000
    O102     O        0.26408    0.82430    0.14940    1.000
    O103     O        0.57606    0.79350    0.90160    1.000
    H77      H        0.56570    0.82400    0.83190    1.000
    O104     O        0.16870    0.02130    0.83390    1.000
    O105     O        0.15120    0.05080    0.88280    1.000
    Sr8      Sr       0.83446    0.39901    0.02804    1.000
    P29      P        0.97608    0.34635    0.96018    1.000
    O106     O        0.95743    0.37580    0.08030    1.000
    C29      C        0.06170    0.32670    0.01680    1.000
    P30      P        0.10921    0.41393    0.07914    1.000
    O107     O        0.95905    0.39830    0.83480    1.000
    C30      C        0.07850    0.26700    0.13460    1.000
    H78      H        0.07020    0.28810    0.21370    1.000
    H79      H        0.05300    0.22170    0.10260    1.000
    H80      H        0.12300    0.25390    0.16150    1.000
    P31      P        0.69184    0.32308    0.09334    1.000
    O108     O        0.94620    0.26490    0.91310    1.000
    H81      H        0.91150    0.25920    0.92890    1.000
    C31      C        0.66560    0.38850    0.94280    1.000
    P32      P        0.68730    0.48895    0.97960    1.000
    O109     O        0.09940    0.43650    0.21350    1.000
    C32      C        0.59350    0.38170    0.86390    1.000
    H82      H        0.58240    0.32860    0.84270    1.000
    H83      H        0.57080    0.40160    0.92120    1.000
    H84      H        0.58220    0.41070    0.77850    1.000
    O110     O        0.09294    0.47230    0.96400    1.000
    O111     O        0.18002    0.38840    0.10900    1.000
    O112     O        0.75690    0.49400    0.05840    1.000
    O113     O        0.66220    0.24570    0.04450    1.000
    O114     O        0.70270    0.36440    0.85650    1.000
    H85      H        0.69500    0.31920    0.83410    1.000
    O115     O        0.66270    0.35180    0.20370    1.000
    H86      H        0.67420    0.39620    0.22610    1.000
    O116     O        0.64630    0.52090    0.06240    1.000
    H87      H        0.65910    0.50290    0.14180    1.000
    O117     O        0.76408    0.32430    0.14940    1.000
    O118     O        0.07606    0.29350    0.90160    1.000
    H88      H        0.06570    0.32400    0.83190    1.000
    O119     O        0.66870    0.52130    0.83390    1.000
    O120     O        0.65120    0.55080    0.88280    1.000
    Sr9      Sr       0.50000    0.01304    0.75000    1.000
    Sr10     Sr       0.00000    0.51304    0.75000    1.000
    Sr11     Sr       0.50000    0.98696    0.25000    1.000
    Sr12     Sr       0.00000    0.48696    0.25000    1.000
