data_functionalizedCrystal
_audit_creation_method	'EQeq! by Chris Wilmer'
_symmetry_space_group_name_H-M	'P1'
_symmetry_Int_Tables_number	1
_symmetry_cell_setting	triclinic
loop_
_symmetry_equiv_pos_as_xyz
  x,y,z
_cell_length_a	9.67
_cell_length_b	15.618
_cell_length_c	22.563
_cell_angle_alpha	90
_cell_angle_beta	90.82
_cell_angle_gamma	90
loop_
_atom_site_label
_atom_site_type_symbol
_atom_site_fract_x
_atom_site_fract_y
_atom_site_fract_z
_atom_site_charge
Mof_Fe	Fe	0.50957	0.10349	0.20052	1.189
Mof_Fe	Fe	0.77591	0.2271	0.27903	1.205
Mof_Fe	Fe	0.72582	0.38969	0.15461	1.001
Mof_Fe	Fe	0.38981	0.43868	0.08407	1.028
Mof_Fe	Fe	0.21619	0.96978	0.25668	1.186
Mof_P 	P 	0.2746	0.0077	0.11797	0.577
Mof_P 	P 	0.7948	0.1866	0.14414	0.583
Mof_P 	P 	0.4951	0.3146	0.20677	0.57
Mof_P 	P 	0.6793	0.4153	0.01439	0.588
Mof_P 	P 	0.5389	0.90493	0.24384	0.595
Mof_P 	P 	0.9535	0.0591	0.32322	0.563
Mof_O 	O 	0.3829	0.0756	0.1344	-0.345
Mof_O 	O 	0.5832	0.9849	0.2081	-0.311
Mof_F 	F 	0.6324	0.1362	0.2686	-0.536
Mof_O 	O 	0.6549	0.1388	0.143	-0.346
Mof_O 	O 	0.4347	0.2247	0.2028	-0.31
Mof_F 	F 	0.3533	0.0705	0.2573	-0.506
Mof_F 	F 	0.6878	0.2638	0.3511	-0.409
Mof_O 	O 	0.8982	0.1518	0.3263	-0.288
Mof_O 	O 	0.864	0.1864	0.205	-0.346
Mof_O 	O 	0.5928	0.8255	0.2105	-0.31
Mof_O 	O 	0.6487	0.3131	0.2295	-0.39
Mof_O 	O 	0.5961	0.9067	0.3076	-0.328
Mof_O 	O 	0.7485	0.4375	0.0758	-0.327
Mof_O 	O 	0.834	0.9977	0.3065	-0.315
Mof_O 	O 	0.7794	0.2759	0.1182	-0.356
Mof_O 	O 	0.5097	0.3581	0.1448	-0.41
Mof_O 	O 	0.0103	0.0381	0.3858	-0.319
Mof_O 	O 	0.5231	0.4043	0.0239	-0.361
Mof_O 	O 	0.7146	0.491	0.9736	-0.299
Mof_F 	F 	0.2433	0.9553	0.3462	-0.522
Mof_O 	O 	0.3809	0.8976	0.2464	-0.318
Mof_O 	O 	0.1815	0.9869	0.1707	-0.325
Mof_O 	O 	0.4066	0.3681	0.248	-0.324
Mof_O 	O 	0.0694	0.0536	0.2772	-0.301
Mof_O 	O 	0.3386	0.9282	0.0918	-0.17
Mof_O 	O 	0.1807	0.0454	0.0667	-0.39
Mof_H 	H 	0.1427	0.0891	0.0783	0.303
Mof_O 	O 	0.8914	0.1337	0.1014	-0.41
Mof_H 	H 	0.8567	0.1327	0.068	0.294
Mof_O 	O 	0.7386	0.3334	0.9874	-0.397
Mof_H 	H 	0.7255	0.2931	0.0099	0.285
Mof_Fe	Fe	0.99043	0.60349	0.29948	1.192
Mof_Fe	Fe	0.72409	0.7271	0.22097	1.207
Mof_Fe	Fe	0.77418	0.88969	0.34539	1.002
Mof_Fe	Fe	0.11019	0.93868	0.41593	1.017
Mof_Fe	Fe	0.28381	0.46978	0.24332	1.19
Mof_P 	P 	0.2254	0.5077	0.38203	0.574
Mof_P 	P 	0.7052	0.6866	0.35586	0.583
Mof_P 	P 	0.0049	0.8146	0.29323	0.565
Mof_P 	P 	0.8207	0.9153	0.48561	0.589
Mof_P 	P 	0.9611	0.40493	0.25616	0.593
Mof_P 	P 	0.5465	0.5591	0.17678	0.578
Mof_O 	O 	0.1171	0.5756	0.3656	-0.345
Mof_O 	O 	0.9168	0.4849	0.2919	-0.313
Mof_F 	F 	0.8676	0.6362	0.2314	-0.535
Mof_O 	O 	0.8451	0.6388	0.357	-0.345
Mof_O 	O 	0.0653	0.7247	0.2972	-0.31
Mof_F 	F 	0.1467	0.5705	0.2427	-0.506
Mof_F 	F 	0.8122	0.7638	0.1489	-0.408
Mof_O 	O 	0.6018	0.6518	0.1737	-0.288
Mof_O 	O 	0.636	0.6864	0.295	-0.344
Mof_O 	O 	0.9072	0.3255	0.2895	-0.311
Mof_O 	O 	0.8513	0.8131	0.2705	-0.388
Mof_O 	O 	0.9039	0.4067	0.1924	-0.329
Mof_O 	O 	0.7515	0.9375	0.4242	-0.327
Mof_O 	O 	0.666	0.4977	0.1935	-0.321
Mof_O 	O 	0.7206	0.7759	0.3818	-0.355
Mof_O 	O 	0.9903	0.8581	0.3552	-0.406
Mof_O 	O 	0.4897	0.5381	0.1142	-0.328
Mof_O 	O 	0.9769	0.9043	0.4761	-0.357
Mof_O 	O 	0.7854	0.991	0.5264	-0.296
Mof_F 	F 	0.2567	0.4553	0.1538	-0.521
Mof_O 	O 	0.1191	0.3976	0.2536	-0.316
Mof_O 	O 	0.3185	0.4869	0.3293	-0.323
Mof_O 	O 	0.0934	0.8681	0.252	-0.324
Mof_O 	O 	0.4306	0.5536	0.2228	-0.31
Mof_O 	O 	0.1614	0.4282	0.4082	-0.169
Mof_O 	O 	0.3193	0.5454	0.4333	-0.391
Mof_H 	H 	0.3573	0.5891	0.4217	0.301
Mof_O 	O 	0.6086	0.6337	0.3986	-0.408
Mof_H 	H 	0.6433	0.6327	0.432	0.295
Mof_O 	O 	0.7614	0.8334	0.5126	-0.399
Mof_H 	H 	0.7745	0.7931	0.4901	0.287
Mof_Fe	Fe	0.49043	0.89651	0.79948	1.19
Mof_Fe	Fe	0.22409	0.7729	0.72097	1.206
Mof_Fe	Fe	0.27418	0.61031	0.84539	1.002
Mof_Fe	Fe	0.61019	0.56132	0.91593	1.029
Mof_Fe	Fe	0.78381	0.03022	0.74332	1.186
Mof_P 	P 	0.7254	0.9923	0.88203	0.577
Mof_P 	P 	0.2052	0.8134	0.85586	0.583
Mof_P 	P 	0.5049	0.6854	0.79323	0.57
Mof_P 	P 	0.3207	0.5847	0.98561	0.588
Mof_P 	P 	0.4611	0.09507	0.75616	0.595
Mof_P 	P 	0.0465	0.9409	0.67678	0.563
Mof_O 	O 	0.6171	0.9244	0.8656	-0.345
Mof_O 	O 	0.4168	0.0151	0.7919	-0.311
Mof_F 	F 	0.3676	0.8638	0.7314	-0.536
Mof_O 	O 	0.3451	0.8612	0.857	-0.346
Mof_O 	O 	0.5653	0.7753	0.7972	-0.31
Mof_F 	F 	0.6467	0.9295	0.7427	-0.506
Mof_F 	F 	0.3122	0.7362	0.6489	-0.409
Mof_O 	O 	0.1018	0.8482	0.6737	-0.288
Mof_O 	O 	0.136	0.8136	0.795	-0.346
Mof_O 	O 	0.4072	0.1745	0.7895	-0.31
Mof_O 	O 	0.3513	0.6869	0.7705	-0.39
Mof_O 	O 	0.4039	0.0933	0.6924	-0.328
Mof_O 	O 	0.2515	0.5625	0.9242	-0.327
Mof_O 	O 	0.166	0.0023	0.6935	-0.315
Mof_O 	O 	0.2206	0.7241	0.8818	-0.356
Mof_O 	O 	0.4903	0.6419	0.8552	-0.41
Mof_O 	O 	0.9897	0.9619	0.6142	-0.319
Mof_O 	O 	0.4769	0.5957	0.9761	-0.361
Mof_O 	O 	0.2854	0.509	0.0264	-0.299
Mof_F 	F 	0.7567	0.0447	0.6538	-0.522
Mof_O 	O 	0.6191	0.1024	0.7536	-0.318
Mof_O 	O 	0.8185	0.0131	0.8293	-0.325
Mof_O 	O 	0.5934	0.6319	0.752	-0.324
Mof_O 	O 	0.9306	0.9464	0.7228	-0.301
Mof_O 	O 	0.6614	0.0718	0.9082	-0.17
Mof_O 	O 	0.8193	0.9546	0.9333	-0.39
Mof_H 	H 	0.8573	0.9109	0.9217	0.303
Mof_O 	O 	0.1086	0.8663	0.8986	-0.41
Mof_H 	H 	0.1433	0.8673	0.932	0.294
Mof_O 	O 	0.2614	0.6666	0.0126	-0.397
Mof_H 	H 	0.2745	0.7069	0.9901	0.285
Mof_Fe	Fe	0.00957	0.39651	0.70052	1.192
Mof_Fe	Fe	0.27591	0.2729	0.77903	1.207
Mof_Fe	Fe	0.22582	0.11031	0.65461	1.002
Mof_Fe	Fe	0.88981	0.06132	0.58407	1.017
Mof_Fe	Fe	0.71619	0.53022	0.75668	1.19
Mof_P 	P 	0.7746	0.4923	0.61797	0.574
Mof_P 	P 	0.2948	0.3134	0.64414	0.583
Mof_P 	P 	0.9951	0.1854	0.70677	0.565
Mof_P 	P 	0.1793	0.0847	0.51439	0.589
Mof_P 	P 	0.0389	0.59507	0.74384	0.593
Mof_P 	P 	0.4535	0.4409	0.82322	0.578
Mof_O 	O 	0.8829	0.4244	0.6344	-0.345
Mof_O 	O 	0.0832	0.5151	0.7081	-0.313
Mof_F 	F 	0.1324	0.3638	0.7686	-0.535
Mof_O 	O 	0.1549	0.3612	0.643	-0.345
Mof_O 	O 	0.9347	0.2753	0.7028	-0.31
Mof_F 	F 	0.8533	0.4295	0.7573	-0.506
Mof_F 	F 	0.1878	0.2362	0.8511	-0.408
Mof_O 	O 	0.3982	0.3482	0.8263	-0.288
Mof_O 	O 	0.364	0.3136	0.705	-0.344
Mof_O 	O 	0.0928	0.6745	0.7105	-0.311
Mof_O 	O 	0.1487	0.1869	0.7295	-0.388
Mof_O 	O 	0.0961	0.5933	0.8076	-0.329
Mof_O 	O 	0.2485	0.0625	0.5758	-0.327
Mof_O 	O 	0.334	0.5023	0.8065	-0.321
Mof_O 	O 	0.2794	0.2241	0.6182	-0.355
Mof_O 	O 	0.0097	0.1419	0.6448	-0.406
Mof_O 	O 	0.5103	0.4619	0.8858	-0.328
Mof_O 	O 	0.0231	0.0957	0.5239	-0.357
Mof_O 	O 	0.2146	0.009	0.4736	-0.296
Mof_F 	F 	0.7433	0.5447	0.8462	-0.521
Mof_O 	O 	0.8809	0.6024	0.7464	-0.316
Mof_O 	O 	0.6815	0.5131	0.6707	-0.323
Mof_O 	O 	0.9066	0.1319	0.748	-0.324
Mof_O 	O 	0.5694	0.4464	0.7772	-0.31
Mof_O 	O 	0.8386	0.5718	0.5918	-0.169
Mof_O 	O 	0.6807	0.4546	0.5667	-0.391
Mof_H 	H 	0.6427	0.4109	0.5783	0.301
Mof_O 	O 	0.3914	0.3663	0.6014	-0.408
Mof_H 	H 	0.3567	0.3673	0.568	0.295
Mof_O 	O 	0.2386	0.1666	0.4874	-0.399
Mof_H 	H 	0.2255	0.2069	0.5099	0.287
_end
