data_functionalizedCrystal
_audit_creation_method	'EQeq! by Chris Wilmer'
_symmetry_space_group_name_H-M	'P1'
_symmetry_Int_Tables_number	1
_symmetry_cell_setting	triclinic
loop_
_symmetry_equiv_pos_as_xyz
  x,y,z
_cell_length_a	12.7827
_cell_length_b	12.7827
_cell_length_c	7.505
_cell_angle_alpha	90
_cell_angle_beta	90
_cell_angle_gamma	90
loop_
_atom_site_label
_atom_site_type_symbol
_atom_site_fract_x
_atom_site_fract_y
_atom_site_fract_z
_atom_site_charge
Mof_O 	O 	0.5359	0.7732	0.175	-0.419
Mof_O 	O 	0.3565	0.7543	0.183	-0.512
Mof_C 	C 	0.4466	0.7598	0.106	0.145
Mof_H 	H 	0.654	0.027	0.098	0.142
Mof_H 	H 	0.471	0.001	0.04	-0.049
Mof_O 	O 	0.0359	0.2732	0.675	-0.426
Mof_O 	O 	0.8565	0.2543	0.683	-0.485
Mof_C 	C 	0.9466	0.2598	0.606	0.245
Mof_H 	H 	0.154	0.527	0.598	0.132
Mof_H 	H 	0.971	0.501	0.54	0.051
Mof_O 	O 	0.4641	0.2268	0.175	-0.419
Mof_O 	O 	0.6435	0.2457	0.183	-0.512
Mof_C 	C 	0.5534	0.2402	0.106	0.145
Mof_H 	H 	0.346	0.973	0.098	0.142
Mof_H 	H 	0.529	0.999	0.04	-0.049
Mof_O 	O 	0.9641	0.7268	0.675	-0.426
Mof_O 	O 	0.1435	0.7457	0.683	-0.485
Mof_C 	C 	0.0534	0.7402	0.606	0.245
Mof_H 	H 	0.846	0.473	0.598	0.132
Mof_H 	H 	0.029	0.499	0.54	0.051
Mof_O 	O 	0.2268	0.5359	0.175	-0.419
Mof_O 	O 	0.2457	0.3565	0.183	-0.512
Mof_C 	C 	0.2402	0.4466	0.106	0.145
Mof_H 	H 	0.973	0.654	0.098	0.142
Mof_H 	H 	0.999	0.471	0.04	-0.049
Mof_O 	O 	0.7268	0.0359	0.675	-0.426
Mof_O 	O 	0.7457	0.8565	0.683	-0.485
Mof_C 	C 	0.7402	0.9466	0.606	0.245
Mof_H 	H 	0.473	0.154	0.598	0.132
Mof_H 	H 	0.499	0.971	0.54	0.051
Mof_O 	O 	0.7732	0.4641	0.175	-0.419
Mof_O 	O 	0.7543	0.6435	0.183	-0.512
Mof_C 	C 	0.7598	0.5534	0.106	0.145
Mof_H 	H 	0.027	0.346	0.098	0.142
Mof_H 	H 	0.001	0.529	0.04	-0.049
Mof_O 	O 	0.2732	0.9641	0.675	-0.426
Mof_O 	O 	0.2543	0.1435	0.683	-0.485
Mof_C 	C 	0.2598	0.0534	0.606	0.245
Mof_H 	H 	0.527	0.846	0.598	0.132
Mof_H 	H 	0.501	0.029	0.54	0.051
Mof_O 	O 	0.4641	0.2268	0.825	-0.412
Mof_O 	O 	0.6435	0.2457	0.817	-0.503
Mof_C 	C 	0.5534	0.2402	0.894	0.35
Mof_H 	H 	0.346	0.973	0.902	0.221
Mof_H 	H 	0.529	0.999	0.96	0.192
Mof_O 	O 	0.9641	0.7268	0.325	-0.449
Mof_O 	O 	0.1435	0.7457	0.317	-0.522
Mof_C 	C 	0.0534	0.7402	0.394	0.25
Mof_H 	H 	0.846	0.473	0.402	0.132
Mof_H 	H 	0.029	0.499	0.46	0.055
Mof_O 	O 	0.5359	0.7732	0.825	-0.412
Mof_O 	O 	0.3565	0.7543	0.817	-0.503
Mof_C 	C 	0.4466	0.7598	0.894	0.35
Mof_H 	H 	0.654	0.027	0.902	0.221
Mof_H 	H 	0.471	0.001	0.96	0.192
Mof_O 	O 	0.0359	0.2732	0.325	-0.449
Mof_O 	O 	0.8565	0.2543	0.317	-0.522
Mof_C 	C 	0.9466	0.2598	0.394	0.25
Mof_H 	H 	0.154	0.527	0.402	0.132
Mof_H 	H 	0.971	0.501	0.46	0.055
Mof_O 	O 	0.7732	0.4641	0.825	-0.412
Mof_O 	O 	0.7543	0.6435	0.817	-0.503
Mof_C 	C 	0.7598	0.5534	0.894	0.35
Mof_H 	H 	0.027	0.346	0.902	0.221
Mof_H 	H 	0.001	0.529	0.96	0.192
Mof_O 	O 	0.2732	0.9641	0.325	-0.449
Mof_O 	O 	0.2543	0.1435	0.317	-0.522
Mof_C 	C 	0.2598	0.0534	0.394	0.25
Mof_H 	H 	0.527	0.846	0.402	0.132
Mof_H 	H 	0.501	0.029	0.46	0.055
Mof_O 	O 	0.2268	0.5359	0.825	-0.412
Mof_O 	O 	0.2457	0.3565	0.817	-0.503
Mof_C 	C 	0.2402	0.4466	0.894	0.35
Mof_H 	H 	0.973	0.654	0.902	0.221
Mof_H 	H 	0.999	0.471	0.96	0.192
Mof_O 	O 	0.7268	0.0359	0.325	-0.449
Mof_O 	O 	0.7457	0.8565	0.317	-0.522
Mof_C 	C 	0.7402	0.9466	0.394	0.25
Mof_H 	H 	0.473	0.154	0.402	0.132
Mof_H 	H 	0.499	0.971	0.46	0.055
Mof_O 	O 	0.614	0.985	-0	-0.635
Mof_Sr	Sr	0.6982	0.8045	-0	1.391
Mof_O 	O 	0.114	0.485	0.5	-0.511
Mof_Sr	Sr	0.1982	0.3045	0.5	1.617
Mof_O 	O 	0.386	0.015	-0	-0.635
Mof_Sr	Sr	0.3018	0.1955	-0	1.391
Mof_O 	O 	0.886	0.515	0.5	-0.511
Mof_Sr	Sr	0.8018	0.6955	0.5	1.617
Mof_O 	O 	0.015	0.614	-0	-0.635
Mof_Sr	Sr	0.1955	0.6982	-0	1.391
Mof_O 	O 	0.515	0.114	0.5	-0.511
Mof_Sr	Sr	0.6955	0.1982	0.5	1.617
Mof_O 	O 	0.985	0.386	-0	-0.635
Mof_Sr	Sr	0.8045	0.3018	-0	1.391
Mof_O 	O 	0.485	0.886	0.5	-0.511
Mof_Sr	Sr	0.3045	0.8018	0.5	1.617
_end
