data_functionalizedCrystal
_audit_creation_method	'EQeq! by Chris Wilmer'
_symmetry_space_group_name_H-M	'P1'
_symmetry_Int_Tables_number	1
_symmetry_cell_setting	triclinic
loop_
_symmetry_equiv_pos_as_xyz
  x,y,z
_cell_length_a	15.785
_cell_length_b	18.275
_cell_length_c	28.066
_cell_angle_alpha	104.478
_cell_angle_beta	92.048
_cell_angle_gamma	107.86
loop_
_atom_site_label
_atom_site_type_symbol
_atom_site_fract_x
_atom_site_fract_y
_atom_site_fract_z
_atom_site_charge
Mof_C 	C 	0.9446	0.1857	0.2407	0.464
Mof_C 	C 	0.8776	0.1045	0.2196	-0.217
Mof_C 	C 	0.7994	0.0934	0.1915	0.123
Mof_H 	H 	0.7839	0.1376	0.1891	0.003
Mof_C 	C 	0.7428	0.017	0.1667	-0.206
Mof_H 	H 	0.6909	0.0107	0.1471	0.107
Mof_C 	C 	0.7634	0.9502	0.1709	0.146
Mof_C 	C 	0.8401	0.9614	0.2018	-0.2
Mof_H 	H 	0.8525	0.917	0.2067	0.106
Mof_C 	C 	0.8991	0.0382	0.2257	0.112
Mof_H 	H 	0.9513	0.0449	0.2452	-0.018
Mof_C 	C 	0.7148	0.8706	0.1367	-0.106
Mof_C 	C 	0.6991	0.8649	0.0868	0.022
Mof_H 	H 	0.7131	0.9116	0.0767	0.021
Mof_C 	C 	0.6635	0.7927	0.0517	-0.107
Mof_C 	C 	0.639	0.7214	0.0664	0.135
Mof_C 	C 	0.6527	0.727	0.1178	-0.054
Mof_C 	C 	0.69	0.7997	0.1506	0.132
Mof_C 	C 	0.6568	0.793	0.9989	0.164
Mof_C 	C 	0.6161	0.8416	0.983	-0.221
Mof_H 	H 	0.5855	0.8687	0.0047	0.11
Mof_C 	C 	0.6203	0.8504	0.9363	0.144
Mof_H 	H 	0.5908	0.8819	0.9263	-0.005
Mof_C 	C 	0.6682	0.813	0.9031	-0.235
Mof_C 	C 	0.7078	0.7639	0.9177	0.152
Mof_H 	H 	0.7392	0.7379	0.8959	-0.044
Mof_C 	C 	0.7015	0.7525	0.9651	-0.222
Mof_H 	H 	0.7271	0.7178	0.9742	0.109
Mof_C 	C 	0.6736	0.8254	0.8534	0.454
Mof_C 	C 	0.6366	0.5901	0.0238	-0.189
Mof_H 	H 	0.5996	0.5462	0.0346	0.096
Mof_H 	H 	0.6951	0.6103	0.0424	0.098
Mof_H 	H 	0.6417	0.5721	0.9892	0.088
Mof_C 	C 	0.633	0.8221	0.2278	-0.254
Mof_H 	H 	0.6469	0.8274	0.2624	0.119
Mof_H 	H 	0.577	0.7803	0.2152	0.121
Mof_H 	H 	0.6287	0.8716	0.2238	0.116
Mof_C 	C 	0.411	0.619	0.0946	-0.214
Mof_H 	H 	0.3733	0.6499	0.0902	0.103
Mof_H 	H 	0.3751	0.5695	0.0999	0.099
Mof_H 	H 	0.4402	0.6082	0.0655	0.108
Mof_C 	C 	0.8393	0.6964	0.177	-0.221
Mof_H 	H 	0.8958	0.7159	0.165	0.102
Mof_H 	H 	0.845	0.6652	0.1991	0.103
Mof_H 	H 	0.8218	0.7408	0.1944	0.108
Mof_C 	C 	0.6228	0.653	0.1356	-0.049
Mof_C 	C 	0.5354	0.6243	0.1451	0.126
Mof_C 	C 	0.5094	0.5592	0.1655	-0.1
Mof_C 	C 	0.5723	0.527	0.1762	0.008
Mof_H 	H 	0.5549	0.4849	0.1905	0.033
Mof_C 	C 	0.6615	0.5532	0.1669	-0.091
Mof_C 	C 	0.6862	0.6178	0.1466	0.119
Mof_C 	C 	0.4173	0.5292	0.1807	0.152
Mof_C 	C 	0.371	0.4473	0.1648	-0.228
Mof_H 	H 	0.3929	0.413	0.1422	0.112
Mof_C 	C 	0.2906	0.4183	0.184	0.17
Mof_H 	H 	0.2573	0.3643	0.1726	-0.069
Mof_C 	C 	0.3821	0.5797	0.2138	-0.205
Mof_H 	H 	0.4114	0.6346	0.2227	0.109
Mof_C 	C 	0.3051	0.5496	0.2335	0.125
Mof_H 	H 	0.2829	0.5835	0.2563	-0.001
Mof_C 	C 	0.2602	0.467	0.2187	-0.216
Mof_C 	C 	0.1824	0.4368	0.2435	0.382
Mof_C 	C 	0.726	0.5176	0.1838	0.116
Mof_C 	C 	0.7246	0.5022	0.2295	-0.162
Mof_H 	H 	0.68	0.5121	0.2484	0.09
Mof_C 	C 	0.7839	0.4737	0.2489	0.071
Mof_H 	H 	0.7811	0.4659	0.2803	0.023
Mof_C 	C 	0.8498	0.4565	0.2198	-0.121
Mof_C 	C 	0.8539	0.4704	0.1736	0.069
Mof_H 	H 	0.8974	0.459	0.1543	0.02
Mof_C 	C 	0.7939	0.5011	0.1562	-0.156
Mof_H 	H 	0.7982	0.5113	0.1254	0.095
Mof_C 	C 	0.914	0.4235	0.2383	0.311
Mof_C 	C 	0.2078	0.0751	0.2701	0.348
Mof_C 	C 	0.127	0.0474	0.2921	-0.217
Mof_C 	C 	0.0959	0.0937	0.3263	0.156
Mof_H 	H 	0.1264	0.1484	0.3362	-0.027
Mof_C 	C 	0.0217	0.0648	0.3475	-0.22
Mof_H 	H 	0.0019	0.0995	0.3711	0.111
Mof_C 	C 	0.9736	0.9808	0.3337	0.147
Mof_C 	C 	0.0083	0.9313	0.3001	-0.204
Mof_H 	H 	0.9793	0.8764	0.2912	0.108
Mof_C 	C 	0.0838	0.9613	0.2797	0.107
Mof_H 	H 	0.1075	0.9272	0.2581	-0.002
Mof_C 	C 	0.8872	0.9522	0.3509	-0.099
Mof_C 	C 	0.8205	0.9889	0.3449	0.006
Mof_H 	H 	0.8373	0.0333	0.3326	0.034
Mof_C 	C 	0.7353	0.9643	0.3557	-0.087
Mof_C 	C 	0.711	0.8986	0.3755	0.117
Mof_C 	C 	0.7719	0.8591	0.3824	-0.041
Mof_C 	C 	0.8586	0.8875	0.3714	0.122
Mof_C 	C 	0.9945	0.8863	0.4092	-0.23
Mof_H 	H 	0.0259	0.8503	0.4129	0.11
Mof_H 	H 	0.9791	0.91	0.4408	0.115
Mof_H 	H 	0.0321	0.9275	0.3965	0.106
Mof_C 	C 	0.5436	0.8311	0.3557	-0.214
Mof_H 	H 	0.5384	0.8604	0.3323	0.101
Mof_H 	H 	0.4943	0.827	0.375	0.105
Mof_H 	H 	0.5427	0.7784	0.3382	0.11
Mof_C 	C 	0.6721	0.003	0.3422	0.121
Mof_C 	C 	0.6759	0.0186	0.2959	-0.158
Mof_H 	H 	0.7189	0.0067	0.2764	0.093
Mof_C 	C 	0.6166	0.0518	0.2783	0.064
Mof_H 	H 	0.6191	0.0597	0.2468	0.028
Mof_C 	C 	0.5532	0.0732	0.3079	-0.12
Mof_C 	C 	0.5518	0.057	0.3547	0.068
Mof_H 	H 	0.5095	0.0686	0.3748	0.022
Mof_C 	C 	0.6114	0.0247	0.3713	-0.163
Mof_H 	H 	0.6102	0.0174	0.4029	0.099
Mof_C 	C 	0.7091	0.702	0.2847	-0.24
Mof_H 	H 	0.6789	0.6957	0.2529	0.119
Mof_H 	H 	0.7235	0.6546	0.2845	0.11
Mof_H 	H 	0.7633	0.747	0.2916	0.116
Mof_C 	C 	0.8113	0.9045	0.5094	-0.115
Mof_H 	H 	0.766	0.9197	0.4945	0.076
Mof_H 	H 	0.8624	0.9512	0.5238	0.068
Mof_H 	H 	0.7879	0.88	0.5348	0.074
Mof_C 	C 	0.741	0.7843	0.3985	-0.059
Mof_C 	C 	0.6855	0.7137	0.3673	0.14
Mof_C 	C 	0.6599	0.6416	0.3797	-0.102
Mof_C 	C 	0.6951	0.6443	0.4281	0.027
Mof_H 	H 	0.6786	0.5977	0.4383	0.027
Mof_C 	C 	0.7537	0.7145	0.4605	-0.129
Mof_C 	C 	0.7766	0.7847	0.4457	0.154
Mof_C 	C 	0.7867	0.7099	0.5106	0.229
Mof_C 	C 	0.8697	0.7107	0.5206	-0.275
Mof_H 	H 	0.9096	0.7196	0.4974	0.136
Mof_C 	C 	0.8997	0.6986	0.5644	0.194
Mof_H 	H 	0.9568	0.695	0.5691	-0.02
Mof_C 	C 	0.8442	0.6922	0.6002	-0.268
Mof_C 	C 	0.7657	0.7036	0.5931	0.209
Mof_H 	H 	0.7304	0.7064	0.6188	-0.027
Mof_C 	C 	0.7353	0.7113	0.5475	-0.281
Mof_H 	H 	0.6795	0.7174	0.5429	0.136
Mof_C 	C 	0.8726	0.68	0.6477	0.489
Mof_C 	C 	0.5995	0.5664	0.349	0.131
Mof_C 	C 	0.5164	0.5607	0.3247	-0.171
Mof_H 	H 	0.5017	0.6064	0.3252	0.102
Mof_C 	C 	0.4574	0.4854	0.3	0.097
Mof_H 	H 	0.4046	0.4826	0.2828	0.011
Mof_C 	C 	0.4715	0.4166	0.2994	-0.15
Mof_C 	C 	0.5584	0.4212	0.3209	0.073
Mof_H 	H 	0.5744	0.3754	0.3176	0.026
Mof_C 	C 	0.617	0.4957	0.3465	-0.168
Mof_H 	H 	0.6708	0.4985	0.3628	0.095
Mof_C 	C 	0.4062	0.3338	0.2746	0.409
Mof_C 	C 	0.491	0.1052	0.2892	0.302
Mof_O 	O 	0.025	0.1925	0.2477	-0.6
Mof_O 	O 	0.9165	0.2447	0.2473	-0.328
Mof_O 	O 	0.9214	0.4253	0.2847	-0.253
Mof_O 	O 	0.9646	0.3975	0.211	-0.268
Mof_O 	O 	0.1497	0.4755	0.2764	-0.286
Mof_O 	O 	0.144	0.3547	0.22952	-0.518
Mof_O 	O 	0.2354	0.1568	0.2741	-0.517
Mof_O 	O 	0.254	0.0371	0.2482	-0.302
Mof_O 	O 	0.72	0.7889	0.8247	-0.59
Mof_O 	O 	0.6353	0.8676	0.8399	-0.339
Mof_O 	O 	0.3243	0.3297	0.26597	-0.502
Mof_O 	O 	0.4388	0.2775	0.2649	-0.319
Mof_O 	O 	0.4854	0.1026	0.2431	-0.256
Mof_O 	O 	0.4366	0.1322	0.3152	-0.248
Mof_O 	O 	0.9363	0.6524	0.6488	-0.331
Mof_O 	O 	0.8323	0.6985	0.6838	-0.535
Mof_O 	O 	0.4757	0.6621	0.1357	-0.166
Mof_O 	O 	0.7736	0.6483	0.1365	-0.168
Mof_O 	O 	0.5984	0.6498	0.0314	-0.175
Mof_O 	O 	0.7031	0.8027	0.201	-0.168
Mof_O 	O 	0.6527	0.7152	0.3216	-0.169
Mof_O 	O 	0.8353	0.8543	0.476	-0.191
Mof_O 	O 	0.6234	0.8705	0.3867	-0.159
Mof_O 	O 	0.9154	0.8438	0.3758	-0.158
Mof_Nd	Nd	0.17786	0.23449	0.23224	2.421
Mof_Cd	Cd	0.36935	0.14893	0.2411	0.489
Mof_Cd	Cd	0.02574	0.36105	0.27778	0.493
Mof_C 	C 	0.0554	0.8143	0.7593	0.463
Mof_C 	C 	0.1224	0.8955	0.7804	-0.218
Mof_C 	C 	0.2006	0.9066	0.8085	0.122
Mof_H 	H 	0.2161	0.8624	0.8109	0.002
Mof_C 	C 	0.2572	0.983	0.8333	-0.207
Mof_H 	H 	0.3091	0.9893	0.8529	0.106
Mof_C 	C 	0.2366	0.0498	0.8291	0.146
Mof_C 	C 	0.1599	0.0386	0.7982	-0.2
Mof_H 	H 	0.1475	0.083	0.7933	0.106
Mof_C 	C 	0.1009	0.9618	0.7743	0.112
Mof_H 	H 	0.0487	0.9551	0.7548	-0.018
Mof_C 	C 	0.2852	0.1294	0.8633	-0.106
Mof_C 	C 	0.3009	0.1351	0.9132	0.022
Mof_H 	H 	0.2869	0.0884	0.9233	0.021
Mof_C 	C 	0.3365	0.2073	0.9483	-0.107
Mof_C 	C 	0.361	0.2786	0.9336	0.135
Mof_C 	C 	0.3473	0.273	0.8822	-0.054
Mof_C 	C 	0.31	0.2003	0.8494	0.132
Mof_C 	C 	0.3432	0.207	0.0011	0.164
Mof_C 	C 	0.3839	0.1584	0.017	-0.221
Mof_H 	H 	0.4145	0.1313	0.9953	0.11
Mof_C 	C 	0.3797	0.1496	0.0637	0.144
Mof_H 	H 	0.4092	0.1181	0.0737	-0.005
Mof_C 	C 	0.3318	0.187	0.0969	-0.235
Mof_C 	C 	0.2922	0.2361	0.0823	0.152
Mof_H 	H 	0.2608	0.2621	0.1041	-0.044
Mof_C 	C 	0.2985	0.2475	0.0349	-0.222
Mof_H 	H 	0.2729	0.2822	0.0258	0.109
Mof_C 	C 	0.3264	0.1746	0.1466	0.454
Mof_C 	C 	0.3634	0.4099	0.9762	-0.189
Mof_H 	H 	0.4004	0.4538	0.9654	0.096
Mof_H 	H 	0.3049	0.3897	0.9576	0.098
Mof_H 	H 	0.3583	0.4279	0.0108	0.088
Mof_C 	C 	0.367	0.1779	0.7722	-0.254
Mof_H 	H 	0.3531	0.1726	0.7376	0.119
Mof_H 	H 	0.423	0.2197	0.7848	0.121
Mof_H 	H 	0.3713	0.1284	0.7762	0.116
Mof_C 	C 	0.589	0.381	0.9054	-0.214
Mof_H 	H 	0.6267	0.3501	0.9098	0.103
Mof_H 	H 	0.6249	0.4305	0.9001	0.099
Mof_H 	H 	0.5598	0.3918	0.9345	0.108
Mof_C 	C 	0.1607	0.3036	0.823	-0.221
Mof_H 	H 	0.1042	0.2841	0.835	0.102
Mof_H 	H 	0.155	0.3348	0.8009	0.103
Mof_H 	H 	0.1782	0.2592	0.8056	0.108
Mof_C 	C 	0.3772	0.347	0.8644	-0.049
Mof_C 	C 	0.4646	0.3757	0.8549	0.126
Mof_C 	C 	0.4906	0.4408	0.8345	-0.1
Mof_C 	C 	0.4277	0.473	0.8238	0.008
Mof_H 	H 	0.4451	0.5151	0.8095	0.033
Mof_C 	C 	0.3385	0.4468	0.8331	-0.091
Mof_C 	C 	0.3138	0.3822	0.8534	0.119
Mof_C 	C 	0.5827	0.4708	0.8193	0.152
Mof_C 	C 	0.629	0.5527	0.8352	-0.228
Mof_H 	H 	0.6071	0.587	0.8578	0.112
Mof_C 	C 	0.7094	0.5817	0.816	0.17
Mof_H 	H 	0.7427	0.6357	0.8274	-0.069
Mof_C 	C 	0.6179	0.4203	0.7862	-0.205
Mof_H 	H 	0.5886	0.3654	0.7773	0.109
Mof_C 	C 	0.6949	0.4504	0.7665	0.125
Mof_H 	H 	0.7171	0.4165	0.7437	-0.001
Mof_C 	C 	0.7398	0.533	0.7813	-0.216
Mof_C 	C 	0.8176	0.5632	0.7565	0.382
Mof_C 	C 	0.274	0.4824	0.8162	0.116
Mof_C 	C 	0.2754	0.4978	0.7705	-0.162
Mof_H 	H 	0.32	0.4879	0.7516	0.09
Mof_C 	C 	0.2161	0.5263	0.7511	0.071
Mof_H 	H 	0.2189	0.5341	0.7197	0.023
Mof_C 	C 	0.1502	0.5435	0.7802	-0.121
Mof_C 	C 	0.1461	0.5296	0.8264	0.069
Mof_H 	H 	0.1026	0.541	0.8457	0.02
Mof_C 	C 	0.2061	0.4989	0.8438	-0.156
Mof_H 	H 	0.2018	0.4887	0.8746	0.095
Mof_C 	C 	0.086	0.5765	0.7617	0.311
Mof_C 	C 	0.7922	0.9249	0.7299	0.348
Mof_C 	C 	0.873	0.9526	0.7079	-0.217
Mof_C 	C 	0.9041	0.9063	0.6737	0.156
Mof_H 	H 	0.8736	0.8516	0.6638	-0.027
Mof_C 	C 	0.9783	0.9352	0.6525	-0.22
Mof_H 	H 	0.9981	0.9005	0.6289	0.111
Mof_C 	C 	0.0264	0.0192	0.6663	0.147
Mof_C 	C 	0.9917	0.0687	0.6999	-0.204
Mof_H 	H 	0.0207	0.1236	0.7088	0.108
Mof_C 	C 	0.9162	0.0387	0.7203	0.107
Mof_H 	H 	0.8925	0.0728	0.7419	-0.002
Mof_C 	C 	0.1128	0.0478	0.6491	-0.099
Mof_C 	C 	0.1795	0.0111	0.6551	0.006
Mof_H 	H 	0.1627	0.9667	0.6674	0.034
Mof_C 	C 	0.2647	0.0357	0.6443	-0.087
Mof_C 	C 	0.289	0.1014	0.6245	0.117
Mof_C 	C 	0.2281	0.1409	0.6176	-0.041
Mof_C 	C 	0.1414	0.1125	0.6286	0.122
Mof_C 	C 	0.0055	0.1137	0.5908	-0.23
Mof_H 	H 	0.9741	0.1497	0.5871	0.11
Mof_H 	H 	0.0209	0.09	0.5592	0.115
Mof_H 	H 	0.9679	0.0725	0.6035	0.106
Mof_C 	C 	0.4564	0.1689	0.6443	-0.214
Mof_H 	H 	0.4616	0.1396	0.6677	0.101
Mof_H 	H 	0.5057	0.173	0.625	0.105
Mof_H 	H 	0.4573	0.2216	0.6618	0.11
Mof_C 	C 	0.3279	0.997	0.6578	0.121
Mof_C 	C 	0.3241	0.9814	0.7041	-0.158
Mof_H 	H 	0.2811	0.9933	0.7236	0.093
Mof_C 	C 	0.3834	0.9482	0.7217	0.064
Mof_H 	H 	0.3809	0.9403	0.7532	0.028
Mof_C 	C 	0.4468	0.9268	0.6921	-0.12
Mof_C 	C 	0.4482	0.943	0.6453	0.068
Mof_H 	H 	0.4905	0.9314	0.6252	0.022
Mof_C 	C 	0.3886	0.9753	0.6287	-0.163
Mof_H 	H 	0.3898	0.9826	0.5971	0.099
Mof_C 	C 	0.2909	0.298	0.7153	-0.24
Mof_H 	H 	0.3211	0.3043	0.7471	0.119
Mof_H 	H 	0.2765	0.3454	0.7155	0.11
Mof_H 	H 	0.2367	0.253	0.7084	0.116
Mof_C 	C 	0.1887	0.0955	0.4906	-0.115
Mof_H 	H 	0.234	0.0803	0.5055	0.076
Mof_H 	H 	0.1376	0.0488	0.4762	0.068
Mof_H 	H 	0.2121	0.12	0.4652	0.074
Mof_C 	C 	0.259	0.2157	0.6015	-0.059
Mof_C 	C 	0.3145	0.2863	0.6327	0.14
Mof_C 	C 	0.3401	0.3584	0.6203	-0.102
Mof_C 	C 	0.3049	0.3557	0.5719	0.027
Mof_H 	H 	0.3214	0.4023	0.5617	0.027
Mof_C 	C 	0.2463	0.2855	0.5395	-0.129
Mof_C 	C 	0.2234	0.2153	0.5543	0.154
Mof_C 	C 	0.2133	0.2901	0.4894	0.229
Mof_C 	C 	0.1303	0.2893	0.4794	-0.275
Mof_H 	H 	0.0904	0.2804	0.5026	0.136
Mof_C 	C 	0.1003	0.3014	0.4356	0.194
Mof_H 	H 	0.0432	0.305	0.4309	-0.02
Mof_C 	C 	0.1558	0.3078	0.3998	-0.268
Mof_C 	C 	0.2343	0.2964	0.4069	0.209
Mof_H 	H 	0.2696	0.2936	0.3812	-0.027
Mof_C 	C 	0.2647	0.2887	0.4525	-0.281
Mof_H 	H 	0.3205	0.2826	0.4571	0.136
Mof_C 	C 	0.1274	0.32	0.3523	0.489
Mof_C 	C 	0.4005	0.4336	0.651	0.131
Mof_C 	C 	0.4836	0.4393	0.6753	-0.171
Mof_H 	H 	0.4983	0.3936	0.6748	0.102
Mof_C 	C 	0.5426	0.5146	0.7	0.097
Mof_H 	H 	0.5954	0.5174	0.7172	0.011
Mof_C 	C 	0.5285	0.5834	0.7006	-0.15
Mof_C 	C 	0.4416	0.5788	0.6791	0.073
Mof_H 	H 	0.4256	0.6246	0.6824	0.026
Mof_C 	C 	0.383	0.5043	0.6535	-0.168
Mof_H 	H 	0.3292	0.5015	0.6372	0.095
Mof_C 	C 	0.5938	0.6662	0.7254	0.409
Mof_C 	C 	0.509	0.8948	0.7108	0.302
Mof_O 	O 	0.975	0.8075	0.7523	-0.6
Mof_O 	O 	0.0835	0.7553	0.7527	-0.328
Mof_O 	O 	0.0786	0.5747	0.7153	-0.253
Mof_O 	O 	0.0354	0.6025	0.789	-0.268
Mof_O 	O 	0.8503	0.5245	0.7236	-0.286
Mof_O 	O 	0.856	0.6453	0.77048	-0.518
Mof_O 	O 	0.7646	0.8432	0.7259	-0.517
Mof_O 	O 	0.746	0.9629	0.7518	-0.302
Mof_O 	O 	0.28	0.2111	0.1753	-0.59
Mof_O 	O 	0.3647	0.1324	0.1601	-0.339
Mof_O 	O 	0.6757	0.6703	0.73403	-0.502
Mof_O 	O 	0.5612	0.7225	0.7351	-0.319
Mof_O 	O 	0.5146	0.8974	0.7569	-0.256
Mof_O 	O 	0.5634	0.8678	0.6848	-0.248
Mof_O 	O 	0.0637	0.3476	0.3512	-0.331
Mof_O 	O 	0.1677	0.3015	0.3162	-0.535
Mof_O 	O 	0.5243	0.3379	0.8643	-0.166
Mof_O 	O 	0.2264	0.3517	0.8635	-0.168
Mof_O 	O 	0.4016	0.3502	0.9686	-0.175
Mof_O 	O 	0.2969	0.1973	0.799	-0.168
Mof_O 	O 	0.3473	0.2848	0.6784	-0.169
Mof_O 	O 	0.1647	0.1457	0.524	-0.191
Mof_O 	O 	0.3766	0.1295	0.6133	-0.159
Mof_O 	O 	0.0846	0.1562	0.6242	-0.158
Mof_Nd	Nd	0.82214	0.76551	0.76776	2.421
Mof_Cd	Cd	0.63065	0.85107	0.7589	0.489
Mof_Cd	Cd	0.97426	0.63895	0.72222	0.493
_end
