# CIF file generated by openbabel 3.1.0, see https://openbabel.org
data_I
_chemical_name_common 'image0'
_cell_length_a 11.09
_cell_length_b 23.206
_cell_length_c 23.91
_cell_angle_alpha 90
_cell_angle_beta 90
_cell_angle_gamma 90
_space_group_name_H-M_alt 'P 1'
_space_group_name_Hall 'P 1'
loop_
    _symmetry_equiv_pos_as_xyz
    x,y,z
loop_
    _atom_site_label
    _atom_site_type_symbol
    _atom_site_fract_x
    _atom_site_fract_y
    _atom_site_fract_z
    _atom_site_occupancy
    Se1      Se       0.25226    0.93302    0.43114    1.000
    N1       N        0.22590    0.07400    0.29190    1.000
    C1       C        0.27790    0.04490    0.32300    1.000
    Se2      Se       0.25226    0.43302    0.93114    1.000
    N2       N        0.22590    0.57400    0.79190    1.000
    C2       C        0.27790    0.54490    0.82300    1.000
    Se3      Se       0.75226    0.93302    0.93114    1.000
    N3       N        0.72590    0.07400    0.79190    1.000
    C3       C        0.77790    0.04490    0.82300    1.000
    Se4      Se       0.75226    0.43302    0.43114    1.000
    N4       N        0.72590    0.57400    0.29190    1.000
    C4       C        0.77790    0.54490    0.32300    1.000
    Se5      Se       0.49774    0.81698    0.43114    1.000
    N5       N        0.52410    0.67600    0.29190    1.000
    C5       C        0.47210    0.70510    0.32300    1.000
    Se6      Se       0.49774    0.31698    0.93114    1.000
    N6       N        0.52410    0.17600    0.79190    1.000
    C6       C        0.47210    0.20510    0.82300    1.000
    Se7      Se       0.99774    0.81698    0.93114    1.000
    N7       N        0.02410    0.67600    0.79190    1.000
    C7       C        0.97210    0.70510    0.82300    1.000
    Se8      Se       0.99774    0.31698    0.43114    1.000
    N8       N        0.02410    0.17600    0.29190    1.000
    C8       C        0.97210    0.20510    0.32300    1.000
    Se9      Se       0.49774    0.93302    0.31886    1.000
    N9       N        0.52410    0.07400    0.45810    1.000
    C9       C        0.47210    0.04490    0.42700    1.000
    Se10     Se       0.49774    0.43302    0.81886    1.000
    N10      N        0.52410    0.57400    0.95810    1.000
    C10      C        0.47210    0.54490    0.92700    1.000
    Se11     Se       0.99774    0.93302    0.81886    1.000
    N11      N        0.02410    0.07400    0.95810    1.000
    C11      C        0.97210    0.04490    0.92700    1.000
    Se12     Se       0.99774    0.43302    0.31886    1.000
    N12      N        0.02410    0.57400    0.45810    1.000
    C12      C        0.97210    0.54490    0.42700    1.000
    Se13     Se       0.25226    0.81698    0.31886    1.000
    N13      N        0.22590    0.67600    0.45810    1.000
    C13      C        0.27790    0.70510    0.42700    1.000
    Se14     Se       0.25226    0.31698    0.81886    1.000
    N14      N        0.22590    0.17600    0.95810    1.000
    C14      C        0.27790    0.20510    0.92700    1.000
    Se15     Se       0.75226    0.81698    0.81886    1.000
    N15      N        0.72590    0.67600    0.95810    1.000
    C15      C        0.77790    0.70510    0.92700    1.000
    Se16     Se       0.75226    0.31698    0.31886    1.000
    N16      N        0.72590    0.17600    0.45810    1.000
    C16      C        0.77790    0.20510    0.42700    1.000
    Se17     Se       0.74774    0.06698    0.56886    1.000
    N17      N        0.77410    0.92600    0.70810    1.000
    C17      C        0.72210    0.95510    0.67700    1.000
    Se18     Se       0.74774    0.56698    0.06886    1.000
    N18      N        0.77410    0.42600    0.20810    1.000
    C18      C        0.72210    0.45510    0.17700    1.000
    Se19     Se       0.24774    0.06698    0.06886    1.000
    N19      N        0.27410    0.92600    0.20810    1.000
    C19      C        0.22210    0.95510    0.17700    1.000
    Se20     Se       0.24774    0.56698    0.56886    1.000
    N20      N        0.27410    0.42600    0.70810    1.000
    C20      C        0.22210    0.45510    0.67700    1.000
    Se21     Se       0.50226    0.18302    0.56886    1.000
    N21      N        0.47590    0.32400    0.70810    1.000
    C21      C        0.52790    0.29490    0.67700    1.000
    Se22     Se       0.50226    0.68302    0.06886    1.000
    N22      N        0.47590    0.82400    0.20810    1.000
    C22      C        0.52790    0.79490    0.17700    1.000
    Se23     Se       0.00226    0.18302    0.06886    1.000
    N23      N        0.97590    0.32400    0.20810    1.000
    C23      C        0.02790    0.29490    0.17700    1.000
    Se24     Se       0.00226    0.68302    0.56886    1.000
    N24      N        0.97590    0.82400    0.70810    1.000
    C24      C        0.02790    0.79490    0.67700    1.000
    Se25     Se       0.50226    0.06698    0.68114    1.000
    N25      N        0.47590    0.92600    0.54190    1.000
    C25      C        0.52790    0.95510    0.57300    1.000
    Se26     Se       0.50226    0.56698    0.18114    1.000
    N26      N        0.47590    0.42600    0.04190    1.000
    C26      C        0.52790    0.45510    0.07300    1.000
    Se27     Se       0.00226    0.06698    0.18114    1.000
    N27      N        0.97590    0.92600    0.04190    1.000
    C27      C        0.02790    0.95510    0.07300    1.000
    Se28     Se       0.00226    0.56698    0.68114    1.000
    N28      N        0.97590    0.42600    0.54190    1.000
    C28      C        0.02790    0.45510    0.57300    1.000
    Se29     Se       0.74774    0.18302    0.68114    1.000
    N29      N        0.77410    0.32400    0.54190    1.000
    C29      C        0.72210    0.29490    0.57300    1.000
    Se30     Se       0.74774    0.68302    0.18114    1.000
    N30      N        0.77410    0.82400    0.04190    1.000
    C30      C        0.72210    0.79490    0.07300    1.000
    Se31     Se       0.24774    0.18302    0.18114    1.000
    N31      N        0.27410    0.32400    0.04190    1.000
    C31      C        0.22210    0.29490    0.07300    1.000
    Se32     Se       0.24774    0.68302    0.68114    1.000
    N32      N        0.27410    0.82400    0.54190    1.000
    C32      C        0.22210    0.79490    0.57300    1.000
    W1       W        0.37500    0.87500    0.37500    1.000
    W2       W        0.37500    0.37500    0.87500    1.000
    W3       W        0.87500    0.87500    0.87500    1.000
    W4       W        0.87500    0.37500    0.37500    1.000
    W5       W        0.62500    0.12500    0.62500    1.000
    W6       W        0.62500    0.62500    0.12500    1.000
    W7       W        0.12500    0.12500    0.12500    1.000
    W8       W        0.12500    0.62500    0.62500    1.000
    Cu1      Cu       0.37500    0.87500    0.25579    1.000
    Cu2      Cu       0.37500    0.37500    0.75579    1.000
    Cu3      Cu       0.87500    0.87500    0.75579    1.000
    Cu4      Cu       0.87500    0.37500    0.25579    1.000
    Cu5      Cu       0.37500    0.87500    0.49421    1.000
    Cu6      Cu       0.37500    0.37500    0.99421    1.000
    Cu7      Cu       0.87500    0.87500    0.99421    1.000
    Cu8      Cu       0.87500    0.37500    0.49421    1.000
    Cu9      Cu       0.62500    0.12500    0.74421    1.000
    Cu10     Cu       0.62500    0.62500    0.24421    1.000
    Cu11     Cu       0.12500    0.12500    0.24421    1.000
    Cu12     Cu       0.12500    0.62500    0.74421    1.000
    Cu13     Cu       0.62500    0.12500    0.50579    1.000
    Cu14     Cu       0.62500    0.62500    0.00579    1.000
    Cu15     Cu       0.12500    0.12500    0.00579    1.000
    Cu16     Cu       0.12500    0.62500    0.50579    1.000
    Cu17     Cu       0.37500    0.00027    0.37500    1.000
    Cu18     Cu       0.37500    0.50027    0.87500    1.000
    Cu19     Cu       0.87500    0.00027    0.87500    1.000
    Cu20     Cu       0.87500    0.50027    0.37500    1.000
    Cu21     Cu       0.37500    0.74973    0.37500    1.000
    Cu22     Cu       0.37500    0.24973    0.87500    1.000
    Cu23     Cu       0.87500    0.74973    0.87500    1.000
    Cu24     Cu       0.87500    0.24973    0.37500    1.000
    Cu25     Cu       0.62500    0.99973    0.62500    1.000
    Cu26     Cu       0.62500    0.49973    0.12500    1.000
    Cu27     Cu       0.12500    0.99973    0.12500    1.000
    Cu28     Cu       0.12500    0.49973    0.62500    1.000
    Cu29     Cu       0.62500    0.25027    0.62500    1.000
    Cu30     Cu       0.62500    0.75027    0.12500    1.000
    Cu31     Cu       0.12500    0.25027    0.12500    1.000
    Cu32     Cu       0.12500    0.75027    0.62500    1.000
