# CIF file generated by openbabel 3.1.0, see https://openbabel.org
data_I
_chemical_name_common 'image0'
_cell_length_a 15.9995
_cell_length_b 18.1852
_cell_length_c 24.8199
_cell_angle_alpha 90
_cell_angle_beta 102.917
_cell_angle_gamma 90
_space_group_name_H-M_alt 'P 1'
_space_group_name_Hall 'P 1'
loop_
    _symmetry_equiv_pos_as_xyz
    x,y,z
loop_
    _atom_site_label
    _atom_site_type_symbol
    _atom_site_fract_x
    _atom_site_fract_y
    _atom_site_fract_z
    _atom_site_occupancy
    Mn1      Mn       0.44614    0.92938    0.52057    1.000
    Mn2      Mn       0.59070    0.88112    0.42317    1.000
    Mn3      Mn       0.53544    0.75007    0.51480    1.000
    S1       S        0.09855    0.74178    0.62098    1.000
    S2       S        0.48144    0.80093    0.86260    1.000
    S3       S        0.95446    0.00258    0.70564    1.000
    O1       O        0.46072    0.87809    0.59708    1.000
    O2       O        0.85373    0.63772    0.96928    1.000
    O3       O        0.53699    0.86308    0.49104    1.000
    H1       H        0.58740    0.87750    0.51940    1.000
    O4       O        0.55362    0.00197    0.55219    1.000
    O5       O        0.35313    0.00168    0.54883    1.000
    O6       O        0.05600    0.70850    0.86898    1.000
    O7       O        0.70835    0.83110    0.46863    1.000
    O8       O        0.53022    0.06763    0.62384    1.000
    O9       O        0.33445    0.05156    0.62591    1.000
    O10      O        0.02950    0.78820    0.93148    1.000
    O11      O        0.67376    0.76009    0.53476    1.000
    O12      O        0.89590    0.75413    0.99045    1.000
    O13      O        0.53258    0.77201    0.60128    1.000
    O14      O        0.12440    0.68238    0.59034    1.000
    O15      O        0.10280    0.73250    0.67983    1.000
    O16      O        0.42550    0.74110    0.86884    1.000
    O17      O        0.46440    0.87270    0.88122    1.000
    O18      O        0.97940    0.07210    0.73271    1.000
    O19      O        0.99490    0.97810    0.66206    1.000
    C1       C        0.32170    0.00050    0.59112    1.000
    C2       C        0.26450    0.93650    0.59917    1.000
    C3       C        0.23750    0.88700    0.55699    1.000
    H2       H        0.25410    0.89290    0.52370    1.000
    C4       C        0.18620    0.82880    0.56379    1.000
    H3       H        0.16880    0.79520    0.53520    1.000
    C5       C        0.16060    0.81980    0.61233    1.000
    C6       C        0.18620    0.86880    0.65470    1.000
    H4       H        0.16810    0.86270    0.68750    1.000
    C7       C        0.23910    0.92810    0.64905    1.000
    H5       H        0.25700    0.96110    0.67790    1.000
    C8       C        0.99090    0.76230    0.58830    1.000
    C9       C        0.96850    0.78320    0.53450    1.000
    H6       H        0.01050    0.78960    0.51450    1.000
    C10      C        0.88250    0.79510    0.50920    1.000
    H7       H        0.86730    0.81160    0.47280    1.000
    C11      C        0.81930    0.78200    0.53883    1.000
    C12      C        0.84210    0.75830    0.59190    1.000
    H8       H        0.79970    0.74740    0.61090    1.000
    C13      C        0.92870    0.74990    0.61871    1.000
    H9       H        0.94410    0.73640    0.65580    1.000
    C14      C        0.72500    0.79210    0.51121    1.000
    C15      C        0.49590    0.82170    0.62162    1.000
    C16      C        0.49300    0.81680    0.68188    1.000
    C17      C        0.46410    0.87570    0.70764    1.000
    H10      H        0.44670    0.91850    0.68780    1.000
    C18      C        0.46070    0.87170    0.76337    1.000
    H11      H        0.44120    0.91140    0.78080    1.000
    C19      C        0.48690    0.80750    0.79200    1.000
    C20      C        0.51480    0.74720    0.76686    1.000
    H12      H        0.53110    0.70410    0.78670    1.000
    C21      C        0.51820    0.75190    0.71106    1.000
    H13      H        0.53720    0.71210    0.69360    1.000
    C22      C        0.58640    0.77370    0.89540    1.000
    C23      C        0.64810    0.82770    0.91561    1.000
    H14      H        0.63340    0.87720    0.91270    1.000
    C24      C        0.73090    0.80630    0.93984    1.000
    H15      H        0.77240    0.84130    0.95410    1.000
    C25      C        0.75150    0.73090    0.94263    1.000
    C26      C        0.69070    0.67850    0.92177    1.000
    H16      H        0.70560    0.62900    0.92290    1.000
    C27      C        0.60620    0.70040    0.89873    1.000
    H17      H        0.56410    0.66550    0.88580    1.000
    C28      C        0.84220    0.70640    0.96958    1.000
    C29      C        0.57760    0.03080    0.60033    1.000
    C30      C        0.67100    0.02020    0.62847    1.000
    C31      C        0.70690    0.06200    0.67484    1.000
    H18      H        0.67240    0.09380    0.68960    1.000
    C32      C        0.79350    0.05660    0.69928    1.000
    H19      H        0.81790    0.08570    0.72950    1.000
    C33      C        0.84260    0.00700    0.67779    1.000
    C34      C        0.80650    0.96340    0.63259    1.000
    H20      H        0.84020    0.92970    0.61890    1.000
    C35      C        0.72020    0.97040    0.60792    1.000
    H21      H        0.69570    0.94140    0.57760    1.000
    C36      C        0.97130    0.93340    0.75663    1.000
    C37      C        0.96040    0.94920    0.80930    1.000
    H22      H        0.93970    0.99490    0.81710    1.000
    C38      C        0.98070    0.89600    0.85000    1.000
    H23      H        0.97520    0.90670    0.88570    1.000
    C39      C        0.00900    0.82750    0.83840    1.000
    C40      C        0.01680    0.81200    0.78519    1.000
    H24      H        0.03530    0.76570    0.77690    1.000
    C41      C        0.99700    0.86550    0.74390    1.000
    H25      H        0.00140    0.85490    0.70800    1.000
    C42      C        0.03310    0.77070    0.88300    1.000
    Mn4      Mn       0.05386    0.42938    0.97943    1.000
    Mn5      Mn       0.90930    0.38112    0.07683    1.000
    Mn6      Mn       0.96456    0.25007    0.98520    1.000
    S4       S        0.40145    0.24178    0.87902    1.000
    S5       S        0.01856    0.30093    0.63740    1.000
    S6       S        0.54554    0.50258    0.79436    1.000
    O20      O        0.03928    0.37809    0.90292    1.000
    O21      O        0.64627    0.13772    0.53072    1.000
    O22      O        0.96301    0.36308    0.00896    1.000
    H26      H        0.91260    0.37750    0.98060    1.000
    O23      O        0.94638    0.50197    0.94781    1.000
    O24      O        0.14687    0.50168    0.95117    1.000
    O25      O        0.44400    0.20850    0.63102    1.000
    O26      O        0.79165    0.33110    0.03137    1.000
    O27      O        0.96978    0.56763    0.87616    1.000
    O28      O        0.16555    0.55156    0.87409    1.000
    O29      O        0.47050    0.28820    0.56852    1.000
    O30      O        0.82624    0.26009    0.96524    1.000
    O31      O        0.60410    0.25413    0.50955    1.000
    O32      O        0.96742    0.27201    0.89872    1.000
    O33      O        0.37560    0.18238    0.90966    1.000
    O34      O        0.39720    0.23250    0.82017    1.000
    O35      O        0.07450    0.24110    0.63116    1.000
    O36      O        0.03560    0.37270    0.61878    1.000
    O37      O        0.52060    0.57210    0.76729    1.000
    O38      O        0.50510    0.47810    0.83794    1.000
    C43      C        0.17830    0.50050    0.90888    1.000
    C44      C        0.23550    0.43650    0.90083    1.000
    C45      C        0.26250    0.38700    0.94301    1.000
    H27      H        0.24590    0.39290    0.97630    1.000
    C46      C        0.31380    0.32880    0.93621    1.000
    H28      H        0.33120    0.29520    0.96480    1.000
    C47      C        0.33940    0.31980    0.88767    1.000
    C48      C        0.31380    0.36880    0.84530    1.000
    H29      H        0.33190    0.36270    0.81250    1.000
    C49      C        0.26090    0.42810    0.85095    1.000
    H30      H        0.24300    0.46110    0.82210    1.000
    C50      C        0.50910    0.26230    0.91170    1.000
    C51      C        0.53150    0.28320    0.96550    1.000
    H31      H        0.48950    0.28960    0.98550    1.000
    C52      C        0.61750    0.29510    0.99080    1.000
    H32      H        0.63270    0.31160    0.02720    1.000
    C53      C        0.68070    0.28200    0.96117    1.000
    C54      C        0.65790    0.25830    0.90810    1.000
    H33      H        0.70030    0.24740    0.88910    1.000
    C55      C        0.57130    0.24990    0.88129    1.000
    H34      H        0.55590    0.23640    0.84420    1.000
    C56      C        0.77500    0.29210    0.98879    1.000
    C57      C        0.00410    0.32170    0.87838    1.000
    C58      C        0.00700    0.31680    0.81812    1.000
    C59      C        0.03590    0.37570    0.79236    1.000
    H35      H        0.05330    0.41850    0.81220    1.000
    C60      C        0.03930    0.37170    0.73663    1.000
    H36      H        0.05880    0.41140    0.71920    1.000
    C61      C        0.01310    0.30750    0.70800    1.000
    C62      C        0.98520    0.24720    0.73314    1.000
    H37      H        0.96890    0.20410    0.71330    1.000
    C63      C        0.98180    0.25190    0.78894    1.000
    H38      H        0.96280    0.21210    0.80640    1.000
    C64      C        0.91360    0.27370    0.60460    1.000
    C65      C        0.85190    0.32770    0.58439    1.000
    H39      H        0.86660    0.37720    0.58730    1.000
    C66      C        0.76910    0.30630    0.56016    1.000
    H40      H        0.72760    0.34130    0.54590    1.000
    C67      C        0.74850    0.23090    0.55737    1.000
    C68      C        0.80930    0.17850    0.57823    1.000
    H41      H        0.79440    0.12900    0.57710    1.000
    C69      C        0.89380    0.20040    0.60127    1.000
    H42      H        0.93590    0.16550    0.61420    1.000
    C70      C        0.65780    0.20640    0.53042    1.000
    C71      C        0.92240    0.53080    0.89967    1.000
    C72      C        0.82900    0.52020    0.87153    1.000
    C73      C        0.79310    0.56200    0.82516    1.000
    H43      H        0.82760    0.59380    0.81040    1.000
    C74      C        0.70650    0.55660    0.80072    1.000
    H44      H        0.68210    0.58570    0.77050    1.000
    C75      C        0.65740    0.50700    0.82221    1.000
    C76      C        0.69350    0.46340    0.86741    1.000
    H45      H        0.65980    0.42970    0.88110    1.000
    C77      C        0.77980    0.47040    0.89208    1.000
    H46      H        0.80430    0.44140    0.92240    1.000
    C78      C        0.52870    0.43340    0.74337    1.000
    C79      C        0.53960    0.44920    0.69070    1.000
    H47      H        0.56030    0.49490    0.68290    1.000
    C80      C        0.51930    0.39600    0.65000    1.000
    H48      H        0.52480    0.40670    0.61430    1.000
    C81      C        0.49100    0.32750    0.66160    1.000
    C82      C        0.48320    0.31200    0.71481    1.000
    H49      H        0.46470    0.26570    0.72310    1.000
    C83      C        0.50300    0.36550    0.75610    1.000
    H50      H        0.49860    0.35490    0.79200    1.000
    C84      C        0.46690    0.27070    0.61700    1.000
    Mn7      Mn       0.55386    0.07062    0.47943    1.000
    Mn8      Mn       0.40930    0.11888    0.57683    1.000
    Mn9      Mn       0.46456    0.24993    0.48520    1.000
    S7       S        0.90145    0.25822    0.37902    1.000
    S8       S        0.51856    0.19907    0.13740    1.000
    S9       S        0.04554    0.99742    0.29436    1.000
    O39      O        0.53928    0.12191    0.40292    1.000
    O40      O        0.14627    0.36228    0.03072    1.000
    O41      O        0.46301    0.13692    0.50896    1.000
    H51      H        0.41260    0.12250    0.48060    1.000
    O42      O        0.44638    0.99803    0.44781    1.000
    O43      O        0.64687    0.99832    0.45117    1.000
    O44      O        0.94400    0.29150    0.13102    1.000
    O45      O        0.29165    0.16890    0.53137    1.000
    O46      O        0.46978    0.93237    0.37616    1.000
    O47      O        0.66555    0.94844    0.37409    1.000
    O48      O        0.97050    0.21180    0.06852    1.000
    O49      O        0.32624    0.23991    0.46524    1.000
    O50      O        0.10410    0.24587    0.00955    1.000
    O51      O        0.46742    0.22799    0.39872    1.000
    O52      O        0.87560    0.31762    0.40966    1.000
    O53      O        0.89720    0.26750    0.32017    1.000
    O54      O        0.57450    0.25890    0.13116    1.000
    O55      O        0.53560    0.12730    0.11878    1.000
    O56      O        0.02060    0.92790    0.26729    1.000
    O57      O        0.00510    0.02190    0.33794    1.000
    C85      C        0.67830    0.99950    0.40888    1.000
    C86      C        0.73550    0.06350    0.40083    1.000
    C87      C        0.76250    0.11300    0.44301    1.000
    H52      H        0.74590    0.10710    0.47630    1.000
    C88      C        0.81380    0.17120    0.43621    1.000
    H53      H        0.83120    0.20480    0.46480    1.000
    C89      C        0.83940    0.18020    0.38767    1.000
    C90      C        0.81380    0.13120    0.34530    1.000
    H54      H        0.83190    0.13730    0.31250    1.000
    C91      C        0.76090    0.07190    0.35095    1.000
    H55      H        0.74300    0.03890    0.32210    1.000
    C92      C        0.00910    0.23770    0.41170    1.000
    C93      C        0.03150    0.21680    0.46550    1.000
    H56      H        0.98950    0.21040    0.48550    1.000
    C94      C        0.11750    0.20490    0.49080    1.000
    H57      H        0.13270    0.18840    0.52720    1.000
    C95      C        0.18070    0.21800    0.46117    1.000
    C96      C        0.15790    0.24170    0.40810    1.000
    H58      H        0.20030    0.25260    0.38910    1.000
    C97      C        0.07130    0.25010    0.38129    1.000
    H59      H        0.05590    0.26360    0.34420    1.000
    C98      C        0.27500    0.20790    0.48879    1.000
    C99      C        0.50410    0.17830    0.37838    1.000
    C100     C        0.50700    0.18320    0.31812    1.000
    C101     C        0.53590    0.12430    0.29236    1.000
    H60      H        0.55330    0.08150    0.31220    1.000
    C102     C        0.53930    0.12830    0.23663    1.000
    H61      H        0.55880    0.08860    0.21920    1.000
    C103     C        0.51310    0.19250    0.20800    1.000
    C104     C        0.48520    0.25280    0.23314    1.000
    H62      H        0.46890    0.29590    0.21330    1.000
    C105     C        0.48180    0.24810    0.28894    1.000
    H63      H        0.46280    0.28790    0.30640    1.000
    C106     C        0.41360    0.22630    0.10460    1.000
    C107     C        0.35190    0.17230    0.08439    1.000
    H64      H        0.36660    0.12280    0.08730    1.000
    C108     C        0.26910    0.19370    0.06016    1.000
    H65      H        0.22760    0.15870    0.04590    1.000
    C109     C        0.24850    0.26910    0.05737    1.000
    C110     C        0.30930    0.32150    0.07823    1.000
    H66      H        0.29440    0.37100    0.07710    1.000
    C111     C        0.39380    0.29960    0.10127    1.000
    H67      H        0.43590    0.33450    0.11420    1.000
    C112     C        0.15780    0.29360    0.03042    1.000
    C113     C        0.42240    0.96920    0.39967    1.000
    C114     C        0.32900    0.97980    0.37153    1.000
    C115     C        0.29310    0.93800    0.32516    1.000
    H68      H        0.32760    0.90620    0.31040    1.000
    C116     C        0.20650    0.94340    0.30072    1.000
    H69      H        0.18210    0.91430    0.27050    1.000
    C117     C        0.15740    0.99300    0.32221    1.000
    C118     C        0.19350    0.03660    0.36741    1.000
    H70      H        0.15980    0.07030    0.38110    1.000
    C119     C        0.27980    0.02960    0.39208    1.000
    H71      H        0.30430    0.05860    0.42240    1.000
    C120     C        0.02870    0.06660    0.24337    1.000
    C121     C        0.03960    0.05080    0.19070    1.000
    H72      H        0.06030    0.00510    0.18290    1.000
    C122     C        0.01930    0.10400    0.15000    1.000
    H73      H        0.02480    0.09330    0.11430    1.000
    C123     C        0.99100    0.17250    0.16160    1.000
    C124     C        0.98320    0.18800    0.21481    1.000
    H74      H        0.96470    0.23430    0.22310    1.000
    C125     C        0.00300    0.13450    0.25610    1.000
    H75      H        0.99860    0.14510    0.29200    1.000
    C126     C        0.96690    0.22930    0.11700    1.000
    Mn10     Mn       0.94614    0.57062    0.02057    1.000
    Mn11     Mn       0.09070    0.61888    0.92317    1.000
    Mn12     Mn       0.03544    0.74993    0.01480    1.000
    S10      S        0.59855    0.75822    0.12098    1.000
    S11      S        0.98144    0.69907    0.36260    1.000
    S12      S        0.45446    0.49742    0.20564    1.000
    O58      O        0.96072    0.62191    0.09708    1.000
    O59      O        0.35373    0.86228    0.46928    1.000
    O60      O        0.03699    0.63692    0.99104    1.000
    H76      H        0.08740    0.62250    0.01940    1.000
    O61      O        0.05362    0.49803    0.05219    1.000
    O62      O        0.85313    0.49832    0.04883    1.000
    O63      O        0.55600    0.79150    0.36898    1.000
    O64      O        0.20835    0.66890    0.96863    1.000
    O65      O        0.03022    0.43237    0.12384    1.000
    O66      O        0.83445    0.44844    0.12591    1.000
    O67      O        0.52950    0.71180    0.43148    1.000
    O68      O        0.17376    0.73991    0.03476    1.000
    O69      O        0.39590    0.74587    0.49045    1.000
    O70      O        0.03258    0.72799    0.10128    1.000
    O71      O        0.62440    0.81762    0.09034    1.000
    O72      O        0.60280    0.76750    0.17983    1.000
    O73      O        0.92550    0.75890    0.36884    1.000
    O74      O        0.96440    0.62730    0.38122    1.000
    O75      O        0.47940    0.42790    0.23271    1.000
    O76      O        0.49490    0.52190    0.16206    1.000
    C127     C        0.82170    0.49950    0.09112    1.000
    C128     C        0.76450    0.56350    0.09917    1.000
    C129     C        0.73750    0.61300    0.05699    1.000
    H77      H        0.75410    0.60710    0.02370    1.000
    C130     C        0.68620    0.67120    0.06379    1.000
    H78      H        0.66880    0.70480    0.03520    1.000
    C131     C        0.66060    0.68020    0.11233    1.000
    C132     C        0.68620    0.63120    0.15470    1.000
    H79      H        0.66810    0.63730    0.18750    1.000
    C133     C        0.73910    0.57190    0.14905    1.000
    H80      H        0.75700    0.53890    0.17790    1.000
    C134     C        0.49090    0.73770    0.08830    1.000
    C135     C        0.46850    0.71680    0.03450    1.000
    H81      H        0.51050    0.71040    0.01450    1.000
    C136     C        0.38250    0.70490    0.00920    1.000
    H82      H        0.36730    0.68840    0.97280    1.000
    C137     C        0.31930    0.71800    0.03883    1.000
    C138     C        0.34210    0.74170    0.09190    1.000
    H83      H        0.29970    0.75260    0.11090    1.000
    C139     C        0.42870    0.75010    0.11871    1.000
    H84      H        0.44410    0.76360    0.15580    1.000
    C140     C        0.22500    0.70790    0.01121    1.000
    C141     C        0.99590    0.67830    0.12162    1.000
    C142     C        0.99300    0.68320    0.18188    1.000
    C143     C        0.96410    0.62430    0.20764    1.000
    H85      H        0.94670    0.58150    0.18780    1.000
    C144     C        0.96070    0.62830    0.26337    1.000
    H86      H        0.94120    0.58860    0.28080    1.000
    C145     C        0.98690    0.69250    0.29200    1.000
    C146     C        0.01480    0.75280    0.26686    1.000
    H87      H        0.03110    0.79590    0.28670    1.000
    C147     C        0.01820    0.74810    0.21106    1.000
    H88      H        0.03720    0.78790    0.19360    1.000
    C148     C        0.08640    0.72630    0.39540    1.000
    C149     C        0.14810    0.67230    0.41561    1.000
    H89      H        0.13340    0.62280    0.41270    1.000
    C150     C        0.23090    0.69370    0.43984    1.000
    H90      H        0.27240    0.65870    0.45410    1.000
    C151     C        0.25150    0.76910    0.44263    1.000
    C152     C        0.19070    0.82150    0.42177    1.000
    H91      H        0.20560    0.87100    0.42290    1.000
    C153     C        0.10620    0.79960    0.39873    1.000
    H92      H        0.06410    0.83450    0.38580    1.000
    C154     C        0.34220    0.79360    0.46958    1.000
    C155     C        0.07760    0.46920    0.10033    1.000
    C156     C        0.17100    0.47980    0.12847    1.000
    C157     C        0.20690    0.43800    0.17484    1.000
    H93      H        0.17240    0.40620    0.18960    1.000
    C158     C        0.29350    0.44340    0.19928    1.000
    H94      H        0.31790    0.41430    0.22950    1.000
    C159     C        0.34260    0.49300    0.17779    1.000
    C160     C        0.30650    0.53660    0.13259    1.000
    H95      H        0.34020    0.57030    0.11890    1.000
    C161     C        0.22020    0.52960    0.10792    1.000
    H96      H        0.19570    0.55860    0.07760    1.000
    C162     C        0.47130    0.56660    0.25663    1.000
    C163     C        0.46040    0.55080    0.30930    1.000
    H97      H        0.43970    0.50510    0.31710    1.000
    C164     C        0.48070    0.60400    0.35000    1.000
    H98      H        0.47520    0.59330    0.38570    1.000
    C165     C        0.50900    0.67250    0.33840    1.000
    C166     C        0.51680    0.68800    0.28519    1.000
    H99      H        0.53530    0.73430    0.27690    1.000
    C167     C        0.49700    0.63450    0.24390    1.000
    H100     H        0.50140    0.64510    0.20800    1.000
    C168     C        0.53310    0.72930    0.38300    1.000
