# CIF file generated by openbabel 3.1.0, see https://openbabel.org
data_I
_chemical_name_common 'image0'
_cell_length_a 8.8946
_cell_length_b 9.8125
_cell_length_c 12.2507
_cell_angle_alpha 81.742
_cell_angle_beta 71.831
_cell_angle_gamma 72.827
_space_group_name_H-M_alt 'P 1'
_space_group_name_Hall 'P 1'
loop_
    _symmetry_equiv_pos_as_xyz
    x,y,z
loop_
    _atom_site_label
    _atom_site_type_symbol
    _atom_site_fract_x
    _atom_site_fract_y
    _atom_site_fract_z
    _atom_site_occupancy
    Mn1      Mn       0.93886    0.34054    0.71726    1.000
    Mn2      Mn       0.40124    0.95431    0.92639    1.000
    P1       P        0.68817    0.11332    0.77624    1.000
    P2       P        0.71856    0.66904    0.81466    1.000
    O1       O        0.82230    0.17310    0.78630    1.000
    O2       O        0.74620    0.00890    0.68170    1.000
    O3       O        0.60840    0.04520    0.89290    1.000
    O4       O        0.55100    0.24020    0.74030    1.000
    H1       H        0.51180    0.29920    0.78970    1.000
    O5       O        0.74040    0.51390    0.79720    1.000
    O6       O        0.54860    0.74250    0.88650    1.000
    O7       O        0.76150    0.74640    0.69340    1.000
    H2       H        0.74030    0.83250    0.70020    1.000
    O8       O        0.85020    0.67520    0.87390    1.000
    H3       H        0.80570    0.72730    0.92800    1.000
    O9       O        0.88800    0.37330    0.55220    1.000
    O10      O        0.91780    0.50700    0.38660    1.000
    O11      O        0.35140    0.01290    0.75960    1.000
    O12      O        0.17890    0.16650    0.67270    1.000
    O13      O        0.23170    0.17830    0.94130    1.000
    O14      O        0.05860    0.33000    0.85340    1.000
    C1       C        0.94350    0.46560    0.48250    1.000
    C2       C        0.24050    0.12390    0.75420    1.000
    C3       C        0.16960    0.22040    0.86070    1.000
    Mn3      Mn       0.06114    0.65946    0.28274    1.000
    Mn4      Mn       0.59876    0.04569    0.07361    1.000
    P3       P        0.31183    0.88668    0.22376    1.000
    P4       P        0.28144    0.33096    0.18534    1.000
    O15      O        0.17770    0.82690    0.21370    1.000
    O16      O        0.25380    0.99110    0.31830    1.000
    O17      O        0.39160    0.95480    0.10710    1.000
    O18      O        0.44900    0.75980    0.25970    1.000
    H4       H        0.48820    0.70080    0.21030    1.000
    O19      O        0.25960    0.48610    0.20280    1.000
    O20      O        0.45140    0.25750    0.11350    1.000
    O21      O        0.23850    0.25360    0.30660    1.000
    H5       H        0.25970    0.16750    0.29980    1.000
    O22      O        0.14980    0.32480    0.12610    1.000
    H6       H        0.19430    0.27270    0.07200    1.000
    O23      O        0.11200    0.62670    0.44780    1.000
    O24      O        0.08220    0.49300    0.61340    1.000
    O25      O        0.64860    0.98710    0.24040    1.000
    O26      O        0.82110    0.83350    0.32730    1.000
    O27      O        0.76830    0.82170    0.05870    1.000
    O28      O        0.94140    0.67000    0.14660    1.000
    C4       C        0.05650    0.53440    0.51750    1.000
    C5       C        0.75950    0.87610    0.24580    1.000
    C6       C        0.83040    0.77960    0.13930    1.000
