data_functionalizedCrystal
_audit_creation_method	'EQeq! by Chris Wilmer'
_symmetry_space_group_name_H-M	'P1'
_symmetry_Int_Tables_number	1
_symmetry_cell_setting	triclinic
loop_
_symmetry_equiv_pos_as_xyz
  x,y,z
_cell_length_a	40.4245
_cell_length_b	40.4245
_cell_length_c	17.8143
_cell_angle_alpha	90
_cell_angle_beta	90
_cell_angle_gamma	90
loop_
_atom_site_label
_atom_site_type_symbol
_atom_site_fract_x
_atom_site_fract_y
_atom_site_fract_z
_atom_site_charge
Mof_Mn	Mn	0.92602	0.54334	0.82625	1.011
Mof_O 	O 	0.90473	0.51625	0.75629	-0.435
Mof_O 	O 	0.00485	0.52137	0.68616	-0.378
Mof_O 	O 	0.95477	0.56953	0.89	-0.382
Mof_N 	N 	0.96793	0.53595	0.77644	-0.251
Mof_N 	N 	0.99541	0.5516	0.81097	-0.19
Mof_C 	C 	0.91634	0.50204	0.6968	0.316
Mof_C 	C 	0.89387	0.48331	0.6524	-0.275
Mof_H 	H 	0.872	0.4796	0.6702	0.128
Mof_C 	C 	0.90332	0.4705	0.5841	0.143
Mof_H 	H 	0.8879	0.4576	0.5566	-0.021
Mof_C 	C 	0.9342	0.4758	0.5542	-0.199
Mof_H 	H 	0.9394	0.4688	0.5047	0.103
Mof_C 	C 	0.95798	0.492	0.5998	0.126
Mof_H 	H 	0.9801	0.4942	0.5826	0.005
Mof_C 	C 	0.94917	0.50451	0.6696	-0.246
Mof_C 	C 	0.97525	0.52129	0.7123	0.299
Mof_C 	C 	0.986	0.56821	0.86989	0.225
Mof_C 	C 	0.01126	0.58646	0.9151	-0.145
Mof_H 	H 	0.0249	0.5999	0.8805	0.065
Mof_H 	H 	0.026	0.5701	0.9393	0.074
Mof_C 	C 	0.99777	0.60882	0.9748	-0.258
Mof_H 	H 	0.9862	0.6274	0.9512	0.103
Mof_H 	H 	0.016	0.6172	0.0056	0.098
Mof_H 	H 	0.9823	0.5965	0.0065	0.106
Mof_Mn	Mn	0.04183	0.53382	0.75312	1.057
Mof_O 	O 	0.051	0.57487	0.71146	-0.428
Mof_O 	O 	0.11528	0.56578	0.89885	-0.376
Mof_O 	O 	0.03915	0.49214	0.80561	-0.385
Mof_N 	N 	0.07689	0.53994	0.82597	-0.249
Mof_N 	N 	0.08236	0.5121	0.87243	-0.192
Mof_N 	N 	0.0745	0.50622	0.6689	-0.218
Mof_C 	C 	0.07313	0.59744	0.7305	0.31
Mof_C 	C 	0.07517	0.62616	0.6853	-0.269
Mof_H 	H 	0.0609	0.6284	0.6432	0.129
Mof_C 	C 	0.0974	0.65072	0.7014	0.142
Mof_H 	H 	0.0981	0.6698	0.6703	-0.029
Mof_C 	C 	0.11887	0.64849	0.7619	-0.203
Mof_H 	H 	0.1343	0.6657	0.772	0.1
Mof_C 	C 	0.11743	0.62088	0.8071	0.124
Mof_H 	H 	0.1321	0.6192	0.8486	0.008
Mof_C 	C 	0.0947	0.59494	0.7931	-0.234
Mof_C 	C 	0.09579	0.56567	0.84226	0.296
Mof_C 	C 	0.06186	0.48864	0.8566	0.236
Mof_C 	C 	0.06481	0.45598	0.8948	-0.145
Mof_H 	H 	0.047	0.4541	0.9326	0.066
Mof_H 	H 	0.0862	0.4552	0.9219	0.061
Mof_C 	C 	0.0629	0.42637	0.8427	-0.263
Mof_H 	H 	0.0419	0.4269	0.8153	0.105
Mof_H 	H 	0.0643	0.406	0.8722	0.096
Mof_H 	H 	0.0813	0.4272	0.8069	0.103
Mof_C 	C 	0.10454	0.51	0.6612	0.187
Mof_H 	H 	0.1145	0.5272	0.6897	-0.038
Mof_C 	C 	0.12548	0.4916	0.6147	-0.291
Mof_H 	H 	0.1485	0.4963	0.6145	0.121
Mof_C 	C 	0.11463	0.4696	0.5742	0.208
Mof_C 	C 	0.0827	0.4574	0.5939	-0.213
Mof_H 	H 	0.0749	0.4369	0.5746	0.095
Mof_C 	C 	0.06324	0.476	0.6413	0.113
Mof_H 	H 	0.042	0.4682	0.6553	-0.002
Mof_C 	C 	0.13674	0.4509	0.5196	-0.198
Mof_H 	H 	0.1552	0.4657	0.5052	0.082
Mof_H 	H 	0.1465	0.4318	0.5466	0.078
Mof_Mn	Mn	0.88697	0.47166	0.02845	1.055
Mof_O 	O 	0.84861	0.49184	0.06021	-0.432
Mof_O 	O 	0.88522	0.55197	0.88245	-0.388
Mof_O 	O 	0.92776	0.45628	0.98463	-0.388
Mof_N 	N 	0.8943	0.50636	0.95486	-0.248
Mof_N 	N 	0.92449	0.50378	0.91515	-0.19
Mof_N 	N 	0.18937	0.39096	0.30373	-0.205
Mof_C 	C 	0.83159	0.51651	0.0282	0.311
Mof_C 	C 	0.79992	0.52244	0.056	-0.27
Mof_H 	H 	0.7917	0.5091	0.0958	0.131
Mof_C 	C 	0.78013	0.54742	0.027	0.137
Mof_H 	H 	0.7587	0.551	0.047	-0.023
Mof_C 	C 	0.79161	0.56733	0.9684	-0.199
Mof_H 	H 	0.7781	0.5843	0.9481	0.108
Mof_C 	C 	0.82283	0.5619	0.9406	0.13
Mof_H 	H 	0.8309	0.5755	0.9012	0.012
Mof_C 	C 	0.84322	0.53664	0.9691	-0.239
Mof_C 	C 	0.87578	0.53191	0.9339	0.301
Mof_C 	C 	0.93972	0.47707	0.9352	0.238
Mof_C 	C 	0.97168	0.46792	0.898	-0.167
Mof_H 	H 	0.9818	0.4877	0.8749	0.076
Mof_H 	H 	0.9873	0.4589	0.9356	0.078
Mof_C 	C 	0.9643	0.441	0.8355	-0.257
Mof_H 	H 	0.9512	0.451	0.7951	0.1
Mof_H 	H 	0.9852	0.4327	0.815	0.098
Mof_H 	H 	0.9519	0.4226	0.8577	0.103
Mof_C 	C 	0.17195	0.41736	0.2837	0.121
Mof_H 	H 	0.1743	0.4253	0.2338	-0.002
Mof_C 	C 	0.15062	0.43391	0.3308	-0.201
Mof_H 	H 	0.1389	0.4528	0.3138	0.103
Mof_C 	C 	0.14667	0.42255	0.4027	0.132
Mof_C 	C 	0.1645	0.3958	0.4238	-0.193
Mof_H 	H 	0.1622	0.3872	0.4731	0.087
Mof_C 	C 	0.18629	0.38075	0.3741	0.114
Mof_H 	H 	0.1993	0.3627	0.391	-0.01
Mof_C 	C 	0.1226	0.4396	0.4565	-0.115
Mof_H 	H 	0.1121	0.4584	0.4301	0.063
Mof_H 	H 	0.105	0.4237	0.4702	0.055
Mof_Mn	Mn	0.42602	0.04334	0.32625	1.01
Mof_O 	O 	0.40473	0.01625	0.25629	-0.436
Mof_O 	O 	0.50485	0.02137	0.18616	-0.379
Mof_O 	O 	0.45477	0.06953	0.39	-0.383
Mof_N 	N 	0.46793	0.03595	0.27644	-0.252
Mof_N 	N 	0.49541	0.0516	0.31097	-0.191
Mof_C 	C 	0.41634	0.00204	0.1968	0.315
Mof_C 	C 	0.39387	0.98331	0.1524	-0.276
Mof_H 	H 	0.372	0.9796	0.1702	0.127
Mof_C 	C 	0.40332	0.9705	0.0841	0.142
Mof_H 	H 	0.3879	0.9576	0.0566	-0.022
Mof_C 	C 	0.4342	0.9758	0.0542	-0.2
Mof_H 	H 	0.4394	0.9688	0.0047	0.102
Mof_C 	C 	0.45798	0.992	0.0998	0.125
Mof_H 	H 	0.4801	0.9942	0.0826	0.004
Mof_C 	C 	0.44917	0.00451	0.1696	-0.247
Mof_C 	C 	0.47525	0.02129	0.2123	0.298
Mof_C 	C 	0.486	0.06821	0.36989	0.224
Mof_C 	C 	0.51126	0.08646	0.4151	-0.146
Mof_H 	H 	0.5249	0.0999	0.3805	0.065
Mof_H 	H 	0.526	0.0701	0.4393	0.074
Mof_C 	C 	0.49777	0.10882	0.4748	-0.257
Mof_H 	H 	0.4862	0.1274	0.4512	0.102
Mof_H 	H 	0.516	0.1172	0.5056	0.097
Mof_H 	H 	0.4823	0.0965	0.5065	0.104
Mof_Mn	Mn	0.54183	0.03382	0.25312	1.056
Mof_O 	O 	0.551	0.07487	0.21146	-0.429
Mof_O 	O 	0.61528	0.06578	0.39885	-0.377
Mof_O 	O 	0.53915	0.99214	0.30561	-0.386
Mof_N 	N 	0.57689	0.03994	0.32597	-0.25
Mof_N 	N 	0.58236	0.0121	0.37243	-0.193
Mof_N 	N 	0.5745	0.00622	0.1689	-0.219
Mof_C 	C 	0.57313	0.09744	0.2305	0.309
Mof_C 	C 	0.57517	0.12616	0.1853	-0.27
Mof_H 	H 	0.5609	0.1284	0.1432	0.128
Mof_C 	C 	0.5974	0.15072	0.2014	0.141
Mof_H 	H 	0.5981	0.1698	0.1703	-0.029
Mof_C 	C 	0.61887	0.14849	0.2619	-0.203
Mof_H 	H 	0.6343	0.1657	0.272	0.1
Mof_C 	C 	0.61743	0.12088	0.3071	0.124
Mof_H 	H 	0.6321	0.1192	0.3486	0.008
Mof_C 	C 	0.5947	0.09494	0.2931	-0.234
Mof_C 	C 	0.59579	0.06567	0.34226	0.296
Mof_C 	C 	0.56186	0.98864	0.3566	0.236
Mof_C 	C 	0.56481	0.95598	0.3948	-0.145
Mof_H 	H 	0.547	0.9541	0.4326	0.066
Mof_H 	H 	0.5862	0.9552	0.4219	0.061
Mof_C 	C 	0.5629	0.92637	0.3427	-0.264
Mof_H 	H 	0.5419	0.9269	0.3153	0.105
Mof_H 	H 	0.5643	0.906	0.3722	0.096
Mof_H 	H 	0.5813	0.9272	0.3069	0.103
Mof_C 	C 	0.60454	0.01	0.1612	0.187
Mof_H 	H 	0.6145	0.0272	0.1897	-0.038
Mof_C 	C 	0.62548	0.9916	0.1147	-0.291
Mof_H 	H 	0.6485	0.9963	0.1145	0.121
Mof_C 	C 	0.61463	0.9696	0.0742	0.208
Mof_C 	C 	0.5827	0.9574	0.0939	-0.213
Mof_H 	H 	0.5749	0.9369	0.0746	0.095
Mof_C 	C 	0.56324	0.976	0.1413	0.113
Mof_H 	H 	0.542	0.9682	0.1553	-0.002
Mof_C 	C 	0.63674	0.9509	0.0196	-0.197
Mof_H 	H 	0.6552	0.9657	0.0052	0.082
Mof_H 	H 	0.6465	0.9318	0.0466	0.078
Mof_Mn	Mn	0.38697	0.97166	0.52845	1.055
Mof_O 	O 	0.34861	0.99184	0.56021	-0.432
Mof_O 	O 	0.38522	0.05197	0.38245	-0.388
Mof_O 	O 	0.42776	0.95628	0.48463	-0.388
Mof_N 	N 	0.3943	0.00636	0.45486	-0.248
Mof_N 	N 	0.42449	0.00378	0.41515	-0.19
Mof_N 	N 	0.68937	0.89096	0.80373	-0.205
Mof_C 	C 	0.33159	0.01651	0.5282	0.311
Mof_C 	C 	0.29992	0.02244	0.556	-0.27
Mof_H 	H 	0.2917	0.0091	0.5958	0.131
Mof_C 	C 	0.28013	0.04742	0.527	0.137
Mof_H 	H 	0.2587	0.051	0.547	-0.023
Mof_C 	C 	0.29161	0.06733	0.4684	-0.199
Mof_H 	H 	0.2781	0.0843	0.4481	0.108
Mof_C 	C 	0.32283	0.0619	0.4406	0.13
Mof_H 	H 	0.3309	0.0755	0.4012	0.012
Mof_C 	C 	0.34322	0.03664	0.4691	-0.239
Mof_C 	C 	0.37578	0.03191	0.4339	0.301
Mof_C 	C 	0.43972	0.97707	0.4352	0.238
Mof_C 	C 	0.47168	0.96792	0.398	-0.167
Mof_H 	H 	0.4818	0.9877	0.3749	0.076
Mof_H 	H 	0.4873	0.9589	0.4356	0.078
Mof_C 	C 	0.4643	0.941	0.3355	-0.257
Mof_H 	H 	0.4512	0.951	0.2951	0.1
Mof_H 	H 	0.4852	0.9327	0.315	0.098
Mof_H 	H 	0.4519	0.9226	0.3577	0.103
Mof_C 	C 	0.67195	0.91736	0.7837	0.121
Mof_H 	H 	0.6743	0.9253	0.7338	-0.002
Mof_C 	C 	0.65062	0.93391	0.8308	-0.201
Mof_H 	H 	0.6389	0.9528	0.8138	0.103
Mof_C 	C 	0.64667	0.92255	0.9027	0.132
Mof_C 	C 	0.6645	0.8958	0.9238	-0.193
Mof_H 	H 	0.6622	0.8872	0.9731	0.087
Mof_C 	C 	0.68629	0.88075	0.8741	0.114
Mof_H 	H 	0.6993	0.8627	0.891	-0.01
Mof_C 	C 	0.6226	0.9396	0.9565	-0.115
Mof_H 	H 	0.6121	0.9584	0.9301	0.063
Mof_H 	H 	0.605	0.9237	0.9702	0.055
Mof_Mn	Mn	0.57398	0.45666	0.32625	1.01
Mof_O 	O 	0.59527	0.48375	0.25629	-0.436
Mof_O 	O 	0.49515	0.47863	0.18616	-0.379
Mof_O 	O 	0.54523	0.43047	0.39	-0.383
Mof_N 	N 	0.53207	0.46405	0.27644	-0.252
Mof_N 	N 	0.50459	0.4484	0.31097	-0.191
Mof_C 	C 	0.58366	0.49796	0.1968	0.315
Mof_C 	C 	0.60613	0.51669	0.1524	-0.276
Mof_H 	H 	0.628	0.5204	0.1702	0.127
Mof_C 	C 	0.59668	0.5295	0.0841	0.142
Mof_H 	H 	0.6121	0.5424	0.0566	-0.022
Mof_C 	C 	0.5658	0.5242	0.0542	-0.2
Mof_H 	H 	0.5606	0.5312	0.0047	0.102
Mof_C 	C 	0.54202	0.508	0.0998	0.125
Mof_H 	H 	0.5199	0.5058	0.0826	0.004
Mof_C 	C 	0.55083	0.49549	0.1696	-0.247
Mof_C 	C 	0.52475	0.47871	0.2123	0.298
Mof_C 	C 	0.514	0.43179	0.36989	0.224
Mof_C 	C 	0.48874	0.41354	0.4151	-0.146
Mof_H 	H 	0.4751	0.4001	0.3805	0.065
Mof_H 	H 	0.474	0.4299	0.4393	0.074
Mof_C 	C 	0.50223	0.39118	0.4748	-0.257
Mof_H 	H 	0.5138	0.3726	0.4512	0.102
Mof_H 	H 	0.484	0.3828	0.5056	0.097
Mof_H 	H 	0.5177	0.4035	0.5065	0.104
Mof_Mn	Mn	0.45817	0.46618	0.25312	1.056
Mof_O 	O 	0.449	0.42513	0.21146	-0.429
Mof_O 	O 	0.38472	0.43422	0.39885	-0.377
Mof_O 	O 	0.46085	0.50786	0.30561	-0.386
Mof_N 	N 	0.42311	0.46006	0.32597	-0.25
Mof_N 	N 	0.41764	0.4879	0.37243	-0.193
Mof_N 	N 	0.4255	0.49378	0.1689	-0.219
Mof_C 	C 	0.42687	0.40256	0.2305	0.309
Mof_C 	C 	0.42483	0.37384	0.1853	-0.27
Mof_H 	H 	0.4391	0.3716	0.1432	0.128
Mof_C 	C 	0.4026	0.34928	0.2014	0.141
Mof_H 	H 	0.4019	0.3302	0.1703	-0.029
Mof_C 	C 	0.38113	0.35151	0.2619	-0.203
Mof_H 	H 	0.3657	0.3343	0.272	0.1
Mof_C 	C 	0.38257	0.37912	0.3071	0.124
Mof_H 	H 	0.3679	0.3808	0.3486	0.008
Mof_C 	C 	0.4053	0.40506	0.2931	-0.234
Mof_C 	C 	0.40421	0.43433	0.34226	0.296
Mof_C 	C 	0.43814	0.51136	0.3566	0.236
Mof_C 	C 	0.43519	0.54402	0.3948	-0.145
Mof_H 	H 	0.453	0.5459	0.4326	0.066
Mof_H 	H 	0.4138	0.5448	0.4219	0.061
Mof_C 	C 	0.4371	0.57363	0.3427	-0.264
Mof_H 	H 	0.4581	0.5731	0.3153	0.105
Mof_H 	H 	0.4357	0.594	0.3722	0.096
Mof_H 	H 	0.4187	0.5728	0.3069	0.103
Mof_C 	C 	0.39546	0.49	0.1612	0.187
Mof_H 	H 	0.3855	0.4728	0.1897	-0.038
Mof_C 	C 	0.37452	0.5084	0.1147	-0.291
Mof_H 	H 	0.3515	0.5037	0.1145	0.121
Mof_C 	C 	0.38537	0.5304	0.0742	0.208
Mof_C 	C 	0.4173	0.5426	0.0939	-0.213
Mof_H 	H 	0.4251	0.5631	0.0746	0.095
Mof_C 	C 	0.43676	0.524	0.1413	0.113
Mof_H 	H 	0.458	0.5318	0.1553	-0.002
Mof_C 	C 	0.36326	0.5491	0.0196	-0.197
Mof_H 	H 	0.3448	0.5343	0.0052	0.082
Mof_H 	H 	0.3535	0.5682	0.0466	0.078
Mof_Mn	Mn	0.61303	0.52834	0.52845	1.055
Mof_O 	O 	0.65139	0.50816	0.56021	-0.432
Mof_O 	O 	0.61478	0.44803	0.38245	-0.388
Mof_O 	O 	0.57224	0.54372	0.48463	-0.388
Mof_N 	N 	0.6057	0.49364	0.45486	-0.248
Mof_N 	N 	0.57551	0.49622	0.41515	-0.19
Mof_N 	N 	0.31063	0.60904	0.80373	-0.205
Mof_C 	C 	0.66841	0.48349	0.5282	0.311
Mof_C 	C 	0.70008	0.47756	0.556	-0.27
Mof_H 	H 	0.7083	0.4909	0.5958	0.131
Mof_C 	C 	0.71987	0.45258	0.527	0.137
Mof_H 	H 	0.7413	0.449	0.547	-0.023
Mof_C 	C 	0.70839	0.43267	0.4684	-0.199
Mof_H 	H 	0.7219	0.4157	0.4481	0.108
Mof_C 	C 	0.67717	0.4381	0.4406	0.13
Mof_H 	H 	0.6691	0.4245	0.4012	0.012
Mof_C 	C 	0.65678	0.46336	0.4691	-0.239
Mof_C 	C 	0.62422	0.46809	0.4339	0.301
Mof_C 	C 	0.56028	0.52293	0.4352	0.238
Mof_C 	C 	0.52832	0.53208	0.398	-0.167
Mof_H 	H 	0.5182	0.5123	0.3749	0.076
Mof_H 	H 	0.5127	0.5411	0.4356	0.078
Mof_C 	C 	0.5357	0.559	0.3355	-0.257
Mof_H 	H 	0.5488	0.549	0.2951	0.1
Mof_H 	H 	0.5148	0.5673	0.315	0.098
Mof_H 	H 	0.5481	0.5774	0.3577	0.103
Mof_C 	C 	0.32805	0.58264	0.7837	0.121
Mof_H 	H 	0.3257	0.5747	0.7338	-0.002
Mof_C 	C 	0.34938	0.56609	0.8308	-0.201
Mof_H 	H 	0.3611	0.5472	0.8138	0.103
Mof_C 	C 	0.35333	0.57745	0.9027	0.132
Mof_C 	C 	0.3355	0.6042	0.9238	-0.193
Mof_H 	H 	0.3378	0.6128	0.9731	0.087
Mof_C 	C 	0.31371	0.61925	0.8741	0.114
Mof_H 	H 	0.3007	0.6373	0.891	-0.01
Mof_C 	C 	0.3774	0.5604	0.9565	-0.115
Mof_H 	H 	0.3879	0.5416	0.9301	0.063
Mof_H 	H 	0.395	0.5763	0.9702	0.055
Mof_Mn	Mn	0.07398	0.95666	0.82625	1.01
Mof_O 	O 	0.09527	0.98375	0.75629	-0.436
Mof_O 	O 	0.99515	0.97863	0.68616	-0.379
Mof_O 	O 	0.04523	0.93047	0.89	-0.383
Mof_N 	N 	0.03207	0.96405	0.77644	-0.252
Mof_N 	N 	0.00459	0.9484	0.81097	-0.191
Mof_C 	C 	0.08366	0.99796	0.6968	0.315
Mof_C 	C 	0.10613	0.01669	0.6524	-0.276
Mof_H 	H 	0.128	0.0204	0.6702	0.127
Mof_C 	C 	0.09668	0.0295	0.5841	0.142
Mof_H 	H 	0.1121	0.0424	0.5566	-0.022
Mof_C 	C 	0.0658	0.0242	0.5542	-0.2
Mof_H 	H 	0.0606	0.0312	0.5047	0.102
Mof_C 	C 	0.04202	0.008	0.5998	0.125
Mof_H 	H 	0.0199	0.0058	0.5826	0.004
Mof_C 	C 	0.05083	0.99549	0.6696	-0.247
Mof_C 	C 	0.02475	0.97871	0.7123	0.298
Mof_C 	C 	0.014	0.93179	0.86989	0.224
Mof_C 	C 	0.98874	0.91354	0.9151	-0.146
Mof_H 	H 	0.9751	0.9001	0.8805	0.064
Mof_H 	H 	0.974	0.9299	0.9393	0.074
Mof_C 	C 	0.00223	0.89118	0.9748	-0.258
Mof_H 	H 	0.0138	0.8726	0.9512	0.102
Mof_H 	H 	0.984	0.8828	0.0056	0.097
Mof_H 	H 	0.0177	0.9035	0.0065	0.105
Mof_Mn	Mn	0.95817	0.96618	0.75312	1.055
Mof_O 	O 	0.949	0.92513	0.71146	-0.429
Mof_O 	O 	0.88472	0.93422	0.89885	-0.377
Mof_O 	O 	0.96085	0.00786	0.80561	-0.386
Mof_N 	N 	0.92311	0.96006	0.82597	-0.25
Mof_N 	N 	0.91764	0.9879	0.87243	-0.193
Mof_N 	N 	0.9255	0.99378	0.6689	-0.219
Mof_C 	C 	0.92687	0.90256	0.7305	0.309
Mof_C 	C 	0.92483	0.87384	0.6853	-0.27
Mof_H 	H 	0.9391	0.8716	0.6432	0.128
Mof_C 	C 	0.9026	0.84928	0.7014	0.141
Mof_H 	H 	0.9019	0.8302	0.6703	-0.029
Mof_C 	C 	0.88113	0.85151	0.7619	-0.203
Mof_H 	H 	0.8657	0.8343	0.772	0.1
Mof_C 	C 	0.88257	0.87912	0.8071	0.124
Mof_H 	H 	0.8679	0.8808	0.8486	0.008
Mof_C 	C 	0.9053	0.90506	0.7931	-0.234
Mof_C 	C 	0.90421	0.93433	0.84226	0.296
Mof_C 	C 	0.93814	0.01136	0.8566	0.236
Mof_C 	C 	0.93519	0.04402	0.8948	-0.145
Mof_H 	H 	0.953	0.0459	0.9326	0.066
Mof_H 	H 	0.9138	0.0448	0.9219	0.061
Mof_C 	C 	0.9371	0.07363	0.8427	-0.264
Mof_H 	H 	0.9581	0.0731	0.8153	0.105
Mof_H 	H 	0.9357	0.094	0.8722	0.096
Mof_H 	H 	0.9187	0.0728	0.8069	0.103
Mof_C 	C 	0.89546	0.99	0.6612	0.187
Mof_H 	H 	0.8855	0.9728	0.6897	-0.038
Mof_C 	C 	0.87452	0.0084	0.6147	-0.291
Mof_H 	H 	0.8515	0.0037	0.6145	0.121
Mof_C 	C 	0.88537	0.0304	0.5742	0.208
Mof_C 	C 	0.9173	0.0426	0.5939	-0.213
Mof_H 	H 	0.9251	0.0631	0.5746	0.095
Mof_C 	C 	0.93676	0.024	0.6413	0.113
Mof_H 	H 	0.958	0.0318	0.6553	-0.002
Mof_C 	C 	0.86326	0.0491	0.5196	-0.198
Mof_H 	H 	0.8448	0.0343	0.5052	0.082
Mof_H 	H 	0.8535	0.0682	0.5466	0.078
Mof_Mn	Mn	0.11303	0.02834	0.02845	1.055
Mof_O 	O 	0.15139	0.00816	0.06021	-0.432
Mof_O 	O 	0.11478	0.94803	0.88245	-0.388
Mof_O 	O 	0.07224	0.04372	0.98463	-0.388
Mof_N 	N 	0.1057	0.99364	0.95486	-0.248
Mof_N 	N 	0.07551	0.99622	0.91515	-0.19
Mof_N 	N 	0.81063	0.10904	0.30373	-0.205
Mof_C 	C 	0.16841	0.98349	0.0282	0.311
Mof_C 	C 	0.20008	0.97756	0.056	-0.27
Mof_H 	H 	0.2083	0.9909	0.0958	0.131
Mof_C 	C 	0.21987	0.95258	0.027	0.137
Mof_H 	H 	0.2413	0.949	0.047	-0.023
Mof_C 	C 	0.20839	0.93267	0.9684	-0.199
Mof_H 	H 	0.2219	0.9157	0.9481	0.108
Mof_C 	C 	0.17717	0.9381	0.9406	0.13
Mof_H 	H 	0.1691	0.9245	0.9012	0.012
Mof_C 	C 	0.15678	0.96336	0.9691	-0.239
Mof_C 	C 	0.12422	0.96809	0.9339	0.301
Mof_C 	C 	0.06028	0.02293	0.9352	0.238
Mof_C 	C 	0.02832	0.03208	0.898	-0.167
Mof_H 	H 	0.0182	0.0123	0.8749	0.076
Mof_H 	H 	0.0127	0.0411	0.9356	0.078
Mof_C 	C 	0.0357	0.059	0.8355	-0.257
Mof_H 	H 	0.0488	0.049	0.7951	0.1
Mof_H 	H 	0.0148	0.0673	0.815	0.098
Mof_H 	H 	0.0481	0.0774	0.8577	0.103
Mof_C 	C 	0.82805	0.08264	0.2837	0.121
Mof_H 	H 	0.8257	0.0747	0.2338	-0.002
Mof_C 	C 	0.84938	0.06609	0.3308	-0.201
Mof_H 	H 	0.8611	0.0472	0.3138	0.103
Mof_C 	C 	0.85333	0.07745	0.4027	0.132
Mof_C 	C 	0.8355	0.1042	0.4238	-0.193
Mof_H 	H 	0.8378	0.1128	0.4731	0.087
Mof_C 	C 	0.81371	0.11925	0.3741	0.114
Mof_H 	H 	0.8007	0.1373	0.391	-0.01
Mof_C 	C 	0.8774	0.0604	0.4565	-0.115
Mof_H 	H 	0.8879	0.0416	0.4301	0.063
Mof_H 	H 	0.895	0.0763	0.4702	0.055
Mof_Mn	Mn	0.20666	0.17602	0.07625	1.01
Mof_O 	O 	0.23375	0.15473	0.00629	-0.436
Mof_O 	O 	0.22863	0.25485	0.93616	-0.379
Mof_O 	O 	0.18047	0.20477	0.14	-0.383
Mof_N 	N 	0.21405	0.21793	0.02644	-0.252
Mof_N 	N 	0.1984	0.24541	0.06097	-0.191
Mof_C 	C 	0.24796	0.16634	0.9468	0.315
Mof_C 	C 	0.26669	0.14387	0.9024	-0.276
Mof_H 	H 	0.2704	0.122	0.9202	0.127
Mof_C 	C 	0.2795	0.15332	0.8341	0.142
Mof_H 	H 	0.2924	0.1379	0.8066	-0.022
Mof_C 	C 	0.2742	0.1842	0.8042	-0.201
Mof_H 	H 	0.2812	0.1894	0.7547	0.102
Mof_C 	C 	0.258	0.20798	0.8498	0.125
Mof_H 	H 	0.2558	0.2301	0.8326	0.004
Mof_C 	C 	0.24549	0.19917	0.9196	-0.247
Mof_C 	C 	0.22871	0.22525	0.9623	0.298
Mof_C 	C 	0.18179	0.236	0.11989	0.224
Mof_C 	C 	0.16354	0.26126	0.1651	-0.146
Mof_H 	H 	0.1501	0.2749	0.1305	0.065
Mof_H 	H 	0.1799	0.276	0.1893	0.074
Mof_C 	C 	0.14118	0.24777	0.2248	-0.257
Mof_H 	H 	0.1226	0.2362	0.2012	0.102
Mof_H 	H 	0.1328	0.266	0.2556	0.097
Mof_H 	H 	0.1535	0.2323	0.2565	0.104
Mof_Mn	Mn	0.21618	0.29183	0.00312	1.055
Mof_O 	O 	0.17513	0.301	0.96146	-0.429
Mof_O 	O 	0.18422	0.36528	0.14885	-0.377
Mof_O 	O 	0.25786	0.28915	0.05561	-0.386
Mof_N 	N 	0.21006	0.32689	0.07597	-0.25
Mof_N 	N 	0.2379	0.33236	0.12243	-0.193
Mof_N 	N 	0.24378	0.3245	0.9189	-0.219
Mof_C 	C 	0.15256	0.32313	0.9805	0.309
Mof_C 	C 	0.12384	0.32517	0.9353	-0.27
Mof_H 	H 	0.1216	0.3109	0.8932	0.128
Mof_C 	C 	0.09928	0.3474	0.9514	0.142
Mof_H 	H 	0.0802	0.3481	0.9203	-0.029
Mof_C 	C 	0.10151	0.36887	0.0119	-0.203
Mof_H 	H 	0.0843	0.3843	0.022	0.1
Mof_C 	C 	0.12912	0.36743	0.0571	0.125
Mof_H 	H 	0.1308	0.3821	0.0986	0.008
Mof_C 	C 	0.15506	0.3447	0.0431	-0.235
Mof_C 	C 	0.18433	0.34579	0.09226	0.296
Mof_C 	C 	0.26136	0.31186	0.1066	0.236
Mof_C 	C 	0.29402	0.31481	0.1448	-0.145
Mof_H 	H 	0.2959	0.297	0.1826	0.066
Mof_H 	H 	0.2948	0.3362	0.1719	0.061
Mof_C 	C 	0.32363	0.3129	0.0927	-0.264
Mof_H 	H 	0.3231	0.2919	0.0653	0.105
Mof_H 	H 	0.344	0.3143	0.1222	0.096
Mof_H 	H 	0.3228	0.3313	0.0569	0.103
Mof_C 	C 	0.24	0.35454	0.9112	0.187
Mof_H 	H 	0.2228	0.3645	0.9397	-0.038
Mof_C 	C 	0.2584	0.37548	0.8647	-0.291
Mof_H 	H 	0.2537	0.3985	0.8645	0.121
Mof_C 	C 	0.2804	0.36463	0.8242	0.208
Mof_C 	C 	0.2926	0.3327	0.8439	-0.213
Mof_H 	H 	0.3131	0.3249	0.8246	0.095
Mof_C 	C 	0.274	0.31324	0.8913	0.113
Mof_H 	H 	0.2818	0.292	0.9053	-0.002
Mof_C 	C 	0.2991	0.38674	0.7696	-0.198
Mof_H 	H 	0.2843	0.4052	0.7552	0.082
Mof_H 	H 	0.3182	0.3965	0.7966	0.078
Mof_Mn	Mn	0.27834	0.13697	0.27845	1.055
Mof_O 	O 	0.25816	0.09861	0.31021	-0.432
Mof_O 	O 	0.19803	0.13522	0.13245	-0.388
Mof_O 	O 	0.29372	0.17776	0.23463	-0.388
Mof_N 	N 	0.24364	0.1443	0.20486	-0.248
Mof_N 	N 	0.24622	0.17449	0.16515	-0.19
Mof_N 	N 	0.35904	0.43937	0.55373	-0.205
Mof_C 	C 	0.23349	0.08159	0.2782	0.311
Mof_C 	C 	0.22756	0.04992	0.306	-0.27
Mof_H 	H 	0.2409	0.0417	0.3458	0.131
Mof_C 	C 	0.20258	0.03013	0.277	0.137
Mof_H 	H 	0.199	0.0087	0.297	-0.023
Mof_C 	C 	0.18267	0.04161	0.2184	-0.199
Mof_H 	H 	0.1657	0.0281	0.1981	0.108
Mof_C 	C 	0.1881	0.07283	0.1906	0.13
Mof_H 	H 	0.1745	0.0809	0.1512	0.012
Mof_C 	C 	0.21336	0.09322	0.2191	-0.239
Mof_C 	C 	0.21809	0.12578	0.1839	0.301
Mof_C 	C 	0.27293	0.18972	0.1852	0.238
Mof_C 	C 	0.28208	0.22168	0.148	-0.167
Mof_H 	H 	0.2623	0.2318	0.1249	0.076
Mof_H 	H 	0.2911	0.2373	0.1856	0.078
Mof_C 	C 	0.309	0.2143	0.0855	-0.257
Mof_H 	H 	0.299	0.2012	0.0451	0.1
Mof_H 	H 	0.3173	0.2352	0.065	0.098
Mof_H 	H 	0.3274	0.2019	0.1077	0.103
Mof_C 	C 	0.33264	0.42195	0.5337	0.121
Mof_H 	H 	0.3247	0.4243	0.4838	-0.002
Mof_C 	C 	0.31609	0.40062	0.5808	-0.201
Mof_H 	H 	0.2972	0.3889	0.5638	0.103
Mof_C 	C 	0.32745	0.39667	0.6527	0.132
Mof_C 	C 	0.3542	0.4145	0.6738	-0.193
Mof_H 	H 	0.3628	0.4122	0.7231	0.087
Mof_C 	C 	0.36925	0.43629	0.6241	0.114
Mof_H 	H 	0.3873	0.4493	0.641	-0.01
Mof_C 	C 	0.3104	0.3726	0.7065	-0.115
Mof_H 	H 	0.2916	0.3621	0.6801	0.063
Mof_H 	H 	0.3263	0.355	0.7202	0.055
Mof_Mn	Mn	0.70666	0.67602	0.57625	1.01
Mof_O 	O 	0.73375	0.65473	0.50629	-0.436
Mof_O 	O 	0.72863	0.75485	0.43616	-0.379
Mof_O 	O 	0.68047	0.70477	0.64	-0.383
Mof_N 	N 	0.71405	0.71793	0.52644	-0.252
Mof_N 	N 	0.6984	0.74541	0.56097	-0.191
Mof_C 	C 	0.74796	0.66634	0.4468	0.315
Mof_C 	C 	0.76669	0.64387	0.4024	-0.276
Mof_H 	H 	0.7704	0.622	0.4202	0.127
Mof_C 	C 	0.7795	0.65332	0.3341	0.142
Mof_H 	H 	0.7924	0.6379	0.3066	-0.022
Mof_C 	C 	0.7742	0.6842	0.3042	-0.2
Mof_H 	H 	0.7812	0.6894	0.2547	0.102
Mof_C 	C 	0.758	0.70798	0.3498	0.125
Mof_H 	H 	0.7558	0.7301	0.3326	0.004
Mof_C 	C 	0.74549	0.69917	0.4196	-0.247
Mof_C 	C 	0.72871	0.72525	0.4623	0.298
Mof_C 	C 	0.68179	0.736	0.61989	0.224
Mof_C 	C 	0.66354	0.76126	0.6651	-0.146
Mof_H 	H 	0.6501	0.7749	0.6305	0.065
Mof_H 	H 	0.6799	0.776	0.6893	0.074
Mof_C 	C 	0.64118	0.74777	0.7248	-0.257
Mof_H 	H 	0.6226	0.7362	0.7012	0.102
Mof_H 	H 	0.6328	0.766	0.7556	0.097
Mof_H 	H 	0.6535	0.7323	0.7565	0.104
Mof_Mn	Mn	0.71618	0.79183	0.50312	1.056
Mof_O 	O 	0.67513	0.801	0.46146	-0.429
Mof_O 	O 	0.68422	0.86528	0.64885	-0.377
Mof_O 	O 	0.75786	0.78915	0.55561	-0.386
Mof_N 	N 	0.71006	0.82689	0.57597	-0.25
Mof_N 	N 	0.7379	0.83236	0.62243	-0.193
Mof_N 	N 	0.74378	0.8245	0.4189	-0.219
Mof_C 	C 	0.65256	0.82313	0.4805	0.309
Mof_C 	C 	0.62384	0.82517	0.4353	-0.27
Mof_H 	H 	0.6216	0.8109	0.3932	0.128
Mof_C 	C 	0.59928	0.8474	0.4514	0.141
Mof_H 	H 	0.5802	0.8481	0.4203	-0.029
Mof_C 	C 	0.60151	0.86887	0.5119	-0.203
Mof_H 	H 	0.5843	0.8843	0.522	0.1
Mof_C 	C 	0.62912	0.86743	0.5571	0.124
Mof_H 	H 	0.6308	0.8821	0.5986	0.008
Mof_C 	C 	0.65506	0.8447	0.5431	-0.234
Mof_C 	C 	0.68433	0.84579	0.59226	0.296
Mof_C 	C 	0.76136	0.81186	0.6066	0.236
Mof_C 	C 	0.79402	0.81481	0.6448	-0.145
Mof_H 	H 	0.7959	0.797	0.6826	0.066
Mof_H 	H 	0.7948	0.8362	0.6719	0.061
Mof_C 	C 	0.82363	0.8129	0.5927	-0.264
Mof_H 	H 	0.8231	0.7919	0.5653	0.105
Mof_H 	H 	0.844	0.8143	0.6222	0.096
Mof_H 	H 	0.8228	0.8313	0.5569	0.103
Mof_C 	C 	0.74	0.85454	0.4112	0.187
Mof_H 	H 	0.7228	0.8645	0.4397	-0.038
Mof_C 	C 	0.7584	0.87548	0.3647	-0.291
Mof_H 	H 	0.7537	0.8985	0.3645	0.121
Mof_C 	C 	0.7804	0.86463	0.3242	0.208
Mof_C 	C 	0.7926	0.8327	0.3439	-0.213
Mof_H 	H 	0.8131	0.8249	0.3246	0.095
Mof_C 	C 	0.774	0.81324	0.3913	0.113
Mof_H 	H 	0.7818	0.792	0.4053	-0.002
Mof_C 	C 	0.7991	0.88674	0.2696	-0.198
Mof_H 	H 	0.7843	0.9052	0.2552	0.082
Mof_H 	H 	0.8182	0.8965	0.2966	0.078
Mof_Mn	Mn	0.77834	0.63697	0.77845	1.055
Mof_O 	O 	0.75816	0.59861	0.81021	-0.432
Mof_O 	O 	0.69803	0.63522	0.63245	-0.388
Mof_O 	O 	0.79372	0.67776	0.73463	-0.388
Mof_N 	N 	0.74364	0.6443	0.70486	-0.248
Mof_N 	N 	0.74622	0.67449	0.66515	-0.19
Mof_N 	N 	0.85904	0.93937	0.05373	-0.205
Mof_C 	C 	0.73349	0.58159	0.7782	0.311
Mof_C 	C 	0.72756	0.54992	0.806	-0.27
Mof_H 	H 	0.7409	0.5417	0.8458	0.131
Mof_C 	C 	0.70258	0.53013	0.777	0.137
Mof_H 	H 	0.699	0.5087	0.797	-0.023
Mof_C 	C 	0.68267	0.54161	0.7184	-0.199
Mof_H 	H 	0.6657	0.5281	0.6981	0.108
Mof_C 	C 	0.6881	0.57283	0.6906	0.13
Mof_H 	H 	0.6745	0.5809	0.6512	0.012
Mof_C 	C 	0.71336	0.59322	0.7191	-0.239
Mof_C 	C 	0.71809	0.62578	0.6839	0.301
Mof_C 	C 	0.77293	0.68972	0.6852	0.238
Mof_C 	C 	0.78208	0.72168	0.648	-0.167
Mof_H 	H 	0.7623	0.7318	0.6249	0.076
Mof_H 	H 	0.7911	0.7373	0.6856	0.078
Mof_C 	C 	0.809	0.7143	0.5855	-0.257
Mof_H 	H 	0.799	0.7012	0.5451	0.1
Mof_H 	H 	0.8173	0.7352	0.565	0.098
Mof_H 	H 	0.8274	0.7019	0.6077	0.103
Mof_C 	C 	0.83264	0.92195	0.0337	0.122
Mof_H 	H 	0.8247	0.9243	0.9838	-0.002
Mof_C 	C 	0.81609	0.90062	0.0808	-0.201
Mof_H 	H 	0.7972	0.8889	0.0638	0.103
Mof_C 	C 	0.82745	0.89667	0.1527	0.132
Mof_C 	C 	0.8542	0.9145	0.1738	-0.193
Mof_H 	H 	0.8628	0.9122	0.2231	0.087
Mof_C 	C 	0.86925	0.93629	0.1241	0.114
Mof_H 	H 	0.8873	0.9493	0.141	-0.01
Mof_C 	C 	0.8104	0.8726	0.2065	-0.115
Mof_H 	H 	0.7916	0.8621	0.1801	0.063
Mof_H 	H 	0.8263	0.855	0.2202	0.055
Mof_Mn	Mn	0.29334	0.82398	0.57625	1.01
Mof_O 	O 	0.26625	0.84527	0.50629	-0.436
Mof_O 	O 	0.27137	0.74515	0.43616	-0.379
Mof_O 	O 	0.31953	0.79523	0.64	-0.383
Mof_N 	N 	0.28595	0.78207	0.52644	-0.252
Mof_N 	N 	0.3016	0.75459	0.56097	-0.191
Mof_C 	C 	0.25204	0.83366	0.4468	0.315
Mof_C 	C 	0.23331	0.85613	0.4024	-0.276
Mof_H 	H 	0.2296	0.878	0.4202	0.127
Mof_C 	C 	0.2205	0.84668	0.3341	0.142
Mof_H 	H 	0.2076	0.8621	0.3066	-0.022
Mof_C 	C 	0.2258	0.8158	0.3042	-0.2
Mof_H 	H 	0.2188	0.8106	0.2547	0.102
Mof_C 	C 	0.242	0.79202	0.3498	0.125
Mof_H 	H 	0.2442	0.7699	0.3326	0.004
Mof_C 	C 	0.25451	0.80083	0.4196	-0.247
Mof_C 	C 	0.27129	0.77475	0.4623	0.298
Mof_C 	C 	0.31821	0.764	0.61989	0.224
Mof_C 	C 	0.33646	0.73874	0.6651	-0.146
Mof_H 	H 	0.3499	0.7251	0.6305	0.065
Mof_H 	H 	0.3201	0.724	0.6893	0.074
Mof_C 	C 	0.35882	0.75223	0.7248	-0.257
Mof_H 	H 	0.3774	0.7638	0.7012	0.102
Mof_H 	H 	0.3672	0.734	0.7556	0.097
Mof_H 	H 	0.3465	0.7677	0.7565	0.104
Mof_Mn	Mn	0.28382	0.70817	0.50312	1.056
Mof_O 	O 	0.32487	0.699	0.46146	-0.429
Mof_O 	O 	0.31578	0.63472	0.64885	-0.377
Mof_O 	O 	0.24214	0.71085	0.55561	-0.386
Mof_N 	N 	0.28994	0.67311	0.57597	-0.25
Mof_N 	N 	0.2621	0.66764	0.62243	-0.193
Mof_N 	N 	0.25622	0.6755	0.4189	-0.219
Mof_C 	C 	0.34744	0.67687	0.4805	0.309
Mof_C 	C 	0.37616	0.67483	0.4353	-0.27
Mof_H 	H 	0.3784	0.6891	0.3932	0.128
Mof_C 	C 	0.40072	0.6526	0.4514	0.141
Mof_H 	H 	0.4198	0.6519	0.4203	-0.029
Mof_C 	C 	0.39849	0.63113	0.5119	-0.203
Mof_H 	H 	0.4157	0.6157	0.522	0.1
Mof_C 	C 	0.37088	0.63257	0.5571	0.124
Mof_H 	H 	0.3692	0.6179	0.5986	0.008
Mof_C 	C 	0.34494	0.6553	0.5431	-0.234
Mof_C 	C 	0.31567	0.65421	0.59226	0.296
Mof_C 	C 	0.23864	0.68814	0.6066	0.236
Mof_C 	C 	0.20598	0.68519	0.6448	-0.145
Mof_H 	H 	0.2041	0.703	0.6826	0.066
Mof_H 	H 	0.2052	0.6638	0.6719	0.061
Mof_C 	C 	0.17637	0.6871	0.5927	-0.264
Mof_H 	H 	0.1769	0.7081	0.5653	0.105
Mof_H 	H 	0.156	0.6857	0.6222	0.096
Mof_H 	H 	0.1772	0.6687	0.5569	0.103
Mof_C 	C 	0.26	0.64546	0.4112	0.187
Mof_H 	H 	0.2772	0.6355	0.4397	-0.038
Mof_C 	C 	0.2416	0.62452	0.3647	-0.291
Mof_H 	H 	0.2463	0.6015	0.3645	0.121
Mof_C 	C 	0.2196	0.63537	0.3242	0.208
Mof_C 	C 	0.2074	0.6673	0.3439	-0.213
Mof_H 	H 	0.1869	0.6751	0.3246	0.095
Mof_C 	C 	0.226	0.68676	0.3913	0.113
Mof_H 	H 	0.2182	0.708	0.4053	-0.002
Mof_C 	C 	0.2009	0.61326	0.2696	-0.198
Mof_H 	H 	0.2157	0.5948	0.2552	0.082
Mof_H 	H 	0.1818	0.6035	0.2966	0.078
Mof_Mn	Mn	0.22166	0.86303	0.77845	1.055
Mof_O 	O 	0.24184	0.90139	0.81021	-0.432
Mof_O 	O 	0.30197	0.86478	0.63245	-0.388
Mof_O 	O 	0.20628	0.82224	0.73463	-0.388
Mof_N 	N 	0.25636	0.8557	0.70486	-0.248
Mof_N 	N 	0.25378	0.82551	0.66515	-0.19
Mof_N 	N 	0.14096	0.56063	0.05373	-0.205
Mof_C 	C 	0.26651	0.91841	0.7782	0.311
Mof_C 	C 	0.27244	0.95008	0.806	-0.27
Mof_H 	H 	0.2591	0.9583	0.8458	0.131
Mof_C 	C 	0.29742	0.96987	0.777	0.137
Mof_H 	H 	0.301	0.9913	0.797	-0.023
Mof_C 	C 	0.31733	0.95839	0.7184	-0.199
Mof_H 	H 	0.3343	0.9719	0.6981	0.108
Mof_C 	C 	0.3119	0.92717	0.6906	0.13
Mof_H 	H 	0.3255	0.9191	0.6512	0.012
Mof_C 	C 	0.28664	0.90678	0.7191	-0.239
Mof_C 	C 	0.28191	0.87422	0.6839	0.301
Mof_C 	C 	0.22707	0.81028	0.6852	0.238
Mof_C 	C 	0.21792	0.77832	0.648	-0.167
Mof_H 	H 	0.2377	0.7682	0.6249	0.076
Mof_H 	H 	0.2089	0.7627	0.6856	0.078
Mof_C 	C 	0.191	0.7857	0.5855	-0.257
Mof_H 	H 	0.201	0.7988	0.5451	0.1
Mof_H 	H 	0.1827	0.7648	0.565	0.098
Mof_H 	H 	0.1726	0.7981	0.6077	0.103
Mof_C 	C 	0.16736	0.57805	0.0337	0.122
Mof_H 	H 	0.1753	0.5757	0.9838	-0.002
Mof_C 	C 	0.18391	0.59938	0.0808	-0.201
Mof_H 	H 	0.2028	0.6111	0.0638	0.103
Mof_C 	C 	0.17255	0.60333	0.1527	0.132
Mof_C 	C 	0.1458	0.5855	0.1738	-0.193
Mof_H 	H 	0.1372	0.5878	0.2231	0.087
Mof_C 	C 	0.13075	0.56371	0.1241	0.114
Mof_H 	H 	0.1127	0.5507	0.141	-0.01
Mof_C 	C 	0.1896	0.6274	0.2065	-0.115
Mof_H 	H 	0.2084	0.6379	0.1801	0.063
Mof_H 	H 	0.1737	0.645	0.2202	0.055
Mof_Mn	Mn	0.79334	0.32398	0.07625	1.01
Mof_O 	O 	0.76625	0.34527	0.00629	-0.436
Mof_O 	O 	0.77137	0.24515	0.93616	-0.379
Mof_O 	O 	0.81953	0.29523	0.14	-0.383
Mof_N 	N 	0.78595	0.28207	0.02644	-0.252
Mof_N 	N 	0.8016	0.25459	0.06097	-0.191
Mof_C 	C 	0.75204	0.33366	0.9468	0.315
Mof_C 	C 	0.73331	0.35613	0.9024	-0.276
Mof_H 	H 	0.7296	0.378	0.9202	0.127
Mof_C 	C 	0.7205	0.34668	0.8341	0.142
Mof_H 	H 	0.7076	0.3621	0.8066	-0.022
Mof_C 	C 	0.7258	0.3158	0.8042	-0.201
Mof_H 	H 	0.7188	0.3106	0.7547	0.102
Mof_C 	C 	0.742	0.29202	0.8498	0.125
Mof_H 	H 	0.7442	0.2699	0.8326	0.004
Mof_C 	C 	0.75451	0.30083	0.9196	-0.247
Mof_C 	C 	0.77129	0.27475	0.9623	0.298
Mof_C 	C 	0.81821	0.264	0.11989	0.224
Mof_C 	C 	0.83646	0.23874	0.1651	-0.146
Mof_H 	H 	0.8499	0.2251	0.1305	0.065
Mof_H 	H 	0.8201	0.224	0.1893	0.074
Mof_C 	C 	0.85882	0.25223	0.2248	-0.257
Mof_H 	H 	0.8774	0.2638	0.2012	0.102
Mof_H 	H 	0.8672	0.234	0.2556	0.097
Mof_H 	H 	0.8465	0.2677	0.2565	0.104
Mof_Mn	Mn	0.78382	0.20817	0.00312	1.055
Mof_O 	O 	0.82487	0.199	0.96146	-0.429
Mof_O 	O 	0.81578	0.13472	0.14885	-0.377
Mof_O 	O 	0.74214	0.21085	0.05561	-0.386
Mof_N 	N 	0.78994	0.17311	0.07597	-0.25
Mof_N 	N 	0.7621	0.16764	0.12243	-0.193
Mof_N 	N 	0.75622	0.1755	0.9189	-0.219
Mof_C 	C 	0.84744	0.17687	0.9805	0.309
Mof_C 	C 	0.87616	0.17483	0.9353	-0.27
Mof_H 	H 	0.8784	0.1891	0.8932	0.128
Mof_C 	C 	0.90072	0.1526	0.9514	0.142
Mof_H 	H 	0.9198	0.1519	0.9203	-0.029
Mof_C 	C 	0.89849	0.13113	0.0119	-0.203
Mof_H 	H 	0.9157	0.1157	0.022	0.1
Mof_C 	C 	0.87088	0.13257	0.0571	0.125
Mof_H 	H 	0.8692	0.1179	0.0986	0.008
Mof_C 	C 	0.84494	0.1553	0.0431	-0.235
Mof_C 	C 	0.81567	0.15421	0.09226	0.296
Mof_C 	C 	0.73864	0.18814	0.1066	0.236
Mof_C 	C 	0.70598	0.18519	0.1448	-0.145
Mof_H 	H 	0.7041	0.203	0.1826	0.066
Mof_H 	H 	0.7052	0.1638	0.1719	0.061
Mof_C 	C 	0.67637	0.1871	0.0927	-0.264
Mof_H 	H 	0.6769	0.2081	0.0653	0.105
Mof_H 	H 	0.656	0.1857	0.1222	0.096
Mof_H 	H 	0.6772	0.1687	0.0569	0.103
Mof_C 	C 	0.76	0.14546	0.9112	0.187
Mof_H 	H 	0.7772	0.1355	0.9397	-0.038
Mof_C 	C 	0.7416	0.12452	0.8647	-0.291
Mof_H 	H 	0.7463	0.1015	0.8645	0.121
Mof_C 	C 	0.7196	0.13537	0.8242	0.208
Mof_C 	C 	0.7074	0.1673	0.8439	-0.213
Mof_H 	H 	0.6869	0.1751	0.8246	0.095
Mof_C 	C 	0.726	0.18676	0.8913	0.113
Mof_H 	H 	0.7182	0.208	0.9053	-0.002
Mof_C 	C 	0.7009	0.11326	0.7696	-0.198
Mof_H 	H 	0.7157	0.0948	0.7552	0.082
Mof_H 	H 	0.6818	0.1035	0.7966	0.078
Mof_Mn	Mn	0.72166	0.36303	0.27845	1.055
Mof_O 	O 	0.74184	0.40139	0.31021	-0.432
Mof_O 	O 	0.80197	0.36478	0.13245	-0.388
Mof_O 	O 	0.70628	0.32224	0.23463	-0.388
Mof_N 	N 	0.75636	0.3557	0.20486	-0.248
Mof_N 	N 	0.75378	0.32551	0.16515	-0.19
Mof_N 	N 	0.64096	0.06063	0.55373	-0.205
Mof_C 	C 	0.76651	0.41841	0.2782	0.311
Mof_C 	C 	0.77244	0.45008	0.306	-0.27
Mof_H 	H 	0.7591	0.4583	0.3458	0.131
Mof_C 	C 	0.79742	0.46987	0.277	0.137
Mof_H 	H 	0.801	0.4913	0.297	-0.023
Mof_C 	C 	0.81733	0.45839	0.2184	-0.199
Mof_H 	H 	0.8343	0.4719	0.1981	0.108
Mof_C 	C 	0.8119	0.42717	0.1906	0.13
Mof_H 	H 	0.8255	0.4191	0.1512	0.012
Mof_C 	C 	0.78664	0.40678	0.2191	-0.239
Mof_C 	C 	0.78191	0.37422	0.1839	0.301
Mof_C 	C 	0.72707	0.31028	0.1852	0.238
Mof_C 	C 	0.71792	0.27832	0.148	-0.167
Mof_H 	H 	0.7377	0.2682	0.1249	0.076
Mof_H 	H 	0.7089	0.2627	0.1856	0.078
Mof_C 	C 	0.691	0.2857	0.0855	-0.257
Mof_H 	H 	0.701	0.2988	0.0451	0.1
Mof_H 	H 	0.6827	0.2648	0.065	0.098
Mof_H 	H 	0.6726	0.2981	0.1077	0.103
Mof_C 	C 	0.66736	0.07805	0.5337	0.121
Mof_H 	H 	0.6753	0.0757	0.4838	-0.002
Mof_C 	C 	0.68391	0.09938	0.5808	-0.201
Mof_H 	H 	0.7028	0.1111	0.5638	0.103
Mof_C 	C 	0.67255	0.10333	0.6527	0.132
Mof_C 	C 	0.6458	0.0855	0.6738	-0.193
Mof_H 	H 	0.6372	0.0878	0.7231	0.087
Mof_C 	C 	0.63075	0.06371	0.6241	0.114
Mof_H 	H 	0.6127	0.0507	0.641	-0.01
Mof_C 	C 	0.6896	0.1274	0.7065	-0.115
Mof_H 	H 	0.7084	0.1379	0.6801	0.063
Mof_H 	H 	0.6737	0.145	0.7202	0.055
Mof_Mn	Mn	0.07398	0.45666	0.17375	1.01
Mof_O 	O 	0.09527	0.48375	0.24371	-0.436
Mof_O 	O 	0.99515	0.47863	0.31384	-0.379
Mof_O 	O 	0.04523	0.43047	0.11	-0.383
Mof_N 	N 	0.03207	0.46405	0.22356	-0.252
Mof_N 	N 	0.00459	0.4484	0.18903	-0.191
Mof_C 	C 	0.08366	0.49796	0.3032	0.315
Mof_C 	C 	0.10613	0.51669	0.3476	-0.276
Mof_H 	H 	0.128	0.5204	0.3298	0.127
Mof_C 	C 	0.09668	0.5295	0.4159	0.142
Mof_H 	H 	0.1121	0.5424	0.4434	-0.022
Mof_C 	C 	0.0658	0.5242	0.4458	-0.2
Mof_H 	H 	0.0606	0.5312	0.4953	0.102
Mof_C 	C 	0.04202	0.508	0.4002	0.125
Mof_H 	H 	0.0199	0.5058	0.4174	0.004
Mof_C 	C 	0.05083	0.49549	0.3304	-0.247
Mof_C 	C 	0.02475	0.47871	0.2877	0.298
Mof_C 	C 	0.014	0.43179	0.13011	0.224
Mof_C 	C 	0.98874	0.41354	0.0849	-0.146
Mof_H 	H 	0.9751	0.4001	0.1195	0.064
Mof_H 	H 	0.974	0.4299	0.0607	0.073
Mof_C 	C 	0.00223	0.39118	0.0252	-0.259
Mof_H 	H 	0.0138	0.3726	0.0488	0.102
Mof_H 	H 	0.984	0.3828	0.9944	0.097
Mof_H 	H 	0.0177	0.4035	0.9935	0.105
Mof_Mn	Mn	0.95817	0.46618	0.24688	1.056
Mof_O 	O 	0.949	0.42513	0.28854	-0.429
Mof_O 	O 	0.88472	0.43422	0.10115	-0.377
Mof_O 	O 	0.96085	0.50786	0.19439	-0.386
Mof_N 	N 	0.92311	0.46006	0.17403	-0.25
Mof_N 	N 	0.91764	0.4879	0.12757	-0.193
Mof_N 	N 	0.9255	0.49378	0.3311	-0.219
Mof_C 	C 	0.92687	0.40256	0.2695	0.309
Mof_C 	C 	0.92483	0.37384	0.3147	-0.27
Mof_H 	H 	0.9391	0.3716	0.3568	0.128
Mof_C 	C 	0.9026	0.34928	0.2986	0.141
Mof_H 	H 	0.9019	0.3302	0.3297	-0.029
Mof_C 	C 	0.88113	0.35151	0.2381	-0.203
Mof_H 	H 	0.8657	0.3343	0.228	0.1
Mof_C 	C 	0.88257	0.37912	0.1929	0.124
Mof_H 	H 	0.8679	0.3808	0.1514	0.008
Mof_C 	C 	0.9053	0.40506	0.2069	-0.234
Mof_C 	C 	0.90421	0.43433	0.15774	0.296
Mof_C 	C 	0.93814	0.51136	0.1434	0.236
Mof_C 	C 	0.93519	0.54402	0.1052	-0.145
Mof_H 	H 	0.953	0.5459	0.0674	0.066
Mof_H 	H 	0.9138	0.5448	0.0781	0.061
Mof_C 	C 	0.9371	0.57363	0.1573	-0.263
Mof_H 	H 	0.9581	0.5731	0.1847	0.105
Mof_H 	H 	0.9357	0.594	0.1278	0.096
Mof_H 	H 	0.9187	0.5728	0.1931	0.103
Mof_C 	C 	0.89546	0.49	0.3388	0.187
Mof_H 	H 	0.8855	0.4728	0.3103	-0.038
Mof_C 	C 	0.87452	0.5084	0.3853	-0.291
Mof_H 	H 	0.8515	0.5037	0.3855	0.121
Mof_C 	C 	0.88537	0.5304	0.4258	0.208
Mof_C 	C 	0.9173	0.5426	0.4061	-0.213
Mof_H 	H 	0.9251	0.5631	0.4254	0.095
Mof_C 	C 	0.93676	0.524	0.3587	0.113
Mof_H 	H 	0.958	0.5318	0.3447	-0.002
Mof_C 	C 	0.86326	0.5491	0.4804	-0.198
Mof_H 	H 	0.8448	0.5343	0.4948	0.082
Mof_H 	H 	0.8535	0.5682	0.4534	0.078
Mof_Mn	Mn	0.11303	0.52834	0.97155	1.055
Mof_O 	O 	0.15139	0.50816	0.93979	-0.432
Mof_O 	O 	0.11478	0.44803	0.11755	-0.388
Mof_O 	O 	0.07224	0.54372	0.01537	-0.388
Mof_N 	N 	0.1057	0.49364	0.04514	-0.248
Mof_N 	N 	0.07551	0.49622	0.08485	-0.19
Mof_N 	N 	0.81063	0.60904	0.69627	-0.205
Mof_C 	C 	0.16841	0.48349	0.9718	0.311
Mof_C 	C 	0.20008	0.47756	0.944	-0.27
Mof_H 	H 	0.2083	0.4909	0.9042	0.131
Mof_C 	C 	0.21987	0.45258	0.973	0.137
Mof_H 	H 	0.2413	0.449	0.953	-0.023
Mof_C 	C 	0.20839	0.43267	0.0316	-0.199
Mof_H 	H 	0.2219	0.4157	0.0519	0.108
Mof_C 	C 	0.17717	0.4381	0.0594	0.13
Mof_H 	H 	0.1691	0.4245	0.0988	0.012
Mof_C 	C 	0.15678	0.46336	0.0309	-0.239
Mof_C 	C 	0.12422	0.46809	0.0661	0.301
Mof_C 	C 	0.06028	0.52293	0.0648	0.238
Mof_C 	C 	0.02832	0.53208	0.102	-0.167
Mof_H 	H 	0.0182	0.5123	0.1251	0.076
Mof_H 	H 	0.0127	0.5411	0.0644	0.078
Mof_C 	C 	0.0357	0.559	0.1645	-0.257
Mof_H 	H 	0.0488	0.549	0.2049	0.1
Mof_H 	H 	0.0148	0.5673	0.185	0.098
Mof_H 	H 	0.0481	0.5774	0.1423	0.103
Mof_C 	C 	0.82805	0.58264	0.7163	0.121
Mof_H 	H 	0.8257	0.5747	0.7662	-0.002
Mof_C 	C 	0.84938	0.56609	0.6692	-0.201
Mof_H 	H 	0.8611	0.5472	0.6862	0.103
Mof_C 	C 	0.85333	0.57745	0.5973	0.132
Mof_C 	C 	0.8355	0.6042	0.5762	-0.193
Mof_H 	H 	0.8378	0.6128	0.5269	0.087
Mof_C 	C 	0.81371	0.61925	0.6259	0.114
Mof_H 	H 	0.8007	0.6373	0.609	-0.01
Mof_C 	C 	0.8774	0.5604	0.5435	-0.115
Mof_H 	H 	0.8879	0.5416	0.5699	0.063
Mof_H 	H 	0.895	0.5763	0.5298	0.055
Mof_Mn	Mn	0.57398	0.95666	0.67375	1.01
Mof_O 	O 	0.59527	0.98375	0.74371	-0.436
Mof_O 	O 	0.49515	0.97863	0.81384	-0.379
Mof_O 	O 	0.54523	0.93047	0.61	-0.383
Mof_N 	N 	0.53207	0.96405	0.72356	-0.252
Mof_N 	N 	0.50459	0.9484	0.68903	-0.191
Mof_C 	C 	0.58366	0.99796	0.8032	0.315
Mof_C 	C 	0.60613	0.01669	0.8476	-0.276
Mof_H 	H 	0.628	0.0204	0.8298	0.127
Mof_C 	C 	0.59668	0.0295	0.9159	0.142
Mof_H 	H 	0.6121	0.0424	0.9434	-0.022
Mof_C 	C 	0.5658	0.0242	0.9458	-0.2
Mof_H 	H 	0.5606	0.0312	0.9953	0.102
Mof_C 	C 	0.54202	0.008	0.9002	0.125
Mof_H 	H 	0.5199	0.0058	0.9174	0.004
Mof_C 	C 	0.55083	0.99549	0.8304	-0.247
Mof_C 	C 	0.52475	0.97871	0.7877	0.298
Mof_C 	C 	0.514	0.93179	0.63011	0.224
Mof_C 	C 	0.48874	0.91354	0.5849	-0.146
Mof_H 	H 	0.4751	0.9001	0.6195	0.065
Mof_H 	H 	0.474	0.9299	0.5607	0.074
Mof_C 	C 	0.50223	0.89118	0.5252	-0.257
Mof_H 	H 	0.5138	0.8726	0.5488	0.102
Mof_H 	H 	0.484	0.8828	0.4944	0.097
Mof_H 	H 	0.5177	0.9035	0.4935	0.104
Mof_Mn	Mn	0.45817	0.96618	0.74688	1.056
Mof_O 	O 	0.449	0.92513	0.78854	-0.429
Mof_O 	O 	0.38472	0.93422	0.60115	-0.377
Mof_O 	O 	0.46085	0.00786	0.69439	-0.386
Mof_N 	N 	0.42311	0.96006	0.67403	-0.25
Mof_N 	N 	0.41764	0.9879	0.62757	-0.193
Mof_N 	N 	0.4255	0.99378	0.8311	-0.219
Mof_C 	C 	0.42687	0.90256	0.7695	0.309
Mof_C 	C 	0.42483	0.87384	0.8147	-0.27
Mof_H 	H 	0.4391	0.8716	0.8568	0.128
Mof_C 	C 	0.4026	0.84928	0.7986	0.141
Mof_H 	H 	0.4019	0.8302	0.8297	-0.029
Mof_C 	C 	0.38113	0.85151	0.7381	-0.203
Mof_H 	H 	0.3657	0.8343	0.728	0.1
Mof_C 	C 	0.38257	0.87912	0.6929	0.124
Mof_H 	H 	0.3679	0.8808	0.6514	0.008
Mof_C 	C 	0.4053	0.90506	0.7069	-0.234
Mof_C 	C 	0.40421	0.93433	0.65774	0.296
Mof_C 	C 	0.43814	0.01136	0.6434	0.236
Mof_C 	C 	0.43519	0.04402	0.6052	-0.145
Mof_H 	H 	0.453	0.0459	0.5674	0.066
Mof_H 	H 	0.4138	0.0448	0.5781	0.061
Mof_C 	C 	0.4371	0.07363	0.6573	-0.264
Mof_H 	H 	0.4581	0.0731	0.6847	0.105
Mof_H 	H 	0.4357	0.094	0.6278	0.096
Mof_H 	H 	0.4187	0.0728	0.6931	0.103
Mof_C 	C 	0.39546	0.99	0.8388	0.187
Mof_H 	H 	0.3855	0.9728	0.8103	-0.038
Mof_C 	C 	0.37452	0.0084	0.8853	-0.291
Mof_H 	H 	0.3515	0.0037	0.8855	0.121
Mof_C 	C 	0.38537	0.0304	0.9258	0.208
Mof_C 	C 	0.4173	0.0426	0.9061	-0.213
Mof_H 	H 	0.4251	0.0631	0.9254	0.095
Mof_C 	C 	0.43676	0.024	0.8587	0.113
Mof_H 	H 	0.458	0.0318	0.8447	-0.002
Mof_C 	C 	0.36326	0.0491	0.9804	-0.197
Mof_H 	H 	0.3448	0.0343	0.9948	0.082
Mof_H 	H 	0.3535	0.0682	0.9534	0.078
Mof_Mn	Mn	0.61303	0.02834	0.47155	1.055
Mof_O 	O 	0.65139	0.00816	0.43979	-0.432
Mof_O 	O 	0.61478	0.94803	0.61755	-0.388
Mof_O 	O 	0.57224	0.04372	0.51537	-0.388
Mof_N 	N 	0.6057	0.99364	0.54514	-0.248
Mof_N 	N 	0.57551	0.99622	0.58485	-0.19
Mof_N 	N 	0.31063	0.10904	0.19627	-0.205
Mof_C 	C 	0.66841	0.98349	0.4718	0.311
Mof_C 	C 	0.70008	0.97756	0.444	-0.27
Mof_H 	H 	0.7083	0.9909	0.4042	0.131
Mof_C 	C 	0.71987	0.95258	0.473	0.137
Mof_H 	H 	0.7413	0.949	0.453	-0.023
Mof_C 	C 	0.70839	0.93267	0.5316	-0.199
Mof_H 	H 	0.7219	0.9157	0.5519	0.108
Mof_C 	C 	0.67717	0.9381	0.5594	0.13
Mof_H 	H 	0.6691	0.9245	0.5988	0.012
Mof_C 	C 	0.65678	0.96336	0.5309	-0.239
Mof_C 	C 	0.62422	0.96809	0.5661	0.301
Mof_C 	C 	0.56028	0.02293	0.5648	0.238
Mof_C 	C 	0.52832	0.03208	0.602	-0.167
Mof_H 	H 	0.5182	0.0123	0.6251	0.076
Mof_H 	H 	0.5127	0.0411	0.5644	0.078
Mof_C 	C 	0.5357	0.059	0.6645	-0.257
Mof_H 	H 	0.5488	0.049	0.7049	0.1
Mof_H 	H 	0.5148	0.0673	0.685	0.098
Mof_H 	H 	0.5481	0.0774	0.6423	0.103
Mof_C 	C 	0.32805	0.08264	0.2163	0.121
Mof_H 	H 	0.3257	0.0747	0.2662	-0.002
Mof_C 	C 	0.34938	0.06609	0.1692	-0.201
Mof_H 	H 	0.3611	0.0472	0.1862	0.103
Mof_C 	C 	0.35333	0.07745	0.0973	0.132
Mof_C 	C 	0.3355	0.1042	0.0762	-0.193
Mof_H 	H 	0.3378	0.1128	0.0269	0.087
Mof_C 	C 	0.31371	0.11925	0.1259	0.114
Mof_H 	H 	0.3007	0.1373	0.109	-0.01
Mof_C 	C 	0.3774	0.0604	0.0435	-0.115
Mof_H 	H 	0.3879	0.0416	0.0699	0.063
Mof_H 	H 	0.395	0.0763	0.0298	0.055
Mof_Mn	Mn	0.42602	0.54334	0.67375	1.01
Mof_O 	O 	0.40473	0.51625	0.74371	-0.436
Mof_O 	O 	0.50485	0.52137	0.81384	-0.379
Mof_O 	O 	0.45477	0.56953	0.61	-0.383
Mof_N 	N 	0.46793	0.53595	0.72356	-0.252
Mof_N 	N 	0.49541	0.5516	0.68903	-0.191
Mof_C 	C 	0.41634	0.50204	0.8032	0.315
Mof_C 	C 	0.39387	0.48331	0.8476	-0.276
Mof_H 	H 	0.372	0.4796	0.8298	0.127
Mof_C 	C 	0.40332	0.4705	0.9159	0.142
Mof_H 	H 	0.3879	0.4576	0.9434	-0.022
Mof_C 	C 	0.4342	0.4758	0.9458	-0.2
Mof_H 	H 	0.4394	0.4688	0.9953	0.102
Mof_C 	C 	0.45798	0.492	0.9002	0.125
Mof_H 	H 	0.4801	0.4942	0.9174	0.004
Mof_C 	C 	0.44917	0.50451	0.8304	-0.247
Mof_C 	C 	0.47525	0.52129	0.7877	0.298
Mof_C 	C 	0.486	0.56821	0.63011	0.224
Mof_C 	C 	0.51126	0.58646	0.5849	-0.146
Mof_H 	H 	0.5249	0.5999	0.6195	0.065
Mof_H 	H 	0.526	0.5701	0.5607	0.074
Mof_C 	C 	0.49777	0.60882	0.5252	-0.257
Mof_H 	H 	0.4862	0.6274	0.5488	0.102
Mof_H 	H 	0.516	0.6172	0.4944	0.097
Mof_H 	H 	0.4823	0.5965	0.4935	0.104
Mof_Mn	Mn	0.54183	0.53382	0.74688	1.056
Mof_O 	O 	0.551	0.57487	0.78854	-0.429
Mof_O 	O 	0.61528	0.56578	0.60115	-0.377
Mof_O 	O 	0.53915	0.49214	0.69439	-0.386
Mof_N 	N 	0.57689	0.53994	0.67403	-0.25
Mof_N 	N 	0.58236	0.5121	0.62757	-0.193
Mof_N 	N 	0.5745	0.50622	0.8311	-0.219
Mof_C 	C 	0.57313	0.59744	0.7695	0.309
Mof_C 	C 	0.57517	0.62616	0.8147	-0.27
Mof_H 	H 	0.5609	0.6284	0.8568	0.128
Mof_C 	C 	0.5974	0.65072	0.7986	0.141
Mof_H 	H 	0.5981	0.6698	0.8297	-0.029
Mof_C 	C 	0.61887	0.64849	0.7381	-0.203
Mof_H 	H 	0.6343	0.6657	0.728	0.1
Mof_C 	C 	0.61743	0.62088	0.6929	0.124
Mof_H 	H 	0.6321	0.6192	0.6514	0.008
Mof_C 	C 	0.5947	0.59494	0.7069	-0.234
Mof_C 	C 	0.59579	0.56567	0.65774	0.296
Mof_C 	C 	0.56186	0.48864	0.6434	0.236
Mof_C 	C 	0.56481	0.45598	0.6052	-0.145
Mof_H 	H 	0.547	0.4541	0.5674	0.066
Mof_H 	H 	0.5862	0.4552	0.5781	0.061
Mof_C 	C 	0.5629	0.42637	0.6573	-0.264
Mof_H 	H 	0.5419	0.4269	0.6847	0.105
Mof_H 	H 	0.5643	0.406	0.6278	0.096
Mof_H 	H 	0.5813	0.4272	0.6931	0.103
Mof_C 	C 	0.60454	0.51	0.8388	0.187
Mof_H 	H 	0.6145	0.5272	0.8103	-0.038
Mof_C 	C 	0.62548	0.4916	0.8853	-0.291
Mof_H 	H 	0.6485	0.4963	0.8855	0.121
Mof_C 	C 	0.61463	0.4696	0.9258	0.208
Mof_C 	C 	0.5827	0.4574	0.9061	-0.213
Mof_H 	H 	0.5749	0.4369	0.9254	0.095
Mof_C 	C 	0.56324	0.476	0.8587	0.113
Mof_H 	H 	0.542	0.4682	0.8447	-0.002
Mof_C 	C 	0.63674	0.4509	0.9804	-0.197
Mof_H 	H 	0.6552	0.4657	0.9948	0.082
Mof_H 	H 	0.6465	0.4318	0.9534	0.078
Mof_Mn	Mn	0.38697	0.47166	0.47155	1.055
Mof_O 	O 	0.34861	0.49184	0.43979	-0.432
Mof_O 	O 	0.38522	0.55197	0.61755	-0.388
Mof_O 	O 	0.42776	0.45628	0.51537	-0.388
Mof_N 	N 	0.3943	0.50636	0.54514	-0.248
Mof_N 	N 	0.42449	0.50378	0.58485	-0.19
Mof_N 	N 	0.68937	0.39096	0.19627	-0.205
Mof_C 	C 	0.33159	0.51651	0.4718	0.311
Mof_C 	C 	0.29992	0.52244	0.444	-0.27
Mof_H 	H 	0.2917	0.5091	0.4042	0.131
Mof_C 	C 	0.28013	0.54742	0.473	0.137
Mof_H 	H 	0.2587	0.551	0.453	-0.023
Mof_C 	C 	0.29161	0.56733	0.5316	-0.199
Mof_H 	H 	0.2781	0.5843	0.5519	0.108
Mof_C 	C 	0.32283	0.5619	0.5594	0.13
Mof_H 	H 	0.3309	0.5755	0.5988	0.012
Mof_C 	C 	0.34322	0.53664	0.5309	-0.239
Mof_C 	C 	0.37578	0.53191	0.5661	0.301
Mof_C 	C 	0.43972	0.47707	0.5648	0.238
Mof_C 	C 	0.47168	0.46792	0.602	-0.167
Mof_H 	H 	0.4818	0.4877	0.6251	0.076
Mof_H 	H 	0.4873	0.4589	0.5644	0.078
Mof_C 	C 	0.4643	0.441	0.6645	-0.257
Mof_H 	H 	0.4512	0.451	0.7049	0.1
Mof_H 	H 	0.4852	0.4327	0.685	0.098
Mof_H 	H 	0.4519	0.4226	0.6423	0.103
Mof_C 	C 	0.67195	0.41736	0.2163	0.121
Mof_H 	H 	0.6743	0.4253	0.2662	-0.002
Mof_C 	C 	0.65062	0.43391	0.1692	-0.201
Mof_H 	H 	0.6389	0.4528	0.1862	0.103
Mof_C 	C 	0.64667	0.42255	0.0973	0.132
Mof_C 	C 	0.6645	0.3958	0.0762	-0.193
Mof_H 	H 	0.6622	0.3872	0.0269	0.087
Mof_C 	C 	0.68629	0.38075	0.1259	0.114
Mof_H 	H 	0.6993	0.3627	0.109	-0.01
Mof_C 	C 	0.6226	0.4396	0.0435	-0.115
Mof_H 	H 	0.6121	0.4584	0.0699	0.063
Mof_H 	H 	0.605	0.4237	0.0298	0.055
Mof_Mn	Mn	0.92602	0.04334	0.17375	1.01
Mof_O 	O 	0.90473	0.01625	0.24371	-0.436
Mof_O 	O 	0.00485	0.02137	0.31384	-0.379
Mof_O 	O 	0.95477	0.06953	0.11	-0.383
Mof_N 	N 	0.96793	0.03595	0.22356	-0.252
Mof_N 	N 	0.99541	0.0516	0.18903	-0.191
Mof_C 	C 	0.91634	0.00204	0.3032	0.315
Mof_C 	C 	0.89387	0.98331	0.3476	-0.276
Mof_H 	H 	0.872	0.9796	0.3298	0.127
Mof_C 	C 	0.90332	0.9705	0.4159	0.142
Mof_H 	H 	0.8879	0.9576	0.4434	-0.022
Mof_C 	C 	0.9342	0.9758	0.4458	-0.2
Mof_H 	H 	0.9394	0.9688	0.4953	0.102
Mof_C 	C 	0.95798	0.992	0.4002	0.125
Mof_H 	H 	0.9801	0.9942	0.4174	0.004
Mof_C 	C 	0.94917	0.00451	0.3304	-0.247
Mof_C 	C 	0.97525	0.02129	0.2877	0.298
Mof_C 	C 	0.986	0.06821	0.13011	0.224
Mof_C 	C 	0.01126	0.08646	0.0849	-0.146
Mof_H 	H 	0.0249	0.0999	0.1195	0.064
Mof_H 	H 	0.026	0.0701	0.0607	0.074
Mof_C 	C 	0.99777	0.10882	0.0252	-0.258
Mof_H 	H 	0.9862	0.1274	0.0488	0.102
Mof_H 	H 	0.016	0.1172	0.9944	0.097
Mof_H 	H 	0.9823	0.0965	0.9935	0.105
Mof_Mn	Mn	0.04183	0.03382	0.24688	1.055
Mof_O 	O 	0.051	0.07487	0.28854	-0.429
Mof_O 	O 	0.11528	0.06578	0.10115	-0.377
Mof_O 	O 	0.03915	0.99214	0.19439	-0.386
Mof_N 	N 	0.07689	0.03994	0.17403	-0.25
Mof_N 	N 	0.08236	0.0121	0.12757	-0.193
Mof_N 	N 	0.0745	0.00622	0.3311	-0.219
Mof_C 	C 	0.07313	0.09744	0.2695	0.309
Mof_C 	C 	0.07517	0.12616	0.3147	-0.27
Mof_H 	H 	0.0609	0.1284	0.3568	0.128
Mof_C 	C 	0.0974	0.15072	0.2986	0.141
Mof_H 	H 	0.0981	0.1698	0.3297	-0.029
Mof_C 	C 	0.11887	0.14849	0.2381	-0.203
Mof_H 	H 	0.1343	0.1657	0.228	0.1
Mof_C 	C 	0.11743	0.12088	0.1929	0.124
Mof_H 	H 	0.1321	0.1192	0.1514	0.008
Mof_C 	C 	0.0947	0.09494	0.2069	-0.234
Mof_C 	C 	0.09579	0.06567	0.15774	0.296
Mof_C 	C 	0.06186	0.98864	0.1434	0.236
Mof_C 	C 	0.06481	0.95598	0.1052	-0.145
Mof_H 	H 	0.047	0.9541	0.0674	0.066
Mof_H 	H 	0.0862	0.9552	0.0781	0.061
Mof_C 	C 	0.0629	0.92637	0.1573	-0.264
Mof_H 	H 	0.0419	0.9269	0.1847	0.105
Mof_H 	H 	0.0643	0.906	0.1278	0.096
Mof_H 	H 	0.0813	0.9272	0.1931	0.103
Mof_C 	C 	0.10454	0.01	0.3388	0.187
Mof_H 	H 	0.1145	0.0272	0.3103	-0.038
Mof_C 	C 	0.12548	0.9916	0.3853	-0.291
Mof_H 	H 	0.1485	0.9963	0.3855	0.121
Mof_C 	C 	0.11463	0.9696	0.4258	0.208
Mof_C 	C 	0.0827	0.9574	0.4061	-0.213
Mof_H 	H 	0.0749	0.9369	0.4254	0.095
Mof_C 	C 	0.06324	0.976	0.3587	0.113
Mof_H 	H 	0.042	0.9682	0.3447	-0.002
Mof_C 	C 	0.13674	0.9509	0.4804	-0.198
Mof_H 	H 	0.1552	0.9657	0.4948	0.082
Mof_H 	H 	0.1465	0.9318	0.4534	0.078
Mof_Mn	Mn	0.88697	0.97166	0.97155	1.055
Mof_O 	O 	0.84861	0.99184	0.93979	-0.432
Mof_O 	O 	0.88522	0.05197	0.11755	-0.388
Mof_O 	O 	0.92776	0.95628	0.01537	-0.388
Mof_N 	N 	0.8943	0.00636	0.04514	-0.248
Mof_N 	N 	0.92449	0.00378	0.08485	-0.19
Mof_N 	N 	0.18937	0.89096	0.69627	-0.205
Mof_C 	C 	0.83159	0.01651	0.9718	0.311
Mof_C 	C 	0.79992	0.02244	0.944	-0.27
Mof_H 	H 	0.7917	0.0091	0.9042	0.131
Mof_C 	C 	0.78013	0.04742	0.973	0.137
Mof_H 	H 	0.7587	0.051	0.953	-0.023
Mof_C 	C 	0.79161	0.06733	0.0316	-0.199
Mof_H 	H 	0.7781	0.0843	0.0519	0.108
Mof_C 	C 	0.82283	0.0619	0.0594	0.13
Mof_H 	H 	0.8309	0.0755	0.0988	0.012
Mof_C 	C 	0.84322	0.03664	0.0309	-0.239
Mof_C 	C 	0.87578	0.03191	0.0661	0.301
Mof_C 	C 	0.93972	0.97707	0.0648	0.238
Mof_C 	C 	0.97168	0.96792	0.102	-0.167
Mof_H 	H 	0.9818	0.9877	0.1251	0.076
Mof_H 	H 	0.9873	0.9589	0.0644	0.078
Mof_C 	C 	0.9643	0.941	0.1645	-0.257
Mof_H 	H 	0.9512	0.951	0.2049	0.1
Mof_H 	H 	0.9852	0.9327	0.185	0.098
Mof_H 	H 	0.9519	0.9226	0.1423	0.103
Mof_C 	C 	0.17195	0.91736	0.7163	0.121
Mof_H 	H 	0.1743	0.9253	0.7662	-0.002
Mof_C 	C 	0.15062	0.93391	0.6692	-0.201
Mof_H 	H 	0.1389	0.9528	0.6862	0.103
Mof_C 	C 	0.14667	0.92255	0.5973	0.132
Mof_C 	C 	0.1645	0.8958	0.5762	-0.193
Mof_H 	H 	0.1622	0.8872	0.5269	0.087
Mof_C 	C 	0.18629	0.88075	0.6259	0.114
Mof_H 	H 	0.1993	0.8627	0.609	-0.01
Mof_C 	C 	0.1226	0.9396	0.5435	-0.115
Mof_H 	H 	0.1121	0.9584	0.5699	0.063
Mof_H 	H 	0.105	0.9237	0.5298	0.055
Mof_Mn	Mn	0.79334	0.82398	0.92375	1.01
Mof_O 	O 	0.76625	0.84527	0.99371	-0.436
Mof_O 	O 	0.77137	0.74515	0.06384	-0.379
Mof_O 	O 	0.81953	0.79523	0.86	-0.383
Mof_N 	N 	0.78595	0.78207	0.97356	-0.252
Mof_N 	N 	0.8016	0.75459	0.93903	-0.191
Mof_C 	C 	0.75204	0.83366	0.0532	0.315
Mof_C 	C 	0.73331	0.85613	0.0976	-0.276
Mof_H 	H 	0.7296	0.878	0.0798	0.127
Mof_C 	C 	0.7205	0.84668	0.1659	0.142
Mof_H 	H 	0.7076	0.8621	0.1934	-0.022
Mof_C 	C 	0.7258	0.8158	0.1958	-0.201
Mof_H 	H 	0.7188	0.8106	0.2453	0.102
Mof_C 	C 	0.742	0.79202	0.1502	0.125
Mof_H 	H 	0.7442	0.7699	0.1674	0.004
Mof_C 	C 	0.75451	0.80083	0.0804	-0.247
Mof_C 	C 	0.77129	0.77475	0.0377	0.298
Mof_C 	C 	0.81821	0.764	0.88011	0.224
Mof_C 	C 	0.83646	0.73874	0.8349	-0.146
Mof_H 	H 	0.8499	0.7251	0.8695	0.065
Mof_H 	H 	0.8201	0.724	0.8107	0.074
Mof_C 	C 	0.85882	0.75223	0.7752	-0.257
Mof_H 	H 	0.8774	0.7638	0.7988	0.102
Mof_H 	H 	0.8672	0.734	0.7444	0.097
Mof_H 	H 	0.8465	0.7677	0.7435	0.104
Mof_Mn	Mn	0.78382	0.70817	0.99688	1.055
Mof_O 	O 	0.82487	0.699	0.03854	-0.429
Mof_O 	O 	0.81578	0.63472	0.85115	-0.377
Mof_O 	O 	0.74214	0.71085	0.94439	-0.386
Mof_N 	N 	0.78994	0.67311	0.92403	-0.25
Mof_N 	N 	0.7621	0.66764	0.87757	-0.193
Mof_N 	N 	0.75622	0.6755	0.0811	-0.219
Mof_C 	C 	0.84744	0.67687	0.0195	0.309
Mof_C 	C 	0.87616	0.67483	0.0647	-0.27
Mof_H 	H 	0.8784	0.6891	0.1068	0.128
Mof_C 	C 	0.90072	0.6526	0.0486	0.142
Mof_H 	H 	0.9198	0.6519	0.0797	-0.029
Mof_C 	C 	0.89849	0.63113	0.9881	-0.203
Mof_H 	H 	0.9157	0.6157	0.978	0.1
Mof_C 	C 	0.87088	0.63257	0.9429	0.125
Mof_H 	H 	0.8692	0.6179	0.9014	0.008
Mof_C 	C 	0.84494	0.6553	0.9569	-0.235
Mof_C 	C 	0.81567	0.65421	0.90774	0.296
Mof_C 	C 	0.73864	0.68814	0.8934	0.236
Mof_C 	C 	0.70598	0.68519	0.8552	-0.145
Mof_H 	H 	0.7041	0.703	0.8174	0.066
Mof_H 	H 	0.7052	0.6638	0.8281	0.061
Mof_C 	C 	0.67637	0.6871	0.9073	-0.264
Mof_H 	H 	0.6769	0.7081	0.9347	0.105
Mof_H 	H 	0.656	0.6857	0.8778	0.096
Mof_H 	H 	0.6772	0.6687	0.9431	0.103
Mof_C 	C 	0.76	0.64546	0.0888	0.187
Mof_H 	H 	0.7772	0.6355	0.0603	-0.038
Mof_C 	C 	0.7416	0.62452	0.1353	-0.291
Mof_H 	H 	0.7463	0.6015	0.1355	0.121
Mof_C 	C 	0.7196	0.63537	0.1758	0.208
Mof_C 	C 	0.7074	0.6673	0.1561	-0.213
Mof_H 	H 	0.6869	0.6751	0.1754	0.095
Mof_C 	C 	0.726	0.68676	0.1087	0.113
Mof_H 	H 	0.7182	0.708	0.0947	-0.002
Mof_C 	C 	0.7009	0.61326	0.2304	-0.198
Mof_H 	H 	0.7157	0.5948	0.2448	0.082
Mof_H 	H 	0.6818	0.6035	0.2034	0.078
Mof_Mn	Mn	0.72166	0.86303	0.72155	1.055
Mof_O 	O 	0.74184	0.90139	0.68979	-0.432
Mof_O 	O 	0.80197	0.86478	0.86755	-0.388
Mof_O 	O 	0.70628	0.82224	0.76537	-0.388
Mof_N 	N 	0.75636	0.8557	0.79514	-0.248
Mof_N 	N 	0.75378	0.82551	0.83485	-0.19
Mof_N 	N 	0.64096	0.56063	0.44627	-0.205
Mof_C 	C 	0.76651	0.91841	0.7218	0.311
Mof_C 	C 	0.77244	0.95008	0.694	-0.27
Mof_H 	H 	0.7591	0.9583	0.6542	0.131
Mof_C 	C 	0.79742	0.96987	0.723	0.137
Mof_H 	H 	0.801	0.9913	0.703	-0.023
Mof_C 	C 	0.81733	0.95839	0.7816	-0.199
Mof_H 	H 	0.8343	0.9719	0.8019	0.108
Mof_C 	C 	0.8119	0.92717	0.8094	0.13
Mof_H 	H 	0.8255	0.9191	0.8488	0.012
Mof_C 	C 	0.78664	0.90678	0.7809	-0.239
Mof_C 	C 	0.78191	0.87422	0.8161	0.301
Mof_C 	C 	0.72707	0.81028	0.8148	0.238
Mof_C 	C 	0.71792	0.77832	0.852	-0.167
Mof_H 	H 	0.7377	0.7682	0.8751	0.076
Mof_H 	H 	0.7089	0.7627	0.8144	0.078
Mof_C 	C 	0.691	0.7857	0.9145	-0.257
Mof_H 	H 	0.701	0.7988	0.9549	0.1
Mof_H 	H 	0.6827	0.7648	0.935	0.098
Mof_H 	H 	0.6726	0.7981	0.8923	0.103
Mof_C 	C 	0.66736	0.57805	0.4663	0.121
Mof_H 	H 	0.6753	0.5757	0.5162	-0.002
Mof_C 	C 	0.68391	0.59938	0.4192	-0.201
Mof_H 	H 	0.7028	0.6111	0.4362	0.103
Mof_C 	C 	0.67255	0.60333	0.3473	0.132
Mof_C 	C 	0.6458	0.5855	0.3262	-0.193
Mof_H 	H 	0.6372	0.5878	0.2769	0.087
Mof_C 	C 	0.63075	0.56371	0.3759	0.114
Mof_H 	H 	0.6127	0.5507	0.359	-0.01
Mof_C 	C 	0.6896	0.6274	0.2935	-0.115
Mof_H 	H 	0.7084	0.6379	0.3199	0.063
Mof_H 	H 	0.6737	0.645	0.2798	0.055
Mof_Mn	Mn	0.29334	0.32398	0.42375	1.01
Mof_O 	O 	0.26625	0.34527	0.49371	-0.436
Mof_O 	O 	0.27137	0.24515	0.56384	-0.379
Mof_O 	O 	0.31953	0.29523	0.36	-0.383
Mof_N 	N 	0.28595	0.28207	0.47356	-0.252
Mof_N 	N 	0.3016	0.25459	0.43903	-0.191
Mof_C 	C 	0.25204	0.33366	0.5532	0.315
Mof_C 	C 	0.23331	0.35613	0.5976	-0.276
Mof_H 	H 	0.2296	0.378	0.5798	0.127
Mof_C 	C 	0.2205	0.34668	0.6659	0.142
Mof_H 	H 	0.2076	0.3621	0.6934	-0.022
Mof_C 	C 	0.2258	0.3158	0.6958	-0.2
Mof_H 	H 	0.2188	0.3106	0.7453	0.102
Mof_C 	C 	0.242	0.29202	0.6502	0.125
Mof_H 	H 	0.2442	0.2699	0.6674	0.004
Mof_C 	C 	0.25451	0.30083	0.5804	-0.247
Mof_C 	C 	0.27129	0.27475	0.5377	0.298
Mof_C 	C 	0.31821	0.264	0.38011	0.224
Mof_C 	C 	0.33646	0.23874	0.3349	-0.146
Mof_H 	H 	0.3499	0.2251	0.3695	0.065
Mof_H 	H 	0.3201	0.224	0.3107	0.074
Mof_C 	C 	0.35882	0.25223	0.2752	-0.257
Mof_H 	H 	0.3774	0.2638	0.2988	0.102
Mof_H 	H 	0.3672	0.234	0.2444	0.097
Mof_H 	H 	0.3465	0.2677	0.2435	0.104
Mof_Mn	Mn	0.28382	0.20817	0.49688	1.056
Mof_O 	O 	0.32487	0.199	0.53854	-0.429
Mof_O 	O 	0.31578	0.13472	0.35115	-0.377
Mof_O 	O 	0.24214	0.21085	0.44439	-0.386
Mof_N 	N 	0.28994	0.17311	0.42403	-0.25
Mof_N 	N 	0.2621	0.16764	0.37757	-0.193
Mof_N 	N 	0.25622	0.1755	0.5811	-0.219
Mof_C 	C 	0.34744	0.17687	0.5195	0.309
Mof_C 	C 	0.37616	0.17483	0.5647	-0.27
Mof_H 	H 	0.3784	0.1891	0.6068	0.128
Mof_C 	C 	0.40072	0.1526	0.5486	0.141
Mof_H 	H 	0.4198	0.1519	0.5797	-0.029
Mof_C 	C 	0.39849	0.13113	0.4881	-0.203
Mof_H 	H 	0.4157	0.1157	0.478	0.1
Mof_C 	C 	0.37088	0.13257	0.4429	0.124
Mof_H 	H 	0.3692	0.1179	0.4014	0.008
Mof_C 	C 	0.34494	0.1553	0.4569	-0.234
Mof_C 	C 	0.31567	0.15421	0.40774	0.296
Mof_C 	C 	0.23864	0.18814	0.3934	0.236
Mof_C 	C 	0.20598	0.18519	0.3552	-0.145
Mof_H 	H 	0.2041	0.203	0.3174	0.066
Mof_H 	H 	0.2052	0.1638	0.3281	0.061
Mof_C 	C 	0.17637	0.1871	0.4073	-0.264
Mof_H 	H 	0.1769	0.2081	0.4347	0.105
Mof_H 	H 	0.156	0.1857	0.3778	0.096
Mof_H 	H 	0.1772	0.1687	0.4431	0.103
Mof_C 	C 	0.26	0.14546	0.5888	0.187
Mof_H 	H 	0.2772	0.1355	0.5603	-0.038
Mof_C 	C 	0.2416	0.12452	0.6353	-0.291
Mof_H 	H 	0.2463	0.1015	0.6355	0.121
Mof_C 	C 	0.2196	0.13537	0.6758	0.208
Mof_C 	C 	0.2074	0.1673	0.6561	-0.213
Mof_H 	H 	0.1869	0.1751	0.6754	0.095
Mof_C 	C 	0.226	0.18676	0.6087	0.113
Mof_H 	H 	0.2182	0.208	0.5947	-0.002
Mof_C 	C 	0.2009	0.11326	0.7304	-0.198
Mof_H 	H 	0.2157	0.0948	0.7448	0.082
Mof_H 	H 	0.1818	0.1035	0.7034	0.078
Mof_Mn	Mn	0.22166	0.36303	0.22155	1.055
Mof_O 	O 	0.24184	0.40139	0.18979	-0.432
Mof_O 	O 	0.30197	0.36478	0.36755	-0.388
Mof_O 	O 	0.20628	0.32224	0.26537	-0.388
Mof_N 	N 	0.25636	0.3557	0.29514	-0.248
Mof_N 	N 	0.25378	0.32551	0.33485	-0.19
Mof_N 	N 	0.14096	0.06063	0.94627	-0.205
Mof_C 	C 	0.26651	0.41841	0.2218	0.311
Mof_C 	C 	0.27244	0.45008	0.194	-0.27
Mof_H 	H 	0.2591	0.4583	0.1542	0.131
Mof_C 	C 	0.29742	0.46987	0.223	0.137
Mof_H 	H 	0.301	0.4913	0.203	-0.023
Mof_C 	C 	0.31733	0.45839	0.2816	-0.199
Mof_H 	H 	0.3343	0.4719	0.3019	0.108
Mof_C 	C 	0.3119	0.42717	0.3094	0.13
Mof_H 	H 	0.3255	0.4191	0.3488	0.012
Mof_C 	C 	0.28664	0.40678	0.2809	-0.239
Mof_C 	C 	0.28191	0.37422	0.3161	0.301
Mof_C 	C 	0.22707	0.31028	0.3148	0.238
Mof_C 	C 	0.21792	0.27832	0.352	-0.167
Mof_H 	H 	0.2377	0.2682	0.3751	0.076
Mof_H 	H 	0.2089	0.2627	0.3144	0.078
Mof_C 	C 	0.191	0.2857	0.4145	-0.257
Mof_H 	H 	0.201	0.2988	0.4549	0.1
Mof_H 	H 	0.1827	0.2648	0.435	0.098
Mof_H 	H 	0.1726	0.2981	0.3923	0.103
Mof_C 	C 	0.16736	0.07805	0.9663	0.122
Mof_H 	H 	0.1753	0.0757	0.0162	-0.002
Mof_C 	C 	0.18391	0.09938	0.9192	-0.201
Mof_H 	H 	0.2028	0.1111	0.9362	0.103
Mof_C 	C 	0.17255	0.10333	0.8473	0.132
Mof_C 	C 	0.1458	0.0855	0.8262	-0.193
Mof_H 	H 	0.1372	0.0878	0.7769	0.087
Mof_C 	C 	0.13075	0.06371	0.8759	0.114
Mof_H 	H 	0.1127	0.0507	0.859	-0.01
Mof_C 	C 	0.1896	0.1274	0.7935	-0.115
Mof_H 	H 	0.2084	0.1379	0.8199	0.063
Mof_H 	H 	0.1737	0.145	0.7798	0.055
Mof_Mn	Mn	0.70666	0.17602	0.42375	1.01
Mof_O 	O 	0.73375	0.15473	0.49371	-0.436
Mof_O 	O 	0.72863	0.25485	0.56384	-0.379
Mof_O 	O 	0.68047	0.20477	0.36	-0.383
Mof_N 	N 	0.71405	0.21793	0.47356	-0.252
Mof_N 	N 	0.6984	0.24541	0.43903	-0.191
Mof_C 	C 	0.74796	0.16634	0.5532	0.315
Mof_C 	C 	0.76669	0.14387	0.5976	-0.276
Mof_H 	H 	0.7704	0.122	0.5798	0.127
Mof_C 	C 	0.7795	0.15332	0.6659	0.142
Mof_H 	H 	0.7924	0.1379	0.6934	-0.022
Mof_C 	C 	0.7742	0.1842	0.6958	-0.2
Mof_H 	H 	0.7812	0.1894	0.7453	0.102
Mof_C 	C 	0.758	0.20798	0.6502	0.125
Mof_H 	H 	0.7558	0.2301	0.6674	0.004
Mof_C 	C 	0.74549	0.19917	0.5804	-0.247
Mof_C 	C 	0.72871	0.22525	0.5377	0.298
Mof_C 	C 	0.68179	0.236	0.38011	0.224
Mof_C 	C 	0.66354	0.26126	0.3349	-0.146
Mof_H 	H 	0.6501	0.2749	0.3695	0.065
Mof_H 	H 	0.6799	0.276	0.3107	0.074
Mof_C 	C 	0.64118	0.24777	0.2752	-0.257
Mof_H 	H 	0.6226	0.2362	0.2988	0.102
Mof_H 	H 	0.6328	0.266	0.2444	0.097
Mof_H 	H 	0.6535	0.2323	0.2435	0.104
Mof_Mn	Mn	0.71618	0.29183	0.49688	1.056
Mof_O 	O 	0.67513	0.301	0.53854	-0.429
Mof_O 	O 	0.68422	0.36528	0.35115	-0.377
Mof_O 	O 	0.75786	0.28915	0.44439	-0.386
Mof_N 	N 	0.71006	0.32689	0.42403	-0.25
Mof_N 	N 	0.7379	0.33236	0.37757	-0.193
Mof_N 	N 	0.74378	0.3245	0.5811	-0.219
Mof_C 	C 	0.65256	0.32313	0.5195	0.309
Mof_C 	C 	0.62384	0.32517	0.5647	-0.27
Mof_H 	H 	0.6216	0.3109	0.6068	0.128
Mof_C 	C 	0.59928	0.3474	0.5486	0.141
Mof_H 	H 	0.5802	0.3481	0.5797	-0.029
Mof_C 	C 	0.60151	0.36887	0.4881	-0.203
Mof_H 	H 	0.5843	0.3843	0.478	0.1
Mof_C 	C 	0.62912	0.36743	0.4429	0.124
Mof_H 	H 	0.6308	0.3821	0.4014	0.008
Mof_C 	C 	0.65506	0.3447	0.4569	-0.234
Mof_C 	C 	0.68433	0.34579	0.40774	0.296
Mof_C 	C 	0.76136	0.31186	0.3934	0.236
Mof_C 	C 	0.79402	0.31481	0.3552	-0.145
Mof_H 	H 	0.7959	0.297	0.3174	0.066
Mof_H 	H 	0.7948	0.3362	0.3281	0.061
Mof_C 	C 	0.82363	0.3129	0.4073	-0.264
Mof_H 	H 	0.8231	0.2919	0.4347	0.105
Mof_H 	H 	0.844	0.3143	0.3778	0.096
Mof_H 	H 	0.8228	0.3313	0.4431	0.103
Mof_C 	C 	0.74	0.35454	0.5888	0.187
Mof_H 	H 	0.7228	0.3645	0.5603	-0.038
Mof_C 	C 	0.7584	0.37548	0.6353	-0.291
Mof_H 	H 	0.7537	0.3985	0.6355	0.121
Mof_C 	C 	0.7804	0.36463	0.6758	0.208
Mof_C 	C 	0.7926	0.3327	0.6561	-0.213
Mof_H 	H 	0.8131	0.3249	0.6754	0.095
Mof_C 	C 	0.774	0.31324	0.6087	0.113
Mof_H 	H 	0.7818	0.292	0.5947	-0.002
Mof_C 	C 	0.7991	0.38674	0.7304	-0.198
Mof_H 	H 	0.7843	0.4052	0.7448	0.082
Mof_H 	H 	0.8182	0.3965	0.7034	0.078
Mof_Mn	Mn	0.77834	0.13697	0.22155	1.055
Mof_O 	O 	0.75816	0.09861	0.18979	-0.432
Mof_O 	O 	0.69803	0.13522	0.36755	-0.388
Mof_O 	O 	0.79372	0.17776	0.26537	-0.388
Mof_N 	N 	0.74364	0.1443	0.29514	-0.248
Mof_N 	N 	0.74622	0.17449	0.33485	-0.19
Mof_N 	N 	0.85904	0.43937	0.94627	-0.205
Mof_C 	C 	0.73349	0.08159	0.2218	0.311
Mof_C 	C 	0.72756	0.04992	0.194	-0.27
Mof_H 	H 	0.7409	0.0417	0.1542	0.131
Mof_C 	C 	0.70258	0.03013	0.223	0.137
Mof_H 	H 	0.699	0.0087	0.203	-0.023
Mof_C 	C 	0.68267	0.04161	0.2816	-0.199
Mof_H 	H 	0.6657	0.0281	0.3019	0.108
Mof_C 	C 	0.6881	0.07283	0.3094	0.13
Mof_H 	H 	0.6745	0.0809	0.3488	0.012
Mof_C 	C 	0.71336	0.09322	0.2809	-0.239
Mof_C 	C 	0.71809	0.12578	0.3161	0.301
Mof_C 	C 	0.77293	0.18972	0.3148	0.238
Mof_C 	C 	0.78208	0.22168	0.352	-0.167
Mof_H 	H 	0.7623	0.2318	0.3751	0.076
Mof_H 	H 	0.7911	0.2373	0.3144	0.078
Mof_C 	C 	0.809	0.2143	0.4145	-0.257
Mof_H 	H 	0.799	0.2012	0.4549	0.1
Mof_H 	H 	0.8173	0.2352	0.435	0.098
Mof_H 	H 	0.8274	0.2019	0.3923	0.103
Mof_C 	C 	0.83264	0.42195	0.9663	0.122
Mof_H 	H 	0.8247	0.4243	0.0162	-0.002
Mof_C 	C 	0.81609	0.40062	0.9192	-0.201
Mof_H 	H 	0.7972	0.3889	0.9362	0.103
Mof_C 	C 	0.82745	0.39667	0.8473	0.132
Mof_C 	C 	0.8542	0.4145	0.8262	-0.193
Mof_H 	H 	0.8628	0.4122	0.7769	0.087
Mof_C 	C 	0.86925	0.43629	0.8759	0.114
Mof_H 	H 	0.8873	0.4493	0.859	-0.01
Mof_C 	C 	0.8104	0.3726	0.7935	-0.115
Mof_H 	H 	0.7916	0.3621	0.8199	0.063
Mof_H 	H 	0.8263	0.355	0.7798	0.055
Mof_Mn	Mn	0.20666	0.67602	0.92375	1.01
Mof_O 	O 	0.23375	0.65473	0.99371	-0.436
Mof_O 	O 	0.22863	0.75485	0.06384	-0.379
Mof_O 	O 	0.18047	0.70477	0.86	-0.383
Mof_N 	N 	0.21405	0.71793	0.97356	-0.252
Mof_N 	N 	0.1984	0.74541	0.93903	-0.191
Mof_C 	C 	0.24796	0.66634	0.0532	0.315
Mof_C 	C 	0.26669	0.64387	0.0976	-0.276
Mof_H 	H 	0.2704	0.622	0.0798	0.127
Mof_C 	C 	0.2795	0.65332	0.1659	0.142
Mof_H 	H 	0.2924	0.6379	0.1934	-0.022
Mof_C 	C 	0.2742	0.6842	0.1958	-0.201
Mof_H 	H 	0.2812	0.6894	0.2453	0.102
Mof_C 	C 	0.258	0.70798	0.1502	0.125
Mof_H 	H 	0.2558	0.7301	0.1674	0.004
Mof_C 	C 	0.24549	0.69917	0.0804	-0.247
Mof_C 	C 	0.22871	0.72525	0.0377	0.298
Mof_C 	C 	0.18179	0.736	0.88011	0.224
Mof_C 	C 	0.16354	0.76126	0.8349	-0.146
Mof_H 	H 	0.1501	0.7749	0.8695	0.065
Mof_H 	H 	0.1799	0.776	0.8107	0.074
Mof_C 	C 	0.14118	0.74777	0.7752	-0.257
Mof_H 	H 	0.1226	0.7362	0.7988	0.102
Mof_H 	H 	0.1328	0.766	0.7444	0.097
Mof_H 	H 	0.1535	0.7323	0.7435	0.104
Mof_Mn	Mn	0.21618	0.79183	0.99688	1.055
Mof_O 	O 	0.17513	0.801	0.03854	-0.429
Mof_O 	O 	0.18422	0.86528	0.85115	-0.377
Mof_O 	O 	0.25786	0.78915	0.94439	-0.386
Mof_N 	N 	0.21006	0.82689	0.92403	-0.25
Mof_N 	N 	0.2379	0.83236	0.87757	-0.193
Mof_N 	N 	0.24378	0.8245	0.0811	-0.219
Mof_C 	C 	0.15256	0.82313	0.0195	0.309
Mof_C 	C 	0.12384	0.82517	0.0647	-0.27
Mof_H 	H 	0.1216	0.8109	0.1068	0.128
Mof_C 	C 	0.09928	0.8474	0.0486	0.142
Mof_H 	H 	0.0802	0.8481	0.0797	-0.029
Mof_C 	C 	0.10151	0.86887	0.9881	-0.203
Mof_H 	H 	0.0843	0.8843	0.978	0.1
Mof_C 	C 	0.12912	0.86743	0.9429	0.125
Mof_H 	H 	0.1308	0.8821	0.9014	0.008
Mof_C 	C 	0.15506	0.8447	0.9569	-0.235
Mof_C 	C 	0.18433	0.84579	0.90774	0.296
Mof_C 	C 	0.26136	0.81186	0.8934	0.236
Mof_C 	C 	0.29402	0.81481	0.8552	-0.145
Mof_H 	H 	0.2959	0.797	0.8174	0.066
Mof_H 	H 	0.2948	0.8362	0.8281	0.061
Mof_C 	C 	0.32363	0.8129	0.9073	-0.264
Mof_H 	H 	0.3231	0.7919	0.9347	0.105
Mof_H 	H 	0.344	0.8143	0.8778	0.096
Mof_H 	H 	0.3228	0.8313	0.9431	0.103
Mof_C 	C 	0.24	0.85454	0.0888	0.187
Mof_H 	H 	0.2228	0.8645	0.0603	-0.038
Mof_C 	C 	0.2584	0.87548	0.1353	-0.291
Mof_H 	H 	0.2537	0.8985	0.1355	0.121
Mof_C 	C 	0.2804	0.86463	0.1758	0.208
Mof_C 	C 	0.2926	0.8327	0.1561	-0.213
Mof_H 	H 	0.3131	0.8249	0.1754	0.095
Mof_C 	C 	0.274	0.81324	0.1087	0.113
Mof_H 	H 	0.2818	0.792	0.0947	-0.002
Mof_C 	C 	0.2991	0.88674	0.2304	-0.198
Mof_H 	H 	0.2843	0.9052	0.2448	0.082
Mof_H 	H 	0.3182	0.8965	0.2034	0.078
Mof_Mn	Mn	0.27834	0.63697	0.72155	1.055
Mof_O 	O 	0.25816	0.59861	0.68979	-0.432
Mof_O 	O 	0.19803	0.63522	0.86755	-0.388
Mof_O 	O 	0.29372	0.67776	0.76537	-0.388
Mof_N 	N 	0.24364	0.6443	0.79514	-0.248
Mof_N 	N 	0.24622	0.67449	0.83485	-0.19
Mof_N 	N 	0.35904	0.93937	0.44627	-0.205
Mof_C 	C 	0.23349	0.58159	0.7218	0.311
Mof_C 	C 	0.22756	0.54992	0.694	-0.27
Mof_H 	H 	0.2409	0.5417	0.6542	0.131
Mof_C 	C 	0.20258	0.53013	0.723	0.137
Mof_H 	H 	0.199	0.5087	0.703	-0.023
Mof_C 	C 	0.18267	0.54161	0.7816	-0.199
Mof_H 	H 	0.1657	0.5281	0.8019	0.108
Mof_C 	C 	0.1881	0.57283	0.8094	0.13
Mof_H 	H 	0.1745	0.5809	0.8488	0.012
Mof_C 	C 	0.21336	0.59322	0.7809	-0.239
Mof_C 	C 	0.21809	0.62578	0.8161	0.301
Mof_C 	C 	0.27293	0.68972	0.8148	0.238
Mof_C 	C 	0.28208	0.72168	0.852	-0.167
Mof_H 	H 	0.2623	0.7318	0.8751	0.076
Mof_H 	H 	0.2911	0.7373	0.8144	0.078
Mof_C 	C 	0.309	0.7143	0.9145	-0.257
Mof_H 	H 	0.299	0.7012	0.9549	0.1
Mof_H 	H 	0.3173	0.7352	0.935	0.098
Mof_H 	H 	0.3274	0.7019	0.8923	0.103
Mof_C 	C 	0.33264	0.92195	0.4663	0.121
Mof_H 	H 	0.3247	0.9243	0.5162	-0.002
Mof_C 	C 	0.31609	0.90062	0.4192	-0.201
Mof_H 	H 	0.2972	0.8889	0.4362	0.103
Mof_C 	C 	0.32745	0.89667	0.3473	0.132
Mof_C 	C 	0.3542	0.9145	0.3262	-0.193
Mof_H 	H 	0.3628	0.9122	0.2769	0.087
Mof_C 	C 	0.36925	0.93629	0.3759	0.114
Mof_H 	H 	0.3873	0.9493	0.359	-0.01
Mof_C 	C 	0.3104	0.8726	0.2935	-0.115
Mof_H 	H 	0.2916	0.8621	0.3199	0.063
Mof_H 	H 	0.3263	0.855	0.2798	0.055
_end
