# CIF file generated by openbabel 3.1.0, see https://openbabel.org
data_I
_chemical_name_common 'YOZBOF_clean'
_cell_length_a 25.789
_cell_length_b 25.789
_cell_length_c 19.797
_cell_angle_alpha 90
_cell_angle_beta 90
_cell_angle_gamma 120
_space_group_name_H-M_alt 'P 1'
_space_group_name_Hall 'P 1'
loop_
    _symmetry_equiv_pos_as_xyz
    x,y,z
loop_
    _atom_site_label
    _atom_site_type_symbol
    _atom_site_fract_x
    _atom_site_fract_y
    _atom_site_fract_z
    _atom_site_occupancy
    Zn1      Zn       0.43191    0.10032    0.59785    1.000
    H2       H        0.29750    0.07560    0.59100    1.000
    H3       H        0.43580    0.12000    0.43900    1.000
    H4       H        0.48310    0.18490    0.29000    1.000
    H5       H        0.41370    0.14110    0.28960    1.000
    H6       H        0.45490    0.12730    0.33520    1.000
    H7       H        0.54930    0.19500    0.52740    1.000
    H8       H        0.32450    0.99800    0.68850    1.000
    C9       C        0.31480    0.02210    0.52700    1.000
    C10      C        0.28260    0.04640    0.55600    1.000
    C11      C        0.22170    0.02120    0.52570    1.000
    C12      C        0.18700    0.05000    0.55800    1.000
    C13      C        0.43230    0.19020    0.49850    1.000
    C14      C        0.43650    0.15710    0.43830    1.000
    C15      C        0.44190    0.19400    0.37550    1.000
    C16      C        0.44900    0.15800    0.31700    1.000
    C17      C        0.55500    0.16420    0.54580    1.000
    C18      C        0.35410    0.02850    0.71620    1.000
    N19      N        0.37130    0.03510    0.54280    1.000
    N20      N        0.43060    0.17080    0.56410    1.000
    N21      N        0.51170    0.11360    0.57580    1.000
    N22      N        0.40420    0.08000    0.69310    1.000
    O23      O        0.54530    0.00840    0.63240    1.000
    O24      O        0.50850    0.18580    0.69470    1.000
    Zn25     Zn       0.89968    0.33159    0.59785    1.000
    H26      H        0.92440    0.22190    0.59100    1.000
    H27      H        0.88000    0.31580    0.43900    1.000
    H28      H        0.81510    0.29820    0.29000    1.000
    H29      H        0.85890    0.27260    0.28960    1.000
    H30      H        0.87270    0.32760    0.33520    1.000
    H31      H        0.80500    0.35430    0.52740    1.000
    H32      H        0.00200    0.32650    0.68850    1.000
    C33      C        0.97790    0.29270    0.52700    1.000
    C34      C        0.95360    0.23620    0.55600    1.000
    C35      C        0.97880    0.20050    0.52570    1.000
    C36      C        0.95000    0.13700    0.55800    1.000
    C37      C        0.80980    0.24210    0.49850    1.000
    C38      C        0.84290    0.27940    0.43830    1.000
    C39      C        0.80600    0.24790    0.37550    1.000
    C40      C        0.84200    0.29100    0.31700    1.000
    C41      C        0.83580    0.39080    0.54580    1.000
    C42      C        0.97150    0.32560    0.71620    1.000
    N43      N        0.96490    0.33620    0.54280    1.000
    N44      N        0.82920    0.25980    0.56410    1.000
    N45      N        0.88640    0.39810    0.57580    1.000
    N46      N        0.92000    0.32420    0.69310    1.000
    O47      O        0.99160    0.53690    0.63240    1.000
    O48      O        0.81420    0.32270    0.69470    1.000
    Zn49     Zn       0.66841    0.56809    0.59785    1.000
    H50      H        0.77810    0.70250    0.59100    1.000
    H51      H        0.68420    0.56420    0.43900    1.000
    H52      H        0.64570    0.45070    0.52740    1.000
    H53      H        0.67350    0.67550    0.68850    1.000
    C54      C        0.70730    0.68520    0.52700    1.000
    C55      C        0.76380    0.71740    0.55600    1.000
    C56      C        0.79950    0.77830    0.52570    1.000
    C57      C        0.86300    0.81300    0.55800    1.000
    C58      C        0.75790    0.56770    0.49850    1.000
    C59      C        0.72060    0.56350    0.43830    1.000
    C60      C        0.75210    0.55810    0.37550    1.000
    C61      C        0.60920    0.44500    0.54580    1.000
    C62      C        0.67440    0.64590    0.71620    1.000
    N63      N        0.66380    0.62870    0.54280    1.000
    N64      N        0.74020    0.56940    0.56410    1.000
    N65      N        0.60190    0.48830    0.57580    1.000
    N66      N        0.67580    0.59580    0.69310    1.000
    O67      O        0.46310    0.45470    0.63240    1.000
    O68      O        0.67730    0.49150    0.69470    1.000
    Zn69     Zn       0.56809    0.89968    0.09785    1.000
    H70      H        0.70250    0.92440    0.09100    1.000
    H71      H        0.56420    0.88000    0.93900    1.000
    H72      H        0.51690    0.81510    0.79000    1.000
    H73      H        0.58630    0.85890    0.78960    1.000
    H74      H        0.54510    0.87270    0.83520    1.000
    H75      H        0.45070    0.80500    0.02740    1.000
    H76      H        0.67550    0.00200    0.18850    1.000
    C77      C        0.68520    0.97790    0.02700    1.000
    C78      C        0.71740    0.95360    0.05600    1.000
    C79      C        0.77830    0.97880    0.02570    1.000
    C80      C        0.81300    0.95000    0.05800    1.000
    C81      C        0.56770    0.80980    0.99850    1.000
    C82      C        0.56350    0.84290    0.93830    1.000
    C83      C        0.55810    0.80600    0.87550    1.000
    C84      C        0.55100    0.84200    0.81700    1.000
    C85      C        0.44500    0.83580    0.04580    1.000
    C86      C        0.64590    0.97150    0.21620    1.000
    N87      N        0.62870    0.96490    0.04280    1.000
    N88      N        0.56940    0.82920    0.06410    1.000
    N89      N        0.48830    0.88640    0.07580    1.000
    N90      N        0.59580    0.92000    0.19310    1.000
    O91      O        0.45470    0.99160    0.13240    1.000
    O92      O        0.49150    0.81420    0.19470    1.000
    Zn93     Zn       0.10032    0.66841    0.09785    1.000
    H94      H        0.07560    0.77810    0.09100    1.000
    H95      H        0.12000    0.68420    0.93900    1.000
    H96      H        0.18490    0.70180    0.79000    1.000
    H97      H        0.14110    0.72740    0.78960    1.000
    H98      H        0.12730    0.67240    0.83520    1.000
    H99      H        0.19500    0.64570    0.02740    1.000
    H100     H        0.99800    0.67350    0.18850    1.000
    C101     C        0.02210    0.70730    0.02700    1.000
    C102     C        0.04640    0.76380    0.05600    1.000
    C103     C        0.02120    0.79950    0.02570    1.000
    C104     C        0.05000    0.86300    0.05800    1.000
    C105     C        0.19020    0.75790    0.99850    1.000
    C106     C        0.15710    0.72060    0.93830    1.000
    C107     C        0.19400    0.75210    0.87550    1.000
    C108     C        0.15800    0.70900    0.81700    1.000
    C109     C        0.16420    0.60920    0.04580    1.000
    C110     C        0.02850    0.67440    0.21620    1.000
    N111     N        0.03510    0.66380    0.04280    1.000
    N112     N        0.17080    0.74020    0.06410    1.000
    N113     N        0.11360    0.60190    0.07580    1.000
    N114     N        0.08000    0.67580    0.19310    1.000
    O115     O        0.00840    0.46310    0.13240    1.000
    O116     O        0.18580    0.67730    0.19470    1.000
    Zn117    Zn       0.33159    0.43191    0.09785    1.000
    H118     H        0.22190    0.29750    0.09100    1.000
    H119     H        0.31580    0.43580    0.93900    1.000
    H120     H        0.29820    0.48310    0.79000    1.000
    H121     H        0.27260    0.41370    0.78960    1.000
    H122     H        0.32760    0.45490    0.83520    1.000
    H123     H        0.35430    0.54930    0.02740    1.000
    H124     H        0.32650    0.32450    0.18850    1.000
    C125     C        0.29270    0.31480    0.02700    1.000
    C126     C        0.23620    0.28260    0.05600    1.000
    C127     C        0.20050    0.22170    0.02570    1.000
    C128     C        0.13700    0.18700    0.05800    1.000
    C129     C        0.24210    0.43230    0.99850    1.000
    C130     C        0.27940    0.43650    0.93830    1.000
    C131     C        0.24790    0.44190    0.87550    1.000
    C132     C        0.29100    0.44900    0.81700    1.000
    C133     C        0.39080    0.55500    0.04580    1.000
    C134     C        0.32560    0.35410    0.21620    1.000
    N135     N        0.33620    0.37130    0.04280    1.000
    N136     N        0.25980    0.43060    0.06410    1.000
    N137     N        0.39810    0.51170    0.07580    1.000
    N138     N        0.32420    0.40420    0.19310    1.000
    O139     O        0.53690    0.54530    0.13240    1.000
    O140     O        0.32270    0.50850    0.19470    1.000
    Zn141    Zn       0.10032    0.43191    0.40215    1.000
    H142     H        0.07560    0.29750    0.40900    1.000
    H143     H        0.12000    0.43580    0.56100    1.000
    H144     H        0.18490    0.48310    0.71000    1.000
    H145     H        0.14110    0.41370    0.71040    1.000
    H146     H        0.12730    0.45490    0.66480    1.000
    H147     H        0.19500    0.54930    0.47260    1.000
    H148     H        0.99800    0.32450    0.31150    1.000
    C149     C        0.02210    0.31480    0.47300    1.000
    C150     C        0.04640    0.28260    0.44400    1.000
    C151     C        0.02120    0.22170    0.47430    1.000
    C152     C        0.19020    0.43230    0.50150    1.000
    C153     C        0.15710    0.43650    0.56170    1.000
    C154     C        0.19400    0.44190    0.62450    1.000
    C155     C        0.15800    0.44900    0.68300    1.000
    C156     C        0.16420    0.55500    0.45420    1.000
    C157     C        0.02850    0.35410    0.28380    1.000
    N158     N        0.03510    0.37130    0.45720    1.000
    N159     N        0.17080    0.43060    0.43590    1.000
    N160     N        0.11360    0.51170    0.42420    1.000
    N161     N        0.08000    0.40420    0.30690    1.000
    O162     O        0.00840    0.54530    0.36760    1.000
    O163     O        0.18580    0.50850    0.30530    1.000
    Zn164    Zn       0.33159    0.89968    0.40215    1.000
    H165     H        0.22190    0.92440    0.40900    1.000
    H166     H        0.31580    0.88000    0.56100    1.000
    H167     H        0.29820    0.81510    0.71000    1.000
    H168     H        0.27260    0.85890    0.71040    1.000
    H169     H        0.32760    0.87270    0.66480    1.000
    H170     H        0.35430    0.80500    0.47260    1.000
    H171     H        0.32650    0.00200    0.31150    1.000
    C172     C        0.29270    0.97790    0.47300    1.000
    C173     C        0.23620    0.95360    0.44400    1.000
    C174     C        0.20050    0.97880    0.47430    1.000
    C175     C        0.24210    0.80980    0.50150    1.000
    C176     C        0.27940    0.84290    0.56170    1.000
    C177     C        0.24790    0.80600    0.62450    1.000
    C178     C        0.29100    0.84200    0.68300    1.000
    C179     C        0.39080    0.83580    0.45420    1.000
    C180     C        0.32560    0.97150    0.28380    1.000
    N181     N        0.33620    0.96490    0.45720    1.000
    N182     N        0.25980    0.82920    0.43590    1.000
    N183     N        0.39810    0.88640    0.42420    1.000
    N184     N        0.32420    0.92000    0.30690    1.000
    O185     O        0.53690    0.99160    0.36760    1.000
    O186     O        0.32270    0.81420    0.30530    1.000
    Zn187    Zn       0.56809    0.66841    0.40215    1.000
    H188     H        0.70250    0.77810    0.40900    1.000
    H189     H        0.56420    0.68420    0.56100    1.000
    H190     H        0.51690    0.70180    0.71000    1.000
    H191     H        0.58630    0.72740    0.71040    1.000
    H192     H        0.54510    0.67240    0.66480    1.000
    H193     H        0.45070    0.64570    0.47260    1.000
    H194     H        0.67550    0.67350    0.31150    1.000
    C195     C        0.68520    0.70730    0.47300    1.000
    C196     C        0.71740    0.76380    0.44400    1.000
    C197     C        0.77830    0.79950    0.47430    1.000
    C198     C        0.56770    0.75790    0.50150    1.000
    C199     C        0.56350    0.72060    0.56170    1.000
    C200     C        0.55810    0.75210    0.62450    1.000
    C201     C        0.55100    0.70900    0.68300    1.000
    C202     C        0.44500    0.60920    0.45420    1.000
    C203     C        0.64590    0.67440    0.28380    1.000
    N204     N        0.62870    0.66380    0.45720    1.000
    N205     N        0.56940    0.74020    0.43590    1.000
    N206     N        0.48830    0.60190    0.42420    1.000
    N207     N        0.59580    0.67580    0.30690    1.000
    O208     O        0.45470    0.46310    0.36760    1.000
    O209     O        0.49150    0.67730    0.30530    1.000
    Zn210    Zn       0.89968    0.56809    0.90215    1.000
    H211     H        0.92440    0.70250    0.90900    1.000
    H212     H        0.88000    0.56420    0.06100    1.000
    H213     H        0.80500    0.45070    0.97260    1.000
    H214     H        0.00200    0.67550    0.81150    1.000
    C215     C        0.97790    0.68520    0.97300    1.000
    C216     C        0.95360    0.71740    0.94400    1.000
    C217     C        0.97880    0.77830    0.97430    1.000
    C218     C        0.80980    0.56770    0.00150    1.000
    C219     C        0.84290    0.56350    0.06170    1.000
    C220     C        0.80600    0.55810    0.12450    1.000
    C221     C        0.83580    0.44500    0.95420    1.000
    C222     C        0.97150    0.64590    0.78380    1.000
    N223     N        0.96490    0.62870    0.95720    1.000
    N224     N        0.82920    0.56940    0.93590    1.000
    N225     N        0.88640    0.48830    0.92420    1.000
    N226     N        0.92000    0.59580    0.80690    1.000
    O227     O        0.99160    0.45470    0.86760    1.000
    O228     O        0.81420    0.49150    0.80530    1.000
    Zn229    Zn       0.66841    0.10032    0.90215    1.000
    H230     H        0.77810    0.07560    0.90900    1.000
    H231     H        0.68420    0.12000    0.06100    1.000
    H232     H        0.70180    0.18490    0.21000    1.000
    H233     H        0.72740    0.14110    0.21040    1.000
    H234     H        0.67240    0.12730    0.16480    1.000
    H235     H        0.64570    0.19500    0.97260    1.000
    H236     H        0.67350    0.99800    0.81150    1.000
    C237     C        0.70730    0.02210    0.97300    1.000
    C238     C        0.76380    0.04640    0.94400    1.000
    C239     C        0.79950    0.02120    0.97430    1.000
    C240     C        0.75790    0.19020    0.00150    1.000
    C241     C        0.72060    0.15710    0.06170    1.000
    C242     C        0.75210    0.19400    0.12450    1.000
    C243     C        0.70900    0.15800    0.18300    1.000
    C244     C        0.60920    0.16420    0.95420    1.000
    C245     C        0.67440    0.02850    0.78380    1.000
    N246     N        0.66380    0.03510    0.95720    1.000
    N247     N        0.74020    0.17080    0.93590    1.000
    N248     N        0.60190    0.11360    0.92420    1.000
    N249     N        0.67580    0.08000    0.80690    1.000
    O250     O        0.46310    0.00840    0.86760    1.000
    O251     O        0.67730    0.18580    0.80530    1.000
    Zn252    Zn       0.43191    0.33159    0.90215    1.000
    H253     H        0.29750    0.22190    0.90900    1.000
    H254     H        0.43580    0.31580    0.06100    1.000
    H255     H        0.48310    0.29820    0.21000    1.000
    H256     H        0.41370    0.27260    0.21040    1.000
    H257     H        0.45490    0.32760    0.16480    1.000
    H258     H        0.54930    0.35430    0.97260    1.000
    H259     H        0.32450    0.32650    0.81150    1.000
    C260     C        0.31480    0.29270    0.97300    1.000
    C261     C        0.28260    0.23620    0.94400    1.000
    C262     C        0.22170    0.20050    0.97430    1.000
    C263     C        0.43230    0.24210    0.00150    1.000
    C264     C        0.43650    0.27940    0.06170    1.000
    C265     C        0.44190    0.24790    0.12450    1.000
    C266     C        0.44900    0.29100    0.18300    1.000
    C267     C        0.55500    0.39080    0.95420    1.000
    C268     C        0.35410    0.32560    0.78380    1.000
    N269     N        0.37130    0.33620    0.95720    1.000
    N270     N        0.43060    0.25980    0.93590    1.000
    N271     N        0.51170    0.39810    0.92420    1.000
    N272     N        0.40420    0.32420    0.80690    1.000
    O273     O        0.54530    0.53690    0.86760    1.000
    O274     O        0.50850    0.32270    0.80530    1.000
    Zn275    Zn       0.56809    0.89968    0.40215    1.000
    H276     H        0.70250    0.92440    0.40900    1.000
    H277     H        0.56420    0.88000    0.56100    1.000
    H278     H        0.45070    0.80500    0.47260    1.000
    H279     H        0.67550    0.00200    0.31150    1.000
    C280     C        0.68520    0.97790    0.47300    1.000
    C281     C        0.71740    0.95360    0.44400    1.000
    C282     C        0.77830    0.97880    0.47430    1.000
    C283     C        0.81300    0.95000    0.44200    1.000
    C284     C        0.56770    0.80980    0.50150    1.000
    C285     C        0.56350    0.84290    0.56170    1.000
    C286     C        0.55810    0.80600    0.62450    1.000
    C287     C        0.44500    0.83580    0.45420    1.000
    C288     C        0.64590    0.97150    0.28380    1.000
    N289     N        0.62870    0.96490    0.45720    1.000
    N290     N        0.56940    0.82920    0.43590    1.000
    N291     N        0.48830    0.88640    0.42420    1.000
    N292     N        0.59580    0.92000    0.30690    1.000
    O293     O        0.45470    0.99160    0.36760    1.000
    O294     O        0.49150    0.81420    0.30530    1.000
    Zn295    Zn       0.10032    0.66841    0.40215    1.000
    H296     H        0.07560    0.77810    0.40900    1.000
    H297     H        0.12000    0.68420    0.56100    1.000
    H298     H        0.19500    0.64570    0.47260    1.000
    H299     H        0.99800    0.67350    0.31150    1.000
    C300     C        0.02210    0.70730    0.47300    1.000
    C301     C        0.04640    0.76380    0.44400    1.000
    C302     C        0.02120    0.79950    0.47430    1.000
    C303     C        0.05000    0.86300    0.44200    1.000
    C304     C        0.19020    0.75790    0.50150    1.000
    C305     C        0.15710    0.72060    0.56170    1.000
    C306     C        0.19400    0.75210    0.62450    1.000
    C307     C        0.16420    0.60920    0.45420    1.000
    C308     C        0.02850    0.67440    0.28380    1.000
    N309     N        0.03510    0.66380    0.45720    1.000
    N310     N        0.17080    0.74020    0.43590    1.000
    N311     N        0.11360    0.60190    0.42420    1.000
    N312     N        0.08000    0.67580    0.30690    1.000
    O313     O        0.00840    0.46310    0.36760    1.000
    O314     O        0.18580    0.67730    0.30530    1.000
    Zn315    Zn       0.33159    0.43191    0.40215    1.000
    H316     H        0.22190    0.29750    0.40900    1.000
    H317     H        0.31580    0.43580    0.56100    1.000
    H318     H        0.35430    0.54930    0.47260    1.000
    H319     H        0.32650    0.32450    0.31150    1.000
    C320     C        0.29270    0.31480    0.47300    1.000
    C321     C        0.23620    0.28260    0.44400    1.000
    C322     C        0.20050    0.22170    0.47430    1.000
    C323     C        0.13700    0.18700    0.44200    1.000
    C324     C        0.24210    0.43230    0.50150    1.000
    C325     C        0.27940    0.43650    0.56170    1.000
    C326     C        0.24790    0.44190    0.62450    1.000
    C327     C        0.39080    0.55500    0.45420    1.000
    C328     C        0.32560    0.35410    0.28380    1.000
    N329     N        0.33620    0.37130    0.45720    1.000
    N330     N        0.25980    0.43060    0.43590    1.000
    N331     N        0.39810    0.51170    0.42420    1.000
    N332     N        0.32420    0.40420    0.30690    1.000
    O333     O        0.53690    0.54530    0.36760    1.000
    O334     O        0.32270    0.50850    0.30530    1.000
    Zn335    Zn       0.43191    0.10032    0.90215    1.000
    H336     H        0.29750    0.07560    0.90900    1.000
    H337     H        0.43580    0.12000    0.06100    1.000
    H338     H        0.54930    0.19500    0.97260    1.000
    H339     H        0.32450    0.99800    0.81150    1.000
    C340     C        0.31480    0.02210    0.97300    1.000
    C341     C        0.28260    0.04640    0.94400    1.000
    C342     C        0.22170    0.02120    0.97430    1.000
    C343     C        0.18700    0.05000    0.94200    1.000
    C344     C        0.43230    0.19020    0.00150    1.000
    C345     C        0.43650    0.15710    0.06170    1.000
    C346     C        0.44190    0.19400    0.12450    1.000
    C347     C        0.55500    0.16420    0.95420    1.000
    C348     C        0.35410    0.02850    0.78380    1.000
    N349     N        0.37130    0.03510    0.95720    1.000
    N350     N        0.43060    0.17080    0.93590    1.000
    N351     N        0.51170    0.11360    0.92420    1.000
    N352     N        0.40420    0.08000    0.80690    1.000
    O353     O        0.54530    0.00840    0.86760    1.000
    O354     O        0.50850    0.18580    0.80530    1.000
    Zn355    Zn       0.89968    0.33159    0.90215    1.000
    H356     H        0.92440    0.22190    0.90900    1.000
    H357     H        0.88000    0.31580    0.06100    1.000
    H358     H        0.80500    0.35430    0.97260    1.000
    H359     H        0.00200    0.32650    0.81150    1.000
    C360     C        0.97790    0.29270    0.97300    1.000
    C361     C        0.95360    0.23620    0.94400    1.000
    C362     C        0.97880    0.20050    0.97430    1.000
    C363     C        0.95000    0.13700    0.94200    1.000
    C364     C        0.80980    0.24210    0.00150    1.000
    C365     C        0.84290    0.27940    0.06170    1.000
    C366     C        0.80600    0.24790    0.12450    1.000
    C367     C        0.83580    0.39080    0.95420    1.000
    C368     C        0.97150    0.32560    0.78380    1.000
    N369     N        0.96490    0.33620    0.95720    1.000
    N370     N        0.82920    0.25980    0.93590    1.000
    N371     N        0.88640    0.39810    0.92420    1.000
    N372     N        0.92000    0.32420    0.80690    1.000
    O373     O        0.99160    0.53690    0.86760    1.000
    O374     O        0.81420    0.32270    0.80530    1.000
    Zn375    Zn       0.66841    0.56809    0.90215    1.000
    H376     H        0.77810    0.70250    0.90900    1.000
    H377     H        0.68420    0.56420    0.06100    1.000
    H378     H        0.70180    0.51690    0.21000    1.000
    H379     H        0.72740    0.58630    0.21040    1.000
    H380     H        0.67240    0.54510    0.16480    1.000
    H381     H        0.64570    0.45070    0.97260    1.000
    H382     H        0.67350    0.67550    0.81150    1.000
    C383     C        0.70730    0.68520    0.97300    1.000
    C384     C        0.76380    0.71740    0.94400    1.000
    C385     C        0.79950    0.77830    0.97430    1.000
    C386     C        0.86300    0.81300    0.94200    1.000
    C387     C        0.75790    0.56770    0.00150    1.000
    C388     C        0.72060    0.56350    0.06170    1.000
    C389     C        0.75210    0.55810    0.12450    1.000
    C390     C        0.70900    0.55100    0.18300    1.000
    C391     C        0.60920    0.44500    0.95420    1.000
    C392     C        0.67440    0.64590    0.78380    1.000
    N393     N        0.66380    0.62870    0.95720    1.000
    N394     N        0.74020    0.56940    0.93590    1.000
    N395     N        0.60190    0.48830    0.92420    1.000
    N396     N        0.67580    0.59580    0.80690    1.000
    O397     O        0.46310    0.45470    0.86760    1.000
    O398     O        0.67730    0.49150    0.80530    1.000
    Zn399    Zn       0.89968    0.56809    0.59785    1.000
    H400     H        0.92440    0.70250    0.59100    1.000
    H401     H        0.88000    0.56420    0.43900    1.000
    H402     H        0.81510    0.51690    0.29000    1.000
    H403     H        0.85890    0.58630    0.28960    1.000
    H404     H        0.87270    0.54510    0.33520    1.000
    H405     H        0.80500    0.45070    0.52740    1.000
    H406     H        0.00200    0.67550    0.68850    1.000
    C407     C        0.97790    0.68520    0.52700    1.000
    C408     C        0.95360    0.71740    0.55600    1.000
    C409     C        0.97880    0.77830    0.52570    1.000
    C410     C        0.80980    0.56770    0.49850    1.000
    C411     C        0.84290    0.56350    0.43830    1.000
    C412     C        0.80600    0.55810    0.37550    1.000
    C413     C        0.84200    0.55100    0.31700    1.000
    C414     C        0.83580    0.44500    0.54580    1.000
    C415     C        0.97150    0.64590    0.71620    1.000
    N416     N        0.96490    0.62870    0.54280    1.000
    N417     N        0.82920    0.56940    0.56410    1.000
    N418     N        0.88640    0.48830    0.57580    1.000
    N419     N        0.92000    0.59580    0.69310    1.000
    O420     O        0.99160    0.45470    0.63240    1.000
    O421     O        0.81420    0.49150    0.69470    1.000
    Zn422    Zn       0.66841    0.10032    0.59785    1.000
    H423     H        0.77810    0.07560    0.59100    1.000
    H424     H        0.68420    0.12000    0.43900    1.000
    H425     H        0.64570    0.19500    0.52740    1.000
    H426     H        0.67350    0.99800    0.68850    1.000
    C427     C        0.70730    0.02210    0.52700    1.000
    C428     C        0.76380    0.04640    0.55600    1.000
    C429     C        0.79950    0.02120    0.52570    1.000
    C430     C        0.75790    0.19020    0.49850    1.000
    C431     C        0.72060    0.15710    0.43830    1.000
    C432     C        0.75210    0.19400    0.37550    1.000
    C433     C        0.60920    0.16420    0.54580    1.000
    C434     C        0.67440    0.02850    0.71620    1.000
    N435     N        0.66380    0.03510    0.54280    1.000
    N436     N        0.74020    0.17080    0.56410    1.000
    N437     N        0.60190    0.11360    0.57580    1.000
    N438     N        0.67580    0.08000    0.69310    1.000
    O439     O        0.46310    0.00840    0.63240    1.000
    O440     O        0.67730    0.18580    0.69470    1.000
    Zn441    Zn       0.43191    0.33159    0.59785    1.000
    H442     H        0.29750    0.22190    0.59100    1.000
    H443     H        0.43580    0.31580    0.43900    1.000
    H444     H        0.54930    0.35430    0.52740    1.000
    H445     H        0.32450    0.32650    0.68850    1.000
    C446     C        0.31480    0.29270    0.52700    1.000
    C447     C        0.28260    0.23620    0.55600    1.000
    C448     C        0.22170    0.20050    0.52570    1.000
    C449     C        0.43230    0.24210    0.49850    1.000
    C450     C        0.43650    0.27940    0.43830    1.000
    C451     C        0.44190    0.24790    0.37550    1.000
    C452     C        0.55500    0.39080    0.54580    1.000
    C453     C        0.35410    0.32560    0.71620    1.000
    N454     N        0.37130    0.33620    0.54280    1.000
    N455     N        0.43060    0.25980    0.56410    1.000
    N456     N        0.51170    0.39810    0.57580    1.000
    N457     N        0.40420    0.32420    0.69310    1.000
    O458     O        0.54530    0.53690    0.63240    1.000
    O459     O        0.50850    0.32270    0.69470    1.000
    Zn460    Zn       0.10032    0.43191    0.09785    1.000
    H461     H        0.07560    0.29750    0.09100    1.000
    H462     H        0.12000    0.43580    0.93900    1.000
    H463     H        0.19500    0.54930    0.02740    1.000
    H464     H        0.99800    0.32450    0.18850    1.000
    C465     C        0.02210    0.31480    0.02700    1.000
    C466     C        0.04640    0.28260    0.05600    1.000
    C467     C        0.02120    0.22170    0.02570    1.000
    C468     C        0.19020    0.43230    0.99850    1.000
    C469     C        0.15710    0.43650    0.93830    1.000
    C470     C        0.19400    0.44190    0.87550    1.000
    C471     C        0.16420    0.55500    0.04580    1.000
    C472     C        0.02850    0.35410    0.21620    1.000
    N473     N        0.03510    0.37130    0.04280    1.000
    N474     N        0.17080    0.43060    0.06410    1.000
    N475     N        0.11360    0.51170    0.07580    1.000
    N476     N        0.08000    0.40420    0.19310    1.000
    O477     O        0.00840    0.54530    0.13240    1.000
    O478     O        0.18580    0.50850    0.19470    1.000
    Zn479    Zn       0.33159    0.89968    0.09785    1.000
    H480     H        0.22190    0.92440    0.09100    1.000
    H481     H        0.31580    0.88000    0.93900    1.000
    H482     H        0.35430    0.80500    0.02740    1.000
    H483     H        0.32650    0.00200    0.18850    1.000
    C484     C        0.29270    0.97790    0.02700    1.000
    C485     C        0.23620    0.95360    0.05600    1.000
    C486     C        0.20050    0.97880    0.02570    1.000
    C487     C        0.24210    0.80980    0.99850    1.000
    C488     C        0.27940    0.84290    0.93830    1.000
    C489     C        0.24790    0.80600    0.87550    1.000
    C490     C        0.39080    0.83580    0.04580    1.000
    C491     C        0.32560    0.97150    0.21620    1.000
    N492     N        0.33620    0.96490    0.04280    1.000
    N493     N        0.25980    0.82920    0.06410    1.000
    N494     N        0.39810    0.88640    0.07580    1.000
    N495     N        0.32420    0.92000    0.19310    1.000
    O496     O        0.53690    0.99160    0.13240    1.000
    O497     O        0.32270    0.81420    0.19470    1.000
    Zn498    Zn       0.56809    0.66841    0.09785    1.000
    H499     H        0.70250    0.77810    0.09100    1.000
    H500     H        0.56420    0.68420    0.93900    1.000
    H501     H        0.45070    0.64570    0.02740    1.000
    H502     H        0.67550    0.67350    0.18850    1.000
    C503     C        0.68520    0.70730    0.02700    1.000
    C504     C        0.71740    0.76380    0.05600    1.000
    C505     C        0.77830    0.79950    0.02570    1.000
    C506     C        0.56770    0.75790    0.99850    1.000
    C507     C        0.56350    0.72060    0.93830    1.000
    C508     C        0.55810    0.75210    0.87550    1.000
    C509     C        0.44500    0.60920    0.04580    1.000
    C510     C        0.64590    0.67440    0.21620    1.000
    N511     N        0.62870    0.66380    0.04280    1.000
    N512     N        0.56940    0.74020    0.06410    1.000
    N513     N        0.48830    0.60190    0.07580    1.000
    N514     N        0.59580    0.67580    0.19310    1.000
    O515     O        0.45470    0.46310    0.13240    1.000
    O516     O        0.49150    0.67730    0.19470    1.000
    H517     H        0.42100    0.00000    0.50000    1.000
    C518     C        0.38420    0.00000    0.50000    1.000
    H519     H        0.00000    0.42100    0.50000    1.000
    C520     C        0.00000    0.38420    0.50000    1.000
    H521     H        0.57900    0.57900    0.50000    1.000
    C522     C        0.61580    0.61580    0.50000    1.000
    H523     H        0.57900    0.00000    0.00000    1.000
    C524     C        0.61580    0.00000    0.00000    1.000
    H525     H        0.00000    0.57900    0.00000    1.000
    C526     C        0.00000    0.61580    0.00000    1.000
    H527     H        0.42100    0.42100    0.00000    1.000
    C528     C        0.38420    0.38420    0.00000    1.000
    H529     H        0.57900    0.00000    0.50000    1.000
    C530     C        0.61580    0.00000    0.50000    1.000
    H531     H        0.00000    0.57900    0.50000    1.000
    C532     C        0.00000    0.61580    0.50000    1.000
    H533     H        0.42100    0.42100    0.50000    1.000
    C534     C        0.38420    0.38420    0.50000    1.000
    H535     H        0.42100    0.00000    0.00000    1.000
    C536     C        0.38420    0.00000    0.00000    1.000
    H537     H        0.00000    0.42100    0.00000    1.000
    C538     C        0.00000    0.38420    0.00000    1.000
    H539     H        0.57900    0.57900    0.00000    1.000
    C540     C        0.61580    0.61580    0.00000    1.000
    H541     H        0.43410    0.21705    0.65060    1.000
    C542     C        0.43210    0.21605    0.60260    1.000
    H543     H        0.78295    0.21705    0.65060    1.000
    C544     C        0.78395    0.21605    0.60260    1.000
    H545     H        0.78295    0.56590    0.65060    1.000
    C546     C        0.78395    0.56790    0.60260    1.000
    H547     H        0.56590    0.78295    0.15060    1.000
    C548     C        0.56790    0.78395    0.10260    1.000
    H549     H        0.21705    0.78295    0.15060    1.000
    C550     C        0.21605    0.78395    0.10260    1.000
    H551     H        0.21705    0.43410    0.15060    1.000
    C552     C        0.21605    0.43210    0.10260    1.000
    H553     H        0.21705    0.43410    0.34940    1.000
    C554     C        0.21605    0.43210    0.39740    1.000
    H555     H        0.21705    0.78295    0.34940    1.000
    C556     C        0.21605    0.78395    0.39740    1.000
    H557     H        0.56590    0.78295    0.34940    1.000
    C558     C        0.56790    0.78395    0.39740    1.000
    H559     H        0.78295    0.56590    0.84940    1.000
    C560     C        0.78395    0.56790    0.89740    1.000
    H561     H        0.78295    0.21705    0.84940    1.000
    C562     C        0.78395    0.21605    0.89740    1.000
    H563     H        0.43410    0.21705    0.84940    1.000
    C564     C        0.43210    0.21605    0.89740    1.000
    C565     C        0.54585    0.09170    0.59130    1.000
    N566     N        0.51950    0.03900    0.63000    1.000
    C567     C        0.90830    0.45415    0.59130    1.000
    N568     N        0.96100    0.48050    0.63000    1.000
    C569     C        0.54585    0.45415    0.59130    1.000
    N570     N        0.51950    0.48050    0.63000    1.000
    C571     C        0.45415    0.90830    0.09130    1.000
    N572     N        0.48050    0.96100    0.13000    1.000
    C573     C        0.09170    0.54585    0.09130    1.000
    N574     N        0.03900    0.51950    0.13000    1.000
    C575     C        0.45415    0.54585    0.09130    1.000
    N576     N        0.48050    0.51950    0.13000    1.000
    C577     C        0.09170    0.54585    0.40870    1.000
    N578     N        0.03900    0.51950    0.37000    1.000
    C579     C        0.45415    0.90830    0.40870    1.000
    N580     N        0.48050    0.96100    0.37000    1.000
    C581     C        0.45415    0.54585    0.40870    1.000
    N582     N        0.48050    0.51950    0.37000    1.000
    C583     C        0.90830    0.45415    0.90870    1.000
    N584     N        0.96100    0.48050    0.87000    1.000
    C585     C        0.54585    0.09170    0.90870    1.000
    N586     N        0.51950    0.03900    0.87000    1.000
    C587     C        0.54585    0.45415    0.90870    1.000
    N588     N        0.51950    0.48050    0.87000    1.000
    C589     C        0.42960    0.10620    0.75000    1.000
    N590     N        0.48660    0.16200    0.75000    1.000
    C591     C        0.89380    0.32340    0.75000    1.000
    N592     N        0.83800    0.32460    0.75000    1.000
    C593     C        0.67660    0.57040    0.75000    1.000
    N594     N        0.67540    0.51340    0.75000    1.000
    C595     C        0.57040    0.89380    0.25000    1.000
    N596     N        0.51340    0.83800    0.25000    1.000
    C597     C        0.10620    0.67660    0.25000    1.000
    N598     N        0.16200    0.67540    0.25000    1.000
    C599     C        0.32340    0.42960    0.25000    1.000
    N600     N        0.32460    0.48660    0.25000    1.000
    C601     C        0.10620    0.42960    0.25000    1.000
    N602     N        0.16200    0.48660    0.25000    1.000
    C603     C        0.32340    0.89380    0.25000    1.000
    N604     N        0.32460    0.83800    0.25000    1.000
    C605     C        0.57040    0.67660    0.25000    1.000
    N606     N        0.51340    0.67540    0.25000    1.000
    C607     C        0.89380    0.57040    0.75000    1.000
    N608     N        0.83800    0.51340    0.75000    1.000
    C609     C        0.67660    0.10620    0.75000    1.000
    N610     N        0.67540    0.16200    0.75000    1.000
    C611     C        0.42960    0.32340    0.75000    1.000
    N612     N        0.48660    0.32460    0.75000    1.000
    H613     H        0.78294    0.91446    0.09611    1.000
    H614     H        0.85466    0.98606    0.08472    1.000
    H615     H        0.82680    0.92841    0.01681    1.000
    H616     H        0.82597    0.27214    0.17414    1.000
    H617     H        0.44637    0.17771    0.17654    1.000
    H618     H        0.72786    0.17403    0.32586    1.000
    H619     H        0.44637    0.26866    0.32346    1.000
    H620     H        0.18989    0.15323    0.54464    1.000
    H621     H        0.55383    0.82597    0.67414    1.000
    H622     H        0.17403    0.72786    0.67414    1.000
    H623     H        0.27214    0.82597    0.82586    1.000
    H624     H        0.55383    0.72786    0.82586    1.000
    H625     H        0.73134    0.55363    0.32346    1.000
    H626     H        0.82229    0.55363    0.17654    1.000
    H627     H        0.03666    0.18989    0.45536    1.000
    H628     H        0.15323    0.96334    0.45536    1.000
    H629     H        0.80793    0.84643    0.45313    1.000
    H630     H        0.96150    0.80793    0.95313    1.000
    H631     H        0.84643    0.03850    0.95313    1.000
    H632     H        0.18989    0.15323    0.95536    1.000
    H633     H        0.26866    0.44637    0.67654    1.000
    H634     H        0.96150    0.80793    0.54687    1.000
    H635     H        0.84643    0.03850    0.54687    1.000
    H636     H        0.03666    0.18989    0.04464    1.000
    H637     H        0.17771    0.44637    0.82346    1.000
    H638     H        0.15323    0.96334    0.04464    1.000
    H639     H        0.81011    0.84677    0.04464    1.000
    H640     H        0.10168    0.16971    0.01643    1.000
    H641     H        0.13002    0.21828    0.09268    1.000
    H642     H        0.13283    0.14761    0.08853    1.000
    H643     H        0.01626    0.87930    0.05749    1.000
    H644     H        0.09135    0.89531    0.02782    1.000
    H645     H        0.06348    0.86087    0.11233    1.000
    H646     H        0.14001    0.02851    0.53565    1.000
    H647     H        0.21172    0.10011    0.54704    1.000
    H648     H        0.18387    0.04246    0.61495    1.000
    H649     H        0.13002    0.21828    0.40732    1.000
    H650     H        0.10168    0.16971    0.48357    1.000
    H651     H        0.13283    0.14761    0.41147    1.000
    H652     H        0.21172    0.10011    0.95296    1.000
    H653     H        0.14001    0.02851    0.96435    1.000
    H654     H        0.18387    0.04246    0.88505    1.000
    H655     H        0.90221    0.12231    0.57427    1.000
    H656     H        0.97729    0.13832    0.60394    1.000
    H657     H        0.94942    0.10389    0.51943    1.000
    H658     H        0.97729    0.13832    0.89606    1.000
    H659     H        0.90221    0.12231    0.92573    1.000
    H660     H        0.94942    0.10389    0.98057    1.000
    H661     H        0.09135    0.89531    0.47218    1.000
    H662     H        0.01626    0.87930    0.44251    1.000
    H663     H        0.06348    0.86087    0.38767    1.000
    H664     H        0.85866    0.81265    0.61533    1.000
    H665     H        0.88700    0.86121    0.53909    1.000
    H666     H        0.88981    0.79054    0.54323    1.000
    H667     H        0.85466    0.98606    0.41528    1.000
    H668     H        0.78294    0.91446    0.40389    1.000
    H669     H        0.82680    0.92841    0.48319    1.000
    H670     H        0.88700    0.86121    0.96091    1.000
    H671     H        0.85866    0.81265    0.88467    1.000
    H672     H        0.88981    0.79054    0.95677    1.000
