data_functionalizedCrystal
_audit_creation_method	'EQeq! by Chris Wilmer'
_symmetry_space_group_name_H-M	'P1'
_symmetry_Int_Tables_number	1
_symmetry_cell_setting	triclinic
loop_
_symmetry_equiv_pos_as_xyz
  x,y,z
_cell_length_a	10.162
_cell_length_b	15.986
_cell_length_c	23.971
_cell_angle_alpha	90
_cell_angle_beta	99.582
_cell_angle_gamma	90
loop_
_atom_site_label
_atom_site_type_symbol
_atom_site_fract_x
_atom_site_fract_y
_atom_site_fract_z
_atom_site_charge
Mof_Co	Co	0.169	0.49825	0.66578	1.191
Mof_Co	Co	0.98648	0.61151	0.7545	1.202
Mof_O 	O 	0.9951	0.44422	0.639	-0.443
Mof_O 	O 	0.9049	0.5273	0.69528	-0.472
Mof_O 	O 	0.4064	0.5259	0.68027	-0.335
Mof_O 	O 	0.2937	0.42929	0.62922	-0.397
Mof_O 	O 	0.4866	0.17974	0.66629	-0.371
Mof_O 	O 	0.6464	0.0893	0.68479	-0.384
Mof_O 	O 	0.6134	0.97558	0.30258	-0.434
Mof_O 	O 	0.7068	0.04886	0.24208	-0.471
Mof_O 	O 	0.8614	0.33199	0.28078	-0.443
Mof_O 	O 	0.8533	0.38731	0.36527	-0.441
Mof_O 	O 	0.8342	0.6865	0.7104	-0.331
Mof_N 	N 	0.6922	0.7888	0.6866	-0.11
Mof_C 	C 	0.8987	0.4697	0.66071	0.399
Mof_C 	C 	0.7671	0.4263	0.64447	-0.117
Mof_C 	C 	0.7623	0.3496	0.61688	-0.002
Mof_H 	H 	0.8405	0.3257	0.6089	0.049
Mof_C 	C 	0.6413	0.3084	0.60116	-0.033
Mof_C 	C 	0.5249	0.3459	0.61233	-0.015
Mof_H 	H 	0.4434	0.319	0.6017	0.066
Mof_C 	C 	0.529	0.4229	0.63904	-0.091
Mof_C 	C 	0.651	0.462	0.65624	0.03
Mof_H 	H 	0.6546	0.5125	0.6758	0.04
Mof_C 	C 	0.4032	0.4628	0.65085	0.318
Mof_C 	C 	0.6388	0.2273	0.56948	0.104
Mof_C 	C 	0.6721	0.2294	0.51589	-0.17
Mof_H 	H 	0.6903	0.2809	0.5009	0.095
Mof_C 	C 	0.6797	0.1586	0.4835	0.107
Mof_C 	C 	0.6572	0.0821	0.50787	-0.159
Mof_H 	H 	0.6641	0.033	0.4877	0.089
Mof_C 	C 	0.6249	0.0779	0.5615	0.078
Mof_H 	H 	0.6098	0.0261	0.5768	0.006
Mof_C 	C 	0.6145	0.1496	0.59282	-0.135
Mof_C 	C 	0.5797	0.1393	0.65217	0.339
Mof_C 	C 	0.7109	0.1649	0.42457	-0.059
Mof_C 	C 	0.7641	0.2384	0.40593	0.017
Mof_H 	H 	0.7818	0.2831	0.4308	0.039
Mof_C 	C 	0.7912	0.2465	0.35113	-0.124
Mof_C 	C 	0.765	0.1789	0.31413	0.051
Mof_H 	H 	0.784	0.1831	0.2776	0.025
Mof_C 	C 	0.711	0.10577	0.33121	-0.133
Mof_C 	C 	0.6836	0.0989	0.38597	0.013
Mof_H 	H 	0.6466	0.0497	0.3971	0.034
Mof_C 	C 	0.8398	0.3272	0.33056	0.37
Mof_C 	C 	0.6739	0.0368	0.28881	0.416
Mof_C 	C 	0.7974	0.7585	0.7104	0.636
Mof_C 	C 	0.5968	0.7275	0.6625	-0.43
Mof_H 	H 	0.6336	0.6725	0.6701	0.299
Mof_H 	H 	0.5755	0.7359	0.6223	0.156
Mof_H 	H 	0.5172	0.7329	0.6789	0.139
Mof_C 	C 	0.9141	0.8226	0.7314	-0.935
Mof_H 	H 	0.9312	0.8236	0.772	0.33
Mof_H 	H 	0.8884	0.8774	0.7174	0.311
Mof_H 	H 	0.9934	0.8055	0.7176	0.605
Mof_C 	C 	0.6548	0.8802	0.693	-0.722
Mof_H 	H 	0.5687	0.8908	0.6709	0.094
Mof_H 	H 	0.6521	0.8918	0.7321	0.148
Mof_H 	H 	0.72	0.9155	0.6801	0.186
Mof_O 	O 	0.9054	0.7241	0.7206	-0.252
Mof_N 	N 	0.7751	0.8355	0.7035	-0.089
Mof_C 	C 	0.6681	0.712	0.7178	-0.275
Mof_H 	H 	0.6461	0.6717	0.6879	-0.077
Mof_H 	H 	0.5965	0.7515	0.7164	0.153
Mof_H 	H 	0.6814	0.6838	0.7536	0.125
Mof_C 	C 	0.9148	0.8752	0.7054	0.144
Mof_H 	H 	0.9813	0.832	0.7098	-0.289
Mof_H 	H 	0.9325	0.9133	0.7367	-0.075
Mof_H 	H 	0.9172	0.905	0.6708	-0.033
Mof_H 	H 	0.6734	0.9387	0.69	0.11
Mof_H 	H 	0.6025	0.861	0.6583	0.206
Mof_H 	H 	0.6061	0.8714	0.7235	0.127
Mof_Co	Co	0.331	0.99825	0.83422	1.189
Mof_Co	Co	0.51352	0.11151	0.7455	1.201
Mof_O 	O 	0.5049	0.94422	0.861	-0.443
Mof_O 	O 	0.5951	0.0273	0.80472	-0.47
Mof_O 	O 	0.0936	0.0259	0.81973	-0.331
Mof_O 	O 	0.2063	0.92929	0.87078	-0.396
Mof_O 	O 	0.0134	0.67974	0.83371	-0.37
Mof_O 	O 	0.8536	0.5893	0.81521	-0.385
Mof_O 	O 	0.8866	0.47558	0.19742	-0.435
Mof_O 	O 	0.7932	0.54886	0.25792	-0.471
Mof_O 	O 	0.6386	0.83199	0.21922	-0.443
Mof_O 	O 	0.6467	0.88731	0.13473	-0.44
Mof_O 	O 	0.6658	0.1865	0.7896	-0.331
Mof_N 	N 	0.8078	0.2888	0.8134	-0.11
Mof_C 	C 	0.6013	0.9697	0.83929	0.396
Mof_C 	C 	0.7329	0.9263	0.85553	-0.114
Mof_C 	C 	0.7377	0.8496	0.88312	-0.003
Mof_H 	H 	0.6595	0.8257	0.8911	0.049
Mof_C 	C 	0.8587	0.8084	0.89884	-0.032
Mof_C 	C 	0.9751	0.8459	0.88767	-0.017
Mof_H 	H 	0.0566	0.819	0.8983	0.067
Mof_C 	C 	0.971	0.9229	0.86096	-0.088
Mof_C 	C 	0.849	0.962	0.84376	0.026
Mof_H 	H 	0.8454	0.0125	0.8242	0.042
Mof_C 	C 	0.0968	0.9628	0.84915	0.314
Mof_C 	C 	0.8612	0.7273	0.93052	0.106
Mof_C 	C 	0.8279	0.7294	0.98411	-0.176
Mof_H 	H 	0.8097	0.7809	0.9991	0.096
Mof_C 	C 	0.8203	0.6586	0.0165	0.114
Mof_C 	C 	0.8428	0.5821	0.99213	-0.167
Mof_H 	H 	0.8359	0.533	0.0123	0.093
Mof_C 	C 	0.8751	0.5779	0.9385	0.083
Mof_H 	H 	0.8902	0.5261	0.9232	0.004
Mof_C 	C 	0.8855	0.6496	0.90718	-0.138
Mof_C 	C 	0.9203	0.6393	0.84783	0.339
Mof_C 	C 	0.7891	0.6649	0.07543	-0.062
Mof_C 	C 	0.7359	0.7384	0.09407	0.019
Mof_H 	H 	0.7182	0.7831	0.0692	0.039
Mof_C 	C 	0.7088	0.7465	0.14887	-0.125
Mof_C 	C 	0.735	0.6789	0.18587	0.052
Mof_H 	H 	0.716	0.6831	0.2224	0.025
Mof_C 	C 	0.789	0.60577	0.16879	-0.134
Mof_C 	C 	0.8164	0.5989	0.11403	0.016
Mof_H 	H 	0.8534	0.5497	0.1029	0.034
Mof_C 	C 	0.6602	0.8272	0.16944	0.37
Mof_C 	C 	0.8261	0.5368	0.21119	0.418
Mof_C 	C 	0.7026	0.2585	0.7896	0.636
Mof_C 	C 	0.9032	0.2275	0.8375	-0.429
Mof_H 	H 	0.8664	0.1725	0.8299	0.298
Mof_H 	H 	0.9245	0.2359	0.8777	0.156
Mof_H 	H 	0.9828	0.2329	0.8211	0.138
Mof_C 	C 	0.5859	0.3226	0.7686	-0.935
Mof_H 	H 	0.5688	0.3236	0.728	0.33
Mof_H 	H 	0.6116	0.3774	0.7826	0.311
Mof_H 	H 	0.5066	0.3055	0.7824	0.606
Mof_C 	C 	0.8452	0.3802	0.807	-0.721
Mof_H 	H 	0.9313	0.3908	0.8291	0.094
Mof_H 	H 	0.8479	0.3918	0.7679	0.148
Mof_H 	H 	0.78	0.4155	0.8199	0.186
Mof_O 	O 	0.5946	0.2241	0.7794	-0.252
Mof_N 	N 	0.7249	0.3355	0.7965	-0.089
Mof_C 	C 	0.8319	0.212	0.7822	-0.275
Mof_H 	H 	0.8539	0.1717	0.8121	-0.077
Mof_H 	H 	0.9035	0.2515	0.7836	0.153
Mof_H 	H 	0.8186	0.1838	0.7464	0.125
Mof_C 	C 	0.5852	0.3752	0.7946	0.144
Mof_H 	H 	0.5187	0.332	0.7902	-0.29
Mof_H 	H 	0.5675	0.4133	0.7633	-0.075
Mof_H 	H 	0.5828	0.405	0.8292	-0.033
Mof_H 	H 	0.8266	0.4387	0.81	0.11
Mof_H 	H 	0.8975	0.361	0.8417	0.206
Mof_H 	H 	0.8939	0.3714	0.7765	0.126
Mof_Co	Co	0.831	0.50175	0.33422	1.19
Mof_Co	Co	0.01352	0.38849	0.2455	1.201
Mof_O 	O 	0.0049	0.55578	0.361	-0.444
Mof_O 	O 	0.0951	0.4727	0.30472	-0.473
Mof_O 	O 	0.5936	0.4741	0.31973	-0.335
Mof_O 	O 	0.7063	0.57071	0.37078	-0.397
Mof_O 	O 	0.5134	0.82026	0.33371	-0.371
Mof_O 	O 	0.3536	0.9107	0.31521	-0.384
Mof_O 	O 	0.3866	0.02442	0.69742	-0.434
Mof_O 	O 	0.2932	0.95114	0.75792	-0.471
Mof_O 	O 	0.1386	0.66801	0.71922	-0.443
Mof_O 	O 	0.1467	0.61269	0.63473	-0.441
Mof_O 	O 	0.1658	0.3135	0.2896	-0.331
Mof_N 	N 	0.3078	0.2112	0.3134	-0.11
Mof_C 	C 	0.1013	0.5303	0.33929	0.399
Mof_C 	C 	0.2329	0.5737	0.35553	-0.117
Mof_C 	C 	0.2377	0.6504	0.38312	-0.002
Mof_H 	H 	0.1595	0.6743	0.3911	0.049
Mof_C 	C 	0.3587	0.6916	0.39884	-0.033
Mof_C 	C 	0.4751	0.6541	0.38767	-0.015
Mof_H 	H 	0.5566	0.681	0.3983	0.066
Mof_C 	C 	0.471	0.5771	0.36096	-0.091
Mof_C 	C 	0.349	0.538	0.34376	0.03
Mof_H 	H 	0.3454	0.4875	0.3242	0.04
Mof_C 	C 	0.5968	0.5372	0.34915	0.318
Mof_C 	C 	0.3612	0.7727	0.43052	0.104
Mof_C 	C 	0.3279	0.7706	0.48411	-0.17
Mof_H 	H 	0.3097	0.7191	0.4991	0.095
Mof_C 	C 	0.3203	0.8414	0.5165	0.107
Mof_C 	C 	0.3428	0.9179	0.49213	-0.159
Mof_H 	H 	0.3359	0.967	0.5123	0.089
Mof_C 	C 	0.3751	0.9221	0.4385	0.078
Mof_H 	H 	0.3902	0.9739	0.4232	0.006
Mof_C 	C 	0.3855	0.8504	0.40718	-0.135
Mof_C 	C 	0.4203	0.8607	0.34783	0.339
Mof_C 	C 	0.2891	0.8351	0.57543	-0.059
Mof_C 	C 	0.2359	0.7616	0.59407	0.017
Mof_H 	H 	0.2182	0.7169	0.5692	0.039
Mof_C 	C 	0.2088	0.7535	0.64887	-0.124
Mof_C 	C 	0.235	0.8211	0.68587	0.051
Mof_H 	H 	0.216	0.8169	0.7224	0.025
Mof_C 	C 	0.289	0.89423	0.66879	-0.133
Mof_C 	C 	0.3164	0.9011	0.61403	0.013
Mof_H 	H 	0.3534	0.9503	0.6029	0.034
Mof_C 	C 	0.1602	0.6728	0.66944	0.37
Mof_C 	C 	0.3261	0.9632	0.71119	0.416
Mof_C 	C 	0.2026	0.2415	0.2896	0.636
Mof_C 	C 	0.4032	0.2725	0.3375	-0.43
Mof_H 	H 	0.3664	0.3275	0.3299	0.299
Mof_H 	H 	0.4245	0.2641	0.3777	0.156
Mof_H 	H 	0.4828	0.2671	0.3211	0.139
Mof_C 	C 	0.0859	0.1774	0.2686	-0.935
Mof_H 	H 	0.0688	0.1764	0.228	0.33
Mof_H 	H 	0.1116	0.1226	0.2826	0.311
Mof_H 	H 	0.0066	0.1945	0.2824	0.605
Mof_C 	C 	0.3452	0.1198	0.307	-0.722
Mof_H 	H 	0.4313	0.1092	0.3291	0.094
Mof_H 	H 	0.3479	0.1082	0.2679	0.148
Mof_H 	H 	0.28	0.0845	0.3199	0.186
Mof_O 	O 	0.0946	0.2759	0.2794	-0.252
Mof_N 	N 	0.2249	0.1645	0.2965	-0.089
Mof_C 	C 	0.3319	0.288	0.2822	-0.275
Mof_H 	H 	0.3539	0.3283	0.3121	-0.077
Mof_H 	H 	0.4035	0.2485	0.2836	0.153
Mof_H 	H 	0.3186	0.3162	0.2464	0.125
Mof_C 	C 	0.0852	0.1248	0.2946	0.144
Mof_H 	H 	0.0187	0.168	0.2902	-0.289
Mof_H 	H 	0.0675	0.0867	0.2633	-0.075
Mof_H 	H 	0.0828	0.095	0.3292	-0.033
Mof_H 	H 	0.3266	0.0613	0.31	0.11
Mof_H 	H 	0.3975	0.139	0.3417	0.206
Mof_H 	H 	0.3939	0.1286	0.2765	0.127
Mof_Co	Co	0.669	0.00175	0.16578	1.189
Mof_Co	Co	0.48648	0.88849	0.2545	1.201
Mof_O 	O 	0.4951	0.05578	0.139	-0.443
Mof_O 	O 	0.4049	0.9727	0.19528	-0.47
Mof_O 	O 	0.9064	0.9741	0.18027	-0.331
Mof_O 	O 	0.7937	0.07071	0.12922	-0.396
Mof_O 	O 	0.9866	0.32026	0.16629	-0.37
Mof_O 	O 	0.1464	0.4107	0.18479	-0.385
Mof_O 	O 	0.1134	0.52442	0.80258	-0.435
Mof_O 	O 	0.2068	0.45114	0.74208	-0.471
Mof_O 	O 	0.3614	0.16801	0.78078	-0.443
Mof_O 	O 	0.3533	0.11269	0.86527	-0.44
Mof_O 	O 	0.3342	0.8135	0.2104	-0.331
Mof_N 	N 	0.1922	0.7112	0.1866	-0.11
Mof_C 	C 	0.3987	0.0303	0.16071	0.396
Mof_C 	C 	0.2671	0.0737	0.14447	-0.114
Mof_C 	C 	0.2623	0.1504	0.11688	-0.003
Mof_H 	H 	0.3405	0.1743	0.1089	0.049
Mof_C 	C 	0.1413	0.1916	0.10116	-0.032
Mof_C 	C 	0.0249	0.1541	0.11233	-0.017
Mof_H 	H 	0.9434	0.181	0.1017	0.067
Mof_C 	C 	0.029	0.0771	0.13904	-0.088
Mof_C 	C 	0.151	0.038	0.15624	0.026
Mof_H 	H 	0.1546	0.9875	0.1758	0.042
Mof_C 	C 	0.9032	0.0372	0.15085	0.314
Mof_C 	C 	0.1388	0.2727	0.06948	0.106
Mof_C 	C 	0.1721	0.2706	0.01589	-0.176
Mof_H 	H 	0.1903	0.2191	0.0009	0.096
Mof_C 	C 	0.1797	0.3414	0.9835	0.114
Mof_C 	C 	0.1572	0.4179	0.00787	-0.167
Mof_H 	H 	0.1641	0.467	0.9877	0.093
Mof_C 	C 	0.1249	0.4221	0.0615	0.083
Mof_H 	H 	0.1098	0.4739	0.0768	0.004
Mof_C 	C 	0.1145	0.3504	0.09282	-0.138
Mof_C 	C 	0.0797	0.3607	0.15217	0.339
Mof_C 	C 	0.2109	0.3351	0.92457	-0.062
Mof_C 	C 	0.2641	0.2616	0.90593	0.019
Mof_H 	H 	0.2818	0.2169	0.9308	0.039
Mof_C 	C 	0.2912	0.2535	0.85113	-0.125
Mof_C 	C 	0.265	0.3211	0.81413	0.052
Mof_H 	H 	0.284	0.3169	0.7776	0.025
Mof_C 	C 	0.211	0.39423	0.83121	-0.134
Mof_C 	C 	0.1836	0.4011	0.88597	0.016
Mof_H 	H 	0.1466	0.4503	0.8971	0.034
Mof_C 	C 	0.3398	0.1728	0.83056	0.37
Mof_C 	C 	0.1739	0.4632	0.78881	0.418
Mof_C 	C 	0.2974	0.7415	0.2104	0.636
Mof_C 	C 	0.0968	0.7725	0.1625	-0.429
Mof_H 	H 	0.1336	0.8275	0.1701	0.298
Mof_H 	H 	0.0755	0.7641	0.1223	0.156
Mof_H 	H 	0.0172	0.7671	0.1789	0.138
Mof_C 	C 	0.4141	0.6774	0.2314	-0.935
Mof_H 	H 	0.4312	0.6764	0.272	0.33
Mof_H 	H 	0.3884	0.6226	0.2174	0.311
Mof_H 	H 	0.4934	0.6945	0.2176	0.606
Mof_C 	C 	0.1548	0.6198	0.193	-0.721
Mof_H 	H 	0.0687	0.6092	0.1709	0.094
Mof_H 	H 	0.1521	0.6082	0.2321	0.148
Mof_H 	H 	0.22	0.5845	0.1801	0.186
Mof_O 	O 	0.4054	0.7759	0.2206	-0.252
Mof_N 	N 	0.2751	0.6645	0.2035	-0.089
Mof_C 	C 	0.1681	0.788	0.2178	-0.275
Mof_H 	H 	0.1461	0.8283	0.1879	-0.077
Mof_H 	H 	0.0965	0.7485	0.2164	0.153
Mof_H 	H 	0.1814	0.8162	0.2536	0.125
Mof_C 	C 	0.4148	0.6248	0.2054	0.144
Mof_H 	H 	0.4813	0.668	0.2098	-0.29
Mof_H 	H 	0.4325	0.5867	0.2367	-0.075
Mof_H 	H 	0.4172	0.595	0.1708	-0.033
Mof_H 	H 	0.1734	0.5613	0.19	0.11
Mof_H 	H 	0.1025	0.639	0.1583	0.206
Mof_H 	H 	0.1061	0.6286	0.2235	0.126
_end
