data_functionalizedCrystal
_audit_creation_method	'EQeq! by Chris Wilmer'
_symmetry_space_group_name_H-M	'P1'
_symmetry_Int_Tables_number	1
_symmetry_cell_setting	triclinic
loop_
_symmetry_equiv_pos_as_xyz
  x,y,z
_cell_length_a	22.907
_cell_length_b	15.215
_cell_length_c	25.128
_cell_angle_alpha	90
_cell_angle_beta	102.677
_cell_angle_gamma	90
loop_
_atom_site_label
_atom_site_type_symbol
_atom_site_fract_x
_atom_site_fract_y
_atom_site_fract_z
_atom_site_charge
Mof_Gd	Gd	0.85954	0.23614	0.01439	1.451
Mof_C 	C 	0.7314	0.1944	0.90885	0.428
Mof_C 	C 	0.7446	0.16	0.8566	-0.067
Mof_C 	C 	0.8018	0.1325	0.8545	-0.027
Mof_H 	H 	0.8325	0.1348	0.8856	0.06
Mof_C 	C 	0.8129	0.1016	0.80596	0.082
Mof_C 	C 	0.7694	0.0968	0.75743	0.021
Mof_C 	C 	0.7127	0.1253	0.76148	0.093
Mof_C 	C 	0.6998	0.1554	0.80976	-0.034
Mof_H 	H 	0.6611	0.1726	0.8106	0.093
Mof_C 	C 	0.7835	0.0641	0.70513	-0.012
Mof_C 	C 	0.7868	0.9754	0.69286	0.117
Mof_C 	C 	0.8019	0.9444	0.64588	-0.081
Mof_H 	H 	0.8033	0.8843	0.6396	0.095
Mof_C 	C 	0.8149	0.0033	0.60836	0.005
Mof_C 	C 	0.8119	0.0921	0.61821	-0.089
Mof_H 	H 	0.8204	0.1327	0.5933	0.116
Mof_C 	C 	0.7963	0.1205	0.66558	0.139
Mof_C 	C 	0.8353	0.9699	0.55865	0.318
Mof_C 	C 	0.873	0.3251	0.8931	0.342
Mof_C 	C 	0.9592	0.268	0.8563	-0.078
Mof_H 	H 	0.9696	0.2322	0.8869	0.099
Mof_C 	C 	0.9103	0.3223	0.8501	-0
Mof_C 	C 	0.8955	0.3746	0.8045	-0.082
Mof_H 	H 	0.8621	0.411	0.7993	0.123
Mof_C 	C 	0.9311	0.3724	0.76632	0.124
Mof_C 	C 	0.9809	0.3192	0.7709	0.003
Mof_C 	C 	0.9926	0.2669	0.8169	0.119
Mof_N 	N 	0.87468	0.0738	0.80773	0.009
Mof_N 	N 	0.6624	0.122	0.71396	0.007
Mof_N 	N 	0.7769	0.9092	0.73279	-0.009
Mof_N 	N 	0.796	0.2159	0.67425	-0.041
Mof_N 	N 	0.9138	0.429	0.7195	0.006
Mof_N 	N 	0.0342	0.1914	0.8139	-0
Mof_O 	O 	0.77431	0.1993	0.94925	-0.458
Mof_O 	O 	0.67837	0.2147	0.90859	-0.442
Mof_O 	O 	0.6157	0.1656	0.7172	-0.056
Mof_O 	O 	0.6761	0.1386	0.6683	-0.045
Mof_O 	O 	0.9079	0.0632	0.8493	-0.053
Mof_O 	O 	0.8918	0.0912	0.763	-0.048
Mof_O 	O 	0.7696	0.2585	0.6288	-0.266
Mof_O 	O 	0.8232	0.2407	0.7255	-0.096
Mof_O 	O 	0.74311	0.9285	0.76268	-0.076
Mof_O 	O 	0.80352	0.8389	0.73381	-0.084
Mof_O 	O 	0.81671	0.894	0.54239	-0.395
Mof_O 	O 	0.86862	0.0174	0.53812	-0.244
Mof_O 	O 	0.89297	0.2812	0.93568	-0.431
Mof_O 	O 	0.82703	0.3709	0.88304	-0.256
Mof_O 	O 	0.0624	0.1746	0.8632	-0.015
Mof_O 	O 	0.0457	0.163	0.773	-0.049
Mof_O 	O 	0.9153	0.3844	0.6747	-0.07
Mof_O 	O 	0.8875	0.4879	0.7193	-0.046
Mof_N 	N 	0.0547	0.2219	0.8372	0.001
Mof_O 	O 	0.6142	0.1122	0.7185	-0.036
Mof_O 	O 	0.6651	0.0745	0.6764	-0.064
Mof_O 	O 	0.9158	0.1023	0.8418	-0.049
Mof_O 	O 	0.8817	0.006	0.7796	-0.059
Mof_O 	O 	0.7941	0.2657	0.6384	0.208
Mof_O 	O 	0.796	0.2464	0.7157	0.031
Mof_O 	O 	0.0511	0.1488	0.8557	-0.064
Mof_O 	O 	0.0998	0.2571	0.8283	-0.064
Mof_O 	O 	0.9627	0.4879	0.715	-0.067
Mof_O 	O 	0.8665	0.4589	0.6991	-0.033
Mof_Gd	Gd	0.35954	0.73614	0.01439	1.454
Mof_C 	C 	0.2314	0.6944	0.90885	0.429
Mof_C 	C 	0.2446	0.66	0.8566	-0.067
Mof_C 	C 	0.3018	0.6325	0.8545	-0.027
Mof_H 	H 	0.3325	0.6348	0.8856	0.06
Mof_C 	C 	0.3129	0.6016	0.80596	0.082
Mof_C 	C 	0.2694	0.5968	0.75743	0.021
Mof_C 	C 	0.2127	0.6253	0.76148	0.093
Mof_C 	C 	0.1998	0.6554	0.80976	-0.034
Mof_H 	H 	0.1611	0.6726	0.8106	0.093
Mof_C 	C 	0.2835	0.5641	0.70513	-0.013
Mof_C 	C 	0.2868	0.4754	0.69286	0.117
Mof_C 	C 	0.3019	0.4444	0.64588	-0.081
Mof_H 	H 	0.3033	0.3843	0.6396	0.095
Mof_C 	C 	0.3149	0.5033	0.60836	0.005
Mof_C 	C 	0.3119	0.5921	0.61821	-0.089
Mof_H 	H 	0.3204	0.6327	0.5933	0.116
Mof_C 	C 	0.2963	0.6205	0.66558	0.139
Mof_C 	C 	0.3353	0.4699	0.55865	0.318
Mof_C 	C 	0.373	0.8251	0.8931	0.342
Mof_C 	C 	0.4592	0.768	0.8563	-0.078
Mof_H 	H 	0.4696	0.7322	0.8869	0.098
Mof_C 	C 	0.4103	0.8223	0.8501	-0.001
Mof_C 	C 	0.3955	0.8746	0.8045	-0.082
Mof_H 	H 	0.3621	0.911	0.7993	0.122
Mof_C 	C 	0.4311	0.8724	0.76632	0.124
Mof_C 	C 	0.4809	0.8192	0.7709	0.002
Mof_C 	C 	0.4926	0.7669	0.8169	0.118
Mof_N 	N 	0.37468	0.5738	0.80773	0.009
Mof_N 	N 	0.1624	0.622	0.71396	0.007
Mof_N 	N 	0.2769	0.4092	0.73279	-0.009
Mof_N 	N 	0.296	0.7159	0.67425	-0.041
Mof_N 	N 	0.4138	0.929	0.7195	0.006
Mof_N 	N 	0.5342	0.6914	0.8139	0
Mof_O 	O 	0.27431	0.6993	0.94925	-0.459
Mof_O 	O 	0.17837	0.7147	0.90859	-0.442
Mof_O 	O 	0.1157	0.6656	0.7172	-0.056
Mof_O 	O 	0.1761	0.6386	0.6683	-0.045
Mof_O 	O 	0.4079	0.5632	0.8493	-0.053
Mof_O 	O 	0.3918	0.5912	0.763	-0.048
Mof_O 	O 	0.2696	0.7585	0.6288	-0.266
Mof_O 	O 	0.3232	0.7407	0.7255	-0.096
Mof_O 	O 	0.24311	0.4285	0.76268	-0.076
Mof_O 	O 	0.30352	0.3389	0.73381	-0.084
Mof_O 	O 	0.31671	0.394	0.54239	-0.395
Mof_O 	O 	0.36862	0.5174	0.53812	-0.244
Mof_O 	O 	0.39297	0.7812	0.93568	-0.432
Mof_O 	O 	0.32703	0.8709	0.88304	-0.256
Mof_O 	O 	0.5624	0.6746	0.8632	-0.015
Mof_O 	O 	0.5457	0.663	0.773	-0.049
Mof_O 	O 	0.4153	0.8844	0.6747	-0.07
Mof_O 	O 	0.3875	0.9879	0.7193	-0.047
Mof_N 	N 	0.5547	0.7219	0.8372	0.001
Mof_O 	O 	0.1142	0.6122	0.7185	-0.036
Mof_O 	O 	0.1651	0.5745	0.6764	-0.064
Mof_O 	O 	0.4158	0.6023	0.8418	-0.049
Mof_O 	O 	0.3817	0.506	0.7796	-0.059
Mof_O 	O 	0.2941	0.7657	0.6384	0.208
Mof_O 	O 	0.296	0.7464	0.7157	0.031
Mof_O 	O 	0.5511	0.6488	0.8557	-0.064
Mof_O 	O 	0.5998	0.7571	0.8283	-0.064
Mof_O 	O 	0.4627	0.9879	0.715	-0.067
Mof_O 	O 	0.3665	0.9589	0.6991	-0.033
Mof_Gd	Gd	0.14046	0.23614	0.48561	1.451
Mof_C 	C 	0.2686	0.1944	0.59115	0.428
Mof_C 	C 	0.2554	0.16	0.6434	-0.067
Mof_C 	C 	0.1982	0.1325	0.6455	-0.027
Mof_H 	H 	0.1675	0.1348	0.6144	0.06
Mof_C 	C 	0.1871	0.1016	0.69404	0.082
Mof_C 	C 	0.2306	0.0968	0.74257	0.021
Mof_C 	C 	0.2873	0.1253	0.73852	0.093
Mof_C 	C 	0.3002	0.1554	0.69024	-0.034
Mof_H 	H 	0.3389	0.1726	0.6894	0.093
Mof_C 	C 	0.2165	0.0641	0.79487	-0.012
Mof_C 	C 	0.2132	0.9754	0.80714	0.117
Mof_C 	C 	0.1981	0.9444	0.85412	-0.082
Mof_H 	H 	0.1967	0.8843	0.8604	0.095
Mof_C 	C 	0.1851	0.0033	0.89164	0.007
Mof_C 	C 	0.1881	0.0921	0.88179	-0.09
Mof_H 	H 	0.1796	0.1327	0.9067	0.117
Mof_C 	C 	0.2037	0.1205	0.83442	0.139
Mof_C 	C 	0.1647	0.9699	0.94135	0.316
Mof_C 	C 	0.127	0.3251	0.6069	0.342
Mof_C 	C 	0.0408	0.268	0.6437	-0.078
Mof_H 	H 	0.0304	0.2322	0.6131	0.098
Mof_C 	C 	0.0897	0.3223	0.6499	-0.001
Mof_C 	C 	0.1045	0.3746	0.6955	-0.082
Mof_H 	H 	0.1379	0.411	0.7007	0.123
Mof_C 	C 	0.0689	0.3724	0.73368	0.124
Mof_C 	C 	0.0191	0.3192	0.7291	0.002
Mof_C 	C 	0.0074	0.2669	0.6831	0.118
Mof_N 	N 	0.12532	0.0738	0.69227	0.009
Mof_N 	N 	0.3376	0.122	0.78604	0.007
Mof_N 	N 	0.2231	0.9092	0.76721	-0.009
Mof_N 	N 	0.204	0.2159	0.82575	-0.041
Mof_N 	N 	0.0862	0.429	0.7805	0.006
Mof_N 	N 	0.9658	0.1914	0.6861	0
Mof_O 	O 	0.22569	0.1993	0.55075	-0.459
Mof_O 	O 	0.32163	0.2147	0.59141	-0.442
Mof_O 	O 	0.3843	0.1656	0.7828	-0.056
Mof_O 	O 	0.3239	0.1386	0.8317	-0.044
Mof_O 	O 	0.0921	0.0632	0.6507	-0.053
Mof_O 	O 	0.1082	0.0912	0.737	-0.048
Mof_O 	O 	0.2304	0.2585	0.8712	-0.265
Mof_O 	O 	0.1768	0.2407	0.7745	-0.096
Mof_O 	O 	0.25689	0.9285	0.73732	-0.076
Mof_O 	O 	0.19648	0.8389	0.76619	-0.084
Mof_O 	O 	0.18329	0.894	0.95761	-0.394
Mof_O 	O 	0.13138	0.0174	0.96188	-0.243
Mof_O 	O 	0.10703	0.2812	0.56432	-0.432
Mof_O 	O 	0.17297	0.3709	0.61696	-0.256
Mof_O 	O 	0.9376	0.1746	0.6368	-0.015
Mof_O 	O 	0.9543	0.163	0.727	-0.049
Mof_O 	O 	0.0847	0.3844	0.8253	-0.07
Mof_O 	O 	0.1125	0.4879	0.7807	-0.046
Mof_N 	N 	0.9453	0.2219	0.6628	0.001
Mof_O 	O 	0.3858	0.1122	0.7815	-0.036
Mof_O 	O 	0.3349	0.0745	0.8236	-0.064
Mof_O 	O 	0.0842	0.1023	0.6582	-0.049
Mof_O 	O 	0.1183	0.006	0.7204	-0.059
Mof_O 	O 	0.2059	0.2657	0.8616	0.207
Mof_O 	O 	0.204	0.2464	0.7843	0.031
Mof_O 	O 	0.9489	0.1488	0.6443	-0.064
Mof_O 	O 	0.9002	0.2571	0.6717	-0.064
Mof_O 	O 	0.0373	0.4879	0.785	-0.067
Mof_O 	O 	0.1335	0.4589	0.8009	-0.033
Mof_Gd	Gd	0.64046	0.73614	0.48561	1.451
Mof_C 	C 	0.7686	0.6944	0.59115	0.428
Mof_C 	C 	0.7554	0.66	0.6434	-0.067
Mof_C 	C 	0.6982	0.6325	0.6455	-0.027
Mof_H 	H 	0.6675	0.6348	0.6144	0.06
Mof_C 	C 	0.6871	0.6016	0.69404	0.082
Mof_C 	C 	0.7306	0.5968	0.74257	0.021
Mof_C 	C 	0.7873	0.6253	0.73852	0.093
Mof_C 	C 	0.8002	0.6554	0.69024	-0.034
Mof_H 	H 	0.8389	0.6726	0.6894	0.093
Mof_C 	C 	0.7165	0.5641	0.79487	-0.013
Mof_C 	C 	0.7132	0.4754	0.80714	0.117
Mof_C 	C 	0.6981	0.4444	0.85412	-0.081
Mof_H 	H 	0.6967	0.3843	0.8604	0.095
Mof_C 	C 	0.6851	0.5033	0.89164	0.006
Mof_C 	C 	0.6881	0.5921	0.88179	-0.089
Mof_H 	H 	0.6796	0.6327	0.9067	0.116
Mof_C 	C 	0.7037	0.6205	0.83442	0.139
Mof_C 	C 	0.6647	0.4699	0.94135	0.318
Mof_C 	C 	0.627	0.8251	0.6069	0.342
Mof_C 	C 	0.5408	0.768	0.6437	-0.078
Mof_H 	H 	0.5304	0.7322	0.6131	0.098
Mof_C 	C 	0.5897	0.8223	0.6499	-0.001
Mof_C 	C 	0.6045	0.8746	0.6955	-0.082
Mof_H 	H 	0.6379	0.911	0.7007	0.122
Mof_C 	C 	0.5689	0.8724	0.73368	0.124
Mof_C 	C 	0.5191	0.8192	0.7291	0.002
Mof_C 	C 	0.5074	0.7669	0.6831	0.118
Mof_N 	N 	0.62532	0.5738	0.69227	0.009
Mof_N 	N 	0.8376	0.622	0.78604	0.007
Mof_N 	N 	0.7231	0.4092	0.76721	-0.009
Mof_N 	N 	0.704	0.7159	0.82575	-0.041
Mof_N 	N 	0.5862	0.929	0.7805	0.006
Mof_N 	N 	0.4658	0.6914	0.6861	0
Mof_O 	O 	0.72569	0.6993	0.55075	-0.459
Mof_O 	O 	0.82163	0.7147	0.59141	-0.442
Mof_O 	O 	0.8843	0.6656	0.7828	-0.056
Mof_O 	O 	0.8239	0.6386	0.8317	-0.044
Mof_O 	O 	0.5921	0.5632	0.6507	-0.053
Mof_O 	O 	0.6082	0.5912	0.737	-0.048
Mof_O 	O 	0.7304	0.7585	0.8712	-0.264
Mof_O 	O 	0.6768	0.7407	0.7745	-0.096
Mof_O 	O 	0.75689	0.4285	0.73732	-0.076
Mof_O 	O 	0.69648	0.3389	0.76619	-0.084
Mof_O 	O 	0.68329	0.394	0.95761	-0.395
Mof_O 	O 	0.63138	0.5174	0.96188	-0.244
Mof_O 	O 	0.60703	0.7812	0.56432	-0.432
Mof_O 	O 	0.67297	0.8709	0.61696	-0.256
Mof_O 	O 	0.4376	0.6746	0.6368	-0.015
Mof_O 	O 	0.4543	0.663	0.727	-0.049
Mof_O 	O 	0.5847	0.8844	0.8253	-0.07
Mof_O 	O 	0.6125	0.9879	0.7807	-0.047
Mof_N 	N 	0.4453	0.7219	0.6628	0.001
Mof_O 	O 	0.8858	0.6122	0.7815	-0.036
Mof_O 	O 	0.8349	0.5745	0.8236	-0.064
Mof_O 	O 	0.5842	0.6023	0.6582	-0.049
Mof_O 	O 	0.6183	0.506	0.7204	-0.059
Mof_O 	O 	0.7059	0.7657	0.8616	0.206
Mof_O 	O 	0.704	0.7464	0.7843	0.031
Mof_O 	O 	0.4489	0.6488	0.6443	-0.064
Mof_O 	O 	0.4002	0.7571	0.6717	-0.064
Mof_O 	O 	0.5373	0.9879	0.785	-0.067
Mof_O 	O 	0.6335	0.9589	0.8009	-0.033
Mof_Gd	Gd	0.14046	0.76386	0.98561	1.451
Mof_C 	C 	0.2686	0.8056	0.09115	0.428
Mof_C 	C 	0.2554	0.84	0.1434	-0.067
Mof_C 	C 	0.1982	0.8675	0.1455	-0.027
Mof_H 	H 	0.1675	0.8652	0.1144	0.06
Mof_C 	C 	0.1871	0.8984	0.19404	0.082
Mof_C 	C 	0.2306	0.9032	0.24257	0.021
Mof_C 	C 	0.2873	0.8747	0.23852	0.093
Mof_C 	C 	0.3002	0.8446	0.19024	-0.034
Mof_H 	H 	0.3389	0.8274	0.1894	0.093
Mof_C 	C 	0.2165	0.9359	0.29487	-0.012
Mof_C 	C 	0.2132	0.0246	0.30714	0.117
Mof_C 	C 	0.1981	0.0556	0.35412	-0.081
Mof_H 	H 	0.1967	0.1157	0.3604	0.095
Mof_C 	C 	0.1851	0.9967	0.39164	0.005
Mof_C 	C 	0.1881	0.9079	0.38179	-0.089
Mof_H 	H 	0.1796	0.8673	0.4067	0.116
Mof_C 	C 	0.2037	0.8795	0.33442	0.139
Mof_C 	C 	0.1647	0.0301	0.44135	0.318
Mof_C 	C 	0.127	0.6749	0.1069	0.342
Mof_C 	C 	0.0408	0.732	0.1437	-0.078
Mof_H 	H 	0.0304	0.7678	0.1131	0.099
Mof_C 	C 	0.0897	0.6777	0.1499	-0
Mof_C 	C 	0.1045	0.6254	0.1955	-0.082
Mof_H 	H 	0.1379	0.589	0.2007	0.123
Mof_C 	C 	0.0689	0.6276	0.23368	0.124
Mof_C 	C 	0.0191	0.6808	0.2291	0.003
Mof_C 	C 	0.0074	0.7331	0.1831	0.119
Mof_N 	N 	0.12532	0.9262	0.19227	0.009
Mof_N 	N 	0.3376	0.878	0.28604	0.007
Mof_N 	N 	0.2231	0.0908	0.26721	-0.009
Mof_N 	N 	0.204	0.7841	0.32575	-0.041
Mof_N 	N 	0.0862	0.571	0.2805	0.006
Mof_N 	N 	0.9658	0.8086	0.1861	-0
Mof_O 	O 	0.22569	0.8007	0.05075	-0.458
Mof_O 	O 	0.32163	0.7853	0.09141	-0.442
Mof_O 	O 	0.3843	0.8344	0.2828	-0.056
Mof_O 	O 	0.3239	0.8614	0.3317	-0.045
Mof_O 	O 	0.0921	0.9368	0.1507	-0.053
Mof_O 	O 	0.1082	0.9088	0.237	-0.048
Mof_O 	O 	0.2304	0.7415	0.3712	-0.266
Mof_O 	O 	0.1768	0.7593	0.2745	-0.096
Mof_O 	O 	0.25689	0.0715	0.23732	-0.076
Mof_O 	O 	0.19648	0.1611	0.26619	-0.084
Mof_O 	O 	0.18329	0.106	0.45761	-0.395
Mof_O 	O 	0.13138	0.9826	0.46188	-0.244
Mof_O 	O 	0.10703	0.7188	0.06432	-0.431
Mof_O 	O 	0.17297	0.6291	0.11696	-0.256
Mof_O 	O 	0.9376	0.8254	0.1368	-0.015
Mof_O 	O 	0.9543	0.837	0.227	-0.049
Mof_O 	O 	0.0847	0.6156	0.3253	-0.07
Mof_O 	O 	0.1125	0.5121	0.2807	-0.046
Mof_N 	N 	0.9453	0.7781	0.1628	0.001
Mof_O 	O 	0.3858	0.8878	0.2815	-0.036
Mof_O 	O 	0.3349	0.9255	0.3236	-0.064
Mof_O 	O 	0.0842	0.8977	0.1582	-0.049
Mof_O 	O 	0.1183	0.994	0.2204	-0.059
Mof_O 	O 	0.2059	0.7343	0.3616	0.208
Mof_O 	O 	0.204	0.7536	0.2843	0.031
Mof_O 	O 	0.9489	0.8512	0.1443	-0.064
Mof_O 	O 	0.9002	0.7429	0.1717	-0.064
Mof_O 	O 	0.0373	0.5121	0.285	-0.067
Mof_O 	O 	0.1335	0.5411	0.3009	-0.033
Mof_Gd	Gd	0.64046	0.26386	0.98561	1.454
Mof_C 	C 	0.7686	0.3056	0.09115	0.429
Mof_C 	C 	0.7554	0.34	0.1434	-0.067
Mof_C 	C 	0.6982	0.3675	0.1455	-0.027
Mof_H 	H 	0.6675	0.3652	0.1144	0.06
Mof_C 	C 	0.6871	0.3984	0.19404	0.082
Mof_C 	C 	0.7306	0.4032	0.24257	0.021
Mof_C 	C 	0.7873	0.3747	0.23852	0.093
Mof_C 	C 	0.8002	0.3446	0.19024	-0.034
Mof_H 	H 	0.8389	0.3274	0.1894	0.093
Mof_C 	C 	0.7165	0.4359	0.29487	-0.013
Mof_C 	C 	0.7132	0.5246	0.30714	0.117
Mof_C 	C 	0.6981	0.5556	0.35412	-0.081
Mof_H 	H 	0.6967	0.6157	0.3604	0.095
Mof_C 	C 	0.6851	0.4967	0.39164	0.005
Mof_C 	C 	0.6881	0.4079	0.38179	-0.089
Mof_H 	H 	0.6796	0.3673	0.4067	0.116
Mof_C 	C 	0.7037	0.3795	0.33442	0.139
Mof_C 	C 	0.6647	0.5301	0.44135	0.318
Mof_C 	C 	0.627	0.1749	0.1069	0.342
Mof_C 	C 	0.5408	0.232	0.1437	-0.078
Mof_H 	H 	0.5304	0.2678	0.1131	0.098
Mof_C 	C 	0.5897	0.1777	0.1499	-0.001
Mof_C 	C 	0.6045	0.1254	0.1955	-0.082
Mof_H 	H 	0.6379	0.089	0.2007	0.122
Mof_C 	C 	0.5689	0.1276	0.23368	0.124
Mof_C 	C 	0.5191	0.1808	0.2291	0.002
Mof_C 	C 	0.5074	0.2331	0.1831	0.118
Mof_N 	N 	0.62532	0.4262	0.19227	0.009
Mof_N 	N 	0.8376	0.378	0.28604	0.007
Mof_N 	N 	0.7231	0.5908	0.26721	-0.009
Mof_N 	N 	0.704	0.2841	0.32575	-0.041
Mof_N 	N 	0.5862	0.071	0.2805	0.006
Mof_N 	N 	0.4658	0.3086	0.1861	0
Mof_O 	O 	0.72569	0.3007	0.05075	-0.459
Mof_O 	O 	0.82163	0.2853	0.09141	-0.442
Mof_O 	O 	0.8843	0.3344	0.2828	-0.056
Mof_O 	O 	0.8239	0.3614	0.3317	-0.045
Mof_O 	O 	0.5921	0.4368	0.1507	-0.053
Mof_O 	O 	0.6082	0.4088	0.237	-0.048
Mof_O 	O 	0.7304	0.2415	0.3712	-0.266
Mof_O 	O 	0.6768	0.2593	0.2745	-0.096
Mof_O 	O 	0.75689	0.5715	0.23732	-0.076
Mof_O 	O 	0.69648	0.6611	0.26619	-0.084
Mof_O 	O 	0.68329	0.606	0.45761	-0.395
Mof_O 	O 	0.63138	0.4826	0.46188	-0.244
Mof_O 	O 	0.60703	0.2188	0.06432	-0.432
Mof_O 	O 	0.67297	0.1291	0.11696	-0.256
Mof_O 	O 	0.4376	0.3254	0.1368	-0.015
Mof_O 	O 	0.4543	0.337	0.227	-0.049
Mof_O 	O 	0.5847	0.1156	0.3253	-0.07
Mof_O 	O 	0.6125	0.0121	0.2807	-0.047
Mof_N 	N 	0.4453	0.2781	0.1628	0.001
Mof_O 	O 	0.8858	0.3878	0.2815	-0.036
Mof_O 	O 	0.8349	0.4255	0.3236	-0.064
Mof_O 	O 	0.5842	0.3977	0.1582	-0.049
Mof_O 	O 	0.6183	0.494	0.2204	-0.059
Mof_O 	O 	0.7059	0.2343	0.3616	0.208
Mof_O 	O 	0.704	0.2536	0.2843	0.031
Mof_O 	O 	0.4489	0.3512	0.1443	-0.064
Mof_O 	O 	0.4002	0.2429	0.1717	-0.064
Mof_O 	O 	0.5373	0.0121	0.285	-0.067
Mof_O 	O 	0.6335	0.0411	0.3009	-0.033
Mof_Gd	Gd	0.85954	0.76386	0.51439	1.451
Mof_C 	C 	0.7314	0.8056	0.40885	0.428
Mof_C 	C 	0.7446	0.84	0.3566	-0.067
Mof_C 	C 	0.8018	0.8675	0.3545	-0.027
Mof_H 	H 	0.8325	0.8652	0.3856	0.06
Mof_C 	C 	0.8129	0.8984	0.30596	0.082
Mof_C 	C 	0.7694	0.9032	0.25743	0.021
Mof_C 	C 	0.7127	0.8747	0.26148	0.093
Mof_C 	C 	0.6998	0.8446	0.30976	-0.034
Mof_H 	H 	0.6611	0.8274	0.3106	0.093
Mof_C 	C 	0.7835	0.9359	0.20513	-0.012
Mof_C 	C 	0.7868	0.0246	0.19286	0.117
Mof_C 	C 	0.8019	0.0556	0.14588	-0.082
Mof_H 	H 	0.8033	0.1157	0.1396	0.095
Mof_C 	C 	0.8149	0.9967	0.10836	0.007
Mof_C 	C 	0.8119	0.9079	0.11821	-0.09
Mof_H 	H 	0.8204	0.8673	0.0933	0.117
Mof_C 	C 	0.7963	0.8795	0.16558	0.139
Mof_C 	C 	0.8353	0.0301	0.05865	0.316
Mof_C 	C 	0.873	0.6749	0.3931	0.342
Mof_C 	C 	0.9592	0.732	0.3563	-0.078
Mof_H 	H 	0.9696	0.7678	0.3869	0.098
Mof_C 	C 	0.9103	0.6777	0.3501	-0.001
Mof_C 	C 	0.8955	0.6254	0.3045	-0.082
Mof_H 	H 	0.8621	0.589	0.2993	0.123
Mof_C 	C 	0.9311	0.6276	0.26632	0.124
Mof_C 	C 	0.9809	0.6808	0.2709	0.002
Mof_C 	C 	0.9926	0.7331	0.3169	0.118
Mof_N 	N 	0.87468	0.9262	0.30773	0.009
Mof_N 	N 	0.6624	0.878	0.21396	0.007
Mof_N 	N 	0.7769	0.0908	0.23279	-0.009
Mof_N 	N 	0.796	0.7841	0.17425	-0.041
Mof_N 	N 	0.9138	0.571	0.2195	0.006
Mof_N 	N 	0.0342	0.8086	0.3139	0
Mof_O 	O 	0.77431	0.8007	0.44925	-0.459
Mof_O 	O 	0.67837	0.7853	0.40859	-0.442
Mof_O 	O 	0.6157	0.8344	0.2172	-0.056
Mof_O 	O 	0.6761	0.8614	0.1683	-0.044
Mof_O 	O 	0.9079	0.9368	0.3493	-0.053
Mof_O 	O 	0.8918	0.9088	0.263	-0.048
Mof_O 	O 	0.7696	0.7415	0.1288	-0.265
Mof_O 	O 	0.8232	0.7593	0.2255	-0.096
Mof_O 	O 	0.74311	0.0715	0.26268	-0.076
Mof_O 	O 	0.80352	0.1611	0.23381	-0.084
Mof_O 	O 	0.81671	0.106	0.04239	-0.394
Mof_O 	O 	0.86862	0.9826	0.03812	-0.243
Mof_O 	O 	0.89297	0.7188	0.43568	-0.432
Mof_O 	O 	0.82703	0.6291	0.38304	-0.256
Mof_O 	O 	0.0624	0.8254	0.3632	-0.015
Mof_O 	O 	0.0457	0.837	0.273	-0.049
Mof_O 	O 	0.9153	0.6156	0.1747	-0.07
Mof_O 	O 	0.8875	0.5121	0.2193	-0.046
Mof_N 	N 	0.0547	0.7781	0.3372	0.001
Mof_O 	O 	0.6142	0.8878	0.2185	-0.036
Mof_O 	O 	0.6651	0.9255	0.1764	-0.064
Mof_O 	O 	0.9158	0.8977	0.3418	-0.049
Mof_O 	O 	0.8817	0.994	0.2796	-0.059
Mof_O 	O 	0.7941	0.7343	0.1384	0.207
Mof_O 	O 	0.796	0.7536	0.2157	0.031
Mof_O 	O 	0.0511	0.8512	0.3557	-0.064
Mof_O 	O 	0.0998	0.7429	0.3283	-0.064
Mof_O 	O 	0.9627	0.5121	0.215	-0.067
Mof_O 	O 	0.8665	0.5411	0.1991	-0.033
Mof_Gd	Gd	0.35954	0.26386	0.51439	1.451
Mof_C 	C 	0.2314	0.3056	0.40885	0.428
Mof_C 	C 	0.2446	0.34	0.3566	-0.067
Mof_C 	C 	0.3018	0.3675	0.3545	-0.027
Mof_H 	H 	0.3325	0.3652	0.3856	0.06
Mof_C 	C 	0.3129	0.3984	0.30596	0.082
Mof_C 	C 	0.2694	0.4032	0.25743	0.021
Mof_C 	C 	0.2127	0.3747	0.26148	0.093
Mof_C 	C 	0.1998	0.3446	0.30976	-0.034
Mof_H 	H 	0.1611	0.3274	0.3106	0.093
Mof_C 	C 	0.2835	0.4359	0.20513	-0.013
Mof_C 	C 	0.2868	0.5246	0.19286	0.117
Mof_C 	C 	0.3019	0.5556	0.14588	-0.081
Mof_H 	H 	0.3033	0.6157	0.1396	0.095
Mof_C 	C 	0.3149	0.4967	0.10836	0.006
Mof_C 	C 	0.3119	0.4079	0.11821	-0.089
Mof_H 	H 	0.3204	0.3673	0.0933	0.116
Mof_C 	C 	0.2963	0.3795	0.16558	0.139
Mof_C 	C 	0.3353	0.5301	0.05865	0.318
Mof_C 	C 	0.373	0.1749	0.3931	0.342
Mof_C 	C 	0.4592	0.232	0.3563	-0.078
Mof_H 	H 	0.4696	0.2678	0.3869	0.098
Mof_C 	C 	0.4103	0.1777	0.3501	-0.001
Mof_C 	C 	0.3955	0.1254	0.3045	-0.082
Mof_H 	H 	0.3621	0.089	0.2993	0.122
Mof_C 	C 	0.4311	0.1276	0.26632	0.124
Mof_C 	C 	0.4809	0.1808	0.2709	0.002
Mof_C 	C 	0.4926	0.2331	0.3169	0.118
Mof_N 	N 	0.37468	0.4262	0.30773	0.009
Mof_N 	N 	0.1624	0.378	0.21396	0.007
Mof_N 	N 	0.2769	0.5908	0.23279	-0.009
Mof_N 	N 	0.296	0.2841	0.17425	-0.041
Mof_N 	N 	0.4138	0.071	0.2195	0.006
Mof_N 	N 	0.5342	0.3086	0.3139	0
Mof_O 	O 	0.27431	0.3007	0.44925	-0.459
Mof_O 	O 	0.17837	0.2853	0.40859	-0.442
Mof_O 	O 	0.1157	0.3344	0.2172	-0.056
Mof_O 	O 	0.1761	0.3614	0.1683	-0.044
Mof_O 	O 	0.4079	0.4368	0.3493	-0.053
Mof_O 	O 	0.3918	0.4088	0.263	-0.048
Mof_O 	O 	0.2696	0.2415	0.1288	-0.264
Mof_O 	O 	0.3232	0.2593	0.2255	-0.096
Mof_O 	O 	0.24311	0.5715	0.26268	-0.076
Mof_O 	O 	0.30352	0.6611	0.23381	-0.084
Mof_O 	O 	0.31671	0.606	0.04239	-0.395
Mof_O 	O 	0.36862	0.4826	0.03812	-0.244
Mof_O 	O 	0.39297	0.2188	0.43568	-0.432
Mof_O 	O 	0.32703	0.1291	0.38304	-0.256
Mof_O 	O 	0.5624	0.3254	0.3632	-0.015
Mof_O 	O 	0.5457	0.337	0.273	-0.049
Mof_O 	O 	0.4153	0.1156	0.1747	-0.07
Mof_O 	O 	0.3875	0.0121	0.2193	-0.047
Mof_N 	N 	0.5547	0.2781	0.3372	0.001
Mof_O 	O 	0.1142	0.3878	0.2185	-0.036
Mof_O 	O 	0.1651	0.4255	0.1764	-0.064
Mof_O 	O 	0.4158	0.3977	0.3418	-0.049
Mof_O 	O 	0.3817	0.494	0.2796	-0.059
Mof_O 	O 	0.2941	0.2343	0.1384	0.206
Mof_O 	O 	0.296	0.2536	0.2157	0.031
Mof_O 	O 	0.5511	0.3512	0.3557	-0.064
Mof_O 	O 	0.5998	0.2429	0.3283	-0.064
Mof_O 	O 	0.4627	0.0121	0.215	-0.067
Mof_O 	O 	0.3665	0.0411	0.1991	-0.033
_end
