data_functionalizedCrystal
_audit_creation_method	'EQeq! by Chris Wilmer'
_symmetry_space_group_name_H-M	'P1'
_symmetry_Int_Tables_number	1
_symmetry_cell_setting	triclinic
loop_
_symmetry_equiv_pos_as_xyz
  x,y,z
_cell_length_a	13.85
_cell_length_b	12.77
_cell_length_c	6.939
_cell_angle_alpha	90
_cell_angle_beta	91.45
_cell_angle_gamma	90
loop_
_atom_site_label
_atom_site_type_symbol
_atom_site_fract_x
_atom_site_fract_y
_atom_site_fract_z
_atom_site_charge
Mof_C 	C 	0.9472	0.6592	0.4624	0.132
Mof_H 	H 	0.9456	0.655	0.3228	-0.027
Mof_H 	H 	0.9139	0.5984	0.512	0.01
Mof_C 	C 	0.8032	0.771	0.4224	-0.137
Mof_H 	H 	0.8145	0.7837	0.287	0.027
Mof_H 	H 	0.7727	0.833	0.4739	0.039
Mof_C 	C 	0.7351	0.6802	0.439	0.121
Mof_C 	C 	0.6974	0.6287	0.2816	-0.194
Mof_H 	H 	0.7127	0.6513	0.1586	0.047
Mof_C 	C 	0.6362	0.5427	0.3026	0.095
Mof_H 	H 	0.6143	0.5081	0.1918	-0.052
Mof_C 	C 	0.6452	0.5547	0.6234	0.096
Mof_H 	H 	0.6309	0.5286	0.7446	0.01
Mof_C 	C 	0.7061	0.6428	0.6134	-0.179
Mof_H 	H 	0.7269	0.6759	0.7264	0.101
Mof_N 	N 	0.8974	0.7555	0.5237	-0.251
Mof_H 	H 	0.8851	0.7479	0.6512	0.101
Mof_N 	N 	0.6074	0.5074	0.472	-0.258
Mof_O 	O 	0.9775	0.8833	0.1898	-0.484
Mof_C 	C 	0.4472	0.1592	0.4624	-0.066
Mof_H 	H 	0.4456	0.155	0.3228	-0.019
Mof_H 	H 	0.4139	0.0984	0.512	0.043
Mof_C 	C 	0.3032	0.271	0.4224	-0.129
Mof_H 	H 	0.3145	0.2837	0.287	0.011
Mof_H 	H 	0.2727	0.333	0.4739	0.035
Mof_C 	C 	0.2351	0.1802	0.439	0.103
Mof_C 	C 	0.1974	0.1287	0.2816	-0.186
Mof_H 	H 	0.2127	0.1513	0.1586	0.031
Mof_C 	C 	0.1362	0.0427	0.3026	0.073
Mof_H 	H 	0.1143	0.0081	0.1918	-0.053
Mof_C 	C 	0.1452	0.0547	0.6234	0.078
Mof_H 	H 	0.1309	0.0286	0.7446	0.013
Mof_C 	C 	0.2061	0.1428	0.6134	-0.172
Mof_H 	H 	0.2269	0.1759	0.7264	0.087
Mof_N 	N 	0.3974	0.2555	0.5237	-0.248
Mof_H 	H 	0.3851	0.2479	0.6512	0.061
Mof_N 	N 	0.1074	0.0074	0.472	-0.258
Mof_O 	O 	0.4775	0.3833	0.1898	-0.662
Mof_C 	C 	0.0528	0.6592	0.5376	-0.309
Mof_H 	H 	0.0544	0.655	0.6772	0.066
Mof_H 	H 	0.0861	0.5984	0.488	0.079
Mof_C 	C 	0.1968	0.771	0.5776	-0.18
Mof_H 	H 	0.1855	0.7837	0.713	0.063
Mof_H 	H 	0.2273	0.833	0.5261	0.045
Mof_C 	C 	0.2649	0.6802	0.561	0.145
Mof_C 	C 	0.3026	0.6287	0.7184	-0.204
Mof_H 	H 	0.2873	0.6513	0.8414	0.109
Mof_C 	C 	0.3638	0.5427	0.6974	0.106
Mof_H 	H 	0.3857	0.5081	0.8082	-0.001
Mof_C 	C 	0.3548	0.5547	0.3766	0.093
Mof_H 	H 	0.3691	0.5286	0.2554	-0.044
Mof_C 	C 	0.2939	0.6428	0.3866	-0.204
Mof_H 	H 	0.2731	0.6759	0.2736	0.046
Mof_N 	N 	0.1026	0.7555	0.4763	-0.217
Mof_H 	H 	0.1149	0.7479	0.3488	0.011
Mof_N 	N 	0.3926	0.5074	0.528	-0.259
Mof_O 	O 	0.0225	0.8833	0.8102	-0.561
Mof_C 	C 	0.5528	0.1592	0.5376	-0.113
Mof_H 	H 	0.5544	0.155	0.6772	0.031
Mof_H 	H 	0.5861	0.0984	0.488	0.051
Mof_C 	C 	0.6968	0.271	0.5776	-0.183
Mof_H 	H 	0.6855	0.2837	0.713	0.071
Mof_H 	H 	0.7273	0.333	0.5261	0.069
Mof_C 	C 	0.7649	0.1802	0.561	0.154
Mof_C 	C 	0.8026	0.1287	0.7184	-0.184
Mof_H 	H 	0.7873	0.1513	0.8414	0.118
Mof_C 	C 	0.8638	0.0427	0.6974	0.118
Mof_H 	H 	0.8857	0.0081	0.8082	0.047
Mof_C 	C 	0.8548	0.0547	0.3766	0.108
Mof_H 	H 	0.8691	0.0286	0.2554	-0.014
Mof_C 	C 	0.7939	0.1428	0.3866	-0.186
Mof_H 	H 	0.7731	0.1759	0.2736	0.057
Mof_N 	N 	0.6026	0.2555	0.4763	-0.228
Mof_H 	H 	0.6149	0.2479	0.3488	0.028
Mof_N 	N 	0.8926	0.0074	0.528	-0.216
Mof_O 	O 	0.5225	0.3833	0.8102	-0.569
Mof_Zn	Zn	7.23939e-19	0.88497	0.5	1.139
Mof_Zn	Zn	0.5	0.38497	0.5	1.194
Mof_Cr	Cr	5.14389e-33	0.80964	-0	0.697
Mof_Cr	Cr	0.5	0.30964	-0	1.088
_end
