data_functionalizedCrystal
_audit_creation_method	'EQeq! by Chris Wilmer'
_symmetry_space_group_name_H-M	'P1'
_symmetry_Int_Tables_number	1
_symmetry_cell_setting	triclinic
loop_
_symmetry_equiv_pos_as_xyz
  x,y,z
_cell_length_a	13.658
_cell_length_b	48.516
_cell_length_c	20.497
_cell_angle_alpha	90
_cell_angle_beta	99.784
_cell_angle_gamma	90
loop_
_atom_site_label
_atom_site_type_symbol
_atom_site_fract_x
_atom_site_fract_y
_atom_site_fract_z
_atom_site_charge
Mof_Co	Co	0.1784	0.31037	0.39299	1.127
Mof_Co	Co	0.78486	0.60968	0.3193	1.146
Mof_O 	O 	0.9408	0.62623	0.3048	-0.504
Mof_O 	O 	0.9837	0.34792	0.3154	-0.413
Mof_O 	O 	0.8507	0.63961	0.3773	-0.455
Mof_O 	O 	0.4691	0.78617	0.3144	-0.447
Mof_O 	O 	0.9612	0.56258	0.3072	-0.423
Mof_O 	O 	0.7388	0.614	0.2248	-0.508
Mof_O 	O 	0.2398	0.7068	0.4818	-0.372
Mof_O 	O 	0.8279	0.57368	0.3537	-0.494
Mof_O 	O 	0.0883	0.34163	0.4095	-0.453
Mof_O 	O 	0.5836	0.7796	0.4043	-0.498
Mof_O 	O 	0.9008	0.45492	0.4706	-0.302
Mof_C 	C 	0.0116	0.659	0.3852	-0.332
Mof_O 	O 	0.5969	0.6314	0.9232	-0.395
Mof_C 	C 	0.7377	0.6141	0.1119	-0.428
Mof_C 	C 	0.8997	0.5311	0.3764	-0.213
Mof_C 	C 	0.4295	0.7574	0.3981	-0.289
Mof_C 	C 	0.0207	0.3547	0.3715	0.383
Mof_C 	C 	0.0926	0.6652	0.3542	0.292
Mof_H 	H 	0.0945	0.658	0.3124	-0.066
Mof_C 	C 	0.9876	0.3816	0.3989	-0.15
Mof_C 	C 	0.1636	0.6924	0.4455	0.428
Mof_C 	C 	0.3328	0.7554	0.3706	0.262
Mof_H 	H 	0.3101	0.7655	0.3326	-0.05
Mof_C 	C 	0.2655	0.739	0.3963	-0.39
Mof_H 	H 	0.1987	0.7387	0.3771	0.168
Mof_C 	C 	0.9027	0.4795	0.4362	0.313
Mof_C 	C 	0.168	0.6813	0.3831	-0.425
Mof_H 	H 	0.2218	0.6849	0.362	0.179
Mof_C 	C 	0.9156	0.3968	0.3593	0.146
Mof_H 	H 	0.8859	0.3903	0.3179	-0.001
Mof_C 	C 	0.0149	0.6707	0.4485	0.28
Mof_H 	H 	0.9634	0.6668	0.4715	-0.041
Mof_C 	C 	0.9312	0.4304	0.4436	0.295
Mof_C 	C 	0.8993	0.5579	0.3423	0.43
Mof_C 	C 	0.5003	0.7757	0.3703	0.456
Mof_C 	C 	0.7299	0.657	0.765	-0.248
Mof_C 	C 	0.4643	0.7418	0.4553	0.231
Mof_H 	H 	0.5298	0.7432	0.4768	-0.055
Mof_C 	C 	0.0879	0.6869	0.4767	-0.449
Mof_H 	H 	0.0865	0.6944	0.5183	0.198
Mof_C 	C 	0.6002	0.6313	0.0343	-0.517
Mof_H 	H 	0.5376	0.6395	0.027	0.214
Mof_C 	C 	0.3001	0.7233	0.4505	0.394
Mof_C 	C 	0.784	0.6098	0.0592	0.404
Mof_H 	H 	0.8478	0.6023	0.0663	-0.084
Mof_C 	C 	0.7664	0.6686	0.8283	0.181
Mof_H 	H 	0.8184	0.6812	0.8348	-0.019
Mof_C 	C 	0.9652	0.4836	0.3925	-0.263
Mof_H 	H 	0.0092	0.47	0.3836	0.116
Mof_C 	C 	0.7386	0.6161	0.9949	-0.547
Mof_H 	H 	0.7734	0.6133	0.9602	0.233
Mof_C 	C 	0.6458	0.6397	0.8706	0.336
Mof_C 	C 	0.8425	0.4994	0.4534	-0.284
Mof_H 	H 	0.8043	0.4961	0.4861	0.147
Mof_C 	C 	0.0284	0.3909	0.4613	0.088
Mof_H 	H 	0.0756	0.3804	0.4885	0.009
Mof_C 	C 	0.8892	0.4216	0.3827	-0.294
Mof_H 	H 	0.842	0.4325	0.3566	0.14
Mof_C 	C 	0.718	0.6597	0.8812	-0.318
Mof_H 	H 	0.7355	0.6675	0.923	0.159
Mof_C 	C 	0.6475	0.6262	0.9819	0.541
Mof_C 	C 	0.9604	0.5095	0.3612	0.156
Mof_H 	H 	0.9994	0.5125	0.3289	0.003
Mof_C 	C 	0.8382	0.5257	0.4206	0.164
Mof_H 	H 	0.7934	0.5391	0.4296	-0.018
Mof_C 	C 	0.9995	0.4152	0.4822	-0.223
Mof_H 	H 	0.0272	0.4216	0.524	0.113
Mof_C 	C 	0.6573	0.6377	0.7572	0.201
Mof_H 	H 	0.6343	0.631	0.7148	-0.02
Mof_C 	C 	0.3971	0.7242	0.4788	-0.371
Mof_H 	H 	0.4196	0.7128	0.5147	0.166
Mof_C 	C 	0.6437	0.6248	0.0973	0.397
Mof_H 	H 	0.6082	0.6276	0.1316	-0.106
Mof_C 	C 	0.6152	0.6274	0.8097	-0.316
Mof_H 	H 	0.5693	0.613	0.804	0.152
Mof_O 	O 	0.8676	0.59645	0.1861	-0.478
Mof_C 	C 	0.7872	0.6074	0.1773	0.538
Mof_C 	C 	0.9341	0.641	0.3524	0.451
Mof_O 	O 	0.8415	0.68417	0.7141	-0.515
Mof_C 	C 	0.7676	0.668	0.7086	0.416
Mof_O 	O 	0.7294	0.6617	0.6511	-0.428
Mof_Co	Co	0.6784	0.81037	0.39299	1.129
Mof_Co	Co	0.28486	0.10968	0.3193	1.144
Mof_O 	O 	0.4408	0.12623	0.3048	-0.51
Mof_O 	O 	0.4837	0.84792	0.3154	-0.455
Mof_O 	O 	0.3507	0.13961	0.3773	-0.459
Mof_O 	O 	0.9691	0.28617	0.3144	-0.423
Mof_O 	O 	0.4612	0.06258	0.3072	-0.435
Mof_O 	O 	0.2388	0.114	0.2248	-0.512
Mof_O 	O 	0.7398	0.2068	0.4818	-0.379
Mof_O 	O 	0.3279	0.07368	0.3537	-0.498
Mof_O 	O 	0.5883	0.84163	0.4095	-0.471
Mof_O 	O 	0.0836	0.2796	0.4043	-0.495
Mof_O 	O 	0.4008	0.95492	0.4706	-0.35
Mof_C 	C 	0.5116	0.159	0.3852	-0.338
Mof_O 	O 	0.0969	0.1314	0.9232	-0.399
Mof_C 	C 	0.2377	0.1141	0.1119	-0.435
Mof_C 	C 	0.3997	0.0311	0.3764	-0.245
Mof_C 	C 	0.9295	0.2574	0.3981	-0.281
Mof_C 	C 	0.5207	0.8547	0.3715	0.475
Mof_C 	C 	0.5926	0.1652	0.3542	0.305
Mof_H 	H 	0.5945	0.158	0.3124	-0.067
Mof_C 	C 	0.4876	0.8816	0.3989	-0.318
Mof_C 	C 	0.6636	0.1924	0.4455	0.449
Mof_C 	C 	0.8328	0.2554	0.3706	0.262
Mof_H 	H 	0.8101	0.2655	0.3326	-0.047
Mof_C 	C 	0.7655	0.239	0.3963	-0.396
Mof_H 	H 	0.6987	0.2387	0.3771	0.172
Mof_C 	C 	0.4027	0.9795	0.4362	0.36
Mof_C 	C 	0.668	0.1813	0.3831	-0.441
Mof_H 	H 	0.7218	0.1849	0.362	0.186
Mof_C 	C 	0.4156	0.8968	0.3593	0.295
Mof_H 	H 	0.3859	0.8903	0.3179	-0.055
Mof_C 	C 	0.5149	0.1707	0.4485	0.335
Mof_H 	H 	0.4634	0.1668	0.4715	-0.074
Mof_C 	C 	0.4312	0.9304	0.4436	0.438
Mof_C 	C 	0.3993	0.0579	0.3423	0.444
Mof_C 	C 	0.0003	0.2757	0.3703	0.421
Mof_C 	C 	0.2299	0.157	0.765	-0.25
Mof_C 	C 	0.9643	0.2418	0.4553	0.269
Mof_H 	H 	0.0298	0.2432	0.4768	-0.081
Mof_C 	C 	0.5879	0.1869	0.4767	-0.487
Mof_H 	H 	0.5865	0.1944	0.5183	0.215
Mof_C 	C 	0.1002	0.1313	0.0343	-0.52
Mof_H 	H 	0.0376	0.1395	0.027	0.212
Mof_C 	C 	0.8001	0.2233	0.4505	0.406
Mof_C 	C 	0.284	0.1098	0.0592	0.411
Mof_H 	H 	0.3478	0.1023	0.0663	-0.089
Mof_C 	C 	0.2664	0.1686	0.8283	0.182
Mof_H 	H 	0.3184	0.1812	0.8348	-0.021
Mof_C 	C 	0.4652	0.9836	0.3925	-0.344
Mof_H 	H 	0.5092	0.97	0.3836	0.158
Mof_C 	C 	0.2386	0.1161	0.9949	-0.554
Mof_H 	H 	0.2734	0.1133	0.9602	0.234
Mof_C 	C 	0.1458	0.1397	0.8706	0.336
Mof_C 	C 	0.3425	0.9994	0.4534	-0.325
Mof_H 	H 	0.3043	0.9961	0.4861	0.158
Mof_C 	C 	0.5284	0.8909	0.4613	0.322
Mof_H 	H 	0.5756	0.8804	0.4885	-0.068
Mof_C 	C 	0.3892	0.9216	0.3827	-0.444
Mof_H 	H 	0.342	0.9325	0.3566	0.189
Mof_C 	C 	0.218	0.1597	0.8812	-0.321
Mof_H 	H 	0.2355	0.1675	0.923	0.158
Mof_C 	C 	0.1475	0.1262	0.9819	0.543
Mof_C 	C 	0.4604	0.0095	0.3612	0.202
Mof_H 	H 	0.4994	0.0125	0.3289	-0.019
Mof_C 	C 	0.3382	0.0257	0.4206	0.194
Mof_H 	H 	0.2934	0.0391	0.4296	-0.03
Mof_C 	C 	0.4995	0.9152	0.4822	-0.463
Mof_H 	H 	0.5272	0.9216	0.524	0.208
Mof_C 	C 	0.1573	0.1377	0.7572	0.202
Mof_H 	H 	0.1343	0.131	0.7148	-0.024
Mof_C 	C 	0.8971	0.2242	0.4788	-0.392
Mof_H 	H 	0.9196	0.2128	0.5147	0.177
Mof_C 	C 	0.1437	0.1248	0.0973	0.4
Mof_H 	H 	0.1082	0.1276	0.1316	-0.11
Mof_C 	C 	0.1152	0.1274	0.8097	-0.319
Mof_H 	H 	0.0693	0.113	0.804	0.148
Mof_O 	O 	0.3676	0.09645	0.1861	-0.487
Mof_C 	C 	0.2872	0.1074	0.1773	0.541
Mof_C 	C 	0.4341	0.141	0.3524	0.442
Mof_O 	O 	0.3415	0.18417	0.7141	-0.52
Mof_C 	C 	0.2676	0.168	0.7086	0.418
Mof_O 	O 	0.2294	0.1617	0.6511	-0.433
Mof_Co	Co	0.8216	0.31037	0.10701	1.131
Mof_Co	Co	0.21514	0.60968	0.1807	1.145
Mof_O 	O 	0.0592	0.62623	0.1952	-0.512
Mof_O 	O 	0.0163	0.34792	0.1846	-0.492
Mof_O 	O 	0.1493	0.63961	0.1227	-0.458
Mof_O 	O 	0.5309	0.78617	0.1856	-0.447
Mof_O 	O 	0.0388	0.56258	0.1928	-0.445
Mof_O 	O 	0.2612	0.614	0.2752	-0.51
Mof_O 	O 	0.7602	0.7068	0.0182	-0.378
Mof_O 	O 	0.1721	0.57368	0.1463	-0.499
Mof_O 	O 	0.9117	0.34163	0.0905	-0.489
Mof_O 	O 	0.4164	0.7796	0.0957	-0.5
Mof_O 	O 	0.0992	0.45492	0.0294	-0.392
Mof_C 	C 	0.9884	0.659	0.1148	-0.332
Mof_O 	O 	0.4031	0.6314	0.5768	-0.396
Mof_C 	C 	0.2623	0.6141	0.3881	-0.436
Mof_C 	C 	0.1003	0.5311	0.1236	-0.272
Mof_C 	C 	0.5705	0.7574	0.1019	-0.288
Mof_C 	C 	0.9793	0.3547	0.1285	0.561
Mof_C 	C 	0.9074	0.6652	0.1458	0.308
Mof_H 	H 	0.9055	0.658	0.1876	-0.065
Mof_C 	C 	0.0124	0.3816	0.1011	-0.47
Mof_C 	C 	0.8364	0.6924	0.0545	0.458
Mof_C 	C 	0.6672	0.7554	0.1294	0.262
Mof_H 	H 	0.6899	0.7655	0.1674	-0.048
Mof_C 	C 	0.7345	0.739	0.1037	-0.39
Mof_H 	H 	0.8013	0.7387	0.1229	0.171
Mof_C 	C 	0.0973	0.4795	0.0638	0.404
Mof_C 	C 	0.832	0.6813	0.1169	-0.446
Mof_H 	H 	0.7782	0.6849	0.138	0.188
Mof_C 	C 	0.0844	0.3968	0.1407	0.431
Mof_H 	H 	0.1141	0.3903	0.1821	-0.104
Mof_C 	C 	0.9851	0.6707	0.0515	0.374
Mof_H 	H 	0.0366	0.6668	0.0285	-0.098
Mof_C 	C 	0.0688	0.4304	0.0564	0.566
Mof_C 	C 	0.1007	0.5579	0.1577	0.456
Mof_C 	C 	0.4997	0.7757	0.1297	0.456
Mof_C 	C 	0.2701	0.657	0.735	-0.249
Mof_C 	C 	0.5357	0.7418	0.0447	0.228
Mof_H 	H 	0.4702	0.7432	0.0232	-0.054
Mof_C 	C 	0.9121	0.6869	0.0233	-0.506
Mof_H 	H 	0.9135	0.6944	0.9817	0.224
Mof_C 	C 	0.3998	0.6313	0.4657	-0.527
Mof_H 	H 	0.4624	0.6395	0.473	0.217
Mof_C 	C 	0.6999	0.7233	0.0495	0.394
Mof_C 	C 	0.216	0.6098	0.4408	0.408
Mof_H 	H 	0.1522	0.6023	0.4337	-0.091
Mof_C 	C 	0.2336	0.6686	0.6717	0.184
Mof_H 	H 	0.1816	0.6812	0.6652	-0.022
Mof_C 	C 	0.0348	0.4836	0.1075	-0.419
Mof_H 	H 	0.9908	0.47	0.1164	0.196
Mof_C 	C 	0.2614	0.6161	0.5051	-0.551
Mof_H 	H 	0.2266	0.6133	0.5398	0.233
Mof_C 	C 	0.3542	0.6397	0.6294	0.339
Mof_C 	C 	0.1575	0.4994	0.0466	-0.36
Mof_H 	H 	0.1957	0.4961	0.0139	0.172
Mof_C 	C 	0.9716	0.3909	0.0387	0.534
Mof_H 	H 	0.9244	0.3804	0.0115	-0.139
Mof_C 	C 	0.1108	0.4216	0.1173	-0.579
Mof_H 	H 	0.158	0.4325	0.1434	0.235
Mof_C 	C 	0.282	0.6597	0.6188	-0.322
Mof_H 	H 	0.2645	0.6675	0.577	0.159
Mof_C 	C 	0.3525	0.6262	0.5181	0.549
Mof_C 	C 	0.0396	0.5095	0.1388	0.245
Mof_H 	H 	0.0006	0.5125	0.1711	-0.04
Mof_C 	C 	0.1618	0.5257	0.0794	0.223
Mof_H 	H 	0.2066	0.5391	0.0704	-0.038
Mof_C 	C 	0.0005	0.4152	0.0178	-0.677
Mof_H 	H 	0.9728	0.4216	0.976	0.291
Mof_C 	C 	0.3427	0.6377	0.7428	0.204
Mof_H 	H 	0.3657	0.631	0.7852	-0.022
Mof_C 	C 	0.6029	0.7242	0.0212	-0.364
Mof_H 	H 	0.5804	0.7128	0.9853	0.161
Mof_C 	C 	0.3563	0.6248	0.4027	0.404
Mof_H 	H 	0.3918	0.6276	0.3684	-0.109
Mof_C 	C 	0.3848	0.6274	0.6903	-0.319
Mof_H 	H 	0.4307	0.613	0.696	0.153
Mof_O 	O 	0.1324	0.59645	0.3139	-0.491
Mof_C 	C 	0.2128	0.6074	0.3227	0.542
Mof_C 	C 	0.0659	0.641	0.1476	0.429
Mof_O 	O 	0.1585	0.68417	0.7859	-0.521
Mof_C 	C 	0.2324	0.668	0.7914	0.419
Mof_O 	O 	0.2706	0.6617	0.8489	-0.431
Mof_Co	Co	0.3216	0.81037	0.10701	1.127
Mof_Co	Co	0.71514	0.10968	0.1807	1.146
Mof_O 	O 	0.5592	0.12623	0.1952	-0.508
Mof_O 	O 	0.5163	0.84792	0.1846	-0.454
Mof_O 	O 	0.6493	0.13961	0.1227	-0.454
Mof_O 	O 	0.0309	0.28617	0.1856	-0.467
Mof_O 	O 	0.5388	0.06258	0.1928	-0.435
Mof_O 	O 	0.7612	0.114	0.2752	-0.507
Mof_O 	O 	0.2602	0.2068	0.0182	-0.369
Mof_O 	O 	0.6721	0.07368	0.1463	-0.495
Mof_O 	O 	0.4117	0.84163	0.0905	-0.471
Mof_O 	O 	0.9164	0.2796	0.0957	-0.503
Mof_O 	O 	0.5992	0.95492	0.0294	-0.347
Mof_C 	C 	0.4884	0.159	0.1148	-0.327
Mof_O 	O 	0.9031	0.1314	0.5768	-0.392
Mof_C 	C 	0.7623	0.1141	0.3881	-0.43
Mof_C 	C 	0.6003	0.0311	0.1236	-0.243
Mof_C 	C 	0.0705	0.2574	0.1019	-0.295
Mof_C 	C 	0.4793	0.8547	0.1285	0.474
Mof_C 	C 	0.4074	0.1652	0.1458	0.294
Mof_H 	H 	0.4055	0.158	0.1876	-0.064
Mof_C 	C 	0.5124	0.8816	0.1011	-0.313
Mof_C 	C 	0.3364	0.1924	0.0545	0.436
Mof_C 	C 	0.1672	0.2554	0.1294	0.261
Mof_H 	H 	0.1899	0.2655	0.1674	-0.049
Mof_C 	C 	0.2345	0.239	0.1037	-0.383
Mof_H 	H 	0.3013	0.2387	0.1229	0.167
Mof_C 	C 	0.5973	0.9795	0.0638	0.36
Mof_C 	C 	0.332	0.1813	0.1169	-0.429
Mof_H 	H 	0.2782	0.1849	0.138	0.181
Mof_C 	C 	0.5844	0.8968	0.1407	0.29
Mof_H 	H 	0.6141	0.8903	0.1821	-0.053
Mof_C 	C 	0.4851	0.1707	0.0515	0.321
Mof_H 	H 	0.5366	0.1668	0.0285	-0.067
Mof_C 	C 	0.5688	0.9304	0.0564	0.431
Mof_C 	C 	0.6007	0.0579	0.1577	0.443
Mof_C 	C 	0.9997	0.2757	0.1297	0.49
Mof_C 	C 	0.7701	0.157	0.735	-0.247
Mof_C 	C 	0.0357	0.2418	0.0447	0.192
Mof_H 	H 	0.9702	0.2432	0.0232	-0.029
Mof_C 	C 	0.4121	0.1869	0.0233	-0.465
Mof_H 	H 	0.4135	0.1944	0.9817	0.205
Mof_C 	C 	0.8998	0.1313	0.4657	-0.522
Mof_H 	H 	0.9624	0.1395	0.473	0.219
Mof_C 	C 	0.1999	0.2233	0.0495	0.381
Mof_C 	C 	0.716	0.1098	0.4408	0.404
Mof_H 	H 	0.6522	0.1023	0.4337	-0.087
Mof_C 	C 	0.7336	0.1686	0.6717	0.183
Mof_H 	H 	0.6816	0.1812	0.6652	-0.021
Mof_C 	C 	0.5348	0.9836	0.1075	-0.343
Mof_H 	H 	0.4908	0.97	0.1164	0.157
Mof_C 	C 	0.7614	0.1161	0.5051	-0.546
Mof_H 	H 	0.7266	0.1133	0.5398	0.232
Mof_C 	C 	0.8542	0.1397	0.6294	0.339
Mof_C 	C 	0.6575	0.9994	0.0466	-0.322
Mof_H 	H 	0.6957	0.9961	0.0139	0.161
Mof_C 	C 	0.4716	0.8909	0.0387	0.314
Mof_H 	H 	0.4244	0.8804	0.0115	-0.065
Mof_C 	C 	0.6108	0.9216	0.1173	-0.438
Mof_H 	H 	0.658	0.9325	0.1434	0.189
Mof_C 	C 	0.782	0.1597	0.6188	-0.319
Mof_H 	H 	0.7645	0.1675	0.577	0.16
Mof_C 	C 	0.8525	0.1262	0.5181	0.547
Mof_C 	C 	0.5396	0.0095	0.1388	0.202
Mof_H 	H 	0.5006	0.0125	0.1711	-0.019
Mof_C 	C 	0.6618	0.0257	0.0794	0.194
Mof_H 	H 	0.7066	0.0391	0.0704	-0.026
Mof_C 	C 	0.5005	0.9152	0.0178	-0.45
Mof_H 	H 	0.4728	0.9216	0.976	0.201
Mof_C 	C 	0.8427	0.1377	0.7428	0.203
Mof_H 	H 	0.8657	0.131	0.7852	-0.017
Mof_C 	C 	0.1029	0.2242	0.0212	-0.34
Mof_H 	H 	0.0804	0.2128	0.9853	0.148
Mof_C 	C 	0.8563	0.1248	0.4027	0.401
Mof_H 	H 	0.8918	0.1276	0.3684	-0.105
Mof_C 	C 	0.8848	0.1274	0.6903	-0.316
Mof_H 	H 	0.9307	0.113	0.696	0.157
Mof_O 	O 	0.6324	0.09645	0.3139	-0.486
Mof_C 	C 	0.7128	0.1074	0.3227	0.54
Mof_C 	C 	0.5659	0.141	0.1476	0.438
Mof_O 	O 	0.6585	0.18417	0.7859	-0.519
Mof_C 	C 	0.7324	0.168	0.7914	0.418
Mof_O 	O 	0.7706	0.1617	0.8489	-0.426
Mof_Co	Co	0.8216	0.68963	0.60701	1.131
Mof_Co	Co	0.21514	0.39032	0.6807	1.145
Mof_O 	O 	0.0592	0.37377	0.6952	-0.512
Mof_O 	O 	0.0163	0.65208	0.6846	-0.495
Mof_O 	O 	0.1493	0.36039	0.6227	-0.459
Mof_O 	O 	0.5309	0.21383	0.6856	-0.447
Mof_O 	O 	0.0388	0.43742	0.6928	-0.446
Mof_O 	O 	0.2612	0.386	0.7752	-0.51
Mof_O 	O 	0.7602	0.2932	0.5182	-0.382
Mof_O 	O 	0.1721	0.42632	0.6463	-0.499
Mof_O 	O 	0.9117	0.65837	0.5905	-0.491
Mof_O 	O 	0.4164	0.2204	0.5957	-0.501
Mof_O 	O 	0.0992	0.54508	0.5294	-0.399
Mof_C 	C 	0.9884	0.341	0.6148	-0.337
Mof_O 	O 	0.4031	0.3686	0.0768	-0.396
Mof_C 	C 	0.2623	0.3859	0.8881	-0.434
Mof_C 	C 	0.1003	0.4689	0.6236	-0.276
Mof_C 	C 	0.5705	0.2426	0.6019	-0.293
Mof_C 	C 	0.9793	0.6453	0.6285	0.57
Mof_C 	C 	0.9074	0.3348	0.6458	0.314
Mof_H 	H 	0.9055	0.342	0.6876	-0.066
Mof_C 	C 	0.0124	0.6184	0.6011	-0.488
Mof_C 	C 	0.8364	0.3076	0.5545	0.466
Mof_C 	C 	0.6672	0.2446	0.6294	0.267
Mof_H 	H 	0.6899	0.2345	0.6674	-0.05
Mof_C 	C 	0.7345	0.261	0.6037	-0.396
Mof_H 	H 	0.8013	0.2613	0.6229	0.173
Mof_C 	C 	0.0973	0.5205	0.5638	0.409
Mof_C 	C 	0.832	0.3187	0.6169	-0.453
Mof_H 	H 	0.7782	0.3151	0.638	0.19
Mof_C 	C 	0.0844	0.6032	0.6407	0.447
Mof_H 	H 	0.1141	0.6097	0.6821	-0.11
Mof_C 	C 	0.9851	0.3293	0.5515	0.387
Mof_H 	H 	0.0366	0.3332	0.5285	-0.105
Mof_C 	C 	0.0688	0.5696	0.5564	0.582
Mof_C 	C 	0.1007	0.4421	0.6577	0.457
Mof_C 	C 	0.4997	0.2243	0.6297	0.458
Mof_C 	C 	0.2701	0.343	0.235	-0.249
Mof_C 	C 	0.5357	0.2582	0.5447	0.235
Mof_H 	H 	0.4702	0.2568	0.5232	-0.057
Mof_C 	C 	0.9121	0.3131	0.5233	-0.52
Mof_H 	H 	0.9135	0.3056	0.4817	0.231
Mof_C 	C 	0.3998	0.3687	0.9657	-0.531
Mof_H 	H 	0.4624	0.3605	0.973	0.218
Mof_C 	C 	0.6999	0.2767	0.5495	0.401
Mof_C 	C 	0.216	0.3902	0.9408	0.401
Mof_H 	H 	0.1522	0.3977	0.9337	-0.09
Mof_C 	C 	0.2336	0.3314	0.1717	0.184
Mof_H 	H 	0.1816	0.3188	0.1652	-0.022
Mof_C 	C 	0.0348	0.5164	0.6075	-0.427
Mof_H 	H 	0.9908	0.53	0.6164	0.2
Mof_C 	C 	0.2614	0.3839	0.0051	-0.545
Mof_H 	H 	0.2266	0.3867	0.0398	0.232
Mof_C 	C 	0.3542	0.3603	0.1294	0.339
Mof_C 	C 	0.1575	0.5006	0.5466	-0.364
Mof_H 	H 	0.1957	0.5039	0.5139	0.173
Mof_C 	C 	0.9716	0.6091	0.5387	0.56
Mof_H 	H 	0.9244	0.6196	0.5115	-0.149
Mof_C 	C 	0.1108	0.5784	0.6173	-0.597
Mof_H 	H 	0.158	0.5675	0.6434	0.24
Mof_C 	C 	0.282	0.3403	0.1188	-0.322
Mof_H 	H 	0.2645	0.3325	0.077	0.16
Mof_C 	C 	0.3525	0.3738	0.0181	0.552
Mof_C 	C 	0.0396	0.4905	0.6388	0.25
Mof_H 	H 	0.0006	0.4875	0.6711	-0.042
Mof_C 	C 	0.1618	0.4743	0.5794	0.225
Mof_H 	H 	0.2066	0.4609	0.5704	-0.039
Mof_C 	C 	0.0005	0.5848	0.5178	-0.706
Mof_H 	H 	0.9728	0.5784	0.476	0.304
Mof_C 	C 	0.3427	0.3623	0.2428	0.204
Mof_H 	H 	0.3657	0.369	0.2852	-0.022
Mof_C 	C 	0.6029	0.2758	0.5212	-0.376
Mof_H 	H 	0.5804	0.2872	0.4853	0.168
Mof_C 	C 	0.3563	0.3752	0.9027	0.405
Mof_H 	H 	0.3918	0.3724	0.8684	-0.109
Mof_C 	C 	0.3848	0.3726	0.1903	-0.319
Mof_H 	H 	0.4307	0.387	0.196	0.153
Mof_O 	O 	0.1324	0.40355	0.8139	-0.492
Mof_C 	C 	0.2128	0.3926	0.8227	0.542
Mof_C 	C 	0.0659	0.359	0.6476	0.43
Mof_O 	O 	0.1585	0.31583	0.2859	-0.521
Mof_C 	C 	0.2324	0.332	0.2914	0.419
Mof_O 	O 	0.2706	0.3383	0.3489	-0.431
Mof_Co	Co	0.3216	0.18963	0.60701	1.127
Mof_Co	Co	0.71514	0.89032	0.6807	1.146
Mof_O 	O 	0.5592	0.87377	0.6952	-0.509
Mof_O 	O 	0.5163	0.15208	0.6846	-0.455
Mof_O 	O 	0.6493	0.86039	0.6227	-0.455
Mof_O 	O 	0.0309	0.71383	0.6856	-0.47
Mof_O 	O 	0.5388	0.93742	0.6928	-0.435
Mof_O 	O 	0.7612	0.886	0.7752	-0.507
Mof_O 	O 	0.2602	0.7932	0.5182	-0.375
Mof_O 	O 	0.6721	0.92632	0.6463	-0.495
Mof_O 	O 	0.4117	0.15837	0.5905	-0.473
Mof_O 	O 	0.9164	0.7204	0.5957	-0.504
Mof_O 	O 	0.5992	0.04508	0.5294	-0.35
Mof_C 	C 	0.4884	0.841	0.6148	-0.334
Mof_O 	O 	0.9031	0.8686	0.0768	-0.392
Mof_C 	C 	0.7623	0.8859	0.8881	-0.429
Mof_C 	C 	0.6003	0.9689	0.6236	-0.243
Mof_C 	C 	0.0705	0.7426	0.6019	-0.302
Mof_C 	C 	0.4793	0.1453	0.6285	0.476
Mof_C 	C 	0.4074	0.8348	0.6458	0.302
Mof_H 	H 	0.4055	0.842	0.6876	-0.067
Mof_C 	C 	0.5124	0.1184	0.6011	-0.319
Mof_C 	C 	0.3364	0.8076	0.5545	0.445
Mof_C 	C 	0.1672	0.7446	0.6294	0.268
Mof_H 	H 	0.1899	0.7345	0.6674	-0.052
Mof_C 	C 	0.2345	0.761	0.6037	-0.391
Mof_H 	H 	0.3013	0.7613	0.6229	0.17
Mof_C 	C 	0.5973	0.0205	0.5638	0.36
Mof_C 	C 	0.332	0.8187	0.6169	-0.438
Mof_H 	H 	0.2782	0.8151	0.638	0.183
Mof_C 	C 	0.5844	0.1032	0.6407	0.297
Mof_H 	H 	0.6141	0.1097	0.6821	-0.055
Mof_C 	C 	0.4851	0.8293	0.5515	0.332
Mof_H 	H 	0.5366	0.8332	0.5285	-0.072
Mof_C 	C 	0.5688	0.0696	0.5564	0.439
Mof_C 	C 	0.6007	0.9421	0.6577	0.443
Mof_C 	C 	0.9997	0.7243	0.6297	0.495
Mof_C 	C 	0.7701	0.843	0.235	-0.247
Mof_C 	C 	0.0357	0.7582	0.5447	0.198
Mof_H 	H 	0.9702	0.7568	0.5232	-0.032
Mof_C 	C 	0.4121	0.8131	0.5233	-0.483
Mof_H 	H 	0.4135	0.8056	0.4817	0.214
Mof_C 	C 	0.8998	0.8687	0.9657	-0.524
Mof_H 	H 	0.9624	0.8605	0.973	0.219
Mof_C 	C 	0.1999	0.7767	0.5495	0.389
Mof_C 	C 	0.716	0.8902	0.9408	0.4
Mof_H 	H 	0.6522	0.8977	0.9337	-0.086
Mof_C 	C 	0.7336	0.8314	0.1717	0.183
Mof_H 	H 	0.6816	0.8188	0.1652	-0.021
Mof_C 	C 	0.5348	0.0164	0.6075	-0.344
Mof_H 	H 	0.4908	0.03	0.6164	0.157
Mof_C 	C 	0.7614	0.8839	0.0051	-0.542
Mof_H 	H 	0.7266	0.8867	0.0398	0.231
Mof_C 	C 	0.8542	0.8603	0.1294	0.339
Mof_C 	C 	0.6575	0.0006	0.5466	-0.323
Mof_H 	H 	0.6957	0.0039	0.5139	0.161
Mof_C 	C 	0.4716	0.1091	0.5387	0.324
Mof_H 	H 	0.4244	0.1196	0.5115	-0.07
Mof_C 	C 	0.6108	0.0784	0.6173	-0.446
Mof_H 	H 	0.658	0.0675	0.6434	0.191
Mof_C 	C 	0.782	0.8403	0.1188	-0.32
Mof_H 	H 	0.7645	0.8325	0.077	0.16
Mof_C 	C 	0.8525	0.8738	0.0181	0.548
Mof_C 	C 	0.5396	0.9905	0.6388	0.202
Mof_H 	H 	0.5006	0.9875	0.6711	-0.019
Mof_C 	C 	0.6618	0.9743	0.5794	0.194
Mof_H 	H 	0.7066	0.9609	0.5704	-0.027
Mof_C 	C 	0.5005	0.0848	0.5178	-0.465
Mof_H 	H 	0.4728	0.0784	0.476	0.208
Mof_C 	C 	0.8427	0.8623	0.2428	0.203
Mof_H 	H 	0.8657	0.869	0.2852	-0.017
Mof_C 	C 	0.1029	0.7758	0.5212	-0.355
Mof_H 	H 	0.0804	0.7872	0.4853	0.157
Mof_C 	C 	0.8563	0.8752	0.9027	0.401
Mof_H 	H 	0.8918	0.8724	0.8684	-0.105
Mof_C 	C 	0.8848	0.8726	0.1903	-0.316
Mof_H 	H 	0.9307	0.887	0.196	0.157
Mof_O 	O 	0.6324	0.90355	0.8139	-0.485
Mof_C 	C 	0.7128	0.8926	0.8227	0.539
Mof_C 	C 	0.5659	0.859	0.6476	0.441
Mof_O 	O 	0.6585	0.81583	0.2859	-0.519
Mof_C 	C 	0.7324	0.832	0.2914	0.418
Mof_O 	O 	0.7706	0.8383	0.3489	-0.426
Mof_Co	Co	0.1784	0.68963	0.89299	1.125
Mof_Co	Co	0.78486	0.39032	0.8193	1.145
Mof_O 	O 	0.9408	0.37377	0.8048	-0.505
Mof_O 	O 	0.9837	0.65208	0.8154	-0.411
Mof_O 	O 	0.8507	0.36039	0.8773	-0.456
Mof_O 	O 	0.4691	0.21383	0.8144	-0.447
Mof_O 	O 	0.9612	0.43742	0.8072	-0.422
Mof_O 	O 	0.7388	0.386	0.7248	-0.508
Mof_O 	O 	0.2398	0.2932	0.9818	-0.379
Mof_O 	O 	0.8279	0.42632	0.8537	-0.494
Mof_O 	O 	0.0883	0.65837	0.9095	-0.453
Mof_O 	O 	0.5836	0.2204	0.9043	-0.499
Mof_O 	O 	0.9008	0.54508	0.9706	-0.303
Mof_C 	C 	0.0116	0.341	0.8852	-0.342
Mof_O 	O 	0.5969	0.3686	0.4232	-0.395
Mof_C 	C 	0.7377	0.3859	0.6119	-0.427
Mof_C 	C 	0.8997	0.4689	0.8764	-0.211
Mof_C 	C 	0.4295	0.2426	0.8981	-0.294
Mof_C 	C 	0.0207	0.6453	0.8715	0.38
Mof_C 	C 	0.0926	0.3348	0.8542	0.301
Mof_H 	H 	0.0945	0.342	0.8124	-0.07
Mof_C 	C 	0.9876	0.6184	0.8989	-0.149
Mof_C 	C 	0.1636	0.3076	0.9455	0.439
Mof_C 	C 	0.3328	0.2446	0.8706	0.268
Mof_H 	H 	0.3101	0.2345	0.8326	-0.052
Mof_C 	C 	0.2655	0.261	0.8963	-0.397
Mof_H 	H 	0.1987	0.2613	0.8771	0.17
Mof_C 	C 	0.9027	0.5205	0.9362	0.31
Mof_C 	C 	0.168	0.3187	0.8831	-0.435
Mof_H 	H 	0.2218	0.3151	0.862	0.183
Mof_C 	C 	0.9156	0.6032	0.8593	0.146
Mof_H 	H 	0.8859	0.6097	0.8179	-0.001
Mof_C 	C 	0.0149	0.3293	0.9485	0.291
Mof_H 	H 	0.9634	0.3332	0.9715	-0.046
Mof_C 	C 	0.9312	0.5696	0.9436	0.298
Mof_C 	C 	0.8993	0.4421	0.8423	0.429
Mof_C 	C 	0.5003	0.2243	0.8703	0.458
Mof_C 	C 	0.7299	0.343	0.265	-0.248
Mof_C 	C 	0.4643	0.2582	0.9553	0.24
Mof_H 	H 	0.5298	0.2568	0.9768	-0.058
Mof_C 	C 	0.0879	0.3131	0.9767	-0.469
Mof_H 	H 	0.0865	0.3056	0.0183	0.207
Mof_C 	C 	0.6002	0.3687	0.5343	-0.521
Mof_H 	H 	0.5376	0.3605	0.527	0.214
Mof_C 	C 	0.3001	0.2767	0.9505	0.402
Mof_C 	C 	0.784	0.3902	0.5592	0.4
Mof_H 	H 	0.8478	0.3977	0.5663	-0.083
Mof_C 	C 	0.7664	0.3314	0.3283	0.181
Mof_H 	H 	0.8184	0.3188	0.3348	-0.02
Mof_C 	C 	0.9652	0.5164	0.8925	-0.259
Mof_H 	H 	0.0092	0.53	0.8836	0.113
Mof_C 	C 	0.7386	0.3839	0.4949	-0.544
Mof_H 	H 	0.7734	0.3867	0.4602	0.232
Mof_C 	C 	0.6458	0.3603	0.3706	0.337
Mof_C 	C 	0.8425	0.5006	0.9534	-0.283
Mof_H 	H 	0.8043	0.5039	0.9861	0.146
Mof_C 	C 	0.0284	0.6091	0.9613	0.089
Mof_H 	H 	0.0756	0.6196	0.9885	0.007
Mof_C 	C 	0.8892	0.5784	0.8827	-0.295
Mof_H 	H 	0.842	0.5675	0.8566	0.141
Mof_C 	C 	0.718	0.3403	0.3812	-0.319
Mof_H 	H 	0.7355	0.3325	0.423	0.16
Mof_C 	C 	0.6475	0.3738	0.4819	0.544
Mof_C 	C 	0.9604	0.4905	0.8612	0.153
Mof_H 	H 	0.9994	0.4875	0.8289	0.005
Mof_C 	C 	0.8382	0.4743	0.9206	0.162
Mof_H 	H 	0.7934	0.4609	0.9296	-0.018
Mof_C 	C 	0.9995	0.5848	0.9822	-0.23
Mof_H 	H 	0.0272	0.5784	0.024	0.118
Mof_C 	C 	0.6573	0.3623	0.2572	0.201
Mof_H 	H 	0.6343	0.369	0.2148	-0.02
Mof_C 	C 	0.3971	0.2758	0.9788	-0.385
Mof_H 	H 	0.4196	0.2872	0.0147	0.173
Mof_C 	C 	0.6437	0.3752	0.5973	0.397
Mof_H 	H 	0.6082	0.3724	0.6316	-0.106
Mof_C 	C 	0.6152	0.3726	0.3097	-0.316
Mof_H 	H 	0.5693	0.387	0.304	0.152
Mof_O 	O 	0.8676	0.40355	0.6861	-0.478
Mof_C 	C 	0.7872	0.3926	0.6773	0.537
Mof_C 	C 	0.9341	0.359	0.8524	0.456
Mof_O 	O 	0.8415	0.31583	0.2141	-0.516
Mof_C 	C 	0.7676	0.332	0.2086	0.416
Mof_O 	O 	0.7294	0.3383	0.1511	-0.427
Mof_Co	Co	0.6784	0.18963	0.89299	1.129
Mof_Co	Co	0.28486	0.89032	0.8193	1.144
Mof_O 	O 	0.4408	0.87377	0.8048	-0.511
Mof_O 	O 	0.4837	0.15208	0.8154	-0.455
Mof_O 	O 	0.3507	0.86039	0.8773	-0.46
Mof_O 	O 	0.9691	0.71383	0.8144	-0.421
Mof_O 	O 	0.4612	0.93742	0.8072	-0.435
Mof_O 	O 	0.2388	0.886	0.7248	-0.512
Mof_O 	O 	0.7398	0.7932	0.9818	-0.384
Mof_O 	O 	0.3279	0.92632	0.8537	-0.499
Mof_O 	O 	0.5883	0.15837	0.9095	-0.472
Mof_O 	O 	0.0836	0.7204	0.9043	-0.496
Mof_O 	O 	0.4008	0.04508	0.9706	-0.353
Mof_C 	C 	0.5116	0.841	0.8852	-0.344
Mof_O 	O 	0.0969	0.8686	0.4232	-0.399
Mof_C 	C 	0.2377	0.8859	0.6119	-0.434
Mof_C 	C 	0.3997	0.9689	0.8764	-0.245
Mof_C 	C 	0.9295	0.7426	0.8981	-0.283
Mof_C 	C 	0.5207	0.1453	0.8715	0.477
Mof_C 	C 	0.5926	0.8348	0.8542	0.311
Mof_H 	H 	0.5945	0.842	0.8124	-0.07
Mof_C 	C 	0.4876	0.1184	0.8989	-0.324
Mof_C 	C 	0.6636	0.8076	0.9455	0.457
Mof_C 	C 	0.8328	0.7446	0.8706	0.265
Mof_H 	H 	0.8101	0.7345	0.8326	-0.049
Mof_C 	C 	0.7655	0.761	0.8963	-0.4
Mof_H 	H 	0.6987	0.7613	0.8771	0.173
Mof_C 	C 	0.4027	0.0205	0.9362	0.361
Mof_C 	C 	0.668	0.8187	0.8831	-0.449
Mof_H 	H 	0.7218	0.8151	0.862	0.189
Mof_C 	C 	0.4156	0.1032	0.8593	0.301
Mof_H 	H 	0.3859	0.1097	0.8179	-0.057
Mof_C 	C 	0.5149	0.8293	0.9485	0.346
Mof_H 	H 	0.4634	0.8332	0.9715	-0.079
Mof_C 	C 	0.4312	0.0696	0.9436	0.445
Mof_C 	C 	0.3993	0.9421	0.8423	0.444
Mof_C 	C 	0.0003	0.7243	0.8703	0.42
Mof_C 	C 	0.2299	0.843	0.265	-0.25
Mof_C 	C 	0.9643	0.7582	0.9553	0.276
Mof_H 	H 	0.0298	0.7568	0.9768	-0.085
Mof_C 	C 	0.5879	0.8131	0.9767	-0.502
Mof_H 	H 	0.5865	0.8056	0.0183	0.222
Mof_C 	C 	0.1002	0.8687	0.5343	-0.526
Mof_H 	H 	0.0376	0.8605	0.527	0.213
Mof_C 	C 	0.8001	0.7767	0.9505	0.411
Mof_C 	C 	0.284	0.8902	0.5592	0.405
Mof_H 	H 	0.3478	0.8977	0.5663	-0.088
Mof_C 	C 	0.2664	0.8314	0.3283	0.182
Mof_H 	H 	0.3184	0.8188	0.3348	-0.021
Mof_C 	C 	0.4652	0.0164	0.8925	-0.345
Mof_H 	H 	0.5092	0.03	0.8836	0.158
Mof_C 	C 	0.2386	0.8839	0.4949	-0.549
Mof_H 	H 	0.2734	0.8867	0.4602	0.233
Mof_C 	C 	0.1458	0.8603	0.3706	0.337
Mof_C 	C 	0.3425	0.0006	0.9534	-0.326
Mof_H 	H 	0.3043	0.0039	0.9861	0.158
Mof_C 	C 	0.5284	0.1091	0.9613	0.332
Mof_H 	H 	0.5756	0.1196	0.9885	-0.073
Mof_C 	C 	0.3892	0.0784	0.8827	-0.451
Mof_H 	H 	0.342	0.0675	0.8566	0.191
Mof_C 	C 	0.218	0.8403	0.3812	-0.321
Mof_H 	H 	0.2355	0.8325	0.423	0.159
Mof_C 	C 	0.1475	0.8738	0.4819	0.547
Mof_C 	C 	0.4604	0.9905	0.8612	0.203
Mof_H 	H 	0.4994	0.9875	0.8289	-0.019
Mof_C 	C 	0.3382	0.9743	0.9206	0.194
Mof_H 	H 	0.2934	0.9609	0.9296	-0.031
Mof_C 	C 	0.4995	0.0848	0.9822	-0.478
Mof_H 	H 	0.5272	0.0784	0.024	0.215
Mof_C 	C 	0.1573	0.8623	0.2572	0.202
Mof_H 	H 	0.1343	0.869	0.2148	-0.024
Mof_C 	C 	0.8971	0.7758	0.9788	-0.401
Mof_H 	H 	0.9196	0.7872	0.0147	0.181
Mof_C 	C 	0.1437	0.8752	0.5973	0.402
Mof_H 	H 	0.1082	0.8724	0.6316	-0.111
Mof_C 	C 	0.1152	0.8726	0.3097	-0.319
Mof_H 	H 	0.0693	0.887	0.304	0.149
Mof_O 	O 	0.3676	0.90355	0.6861	-0.487
Mof_C 	C 	0.2872	0.8926	0.6773	0.541
Mof_C 	C 	0.4341	0.859	0.8524	0.445
Mof_O 	O 	0.3415	0.81583	0.2141	-0.52
Mof_C 	C 	0.2676	0.832	0.2086	0.418
Mof_O 	O 	0.2294	0.8383	0.1511	-0.432
Mof_Co	Co	8.49397e-18	0.59458	0.25	1.207
Mof_Co	Co	1.64576e-33	0.31674	0.25	1.196
Mof_Co	Co	0.5	0.09458	0.25	1.215
Mof_Co	Co	0.5	0.81674	0.25	1.204
Mof_Co	Co	3.39759e-17	0.40542	0.75	1.206
Mof_Co	Co	6.79518e-17	0.68326	0.75	1.196
Mof_Co	Co	0.5	0.90542	0.75	1.215
Mof_Co	Co	0.5	0.18326	0.75	1.204
_end
