# CIF file generated by openbabel 3.1.0, see https://openbabel.org
data_I
_chemical_name_common 'image0'
_cell_length_a 20.9357
_cell_length_b 20.9357
_cell_length_c 34.8126
_cell_angle_alpha 90
_cell_angle_beta 90
_cell_angle_gamma 120
_space_group_name_H-M_alt 'P 1'
_space_group_name_Hall 'P 1'
loop_
    _symmetry_equiv_pos_as_xyz
    x,y,z
loop_
    _atom_site_label
    _atom_site_type_symbol
    _atom_site_fract_x
    _atom_site_fract_y
    _atom_site_fract_z
    _atom_site_occupancy
    Al1      Al       0.27673    0.07328    0.51482    1.000
    O1       O        0.30910    0.10410    0.56894    1.000
    C1       C        0.32460    0.10150    0.64753    1.000
    O2       O        0.35413    0.05828    0.51150    1.000
    C2       C        0.44070    0.94280    0.48560    1.000
    O3       O        0.24980    0.02720    0.47231    1.000
    C3       C        0.27990    0.06070    0.43830    1.000
    N1       N        0.32927    0.04213    0.62283    1.000
    N2       N        0.37140    0.87540    0.47120    1.000
    Al2      Al       0.94340    0.40661    0.84815    1.000
    O4       O        0.97577    0.43743    0.90227    1.000
    C4       C        0.99127    0.43483    0.98086    1.000
    O5       O        0.02080    0.39161    0.84483    1.000
    C5       C        0.10737    0.27613    0.81893    1.000
    O6       O        0.91647    0.36053    0.80564    1.000
    C6       C        0.94657    0.39403    0.77163    1.000
    N3       N        0.99594    0.37546    0.95616    1.000
    N4       N        0.03807    0.20873    0.80453    1.000
    Al3      Al       0.61006    0.73995    0.18149    1.000
    O7       O        0.64243    0.77077    0.23561    1.000
    C7       C        0.65793    0.76817    0.31420    1.000
    O8       O        0.68746    0.72495    0.17817    1.000
    C8       C        0.77403    0.60947    0.15227    1.000
    O9       O        0.58313    0.69387    0.13898    1.000
    C9       C        0.61323    0.72737    0.10497    1.000
    N5       N        0.66260    0.70880    0.28950    1.000
    N6       N        0.70473    0.54207    0.13787    1.000
    Al4      Al       0.92672    0.20345    0.51482    1.000
    O10      O        0.89590    0.20500    0.56894    1.000
    C10      C        0.89850    0.22310    0.64753    1.000
    O11      O        0.94172    0.29585    0.51150    1.000
    C11      C        0.05720    0.49790    0.48560    1.000
    O12      O        0.97280    0.22260    0.47231    1.000
    C12      C        0.93930    0.21920    0.43830    1.000
    N7       N        0.95787    0.28714    0.62283    1.000
    N8       N        0.12460    0.49600    0.47120    1.000
    Al5      Al       0.59339    0.53678    0.84815    1.000
    O13      O        0.56257    0.53833    0.90227    1.000
    C13      C        0.56517    0.55643    0.98086    1.000
    O14      O        0.60839    0.62918    0.84483    1.000
    C14      C        0.72387    0.83123    0.81893    1.000
    O15      O        0.63947    0.55593    0.80564    1.000
    C15      C        0.60597    0.55253    0.77163    1.000
    N9       N        0.62454    0.62047    0.95616    1.000
    N10      N        0.79127    0.82933    0.80453    1.000
    Al6      Al       0.26005    0.87012    0.18149    1.000
    O16      O        0.22923    0.87167    0.23561    1.000
    C16      C        0.23183    0.88977    0.31420    1.000
    O17      O        0.27505    0.96252    0.17817    1.000
    C17      C        0.39053    0.16457    0.15227    1.000
    O18      O        0.30613    0.88927    0.13898    1.000
    C18      C        0.27263    0.88587    0.10497    1.000
    N11      N        0.29120    0.95381    0.28950    1.000
    N12      N        0.45793    0.16267    0.13787    1.000
    Al7      Al       0.79655    0.72327    0.51482    1.000
    O19      O        0.79500    0.69090    0.56894    1.000
    C19      C        0.77690    0.67540    0.64753    1.000
    O20      O        0.70415    0.64587    0.51150    1.000
    C20      C        0.50210    0.55930    0.48560    1.000
    O21      O        0.77740    0.75020    0.47231    1.000
    C21      C        0.78080    0.72010    0.43830    1.000
    N13      N        0.71286    0.67073    0.62283    1.000
    N14      N        0.50400    0.62860    0.47120    1.000
    Al8      Al       0.46322    0.05660    0.84815    1.000
    O22      O        0.46167    0.02423    0.90227    1.000
    C22      C        0.44357    0.00873    0.98086    1.000
    O23      O        0.37082    0.97920    0.84483    1.000
    C23      C        0.16877    0.89263    0.81893    1.000
    O24      O        0.44407    0.08353    0.80564    1.000
    C24      C        0.44747    0.05343    0.77163    1.000
    N15      N        0.37953    0.00406    0.95616    1.000
    N16      N        0.17067    0.96193    0.80453    1.000
    Al9      Al       0.12988    0.38994    0.18149    1.000
    O25      O        0.12833    0.35757    0.23561    1.000
    C25      C        0.11023    0.34207    0.31420    1.000
    O26      O        0.03748    0.31254    0.17817    1.000
    C26      C        0.83543    0.22597    0.15227    1.000
    O27      O        0.11073    0.41687    0.13898    1.000
    C27      C        0.11413    0.38677    0.10497    1.000
    N17      N        0.04619    0.33740    0.28950    1.000
    N18      N        0.83733    0.29527    0.13787    1.000
    Al10     Al       0.07328    0.27673    0.48518    1.000
    O28      O        0.10410    0.30910    0.43106    1.000
    C28      C        0.10150    0.32460    0.35247    1.000
    O29      O        0.05828    0.35413    0.48850    1.000
    C29      C        0.94280    0.44070    0.51440    1.000
    O30      O        0.02720    0.24980    0.52769    1.000
    C30      C        0.06070    0.27990    0.56170    1.000
    N19      N        0.04213    0.32927    0.37717    1.000
    N20      N        0.87540    0.37140    0.52880    1.000
    Al11     Al       0.73995    0.61006    0.81851    1.000
    O31      O        0.77077    0.64243    0.76439    1.000
    C31      C        0.76817    0.65793    0.68580    1.000
    O32      O        0.72495    0.68746    0.82183    1.000
    C32      C        0.60947    0.77403    0.84773    1.000
    O33      O        0.69387    0.58313    0.86102    1.000
    C33      C        0.72737    0.61323    0.89503    1.000
    N21      N        0.70880    0.66260    0.71050    1.000
    N22      N        0.54207    0.70473    0.86213    1.000
    Al12     Al       0.40661    0.94340    0.15185    1.000
    O34      O        0.43743    0.97577    0.09773    1.000
    C34      C        0.43483    0.99127    0.01914    1.000
    O35      O        0.39161    0.02080    0.15517    1.000
    C35      C        0.27613    0.10737    0.18107    1.000
    O36      O        0.36053    0.91647    0.19436    1.000
    C36      C        0.39403    0.94657    0.22837    1.000
    N23      N        0.37546    0.99594    0.04384    1.000
    N24      N        0.20873    0.03807    0.19547    1.000
    Al13     Al       0.20345    0.92672    0.48518    1.000
    O37      O        0.20500    0.89590    0.43106    1.000
    C37      C        0.22310    0.89850    0.35247    1.000
    O38      O        0.29585    0.94172    0.48850    1.000
    C38      C        0.49790    0.05720    0.51440    1.000
    O39      O        0.22260    0.97280    0.52769    1.000
    C39      C        0.21920    0.93930    0.56170    1.000
    N25      N        0.28714    0.95787    0.37717    1.000
    N26      N        0.49600    0.12460    0.52880    1.000
    Al14     Al       0.87012    0.26005    0.81851    1.000
    O40      O        0.87167    0.22923    0.76439    1.000
    C40      C        0.88977    0.23183    0.68580    1.000
    O41      O        0.96252    0.27505    0.82183    1.000
    C41      C        0.16457    0.39053    0.84773    1.000
    O42      O        0.88927    0.30613    0.86102    1.000
    C42      C        0.88587    0.27263    0.89503    1.000
    N27      N        0.95381    0.29120    0.71050    1.000
    N28      N        0.16267    0.45793    0.86213    1.000
    Al15     Al       0.53678    0.59339    0.15185    1.000
    O43      O        0.53833    0.56257    0.09773    1.000
    C43      C        0.55643    0.56517    0.01914    1.000
    O44      O        0.62918    0.60839    0.15517    1.000
    C44      C        0.83123    0.72387    0.18107    1.000
    O45      O        0.55593    0.63947    0.19436    1.000
    C45      C        0.55253    0.60597    0.22837    1.000
    N29      N        0.62047    0.62454    0.04384    1.000
    N30      N        0.82933    0.79127    0.19547    1.000
    Al16     Al       0.72327    0.79655    0.48518    1.000
    O46      O        0.69090    0.79500    0.43106    1.000
    C46      C        0.67540    0.77690    0.35247    1.000
    O47      O        0.64587    0.70415    0.48850    1.000
    C47      C        0.55930    0.50210    0.51440    1.000
    O48      O        0.75020    0.77740    0.52769    1.000
    C48      C        0.72010    0.78080    0.56170    1.000
    N31      N        0.67073    0.71286    0.37717    1.000
    N32      N        0.62860    0.50400    0.52880    1.000
    Al17     Al       0.38994    0.12988    0.81851    1.000
    O49      O        0.35757    0.12833    0.76439    1.000
    C49      C        0.34207    0.11023    0.68580    1.000
    O50      O        0.31254    0.03748    0.82183    1.000
    C50      C        0.22597    0.83543    0.84773    1.000
    O51      O        0.41687    0.11073    0.86102    1.000
    C51      C        0.38677    0.11413    0.89503    1.000
    N33      N        0.33740    0.04619    0.71050    1.000
    N34      N        0.29527    0.83733    0.86213    1.000
    Al18     Al       0.05660    0.46322    0.15185    1.000
    O52      O        0.02423    0.46167    0.09773    1.000
    C52      C        0.00873    0.44357    0.01914    1.000
    O53      O        0.97920    0.37082    0.15517    1.000
    C53      C        0.89263    0.16877    0.18107    1.000
    O54      O        0.08353    0.44407    0.19436    1.000
    C54      C        0.05343    0.44747    0.22837    1.000
    N35      N        0.00406    0.37953    0.04384    1.000
    N36      N        0.96193    0.17067    0.19547    1.000
    Al19     Al       0.72327    0.92672    0.48518    1.000
    O55      O        0.69090    0.89590    0.43106    1.000
    C55      C        0.67540    0.89850    0.35247    1.000
    O56      O        0.64587    0.94172    0.48850    1.000
    C56      C        0.55930    0.05720    0.51440    1.000
    O57      O        0.75020    0.97280    0.52769    1.000
    C57      C        0.72010    0.93930    0.56170    1.000
    N37      N        0.67073    0.95787    0.37717    1.000
    N38      N        0.62860    0.12460    0.52880    1.000
    Al20     Al       0.38994    0.26005    0.81851    1.000
    O58      O        0.35757    0.22923    0.76439    1.000
    C58      C        0.34207    0.23183    0.68580    1.000
    O59      O        0.31254    0.27505    0.82183    1.000
    C59      C        0.22597    0.39053    0.84773    1.000
    O60      O        0.41687    0.30613    0.86102    1.000
    C60      C        0.38677    0.27263    0.89503    1.000
    N39      N        0.33740    0.29120    0.71050    1.000
    N40      N        0.29527    0.45793    0.86213    1.000
    Al21     Al       0.05660    0.59339    0.15185    1.000
    O61      O        0.02423    0.56257    0.09773    1.000
    C61      C        0.00873    0.56517    0.01914    1.000
    O62      O        0.97920    0.60839    0.15517    1.000
    C62      C        0.89263    0.72387    0.18107    1.000
    O63      O        0.08353    0.63947    0.19436    1.000
    C63      C        0.05343    0.60597    0.22837    1.000
    N41      N        0.00406    0.62454    0.04384    1.000
    N42      N        0.96193    0.79127    0.19547    1.000
    Al22     Al       0.07328    0.79655    0.48518    1.000
    O64      O        0.10410    0.79500    0.43106    1.000
    C64      C        0.10150    0.77690    0.35247    1.000
    O65      O        0.05828    0.70415    0.48850    1.000
    C65      C        0.94280    0.50210    0.51440    1.000
    O66      O        0.02720    0.77740    0.52769    1.000
    C66      C        0.06070    0.78080    0.56170    1.000
    N43      N        0.04213    0.71286    0.37717    1.000
    N44      N        0.87540    0.50400    0.52880    1.000
    Al23     Al       0.73995    0.12988    0.81851    1.000
    O67      O        0.77077    0.12833    0.76439    1.000
    C67      C        0.76817    0.11023    0.68580    1.000
    O68      O        0.72495    0.03748    0.82183    1.000
    C68      C        0.60947    0.83543    0.84773    1.000
    O69      O        0.69387    0.11073    0.86102    1.000
    C69      C        0.72737    0.11413    0.89503    1.000
    N45      N        0.70880    0.04619    0.71050    1.000
    N46      N        0.54207    0.83733    0.86213    1.000
    Al24     Al       0.40661    0.46322    0.15185    1.000
    O70      O        0.43743    0.46167    0.09773    1.000
    C70      C        0.43483    0.44357    0.01914    1.000
    O71      O        0.39161    0.37082    0.15517    1.000
    C71      C        0.27613    0.16877    0.18107    1.000
    O72      O        0.36053    0.44407    0.19436    1.000
    C72      C        0.39403    0.44747    0.22837    1.000
    N47      N        0.37546    0.37953    0.04384    1.000
    N48      N        0.20873    0.17067    0.19547    1.000
    Al25     Al       0.20345    0.27673    0.48518    1.000
    O73      O        0.20500    0.30910    0.43106    1.000
    C73      C        0.22310    0.32460    0.35247    1.000
    O74      O        0.29585    0.35413    0.48850    1.000
    C74      C        0.49790    0.44070    0.51440    1.000
    O75      O        0.22260    0.24980    0.52769    1.000
    C75      C        0.21920    0.27990    0.56170    1.000
    N49      N        0.28714    0.32927    0.37717    1.000
    N50      N        0.49600    0.37140    0.52880    1.000
    Al26     Al       0.87012    0.61006    0.81851    1.000
    O76      O        0.87167    0.64243    0.76439    1.000
    C76      C        0.88977    0.65793    0.68580    1.000
    O77      O        0.96252    0.68746    0.82183    1.000
    C77      C        0.16457    0.77403    0.84773    1.000
    O78      O        0.88927    0.58313    0.86102    1.000
    C78      C        0.88587    0.61323    0.89503    1.000
    N51      N        0.95381    0.66260    0.71050    1.000
    N52      N        0.16267    0.70473    0.86213    1.000
    Al27     Al       0.53678    0.94340    0.15185    1.000
    O79      O        0.53833    0.97577    0.09773    1.000
    C79      C        0.55643    0.99127    0.01914    1.000
    O80      O        0.62918    0.02080    0.15517    1.000
    C80      C        0.83123    0.10737    0.18107    1.000
    O81      O        0.55593    0.91647    0.19436    1.000
    C81      C        0.55253    0.94657    0.22837    1.000
    N53      N        0.62047    0.99594    0.04384    1.000
    N54      N        0.82933    0.03807    0.19547    1.000
    Al28     Al       0.92672    0.72327    0.51482    1.000
    O82      O        0.89590    0.69090    0.56894    1.000
    C82      C        0.89850    0.67540    0.64753    1.000
    O83      O        0.94172    0.64587    0.51150    1.000
    C83      C        0.05720    0.55930    0.48560    1.000
    O84      O        0.97280    0.75020    0.47231    1.000
    C84      C        0.93930    0.72010    0.43830    1.000
    N55      N        0.95787    0.67073    0.62283    1.000
    N56      N        0.12460    0.62860    0.47120    1.000
    Al29     Al       0.59339    0.05660    0.84815    1.000
    O85      O        0.56257    0.02423    0.90227    1.000
    C85      C        0.56517    0.00873    0.98086    1.000
    O86      O        0.60839    0.97920    0.84483    1.000
    C86      C        0.72387    0.89263    0.81893    1.000
    O87      O        0.63947    0.08353    0.80564    1.000
    C87      C        0.60597    0.05343    0.77163    1.000
    N57      N        0.62454    0.00406    0.95616    1.000
    N58      N        0.79127    0.96193    0.80453    1.000
    Al30     Al       0.26005    0.38994    0.18149    1.000
    O88      O        0.22923    0.35757    0.23561    1.000
    C88      C        0.23183    0.34207    0.31420    1.000
    O89      O        0.27505    0.31254    0.17817    1.000
    C89      C        0.39053    0.22597    0.15227    1.000
    O90      O        0.30613    0.41687    0.13898    1.000
    C90      C        0.27263    0.38677    0.10497    1.000
    N59      N        0.29120    0.33740    0.28950    1.000
    N60      N        0.45793    0.29527    0.13787    1.000
    Al31     Al       0.79655    0.07328    0.51482    1.000
    O91      O        0.79500    0.10410    0.56894    1.000
    C91      C        0.77690    0.10150    0.64753    1.000
    O92      O        0.70415    0.05828    0.51150    1.000
    C92      C        0.50210    0.94280    0.48560    1.000
    O93      O        0.77740    0.02720    0.47231    1.000
    C93      C        0.78080    0.06070    0.43830    1.000
    N61      N        0.71286    0.04213    0.62283    1.000
    N62      N        0.50400    0.87540    0.47120    1.000
    Al32     Al       0.46322    0.40661    0.84815    1.000
    O94      O        0.46167    0.43743    0.90227    1.000
    C94      C        0.44357    0.43483    0.98086    1.000
    O95      O        0.37082    0.39161    0.84483    1.000
    C95      C        0.16877    0.27613    0.81893    1.000
    O96      O        0.44407    0.36053    0.80564    1.000
    C96      C        0.44747    0.39403    0.77163    1.000
    N63      N        0.37953    0.37546    0.95616    1.000
    N64      N        0.17067    0.20873    0.80453    1.000
    Al33     Al       0.12988    0.73995    0.18149    1.000
    O97      O        0.12833    0.77077    0.23561    1.000
    C97      C        0.11023    0.76817    0.31420    1.000
    O98      O        0.03748    0.72495    0.17817    1.000
    C98      C        0.83543    0.60947    0.15227    1.000
    O99      O        0.11073    0.69387    0.13898    1.000
    C99      C        0.11413    0.72737    0.10497    1.000
    N65      N        0.04619    0.70880    0.28950    1.000
    N66      N        0.83733    0.54207    0.13787    1.000
    Al34     Al       0.27673    0.20345    0.51482    1.000
    O100     O        0.30910    0.20500    0.56894    1.000
    C100     C        0.32460    0.22310    0.64753    1.000
    O101     O        0.35413    0.29585    0.51150    1.000
    C101     C        0.44070    0.49790    0.48560    1.000
    O102     O        0.24980    0.22260    0.47231    1.000
    C102     C        0.27990    0.21920    0.43830    1.000
    N67      N        0.32927    0.28714    0.62283    1.000
    N68      N        0.37140    0.49600    0.47120    1.000
    Al35     Al       0.94340    0.53678    0.84815    1.000
    O103     O        0.97577    0.53833    0.90227    1.000
    C103     C        0.99127    0.55643    0.98086    1.000
    O104     O        0.02080    0.62918    0.84483    1.000
    C104     C        0.10737    0.83123    0.81893    1.000
    O105     O        0.91647    0.55593    0.80564    1.000
    C105     C        0.94657    0.55253    0.77163    1.000
    N69      N        0.99594    0.62047    0.95616    1.000
    N70      N        0.03807    0.82933    0.80453    1.000
    Al36     Al       0.61006    0.87012    0.18149    1.000
    O106     O        0.64243    0.87167    0.23561    1.000
    C106     C        0.65793    0.88977    0.31420    1.000
    O107     O        0.68746    0.96252    0.17817    1.000
    C107     C        0.77403    0.16457    0.15227    1.000
    O108     O        0.58313    0.88927    0.13898    1.000
    C108     C        0.61323    0.88587    0.10497    1.000
    N71      N        0.66260    0.95381    0.28950    1.000
    N72      N        0.70473    0.16267    0.13787    1.000
    C109     C        0.31580    0.15790    0.58680    1.000
    C110     C        0.33190    0.16595    0.63200    1.000
    O109     O        0.33150    0.16575    0.50190    1.000
    C111     C        0.38640    0.19320    0.47730    1.000
    O110     O        0.19670    0.09835    0.52002    1.000
    C112     C        0.98247    0.49123    0.92013    1.000
    C113     C        0.99857    0.49928    0.96533    1.000
    O111     O        0.99817    0.49908    0.83523    1.000
    C114     C        0.05307    0.52653    0.81063    1.000
    O112     O        0.86337    0.43168    0.85335    1.000
    C115     C        0.64913    0.82457    0.25347    1.000
    C116     C        0.66523    0.83262    0.29867    1.000
    O113     O        0.66483    0.83242    0.16857    1.000
    C117     C        0.71973    0.85987    0.14397    1.000
    O114     O        0.53003    0.76502    0.18669    1.000
    C118     C        0.84210    0.15790    0.58680    1.000
    C119     C        0.83405    0.16595    0.63200    1.000
    O115     O        0.83425    0.16575    0.50190    1.000
    C120     C        0.80680    0.19320    0.47730    1.000
    O116     O        0.90165    0.09835    0.52002    1.000
    C121     C        0.50877    0.49123    0.92013    1.000
    C122     C        0.50072    0.49928    0.96533    1.000
    O117     O        0.50092    0.49908    0.83523    1.000
    C123     C        0.47347    0.52653    0.81063    1.000
    O118     O        0.56832    0.43168    0.85335    1.000
    C124     C        0.17543    0.82457    0.25347    1.000
    C125     C        0.16738    0.83262    0.29867    1.000
    O119     O        0.16758    0.83242    0.16857    1.000
    C126     C        0.14013    0.85987    0.14397    1.000
    O120     O        0.23498    0.76502    0.18669    1.000
    C127     C        0.84210    0.68420    0.58680    1.000
    C128     C        0.83405    0.66810    0.63200    1.000
    O121     O        0.83425    0.66850    0.50190    1.000
    C129     C        0.80680    0.61360    0.47730    1.000
    O122     O        0.90165    0.80330    0.52002    1.000
    C130     C        0.50877    0.01753    0.92013    1.000
    C131     C        0.50072    0.00143    0.96533    1.000
    O123     O        0.50092    0.00183    0.83523    1.000
    C132     C        0.47347    0.94693    0.81063    1.000
    O124     O        0.56832    0.13663    0.85335    1.000
    C133     C        0.17543    0.35087    0.25347    1.000
    C134     C        0.16738    0.33477    0.29867    1.000
    O125     O        0.16758    0.33517    0.16857    1.000
    C135     C        0.14013    0.28027    0.14397    1.000
    O126     O        0.23498    0.46997    0.18669    1.000
    C136     C        0.15790    0.31580    0.41320    1.000
    C137     C        0.16595    0.33190    0.36800    1.000
    O127     O        0.16575    0.33150    0.49810    1.000
    C138     C        0.19320    0.38640    0.52270    1.000
    O128     O        0.09835    0.19670    0.47998    1.000
    C139     C        0.82457    0.64913    0.74653    1.000
    C140     C        0.83262    0.66523    0.70133    1.000
    O129     O        0.83242    0.66483    0.83143    1.000
    C141     C        0.85987    0.71973    0.85603    1.000
    O130     O        0.76502    0.53003    0.81331    1.000
    C142     C        0.49123    0.98247    0.07987    1.000
    C143     C        0.49928    0.99857    0.03467    1.000
    O131     O        0.49908    0.99817    0.16477    1.000
    C144     C        0.52653    0.05307    0.18937    1.000
    O132     O        0.43168    0.86337    0.14665    1.000
    C145     C        0.15790    0.84210    0.41320    1.000
    C146     C        0.16595    0.83405    0.36800    1.000
    O133     O        0.16575    0.83425    0.49810    1.000
    C147     C        0.19320    0.80680    0.52270    1.000
    O134     O        0.09835    0.90165    0.47998    1.000
    C148     C        0.82457    0.17543    0.74653    1.000
    C149     C        0.83262    0.16738    0.70133    1.000
    O135     O        0.83242    0.16758    0.83143    1.000
    C150     C        0.85987    0.14013    0.85603    1.000
    O136     O        0.76502    0.23498    0.81331    1.000
    C151     C        0.49123    0.50877    0.07987    1.000
    C152     C        0.49928    0.50072    0.03467    1.000
    O137     O        0.49908    0.50092    0.16477    1.000
    C153     C        0.52653    0.47347    0.18937    1.000
    O138     O        0.43168    0.56832    0.14665    1.000
    C154     C        0.68420    0.84210    0.41320    1.000
    C155     C        0.66810    0.83405    0.36800    1.000
    O139     O        0.66850    0.83425    0.49810    1.000
    C156     C        0.61360    0.80680    0.52270    1.000
    O140     O        0.80330    0.90165    0.47998    1.000
    C157     C        0.35087    0.17543    0.74653    1.000
    C158     C        0.33477    0.16738    0.70133    1.000
    O141     O        0.33517    0.16758    0.83143    1.000
    C159     C        0.28027    0.14013    0.85603    1.000
    O142     O        0.46997    0.23498    0.81331    1.000
    C160     C        0.01753    0.50877    0.07987    1.000
    C161     C        0.00143    0.50072    0.03467    1.000
    O143     O        0.00183    0.50092    0.16477    1.000
    C162     C        0.94693    0.47347    0.18937    1.000
    O144     O        0.13663    0.56832    0.14665    1.000
    C163     C        0.36440    0.00000    0.50000    1.000
    C164     C        0.43750    0.00000    0.50000    1.000
    C165     C        0.03107    0.33333    0.83333    1.000
    C166     C        0.10417    0.33333    0.83333    1.000
    C167     C        0.69773    0.66667    0.16667    1.000
    C168     C        0.77083    0.66667    0.16667    1.000
    C169     C        0.00000    0.36440    0.50000    1.000
    C170     C        0.00000    0.43750    0.50000    1.000
    C171     C        0.66667    0.69773    0.83333    1.000
    C172     C        0.66667    0.77083    0.83333    1.000
    C173     C        0.33333    0.03107    0.16667    1.000
    C174     C        0.33333    0.10417    0.16667    1.000
    C175     C        0.63560    0.63560    0.50000    1.000
    C176     C        0.56250    0.56250    0.50000    1.000
    C177     C        0.30227    0.96893    0.83333    1.000
    C178     C        0.22917    0.89583    0.83333    1.000
    C179     C        0.96893    0.30227    0.16667    1.000
    C180     C        0.89583    0.22917    0.16667    1.000
    C181     C        0.63560    0.00000    0.50000    1.000
    C182     C        0.56250    0.00000    0.50000    1.000
    C183     C        0.30227    0.33333    0.83333    1.000
    C184     C        0.22917    0.33333    0.83333    1.000
    C185     C        0.96893    0.66667    0.16667    1.000
    C186     C        0.89583    0.66667    0.16667    1.000
    C187     C        0.00000    0.63560    0.50000    1.000
    C188     C        0.00000    0.56250    0.50000    1.000
    C189     C        0.66667    0.96893    0.83333    1.000
    C190     C        0.66667    0.89583    0.83333    1.000
    C191     C        0.33333    0.30227    0.16667    1.000
    C192     C        0.33333    0.22917    0.16667    1.000
    C193     C        0.36440    0.36440    0.50000    1.000
    C194     C        0.43750    0.43750    0.50000    1.000
    C195     C        0.03107    0.69773    0.83333    1.000
    C196     C        0.10417    0.77083    0.83333    1.000
    C197     C        0.69773    0.03107    0.16667    1.000
    C198     C        0.77083    0.10417    0.16667    1.000
