data_functionalizedCrystal
_audit_creation_method	'EQeq! by Chris Wilmer'
_symmetry_space_group_name_H-M	'P1'
_symmetry_Int_Tables_number	1
_symmetry_cell_setting	triclinic
loop_
_symmetry_equiv_pos_as_xyz
  x,y,z
_cell_length_a	13.9876
_cell_length_b	13.9876
_cell_length_c	16.3093
_cell_angle_alpha	90
_cell_angle_beta	90
_cell_angle_gamma	120
loop_
_atom_site_label
_atom_site_type_symbol
_atom_site_fract_x
_atom_site_fract_y
_atom_site_fract_z
_atom_site_charge
Mof_Cu	Cu	0.37349	0.44462	0.55991	0.829
Mof_N 	N 	0.0744	0.4217	0.4863	-0.265
Mof_N 	N 	0.1269	0.5169	0.5307	-0.178
Mof_N 	N 	0.2209	0.5297	0.5565	-0.159
Mof_N 	N 	0.2339	0.4479	0.5301	-0.244
Mof_N 	N 	0.1999	0.6454	0.7099	-0.153
Mof_N 	N 	0.1024	0.6279	0.6834	-0.218
Mof_C 	C 	0.1427	0.3812	0.4873	0.241
Mof_C 	C 	0.1193	0.2733	0.448	-0.714
Mof_H 	H 	0.1877	0.2773	0.4334	0.199
Mof_H 	H 	0.0753	0.2604	0.3997	0.2
Mof_H 	H 	0.08	0.2139	0.4861	0.194
Mof_Cu	Cu	0.55538	0.92887	0.55991	0.83
Mof_N 	N 	0.5783	0.6527	0.4863	-0.265
Mof_N 	N 	0.4831	0.61	0.5307	-0.177
Mof_N 	N 	0.4703	0.6912	0.5565	-0.158
Mof_N 	N 	0.5521	0.786	0.5301	-0.243
Mof_N 	N 	0.3546	0.5545	0.7099	-0.152
Mof_N 	N 	0.3721	0.4745	0.6834	-0.218
Mof_C 	C 	0.6188	0.7615	0.4873	0.242
Mof_C 	C 	0.7267	0.846	0.448	-0.714
Mof_H 	H 	0.7227	0.9104	0.4334	0.199
Mof_H 	H 	0.7396	0.8149	0.3997	0.2
Mof_H 	H 	0.7861	0.8661	0.4861	0.194
Mof_Cu	Cu	0.07113	0.62651	0.55991	0.83
Mof_N 	N 	0.3473	0.9256	0.4863	-0.264
Mof_N 	N 	0.39	0.8731	0.5307	-0.177
Mof_N 	N 	0.3088	0.7791	0.5565	-0.158
Mof_N 	N 	0.214	0.7661	0.5301	-0.243
Mof_N 	N 	0.4455	0.8001	0.7099	-0.152
Mof_N 	N 	0.5255	0.8976	0.6834	-0.217
Mof_C 	C 	0.2385	0.8573	0.4873	0.242
Mof_C 	C 	0.154	0.8807	0.448	-0.715
Mof_H 	H 	0.0896	0.8123	0.4334	0.199
Mof_H 	H 	0.1851	0.9247	0.3997	0.2
Mof_H 	H 	0.1339	0.92	0.4861	0.194
Mof_Cu	Cu	0.62651	0.55538	0.05991	0.83
Mof_N 	N 	0.9256	0.5783	0.9863	-0.263
Mof_N 	N 	0.8731	0.4831	0.0307	-0.178
Mof_N 	N 	0.7791	0.4703	0.0565	-0.158
Mof_N 	N 	0.7661	0.5521	0.0301	-0.243
Mof_N 	N 	0.8001	0.3546	0.2099	-0.152
Mof_N 	N 	0.8976	0.3721	0.1834	-0.218
Mof_C 	C 	0.8573	0.6188	0.9873	0.243
Mof_C 	C 	0.8807	0.7267	0.948	-0.714
Mof_H 	H 	0.8123	0.7227	0.9334	0.199
Mof_H 	H 	0.9247	0.7396	0.8997	0.2
Mof_H 	H 	0.92	0.7861	0.9861	0.193
Mof_Cu	Cu	0.44462	0.07113	0.05991	0.829
Mof_N 	N 	0.4217	0.3473	0.9863	-0.265
Mof_N 	N 	0.5169	0.39	0.0307	-0.177
Mof_N 	N 	0.5297	0.3088	0.0565	-0.158
Mof_N 	N 	0.4479	0.214	0.0301	-0.243
Mof_N 	N 	0.6454	0.4455	0.2099	-0.152
Mof_N 	N 	0.6279	0.5255	0.1834	-0.218
Mof_C 	C 	0.3812	0.2385	0.9873	0.243
Mof_C 	C 	0.2733	0.154	0.948	-0.715
Mof_H 	H 	0.2773	0.0896	0.9334	0.199
Mof_H 	H 	0.2604	0.1851	0.8997	0.2
Mof_H 	H 	0.2139	0.1339	0.9861	0.193
Mof_Cu	Cu	0.92887	0.37349	0.05991	0.829
Mof_N 	N 	0.6527	0.0744	0.9863	-0.264
Mof_N 	N 	0.61	0.1269	0.0307	-0.179
Mof_N 	N 	0.6912	0.2209	0.0565	-0.158
Mof_N 	N 	0.786	0.2339	0.0301	-0.245
Mof_N 	N 	0.5545	0.1999	0.2099	-0.152
Mof_N 	N 	0.4745	0.1024	0.1834	-0.218
Mof_C 	C 	0.7615	0.1427	0.9873	0.246
Mof_C 	C 	0.846	0.1193	0.948	-0.72
Mof_H 	H 	0.9104	0.1877	0.9334	0.201
Mof_H 	H 	0.8149	0.0753	0.8997	0.202
Mof_H 	H 	0.8661	0.08	0.9861	0.197
Mof_Cu	Cu	0.62651	0.55538	0.44009	0.83
Mof_N 	N 	0.9256	0.5783	0.5137	-0.264
Mof_N 	N 	0.8731	0.4831	0.4693	-0.177
Mof_N 	N 	0.7791	0.4703	0.4435	-0.158
Mof_N 	N 	0.7661	0.5521	0.4699	-0.243
Mof_N 	N 	0.8001	0.3546	0.2901	-0.152
Mof_N 	N 	0.8976	0.3721	0.3166	-0.217
Mof_C 	C 	0.8573	0.6188	0.5127	0.242
Mof_C 	C 	0.8807	0.7267	0.552	-0.714
Mof_H 	H 	0.8123	0.7227	0.5666	0.199
Mof_H 	H 	0.9247	0.7396	0.6003	0.2
Mof_H 	H 	0.92	0.7861	0.5139	0.194
Mof_Cu	Cu	0.44462	0.07113	0.44009	0.83
Mof_N 	N 	0.4217	0.3473	0.5137	-0.265
Mof_N 	N 	0.5169	0.39	0.4693	-0.177
Mof_N 	N 	0.5297	0.3088	0.4435	-0.158
Mof_N 	N 	0.4479	0.214	0.4699	-0.243
Mof_N 	N 	0.6454	0.4455	0.2901	-0.152
Mof_N 	N 	0.6279	0.5255	0.3166	-0.218
Mof_C 	C 	0.3812	0.2385	0.5127	0.242
Mof_C 	C 	0.2733	0.154	0.552	-0.714
Mof_H 	H 	0.2773	0.0896	0.5666	0.199
Mof_H 	H 	0.2604	0.1851	0.6003	0.2
Mof_H 	H 	0.2139	0.1339	0.5139	0.194
Mof_Cu	Cu	0.92887	0.37349	0.44009	0.83
Mof_N 	N 	0.6527	0.0744	0.5137	-0.264
Mof_N 	N 	0.61	0.1269	0.4693	-0.177
Mof_N 	N 	0.6912	0.2209	0.4435	-0.158
Mof_N 	N 	0.786	0.2339	0.4699	-0.243
Mof_N 	N 	0.5545	0.1999	0.2901	-0.152
Mof_N 	N 	0.4745	0.1024	0.3166	-0.217
Mof_C 	C 	0.7615	0.1427	0.5127	0.242
Mof_C 	C 	0.846	0.1193	0.552	-0.715
Mof_H 	H 	0.9104	0.1877	0.5666	0.199
Mof_H 	H 	0.8149	0.0753	0.6003	0.2
Mof_H 	H 	0.8661	0.08	0.5139	0.194
Mof_Cu	Cu	0.37349	0.44462	0.94009	0.83
Mof_N 	N 	0.0744	0.4217	0.0137	-0.263
Mof_N 	N 	0.1269	0.5169	0.9693	-0.178
Mof_N 	N 	0.2209	0.5297	0.9435	-0.158
Mof_N 	N 	0.2339	0.4479	0.9699	-0.243
Mof_N 	N 	0.1999	0.6454	0.7901	-0.152
Mof_N 	N 	0.1024	0.6279	0.8166	-0.218
Mof_C 	C 	0.1427	0.3812	0.0127	0.243
Mof_C 	C 	0.1193	0.2733	0.052	-0.714
Mof_H 	H 	0.1877	0.2773	0.0666	0.199
Mof_H 	H 	0.0753	0.2604	0.1003	0.2
Mof_H 	H 	0.08	0.2139	0.0139	0.193
Mof_Cu	Cu	0.55538	0.92887	0.94009	0.829
Mof_N 	N 	0.5783	0.6527	0.0137	-0.265
Mof_N 	N 	0.4831	0.61	0.9693	-0.177
Mof_N 	N 	0.4703	0.6912	0.9435	-0.158
Mof_N 	N 	0.5521	0.786	0.9699	-0.243
Mof_N 	N 	0.3546	0.5545	0.7901	-0.152
Mof_N 	N 	0.3721	0.4745	0.8166	-0.218
Mof_C 	C 	0.6188	0.7615	0.0127	0.243
Mof_C 	C 	0.7267	0.846	0.052	-0.715
Mof_H 	H 	0.7227	0.9104	0.0666	0.199
Mof_H 	H 	0.7396	0.8149	0.1003	0.2
Mof_H 	H 	0.7861	0.8661	0.0139	0.193
Mof_Cu	Cu	0.07113	0.62651	0.94009	0.829
Mof_N 	N 	0.3473	0.9256	0.0137	-0.264
Mof_N 	N 	0.39	0.8731	0.9693	-0.179
Mof_N 	N 	0.3088	0.7791	0.9435	-0.158
Mof_N 	N 	0.214	0.7661	0.9699	-0.245
Mof_N 	N 	0.4455	0.8001	0.7901	-0.152
Mof_N 	N 	0.5255	0.8976	0.8166	-0.218
Mof_C 	C 	0.2385	0.8573	0.0127	0.246
Mof_C 	C 	0.154	0.8807	0.052	-0.72
Mof_H 	H 	0.0896	0.8123	0.0666	0.201
Mof_H 	H 	0.1851	0.9247	0.1003	0.202
Mof_H 	H 	0.1339	0.92	0.0139	0.197
Mof_Cu	Cu	0.33333	0.66667	0.63032	0.839
Mof_Cu	Cu	0.66667	0.33333	0.13032	0.839
Mof_Cu	Cu	0.66667	0.33333	0.36968	0.839
Mof_Cu	Cu	0.33333	0.66667	0.86968	0.839
Mof_C 	C 	0.0459	0.618	0.75	0.116
Mof_C 	C 	0.9287	0.6	0.75	-0.151
Mof_C 	C 	0.382	0.4279	0.75	0.117
Mof_C 	C 	0.4	0.3287	0.75	-0.152
Mof_C 	C 	0.5721	0.9541	0.75	0.116
Mof_C 	C 	0.6713	0.0713	0.75	-0.151
Mof_C 	C 	0.9541	0.382	0.25	0.116
Mof_C 	C 	0.0713	0.4	0.25	-0.151
Mof_C 	C 	0.618	0.5721	0.25	0.117
Mof_C 	C 	0.6	0.6713	0.25	-0.152
Mof_C 	C 	0.4279	0.0459	0.25	0.116
Mof_C 	C 	0.3287	0.9287	0.25	-0.151
_end
