# CIF file generated by openbabel 3.1.0, see https://openbabel.org
data_I
_chemical_name_common 'image0'
_cell_length_a 46.374
_cell_length_b 51.581
_cell_length_c 53.407
_cell_angle_alpha 90
_cell_angle_beta 90
_cell_angle_gamma 90
_space_group_name_H-M_alt 'P 1'
_space_group_name_Hall 'P 1'
loop_
    _symmetry_equiv_pos_as_xyz
    x,y,z
loop_
    _atom_site_label
    _atom_site_type_symbol
    _atom_site_fract_x
    _atom_site_fract_y
    _atom_site_fract_z
    _atom_site_occupancy
    C1       C        0.49490    0.52040    0.79100    1.000
    C2       C        0.46990    0.51670    0.77670    1.000
    C3       C        0.44310    0.51130    0.78750    1.000
    C4       C        0.44150    0.50730    0.81310    1.000
    C5       C        0.46510    0.50990    0.82800    1.000
    C6       C        0.49120    0.51770    0.81700    1.000
    C7       C        0.76840    0.50960    0.93440    1.000
    C8       C        0.76730    0.49580    0.95680    1.000
    C9       C        0.76130    0.46790    0.95690    1.000
    C10      C        0.75750    0.45450    0.93670    1.000
    C11      C        0.75920    0.46940    0.91520    1.000
    C12      C        0.76540    0.49580    0.91410    1.000
    C13      C        0.66170    0.49560    0.95080    1.000
    C14      C        0.63520    0.48530    0.95330    1.000
    C15      C        0.62610    0.46040    0.96650    1.000
    C16      C        0.64810    0.44980    0.97890    1.000
    C17      C        0.67730    0.45620    0.97540    1.000
    C18      C        0.68390    0.47720    0.96050    1.000
    C19      C        0.47890    0.59710    0.80820    1.000
    C20      C        0.45600    0.57980    0.80250    1.000
    C21      C        0.43530    0.58870    0.78520    1.000
    C22      C        0.43640    0.61500    0.77350    1.000
    C23      C        0.46000    0.63090    0.77900    1.000
    C24      C        0.48130    0.62170    0.79740    1.000
    C25      C        0.50670    0.51460    0.88740    1.000
    C26      C        0.50970    0.49000    0.88150    1.000
    C27      C        0.48670    0.47200    0.89180    1.000
    C28      C        0.46480    0.48320    0.90850    1.000
    C29      C        0.45970    0.51070    0.90890    1.000
    C30      C        0.48160    0.52640    0.89400    1.000
    C31      C        0.49030    0.56340    0.94870    1.000
    C32      C        0.50560    0.54470    0.95840    1.000
    C33      C        0.49440    0.52590    0.97370    1.000
    C34      C        0.46500    0.52790    0.98290    1.000
    C35      C        0.44640    0.54650    0.97230    1.000
    C36      C        0.46030    0.56550    0.95410    1.000
    C37      C        0.54460    0.58460    0.00300    1.000
    C38      C        0.55840    0.56210    0.00840    1.000
    C39      C        0.54660    0.54360    0.02360    1.000
    C40      C        0.51960    0.54870    0.03540    1.000
    C41      C        0.50750    0.57190    0.03070    1.000
    C42      C        0.51690    0.58600    0.01300    1.000
    C43      C        0.59410    0.47600    0.90160    1.000
    C44      C        0.57250    0.48420    0.91700    1.000
    C45      C        0.55560    0.46640    0.93350    1.000
    C46      C        0.56370    0.43800    0.93110    1.000
    C47      C        0.58940    0.43140    0.91420    1.000
    C48      C        0.60270    0.45060    0.89750    1.000
    C49      C        0.58470    0.45270    0.83180    1.000
    C50      C        0.57200    0.42830    0.83830    1.000
    C51      C        0.59400    0.41090    0.84340    1.000
    C52      C        0.62190    0.41380    0.83610    1.000
    C53      C        0.63280    0.43640    0.83200    1.000
    C54      C        0.61260    0.45910    0.82870    1.000
    C55      C        0.53664    0.61283    0.75344    1.000
    C56      C        0.53030    0.63916    0.75350    1.000
    C57      C        0.50810    0.64867    0.73858    1.000
    C58      C        0.49230    0.63180    0.72359    1.000
    C59      C        0.49870    0.60550    0.72353    1.000
    C60      C        0.52082    0.59600    0.73845    1.000
    C61      C        0.60850    0.51531    0.74000    1.000
    C62      C        0.59130    0.53678    0.73510    1.000
    C63      C        0.58720    0.54509    0.71063    1.000
    C64      C        0.60030    0.53190    0.69100    1.000
    C65      C        0.61750    0.51050    0.69580    1.000
    C66      C        0.62170    0.50220    0.72030    1.000
    C67      C        0.67500    0.56139    0.75390    1.000
    C68      C        0.67230    0.55115    0.72990    1.000
    C69      C        0.69600    0.53968    0.71840    1.000
    C70      C        0.72230    0.53844    0.73080    1.000
    C71      C        0.72500    0.54867    0.75470    1.000
    C72      C        0.70130    0.56015    0.76630    1.000
    C73      C        0.45610    0.64820    0.87170    1.000
    C74      C        0.45860    0.62690    0.85590    1.000
    C75      C        0.43580    0.62020    0.84030    1.000
    C76      C        0.41070    0.63490    0.84030    1.000
    C77      C        0.40820    0.65620    0.85610    1.000
    C78      C        0.43100    0.66290    0.87170    1.000
    C79      C        0.63370    0.55170    0.01040    1.000
    C80      C        0.62440    0.52930    0.99830    1.000
    C81      C        0.61500    0.50720    0.01540    1.000
    C82      C        0.61710    0.50850    0.04080    1.000
    C83      C        0.62610    0.53100    0.05050    1.000
    C84      C        0.63700    0.55260    0.03540    1.000
    C85      C        0.72350    0.56060    0.02240    1.000
    C86      C        0.73570    0.54900    0.04280    1.000
    C87      C        0.73530    0.56230    0.06720    1.000
    C88      C        0.72430    0.58860    0.06900    1.000
    C89      C        0.71530    0.60170    0.04520    1.000
    C90      C        0.71370    0.58650    0.02390    1.000
    C91      C        0.75020    0.52900    0.85290    1.000
    C92      C        0.75900    0.50380    0.84770    1.000
    C93      C        0.78150    0.49940    0.83100    1.000
    C94      C        0.79520    0.52020    0.81960    1.000
    C95      C        0.78640    0.54540    0.82480    1.000
    C96      C        0.76400    0.54980    0.84150    1.000
    C97      C        0.80330    0.61970    0.96650    1.000
    C98      C        0.82550    0.62910    0.98300    1.000
    C99      C        0.85420    0.63550    0.97400    1.000
    C100     C        0.85890    0.63520    0.94580    1.000
    C101     C        0.83530    0.62450    0.92810    1.000
    C102     C        0.80850    0.61750    0.94040    1.000
    C103     C        0.58880    0.44010    0.74710    1.000
    C104     C        0.59470    0.44450    0.72040    1.000
    C105     C        0.62280    0.43710    0.71170    1.000
    C106     C        0.64320    0.42870    0.72740    1.000
    C107     C        0.63760    0.42340    0.75370    1.000
    C108     C        0.60970    0.43040    0.76430    1.000
    Cd1      Cd       0.60641    0.58980    0.85400    1.000
    Cd2      Cd       0.54925    0.56788    0.90800    1.000
    Cd3      Cd       0.66414    0.60793    0.90674    1.000
    Cd4      Cd       0.60245    0.58839    0.96000    1.000
    Cd5      Cd       0.62675    0.53699    0.91043    1.000
    Cd6      Cd       0.52657    0.62468    0.85291    1.000
    Cd7      Cd       0.66788    0.61063    0.79957    1.000
    Cd8      Cd       0.68306    0.55938    0.96597    1.000
    Cd9      Cd       0.72996    0.62762    0.95255    1.000
    Cd10     Cd       0.54319    0.56778    0.80359    1.000
    Cd11     Cd       0.62619    0.54290    0.79471    1.000
    Cd12     Cd       0.68458    0.55729    0.84955    1.000
    Cd13     Cd       0.73966    0.56508    0.90576    1.000
    Cd14     Cd       0.57589    0.51496    0.85397    1.000
    S1       S        0.64599    0.57106    0.88030    1.000
    S2       S        0.58784    0.55345    0.82662    1.000
    S3       S        0.56571    0.60581    0.88070    1.000
    S4       S        0.58547    0.54980    0.93716    1.000
    S5       S        0.70446    0.58943    0.93315    1.000
    S6       S        0.61439    0.49823    0.88251    1.000
    S7       S        0.70761    0.59103    0.82358    1.000
    S8       S        0.55987    0.60914    0.98279    1.000
    S9       S        0.64297    0.57906    0.99166    1.000
    S10      S        0.67157    0.52354    0.93524    1.000
    S11      S        0.50228    0.58533    0.92669    1.000
    S12      S        0.53232    0.53638    0.87386    1.000
    Cd15     Cd       0.76865    0.56045    0.97596    1.000
    Cd16     Cd       0.56125    0.49211    0.78198    1.000
    S13      S        0.72236    0.54237    0.99463    1.000
    S14      S        0.52641    0.52976    0.77631    1.000
    S15      S        0.65998    0.52063    0.82542    1.000
    S16      S        0.50359    0.58595    0.83051    1.000
    S17      S        0.49224    0.64271    0.88632    1.000
    S18      S        0.77042    0.61007    0.97849    1.000
    S19      S        0.61126    0.50479    0.76825    1.000
    S20      S        0.72211    0.53236    0.87500    1.000
    S21      S        0.55727    0.47771    0.82762    1.000
    S22      S        0.64310    0.58050    0.76838    1.000
    S23      S        0.77790    0.54321    0.93287    1.000
    S24      S        0.56630    0.60011    0.77371    1.000
    S25      S        0.55512    0.44915    0.75982    1.000
    C109     C        0.68640    0.49840    0.80620    1.000
    C110     C        0.70490    0.47590    0.77090    1.000
    C111     C        0.68370    0.49110    0.78160    1.000
    C112     C        0.70150    0.51670    0.79340    1.000
    C113     C        0.49490    0.02040    0.29100    1.000
    C114     C        0.46990    0.01670    0.27670    1.000
    C115     C        0.44310    0.01130    0.28750    1.000
    C116     C        0.44150    0.00730    0.31310    1.000
    C117     C        0.46510    0.00990    0.32800    1.000
    C118     C        0.49120    0.01770    0.31700    1.000
    C119     C        0.76840    0.00960    0.43440    1.000
    C120     C        0.76730    0.99580    0.45680    1.000
    C121     C        0.76130    0.96790    0.45690    1.000
    C122     C        0.75750    0.95450    0.43670    1.000
    C123     C        0.75920    0.96940    0.41520    1.000
    C124     C        0.76540    0.99580    0.41410    1.000
    C125     C        0.66170    0.99560    0.45080    1.000
    C126     C        0.63520    0.98530    0.45330    1.000
    C127     C        0.62610    0.96040    0.46650    1.000
    C128     C        0.64810    0.94980    0.47890    1.000
    C129     C        0.67730    0.95620    0.47540    1.000
    C130     C        0.68390    0.97720    0.46050    1.000
    C131     C        0.47890    0.09710    0.30820    1.000
    C132     C        0.45600    0.07980    0.30250    1.000
    C133     C        0.43530    0.08870    0.28520    1.000
    C134     C        0.43640    0.11500    0.27350    1.000
    C135     C        0.46000    0.13090    0.27900    1.000
    C136     C        0.48130    0.12170    0.29740    1.000
    C137     C        0.50670    0.01460    0.38740    1.000
    C138     C        0.50970    0.99000    0.38150    1.000
    C139     C        0.48670    0.97200    0.39180    1.000
    C140     C        0.46480    0.98320    0.40850    1.000
    C141     C        0.45970    0.01070    0.40890    1.000
    C142     C        0.48160    0.02640    0.39400    1.000
    C143     C        0.49030    0.06340    0.44870    1.000
    C144     C        0.50560    0.04470    0.45840    1.000
    C145     C        0.49440    0.02590    0.47370    1.000
    C146     C        0.46500    0.02790    0.48290    1.000
    C147     C        0.44640    0.04650    0.47230    1.000
    C148     C        0.46030    0.06550    0.45410    1.000
    C149     C        0.54460    0.08460    0.50300    1.000
    C150     C        0.55840    0.06210    0.50840    1.000
    C151     C        0.54660    0.04360    0.52360    1.000
    C152     C        0.51960    0.04870    0.53540    1.000
    C153     C        0.50750    0.07190    0.53070    1.000
    C154     C        0.51690    0.08600    0.51300    1.000
    C155     C        0.59410    0.97600    0.40160    1.000
    C156     C        0.57250    0.98420    0.41700    1.000
    C157     C        0.55560    0.96640    0.43350    1.000
    C158     C        0.56370    0.93800    0.43110    1.000
    C159     C        0.58940    0.93140    0.41420    1.000
    C160     C        0.60270    0.95060    0.39750    1.000
    C161     C        0.58470    0.95270    0.33180    1.000
    C162     C        0.57200    0.92830    0.33830    1.000
    C163     C        0.59400    0.91090    0.34340    1.000
    C164     C        0.62190    0.91380    0.33610    1.000
    C165     C        0.63280    0.93640    0.33200    1.000
    C166     C        0.61260    0.95910    0.32870    1.000
    C167     C        0.53664    0.11283    0.25344    1.000
    C168     C        0.53030    0.13916    0.25350    1.000
    C169     C        0.50810    0.14867    0.23858    1.000
    C170     C        0.49230    0.13180    0.22359    1.000
    C171     C        0.49870    0.10550    0.22353    1.000
    C172     C        0.52082    0.09600    0.23845    1.000
    C173     C        0.60850    0.01531    0.24000    1.000
    C174     C        0.59130    0.03678    0.23510    1.000
    C175     C        0.58720    0.04509    0.21063    1.000
    C176     C        0.60030    0.03190    0.19100    1.000
    C177     C        0.61750    0.01050    0.19580    1.000
    C178     C        0.62170    0.00220    0.22030    1.000
    C179     C        0.67500    0.06139    0.25390    1.000
    C180     C        0.67230    0.05115    0.22990    1.000
    C181     C        0.69600    0.03968    0.21840    1.000
    C182     C        0.72230    0.03844    0.23080    1.000
    C183     C        0.72500    0.04867    0.25470    1.000
    C184     C        0.70130    0.06015    0.26630    1.000
    C185     C        0.45610    0.14820    0.37170    1.000
    C186     C        0.45860    0.12690    0.35590    1.000
    C187     C        0.43580    0.12020    0.34030    1.000
    C188     C        0.41070    0.13490    0.34030    1.000
    C189     C        0.40820    0.15620    0.35610    1.000
    C190     C        0.43100    0.16290    0.37170    1.000
    C191     C        0.63370    0.05170    0.51040    1.000
    C192     C        0.62440    0.02930    0.49830    1.000
    C193     C        0.61500    0.00720    0.51540    1.000
    C194     C        0.61710    0.00850    0.54080    1.000
    C195     C        0.62610    0.03100    0.55050    1.000
    C196     C        0.63700    0.05260    0.53540    1.000
    C197     C        0.72350    0.06060    0.52240    1.000
    C198     C        0.73570    0.04900    0.54280    1.000
    C199     C        0.73530    0.06230    0.56720    1.000
    C200     C        0.72430    0.08860    0.56900    1.000
    C201     C        0.71530    0.10170    0.54520    1.000
    C202     C        0.71370    0.08650    0.52390    1.000
    C203     C        0.75020    0.02900    0.35290    1.000
    C204     C        0.75900    0.00380    0.34770    1.000
    C205     C        0.78150    0.99940    0.33100    1.000
    C206     C        0.79520    0.02020    0.31960    1.000
    C207     C        0.78640    0.04540    0.32480    1.000
    C208     C        0.76400    0.04980    0.34150    1.000
    C209     C        0.80330    0.11970    0.46650    1.000
    C210     C        0.82550    0.12910    0.48300    1.000
    C211     C        0.85420    0.13550    0.47400    1.000
    C212     C        0.85890    0.13520    0.44580    1.000
    C213     C        0.83530    0.12450    0.42810    1.000
    C214     C        0.80850    0.11750    0.44040    1.000
    C215     C        0.58880    0.94010    0.24710    1.000
    C216     C        0.59470    0.94450    0.22040    1.000
    C217     C        0.62280    0.93710    0.21170    1.000
    C218     C        0.64320    0.92870    0.22740    1.000
    C219     C        0.63760    0.92340    0.25370    1.000
    C220     C        0.60970    0.93040    0.26430    1.000
    Cd17     Cd       0.60641    0.08980    0.35400    1.000
    Cd18     Cd       0.54925    0.06788    0.40800    1.000
    Cd19     Cd       0.66414    0.10793    0.40674    1.000
    Cd20     Cd       0.60245    0.08839    0.46000    1.000
    Cd21     Cd       0.62675    0.03699    0.41043    1.000
    Cd22     Cd       0.52657    0.12468    0.35291    1.000
    Cd23     Cd       0.66788    0.11063    0.29957    1.000
    Cd24     Cd       0.68306    0.05938    0.46597    1.000
    Cd25     Cd       0.72996    0.12762    0.45255    1.000
    Cd26     Cd       0.54319    0.06778    0.30359    1.000
    Cd27     Cd       0.62619    0.04290    0.29471    1.000
    Cd28     Cd       0.68458    0.05729    0.34955    1.000
    Cd29     Cd       0.73966    0.06508    0.40576    1.000
    Cd30     Cd       0.57589    0.01496    0.35397    1.000
    S26      S        0.64599    0.07106    0.38030    1.000
    S27      S        0.58784    0.05345    0.32662    1.000
    S28      S        0.56571    0.10581    0.38070    1.000
    S29      S        0.58547    0.04980    0.43716    1.000
    S30      S        0.70446    0.08943    0.43315    1.000
    S31      S        0.61439    0.99823    0.38251    1.000
    S32      S        0.70761    0.09103    0.32358    1.000
    S33      S        0.55987    0.10914    0.48279    1.000
    S34      S        0.64297    0.07906    0.49166    1.000
    S35      S        0.67157    0.02354    0.43524    1.000
    S36      S        0.50228    0.08533    0.42669    1.000
    S37      S        0.53232    0.03638    0.37386    1.000
    Cd31     Cd       0.76865    0.06045    0.47596    1.000
    Cd32     Cd       0.56125    0.99211    0.28198    1.000
    S38      S        0.72236    0.04237    0.49463    1.000
    S39      S        0.52641    0.02976    0.27631    1.000
    S40      S        0.65998    0.02063    0.32542    1.000
    S41      S        0.50359    0.08595    0.33051    1.000
    S42      S        0.49224    0.14271    0.38632    1.000
    S43      S        0.77042    0.11007    0.47849    1.000
    S44      S        0.61126    0.00479    0.26825    1.000
    S45      S        0.72211    0.03236    0.37500    1.000
    S46      S        0.55727    0.97771    0.32762    1.000
    S47      S        0.64310    0.08050    0.26838    1.000
    S48      S        0.77790    0.04321    0.43287    1.000
    S49      S        0.56630    0.10011    0.27371    1.000
    S50      S        0.55512    0.94915    0.25982    1.000
    C221     C        0.68640    0.99840    0.30620    1.000
    C222     C        0.70490    0.97590    0.27090    1.000
    C223     C        0.68370    0.99110    0.28160    1.000
    C224     C        0.70150    0.01670    0.29340    1.000
    C225     C        0.99490    0.52040    0.29100    1.000
    C226     C        0.96990    0.51670    0.27670    1.000
    C227     C        0.94310    0.51130    0.28750    1.000
    C228     C        0.94150    0.50730    0.31310    1.000
    C229     C        0.96510    0.50990    0.32800    1.000
    C230     C        0.99120    0.51770    0.31700    1.000
    C231     C        0.26840    0.50960    0.43440    1.000
    C232     C        0.26730    0.49580    0.45680    1.000
    C233     C        0.26130    0.46790    0.45690    1.000
    C234     C        0.25750    0.45450    0.43670    1.000
    C235     C        0.25920    0.46940    0.41520    1.000
    C236     C        0.26540    0.49580    0.41410    1.000
    C237     C        0.16170    0.49560    0.45080    1.000
    C238     C        0.13520    0.48530    0.45330    1.000
    C239     C        0.12610    0.46040    0.46650    1.000
    C240     C        0.14810    0.44980    0.47890    1.000
    C241     C        0.17730    0.45620    0.47540    1.000
    C242     C        0.18390    0.47720    0.46050    1.000
    C243     C        0.97890    0.59710    0.30820    1.000
    C244     C        0.95600    0.57980    0.30250    1.000
    C245     C        0.93530    0.58870    0.28520    1.000
    C246     C        0.93640    0.61500    0.27350    1.000
    C247     C        0.96000    0.63090    0.27900    1.000
    C248     C        0.98130    0.62170    0.29740    1.000
    C249     C        0.00670    0.51460    0.38740    1.000
    C250     C        0.00970    0.49000    0.38150    1.000
    C251     C        0.98670    0.47200    0.39180    1.000
    C252     C        0.96480    0.48320    0.40850    1.000
    C253     C        0.95970    0.51070    0.40890    1.000
    C254     C        0.98160    0.52640    0.39400    1.000
    C255     C        0.99030    0.56340    0.44870    1.000
    C256     C        0.00560    0.54470    0.45840    1.000
    C257     C        0.99440    0.52590    0.47370    1.000
    C258     C        0.96500    0.52790    0.48290    1.000
    C259     C        0.94640    0.54650    0.47230    1.000
    C260     C        0.96030    0.56550    0.45410    1.000
    C261     C        0.04460    0.58460    0.50300    1.000
    C262     C        0.05840    0.56210    0.50840    1.000
    C263     C        0.04660    0.54360    0.52360    1.000
    C264     C        0.01960    0.54870    0.53540    1.000
    C265     C        0.00750    0.57190    0.53070    1.000
    C266     C        0.01690    0.58600    0.51300    1.000
    C267     C        0.09410    0.47600    0.40160    1.000
    C268     C        0.07250    0.48420    0.41700    1.000
    C269     C        0.05560    0.46640    0.43350    1.000
    C270     C        0.06370    0.43800    0.43110    1.000
    C271     C        0.08940    0.43140    0.41420    1.000
    C272     C        0.10270    0.45060    0.39750    1.000
    C273     C        0.08470    0.45270    0.33180    1.000
    C274     C        0.07200    0.42830    0.33830    1.000
    C275     C        0.09400    0.41090    0.34340    1.000
    C276     C        0.12190    0.41380    0.33610    1.000
    C277     C        0.13280    0.43640    0.33200    1.000
    C278     C        0.11260    0.45910    0.32870    1.000
    C279     C        0.03664    0.61283    0.25344    1.000
    C280     C        0.03030    0.63916    0.25350    1.000
    C281     C        0.00810    0.64867    0.23858    1.000
    C282     C        0.99230    0.63180    0.22359    1.000
    C283     C        0.99870    0.60550    0.22353    1.000
    C284     C        0.02082    0.59600    0.23845    1.000
    C285     C        0.10850    0.51531    0.24000    1.000
    C286     C        0.09130    0.53678    0.23510    1.000
    C287     C        0.08720    0.54509    0.21063    1.000
    C288     C        0.10030    0.53190    0.19100    1.000
    C289     C        0.11750    0.51050    0.19580    1.000
    C290     C        0.12170    0.50220    0.22030    1.000
    C291     C        0.17500    0.56139    0.25390    1.000
    C292     C        0.17230    0.55115    0.22990    1.000
    C293     C        0.19600    0.53968    0.21840    1.000
    C294     C        0.22230    0.53844    0.23080    1.000
    C295     C        0.22500    0.54867    0.25470    1.000
    C296     C        0.20130    0.56015    0.26630    1.000
    C297     C        0.95610    0.64820    0.37170    1.000
    C298     C        0.95860    0.62690    0.35590    1.000
    C299     C        0.93580    0.62020    0.34030    1.000
    C300     C        0.91070    0.63490    0.34030    1.000
    C301     C        0.90820    0.65620    0.35610    1.000
    C302     C        0.93100    0.66290    0.37170    1.000
    C303     C        0.13370    0.55170    0.51040    1.000
    C304     C        0.12440    0.52930    0.49830    1.000
    C305     C        0.11500    0.50720    0.51540    1.000
    C306     C        0.11710    0.50850    0.54080    1.000
    C307     C        0.12610    0.53100    0.55050    1.000
    C308     C        0.13700    0.55260    0.53540    1.000
    C309     C        0.22350    0.56060    0.52240    1.000
    C310     C        0.23570    0.54900    0.54280    1.000
    C311     C        0.23530    0.56230    0.56720    1.000
    C312     C        0.22430    0.58860    0.56900    1.000
    C313     C        0.21530    0.60170    0.54520    1.000
    C314     C        0.21370    0.58650    0.52390    1.000
    C315     C        0.25020    0.52900    0.35290    1.000
    C316     C        0.25900    0.50380    0.34770    1.000
    C317     C        0.28150    0.49940    0.33100    1.000
    C318     C        0.29520    0.52020    0.31960    1.000
    C319     C        0.28640    0.54540    0.32480    1.000
    C320     C        0.26400    0.54980    0.34150    1.000
    C321     C        0.30330    0.61970    0.46650    1.000
    C322     C        0.32550    0.62910    0.48300    1.000
    C323     C        0.35420    0.63550    0.47400    1.000
    C324     C        0.35890    0.63520    0.44580    1.000
    C325     C        0.33530    0.62450    0.42810    1.000
    C326     C        0.30850    0.61750    0.44040    1.000
    C327     C        0.08880    0.44010    0.24710    1.000
    C328     C        0.09470    0.44450    0.22040    1.000
    C329     C        0.12280    0.43710    0.21170    1.000
    C330     C        0.14320    0.42870    0.22740    1.000
    C331     C        0.13760    0.42340    0.25370    1.000
    C332     C        0.10970    0.43040    0.26430    1.000
    Cd33     Cd       0.10641    0.58980    0.35400    1.000
    Cd34     Cd       0.04925    0.56788    0.40800    1.000
    Cd35     Cd       0.16414    0.60793    0.40674    1.000
    Cd36     Cd       0.10245    0.58839    0.46000    1.000
    Cd37     Cd       0.12675    0.53699    0.41043    1.000
    Cd38     Cd       0.02657    0.62468    0.35291    1.000
    Cd39     Cd       0.16788    0.61063    0.29957    1.000
    Cd40     Cd       0.18306    0.55938    0.46597    1.000
    Cd41     Cd       0.22996    0.62762    0.45255    1.000
    Cd42     Cd       0.04319    0.56778    0.30359    1.000
    Cd43     Cd       0.12619    0.54290    0.29471    1.000
    Cd44     Cd       0.18458    0.55729    0.34955    1.000
    Cd45     Cd       0.23966    0.56508    0.40576    1.000
    Cd46     Cd       0.07589    0.51496    0.35397    1.000
    S51      S        0.14599    0.57106    0.38030    1.000
    S52      S        0.08784    0.55345    0.32662    1.000
    S53      S        0.06571    0.60581    0.38070    1.000
    S54      S        0.08547    0.54980    0.43716    1.000
    S55      S        0.20446    0.58943    0.43315    1.000
    S56      S        0.11439    0.49823    0.38251    1.000
    S57      S        0.20761    0.59103    0.32358    1.000
    S58      S        0.05987    0.60914    0.48279    1.000
    S59      S        0.14297    0.57906    0.49166    1.000
    S60      S        0.17157    0.52354    0.43524    1.000
    S61      S        0.00228    0.58533    0.42669    1.000
    S62      S        0.03232    0.53638    0.37386    1.000
    Cd47     Cd       0.26865    0.56045    0.47596    1.000
    Cd48     Cd       0.06125    0.49211    0.28198    1.000
    S63      S        0.22236    0.54237    0.49463    1.000
    S64      S        0.02641    0.52976    0.27631    1.000
    S65      S        0.15998    0.52063    0.32542    1.000
    S66      S        0.00359    0.58595    0.33051    1.000
    S67      S        0.99224    0.64271    0.38632    1.000
    S68      S        0.27042    0.61007    0.47849    1.000
    S69      S        0.11126    0.50479    0.26825    1.000
    S70      S        0.22211    0.53236    0.37500    1.000
    S71      S        0.05727    0.47771    0.32762    1.000
    S72      S        0.14310    0.58050    0.26838    1.000
    S73      S        0.27790    0.54321    0.43287    1.000
    S74      S        0.06630    0.60011    0.27371    1.000
    S75      S        0.05512    0.44915    0.25982    1.000
    C333     C        0.18640    0.49840    0.30620    1.000
    C334     C        0.20490    0.47590    0.27090    1.000
    C335     C        0.18370    0.49110    0.28160    1.000
    C336     C        0.20150    0.51670    0.29340    1.000
    C337     C        0.99490    0.02040    0.79100    1.000
    C338     C        0.96990    0.01670    0.77670    1.000
    C339     C        0.94310    0.01130    0.78750    1.000
    C340     C        0.94150    0.00730    0.81310    1.000
    C341     C        0.96510    0.00990    0.82800    1.000
    C342     C        0.99120    0.01770    0.81700    1.000
    C343     C        0.26840    0.00960    0.93440    1.000
    C344     C        0.26730    0.99580    0.95680    1.000
    C345     C        0.26130    0.96790    0.95690    1.000
    C346     C        0.25750    0.95450    0.93670    1.000
    C347     C        0.25920    0.96940    0.91520    1.000
    C348     C        0.26540    0.99580    0.91410    1.000
    C349     C        0.16170    0.99560    0.95080    1.000
    C350     C        0.13520    0.98530    0.95330    1.000
    C351     C        0.12610    0.96040    0.96650    1.000
    C352     C        0.14810    0.94980    0.97890    1.000
    C353     C        0.17730    0.95620    0.97540    1.000
    C354     C        0.18390    0.97720    0.96050    1.000
    C355     C        0.97890    0.09710    0.80820    1.000
    C356     C        0.95600    0.07980    0.80250    1.000
    C357     C        0.93530    0.08870    0.78520    1.000
    C358     C        0.93640    0.11500    0.77350    1.000
    C359     C        0.96000    0.13090    0.77900    1.000
    C360     C        0.98130    0.12170    0.79740    1.000
    C361     C        0.00670    0.01460    0.88740    1.000
    C362     C        0.00970    0.99000    0.88150    1.000
    C363     C        0.98670    0.97200    0.89180    1.000
    C364     C        0.96480    0.98320    0.90850    1.000
    C365     C        0.95970    0.01070    0.90890    1.000
    C366     C        0.98160    0.02640    0.89400    1.000
    C367     C        0.99030    0.06340    0.94870    1.000
    C368     C        0.00560    0.04470    0.95840    1.000
    C369     C        0.99440    0.02590    0.97370    1.000
    C370     C        0.96500    0.02790    0.98290    1.000
    C371     C        0.94640    0.04650    0.97230    1.000
    C372     C        0.96030    0.06550    0.95410    1.000
    C373     C        0.04460    0.08460    0.00300    1.000
    C374     C        0.05840    0.06210    0.00840    1.000
    C375     C        0.04660    0.04360    0.02360    1.000
    C376     C        0.01960    0.04870    0.03540    1.000
    C377     C        0.00750    0.07190    0.03070    1.000
    C378     C        0.01690    0.08600    0.01300    1.000
    C379     C        0.09410    0.97600    0.90160    1.000
    C380     C        0.07250    0.98420    0.91700    1.000
    C381     C        0.05560    0.96640    0.93350    1.000
    C382     C        0.06370    0.93800    0.93110    1.000
    C383     C        0.08940    0.93140    0.91420    1.000
    C384     C        0.10270    0.95060    0.89750    1.000
    C385     C        0.08470    0.95270    0.83180    1.000
    C386     C        0.07200    0.92830    0.83830    1.000
    C387     C        0.09400    0.91090    0.84340    1.000
    C388     C        0.12190    0.91380    0.83610    1.000
    C389     C        0.13280    0.93640    0.83200    1.000
    C390     C        0.11260    0.95910    0.82870    1.000
    C391     C        0.03664    0.11283    0.75344    1.000
    C392     C        0.03030    0.13916    0.75350    1.000
    C393     C        0.00810    0.14867    0.73858    1.000
    C394     C        0.99230    0.13180    0.72359    1.000
    C395     C        0.99870    0.10550    0.72353    1.000
    C396     C        0.02082    0.09600    0.73845    1.000
    C397     C        0.10850    0.01531    0.74000    1.000
    C398     C        0.09130    0.03678    0.73510    1.000
    C399     C        0.08720    0.04509    0.71063    1.000
    C400     C        0.10030    0.03190    0.69100    1.000
    C401     C        0.11750    0.01050    0.69580    1.000
    C402     C        0.12170    0.00220    0.72030    1.000
    C403     C        0.17500    0.06139    0.75390    1.000
    C404     C        0.17230    0.05115    0.72990    1.000
    C405     C        0.19600    0.03968    0.71840    1.000
    C406     C        0.22230    0.03844    0.73080    1.000
    C407     C        0.22500    0.04867    0.75470    1.000
    C408     C        0.20130    0.06015    0.76630    1.000
    C409     C        0.95610    0.14820    0.87170    1.000
    C410     C        0.95860    0.12690    0.85590    1.000
    C411     C        0.93580    0.12020    0.84030    1.000
    C412     C        0.91070    0.13490    0.84030    1.000
    C413     C        0.90820    0.15620    0.85610    1.000
    C414     C        0.93100    0.16290    0.87170    1.000
    C415     C        0.13370    0.05170    0.01040    1.000
    C416     C        0.12440    0.02930    0.99830    1.000
    C417     C        0.11500    0.00720    0.01540    1.000
    C418     C        0.11710    0.00850    0.04080    1.000
    C419     C        0.12610    0.03100    0.05050    1.000
    C420     C        0.13700    0.05260    0.03540    1.000
    C421     C        0.22350    0.06060    0.02240    1.000
    C422     C        0.23570    0.04900    0.04280    1.000
    C423     C        0.23530    0.06230    0.06720    1.000
    C424     C        0.22430    0.08860    0.06900    1.000
    C425     C        0.21530    0.10170    0.04520    1.000
    C426     C        0.21370    0.08650    0.02390    1.000
    C427     C        0.25020    0.02900    0.85290    1.000
    C428     C        0.25900    0.00380    0.84770    1.000
    C429     C        0.28150    0.99940    0.83100    1.000
    C430     C        0.29520    0.02020    0.81960    1.000
    C431     C        0.28640    0.04540    0.82480    1.000
    C432     C        0.26400    0.04980    0.84150    1.000
    C433     C        0.30330    0.11970    0.96650    1.000
    C434     C        0.32550    0.12910    0.98300    1.000
    C435     C        0.35420    0.13550    0.97400    1.000
    C436     C        0.35890    0.13520    0.94580    1.000
    C437     C        0.33530    0.12450    0.92810    1.000
    C438     C        0.30850    0.11750    0.94040    1.000
    C439     C        0.08880    0.94010    0.74710    1.000
    C440     C        0.09470    0.94450    0.72040    1.000
    C441     C        0.12280    0.93710    0.71170    1.000
    C442     C        0.14320    0.92870    0.72740    1.000
    C443     C        0.13760    0.92340    0.75370    1.000
    C444     C        0.10970    0.93040    0.76430    1.000
    Cd49     Cd       0.10641    0.08980    0.85400    1.000
    Cd50     Cd       0.04925    0.06788    0.90800    1.000
    Cd51     Cd       0.16414    0.10793    0.90674    1.000
    Cd52     Cd       0.10245    0.08839    0.96000    1.000
    Cd53     Cd       0.12675    0.03699    0.91043    1.000
    Cd54     Cd       0.02657    0.12468    0.85291    1.000
    Cd55     Cd       0.16788    0.11063    0.79957    1.000
    Cd56     Cd       0.18306    0.05938    0.96597    1.000
    Cd57     Cd       0.22996    0.12762    0.95255    1.000
    Cd58     Cd       0.04319    0.06778    0.80359    1.000
    Cd59     Cd       0.12619    0.04290    0.79471    1.000
    Cd60     Cd       0.18458    0.05729    0.84955    1.000
    Cd61     Cd       0.23966    0.06508    0.90576    1.000
    Cd62     Cd       0.07589    0.01496    0.85397    1.000
    S76      S        0.14599    0.07106    0.88030    1.000
    S77      S        0.08784    0.05345    0.82662    1.000
    S78      S        0.06571    0.10581    0.88070    1.000
    S79      S        0.08547    0.04980    0.93716    1.000
    S80      S        0.20446    0.08943    0.93315    1.000
    S81      S        0.11439    0.99823    0.88251    1.000
    S82      S        0.20761    0.09103    0.82358    1.000
    S83      S        0.05987    0.10914    0.98279    1.000
    S84      S        0.14297    0.07906    0.99166    1.000
    S85      S        0.17157    0.02354    0.93524    1.000
    S86      S        0.00228    0.08533    0.92669    1.000
    S87      S        0.03232    0.03638    0.87386    1.000
    Cd63     Cd       0.26865    0.06045    0.97596    1.000
    Cd64     Cd       0.06125    0.99211    0.78198    1.000
    S88      S        0.22236    0.04237    0.99463    1.000
    S89      S        0.02641    0.02976    0.77631    1.000
    S90      S        0.15998    0.02063    0.82542    1.000
    S91      S        0.00359    0.08595    0.83051    1.000
    S92      S        0.99224    0.14271    0.88632    1.000
    S93      S        0.27042    0.11007    0.97849    1.000
    S94      S        0.11126    0.00479    0.76825    1.000
    S95      S        0.22211    0.03236    0.87500    1.000
    S96      S        0.05727    0.97771    0.82762    1.000
    S97      S        0.14310    0.08050    0.76838    1.000
    S98      S        0.27790    0.04321    0.93287    1.000
    S99      S        0.06630    0.10011    0.77371    1.000
    S100     S        0.05512    0.94915    0.75982    1.000
    C445     C        0.18640    0.99840    0.80620    1.000
    C446     C        0.20490    0.97590    0.77090    1.000
    C447     C        0.18370    0.99110    0.78160    1.000
    C448     C        0.20150    0.01670    0.79340    1.000
    C449     C        0.25510    0.22960    0.79100    1.000
    C450     C        0.28010    0.23330    0.77670    1.000
    C451     C        0.30690    0.23870    0.78750    1.000
    C452     C        0.30850    0.24270    0.81310    1.000
    C453     C        0.28490    0.24010    0.82800    1.000
    C454     C        0.25880    0.23230    0.81700    1.000
    C455     C        0.98160    0.24040    0.93440    1.000
    C456     C        0.98270    0.25420    0.95680    1.000
    C457     C        0.98870    0.28210    0.95690    1.000
    C458     C        0.99250    0.29550    0.93670    1.000
    C459     C        0.99080    0.28060    0.91520    1.000
    C460     C        0.98460    0.25420    0.91410    1.000
    C461     C        0.08830    0.25440    0.95080    1.000
    C462     C        0.11480    0.26470    0.95330    1.000
    C463     C        0.12390    0.28960    0.96650    1.000
    C464     C        0.10190    0.30020    0.97890    1.000
    C465     C        0.07270    0.29380    0.97540    1.000
    C466     C        0.06610    0.27280    0.96050    1.000
    C467     C        0.27110    0.15290    0.80820    1.000
    C468     C        0.29400    0.17020    0.80250    1.000
    C469     C        0.31470    0.16130    0.78520    1.000
    C470     C        0.31360    0.13500    0.77350    1.000
    C471     C        0.29000    0.11910    0.77900    1.000
    C472     C        0.26870    0.12830    0.79740    1.000
    C473     C        0.24330    0.23540    0.88740    1.000
    C474     C        0.24030    0.26000    0.88150    1.000
    C475     C        0.26330    0.27800    0.89180    1.000
    C476     C        0.28520    0.26680    0.90850    1.000
    C477     C        0.29030    0.23930    0.90890    1.000
    C478     C        0.26840    0.22360    0.89400    1.000
    C479     C        0.25970    0.18660    0.94870    1.000
    C480     C        0.24440    0.20530    0.95840    1.000
    C481     C        0.25560    0.22410    0.97370    1.000
    C482     C        0.28500    0.22210    0.98290    1.000
    C483     C        0.30360    0.20350    0.97230    1.000
    C484     C        0.28970    0.18450    0.95410    1.000
    C485     C        0.20540    0.16540    0.00300    1.000
    C486     C        0.19160    0.18790    0.00840    1.000
    C487     C        0.20340    0.20640    0.02360    1.000
    C488     C        0.23040    0.20130    0.03540    1.000
    C489     C        0.24250    0.17810    0.03070    1.000
    C490     C        0.23310    0.16400    0.01300    1.000
    C491     C        0.15590    0.27400    0.90160    1.000
    C492     C        0.17750    0.26580    0.91700    1.000
    C493     C        0.19440    0.28360    0.93350    1.000
    C494     C        0.18630    0.31200    0.93110    1.000
    C495     C        0.16060    0.31860    0.91420    1.000
    C496     C        0.14730    0.29940    0.89750    1.000
    C497     C        0.16530    0.29730    0.83180    1.000
    C498     C        0.17800    0.32170    0.83830    1.000
    C499     C        0.15600    0.33910    0.84340    1.000
    C500     C        0.12810    0.33620    0.83610    1.000
    C501     C        0.11720    0.31360    0.83200    1.000
    C502     C        0.13740    0.29090    0.82870    1.000
    C503     C        0.21336    0.13717    0.75344    1.000
    C504     C        0.21970    0.11084    0.75350    1.000
    C505     C        0.24190    0.10133    0.73858    1.000
    C506     C        0.25770    0.11820    0.72359    1.000
    C507     C        0.25130    0.14450    0.72353    1.000
    C508     C        0.22918    0.15400    0.73845    1.000
    C509     C        0.14150    0.23469    0.74000    1.000
    C510     C        0.15870    0.21322    0.73510    1.000
    C511     C        0.16280    0.20491    0.71063    1.000
    C512     C        0.14970    0.21810    0.69100    1.000
    C513     C        0.13250    0.23950    0.69580    1.000
    C514     C        0.12830    0.24780    0.72030    1.000
    C515     C        0.07500    0.18861    0.75390    1.000
    C516     C        0.07770    0.19885    0.72990    1.000
    C517     C        0.05400    0.21032    0.71840    1.000
    C518     C        0.02770    0.21156    0.73080    1.000
    C519     C        0.02500    0.20133    0.75470    1.000
    C520     C        0.04870    0.18985    0.76630    1.000
    C521     C        0.29390    0.10180    0.87170    1.000
    C522     C        0.29140    0.12310    0.85590    1.000
    C523     C        0.31420    0.12980    0.84030    1.000
    C524     C        0.33930    0.11510    0.84030    1.000
    C525     C        0.34180    0.09380    0.85610    1.000
    C526     C        0.31900    0.08710    0.87170    1.000
    C527     C        0.11630    0.19830    0.01040    1.000
    C528     C        0.12560    0.22070    0.99830    1.000
    C529     C        0.13500    0.24280    0.01540    1.000
    C530     C        0.13290    0.24150    0.04080    1.000
    C531     C        0.12390    0.21900    0.05050    1.000
    C532     C        0.11300    0.19740    0.03540    1.000
    C533     C        0.02650    0.18940    0.02240    1.000
    C534     C        0.01430    0.20100    0.04280    1.000
    C535     C        0.01470    0.18770    0.06720    1.000
    C536     C        0.02570    0.16140    0.06900    1.000
    C537     C        0.03470    0.14830    0.04520    1.000
    C538     C        0.03630    0.16350    0.02390    1.000
    C539     C        0.99980    0.22100    0.85290    1.000
    C540     C        0.99100    0.24620    0.84770    1.000
    C541     C        0.96850    0.25060    0.83100    1.000
    C542     C        0.95480    0.22980    0.81960    1.000
    C543     C        0.96360    0.20460    0.82480    1.000
    C544     C        0.98600    0.20020    0.84150    1.000
    C545     C        0.94670    0.13030    0.96650    1.000
    C546     C        0.92450    0.12090    0.98300    1.000
    C547     C        0.89580    0.11450    0.97400    1.000
    C548     C        0.89110    0.11480    0.94580    1.000
    C549     C        0.91470    0.12550    0.92810    1.000
    C550     C        0.94150    0.13250    0.94040    1.000
    C551     C        0.16120    0.30990    0.74710    1.000
    C552     C        0.15530    0.30550    0.72040    1.000
    C553     C        0.12720    0.31290    0.71170    1.000
    C554     C        0.10680    0.32130    0.72740    1.000
    C555     C        0.11240    0.32660    0.75370    1.000
    C556     C        0.14030    0.31960    0.76430    1.000
    Cd65     Cd       0.14359    0.16020    0.85400    1.000
    Cd66     Cd       0.20075    0.18212    0.90800    1.000
    Cd67     Cd       0.08586    0.14207    0.90674    1.000
    Cd68     Cd       0.14755    0.16161    0.96000    1.000
    Cd69     Cd       0.12325    0.21301    0.91043    1.000
    Cd70     Cd       0.22343    0.12532    0.85291    1.000
    Cd71     Cd       0.08212    0.13937    0.79957    1.000
    Cd72     Cd       0.06694    0.19062    0.96597    1.000
    Cd73     Cd       0.02004    0.12238    0.95255    1.000
    Cd74     Cd       0.20681    0.18222    0.80359    1.000
    Cd75     Cd       0.12381    0.20710    0.79471    1.000
    Cd76     Cd       0.06542    0.19271    0.84955    1.000
    Cd77     Cd       0.01034    0.18492    0.90576    1.000
    Cd78     Cd       0.17411    0.23504    0.85397    1.000
    S101     S        0.10401    0.17894    0.88030    1.000
    S102     S        0.16216    0.19655    0.82662    1.000
    S103     S        0.18429    0.14419    0.88070    1.000
    S104     S        0.16453    0.20020    0.93716    1.000
    S105     S        0.04554    0.16057    0.93315    1.000
    S106     S        0.13561    0.25177    0.88251    1.000
    S107     S        0.04239    0.15897    0.82358    1.000
    S108     S        0.19013    0.14086    0.98279    1.000
    S109     S        0.10703    0.17094    0.99166    1.000
    S110     S        0.07843    0.22646    0.93524    1.000
    S111     S        0.24772    0.16467    0.92669    1.000
    S112     S        0.21768    0.21362    0.87386    1.000
    Cd79     Cd       0.98135    0.18955    0.97596    1.000
    Cd80     Cd       0.18875    0.25789    0.78198    1.000
    S113     S        0.02764    0.20763    0.99463    1.000
    S114     S        0.22359    0.22024    0.77631    1.000
    S115     S        0.09002    0.22937    0.82542    1.000
    S116     S        0.24641    0.16405    0.83051    1.000
    S117     S        0.25776    0.10729    0.88632    1.000
    S118     S        0.97958    0.13993    0.97849    1.000
    S119     S        0.13874    0.24521    0.76825    1.000
    S120     S        0.02789    0.21764    0.87500    1.000
    S121     S        0.19273    0.27229    0.82762    1.000
    S122     S        0.10690    0.16950    0.76838    1.000
    S123     S        0.97210    0.20679    0.93287    1.000
    S124     S        0.18370    0.14989    0.77371    1.000
    S125     S        0.19488    0.30085    0.75982    1.000
    C557     C        0.06360    0.25160    0.80620    1.000
    C558     C        0.04510    0.27410    0.77090    1.000
    C559     C        0.06630    0.25890    0.78160    1.000
    C560     C        0.04850    0.23330    0.79340    1.000
    C561     C        0.25510    0.72960    0.29100    1.000
    C562     C        0.28010    0.73330    0.27670    1.000
    C563     C        0.30690    0.73870    0.28750    1.000
    C564     C        0.30850    0.74270    0.31310    1.000
    C565     C        0.28490    0.74010    0.32800    1.000
    C566     C        0.25880    0.73230    0.31700    1.000
    C567     C        0.98160    0.74040    0.43440    1.000
    C568     C        0.98270    0.75420    0.45680    1.000
    C569     C        0.98870    0.78210    0.45690    1.000
    C570     C        0.99250    0.79550    0.43670    1.000
    C571     C        0.99080    0.78060    0.41520    1.000
    C572     C        0.98460    0.75420    0.41410    1.000
    C573     C        0.08830    0.75440    0.45080    1.000
    C574     C        0.11480    0.76470    0.45330    1.000
    C575     C        0.12390    0.78960    0.46650    1.000
    C576     C        0.10190    0.80020    0.47890    1.000
    C577     C        0.07270    0.79380    0.47540    1.000
    C578     C        0.06610    0.77280    0.46050    1.000
    C579     C        0.27110    0.65290    0.30820    1.000
    C580     C        0.29400    0.67020    0.30250    1.000
    C581     C        0.31470    0.66130    0.28520    1.000
    C582     C        0.31360    0.63500    0.27350    1.000
    C583     C        0.29000    0.61910    0.27900    1.000
    C584     C        0.26870    0.62830    0.29740    1.000
    C585     C        0.24330    0.73540    0.38740    1.000
    C586     C        0.24030    0.76000    0.38150    1.000
    C587     C        0.26330    0.77800    0.39180    1.000
    C588     C        0.28520    0.76680    0.40850    1.000
    C589     C        0.29030    0.73930    0.40890    1.000
    C590     C        0.26840    0.72360    0.39400    1.000
    C591     C        0.25970    0.68660    0.44870    1.000
    C592     C        0.24440    0.70530    0.45840    1.000
    C593     C        0.25560    0.72410    0.47370    1.000
    C594     C        0.28500    0.72210    0.48290    1.000
    C595     C        0.30360    0.70350    0.47230    1.000
    C596     C        0.28970    0.68450    0.45410    1.000
    C597     C        0.20540    0.66540    0.50300    1.000
    C598     C        0.19160    0.68790    0.50840    1.000
    C599     C        0.20340    0.70640    0.52360    1.000
    C600     C        0.23040    0.70130    0.53540    1.000
    C601     C        0.24250    0.67810    0.53070    1.000
    C602     C        0.23310    0.66400    0.51300    1.000
    C603     C        0.15590    0.77400    0.40160    1.000
    C604     C        0.17750    0.76580    0.41700    1.000
    C605     C        0.19440    0.78360    0.43350    1.000
    C606     C        0.18630    0.81200    0.43110    1.000
    C607     C        0.16060    0.81860    0.41420    1.000
    C608     C        0.14730    0.79940    0.39750    1.000
    C609     C        0.16530    0.79730    0.33180    1.000
    C610     C        0.17800    0.82170    0.33830    1.000
    C611     C        0.15600    0.83910    0.34340    1.000
    C612     C        0.12810    0.83620    0.33610    1.000
    C613     C        0.11720    0.81360    0.33200    1.000
    C614     C        0.13740    0.79090    0.32870    1.000
    C615     C        0.21336    0.63717    0.25344    1.000
    C616     C        0.21970    0.61084    0.25350    1.000
    C617     C        0.24190    0.60133    0.23858    1.000
    C618     C        0.25770    0.61820    0.22359    1.000
    C619     C        0.25130    0.64450    0.22353    1.000
    C620     C        0.22918    0.65400    0.23845    1.000
    C621     C        0.14150    0.73469    0.24000    1.000
    C622     C        0.15870    0.71322    0.23510    1.000
    C623     C        0.16280    0.70491    0.21063    1.000
    C624     C        0.14970    0.71810    0.19100    1.000
    C625     C        0.13250    0.73950    0.19580    1.000
    C626     C        0.12830    0.74780    0.22030    1.000
    C627     C        0.07500    0.68861    0.25390    1.000
    C628     C        0.07770    0.69885    0.22990    1.000
    C629     C        0.05400    0.71032    0.21840    1.000
    C630     C        0.02770    0.71156    0.23080    1.000
    C631     C        0.02500    0.70133    0.25470    1.000
    C632     C        0.04870    0.68985    0.26630    1.000
    C633     C        0.29390    0.60180    0.37170    1.000
    C634     C        0.29140    0.62310    0.35590    1.000
    C635     C        0.31420    0.62980    0.34030    1.000
    C636     C        0.33930    0.61510    0.34030    1.000
    C637     C        0.34180    0.59380    0.35610    1.000
    C638     C        0.31900    0.58710    0.37170    1.000
    C639     C        0.11630    0.69830    0.51040    1.000
    C640     C        0.12560    0.72070    0.49830    1.000
    C641     C        0.13500    0.74280    0.51540    1.000
    C642     C        0.13290    0.74150    0.54080    1.000
    C643     C        0.12390    0.71900    0.55050    1.000
    C644     C        0.11300    0.69740    0.53540    1.000
    C645     C        0.02650    0.68940    0.52240    1.000
    C646     C        0.01430    0.70100    0.54280    1.000
    C647     C        0.01470    0.68770    0.56720    1.000
    C648     C        0.02570    0.66140    0.56900    1.000
    C649     C        0.03470    0.64830    0.54520    1.000
    C650     C        0.03630    0.66350    0.52390    1.000
    C651     C        0.99980    0.72100    0.35290    1.000
    C652     C        0.99100    0.74620    0.34770    1.000
    C653     C        0.96850    0.75060    0.33100    1.000
    C654     C        0.95480    0.72980    0.31960    1.000
    C655     C        0.96360    0.70460    0.32480    1.000
    C656     C        0.98600    0.70020    0.34150    1.000
    C657     C        0.94670    0.63030    0.46650    1.000
    C658     C        0.92450    0.62090    0.48300    1.000
    C659     C        0.89580    0.61450    0.47400    1.000
    C660     C        0.89110    0.61480    0.44580    1.000
    C661     C        0.91470    0.62550    0.42810    1.000
    C662     C        0.94150    0.63250    0.44040    1.000
    C663     C        0.16120    0.80990    0.24710    1.000
    C664     C        0.15530    0.80550    0.22040    1.000
    C665     C        0.12720    0.81290    0.21170    1.000
    C666     C        0.10680    0.82130    0.22740    1.000
    C667     C        0.11240    0.82660    0.25370    1.000
    C668     C        0.14030    0.81960    0.26430    1.000
    Cd81     Cd       0.14359    0.66020    0.35400    1.000
    Cd82     Cd       0.20075    0.68212    0.40800    1.000
    Cd83     Cd       0.08586    0.64207    0.40674    1.000
    Cd84     Cd       0.14755    0.66161    0.46000    1.000
    Cd85     Cd       0.12325    0.71301    0.41043    1.000
    Cd86     Cd       0.22343    0.62532    0.35291    1.000
    Cd87     Cd       0.08212    0.63937    0.29957    1.000
    Cd88     Cd       0.06694    0.69062    0.46597    1.000
    Cd89     Cd       0.02004    0.62238    0.45255    1.000
    Cd90     Cd       0.20681    0.68222    0.30359    1.000
    Cd91     Cd       0.12381    0.70710    0.29471    1.000
    Cd92     Cd       0.06542    0.69271    0.34955    1.000
    Cd93     Cd       0.01034    0.68492    0.40576    1.000
    Cd94     Cd       0.17411    0.73504    0.35397    1.000
    S126     S        0.10401    0.67894    0.38030    1.000
    S127     S        0.16216    0.69655    0.32662    1.000
    S128     S        0.18429    0.64419    0.38070    1.000
    S129     S        0.16453    0.70020    0.43716    1.000
    S130     S        0.04554    0.66057    0.43315    1.000
    S131     S        0.13561    0.75177    0.38251    1.000
    S132     S        0.04239    0.65897    0.32358    1.000
    S133     S        0.19013    0.64086    0.48279    1.000
    S134     S        0.10703    0.67094    0.49166    1.000
    S135     S        0.07843    0.72646    0.43524    1.000
    S136     S        0.24772    0.66467    0.42669    1.000
    S137     S        0.21768    0.71362    0.37386    1.000
    Cd95     Cd       0.98135    0.68955    0.47596    1.000
    Cd96     Cd       0.18875    0.75789    0.28198    1.000
    S138     S        0.02764    0.70763    0.49463    1.000
    S139     S        0.22359    0.72024    0.27631    1.000
    S140     S        0.09002    0.72937    0.32542    1.000
    S141     S        0.24641    0.66405    0.33051    1.000
    S142     S        0.25776    0.60729    0.38632    1.000
    S143     S        0.97958    0.63993    0.47849    1.000
    S144     S        0.13874    0.74521    0.26825    1.000
    S145     S        0.02789    0.71764    0.37500    1.000
    S146     S        0.19273    0.77229    0.32762    1.000
    S147     S        0.10690    0.66950    0.26838    1.000
    S148     S        0.97210    0.70679    0.43287    1.000
    S149     S        0.18370    0.64989    0.27371    1.000
    S150     S        0.19488    0.80085    0.25982    1.000
    C669     C        0.06360    0.75160    0.30620    1.000
    C670     C        0.04510    0.77410    0.27090    1.000
    C671     C        0.06630    0.75890    0.28160    1.000
    C672     C        0.04850    0.73330    0.29340    1.000
    C673     C        0.75510    0.22960    0.29100    1.000
    C674     C        0.78010    0.23330    0.27670    1.000
    C675     C        0.80690    0.23870    0.28750    1.000
    C676     C        0.80850    0.24270    0.31310    1.000
    C677     C        0.78490    0.24010    0.32800    1.000
    C678     C        0.75880    0.23230    0.31700    1.000
    C679     C        0.48160    0.24040    0.43440    1.000
    C680     C        0.48270    0.25420    0.45680    1.000
    C681     C        0.48870    0.28210    0.45690    1.000
    C682     C        0.49250    0.29550    0.43670    1.000
    C683     C        0.49080    0.28060    0.41520    1.000
    C684     C        0.48460    0.25420    0.41410    1.000
    C685     C        0.58830    0.25440    0.45080    1.000
    C686     C        0.61480    0.26470    0.45330    1.000
    C687     C        0.62390    0.28960    0.46650    1.000
    C688     C        0.60190    0.30020    0.47890    1.000
    C689     C        0.57270    0.29380    0.47540    1.000
    C690     C        0.56610    0.27280    0.46050    1.000
    C691     C        0.77110    0.15290    0.30820    1.000
    C692     C        0.79400    0.17020    0.30250    1.000
    C693     C        0.81470    0.16130    0.28520    1.000
    C694     C        0.81360    0.13500    0.27350    1.000
    C695     C        0.79000    0.11910    0.27900    1.000
    C696     C        0.76870    0.12830    0.29740    1.000
    C697     C        0.74330    0.23540    0.38740    1.000
    C698     C        0.74030    0.26000    0.38150    1.000
    C699     C        0.76330    0.27800    0.39180    1.000
    C700     C        0.78520    0.26680    0.40850    1.000
    C701     C        0.79030    0.23930    0.40890    1.000
    C702     C        0.76840    0.22360    0.39400    1.000
    C703     C        0.75970    0.18660    0.44870    1.000
    C704     C        0.74440    0.20530    0.45840    1.000
    C705     C        0.75560    0.22410    0.47370    1.000
    C706     C        0.78500    0.22210    0.48290    1.000
    C707     C        0.80360    0.20350    0.47230    1.000
    C708     C        0.78970    0.18450    0.45410    1.000
    C709     C        0.70540    0.16540    0.50300    1.000
    C710     C        0.69160    0.18790    0.50840    1.000
    C711     C        0.70340    0.20640    0.52360    1.000
    C712     C        0.73040    0.20130    0.53540    1.000
    C713     C        0.74250    0.17810    0.53070    1.000
    C714     C        0.73310    0.16400    0.51300    1.000
    C715     C        0.65590    0.27400    0.40160    1.000
    C716     C        0.67750    0.26580    0.41700    1.000
    C717     C        0.69440    0.28360    0.43350    1.000
    C718     C        0.68630    0.31200    0.43110    1.000
    C719     C        0.66060    0.31860    0.41420    1.000
    C720     C        0.64730    0.29940    0.39750    1.000
    C721     C        0.66530    0.29730    0.33180    1.000
    C722     C        0.67800    0.32170    0.33830    1.000
    C723     C        0.65600    0.33910    0.34340    1.000
    C724     C        0.62810    0.33620    0.33610    1.000
    C725     C        0.61720    0.31360    0.33200    1.000
    C726     C        0.63740    0.29090    0.32870    1.000
    C727     C        0.71336    0.13717    0.25344    1.000
    C728     C        0.71970    0.11084    0.25350    1.000
    C729     C        0.74190    0.10133    0.23858    1.000
    C730     C        0.75770    0.11820    0.22359    1.000
    C731     C        0.75130    0.14450    0.22353    1.000
    C732     C        0.72918    0.15400    0.23845    1.000
    C733     C        0.64150    0.23469    0.24000    1.000
    C734     C        0.65870    0.21322    0.23510    1.000
    C735     C        0.66280    0.20491    0.21063    1.000
    C736     C        0.64970    0.21810    0.19100    1.000
    C737     C        0.63250    0.23950    0.19580    1.000
    C738     C        0.62830    0.24780    0.22030    1.000
    C739     C        0.57500    0.18861    0.25390    1.000
    C740     C        0.57770    0.19885    0.22990    1.000
    C741     C        0.55400    0.21032    0.21840    1.000
    C742     C        0.52770    0.21156    0.23080    1.000
    C743     C        0.52500    0.20133    0.25470    1.000
    C744     C        0.54870    0.18985    0.26630    1.000
    C745     C        0.79390    0.10180    0.37170    1.000
    C746     C        0.79140    0.12310    0.35590    1.000
    C747     C        0.81420    0.12980    0.34030    1.000
    C748     C        0.83930    0.11510    0.34030    1.000
    C749     C        0.84180    0.09380    0.35610    1.000
    C750     C        0.81900    0.08710    0.37170    1.000
    C751     C        0.61630    0.19830    0.51040    1.000
    C752     C        0.62560    0.22070    0.49830    1.000
    C753     C        0.63500    0.24280    0.51540    1.000
    C754     C        0.63290    0.24150    0.54080    1.000
    C755     C        0.62390    0.21900    0.55050    1.000
    C756     C        0.61300    0.19740    0.53540    1.000
    C757     C        0.52650    0.18940    0.52240    1.000
    C758     C        0.51430    0.20100    0.54280    1.000
    C759     C        0.51470    0.18770    0.56720    1.000
    C760     C        0.52570    0.16140    0.56900    1.000
    C761     C        0.53470    0.14830    0.54520    1.000
    C762     C        0.53630    0.16350    0.52390    1.000
    C763     C        0.49980    0.22100    0.35290    1.000
    C764     C        0.49100    0.24620    0.34770    1.000
    C765     C        0.46850    0.25060    0.33100    1.000
    C766     C        0.45480    0.22980    0.31960    1.000
    C767     C        0.46360    0.20460    0.32480    1.000
    C768     C        0.48600    0.20020    0.34150    1.000
    C769     C        0.44670    0.13030    0.46650    1.000
    C770     C        0.42450    0.12090    0.48300    1.000
    C771     C        0.39580    0.11450    0.47400    1.000
    C772     C        0.39110    0.11480    0.44580    1.000
    C773     C        0.41470    0.12550    0.42810    1.000
    C774     C        0.44150    0.13250    0.44040    1.000
    C775     C        0.66120    0.30990    0.24710    1.000
    C776     C        0.65530    0.30550    0.22040    1.000
    C777     C        0.62720    0.31290    0.21170    1.000
    C778     C        0.60680    0.32130    0.22740    1.000
    C779     C        0.61240    0.32660    0.25370    1.000
    C780     C        0.64030    0.31960    0.26430    1.000
    Cd97     Cd       0.64359    0.16020    0.35400    1.000
    Cd98     Cd       0.70075    0.18212    0.40800    1.000
    Cd99     Cd       0.58586    0.14207    0.40674    1.000
    Cd100    Cd       0.64755    0.16161    0.46000    1.000
    Cd101    Cd       0.62325    0.21301    0.41043    1.000
    Cd102    Cd       0.72343    0.12532    0.35291    1.000
    Cd103    Cd       0.58212    0.13937    0.29957    1.000
    Cd104    Cd       0.56694    0.19062    0.46597    1.000
    Cd105    Cd       0.52004    0.12238    0.45255    1.000
    Cd106    Cd       0.70681    0.18222    0.30359    1.000
    Cd107    Cd       0.62381    0.20710    0.29471    1.000
    Cd108    Cd       0.56542    0.19271    0.34955    1.000
    Cd109    Cd       0.51034    0.18492    0.40576    1.000
    Cd110    Cd       0.67411    0.23504    0.35397    1.000
    S151     S        0.60401    0.17894    0.38030    1.000
    S152     S        0.66216    0.19655    0.32662    1.000
    S153     S        0.68429    0.14419    0.38070    1.000
    S154     S        0.66453    0.20020    0.43716    1.000
    S155     S        0.54554    0.16057    0.43315    1.000
    S156     S        0.63561    0.25177    0.38251    1.000
    S157     S        0.54239    0.15897    0.32358    1.000
    S158     S        0.69013    0.14086    0.48279    1.000
    S159     S        0.60703    0.17094    0.49166    1.000
    S160     S        0.57843    0.22646    0.43524    1.000
    S161     S        0.74772    0.16467    0.42669    1.000
    S162     S        0.71768    0.21362    0.37386    1.000
    Cd111    Cd       0.48135    0.18955    0.47596    1.000
    Cd112    Cd       0.68875    0.25789    0.28198    1.000
    S163     S        0.52764    0.20763    0.49463    1.000
    S164     S        0.72359    0.22024    0.27631    1.000
    S165     S        0.59002    0.22937    0.32542    1.000
    S166     S        0.74641    0.16405    0.33051    1.000
    S167     S        0.75776    0.10729    0.38632    1.000
    S168     S        0.47958    0.13993    0.47849    1.000
    S169     S        0.63874    0.24521    0.26825    1.000
    S170     S        0.52789    0.21764    0.37500    1.000
    S171     S        0.69273    0.27229    0.32762    1.000
    S172     S        0.60690    0.16950    0.26838    1.000
    S173     S        0.47210    0.20679    0.43287    1.000
    S174     S        0.68370    0.14989    0.27371    1.000
    S175     S        0.69488    0.30085    0.25982    1.000
    C781     C        0.56360    0.25160    0.30620    1.000
    C782     C        0.54510    0.27410    0.27090    1.000
    C783     C        0.56630    0.25890    0.28160    1.000
    C784     C        0.54850    0.23330    0.29340    1.000
    C785     C        0.75510    0.72960    0.79100    1.000
    C786     C        0.78010    0.73330    0.77670    1.000
    C787     C        0.80690    0.73870    0.78750    1.000
    C788     C        0.80850    0.74270    0.81310    1.000
    C789     C        0.78490    0.74010    0.82800    1.000
    C790     C        0.75880    0.73230    0.81700    1.000
    C791     C        0.48160    0.74040    0.93440    1.000
    C792     C        0.48270    0.75420    0.95680    1.000
    C793     C        0.48870    0.78210    0.95690    1.000
    C794     C        0.49250    0.79550    0.93670    1.000
    C795     C        0.49080    0.78060    0.91520    1.000
    C796     C        0.48460    0.75420    0.91410    1.000
    C797     C        0.58830    0.75440    0.95080    1.000
    C798     C        0.61480    0.76470    0.95330    1.000
    C799     C        0.62390    0.78960    0.96650    1.000
    C800     C        0.60190    0.80020    0.97890    1.000
    C801     C        0.57270    0.79380    0.97540    1.000
    C802     C        0.56610    0.77280    0.96050    1.000
    C803     C        0.77110    0.65290    0.80820    1.000
    C804     C        0.79400    0.67020    0.80250    1.000
    C805     C        0.81470    0.66130    0.78520    1.000
    C806     C        0.81360    0.63500    0.77350    1.000
    C807     C        0.79000    0.61910    0.77900    1.000
    C808     C        0.76870    0.62830    0.79740    1.000
    C809     C        0.74330    0.73540    0.88740    1.000
    C810     C        0.74030    0.76000    0.88150    1.000
    C811     C        0.76330    0.77800    0.89180    1.000
    C812     C        0.78520    0.76680    0.90850    1.000
    C813     C        0.79030    0.73930    0.90890    1.000
    C814     C        0.76840    0.72360    0.89400    1.000
    C815     C        0.75970    0.68660    0.94870    1.000
    C816     C        0.74440    0.70530    0.95840    1.000
    C817     C        0.75560    0.72410    0.97370    1.000
    C818     C        0.78500    0.72210    0.98290    1.000
    C819     C        0.80360    0.70350    0.97230    1.000
    C820     C        0.78970    0.68450    0.95410    1.000
    C821     C        0.70540    0.66540    0.00300    1.000
    C822     C        0.69160    0.68790    0.00840    1.000
    C823     C        0.70340    0.70640    0.02360    1.000
    C824     C        0.73040    0.70130    0.03540    1.000
    C825     C        0.74250    0.67810    0.03070    1.000
    C826     C        0.73310    0.66400    0.01300    1.000
    C827     C        0.65590    0.77400    0.90160    1.000
    C828     C        0.67750    0.76580    0.91700    1.000
    C829     C        0.69440    0.78360    0.93350    1.000
    C830     C        0.68630    0.81200    0.93110    1.000
    C831     C        0.66060    0.81860    0.91420    1.000
    C832     C        0.64730    0.79940    0.89750    1.000
    C833     C        0.66530    0.79730    0.83180    1.000
    C834     C        0.67800    0.82170    0.83830    1.000
    C835     C        0.65600    0.83910    0.84340    1.000
    C836     C        0.62810    0.83620    0.83610    1.000
    C837     C        0.61720    0.81360    0.83200    1.000
    C838     C        0.63740    0.79090    0.82870    1.000
    C839     C        0.71336    0.63717    0.75344    1.000
    C840     C        0.71970    0.61084    0.75350    1.000
    C841     C        0.74190    0.60133    0.73858    1.000
    C842     C        0.75770    0.61820    0.72359    1.000
    C843     C        0.75130    0.64450    0.72353    1.000
    C844     C        0.72918    0.65400    0.73845    1.000
    C845     C        0.64150    0.73469    0.74000    1.000
    C846     C        0.65870    0.71322    0.73510    1.000
    C847     C        0.66280    0.70491    0.71063    1.000
    C848     C        0.64970    0.71810    0.69100    1.000
    C849     C        0.63250    0.73950    0.69580    1.000
    C850     C        0.62830    0.74780    0.72030    1.000
    C851     C        0.57500    0.68861    0.75390    1.000
    C852     C        0.57770    0.69885    0.72990    1.000
    C853     C        0.55400    0.71032    0.71840    1.000
    C854     C        0.52770    0.71156    0.73080    1.000
    C855     C        0.52500    0.70133    0.75470    1.000
    C856     C        0.54870    0.68985    0.76630    1.000
    C857     C        0.79390    0.60180    0.87170    1.000
    C858     C        0.79140    0.62310    0.85590    1.000
    C859     C        0.81420    0.62980    0.84030    1.000
    C860     C        0.83930    0.61510    0.84030    1.000
    C861     C        0.84180    0.59380    0.85610    1.000
    C862     C        0.81900    0.58710    0.87170    1.000
    C863     C        0.61630    0.69830    0.01040    1.000
    C864     C        0.62560    0.72070    0.99830    1.000
    C865     C        0.63500    0.74280    0.01540    1.000
    C866     C        0.63290    0.74150    0.04080    1.000
    C867     C        0.62390    0.71900    0.05050    1.000
    C868     C        0.61300    0.69740    0.03540    1.000
    C869     C        0.52650    0.68940    0.02240    1.000
    C870     C        0.51430    0.70100    0.04280    1.000
    C871     C        0.51470    0.68770    0.06720    1.000
    C872     C        0.52570    0.66140    0.06900    1.000
    C873     C        0.53470    0.64830    0.04520    1.000
    C874     C        0.53630    0.66350    0.02390    1.000
    C875     C        0.49980    0.72100    0.85290    1.000
    C876     C        0.49100    0.74620    0.84770    1.000
    C877     C        0.46850    0.75060    0.83100    1.000
    C878     C        0.45480    0.72980    0.81960    1.000
    C879     C        0.46360    0.70460    0.82480    1.000
    C880     C        0.48600    0.70020    0.84150    1.000
    C881     C        0.44670    0.63030    0.96650    1.000
    C882     C        0.42450    0.62090    0.98300    1.000
    C883     C        0.39580    0.61450    0.97400    1.000
    C884     C        0.39110    0.61480    0.94580    1.000
    C885     C        0.41470    0.62550    0.92810    1.000
    C886     C        0.44150    0.63250    0.94040    1.000
    C887     C        0.66120    0.80990    0.74710    1.000
    C888     C        0.65530    0.80550    0.72040    1.000
    C889     C        0.62720    0.81290    0.71170    1.000
    C890     C        0.60680    0.82130    0.72740    1.000
    C891     C        0.61240    0.82660    0.75370    1.000
    C892     C        0.64030    0.81960    0.76430    1.000
    Cd113    Cd       0.64359    0.66020    0.85400    1.000
    Cd114    Cd       0.70075    0.68212    0.90800    1.000
    Cd115    Cd       0.58586    0.64207    0.90674    1.000
    Cd116    Cd       0.64755    0.66161    0.96000    1.000
    Cd117    Cd       0.62325    0.71301    0.91043    1.000
    Cd118    Cd       0.72343    0.62532    0.85291    1.000
    Cd119    Cd       0.58212    0.63937    0.79957    1.000
    Cd120    Cd       0.56694    0.69062    0.96597    1.000
    Cd121    Cd       0.52004    0.62238    0.95255    1.000
    Cd122    Cd       0.70681    0.68222    0.80359    1.000
    Cd123    Cd       0.62381    0.70710    0.79471    1.000
    Cd124    Cd       0.56542    0.69271    0.84955    1.000
    Cd125    Cd       0.51034    0.68492    0.90576    1.000
    Cd126    Cd       0.67411    0.73504    0.85397    1.000
    S176     S        0.60401    0.67894    0.88030    1.000
    S177     S        0.66216    0.69655    0.82662    1.000
    S178     S        0.68429    0.64419    0.88070    1.000
    S179     S        0.66453    0.70020    0.93716    1.000
    S180     S        0.54554    0.66057    0.93315    1.000
    S181     S        0.63561    0.75177    0.88251    1.000
    S182     S        0.54239    0.65897    0.82358    1.000
    S183     S        0.69013    0.64086    0.98279    1.000
    S184     S        0.60703    0.67094    0.99166    1.000
    S185     S        0.57843    0.72646    0.93524    1.000
    S186     S        0.74772    0.66467    0.92669    1.000
    S187     S        0.71768    0.71362    0.87386    1.000
    Cd127    Cd       0.48135    0.68955    0.97596    1.000
    Cd128    Cd       0.68875    0.75789    0.78198    1.000
    S188     S        0.52764    0.70763    0.99463    1.000
    S189     S        0.72359    0.72024    0.77631    1.000
    S190     S        0.59002    0.72937    0.82542    1.000
    S191     S        0.74641    0.66405    0.83051    1.000
    S192     S        0.75776    0.60729    0.88632    1.000
    S193     S        0.47958    0.63993    0.97849    1.000
    S194     S        0.63874    0.74521    0.76825    1.000
    S195     S        0.52789    0.71764    0.87500    1.000
    S196     S        0.69273    0.77229    0.82762    1.000
    S197     S        0.60690    0.66950    0.76838    1.000
    S198     S        0.47210    0.70679    0.93287    1.000
    S199     S        0.68370    0.64989    0.77371    1.000
    S200     S        0.69488    0.80085    0.75982    1.000
    C893     C        0.56360    0.75160    0.80620    1.000
    C894     C        0.54510    0.77410    0.77090    1.000
    C895     C        0.56630    0.75890    0.78160    1.000
    C896     C        0.54850    0.73330    0.79340    1.000
    C897     C        0.74490    0.47960    0.04100    1.000
    C898     C        0.71990    0.48330    0.02670    1.000
    C899     C        0.69310    0.48870    0.03750    1.000
    C900     C        0.69150    0.49270    0.06310    1.000
    C901     C        0.71510    0.49010    0.07800    1.000
    C902     C        0.74120    0.48230    0.06700    1.000
    C903     C        0.01840    0.49040    0.18440    1.000
    C904     C        0.01730    0.50420    0.20680    1.000
    C905     C        0.01130    0.53210    0.20690    1.000
    C906     C        0.00750    0.54550    0.18670    1.000
    C907     C        0.00920    0.53060    0.16520    1.000
    C908     C        0.01540    0.50420    0.16410    1.000
    C909     C        0.91170    0.50440    0.20080    1.000
    C910     C        0.88520    0.51470    0.20330    1.000
    C911     C        0.87610    0.53960    0.21650    1.000
    C912     C        0.89810    0.55020    0.22890    1.000
    C913     C        0.92730    0.54380    0.22540    1.000
    C914     C        0.93390    0.52280    0.21050    1.000
    C915     C        0.72890    0.40290    0.05820    1.000
    C916     C        0.70600    0.42020    0.05250    1.000
    C917     C        0.68530    0.41130    0.03520    1.000
    C918     C        0.68640    0.38500    0.02350    1.000
    C919     C        0.71000    0.36910    0.02900    1.000
    C920     C        0.73130    0.37830    0.04740    1.000
    C921     C        0.75670    0.48540    0.13740    1.000
    C922     C        0.75970    0.51000    0.13150    1.000
    C923     C        0.73670    0.52800    0.14180    1.000
    C924     C        0.71480    0.51680    0.15850    1.000
    C925     C        0.70970    0.48930    0.15890    1.000
    C926     C        0.73160    0.47360    0.14400    1.000
    C927     C        0.74030    0.43660    0.19870    1.000
    C928     C        0.75560    0.45530    0.20840    1.000
    C929     C        0.74440    0.47410    0.22370    1.000
    C930     C        0.71500    0.47210    0.23290    1.000
    C931     C        0.69640    0.45350    0.22230    1.000
    C932     C        0.71030    0.43450    0.20410    1.000
    C933     C        0.79460    0.41540    0.25300    1.000
    C934     C        0.80840    0.43790    0.25840    1.000
    C935     C        0.79660    0.45640    0.27360    1.000
    C936     C        0.76960    0.45130    0.28540    1.000
    C937     C        0.75750    0.42810    0.28070    1.000
    C938     C        0.76690    0.41400    0.26300    1.000
    C939     C        0.84410    0.52400    0.15160    1.000
    C940     C        0.82250    0.51580    0.16700    1.000
    C941     C        0.80560    0.53360    0.18350    1.000
    C942     C        0.81370    0.56200    0.18110    1.000
    C943     C        0.83940    0.56860    0.16420    1.000
    C944     C        0.85270    0.54940    0.14750    1.000
    C945     C        0.83470    0.54730    0.08180    1.000
    C946     C        0.82200    0.57170    0.08830    1.000
    C947     C        0.84400    0.58910    0.09340    1.000
    C948     C        0.87190    0.58620    0.08610    1.000
    C949     C        0.88280    0.56360    0.08200    1.000
    C950     C        0.86260    0.54090    0.07870    1.000
    C951     C        0.78664    0.38717    0.00344    1.000
    C952     C        0.78030    0.36084    0.00350    1.000
    C953     C        0.75810    0.35133    0.98858    1.000
    C954     C        0.74230    0.36820    0.97359    1.000
    C955     C        0.74870    0.39450    0.97353    1.000
    C956     C        0.77082    0.40400    0.98845    1.000
    C957     C        0.85850    0.48469    0.99000    1.000
    C958     C        0.84130    0.46322    0.98510    1.000
    C959     C        0.83720    0.45491    0.96063    1.000
    C960     C        0.85030    0.46810    0.94100    1.000
    C961     C        0.86750    0.48950    0.94580    1.000
    C962     C        0.87170    0.49780    0.97030    1.000
    C963     C        0.92500    0.43861    0.00390    1.000
    C964     C        0.92230    0.44885    0.97990    1.000
    C965     C        0.94600    0.46032    0.96840    1.000
    C966     C        0.97230    0.46156    0.98080    1.000
    C967     C        0.97500    0.45133    0.00470    1.000
    C968     C        0.95130    0.43985    0.01630    1.000
    C969     C        0.70610    0.35180    0.12170    1.000
    C970     C        0.70860    0.37310    0.10590    1.000
    C971     C        0.68580    0.37980    0.09030    1.000
    C972     C        0.66070    0.36510    0.09030    1.000
    C973     C        0.65820    0.34380    0.10610    1.000
    C974     C        0.68100    0.33710    0.12170    1.000
    C975     C        0.88370    0.44830    0.26040    1.000
    C976     C        0.87440    0.47070    0.24830    1.000
    C977     C        0.86500    0.49280    0.26540    1.000
    C978     C        0.86710    0.49150    0.29080    1.000
    C979     C        0.87610    0.46900    0.30050    1.000
    C980     C        0.88700    0.44740    0.28540    1.000
    C981     C        0.97350    0.43940    0.27240    1.000
    C982     C        0.98570    0.45100    0.29280    1.000
    C983     C        0.98530    0.43770    0.31720    1.000
    C984     C        0.97430    0.41140    0.31900    1.000
    C985     C        0.96530    0.39830    0.29520    1.000
    C986     C        0.96370    0.41350    0.27390    1.000
    C987     C        0.00020    0.47100    0.10290    1.000
    C988     C        0.00900    0.49620    0.09770    1.000
    C989     C        0.03150    0.50060    0.08100    1.000
    C990     C        0.04520    0.47980    0.06960    1.000
    C991     C        0.03640    0.45460    0.07480    1.000
    C992     C        0.01400    0.45020    0.09150    1.000
    C993     C        0.05330    0.38030    0.21650    1.000
    C994     C        0.07550    0.37090    0.23300    1.000
    C995     C        0.10420    0.36450    0.22400    1.000
    C996     C        0.10890    0.36480    0.19580    1.000
    C997     C        0.08530    0.37550    0.17810    1.000
    C998     C        0.05850    0.38250    0.19040    1.000
    C999     C        0.83880    0.55990    0.99710    1.000
    C1000    C        0.84470    0.55550    0.97040    1.000
    C1001    C        0.87280    0.56290    0.96170    1.000
    C1002    C        0.89320    0.57130    0.97740    1.000
    C1003    C        0.88760    0.57660    0.00370    1.000
    C1004    C        0.85970    0.56960    0.01430    1.000
    Cd129    Cd       0.85641    0.41020    0.10400    1.000
    Cd130    Cd       0.79925    0.43212    0.15800    1.000
    Cd131    Cd       0.91414    0.39207    0.15674    1.000
    Cd132    Cd       0.85245    0.41161    0.21000    1.000
    Cd133    Cd       0.87675    0.46301    0.16043    1.000
    Cd134    Cd       0.77657    0.37532    0.10291    1.000
    Cd135    Cd       0.91788    0.38937    0.04957    1.000
    Cd136    Cd       0.93306    0.44062    0.21597    1.000
    Cd137    Cd       0.97996    0.37238    0.20255    1.000
    Cd138    Cd       0.79319    0.43222    0.05359    1.000
    Cd139    Cd       0.87619    0.45710    0.04471    1.000
    Cd140    Cd       0.93458    0.44271    0.09955    1.000
    Cd141    Cd       0.98966    0.43492    0.15576    1.000
    Cd142    Cd       0.82589    0.48504    0.10397    1.000
    S201     S        0.89599    0.42894    0.13030    1.000
    S202     S        0.83784    0.44655    0.07662    1.000
    S203     S        0.81571    0.39419    0.13070    1.000
    S204     S        0.83547    0.45020    0.18716    1.000
    S205     S        0.95446    0.41057    0.18315    1.000
    S206     S        0.86439    0.50177    0.13251    1.000
    S207     S        0.95761    0.40897    0.07358    1.000
    S208     S        0.80987    0.39086    0.23279    1.000
    S209     S        0.89297    0.42094    0.24166    1.000
    S210     S        0.92157    0.47646    0.18524    1.000
    S211     S        0.75228    0.41467    0.17669    1.000
    S212     S        0.78232    0.46362    0.12386    1.000
    Cd143    Cd       0.01865    0.43955    0.22596    1.000
    Cd144    Cd       0.81125    0.50789    0.03198    1.000
    S213     S        0.97236    0.45763    0.24463    1.000
    S214     S        0.77641    0.47024    0.02631    1.000
    S215     S        0.90998    0.47937    0.07542    1.000
    S216     S        0.75359    0.41405    0.08051    1.000
    S217     S        0.74224    0.35729    0.13632    1.000
    S218     S        0.02042    0.38993    0.22849    1.000
    S219     S        0.86126    0.49521    0.01825    1.000
    S220     S        0.97211    0.46764    0.12500    1.000
    S221     S        0.80727    0.52229    0.07762    1.000
    S222     S        0.89310    0.41950    0.01838    1.000
    S223     S        0.02790    0.45679    0.18287    1.000
    S224     S        0.81630    0.39989    0.02371    1.000
    S225     S        0.80512    0.55085    0.00982    1.000
    C1005    C        0.93640    0.50160    0.05620    1.000
    C1006    C        0.95490    0.52410    0.02090    1.000
    C1007    C        0.93370    0.50890    0.03160    1.000
    C1008    C        0.95150    0.48330    0.04340    1.000
    C1009    C        0.74490    0.97960    0.54100    1.000
    C1010    C        0.71990    0.98330    0.52670    1.000
    C1011    C        0.69310    0.98870    0.53750    1.000
    C1012    C        0.69150    0.99270    0.56310    1.000
    C1013    C        0.71510    0.99010    0.57800    1.000
    C1014    C        0.74120    0.98230    0.56700    1.000
    C1015    C        0.01840    0.99040    0.68440    1.000
    C1016    C        0.01730    0.00420    0.70680    1.000
    C1017    C        0.01130    0.03210    0.70690    1.000
    C1018    C        0.00750    0.04550    0.68670    1.000
    C1019    C        0.00920    0.03060    0.66520    1.000
    C1020    C        0.01540    0.00420    0.66410    1.000
    C1021    C        0.91170    0.00440    0.70080    1.000
    C1022    C        0.88520    0.01470    0.70330    1.000
    C1023    C        0.87610    0.03960    0.71650    1.000
    C1024    C        0.89810    0.05020    0.72890    1.000
    C1025    C        0.92730    0.04380    0.72540    1.000
    C1026    C        0.93390    0.02280    0.71050    1.000
    C1027    C        0.72890    0.90290    0.55820    1.000
    C1028    C        0.70600    0.92020    0.55250    1.000
    C1029    C        0.68530    0.91130    0.53520    1.000
    C1030    C        0.68640    0.88500    0.52350    1.000
    C1031    C        0.71000    0.86910    0.52900    1.000
    C1032    C        0.73130    0.87830    0.54740    1.000
    C1033    C        0.75670    0.98540    0.63740    1.000
    C1034    C        0.75970    0.01000    0.63150    1.000
    C1035    C        0.73670    0.02800    0.64180    1.000
    C1036    C        0.71480    0.01680    0.65850    1.000
    C1037    C        0.70970    0.98930    0.65890    1.000
    C1038    C        0.73160    0.97360    0.64400    1.000
    C1039    C        0.74030    0.93660    0.69870    1.000
    C1040    C        0.75560    0.95530    0.70840    1.000
    C1041    C        0.74440    0.97410    0.72370    1.000
    C1042    C        0.71500    0.97210    0.73290    1.000
    C1043    C        0.69640    0.95350    0.72230    1.000
    C1044    C        0.71030    0.93450    0.70410    1.000
    C1045    C        0.79460    0.91540    0.75300    1.000
    C1046    C        0.80840    0.93790    0.75840    1.000
    C1047    C        0.79660    0.95640    0.77360    1.000
    C1048    C        0.76960    0.95130    0.78540    1.000
    C1049    C        0.75750    0.92810    0.78070    1.000
    C1050    C        0.76690    0.91400    0.76300    1.000
    C1051    C        0.84410    0.02400    0.65160    1.000
    C1052    C        0.82250    0.01580    0.66700    1.000
    C1053    C        0.80560    0.03360    0.68350    1.000
    C1054    C        0.81370    0.06200    0.68110    1.000
    C1055    C        0.83940    0.06860    0.66420    1.000
    C1056    C        0.85270    0.04940    0.64750    1.000
    C1057    C        0.83470    0.04730    0.58180    1.000
    C1058    C        0.82200    0.07170    0.58830    1.000
    C1059    C        0.84400    0.08910    0.59340    1.000
    C1060    C        0.87190    0.08620    0.58610    1.000
    C1061    C        0.88280    0.06360    0.58200    1.000
    C1062    C        0.86260    0.04090    0.57870    1.000
    C1063    C        0.78664    0.88717    0.50344    1.000
    C1064    C        0.78030    0.86084    0.50350    1.000
    C1065    C        0.75810    0.85133    0.48858    1.000
    C1066    C        0.74230    0.86820    0.47359    1.000
    C1067    C        0.74870    0.89450    0.47353    1.000
    C1068    C        0.77082    0.90400    0.48845    1.000
    C1069    C        0.85850    0.98469    0.49000    1.000
    C1070    C        0.84130    0.96322    0.48510    1.000
    C1071    C        0.83720    0.95491    0.46063    1.000
    C1072    C        0.85030    0.96810    0.44100    1.000
    C1073    C        0.86750    0.98950    0.44580    1.000
    C1074    C        0.87170    0.99780    0.47030    1.000
    C1075    C        0.92500    0.93861    0.50390    1.000
    C1076    C        0.92230    0.94885    0.47990    1.000
    C1077    C        0.94600    0.96032    0.46840    1.000
    C1078    C        0.97230    0.96156    0.48080    1.000
    C1079    C        0.97500    0.95133    0.50470    1.000
    C1080    C        0.95130    0.93985    0.51630    1.000
    C1081    C        0.70610    0.85180    0.62170    1.000
    C1082    C        0.70860    0.87310    0.60590    1.000
    C1083    C        0.68580    0.87980    0.59030    1.000
    C1084    C        0.66070    0.86510    0.59030    1.000
    C1085    C        0.65820    0.84380    0.60610    1.000
    C1086    C        0.68100    0.83710    0.62170    1.000
    C1087    C        0.88370    0.94830    0.76040    1.000
    C1088    C        0.87440    0.97070    0.74830    1.000
    C1089    C        0.86500    0.99280    0.76540    1.000
    C1090    C        0.86710    0.99150    0.79080    1.000
    C1091    C        0.87610    0.96900    0.80050    1.000
    C1092    C        0.88700    0.94740    0.78540    1.000
    C1093    C        0.97350    0.93940    0.77240    1.000
    C1094    C        0.98570    0.95100    0.79280    1.000
    C1095    C        0.98530    0.93770    0.81720    1.000
    C1096    C        0.97430    0.91140    0.81900    1.000
    C1097    C        0.96530    0.89830    0.79520    1.000
    C1098    C        0.96370    0.91350    0.77390    1.000
    C1099    C        0.00020    0.97100    0.60290    1.000
    C1100    C        0.00900    0.99620    0.59770    1.000
    C1101    C        0.03150    0.00060    0.58100    1.000
    C1102    C        0.04520    0.97980    0.56960    1.000
    C1103    C        0.03640    0.95460    0.57480    1.000
    C1104    C        0.01400    0.95020    0.59150    1.000
    C1105    C        0.05330    0.88030    0.71650    1.000
    C1106    C        0.07550    0.87090    0.73300    1.000
    C1107    C        0.10420    0.86450    0.72400    1.000
    C1108    C        0.10890    0.86480    0.69580    1.000
    C1109    C        0.08530    0.87550    0.67810    1.000
    C1110    C        0.05850    0.88250    0.69040    1.000
    C1111    C        0.83880    0.05990    0.49710    1.000
    C1112    C        0.84470    0.05550    0.47040    1.000
    C1113    C        0.87280    0.06290    0.46170    1.000
    C1114    C        0.89320    0.07130    0.47740    1.000
    C1115    C        0.88760    0.07660    0.50370    1.000
    C1116    C        0.85970    0.06960    0.51430    1.000
    Cd145    Cd       0.85641    0.91020    0.60400    1.000
    Cd146    Cd       0.79925    0.93212    0.65800    1.000
    Cd147    Cd       0.91414    0.89207    0.65674    1.000
    Cd148    Cd       0.85245    0.91161    0.71000    1.000
    Cd149    Cd       0.87675    0.96301    0.66043    1.000
    Cd150    Cd       0.77657    0.87532    0.60291    1.000
    Cd151    Cd       0.91788    0.88937    0.54957    1.000
    Cd152    Cd       0.93306    0.94062    0.71597    1.000
    Cd153    Cd       0.97996    0.87238    0.70255    1.000
    Cd154    Cd       0.79319    0.93222    0.55359    1.000
    Cd155    Cd       0.87619    0.95710    0.54471    1.000
    Cd156    Cd       0.93458    0.94271    0.59955    1.000
    Cd157    Cd       0.98966    0.93492    0.65576    1.000
    Cd158    Cd       0.82589    0.98504    0.60397    1.000
    S226     S        0.89599    0.92894    0.63030    1.000
    S227     S        0.83784    0.94655    0.57662    1.000
    S228     S        0.81571    0.89419    0.63070    1.000
    S229     S        0.83547    0.95020    0.68716    1.000
    S230     S        0.95446    0.91057    0.68315    1.000
    S231     S        0.86439    0.00177    0.63251    1.000
    S232     S        0.95761    0.90897    0.57358    1.000
    S233     S        0.80987    0.89086    0.73279    1.000
    S234     S        0.89297    0.92094    0.74166    1.000
    S235     S        0.92157    0.97646    0.68524    1.000
    S236     S        0.75228    0.91467    0.67669    1.000
    S237     S        0.78232    0.96362    0.62386    1.000
    Cd159    Cd       0.01865    0.93955    0.72596    1.000
    Cd160    Cd       0.81125    0.00789    0.53198    1.000
    S238     S        0.97236    0.95763    0.74463    1.000
    S239     S        0.77641    0.97024    0.52631    1.000
    S240     S        0.90998    0.97937    0.57542    1.000
    S241     S        0.75359    0.91405    0.58051    1.000
    S242     S        0.74224    0.85729    0.63632    1.000
    S243     S        0.02042    0.88993    0.72849    1.000
    S244     S        0.86126    0.99521    0.51825    1.000
    S245     S        0.97211    0.96764    0.62500    1.000
    S246     S        0.80727    0.02229    0.57762    1.000
    S247     S        0.89310    0.91950    0.51838    1.000
    S248     S        0.02790    0.95679    0.68287    1.000
    S249     S        0.81630    0.89989    0.52371    1.000
    S250     S        0.80512    0.05085    0.50982    1.000
    C1117    C        0.93640    0.00160    0.55620    1.000
    C1118    C        0.95490    0.02410    0.52090    1.000
    C1119    C        0.93370    0.00890    0.53160    1.000
    C1120    C        0.95150    0.98330    0.54340    1.000
    C1121    C        0.24490    0.47960    0.54100    1.000
    C1122    C        0.21990    0.48330    0.52670    1.000
    C1123    C        0.19310    0.48870    0.53750    1.000
    C1124    C        0.19150    0.49270    0.56310    1.000
    C1125    C        0.21510    0.49010    0.57800    1.000
    C1126    C        0.24120    0.48230    0.56700    1.000
    C1127    C        0.51840    0.49040    0.68440    1.000
    C1128    C        0.51730    0.50420    0.70680    1.000
    C1129    C        0.51130    0.53210    0.70690    1.000
    C1130    C        0.50750    0.54550    0.68670    1.000
    C1131    C        0.50920    0.53060    0.66520    1.000
    C1132    C        0.51540    0.50420    0.66410    1.000
    C1133    C        0.41170    0.50440    0.70080    1.000
    C1134    C        0.38520    0.51470    0.70330    1.000
    C1135    C        0.37610    0.53960    0.71650    1.000
    C1136    C        0.39810    0.55020    0.72890    1.000
    C1137    C        0.42730    0.54380    0.72540    1.000
    C1138    C        0.43390    0.52280    0.71050    1.000
    C1139    C        0.22890    0.40290    0.55820    1.000
    C1140    C        0.20600    0.42020    0.55250    1.000
    C1141    C        0.18530    0.41130    0.53520    1.000
    C1142    C        0.18640    0.38500    0.52350    1.000
    C1143    C        0.21000    0.36910    0.52900    1.000
    C1144    C        0.23130    0.37830    0.54740    1.000
    C1145    C        0.25670    0.48540    0.63740    1.000
    C1146    C        0.25970    0.51000    0.63150    1.000
    C1147    C        0.23670    0.52800    0.64180    1.000
    C1148    C        0.21480    0.51680    0.65850    1.000
    C1149    C        0.20970    0.48930    0.65890    1.000
    C1150    C        0.23160    0.47360    0.64400    1.000
    C1151    C        0.24030    0.43660    0.69870    1.000
    C1152    C        0.25560    0.45530    0.70840    1.000
    C1153    C        0.24440    0.47410    0.72370    1.000
    C1154    C        0.21500    0.47210    0.73290    1.000
    C1155    C        0.19640    0.45350    0.72230    1.000
    C1156    C        0.21030    0.43450    0.70410    1.000
    C1157    C        0.29460    0.41540    0.75300    1.000
    C1158    C        0.30840    0.43790    0.75840    1.000
    C1159    C        0.29660    0.45640    0.77360    1.000
    C1160    C        0.26960    0.45130    0.78540    1.000
    C1161    C        0.25750    0.42810    0.78070    1.000
    C1162    C        0.26690    0.41400    0.76300    1.000
    C1163    C        0.34410    0.52400    0.65160    1.000
    C1164    C        0.32250    0.51580    0.66700    1.000
    C1165    C        0.30560    0.53360    0.68350    1.000
    C1166    C        0.31370    0.56200    0.68110    1.000
    C1167    C        0.33940    0.56860    0.66420    1.000
    C1168    C        0.35270    0.54940    0.64750    1.000
    C1169    C        0.33470    0.54730    0.58180    1.000
    C1170    C        0.32200    0.57170    0.58830    1.000
    C1171    C        0.34400    0.58910    0.59340    1.000
    C1172    C        0.37190    0.58620    0.58610    1.000
    C1173    C        0.38280    0.56360    0.58200    1.000
    C1174    C        0.36260    0.54090    0.57870    1.000
    C1175    C        0.28664    0.38717    0.50344    1.000
    C1176    C        0.28030    0.36084    0.50350    1.000
    C1177    C        0.25810    0.35133    0.48858    1.000
    C1178    C        0.24230    0.36820    0.47359    1.000
    C1179    C        0.24870    0.39450    0.47353    1.000
    C1180    C        0.27082    0.40400    0.48845    1.000
    C1181    C        0.35850    0.48469    0.49000    1.000
    C1182    C        0.34130    0.46322    0.48510    1.000
    C1183    C        0.33720    0.45491    0.46063    1.000
    C1184    C        0.35030    0.46810    0.44100    1.000
    C1185    C        0.36750    0.48950    0.44580    1.000
    C1186    C        0.37170    0.49780    0.47030    1.000
    C1187    C        0.42500    0.43861    0.50390    1.000
    C1188    C        0.42230    0.44885    0.47990    1.000
    C1189    C        0.44600    0.46032    0.46840    1.000
    C1190    C        0.47230    0.46156    0.48080    1.000
    C1191    C        0.47500    0.45133    0.50470    1.000
    C1192    C        0.45130    0.43985    0.51630    1.000
    C1193    C        0.20610    0.35180    0.62170    1.000
    C1194    C        0.20860    0.37310    0.60590    1.000
    C1195    C        0.18580    0.37980    0.59030    1.000
    C1196    C        0.16070    0.36510    0.59030    1.000
    C1197    C        0.15820    0.34380    0.60610    1.000
    C1198    C        0.18100    0.33710    0.62170    1.000
    C1199    C        0.38370    0.44830    0.76040    1.000
    C1200    C        0.37440    0.47070    0.74830    1.000
    C1201    C        0.36500    0.49280    0.76540    1.000
    C1202    C        0.36710    0.49150    0.79080    1.000
    C1203    C        0.37610    0.46900    0.80050    1.000
    C1204    C        0.38700    0.44740    0.78540    1.000
    C1205    C        0.47350    0.43940    0.77240    1.000
    C1206    C        0.48570    0.45100    0.79280    1.000
    C1207    C        0.48530    0.43770    0.81720    1.000
    C1208    C        0.47430    0.41140    0.81900    1.000
    C1209    C        0.46530    0.39830    0.79520    1.000
    C1210    C        0.46370    0.41350    0.77390    1.000
    C1211    C        0.50020    0.47100    0.60290    1.000
    C1212    C        0.50900    0.49620    0.59770    1.000
    C1213    C        0.53150    0.50060    0.58100    1.000
    C1214    C        0.54520    0.47980    0.56960    1.000
    C1215    C        0.53640    0.45460    0.57480    1.000
    C1216    C        0.51400    0.45020    0.59150    1.000
    C1217    C        0.55330    0.38030    0.71650    1.000
    C1218    C        0.57550    0.37090    0.73300    1.000
    C1219    C        0.60420    0.36450    0.72400    1.000
    C1220    C        0.60890    0.36480    0.69580    1.000
    C1221    C        0.58530    0.37550    0.67810    1.000
    C1222    C        0.55850    0.38250    0.69040    1.000
    C1223    C        0.33880    0.55990    0.49710    1.000
    C1224    C        0.34470    0.55550    0.47040    1.000
    C1225    C        0.37280    0.56290    0.46170    1.000
    C1226    C        0.39320    0.57130    0.47740    1.000
    C1227    C        0.38760    0.57660    0.50370    1.000
    C1228    C        0.35970    0.56960    0.51430    1.000
    Cd161    Cd       0.35641    0.41020    0.60400    1.000
    Cd162    Cd       0.29925    0.43212    0.65800    1.000
    Cd163    Cd       0.41414    0.39207    0.65674    1.000
    Cd164    Cd       0.35245    0.41161    0.71000    1.000
    Cd165    Cd       0.37675    0.46301    0.66043    1.000
    Cd166    Cd       0.27657    0.37532    0.60291    1.000
    Cd167    Cd       0.41788    0.38937    0.54957    1.000
    Cd168    Cd       0.43306    0.44062    0.71597    1.000
    Cd169    Cd       0.47996    0.37238    0.70255    1.000
    Cd170    Cd       0.29319    0.43222    0.55359    1.000
    Cd171    Cd       0.37619    0.45710    0.54471    1.000
    Cd172    Cd       0.43458    0.44271    0.59955    1.000
    Cd173    Cd       0.48966    0.43492    0.65576    1.000
    Cd174    Cd       0.32589    0.48504    0.60397    1.000
    S251     S        0.39599    0.42894    0.63030    1.000
    S252     S        0.33784    0.44655    0.57662    1.000
    S253     S        0.31571    0.39419    0.63070    1.000
    S254     S        0.33547    0.45020    0.68716    1.000
    S255     S        0.45446    0.41057    0.68315    1.000
    S256     S        0.36439    0.50177    0.63251    1.000
    S257     S        0.45761    0.40897    0.57358    1.000
    S258     S        0.30987    0.39086    0.73279    1.000
    S259     S        0.39297    0.42094    0.74166    1.000
    S260     S        0.42157    0.47646    0.68524    1.000
    S261     S        0.25228    0.41467    0.67669    1.000
    S262     S        0.28232    0.46362    0.62386    1.000
    Cd175    Cd       0.51865    0.43955    0.72596    1.000
    Cd176    Cd       0.31125    0.50789    0.53198    1.000
    S263     S        0.47236    0.45763    0.74463    1.000
    S264     S        0.27641    0.47024    0.52631    1.000
    S265     S        0.40998    0.47937    0.57542    1.000
    S266     S        0.25359    0.41405    0.58051    1.000
    S267     S        0.24224    0.35729    0.63632    1.000
    S268     S        0.52042    0.38993    0.72849    1.000
    S269     S        0.36126    0.49521    0.51825    1.000
    S270     S        0.47211    0.46764    0.62500    1.000
    S271     S        0.30727    0.52229    0.57762    1.000
    S272     S        0.39310    0.41950    0.51838    1.000
    S273     S        0.52790    0.45679    0.68287    1.000
    S274     S        0.31630    0.39989    0.52371    1.000
    S275     S        0.30512    0.55085    0.50982    1.000
    C1229    C        0.43640    0.50160    0.55620    1.000
    C1230    C        0.45490    0.52410    0.52090    1.000
    C1231    C        0.43370    0.50890    0.53160    1.000
    C1232    C        0.45150    0.48330    0.54340    1.000
    C1233    C        0.24490    0.97960    0.04100    1.000
    C1234    C        0.21990    0.98330    0.02670    1.000
    C1235    C        0.19310    0.98870    0.03750    1.000
    C1236    C        0.19150    0.99270    0.06310    1.000
    C1237    C        0.21510    0.99010    0.07800    1.000
    C1238    C        0.24120    0.98230    0.06700    1.000
    C1239    C        0.51840    0.99040    0.18440    1.000
    C1240    C        0.51730    0.00420    0.20680    1.000
    C1241    C        0.51130    0.03210    0.20690    1.000
    C1242    C        0.50750    0.04550    0.18670    1.000
    C1243    C        0.50920    0.03060    0.16520    1.000
    C1244    C        0.51540    0.00420    0.16410    1.000
    C1245    C        0.41170    0.00440    0.20080    1.000
    C1246    C        0.38520    0.01470    0.20330    1.000
    C1247    C        0.37610    0.03960    0.21650    1.000
    C1248    C        0.39810    0.05020    0.22890    1.000
    C1249    C        0.42730    0.04380    0.22540    1.000
    C1250    C        0.43390    0.02280    0.21050    1.000
    C1251    C        0.22890    0.90290    0.05820    1.000
    C1252    C        0.20600    0.92020    0.05250    1.000
    C1253    C        0.18530    0.91130    0.03520    1.000
    C1254    C        0.18640    0.88500    0.02350    1.000
    C1255    C        0.21000    0.86910    0.02900    1.000
    C1256    C        0.23130    0.87830    0.04740    1.000
    C1257    C        0.25670    0.98540    0.13740    1.000
    C1258    C        0.25970    0.01000    0.13150    1.000
    C1259    C        0.23670    0.02800    0.14180    1.000
    C1260    C        0.21480    0.01680    0.15850    1.000
    C1261    C        0.20970    0.98930    0.15890    1.000
    C1262    C        0.23160    0.97360    0.14400    1.000
    C1263    C        0.24030    0.93660    0.19870    1.000
    C1264    C        0.25560    0.95530    0.20840    1.000
    C1265    C        0.24440    0.97410    0.22370    1.000
    C1266    C        0.21500    0.97210    0.23290    1.000
    C1267    C        0.19640    0.95350    0.22230    1.000
    C1268    C        0.21030    0.93450    0.20410    1.000
    C1269    C        0.29460    0.91540    0.25300    1.000
    C1270    C        0.30840    0.93790    0.25840    1.000
    C1271    C        0.29660    0.95640    0.27360    1.000
    C1272    C        0.26960    0.95130    0.28540    1.000
    C1273    C        0.25750    0.92810    0.28070    1.000
    C1274    C        0.26690    0.91400    0.26300    1.000
    C1275    C        0.34410    0.02400    0.15160    1.000
    C1276    C        0.32250    0.01580    0.16700    1.000
    C1277    C        0.30560    0.03360    0.18350    1.000
    C1278    C        0.31370    0.06200    0.18110    1.000
    C1279    C        0.33940    0.06860    0.16420    1.000
    C1280    C        0.35270    0.04940    0.14750    1.000
    C1281    C        0.33470    0.04730    0.08180    1.000
    C1282    C        0.32200    0.07170    0.08830    1.000
    C1283    C        0.34400    0.08910    0.09340    1.000
    C1284    C        0.37190    0.08620    0.08610    1.000
    C1285    C        0.38280    0.06360    0.08200    1.000
    C1286    C        0.36260    0.04090    0.07870    1.000
    C1287    C        0.28664    0.88717    0.00344    1.000
    C1288    C        0.28030    0.86084    0.00350    1.000
    C1289    C        0.25810    0.85133    0.98858    1.000
    C1290    C        0.24230    0.86820    0.97359    1.000
    C1291    C        0.24870    0.89450    0.97353    1.000
    C1292    C        0.27082    0.90400    0.98845    1.000
    C1293    C        0.35850    0.98469    0.99000    1.000
    C1294    C        0.34130    0.96322    0.98510    1.000
    C1295    C        0.33720    0.95491    0.96063    1.000
    C1296    C        0.35030    0.96810    0.94100    1.000
    C1297    C        0.36750    0.98950    0.94580    1.000
    C1298    C        0.37170    0.99780    0.97030    1.000
    C1299    C        0.42500    0.93861    0.00390    1.000
    C1300    C        0.42230    0.94885    0.97990    1.000
    C1301    C        0.44600    0.96032    0.96840    1.000
    C1302    C        0.47230    0.96156    0.98080    1.000
    C1303    C        0.47500    0.95133    0.00470    1.000
    C1304    C        0.45130    0.93985    0.01630    1.000
    C1305    C        0.20610    0.85180    0.12170    1.000
    C1306    C        0.20860    0.87310    0.10590    1.000
    C1307    C        0.18580    0.87980    0.09030    1.000
    C1308    C        0.16070    0.86510    0.09030    1.000
    C1309    C        0.15820    0.84380    0.10610    1.000
    C1310    C        0.18100    0.83710    0.12170    1.000
    C1311    C        0.38370    0.94830    0.26040    1.000
    C1312    C        0.37440    0.97070    0.24830    1.000
    C1313    C        0.36500    0.99280    0.26540    1.000
    C1314    C        0.36710    0.99150    0.29080    1.000
    C1315    C        0.37610    0.96900    0.30050    1.000
    C1316    C        0.38700    0.94740    0.28540    1.000
    C1317    C        0.47350    0.93940    0.27240    1.000
    C1318    C        0.48570    0.95100    0.29280    1.000
    C1319    C        0.48530    0.93770    0.31720    1.000
    C1320    C        0.47430    0.91140    0.31900    1.000
    C1321    C        0.46530    0.89830    0.29520    1.000
    C1322    C        0.46370    0.91350    0.27390    1.000
    C1323    C        0.50020    0.97100    0.10290    1.000
    C1324    C        0.50900    0.99620    0.09770    1.000
    C1325    C        0.53150    0.00060    0.08100    1.000
    C1326    C        0.54520    0.97980    0.06960    1.000
    C1327    C        0.53640    0.95460    0.07480    1.000
    C1328    C        0.51400    0.95020    0.09150    1.000
    C1329    C        0.55330    0.88030    0.21650    1.000
    C1330    C        0.57550    0.87090    0.23300    1.000
    C1331    C        0.60420    0.86450    0.22400    1.000
    C1332    C        0.60890    0.86480    0.19580    1.000
    C1333    C        0.58530    0.87550    0.17810    1.000
    C1334    C        0.55850    0.88250    0.19040    1.000
    C1335    C        0.33880    0.05990    0.99710    1.000
    C1336    C        0.34470    0.05550    0.97040    1.000
    C1337    C        0.37280    0.06290    0.96170    1.000
    C1338    C        0.39320    0.07130    0.97740    1.000
    C1339    C        0.38760    0.07660    0.00370    1.000
    C1340    C        0.35970    0.06960    0.01430    1.000
    Cd177    Cd       0.35641    0.91020    0.10400    1.000
    Cd178    Cd       0.29925    0.93212    0.15800    1.000
    Cd179    Cd       0.41414    0.89207    0.15674    1.000
    Cd180    Cd       0.35245    0.91161    0.21000    1.000
    Cd181    Cd       0.37675    0.96301    0.16043    1.000
    Cd182    Cd       0.27657    0.87532    0.10291    1.000
    Cd183    Cd       0.41788    0.88937    0.04957    1.000
    Cd184    Cd       0.43306    0.94062    0.21597    1.000
    Cd185    Cd       0.47996    0.87238    0.20255    1.000
    Cd186    Cd       0.29319    0.93222    0.05359    1.000
    Cd187    Cd       0.37619    0.95710    0.04471    1.000
    Cd188    Cd       0.43458    0.94271    0.09955    1.000
    Cd189    Cd       0.48966    0.93492    0.15576    1.000
    Cd190    Cd       0.32589    0.98504    0.10397    1.000
    S276     S        0.39599    0.92894    0.13030    1.000
    S277     S        0.33784    0.94655    0.07662    1.000
    S278     S        0.31571    0.89419    0.13070    1.000
    S279     S        0.33547    0.95020    0.18716    1.000
    S280     S        0.45446    0.91057    0.18315    1.000
    S281     S        0.36439    0.00177    0.13251    1.000
    S282     S        0.45761    0.90897    0.07358    1.000
    S283     S        0.30987    0.89086    0.23279    1.000
    S284     S        0.39297    0.92094    0.24166    1.000
    S285     S        0.42157    0.97646    0.18524    1.000
    S286     S        0.25228    0.91467    0.17669    1.000
    S287     S        0.28232    0.96362    0.12386    1.000
    Cd191    Cd       0.51865    0.93955    0.22596    1.000
    Cd192    Cd       0.31125    0.00789    0.03198    1.000
    S288     S        0.47236    0.95763    0.24463    1.000
    S289     S        0.27641    0.97024    0.02631    1.000
    S290     S        0.40998    0.97937    0.07542    1.000
    S291     S        0.25359    0.91405    0.08051    1.000
    S292     S        0.24224    0.85729    0.13632    1.000
    S293     S        0.52042    0.88993    0.22849    1.000
    S294     S        0.36126    0.99521    0.01825    1.000
    S295     S        0.47211    0.96764    0.12500    1.000
    S296     S        0.30727    0.02229    0.07762    1.000
    S297     S        0.39310    0.91950    0.01838    1.000
    S298     S        0.52790    0.95679    0.18287    1.000
    S299     S        0.31630    0.89989    0.02371    1.000
    S300     S        0.30512    0.05085    0.00982    1.000
    C1341    C        0.43640    0.00160    0.05620    1.000
    C1342    C        0.45490    0.02410    0.02090    1.000
    C1343    C        0.43370    0.00890    0.03160    1.000
    C1344    C        0.45150    0.98330    0.04340    1.000
    C1345    C        0.50510    0.77040    0.04100    1.000
    C1346    C        0.53010    0.76670    0.02670    1.000
    C1347    C        0.55690    0.76130    0.03750    1.000
    C1348    C        0.55850    0.75730    0.06310    1.000
    C1349    C        0.53490    0.75990    0.07800    1.000
    C1350    C        0.50880    0.76770    0.06700    1.000
    C1351    C        0.23160    0.75960    0.18440    1.000
    C1352    C        0.23270    0.74580    0.20680    1.000
    C1353    C        0.23870    0.71790    0.20690    1.000
    C1354    C        0.24250    0.70450    0.18670    1.000
    C1355    C        0.24080    0.71940    0.16520    1.000
    C1356    C        0.23460    0.74580    0.16410    1.000
    C1357    C        0.33830    0.74560    0.20080    1.000
    C1358    C        0.36480    0.73530    0.20330    1.000
    C1359    C        0.37390    0.71040    0.21650    1.000
    C1360    C        0.35190    0.69980    0.22890    1.000
    C1361    C        0.32270    0.70620    0.22540    1.000
    C1362    C        0.31610    0.72720    0.21050    1.000
    C1363    C        0.52110    0.84710    0.05820    1.000
    C1364    C        0.54400    0.82980    0.05250    1.000
    C1365    C        0.56470    0.83870    0.03520    1.000
    C1366    C        0.56360    0.86500    0.02350    1.000
    C1367    C        0.54000    0.88090    0.02900    1.000
    C1368    C        0.51870    0.87170    0.04740    1.000
    C1369    C        0.49330    0.76460    0.13740    1.000
    C1370    C        0.49030    0.74000    0.13150    1.000
    C1371    C        0.51330    0.72200    0.14180    1.000
    C1372    C        0.53520    0.73320    0.15850    1.000
    C1373    C        0.54030    0.76070    0.15890    1.000
    C1374    C        0.51840    0.77640    0.14400    1.000
    C1375    C        0.50970    0.81340    0.19870    1.000
    C1376    C        0.49440    0.79470    0.20840    1.000
    C1377    C        0.50560    0.77590    0.22370    1.000
    C1378    C        0.53500    0.77790    0.23290    1.000
    C1379    C        0.55360    0.79650    0.22230    1.000
    C1380    C        0.53970    0.81550    0.20410    1.000
    C1381    C        0.45540    0.83460    0.25300    1.000
    C1382    C        0.44160    0.81210    0.25840    1.000
    C1383    C        0.45340    0.79360    0.27360    1.000
    C1384    C        0.48040    0.79870    0.28540    1.000
    C1385    C        0.49250    0.82190    0.28070    1.000
    C1386    C        0.48310    0.83600    0.26300    1.000
    C1387    C        0.40590    0.72600    0.15160    1.000
    C1388    C        0.42750    0.73420    0.16700    1.000
    C1389    C        0.44440    0.71640    0.18350    1.000
    C1390    C        0.43630    0.68800    0.18110    1.000
    C1391    C        0.41060    0.68140    0.16420    1.000
    C1392    C        0.39730    0.70060    0.14750    1.000
    C1393    C        0.41530    0.70270    0.08180    1.000
    C1394    C        0.42800    0.67830    0.08830    1.000
    C1395    C        0.40600    0.66090    0.09340    1.000
    C1396    C        0.37810    0.66380    0.08610    1.000
    C1397    C        0.36720    0.68640    0.08200    1.000
    C1398    C        0.38740    0.70910    0.07870    1.000
    C1399    C        0.46336    0.86283    0.00344    1.000
    C1400    C        0.46970    0.88916    0.00350    1.000
    C1401    C        0.49190    0.89867    0.98858    1.000
    C1402    C        0.50770    0.88180    0.97359    1.000
    C1403    C        0.50130    0.85550    0.97353    1.000
    C1404    C        0.47918    0.84600    0.98845    1.000
    C1405    C        0.39150    0.76531    0.99000    1.000
    C1406    C        0.40870    0.78678    0.98510    1.000
    C1407    C        0.41280    0.79509    0.96063    1.000
    C1408    C        0.39970    0.78190    0.94100    1.000
    C1409    C        0.38250    0.76050    0.94580    1.000
    C1410    C        0.37830    0.75220    0.97030    1.000
    C1411    C        0.32500    0.81139    0.00390    1.000
    C1412    C        0.32770    0.80115    0.97990    1.000
    C1413    C        0.30400    0.78968    0.96840    1.000
    C1414    C        0.27770    0.78844    0.98080    1.000
    C1415    C        0.27500    0.79867    0.00470    1.000
    C1416    C        0.29870    0.81015    0.01630    1.000
    C1417    C        0.54390    0.89820    0.12170    1.000
    C1418    C        0.54140    0.87690    0.10590    1.000
    C1419    C        0.56420    0.87020    0.09030    1.000
    C1420    C        0.58930    0.88490    0.09030    1.000
    C1421    C        0.59180    0.90620    0.10610    1.000
    C1422    C        0.56900    0.91290    0.12170    1.000
    C1423    C        0.36630    0.80170    0.26040    1.000
    C1424    C        0.37560    0.77930    0.24830    1.000
    C1425    C        0.38500    0.75720    0.26540    1.000
    C1426    C        0.38290    0.75850    0.29080    1.000
    C1427    C        0.37390    0.78100    0.30050    1.000
    C1428    C        0.36300    0.80260    0.28540    1.000
    C1429    C        0.27650    0.81060    0.27240    1.000
    C1430    C        0.26430    0.79900    0.29280    1.000
    C1431    C        0.26470    0.81230    0.31720    1.000
    C1432    C        0.27570    0.83860    0.31900    1.000
    C1433    C        0.28470    0.85170    0.29520    1.000
    C1434    C        0.28630    0.83650    0.27390    1.000
    C1435    C        0.24980    0.77900    0.10290    1.000
    C1436    C        0.24100    0.75380    0.09770    1.000
    C1437    C        0.21850    0.74940    0.08100    1.000
    C1438    C        0.20480    0.77020    0.06960    1.000
    C1439    C        0.21360    0.79540    0.07480    1.000
    C1440    C        0.23600    0.79980    0.09150    1.000
    C1441    C        0.19670    0.86970    0.21650    1.000
    C1442    C        0.17450    0.87910    0.23300    1.000
    C1443    C        0.14580    0.88550    0.22400    1.000
    C1444    C        0.14110    0.88520    0.19580    1.000
    C1445    C        0.16470    0.87450    0.17810    1.000
    C1446    C        0.19150    0.86750    0.19040    1.000
    C1447    C        0.41120    0.69010    0.99710    1.000
    C1448    C        0.40530    0.69450    0.97040    1.000
    C1449    C        0.37720    0.68710    0.96170    1.000
    C1450    C        0.35680    0.67870    0.97740    1.000
    C1451    C        0.36240    0.67340    0.00370    1.000
    C1452    C        0.39030    0.68040    0.01430    1.000
    Cd193    Cd       0.39359    0.83980    0.10400    1.000
    Cd194    Cd       0.45075    0.81788    0.15800    1.000
    Cd195    Cd       0.33586    0.85793    0.15674    1.000
    Cd196    Cd       0.39755    0.83839    0.21000    1.000
    Cd197    Cd       0.37325    0.78699    0.16043    1.000
    Cd198    Cd       0.47343    0.87468    0.10291    1.000
    Cd199    Cd       0.33212    0.86063    0.04957    1.000
    Cd200    Cd       0.31694    0.80938    0.21597    1.000
    Cd201    Cd       0.27004    0.87762    0.20255    1.000
    Cd202    Cd       0.45681    0.81778    0.05359    1.000
    Cd203    Cd       0.37381    0.79290    0.04471    1.000
    Cd204    Cd       0.31542    0.80729    0.09955    1.000
    Cd205    Cd       0.26034    0.81508    0.15576    1.000
    Cd206    Cd       0.42411    0.76496    0.10397    1.000
    S301     S        0.35401    0.82106    0.13030    1.000
    S302     S        0.41216    0.80345    0.07662    1.000
    S303     S        0.43429    0.85581    0.13070    1.000
    S304     S        0.41453    0.79980    0.18716    1.000
    S305     S        0.29554    0.83943    0.18315    1.000
    S306     S        0.38561    0.74823    0.13251    1.000
    S307     S        0.29239    0.84103    0.07358    1.000
    S308     S        0.44013    0.85914    0.23279    1.000
    S309     S        0.35703    0.82906    0.24166    1.000
    S310     S        0.32843    0.77354    0.18524    1.000
    S311     S        0.49772    0.83533    0.17669    1.000
    S312     S        0.46768    0.78638    0.12386    1.000
    Cd207    Cd       0.23135    0.81045    0.22596    1.000
    Cd208    Cd       0.43875    0.74211    0.03198    1.000
    S313     S        0.27764    0.79237    0.24463    1.000
    S314     S        0.47359    0.77976    0.02631    1.000
    S315     S        0.34002    0.77063    0.07542    1.000
    S316     S        0.49641    0.83595    0.08051    1.000
    S317     S        0.50776    0.89271    0.13632    1.000
    S318     S        0.22958    0.86007    0.22849    1.000
    S319     S        0.38874    0.75479    0.01825    1.000
    S320     S        0.27789    0.78236    0.12500    1.000
    S321     S        0.44273    0.72771    0.07762    1.000
    S322     S        0.35690    0.83050    0.01838    1.000
    S323     S        0.22210    0.79321    0.18287    1.000
    S324     S        0.43370    0.85011    0.02371    1.000
    S325     S        0.44488    0.69915    0.00982    1.000
    C1453    C        0.31360    0.74840    0.05620    1.000
    C1454    C        0.29510    0.72590    0.02090    1.000
    C1455    C        0.31630    0.74110    0.03160    1.000
    C1456    C        0.29850    0.76670    0.04340    1.000
    C1457    C        0.50510    0.27040    0.54100    1.000
    C1458    C        0.53010    0.26670    0.52670    1.000
    C1459    C        0.55690    0.26130    0.53750    1.000
    C1460    C        0.55850    0.25730    0.56310    1.000
    C1461    C        0.53490    0.25990    0.57800    1.000
    C1462    C        0.50880    0.26770    0.56700    1.000
    C1463    C        0.23160    0.25960    0.68440    1.000
    C1464    C        0.23270    0.24580    0.70680    1.000
    C1465    C        0.23870    0.21790    0.70690    1.000
    C1466    C        0.24250    0.20450    0.68670    1.000
    C1467    C        0.24080    0.21940    0.66520    1.000
    C1468    C        0.23460    0.24580    0.66410    1.000
    C1469    C        0.33830    0.24560    0.70080    1.000
    C1470    C        0.36480    0.23530    0.70330    1.000
    C1471    C        0.37390    0.21040    0.71650    1.000
    C1472    C        0.35190    0.19980    0.72890    1.000
    C1473    C        0.32270    0.20620    0.72540    1.000
    C1474    C        0.31610    0.22720    0.71050    1.000
    C1475    C        0.52110    0.34710    0.55820    1.000
    C1476    C        0.54400    0.32980    0.55250    1.000
    C1477    C        0.56470    0.33870    0.53520    1.000
    C1478    C        0.56360    0.36500    0.52350    1.000
    C1479    C        0.54000    0.38090    0.52900    1.000
    C1480    C        0.51870    0.37170    0.54740    1.000
    C1481    C        0.49330    0.26460    0.63740    1.000
    C1482    C        0.49030    0.24000    0.63150    1.000
    C1483    C        0.51330    0.22200    0.64180    1.000
    C1484    C        0.53520    0.23320    0.65850    1.000
    C1485    C        0.54030    0.26070    0.65890    1.000
    C1486    C        0.51840    0.27640    0.64400    1.000
    C1487    C        0.50970    0.31340    0.69870    1.000
    C1488    C        0.49440    0.29470    0.70840    1.000
    C1489    C        0.50560    0.27590    0.72370    1.000
    C1490    C        0.53500    0.27790    0.73290    1.000
    C1491    C        0.55360    0.29650    0.72230    1.000
    C1492    C        0.53970    0.31550    0.70410    1.000
    C1493    C        0.45540    0.33460    0.75300    1.000
    C1494    C        0.44160    0.31210    0.75840    1.000
    C1495    C        0.45340    0.29360    0.77360    1.000
    C1496    C        0.48040    0.29870    0.78540    1.000
    C1497    C        0.49250    0.32190    0.78070    1.000
    C1498    C        0.48310    0.33600    0.76300    1.000
    C1499    C        0.40590    0.22600    0.65160    1.000
    C1500    C        0.42750    0.23420    0.66700    1.000
    C1501    C        0.44440    0.21640    0.68350    1.000
    C1502    C        0.43630    0.18800    0.68110    1.000
    C1503    C        0.41060    0.18140    0.66420    1.000
    C1504    C        0.39730    0.20060    0.64750    1.000
    C1505    C        0.41530    0.20270    0.58180    1.000
    C1506    C        0.42800    0.17830    0.58830    1.000
    C1507    C        0.40600    0.16090    0.59340    1.000
    C1508    C        0.37810    0.16380    0.58610    1.000
    C1509    C        0.36720    0.18640    0.58200    1.000
    C1510    C        0.38740    0.20910    0.57870    1.000
    C1511    C        0.46336    0.36283    0.50344    1.000
    C1512    C        0.46970    0.38916    0.50350    1.000
    C1513    C        0.49190    0.39867    0.48858    1.000
    C1514    C        0.50770    0.38180    0.47359    1.000
    C1515    C        0.50130    0.35550    0.47353    1.000
    C1516    C        0.47918    0.34600    0.48845    1.000
    C1517    C        0.39150    0.26531    0.49000    1.000
    C1518    C        0.40870    0.28678    0.48510    1.000
    C1519    C        0.41280    0.29509    0.46063    1.000
    C1520    C        0.39970    0.28190    0.44100    1.000
    C1521    C        0.38250    0.26050    0.44580    1.000
    C1522    C        0.37830    0.25220    0.47030    1.000
    C1523    C        0.32500    0.31139    0.50390    1.000
    C1524    C        0.32770    0.30115    0.47990    1.000
    C1525    C        0.30400    0.28968    0.46840    1.000
    C1526    C        0.27770    0.28844    0.48080    1.000
    C1527    C        0.27500    0.29867    0.50470    1.000
    C1528    C        0.29870    0.31015    0.51630    1.000
    C1529    C        0.54390    0.39820    0.62170    1.000
    C1530    C        0.54140    0.37690    0.60590    1.000
    C1531    C        0.56420    0.37020    0.59030    1.000
    C1532    C        0.58930    0.38490    0.59030    1.000
    C1533    C        0.59180    0.40620    0.60610    1.000
    C1534    C        0.56900    0.41290    0.62170    1.000
    C1535    C        0.36630    0.30170    0.76040    1.000
    C1536    C        0.37560    0.27930    0.74830    1.000
    C1537    C        0.38500    0.25720    0.76540    1.000
    C1538    C        0.38290    0.25850    0.79080    1.000
    C1539    C        0.37390    0.28100    0.80050    1.000
    C1540    C        0.36300    0.30260    0.78540    1.000
    C1541    C        0.27650    0.31060    0.77240    1.000
    C1542    C        0.26430    0.29900    0.79280    1.000
    C1543    C        0.26470    0.31230    0.81720    1.000
    C1544    C        0.27570    0.33860    0.81900    1.000
    C1545    C        0.28470    0.35170    0.79520    1.000
    C1546    C        0.28630    0.33650    0.77390    1.000
    C1547    C        0.24980    0.27900    0.60290    1.000
    C1548    C        0.24100    0.25380    0.59770    1.000
    C1549    C        0.21850    0.24940    0.58100    1.000
    C1550    C        0.20480    0.27020    0.56960    1.000
    C1551    C        0.21360    0.29540    0.57480    1.000
    C1552    C        0.23600    0.29980    0.59150    1.000
    C1553    C        0.19670    0.36970    0.71650    1.000
    C1554    C        0.17450    0.37910    0.73300    1.000
    C1555    C        0.14580    0.38550    0.72400    1.000
    C1556    C        0.14110    0.38520    0.69580    1.000
    C1557    C        0.16470    0.37450    0.67810    1.000
    C1558    C        0.19150    0.36750    0.69040    1.000
    C1559    C        0.41120    0.19010    0.49710    1.000
    C1560    C        0.40530    0.19450    0.47040    1.000
    C1561    C        0.37720    0.18710    0.46170    1.000
    C1562    C        0.35680    0.17870    0.47740    1.000
    C1563    C        0.36240    0.17340    0.50370    1.000
    C1564    C        0.39030    0.18040    0.51430    1.000
    Cd209    Cd       0.39359    0.33980    0.60400    1.000
    Cd210    Cd       0.45075    0.31788    0.65800    1.000
    Cd211    Cd       0.33586    0.35793    0.65674    1.000
    Cd212    Cd       0.39755    0.33839    0.71000    1.000
    Cd213    Cd       0.37325    0.28699    0.66043    1.000
    Cd214    Cd       0.47343    0.37468    0.60291    1.000
    Cd215    Cd       0.33212    0.36063    0.54957    1.000
    Cd216    Cd       0.31694    0.30938    0.71597    1.000
    Cd217    Cd       0.27004    0.37762    0.70255    1.000
    Cd218    Cd       0.45681    0.31778    0.55359    1.000
    Cd219    Cd       0.37381    0.29290    0.54471    1.000
    Cd220    Cd       0.31542    0.30729    0.59955    1.000
    Cd221    Cd       0.26034    0.31508    0.65576    1.000
    Cd222    Cd       0.42411    0.26496    0.60397    1.000
    S326     S        0.35401    0.32106    0.63030    1.000
    S327     S        0.41216    0.30345    0.57662    1.000
    S328     S        0.43429    0.35581    0.63070    1.000
    S329     S        0.41453    0.29980    0.68716    1.000
    S330     S        0.29554    0.33943    0.68315    1.000
    S331     S        0.38561    0.24823    0.63251    1.000
    S332     S        0.29239    0.34103    0.57358    1.000
    S333     S        0.44013    0.35914    0.73279    1.000
    S334     S        0.35703    0.32906    0.74166    1.000
    S335     S        0.32843    0.27354    0.68524    1.000
    S336     S        0.49772    0.33533    0.67669    1.000
    S337     S        0.46768    0.28638    0.62386    1.000
    Cd223    Cd       0.23135    0.31045    0.72596    1.000
    Cd224    Cd       0.43875    0.24211    0.53198    1.000
    S338     S        0.27764    0.29237    0.74463    1.000
    S339     S        0.47359    0.27976    0.52631    1.000
    S340     S        0.34002    0.27063    0.57542    1.000
    S341     S        0.49641    0.33595    0.58051    1.000
    S342     S        0.50776    0.39271    0.63632    1.000
    S343     S        0.22958    0.36007    0.72849    1.000
    S344     S        0.38874    0.25479    0.51825    1.000
    S345     S        0.27789    0.28236    0.62500    1.000
    S346     S        0.44273    0.22771    0.57762    1.000
    S347     S        0.35690    0.33050    0.51838    1.000
    S348     S        0.22210    0.29321    0.68287    1.000
    S349     S        0.43370    0.35011    0.52371    1.000
    S350     S        0.44488    0.19915    0.50982    1.000
    C1565    C        0.31360    0.24840    0.55620    1.000
    C1566    C        0.29510    0.22590    0.52090    1.000
    C1567    C        0.31630    0.24110    0.53160    1.000
    C1568    C        0.29850    0.26670    0.54340    1.000
    C1569    C        0.00510    0.77040    0.54100    1.000
    C1570    C        0.03010    0.76670    0.52670    1.000
    C1571    C        0.05690    0.76130    0.53750    1.000
    C1572    C        0.05850    0.75730    0.56310    1.000
    C1573    C        0.03490    0.75990    0.57800    1.000
    C1574    C        0.00880    0.76770    0.56700    1.000
    C1575    C        0.73160    0.75960    0.68440    1.000
    C1576    C        0.73270    0.74580    0.70680    1.000
    C1577    C        0.73870    0.71790    0.70690    1.000
    C1578    C        0.74250    0.70450    0.68670    1.000
    C1579    C        0.74080    0.71940    0.66520    1.000
    C1580    C        0.73460    0.74580    0.66410    1.000
    C1581    C        0.83830    0.74560    0.70080    1.000
    C1582    C        0.86480    0.73530    0.70330    1.000
    C1583    C        0.87390    0.71040    0.71650    1.000
    C1584    C        0.85190    0.69980    0.72890    1.000
    C1585    C        0.82270    0.70620    0.72540    1.000
    C1586    C        0.81610    0.72720    0.71050    1.000
    C1587    C        0.02110    0.84710    0.55820    1.000
    C1588    C        0.04400    0.82980    0.55250    1.000
    C1589    C        0.06470    0.83870    0.53520    1.000
    C1590    C        0.06360    0.86500    0.52350    1.000
    C1591    C        0.04000    0.88090    0.52900    1.000
    C1592    C        0.01870    0.87170    0.54740    1.000
    C1593    C        0.99330    0.76460    0.63740    1.000
    C1594    C        0.99030    0.74000    0.63150    1.000
    C1595    C        0.01330    0.72200    0.64180    1.000
    C1596    C        0.03520    0.73320    0.65850    1.000
    C1597    C        0.04030    0.76070    0.65890    1.000
    C1598    C        0.01840    0.77640    0.64400    1.000
    C1599    C        0.00970    0.81340    0.69870    1.000
    C1600    C        0.99440    0.79470    0.70840    1.000
    C1601    C        0.00560    0.77590    0.72370    1.000
    C1602    C        0.03500    0.77790    0.73290    1.000
    C1603    C        0.05360    0.79650    0.72230    1.000
    C1604    C        0.03970    0.81550    0.70410    1.000
    C1605    C        0.95540    0.83460    0.75300    1.000
    C1606    C        0.94160    0.81210    0.75840    1.000
    C1607    C        0.95340    0.79360    0.77360    1.000
    C1608    C        0.98040    0.79870    0.78540    1.000
    C1609    C        0.99250    0.82190    0.78070    1.000
    C1610    C        0.98310    0.83600    0.76300    1.000
    C1611    C        0.90590    0.72600    0.65160    1.000
    C1612    C        0.92750    0.73420    0.66700    1.000
    C1613    C        0.94440    0.71640    0.68350    1.000
    C1614    C        0.93630    0.68800    0.68110    1.000
    C1615    C        0.91060    0.68140    0.66420    1.000
    C1616    C        0.89730    0.70060    0.64750    1.000
    C1617    C        0.91530    0.70270    0.58180    1.000
    C1618    C        0.92800    0.67830    0.58830    1.000
    C1619    C        0.90600    0.66090    0.59340    1.000
    C1620    C        0.87810    0.66380    0.58610    1.000
    C1621    C        0.86720    0.68640    0.58200    1.000
    C1622    C        0.88740    0.70910    0.57870    1.000
    C1623    C        0.96336    0.86283    0.50344    1.000
    C1624    C        0.96970    0.88916    0.50350    1.000
    C1625    C        0.99190    0.89867    0.48858    1.000
    C1626    C        0.00770    0.88180    0.47359    1.000
    C1627    C        0.00130    0.85550    0.47353    1.000
    C1628    C        0.97918    0.84600    0.48845    1.000
    C1629    C        0.89150    0.76531    0.49000    1.000
    C1630    C        0.90870    0.78678    0.48510    1.000
    C1631    C        0.91280    0.79509    0.46063    1.000
    C1632    C        0.89970    0.78190    0.44100    1.000
    C1633    C        0.88250    0.76050    0.44580    1.000
    C1634    C        0.87830    0.75220    0.47030    1.000
    C1635    C        0.82500    0.81139    0.50390    1.000
    C1636    C        0.82770    0.80115    0.47990    1.000
    C1637    C        0.80400    0.78968    0.46840    1.000
    C1638    C        0.77770    0.78844    0.48080    1.000
    C1639    C        0.77500    0.79867    0.50470    1.000
    C1640    C        0.79870    0.81015    0.51630    1.000
    C1641    C        0.04390    0.89820    0.62170    1.000
    C1642    C        0.04140    0.87690    0.60590    1.000
    C1643    C        0.06420    0.87020    0.59030    1.000
    C1644    C        0.08930    0.88490    0.59030    1.000
    C1645    C        0.09180    0.90620    0.60610    1.000
    C1646    C        0.06900    0.91290    0.62170    1.000
    C1647    C        0.86630    0.80170    0.76040    1.000
    C1648    C        0.87560    0.77930    0.74830    1.000
    C1649    C        0.88500    0.75720    0.76540    1.000
    C1650    C        0.88290    0.75850    0.79080    1.000
    C1651    C        0.87390    0.78100    0.80050    1.000
    C1652    C        0.86300    0.80260    0.78540    1.000
    C1653    C        0.77650    0.81060    0.77240    1.000
    C1654    C        0.76430    0.79900    0.79280    1.000
    C1655    C        0.76470    0.81230    0.81720    1.000
    C1656    C        0.77570    0.83860    0.81900    1.000
    C1657    C        0.78470    0.85170    0.79520    1.000
    C1658    C        0.78630    0.83650    0.77390    1.000
    C1659    C        0.74980    0.77900    0.60290    1.000
    C1660    C        0.74100    0.75380    0.59770    1.000
    C1661    C        0.71850    0.74940    0.58100    1.000
    C1662    C        0.70480    0.77020    0.56960    1.000
    C1663    C        0.71360    0.79540    0.57480    1.000
    C1664    C        0.73600    0.79980    0.59150    1.000
    C1665    C        0.69670    0.86970    0.71650    1.000
    C1666    C        0.67450    0.87910    0.73300    1.000
    C1667    C        0.64580    0.88550    0.72400    1.000
    C1668    C        0.64110    0.88520    0.69580    1.000
    C1669    C        0.66470    0.87450    0.67810    1.000
    C1670    C        0.69150    0.86750    0.69040    1.000
    C1671    C        0.91120    0.69010    0.49710    1.000
    C1672    C        0.90530    0.69450    0.47040    1.000
    C1673    C        0.87720    0.68710    0.46170    1.000
    C1674    C        0.85680    0.67870    0.47740    1.000
    C1675    C        0.86240    0.67340    0.50370    1.000
    C1676    C        0.89030    0.68040    0.51430    1.000
    Cd225    Cd       0.89359    0.83980    0.60400    1.000
    Cd226    Cd       0.95075    0.81788    0.65800    1.000
    Cd227    Cd       0.83586    0.85793    0.65674    1.000
    Cd228    Cd       0.89755    0.83839    0.71000    1.000
    Cd229    Cd       0.87325    0.78699    0.66043    1.000
    Cd230    Cd       0.97343    0.87468    0.60291    1.000
    Cd231    Cd       0.83212    0.86063    0.54957    1.000
    Cd232    Cd       0.81694    0.80938    0.71597    1.000
    Cd233    Cd       0.77004    0.87762    0.70255    1.000
    Cd234    Cd       0.95681    0.81778    0.55359    1.000
    Cd235    Cd       0.87381    0.79290    0.54471    1.000
    Cd236    Cd       0.81542    0.80729    0.59955    1.000
    Cd237    Cd       0.76034    0.81508    0.65576    1.000
    Cd238    Cd       0.92411    0.76496    0.60397    1.000
    S351     S        0.85401    0.82106    0.63030    1.000
    S352     S        0.91216    0.80345    0.57662    1.000
    S353     S        0.93429    0.85581    0.63070    1.000
    S354     S        0.91453    0.79980    0.68716    1.000
    S355     S        0.79554    0.83943    0.68315    1.000
    S356     S        0.88561    0.74823    0.63251    1.000
    S357     S        0.79239    0.84103    0.57358    1.000
    S358     S        0.94013    0.85914    0.73279    1.000
    S359     S        0.85703    0.82906    0.74166    1.000
    S360     S        0.82843    0.77354    0.68524    1.000
    S361     S        0.99772    0.83533    0.67669    1.000
    S362     S        0.96768    0.78638    0.62386    1.000
    Cd239    Cd       0.73135    0.81045    0.72596    1.000
    Cd240    Cd       0.93875    0.74211    0.53198    1.000
    S363     S        0.77764    0.79237    0.74463    1.000
    S364     S        0.97359    0.77976    0.52631    1.000
    S365     S        0.84002    0.77063    0.57542    1.000
    S366     S        0.99641    0.83595    0.58051    1.000
    S367     S        0.00776    0.89271    0.63632    1.000
    S368     S        0.72958    0.86007    0.72849    1.000
    S369     S        0.88874    0.75479    0.51825    1.000
    S370     S        0.77789    0.78236    0.62500    1.000
    S371     S        0.94273    0.72771    0.57762    1.000
    S372     S        0.85690    0.83050    0.51838    1.000
    S373     S        0.72210    0.79321    0.68287    1.000
    S374     S        0.93370    0.85011    0.52371    1.000
    S375     S        0.94488    0.69915    0.50982    1.000
    C1677    C        0.81360    0.74840    0.55620    1.000
    C1678    C        0.79510    0.72590    0.52090    1.000
    C1679    C        0.81630    0.74110    0.53160    1.000
    C1680    C        0.79850    0.76670    0.54340    1.000
    C1681    C        0.00510    0.27040    0.04100    1.000
    C1682    C        0.03010    0.26670    0.02670    1.000
    C1683    C        0.05690    0.26130    0.03750    1.000
    C1684    C        0.05850    0.25730    0.06310    1.000
    C1685    C        0.03490    0.25990    0.07800    1.000
    C1686    C        0.00880    0.26770    0.06700    1.000
    C1687    C        0.73160    0.25960    0.18440    1.000
    C1688    C        0.73270    0.24580    0.20680    1.000
    C1689    C        0.73870    0.21790    0.20690    1.000
    C1690    C        0.74250    0.20450    0.18670    1.000
    C1691    C        0.74080    0.21940    0.16520    1.000
    C1692    C        0.73460    0.24580    0.16410    1.000
    C1693    C        0.83830    0.24560    0.20080    1.000
    C1694    C        0.86480    0.23530    0.20330    1.000
    C1695    C        0.87390    0.21040    0.21650    1.000
    C1696    C        0.85190    0.19980    0.22890    1.000
    C1697    C        0.82270    0.20620    0.22540    1.000
    C1698    C        0.81610    0.22720    0.21050    1.000
    C1699    C        0.02110    0.34710    0.05820    1.000
    C1700    C        0.04400    0.32980    0.05250    1.000
    C1701    C        0.06470    0.33870    0.03520    1.000
    C1702    C        0.06360    0.36500    0.02350    1.000
    C1703    C        0.04000    0.38090    0.02900    1.000
    C1704    C        0.01870    0.37170    0.04740    1.000
    C1705    C        0.99330    0.26460    0.13740    1.000
    C1706    C        0.99030    0.24000    0.13150    1.000
    C1707    C        0.01330    0.22200    0.14180    1.000
    C1708    C        0.03520    0.23320    0.15850    1.000
    C1709    C        0.04030    0.26070    0.15890    1.000
    C1710    C        0.01840    0.27640    0.14400    1.000
    C1711    C        0.00970    0.31340    0.19870    1.000
    C1712    C        0.99440    0.29470    0.20840    1.000
    C1713    C        0.00560    0.27590    0.22370    1.000
    C1714    C        0.03500    0.27790    0.23290    1.000
    C1715    C        0.05360    0.29650    0.22230    1.000
    C1716    C        0.03970    0.31550    0.20410    1.000
    C1717    C        0.95540    0.33460    0.25300    1.000
    C1718    C        0.94160    0.31210    0.25840    1.000
    C1719    C        0.95340    0.29360    0.27360    1.000
    C1720    C        0.98040    0.29870    0.28540    1.000
    C1721    C        0.99250    0.32190    0.28070    1.000
    C1722    C        0.98310    0.33600    0.26300    1.000
    C1723    C        0.90590    0.22600    0.15160    1.000
    C1724    C        0.92750    0.23420    0.16700    1.000
    C1725    C        0.94440    0.21640    0.18350    1.000
    C1726    C        0.93630    0.18800    0.18110    1.000
    C1727    C        0.91060    0.18140    0.16420    1.000
    C1728    C        0.89730    0.20060    0.14750    1.000
    C1729    C        0.91530    0.20270    0.08180    1.000
    C1730    C        0.92800    0.17830    0.08830    1.000
    C1731    C        0.90600    0.16090    0.09340    1.000
    C1732    C        0.87810    0.16380    0.08610    1.000
    C1733    C        0.86720    0.18640    0.08200    1.000
    C1734    C        0.88740    0.20910    0.07870    1.000
    C1735    C        0.96336    0.36283    0.00344    1.000
    C1736    C        0.96970    0.38916    0.00350    1.000
    C1737    C        0.99190    0.39867    0.98858    1.000
    C1738    C        0.00770    0.38180    0.97359    1.000
    C1739    C        0.00130    0.35550    0.97353    1.000
    C1740    C        0.97918    0.34600    0.98845    1.000
    C1741    C        0.89150    0.26531    0.99000    1.000
    C1742    C        0.90870    0.28678    0.98510    1.000
    C1743    C        0.91280    0.29509    0.96063    1.000
    C1744    C        0.89970    0.28190    0.94100    1.000
    C1745    C        0.88250    0.26050    0.94580    1.000
    C1746    C        0.87830    0.25220    0.97030    1.000
    C1747    C        0.82500    0.31139    0.00390    1.000
    C1748    C        0.82770    0.30115    0.97990    1.000
    C1749    C        0.80400    0.28968    0.96840    1.000
    C1750    C        0.77770    0.28844    0.98080    1.000
    C1751    C        0.77500    0.29867    0.00470    1.000
    C1752    C        0.79870    0.31015    0.01630    1.000
    C1753    C        0.04390    0.39820    0.12170    1.000
    C1754    C        0.04140    0.37690    0.10590    1.000
    C1755    C        0.06420    0.37020    0.09030    1.000
    C1756    C        0.08930    0.38490    0.09030    1.000
    C1757    C        0.09180    0.40620    0.10610    1.000
    C1758    C        0.06900    0.41290    0.12170    1.000
    C1759    C        0.86630    0.30170    0.26040    1.000
    C1760    C        0.87560    0.27930    0.24830    1.000
    C1761    C        0.88500    0.25720    0.26540    1.000
    C1762    C        0.88290    0.25850    0.29080    1.000
    C1763    C        0.87390    0.28100    0.30050    1.000
    C1764    C        0.86300    0.30260    0.28540    1.000
    C1765    C        0.77650    0.31060    0.27240    1.000
    C1766    C        0.76430    0.29900    0.29280    1.000
    C1767    C        0.76470    0.31230    0.31720    1.000
    C1768    C        0.77570    0.33860    0.31900    1.000
    C1769    C        0.78470    0.35170    0.29520    1.000
    C1770    C        0.78630    0.33650    0.27390    1.000
    C1771    C        0.74980    0.27900    0.10290    1.000
    C1772    C        0.74100    0.25380    0.09770    1.000
    C1773    C        0.71850    0.24940    0.08100    1.000
    C1774    C        0.70480    0.27020    0.06960    1.000
    C1775    C        0.71360    0.29540    0.07480    1.000
    C1776    C        0.73600    0.29980    0.09150    1.000
    C1777    C        0.69670    0.36970    0.21650    1.000
    C1778    C        0.67450    0.37910    0.23300    1.000
    C1779    C        0.64580    0.38550    0.22400    1.000
    C1780    C        0.64110    0.38520    0.19580    1.000
    C1781    C        0.66470    0.37450    0.17810    1.000
    C1782    C        0.69150    0.36750    0.19040    1.000
    C1783    C        0.91120    0.19010    0.99710    1.000
    C1784    C        0.90530    0.19450    0.97040    1.000
    C1785    C        0.87720    0.18710    0.96170    1.000
    C1786    C        0.85680    0.17870    0.97740    1.000
    C1787    C        0.86240    0.17340    0.00370    1.000
    C1788    C        0.89030    0.18040    0.01430    1.000
    Cd241    Cd       0.89359    0.33980    0.10400    1.000
    Cd242    Cd       0.95075    0.31788    0.15800    1.000
    Cd243    Cd       0.83586    0.35793    0.15674    1.000
    Cd244    Cd       0.89755    0.33839    0.21000    1.000
    Cd245    Cd       0.87325    0.28699    0.16043    1.000
    Cd246    Cd       0.97343    0.37468    0.10291    1.000
    Cd247    Cd       0.83212    0.36063    0.04957    1.000
    Cd248    Cd       0.81694    0.30938    0.21597    1.000
    Cd249    Cd       0.77004    0.37762    0.20255    1.000
    Cd250    Cd       0.95681    0.31778    0.05359    1.000
    Cd251    Cd       0.87381    0.29290    0.04471    1.000
    Cd252    Cd       0.81542    0.30729    0.09955    1.000
    Cd253    Cd       0.76034    0.31508    0.15576    1.000
    Cd254    Cd       0.92411    0.26496    0.10397    1.000
    S376     S        0.85401    0.32106    0.13030    1.000
    S377     S        0.91216    0.30345    0.07662    1.000
    S378     S        0.93429    0.35581    0.13070    1.000
    S379     S        0.91453    0.29980    0.18716    1.000
    S380     S        0.79554    0.33943    0.18315    1.000
    S381     S        0.88561    0.24823    0.13251    1.000
    S382     S        0.79239    0.34103    0.07358    1.000
    S383     S        0.94013    0.35914    0.23279    1.000
    S384     S        0.85703    0.32906    0.24166    1.000
    S385     S        0.82843    0.27354    0.18524    1.000
    S386     S        0.99772    0.33533    0.17669    1.000
    S387     S        0.96768    0.28638    0.12386    1.000
    Cd255    Cd       0.73135    0.31045    0.22596    1.000
    Cd256    Cd       0.93875    0.24211    0.03198    1.000
    S388     S        0.77764    0.29237    0.24463    1.000
    S389     S        0.97359    0.27976    0.02631    1.000
    S390     S        0.84002    0.27063    0.07542    1.000
    S391     S        0.99641    0.33595    0.08051    1.000
    S392     S        0.00776    0.39271    0.13632    1.000
    S393     S        0.72958    0.36007    0.22849    1.000
    S394     S        0.88874    0.25479    0.01825    1.000
    S395     S        0.77789    0.28236    0.12500    1.000
    S396     S        0.94273    0.22771    0.07762    1.000
    S397     S        0.85690    0.33050    0.01838    1.000
    S398     S        0.72210    0.29321    0.18287    1.000
    S399     S        0.93370    0.35011    0.02371    1.000
    S400     S        0.94488    0.19915    0.00982    1.000
    C1789    C        0.81360    0.24840    0.05620    1.000
    C1790    C        0.79510    0.22590    0.02090    1.000
    C1791    C        0.81630    0.24110    0.03160    1.000
    C1792    C        0.79850    0.26670    0.04340    1.000
    S401     S        0.62500    0.62500    0.93506    1.000
    S402     S        0.62500    0.62500    0.82562    1.000
    S403     S        0.62500    0.12500    0.43506    1.000
    S404     S        0.62500    0.12500    0.32562    1.000
    S405     S        0.12500    0.12500    0.93506    1.000
    S406     S        0.12500    0.12500    0.82562    1.000
    S407     S        0.12500    0.62500    0.43506    1.000
    S408     S        0.12500    0.62500    0.32562    1.000
    S409     S        0.87500    0.37500    0.18506    1.000
    S410     S        0.87500    0.37500    0.07562    1.000
    S411     S        0.87500    0.87500    0.68506    1.000
    S412     S        0.87500    0.87500    0.57562    1.000
    S413     S        0.37500    0.87500    0.18506    1.000
    S414     S        0.37500    0.87500    0.07562    1.000
    S415     S        0.37500    0.37500    0.68506    1.000
    S416     S        0.37500    0.37500    0.57562    1.000
    C1793    C        0.25510    0.52040    0.95900    1.000
    C1794    C        0.28010    0.51670    0.97330    1.000
    C1795    C        0.30690    0.51130    0.96250    1.000
    C1796    C        0.30850    0.50730    0.93690    1.000
    C1797    C        0.28490    0.50990    0.92200    1.000
    C1798    C        0.25880    0.51770    0.93300    1.000
    C1799    C        0.98160    0.50960    0.81560    1.000
    C1800    C        0.98270    0.49580    0.79320    1.000
    C1801    C        0.98870    0.46790    0.79310    1.000
    C1802    C        0.99250    0.45450    0.81330    1.000
    C1803    C        0.99080    0.46940    0.83480    1.000
    C1804    C        0.98460    0.49580    0.83590    1.000
    C1805    C        0.08830    0.49560    0.79920    1.000
    C1806    C        0.11480    0.48530    0.79670    1.000
    C1807    C        0.12390    0.46040    0.78350    1.000
    C1808    C        0.10190    0.44980    0.77110    1.000
    C1809    C        0.07270    0.45620    0.77460    1.000
    C1810    C        0.06610    0.47720    0.78950    1.000
    C1811    C        0.27110    0.59710    0.94180    1.000
    C1812    C        0.29400    0.57980    0.94750    1.000
    C1813    C        0.31470    0.58870    0.96480    1.000
    C1814    C        0.31360    0.61500    0.97650    1.000
    C1815    C        0.29000    0.63090    0.97100    1.000
    C1816    C        0.26870    0.62170    0.95260    1.000
    C1817    C        0.24330    0.51460    0.86260    1.000
    C1818    C        0.24030    0.49000    0.86850    1.000
    C1819    C        0.26330    0.47200    0.85820    1.000
    C1820    C        0.28520    0.48320    0.84150    1.000
    C1821    C        0.29030    0.51070    0.84110    1.000
    C1822    C        0.26840    0.52640    0.85600    1.000
    C1823    C        0.25970    0.56340    0.80130    1.000
    C1824    C        0.24440    0.54470    0.79160    1.000
    C1825    C        0.25560    0.52590    0.77630    1.000
    C1826    C        0.28500    0.52790    0.76710    1.000
    C1827    C        0.30360    0.54650    0.77770    1.000
    C1828    C        0.28970    0.56550    0.79590    1.000
    C1829    C        0.20540    0.58460    0.74700    1.000
    C1830    C        0.19160    0.56210    0.74160    1.000
    C1831    C        0.20340    0.54360    0.72640    1.000
    C1832    C        0.23040    0.54870    0.71460    1.000
    C1833    C        0.24250    0.57190    0.71930    1.000
    C1834    C        0.23310    0.58600    0.73700    1.000
    C1835    C        0.15590    0.47600    0.84840    1.000
    C1836    C        0.17750    0.48420    0.83300    1.000
    C1837    C        0.19440    0.46640    0.81650    1.000
    C1838    C        0.18630    0.43800    0.81890    1.000
    C1839    C        0.16060    0.43140    0.83580    1.000
    C1840    C        0.14730    0.45060    0.85250    1.000
    C1841    C        0.16530    0.45270    0.91820    1.000
    C1842    C        0.17800    0.42830    0.91170    1.000
    C1843    C        0.15600    0.41090    0.90660    1.000
    C1844    C        0.12810    0.41380    0.91390    1.000
    C1845    C        0.11720    0.43640    0.91800    1.000
    C1846    C        0.13740    0.45910    0.92130    1.000
    C1847    C        0.21336    0.61283    0.99656    1.000
    C1848    C        0.21970    0.63916    0.99650    1.000
    C1849    C        0.24190    0.64867    0.01142    1.000
    C1850    C        0.25770    0.63180    0.02641    1.000
    C1851    C        0.25130    0.60550    0.02647    1.000
    C1852    C        0.22918    0.59600    0.01155    1.000
    C1853    C        0.14150    0.51531    0.01000    1.000
    C1854    C        0.15870    0.53678    0.01490    1.000
    C1855    C        0.16280    0.54509    0.03937    1.000
    C1856    C        0.14970    0.53190    0.05900    1.000
    C1857    C        0.13250    0.51050    0.05420    1.000
    C1858    C        0.12830    0.50220    0.02970    1.000
    C1859    C        0.07500    0.56139    0.99610    1.000
    C1860    C        0.07770    0.55115    0.02010    1.000
    C1861    C        0.05400    0.53968    0.03160    1.000
    C1862    C        0.02770    0.53844    0.01920    1.000
    C1863    C        0.02500    0.54867    0.99530    1.000
    C1864    C        0.04870    0.56015    0.98370    1.000
    C1865    C        0.29390    0.64820    0.87830    1.000
    C1866    C        0.29140    0.62690    0.89410    1.000
    C1867    C        0.31420    0.62020    0.90970    1.000
    C1868    C        0.33930    0.63490    0.90970    1.000
    C1869    C        0.34180    0.65620    0.89390    1.000
    C1870    C        0.31900    0.66290    0.87830    1.000
    C1871    C        0.11630    0.55170    0.73960    1.000
    C1872    C        0.12560    0.52930    0.75170    1.000
    C1873    C        0.13500    0.50720    0.73460    1.000
    C1874    C        0.13290    0.50850    0.70920    1.000
    C1875    C        0.12390    0.53100    0.69950    1.000
    C1876    C        0.11300    0.55260    0.71460    1.000
    C1877    C        0.02650    0.56060    0.72760    1.000
    C1878    C        0.01430    0.54900    0.70720    1.000
    C1879    C        0.01470    0.56230    0.68280    1.000
    C1880    C        0.02570    0.58860    0.68100    1.000
    C1881    C        0.03470    0.60170    0.70480    1.000
    C1882    C        0.03630    0.58650    0.72610    1.000
    C1883    C        0.99980    0.52900    0.89710    1.000
    C1884    C        0.99100    0.50380    0.90230    1.000
    C1885    C        0.96850    0.49940    0.91900    1.000
    C1886    C        0.95480    0.52020    0.93040    1.000
    C1887    C        0.96360    0.54540    0.92520    1.000
    C1888    C        0.98600    0.54980    0.90850    1.000
    C1889    C        0.94670    0.61970    0.78350    1.000
    C1890    C        0.92450    0.62910    0.76700    1.000
    C1891    C        0.89580    0.63550    0.77600    1.000
    C1892    C        0.89110    0.63520    0.80420    1.000
    C1893    C        0.91470    0.62450    0.82190    1.000
    C1894    C        0.94150    0.61750    0.80960    1.000
    C1895    C        0.16120    0.44010    0.00290    1.000
    C1896    C        0.15530    0.44450    0.02960    1.000
    C1897    C        0.12720    0.43710    0.03830    1.000
    C1898    C        0.10680    0.42870    0.02260    1.000
    C1899    C        0.11240    0.42340    0.99630    1.000
    C1900    C        0.14030    0.43040    0.98570    1.000
    Cd257    Cd       0.14359    0.58980    0.89600    1.000
    Cd258    Cd       0.20075    0.56788    0.84200    1.000
    Cd259    Cd       0.08586    0.60793    0.84326    1.000
    Cd260    Cd       0.14755    0.58839    0.79000    1.000
    Cd261    Cd       0.12325    0.53699    0.83957    1.000
    Cd262    Cd       0.22343    0.62468    0.89709    1.000
    Cd263    Cd       0.08212    0.61063    0.95043    1.000
    Cd264    Cd       0.06694    0.55938    0.78403    1.000
    Cd265    Cd       0.02004    0.62762    0.79745    1.000
    Cd266    Cd       0.20681    0.56778    0.94641    1.000
    Cd267    Cd       0.12381    0.54290    0.95529    1.000
    Cd268    Cd       0.06542    0.55729    0.90045    1.000
    Cd269    Cd       0.01034    0.56508    0.84424    1.000
    Cd270    Cd       0.17411    0.51496    0.89603    1.000
    S417     S        0.10401    0.57106    0.86970    1.000
    S418     S        0.16216    0.55345    0.92338    1.000
    S419     S        0.18429    0.60581    0.86930    1.000
    S420     S        0.16453    0.54980    0.81284    1.000
    S421     S        0.04554    0.58943    0.81685    1.000
    S422     S        0.13561    0.49823    0.86749    1.000
    S423     S        0.04239    0.59103    0.92642    1.000
    S424     S        0.19013    0.60914    0.76721    1.000
    S425     S        0.10703    0.57906    0.75834    1.000
    S426     S        0.07843    0.52354    0.81476    1.000
    S427     S        0.24772    0.58533    0.82331    1.000
    S428     S        0.21768    0.53638    0.87614    1.000
    Cd271    Cd       0.98135    0.56045    0.77404    1.000
    Cd272    Cd       0.18875    0.49211    0.96802    1.000
    S429     S        0.02764    0.54237    0.75537    1.000
    S430     S        0.22359    0.52976    0.97369    1.000
    S431     S        0.09002    0.52063    0.92458    1.000
    S432     S        0.24641    0.58595    0.91949    1.000
    S433     S        0.25776    0.64271    0.86368    1.000
    S434     S        0.97958    0.61007    0.77151    1.000
    S435     S        0.13874    0.50479    0.98175    1.000
    S436     S        0.02789    0.53236    0.87500    1.000
    S437     S        0.19273    0.47771    0.92238    1.000
    S438     S        0.10690    0.58050    0.98162    1.000
    S439     S        0.97210    0.54321    0.81713    1.000
    S440     S        0.18370    0.60011    0.97629    1.000
    S441     S        0.19488    0.44915    0.99018    1.000
    C1901    C        0.06360    0.49840    0.94380    1.000
    C1902    C        0.04510    0.47590    0.97910    1.000
    C1903    C        0.06630    0.49110    0.96840    1.000
    C1904    C        0.04850    0.51670    0.95660    1.000
    C1905    C        0.25510    0.02040    0.45900    1.000
    C1906    C        0.28010    0.01670    0.47330    1.000
    C1907    C        0.30690    0.01130    0.46250    1.000
    C1908    C        0.30850    0.00730    0.43690    1.000
    C1909    C        0.28490    0.00990    0.42200    1.000
    C1910    C        0.25880    0.01770    0.43300    1.000
    C1911    C        0.98160    0.00960    0.31560    1.000
    C1912    C        0.98270    0.99580    0.29320    1.000
    C1913    C        0.98870    0.96790    0.29310    1.000
    C1914    C        0.99250    0.95450    0.31330    1.000
    C1915    C        0.99080    0.96940    0.33480    1.000
    C1916    C        0.98460    0.99580    0.33590    1.000
    C1917    C        0.08830    0.99560    0.29920    1.000
    C1918    C        0.11480    0.98530    0.29670    1.000
    C1919    C        0.12390    0.96040    0.28350    1.000
    C1920    C        0.10190    0.94980    0.27110    1.000
    C1921    C        0.07270    0.95620    0.27460    1.000
    C1922    C        0.06610    0.97720    0.28950    1.000
    C1923    C        0.27110    0.09710    0.44180    1.000
    C1924    C        0.29400    0.07980    0.44750    1.000
    C1925    C        0.31470    0.08870    0.46480    1.000
    C1926    C        0.31360    0.11500    0.47650    1.000
    C1927    C        0.29000    0.13090    0.47100    1.000
    C1928    C        0.26870    0.12170    0.45260    1.000
    C1929    C        0.24330    0.01460    0.36260    1.000
    C1930    C        0.24030    0.99000    0.36850    1.000
    C1931    C        0.26330    0.97200    0.35820    1.000
    C1932    C        0.28520    0.98320    0.34150    1.000
    C1933    C        0.29030    0.01070    0.34110    1.000
    C1934    C        0.26840    0.02640    0.35600    1.000
    C1935    C        0.25970    0.06340    0.30130    1.000
    C1936    C        0.24440    0.04470    0.29160    1.000
    C1937    C        0.25560    0.02590    0.27630    1.000
    C1938    C        0.28500    0.02790    0.26710    1.000
    C1939    C        0.30360    0.04650    0.27770    1.000
    C1940    C        0.28970    0.06550    0.29590    1.000
    C1941    C        0.20540    0.08460    0.24700    1.000
    C1942    C        0.19160    0.06210    0.24160    1.000
    C1943    C        0.20340    0.04360    0.22640    1.000
    C1944    C        0.23040    0.04870    0.21460    1.000
    C1945    C        0.24250    0.07190    0.21930    1.000
    C1946    C        0.23310    0.08600    0.23700    1.000
    C1947    C        0.15590    0.97600    0.34840    1.000
    C1948    C        0.17750    0.98420    0.33300    1.000
    C1949    C        0.19440    0.96640    0.31650    1.000
    C1950    C        0.18630    0.93800    0.31890    1.000
    C1951    C        0.16060    0.93140    0.33580    1.000
    C1952    C        0.14730    0.95060    0.35250    1.000
    C1953    C        0.16530    0.95270    0.41820    1.000
    C1954    C        0.17800    0.92830    0.41170    1.000
    C1955    C        0.15600    0.91090    0.40660    1.000
    C1956    C        0.12810    0.91380    0.41390    1.000
    C1957    C        0.11720    0.93640    0.41800    1.000
    C1958    C        0.13740    0.95910    0.42130    1.000
    C1959    C        0.21336    0.11283    0.49656    1.000
    C1960    C        0.21970    0.13916    0.49650    1.000
    C1961    C        0.24190    0.14867    0.51142    1.000
    C1962    C        0.25770    0.13180    0.52641    1.000
    C1963    C        0.25130    0.10550    0.52647    1.000
    C1964    C        0.22918    0.09600    0.51155    1.000
    C1965    C        0.14150    0.01531    0.51000    1.000
    C1966    C        0.15870    0.03678    0.51490    1.000
    C1967    C        0.16280    0.04509    0.53937    1.000
    C1968    C        0.14970    0.03190    0.55900    1.000
    C1969    C        0.13250    0.01050    0.55420    1.000
    C1970    C        0.12830    0.00220    0.52970    1.000
    C1971    C        0.07500    0.06139    0.49610    1.000
    C1972    C        0.07770    0.05115    0.52010    1.000
    C1973    C        0.05400    0.03968    0.53160    1.000
    C1974    C        0.02770    0.03844    0.51920    1.000
    C1975    C        0.02500    0.04867    0.49530    1.000
    C1976    C        0.04870    0.06015    0.48370    1.000
    C1977    C        0.29390    0.14820    0.37830    1.000
    C1978    C        0.29140    0.12690    0.39410    1.000
    C1979    C        0.31420    0.12020    0.40970    1.000
    C1980    C        0.33930    0.13490    0.40970    1.000
    C1981    C        0.34180    0.15620    0.39390    1.000
    C1982    C        0.31900    0.16290    0.37830    1.000
    C1983    C        0.11630    0.05170    0.23960    1.000
    C1984    C        0.12560    0.02930    0.25170    1.000
    C1985    C        0.13500    0.00720    0.23460    1.000
    C1986    C        0.13290    0.00850    0.20920    1.000
    C1987    C        0.12390    0.03100    0.19950    1.000
    C1988    C        0.11300    0.05260    0.21460    1.000
    C1989    C        0.02650    0.06060    0.22760    1.000
    C1990    C        0.01430    0.04900    0.20720    1.000
    C1991    C        0.01470    0.06230    0.18280    1.000
    C1992    C        0.02570    0.08860    0.18100    1.000
    C1993    C        0.03470    0.10170    0.20480    1.000
    C1994    C        0.03630    0.08650    0.22610    1.000
    C1995    C        0.99980    0.02900    0.39710    1.000
    C1996    C        0.99100    0.00380    0.40230    1.000
    C1997    C        0.96850    0.99940    0.41900    1.000
    C1998    C        0.95480    0.02020    0.43040    1.000
    C1999    C        0.96360    0.04540    0.42520    1.000
    C2000    C        0.98600    0.04980    0.40850    1.000
    C2001    C        0.94670    0.11970    0.28350    1.000
    C2002    C        0.92450    0.12910    0.26700    1.000
    C2003    C        0.89580    0.13550    0.27600    1.000
    C2004    C        0.89110    0.13520    0.30420    1.000
    C2005    C        0.91470    0.12450    0.32190    1.000
    C2006    C        0.94150    0.11750    0.30960    1.000
    C2007    C        0.16120    0.94010    0.50290    1.000
    C2008    C        0.15530    0.94450    0.52960    1.000
    C2009    C        0.12720    0.93710    0.53830    1.000
    C2010    C        0.10680    0.92870    0.52260    1.000
    C2011    C        0.11240    0.92340    0.49630    1.000
    C2012    C        0.14030    0.93040    0.48570    1.000
    Cd273    Cd       0.14359    0.08980    0.39600    1.000
    Cd274    Cd       0.20075    0.06788    0.34200    1.000
    Cd275    Cd       0.08586    0.10793    0.34326    1.000
    Cd276    Cd       0.14755    0.08839    0.29000    1.000
    Cd277    Cd       0.12325    0.03699    0.33957    1.000
    Cd278    Cd       0.22343    0.12468    0.39709    1.000
    Cd279    Cd       0.08212    0.11063    0.45043    1.000
    Cd280    Cd       0.06694    0.05938    0.28403    1.000
    Cd281    Cd       0.02004    0.12762    0.29745    1.000
    Cd282    Cd       0.20681    0.06778    0.44641    1.000
    Cd283    Cd       0.12381    0.04290    0.45529    1.000
    Cd284    Cd       0.06542    0.05729    0.40045    1.000
    Cd285    Cd       0.01034    0.06508    0.34424    1.000
    Cd286    Cd       0.17411    0.01496    0.39603    1.000
    S442     S        0.10401    0.07106    0.36970    1.000
    S443     S        0.16216    0.05345    0.42338    1.000
    S444     S        0.18429    0.10581    0.36930    1.000
    S445     S        0.16453    0.04980    0.31284    1.000
    S446     S        0.04554    0.08943    0.31685    1.000
    S447     S        0.13561    0.99823    0.36749    1.000
    S448     S        0.04239    0.09103    0.42642    1.000
    S449     S        0.19013    0.10914    0.26721    1.000
    S450     S        0.10703    0.07906    0.25834    1.000
    S451     S        0.07843    0.02354    0.31476    1.000
    S452     S        0.24772    0.08533    0.32331    1.000
    S453     S        0.21768    0.03638    0.37614    1.000
    Cd287    Cd       0.98135    0.06045    0.27404    1.000
    Cd288    Cd       0.18875    0.99211    0.46802    1.000
    S454     S        0.02764    0.04237    0.25537    1.000
    S455     S        0.22359    0.02976    0.47369    1.000
    S456     S        0.09002    0.02063    0.42458    1.000
    S457     S        0.24641    0.08595    0.41949    1.000
    S458     S        0.25776    0.14271    0.36368    1.000
    S459     S        0.97958    0.11007    0.27151    1.000
    S460     S        0.13874    0.00479    0.48175    1.000
    S461     S        0.02789    0.03236    0.37500    1.000
    S462     S        0.19273    0.97771    0.42238    1.000
    S463     S        0.10690    0.08050    0.48162    1.000
    S464     S        0.97210    0.04321    0.31713    1.000
    S465     S        0.18370    0.10011    0.47629    1.000
    S466     S        0.19488    0.94915    0.49018    1.000
    C2013    C        0.06360    0.99840    0.44380    1.000
    C2014    C        0.04510    0.97590    0.47910    1.000
    C2015    C        0.06630    0.99110    0.46840    1.000
    C2016    C        0.04850    0.01670    0.45660    1.000
    C2017    C        0.75510    0.52040    0.45900    1.000
    C2018    C        0.78010    0.51670    0.47330    1.000
    C2019    C        0.80690    0.51130    0.46250    1.000
    C2020    C        0.80850    0.50730    0.43690    1.000
    C2021    C        0.78490    0.50990    0.42200    1.000
    C2022    C        0.75880    0.51770    0.43300    1.000
    C2023    C        0.48160    0.50960    0.31560    1.000
    C2024    C        0.48270    0.49580    0.29320    1.000
    C2025    C        0.48870    0.46790    0.29310    1.000
    C2026    C        0.49250    0.45450    0.31330    1.000
    C2027    C        0.49080    0.46940    0.33480    1.000
    C2028    C        0.48460    0.49580    0.33590    1.000
    C2029    C        0.58830    0.49560    0.29920    1.000
    C2030    C        0.61480    0.48530    0.29670    1.000
    C2031    C        0.62390    0.46040    0.28350    1.000
    C2032    C        0.60190    0.44980    0.27110    1.000
    C2033    C        0.57270    0.45620    0.27460    1.000
    C2034    C        0.56610    0.47720    0.28950    1.000
    C2035    C        0.77110    0.59710    0.44180    1.000
    C2036    C        0.79400    0.57980    0.44750    1.000
    C2037    C        0.81470    0.58870    0.46480    1.000
    C2038    C        0.81360    0.61500    0.47650    1.000
    C2039    C        0.79000    0.63090    0.47100    1.000
    C2040    C        0.76870    0.62170    0.45260    1.000
    C2041    C        0.74330    0.51460    0.36260    1.000
    C2042    C        0.74030    0.49000    0.36850    1.000
    C2043    C        0.76330    0.47200    0.35820    1.000
    C2044    C        0.78520    0.48320    0.34150    1.000
    C2045    C        0.79030    0.51070    0.34110    1.000
    C2046    C        0.76840    0.52640    0.35600    1.000
    C2047    C        0.75970    0.56340    0.30130    1.000
    C2048    C        0.74440    0.54470    0.29160    1.000
    C2049    C        0.75560    0.52590    0.27630    1.000
    C2050    C        0.78500    0.52790    0.26710    1.000
    C2051    C        0.80360    0.54650    0.27770    1.000
    C2052    C        0.78970    0.56550    0.29590    1.000
    C2053    C        0.70540    0.58460    0.24700    1.000
    C2054    C        0.69160    0.56210    0.24160    1.000
    C2055    C        0.70340    0.54360    0.22640    1.000
    C2056    C        0.73040    0.54870    0.21460    1.000
    C2057    C        0.74250    0.57190    0.21930    1.000
    C2058    C        0.73310    0.58600    0.23700    1.000
    C2059    C        0.65590    0.47600    0.34840    1.000
    C2060    C        0.67750    0.48420    0.33300    1.000
    C2061    C        0.69440    0.46640    0.31650    1.000
    C2062    C        0.68630    0.43800    0.31890    1.000
    C2063    C        0.66060    0.43140    0.33580    1.000
    C2064    C        0.64730    0.45060    0.35250    1.000
    C2065    C        0.66530    0.45270    0.41820    1.000
    C2066    C        0.67800    0.42830    0.41170    1.000
    C2067    C        0.65600    0.41090    0.40660    1.000
    C2068    C        0.62810    0.41380    0.41390    1.000
    C2069    C        0.61720    0.43640    0.41800    1.000
    C2070    C        0.63740    0.45910    0.42130    1.000
    C2071    C        0.71336    0.61283    0.49656    1.000
    C2072    C        0.71970    0.63916    0.49650    1.000
    C2073    C        0.74190    0.64867    0.51142    1.000
    C2074    C        0.75770    0.63180    0.52641    1.000
    C2075    C        0.75130    0.60550    0.52647    1.000
    C2076    C        0.72918    0.59600    0.51155    1.000
    C2077    C        0.64150    0.51531    0.51000    1.000
    C2078    C        0.65870    0.53678    0.51490    1.000
    C2079    C        0.66280    0.54509    0.53937    1.000
    C2080    C        0.64970    0.53190    0.55900    1.000
    C2081    C        0.63250    0.51050    0.55420    1.000
    C2082    C        0.62830    0.50220    0.52970    1.000
    C2083    C        0.57500    0.56139    0.49610    1.000
    C2084    C        0.57770    0.55115    0.52010    1.000
    C2085    C        0.55400    0.53968    0.53160    1.000
    C2086    C        0.52770    0.53844    0.51920    1.000
    C2087    C        0.52500    0.54867    0.49530    1.000
    C2088    C        0.54870    0.56015    0.48370    1.000
    C2089    C        0.79390    0.64820    0.37830    1.000
    C2090    C        0.79140    0.62690    0.39410    1.000
    C2091    C        0.81420    0.62020    0.40970    1.000
    C2092    C        0.83930    0.63490    0.40970    1.000
    C2093    C        0.84180    0.65620    0.39390    1.000
    C2094    C        0.81900    0.66290    0.37830    1.000
    C2095    C        0.61630    0.55170    0.23960    1.000
    C2096    C        0.62560    0.52930    0.25170    1.000
    C2097    C        0.63500    0.50720    0.23460    1.000
    C2098    C        0.63290    0.50850    0.20920    1.000
    C2099    C        0.62390    0.53100    0.19950    1.000
    C2100    C        0.61300    0.55260    0.21460    1.000
    C2101    C        0.52650    0.56060    0.22760    1.000
    C2102    C        0.51430    0.54900    0.20720    1.000
    C2103    C        0.51470    0.56230    0.18280    1.000
    C2104    C        0.52570    0.58860    0.18100    1.000
    C2105    C        0.53470    0.60170    0.20480    1.000
    C2106    C        0.53630    0.58650    0.22610    1.000
    C2107    C        0.49980    0.52900    0.39710    1.000
    C2108    C        0.49100    0.50380    0.40230    1.000
    C2109    C        0.46850    0.49940    0.41900    1.000
    C2110    C        0.45480    0.52020    0.43040    1.000
    C2111    C        0.46360    0.54540    0.42520    1.000
    C2112    C        0.48600    0.54980    0.40850    1.000
    C2113    C        0.44670    0.61970    0.28350    1.000
    C2114    C        0.42450    0.62910    0.26700    1.000
    C2115    C        0.39580    0.63550    0.27600    1.000
    C2116    C        0.39110    0.63520    0.30420    1.000
    C2117    C        0.41470    0.62450    0.32190    1.000
    C2118    C        0.44150    0.61750    0.30960    1.000
    C2119    C        0.66120    0.44010    0.50290    1.000
    C2120    C        0.65530    0.44450    0.52960    1.000
    C2121    C        0.62720    0.43710    0.53830    1.000
    C2122    C        0.60680    0.42870    0.52260    1.000
    C2123    C        0.61240    0.42340    0.49630    1.000
    C2124    C        0.64030    0.43040    0.48570    1.000
    Cd289    Cd       0.64359    0.58980    0.39600    1.000
    Cd290    Cd       0.70075    0.56788    0.34200    1.000
    Cd291    Cd       0.58586    0.60793    0.34326    1.000
    Cd292    Cd       0.64755    0.58839    0.29000    1.000
    Cd293    Cd       0.62325    0.53699    0.33957    1.000
    Cd294    Cd       0.72343    0.62468    0.39709    1.000
    Cd295    Cd       0.58212    0.61063    0.45043    1.000
    Cd296    Cd       0.56694    0.55938    0.28403    1.000
    Cd297    Cd       0.52004    0.62762    0.29745    1.000
    Cd298    Cd       0.70681    0.56778    0.44641    1.000
    Cd299    Cd       0.62381    0.54290    0.45529    1.000
    Cd300    Cd       0.56542    0.55729    0.40045    1.000
    Cd301    Cd       0.51034    0.56508    0.34424    1.000
    Cd302    Cd       0.67411    0.51496    0.39603    1.000
    S467     S        0.60401    0.57106    0.36970    1.000
    S468     S        0.66216    0.55345    0.42338    1.000
    S469     S        0.68429    0.60581    0.36930    1.000
    S470     S        0.66453    0.54980    0.31284    1.000
    S471     S        0.54554    0.58943    0.31685    1.000
    S472     S        0.63561    0.49823    0.36749    1.000
    S473     S        0.54239    0.59103    0.42642    1.000
    S474     S        0.69013    0.60914    0.26721    1.000
    S475     S        0.60703    0.57906    0.25834    1.000
    S476     S        0.57843    0.52354    0.31476    1.000
    S477     S        0.74772    0.58533    0.32331    1.000
    S478     S        0.71768    0.53638    0.37614    1.000
    Cd303    Cd       0.48135    0.56045    0.27404    1.000
    Cd304    Cd       0.68875    0.49211    0.46802    1.000
    S479     S        0.52764    0.54237    0.25537    1.000
    S480     S        0.72359    0.52976    0.47369    1.000
    S481     S        0.59002    0.52063    0.42458    1.000
    S482     S        0.74641    0.58595    0.41949    1.000
    S483     S        0.75776    0.64271    0.36368    1.000
    S484     S        0.47958    0.61007    0.27151    1.000
    S485     S        0.63874    0.50479    0.48175    1.000
    S486     S        0.52789    0.53236    0.37500    1.000
    S487     S        0.69273    0.47771    0.42238    1.000
    S488     S        0.60690    0.58050    0.48162    1.000
    S489     S        0.47210    0.54321    0.31713    1.000
    S490     S        0.68370    0.60011    0.47629    1.000
    S491     S        0.69488    0.44915    0.49018    1.000
    C2125    C        0.56360    0.49840    0.44380    1.000
    C2126    C        0.54510    0.47590    0.47910    1.000
    C2127    C        0.56630    0.49110    0.46840    1.000
    C2128    C        0.54850    0.51670    0.45660    1.000
    C2129    C        0.75510    0.02040    0.95900    1.000
    C2130    C        0.78010    0.01670    0.97330    1.000
    C2131    C        0.80690    0.01130    0.96250    1.000
    C2132    C        0.80850    0.00730    0.93690    1.000
    C2133    C        0.78490    0.00990    0.92200    1.000
    C2134    C        0.75880    0.01770    0.93300    1.000
    C2135    C        0.48160    0.00960    0.81560    1.000
    C2136    C        0.48270    0.99580    0.79320    1.000
    C2137    C        0.48870    0.96790    0.79310    1.000
    C2138    C        0.49250    0.95450    0.81330    1.000
    C2139    C        0.49080    0.96940    0.83480    1.000
    C2140    C        0.48460    0.99580    0.83590    1.000
    C2141    C        0.58830    0.99560    0.79920    1.000
    C2142    C        0.61480    0.98530    0.79670    1.000
    C2143    C        0.62390    0.96040    0.78350    1.000
    C2144    C        0.60190    0.94980    0.77110    1.000
    C2145    C        0.57270    0.95620    0.77460    1.000
    C2146    C        0.56610    0.97720    0.78950    1.000
    C2147    C        0.77110    0.09710    0.94180    1.000
    C2148    C        0.79400    0.07980    0.94750    1.000
    C2149    C        0.81470    0.08870    0.96480    1.000
    C2150    C        0.81360    0.11500    0.97650    1.000
    C2151    C        0.79000    0.13090    0.97100    1.000
    C2152    C        0.76870    0.12170    0.95260    1.000
    C2153    C        0.74330    0.01460    0.86260    1.000
    C2154    C        0.74030    0.99000    0.86850    1.000
    C2155    C        0.76330    0.97200    0.85820    1.000
    C2156    C        0.78520    0.98320    0.84150    1.000
    C2157    C        0.79030    0.01070    0.84110    1.000
    C2158    C        0.76840    0.02640    0.85600    1.000
    C2159    C        0.75970    0.06340    0.80130    1.000
    C2160    C        0.74440    0.04470    0.79160    1.000
    C2161    C        0.75560    0.02590    0.77630    1.000
    C2162    C        0.78500    0.02790    0.76710    1.000
    C2163    C        0.80360    0.04650    0.77770    1.000
    C2164    C        0.78970    0.06550    0.79590    1.000
    C2165    C        0.70540    0.08460    0.74700    1.000
    C2166    C        0.69160    0.06210    0.74160    1.000
    C2167    C        0.70340    0.04360    0.72640    1.000
    C2168    C        0.73040    0.04870    0.71460    1.000
    C2169    C        0.74250    0.07190    0.71930    1.000
    C2170    C        0.73310    0.08600    0.73700    1.000
    C2171    C        0.65590    0.97600    0.84840    1.000
    C2172    C        0.67750    0.98420    0.83300    1.000
    C2173    C        0.69440    0.96640    0.81650    1.000
    C2174    C        0.68630    0.93800    0.81890    1.000
    C2175    C        0.66060    0.93140    0.83580    1.000
    C2176    C        0.64730    0.95060    0.85250    1.000
    C2177    C        0.66530    0.95270    0.91820    1.000
    C2178    C        0.67800    0.92830    0.91170    1.000
    C2179    C        0.65600    0.91090    0.90660    1.000
    C2180    C        0.62810    0.91380    0.91390    1.000
    C2181    C        0.61720    0.93640    0.91800    1.000
    C2182    C        0.63740    0.95910    0.92130    1.000
    C2183    C        0.71336    0.11283    0.99656    1.000
    C2184    C        0.71970    0.13916    0.99650    1.000
    C2185    C        0.74190    0.14867    0.01142    1.000
    C2186    C        0.75770    0.13180    0.02641    1.000
    C2187    C        0.75130    0.10550    0.02647    1.000
    C2188    C        0.72918    0.09600    0.01155    1.000
    C2189    C        0.64150    0.01531    0.01000    1.000
    C2190    C        0.65870    0.03678    0.01490    1.000
    C2191    C        0.66280    0.04509    0.03937    1.000
    C2192    C        0.64970    0.03190    0.05900    1.000
    C2193    C        0.63250    0.01050    0.05420    1.000
    C2194    C        0.62830    0.00220    0.02970    1.000
    C2195    C        0.57500    0.06139    0.99610    1.000
    C2196    C        0.57770    0.05115    0.02010    1.000
    C2197    C        0.55400    0.03968    0.03160    1.000
    C2198    C        0.52770    0.03844    0.01920    1.000
    C2199    C        0.52500    0.04867    0.99530    1.000
    C2200    C        0.54870    0.06015    0.98370    1.000
    C2201    C        0.79390    0.14820    0.87830    1.000
    C2202    C        0.79140    0.12690    0.89410    1.000
    C2203    C        0.81420    0.12020    0.90970    1.000
    C2204    C        0.83930    0.13490    0.90970    1.000
    C2205    C        0.84180    0.15620    0.89390    1.000
    C2206    C        0.81900    0.16290    0.87830    1.000
    C2207    C        0.61630    0.05170    0.73960    1.000
    C2208    C        0.62560    0.02930    0.75170    1.000
    C2209    C        0.63500    0.00720    0.73460    1.000
    C2210    C        0.63290    0.00850    0.70920    1.000
    C2211    C        0.62390    0.03100    0.69950    1.000
    C2212    C        0.61300    0.05260    0.71460    1.000
    C2213    C        0.52650    0.06060    0.72760    1.000
    C2214    C        0.51430    0.04900    0.70720    1.000
    C2215    C        0.51470    0.06230    0.68280    1.000
    C2216    C        0.52570    0.08860    0.68100    1.000
    C2217    C        0.53470    0.10170    0.70480    1.000
    C2218    C        0.53630    0.08650    0.72610    1.000
    C2219    C        0.49980    0.02900    0.89710    1.000
    C2220    C        0.49100    0.00380    0.90230    1.000
    C2221    C        0.46850    0.99940    0.91900    1.000
    C2222    C        0.45480    0.02020    0.93040    1.000
    C2223    C        0.46360    0.04540    0.92520    1.000
    C2224    C        0.48600    0.04980    0.90850    1.000
    C2225    C        0.44670    0.11970    0.78350    1.000
    C2226    C        0.42450    0.12910    0.76700    1.000
    C2227    C        0.39580    0.13550    0.77600    1.000
    C2228    C        0.39110    0.13520    0.80420    1.000
    C2229    C        0.41470    0.12450    0.82190    1.000
    C2230    C        0.44150    0.11750    0.80960    1.000
    C2231    C        0.66120    0.94010    0.00290    1.000
    C2232    C        0.65530    0.94450    0.02960    1.000
    C2233    C        0.62720    0.93710    0.03830    1.000
    C2234    C        0.60680    0.92870    0.02260    1.000
    C2235    C        0.61240    0.92340    0.99630    1.000
    C2236    C        0.64030    0.93040    0.98570    1.000
    Cd305    Cd       0.64359    0.08980    0.89600    1.000
    Cd306    Cd       0.70075    0.06788    0.84200    1.000
    Cd307    Cd       0.58586    0.10793    0.84326    1.000
    Cd308    Cd       0.64755    0.08839    0.79000    1.000
    Cd309    Cd       0.62325    0.03699    0.83957    1.000
    Cd310    Cd       0.72343    0.12468    0.89709    1.000
    Cd311    Cd       0.58212    0.11063    0.95043    1.000
    Cd312    Cd       0.56694    0.05938    0.78403    1.000
    Cd313    Cd       0.52004    0.12762    0.79745    1.000
    Cd314    Cd       0.70681    0.06778    0.94641    1.000
    Cd315    Cd       0.62381    0.04290    0.95529    1.000
    Cd316    Cd       0.56542    0.05729    0.90045    1.000
    Cd317    Cd       0.51034    0.06508    0.84424    1.000
    Cd318    Cd       0.67411    0.01496    0.89603    1.000
    S492     S        0.60401    0.07106    0.86970    1.000
    S493     S        0.66216    0.05345    0.92338    1.000
    S494     S        0.68429    0.10581    0.86930    1.000
    S495     S        0.66453    0.04980    0.81284    1.000
    S496     S        0.54554    0.08943    0.81685    1.000
    S497     S        0.63561    0.99823    0.86749    1.000
    S498     S        0.54239    0.09103    0.92642    1.000
    S499     S        0.69013    0.10914    0.76721    1.000
    S500     S        0.60703    0.07906    0.75834    1.000
    S501     S        0.57843    0.02354    0.81476    1.000
    S502     S        0.74772    0.08533    0.82331    1.000
    S503     S        0.71768    0.03638    0.87614    1.000
    Cd319    Cd       0.48135    0.06045    0.77404    1.000
    Cd320    Cd       0.68875    0.99211    0.96802    1.000
    S504     S        0.52764    0.04237    0.75537    1.000
    S505     S        0.72359    0.02976    0.97369    1.000
    S506     S        0.59002    0.02063    0.92458    1.000
    S507     S        0.74641    0.08595    0.91949    1.000
    S508     S        0.75776    0.14271    0.86368    1.000
    S509     S        0.47958    0.11007    0.77151    1.000
    S510     S        0.63874    0.00479    0.98175    1.000
    S511     S        0.52789    0.03236    0.87500    1.000
    S512     S        0.69273    0.97771    0.92238    1.000
    S513     S        0.60690    0.08050    0.98162    1.000
    S514     S        0.47210    0.04321    0.81713    1.000
    S515     S        0.68370    0.10011    0.97629    1.000
    S516     S        0.69488    0.94915    0.99018    1.000
    C2237    C        0.56360    0.99840    0.94380    1.000
    C2238    C        0.54510    0.97590    0.97910    1.000
    C2239    C        0.56630    0.99110    0.96840    1.000
    C2240    C        0.54850    0.01670    0.95660    1.000
    C2241    C        0.49490    0.22960    0.95900    1.000
    C2242    C        0.46990    0.23330    0.97330    1.000
    C2243    C        0.44310    0.23870    0.96250    1.000
    C2244    C        0.44150    0.24270    0.93690    1.000
    C2245    C        0.46510    0.24010    0.92200    1.000
    C2246    C        0.49120    0.23230    0.93300    1.000
    C2247    C        0.76840    0.24040    0.81560    1.000
    C2248    C        0.76730    0.25420    0.79320    1.000
    C2249    C        0.76130    0.28210    0.79310    1.000
    C2250    C        0.75750    0.29550    0.81330    1.000
    C2251    C        0.75920    0.28060    0.83480    1.000
    C2252    C        0.76540    0.25420    0.83590    1.000
    C2253    C        0.66170    0.25440    0.79920    1.000
    C2254    C        0.63520    0.26470    0.79670    1.000
    C2255    C        0.62610    0.28960    0.78350    1.000
    C2256    C        0.64810    0.30020    0.77110    1.000
    C2257    C        0.67730    0.29380    0.77460    1.000
    C2258    C        0.68390    0.27280    0.78950    1.000
    C2259    C        0.47890    0.15290    0.94180    1.000
    C2260    C        0.45600    0.17020    0.94750    1.000
    C2261    C        0.43530    0.16130    0.96480    1.000
    C2262    C        0.43640    0.13500    0.97650    1.000
    C2263    C        0.46000    0.11910    0.97100    1.000
    C2264    C        0.48130    0.12830    0.95260    1.000
    C2265    C        0.50670    0.23540    0.86260    1.000
    C2266    C        0.50970    0.26000    0.86850    1.000
    C2267    C        0.48670    0.27800    0.85820    1.000
    C2268    C        0.46480    0.26680    0.84150    1.000
    C2269    C        0.45970    0.23930    0.84110    1.000
    C2270    C        0.48160    0.22360    0.85600    1.000
    C2271    C        0.49030    0.18660    0.80130    1.000
    C2272    C        0.50560    0.20530    0.79160    1.000
    C2273    C        0.49440    0.22410    0.77630    1.000
    C2274    C        0.46500    0.22210    0.76710    1.000
    C2275    C        0.44640    0.20350    0.77770    1.000
    C2276    C        0.46030    0.18450    0.79590    1.000
    C2277    C        0.54460    0.16540    0.74700    1.000
    C2278    C        0.55840    0.18790    0.74160    1.000
    C2279    C        0.54660    0.20640    0.72640    1.000
    C2280    C        0.51960    0.20130    0.71460    1.000
    C2281    C        0.50750    0.17810    0.71930    1.000
    C2282    C        0.51690    0.16400    0.73700    1.000
    C2283    C        0.59410    0.27400    0.84840    1.000
    C2284    C        0.57250    0.26580    0.83300    1.000
    C2285    C        0.55560    0.28360    0.81650    1.000
    C2286    C        0.56370    0.31200    0.81890    1.000
    C2287    C        0.58940    0.31860    0.83580    1.000
    C2288    C        0.60270    0.29940    0.85250    1.000
    C2289    C        0.58470    0.29730    0.91820    1.000
    C2290    C        0.57200    0.32170    0.91170    1.000
    C2291    C        0.59400    0.33910    0.90660    1.000
    C2292    C        0.62190    0.33620    0.91390    1.000
    C2293    C        0.63280    0.31360    0.91800    1.000
    C2294    C        0.61260    0.29090    0.92130    1.000
    C2295    C        0.53664    0.13717    0.99656    1.000
    C2296    C        0.53030    0.11084    0.99650    1.000
    C2297    C        0.50810    0.10133    0.01142    1.000
    C2298    C        0.49230    0.11820    0.02641    1.000
    C2299    C        0.49870    0.14450    0.02647    1.000
    C2300    C        0.52082    0.15400    0.01155    1.000
    C2301    C        0.60850    0.23469    0.01000    1.000
    C2302    C        0.59130    0.21322    0.01490    1.000
    C2303    C        0.58720    0.20491    0.03937    1.000
    C2304    C        0.60030    0.21810    0.05900    1.000
    C2305    C        0.61750    0.23950    0.05420    1.000
    C2306    C        0.62170    0.24780    0.02970    1.000
    C2307    C        0.67500    0.18861    0.99610    1.000
    C2308    C        0.67230    0.19885    0.02010    1.000
    C2309    C        0.69600    0.21032    0.03160    1.000
    C2310    C        0.72230    0.21156    0.01920    1.000
    C2311    C        0.72500    0.20133    0.99530    1.000
    C2312    C        0.70130    0.18985    0.98370    1.000
    C2313    C        0.45610    0.10180    0.87830    1.000
    C2314    C        0.45860    0.12310    0.89410    1.000
    C2315    C        0.43580    0.12980    0.90970    1.000
    C2316    C        0.41070    0.11510    0.90970    1.000
    C2317    C        0.40820    0.09380    0.89390    1.000
    C2318    C        0.43100    0.08710    0.87830    1.000
    C2319    C        0.63370    0.19830    0.73960    1.000
    C2320    C        0.62440    0.22070    0.75170    1.000
    C2321    C        0.61500    0.24280    0.73460    1.000
    C2322    C        0.61710    0.24150    0.70920    1.000
    C2323    C        0.62610    0.21900    0.69950    1.000
    C2324    C        0.63700    0.19740    0.71460    1.000
    C2325    C        0.72350    0.18940    0.72760    1.000
    C2326    C        0.73570    0.20100    0.70720    1.000
    C2327    C        0.73530    0.18770    0.68280    1.000
    C2328    C        0.72430    0.16140    0.68100    1.000
    C2329    C        0.71530    0.14830    0.70480    1.000
    C2330    C        0.71370    0.16350    0.72610    1.000
    C2331    C        0.75020    0.22100    0.89710    1.000
    C2332    C        0.75900    0.24620    0.90230    1.000
    C2333    C        0.78150    0.25060    0.91900    1.000
    C2334    C        0.79520    0.22980    0.93040    1.000
    C2335    C        0.78640    0.20460    0.92520    1.000
    C2336    C        0.76400    0.20020    0.90850    1.000
    C2337    C        0.80330    0.13030    0.78350    1.000
    C2338    C        0.82550    0.12090    0.76700    1.000
    C2339    C        0.85420    0.11450    0.77600    1.000
    C2340    C        0.85890    0.11480    0.80420    1.000
    C2341    C        0.83530    0.12550    0.82190    1.000
    C2342    C        0.80850    0.13250    0.80960    1.000
    C2343    C        0.58880    0.30990    0.00290    1.000
    C2344    C        0.59470    0.30550    0.02960    1.000
    C2345    C        0.62280    0.31290    0.03830    1.000
    C2346    C        0.64320    0.32130    0.02260    1.000
    C2347    C        0.63760    0.32660    0.99630    1.000
    C2348    C        0.60970    0.31960    0.98570    1.000
    Cd321    Cd       0.60641    0.16020    0.89600    1.000
    Cd322    Cd       0.54925    0.18212    0.84200    1.000
    Cd323    Cd       0.66414    0.14207    0.84326    1.000
    Cd324    Cd       0.60245    0.16161    0.79000    1.000
    Cd325    Cd       0.62675    0.21301    0.83957    1.000
    Cd326    Cd       0.52657    0.12532    0.89709    1.000
    Cd327    Cd       0.66788    0.13937    0.95043    1.000
    Cd328    Cd       0.68306    0.19062    0.78403    1.000
    Cd329    Cd       0.72996    0.12238    0.79745    1.000
    Cd330    Cd       0.54319    0.18222    0.94641    1.000
    Cd331    Cd       0.62619    0.20710    0.95529    1.000
    Cd332    Cd       0.68458    0.19271    0.90045    1.000
    Cd333    Cd       0.73966    0.18492    0.84424    1.000
    Cd334    Cd       0.57589    0.23504    0.89603    1.000
    S517     S        0.64599    0.17894    0.86970    1.000
    S518     S        0.58784    0.19655    0.92338    1.000
    S519     S        0.56571    0.14419    0.86930    1.000
    S520     S        0.58547    0.20020    0.81284    1.000
    S521     S        0.70446    0.16057    0.81685    1.000
    S522     S        0.61439    0.25177    0.86749    1.000
    S523     S        0.70761    0.15897    0.92642    1.000
    S524     S        0.55987    0.14086    0.76721    1.000
    S525     S        0.64297    0.17094    0.75834    1.000
    S526     S        0.67157    0.22646    0.81476    1.000
    S527     S        0.50228    0.16467    0.82331    1.000
    S528     S        0.53232    0.21362    0.87614    1.000
    Cd335    Cd       0.76865    0.18955    0.77404    1.000
    Cd336    Cd       0.56125    0.25789    0.96802    1.000
    S529     S        0.72236    0.20763    0.75537    1.000
    S530     S        0.52641    0.22024    0.97369    1.000
    S531     S        0.65998    0.22937    0.92458    1.000
    S532     S        0.50359    0.16405    0.91949    1.000
    S533     S        0.49224    0.10729    0.86368    1.000
    S534     S        0.77042    0.13993    0.77151    1.000
    S535     S        0.61126    0.24521    0.98175    1.000
    S536     S        0.72211    0.21764    0.87500    1.000
    S537     S        0.55727    0.27229    0.92238    1.000
    S538     S        0.64310    0.16950    0.98162    1.000
    S539     S        0.77790    0.20679    0.81713    1.000
    S540     S        0.56630    0.14989    0.97629    1.000
    S541     S        0.55512    0.30085    0.99018    1.000
    C2349    C        0.68640    0.25160    0.94380    1.000
    C2350    C        0.70490    0.27410    0.97910    1.000
    C2351    C        0.68370    0.25890    0.96840    1.000
    C2352    C        0.70150    0.23330    0.95660    1.000
    C2353    C        0.49490    0.72960    0.45900    1.000
    C2354    C        0.46990    0.73330    0.47330    1.000
    C2355    C        0.44310    0.73870    0.46250    1.000
    C2356    C        0.44150    0.74270    0.43690    1.000
    C2357    C        0.46510    0.74010    0.42200    1.000
    C2358    C        0.49120    0.73230    0.43300    1.000
    C2359    C        0.76840    0.74040    0.31560    1.000
    C2360    C        0.76730    0.75420    0.29320    1.000
    C2361    C        0.76130    0.78210    0.29310    1.000
    C2362    C        0.75750    0.79550    0.31330    1.000
    C2363    C        0.75920    0.78060    0.33480    1.000
    C2364    C        0.76540    0.75420    0.33590    1.000
    C2365    C        0.66170    0.75440    0.29920    1.000
    C2366    C        0.63520    0.76470    0.29670    1.000
    C2367    C        0.62610    0.78960    0.28350    1.000
    C2368    C        0.64810    0.80020    0.27110    1.000
    C2369    C        0.67730    0.79380    0.27460    1.000
    C2370    C        0.68390    0.77280    0.28950    1.000
    C2371    C        0.47890    0.65290    0.44180    1.000
    C2372    C        0.45600    0.67020    0.44750    1.000
    C2373    C        0.43530    0.66130    0.46480    1.000
    C2374    C        0.43640    0.63500    0.47650    1.000
    C2375    C        0.46000    0.61910    0.47100    1.000
    C2376    C        0.48130    0.62830    0.45260    1.000
    C2377    C        0.50670    0.73540    0.36260    1.000
    C2378    C        0.50970    0.76000    0.36850    1.000
    C2379    C        0.48670    0.77800    0.35820    1.000
    C2380    C        0.46480    0.76680    0.34150    1.000
    C2381    C        0.45970    0.73930    0.34110    1.000
    C2382    C        0.48160    0.72360    0.35600    1.000
    C2383    C        0.49030    0.68660    0.30130    1.000
    C2384    C        0.50560    0.70530    0.29160    1.000
    C2385    C        0.49440    0.72410    0.27630    1.000
    C2386    C        0.46500    0.72210    0.26710    1.000
    C2387    C        0.44640    0.70350    0.27770    1.000
    C2388    C        0.46030    0.68450    0.29590    1.000
    C2389    C        0.54460    0.66540    0.24700    1.000
    C2390    C        0.55840    0.68790    0.24160    1.000
    C2391    C        0.54660    0.70640    0.22640    1.000
    C2392    C        0.51960    0.70130    0.21460    1.000
    C2393    C        0.50750    0.67810    0.21930    1.000
    C2394    C        0.51690    0.66400    0.23700    1.000
    C2395    C        0.59410    0.77400    0.34840    1.000
    C2396    C        0.57250    0.76580    0.33300    1.000
    C2397    C        0.55560    0.78360    0.31650    1.000
    C2398    C        0.56370    0.81200    0.31890    1.000
    C2399    C        0.58940    0.81860    0.33580    1.000
    C2400    C        0.60270    0.79940    0.35250    1.000
    C2401    C        0.58470    0.79730    0.41820    1.000
    C2402    C        0.57200    0.82170    0.41170    1.000
    C2403    C        0.59400    0.83910    0.40660    1.000
    C2404    C        0.62190    0.83620    0.41390    1.000
    C2405    C        0.63280    0.81360    0.41800    1.000
    C2406    C        0.61260    0.79090    0.42130    1.000
    C2407    C        0.53664    0.63717    0.49656    1.000
    C2408    C        0.53030    0.61084    0.49650    1.000
    C2409    C        0.50810    0.60133    0.51142    1.000
    C2410    C        0.49230    0.61820    0.52641    1.000
    C2411    C        0.49870    0.64450    0.52647    1.000
    C2412    C        0.52082    0.65400    0.51155    1.000
    C2413    C        0.60850    0.73469    0.51000    1.000
    C2414    C        0.59130    0.71322    0.51490    1.000
    C2415    C        0.58720    0.70491    0.53937    1.000
    C2416    C        0.60030    0.71810    0.55900    1.000
    C2417    C        0.61750    0.73950    0.55420    1.000
    C2418    C        0.62170    0.74780    0.52970    1.000
    C2419    C        0.67500    0.68861    0.49610    1.000
    C2420    C        0.67230    0.69885    0.52010    1.000
    C2421    C        0.69600    0.71032    0.53160    1.000
    C2422    C        0.72230    0.71156    0.51920    1.000
    C2423    C        0.72500    0.70133    0.49530    1.000
    C2424    C        0.70130    0.68985    0.48370    1.000
    C2425    C        0.45610    0.60180    0.37830    1.000
    C2426    C        0.45860    0.62310    0.39410    1.000
    C2427    C        0.43580    0.62980    0.40970    1.000
    C2428    C        0.41070    0.61510    0.40970    1.000
    C2429    C        0.40820    0.59380    0.39390    1.000
    C2430    C        0.43100    0.58710    0.37830    1.000
    C2431    C        0.63370    0.69830    0.23960    1.000
    C2432    C        0.62440    0.72070    0.25170    1.000
    C2433    C        0.61500    0.74280    0.23460    1.000
    C2434    C        0.61710    0.74150    0.20920    1.000
    C2435    C        0.62610    0.71900    0.19950    1.000
    C2436    C        0.63700    0.69740    0.21460    1.000
    C2437    C        0.72350    0.68940    0.22760    1.000
    C2438    C        0.73570    0.70100    0.20720    1.000
    C2439    C        0.73530    0.68770    0.18280    1.000
    C2440    C        0.72430    0.66140    0.18100    1.000
    C2441    C        0.71530    0.64830    0.20480    1.000
    C2442    C        0.71370    0.66350    0.22610    1.000
    C2443    C        0.75020    0.72100    0.39710    1.000
    C2444    C        0.75900    0.74620    0.40230    1.000
    C2445    C        0.78150    0.75060    0.41900    1.000
    C2446    C        0.79520    0.72980    0.43040    1.000
    C2447    C        0.78640    0.70460    0.42520    1.000
    C2448    C        0.76400    0.70020    0.40850    1.000
    C2449    C        0.80330    0.63030    0.28350    1.000
    C2450    C        0.82550    0.62090    0.26700    1.000
    C2451    C        0.85420    0.61450    0.27600    1.000
    C2452    C        0.85890    0.61480    0.30420    1.000
    C2453    C        0.83530    0.62550    0.32190    1.000
    C2454    C        0.80850    0.63250    0.30960    1.000
    C2455    C        0.58880    0.80990    0.50290    1.000
    C2456    C        0.59470    0.80550    0.52960    1.000
    C2457    C        0.62280    0.81290    0.53830    1.000
    C2458    C        0.64320    0.82130    0.52260    1.000
    C2459    C        0.63760    0.82660    0.49630    1.000
    C2460    C        0.60970    0.81960    0.48570    1.000
    Cd337    Cd       0.60641    0.66020    0.39600    1.000
    Cd338    Cd       0.54925    0.68212    0.34200    1.000
    Cd339    Cd       0.66414    0.64207    0.34326    1.000
    Cd340    Cd       0.60245    0.66161    0.29000    1.000
    Cd341    Cd       0.62675    0.71301    0.33957    1.000
    Cd342    Cd       0.52657    0.62532    0.39709    1.000
    Cd343    Cd       0.66788    0.63937    0.45043    1.000
    Cd344    Cd       0.68306    0.69062    0.28403    1.000
    Cd345    Cd       0.72996    0.62238    0.29745    1.000
    Cd346    Cd       0.54319    0.68222    0.44641    1.000
    Cd347    Cd       0.62619    0.70710    0.45529    1.000
    Cd348    Cd       0.68458    0.69271    0.40045    1.000
    Cd349    Cd       0.73966    0.68492    0.34424    1.000
    Cd350    Cd       0.57589    0.73504    0.39603    1.000
    S542     S        0.64599    0.67894    0.36970    1.000
    S543     S        0.58784    0.69655    0.42338    1.000
    S544     S        0.56571    0.64419    0.36930    1.000
    S545     S        0.58547    0.70020    0.31284    1.000
    S546     S        0.70446    0.66057    0.31685    1.000
    S547     S        0.61439    0.75177    0.36749    1.000
    S548     S        0.70761    0.65897    0.42642    1.000
    S549     S        0.55987    0.64086    0.26721    1.000
    S550     S        0.64297    0.67094    0.25834    1.000
    S551     S        0.67157    0.72646    0.31476    1.000
    S552     S        0.50228    0.66467    0.32331    1.000
    S553     S        0.53232    0.71362    0.37614    1.000
    Cd351    Cd       0.76865    0.68955    0.27404    1.000
    Cd352    Cd       0.56125    0.75789    0.46802    1.000
    S554     S        0.72236    0.70763    0.25537    1.000
    S555     S        0.52641    0.72024    0.47369    1.000
    S556     S        0.65998    0.72937    0.42458    1.000
    S557     S        0.50359    0.66405    0.41949    1.000
    S558     S        0.49224    0.60729    0.36368    1.000
    S559     S        0.77042    0.63993    0.27151    1.000
    S560     S        0.61126    0.74521    0.48175    1.000
    S561     S        0.72211    0.71764    0.37500    1.000
    S562     S        0.55727    0.77229    0.42238    1.000
    S563     S        0.64310    0.66950    0.48162    1.000
    S564     S        0.77790    0.70679    0.31713    1.000
    S565     S        0.56630    0.64989    0.47629    1.000
    S566     S        0.55512    0.80085    0.49018    1.000
    C2461    C        0.68640    0.75160    0.44380    1.000
    C2462    C        0.70490    0.77410    0.47910    1.000
    C2463    C        0.68370    0.75890    0.46840    1.000
    C2464    C        0.70150    0.73330    0.45660    1.000
    C2465    C        0.99490    0.22960    0.45900    1.000
    C2466    C        0.96990    0.23330    0.47330    1.000
    C2467    C        0.94310    0.23870    0.46250    1.000
    C2468    C        0.94150    0.24270    0.43690    1.000
    C2469    C        0.96510    0.24010    0.42200    1.000
    C2470    C        0.99120    0.23230    0.43300    1.000
    C2471    C        0.26840    0.24040    0.31560    1.000
    C2472    C        0.26730    0.25420    0.29320    1.000
    C2473    C        0.26130    0.28210    0.29310    1.000
    C2474    C        0.25750    0.29550    0.31330    1.000
    C2475    C        0.25920    0.28060    0.33480    1.000
    C2476    C        0.26540    0.25420    0.33590    1.000
    C2477    C        0.16170    0.25440    0.29920    1.000
    C2478    C        0.13520    0.26470    0.29670    1.000
    C2479    C        0.12610    0.28960    0.28350    1.000
    C2480    C        0.14810    0.30020    0.27110    1.000
    C2481    C        0.17730    0.29380    0.27460    1.000
    C2482    C        0.18390    0.27280    0.28950    1.000
    C2483    C        0.97890    0.15290    0.44180    1.000
    C2484    C        0.95600    0.17020    0.44750    1.000
    C2485    C        0.93530    0.16130    0.46480    1.000
    C2486    C        0.93640    0.13500    0.47650    1.000
    C2487    C        0.96000    0.11910    0.47100    1.000
    C2488    C        0.98130    0.12830    0.45260    1.000
    C2489    C        0.00670    0.23540    0.36260    1.000
    C2490    C        0.00970    0.26000    0.36850    1.000
    C2491    C        0.98670    0.27800    0.35820    1.000
    C2492    C        0.96480    0.26680    0.34150    1.000
    C2493    C        0.95970    0.23930    0.34110    1.000
    C2494    C        0.98160    0.22360    0.35600    1.000
    C2495    C        0.99030    0.18660    0.30130    1.000
    C2496    C        0.00560    0.20530    0.29160    1.000
    C2497    C        0.99440    0.22410    0.27630    1.000
    C2498    C        0.96500    0.22210    0.26710    1.000
    C2499    C        0.94640    0.20350    0.27770    1.000
    C2500    C        0.96030    0.18450    0.29590    1.000
    C2501    C        0.04460    0.16540    0.24700    1.000
    C2502    C        0.05840    0.18790    0.24160    1.000
    C2503    C        0.04660    0.20640    0.22640    1.000
    C2504    C        0.01960    0.20130    0.21460    1.000
    C2505    C        0.00750    0.17810    0.21930    1.000
    C2506    C        0.01690    0.16400    0.23700    1.000
    C2507    C        0.09410    0.27400    0.34840    1.000
    C2508    C        0.07250    0.26580    0.33300    1.000
    C2509    C        0.05560    0.28360    0.31650    1.000
    C2510    C        0.06370    0.31200    0.31890    1.000
    C2511    C        0.08940    0.31860    0.33580    1.000
    C2512    C        0.10270    0.29940    0.35250    1.000
    C2513    C        0.08470    0.29730    0.41820    1.000
    C2514    C        0.07200    0.32170    0.41170    1.000
    C2515    C        0.09400    0.33910    0.40660    1.000
    C2516    C        0.12190    0.33620    0.41390    1.000
    C2517    C        0.13280    0.31360    0.41800    1.000
    C2518    C        0.11260    0.29090    0.42130    1.000
    C2519    C        0.03664    0.13717    0.49656    1.000
    C2520    C        0.03030    0.11084    0.49650    1.000
    C2521    C        0.00810    0.10133    0.51142    1.000
    C2522    C        0.99230    0.11820    0.52641    1.000
    C2523    C        0.99870    0.14450    0.52647    1.000
    C2524    C        0.02082    0.15400    0.51155    1.000
    C2525    C        0.10850    0.23469    0.51000    1.000
    C2526    C        0.09130    0.21322    0.51490    1.000
    C2527    C        0.08720    0.20491    0.53937    1.000
    C2528    C        0.10030    0.21810    0.55900    1.000
    C2529    C        0.11750    0.23950    0.55420    1.000
    C2530    C        0.12170    0.24780    0.52970    1.000
    C2531    C        0.17500    0.18861    0.49610    1.000
    C2532    C        0.17230    0.19885    0.52010    1.000
    C2533    C        0.19600    0.21032    0.53160    1.000
    C2534    C        0.22230    0.21156    0.51920    1.000
    C2535    C        0.22500    0.20133    0.49530    1.000
    C2536    C        0.20130    0.18985    0.48370    1.000
    C2537    C        0.95610    0.10180    0.37830    1.000
    C2538    C        0.95860    0.12310    0.39410    1.000
    C2539    C        0.93580    0.12980    0.40970    1.000
    C2540    C        0.91070    0.11510    0.40970    1.000
    C2541    C        0.90820    0.09380    0.39390    1.000
    C2542    C        0.93100    0.08710    0.37830    1.000
    C2543    C        0.13370    0.19830    0.23960    1.000
    C2544    C        0.12440    0.22070    0.25170    1.000
    C2545    C        0.11500    0.24280    0.23460    1.000
    C2546    C        0.11710    0.24150    0.20920    1.000
    C2547    C        0.12610    0.21900    0.19950    1.000
    C2548    C        0.13700    0.19740    0.21460    1.000
    C2549    C        0.22350    0.18940    0.22760    1.000
    C2550    C        0.23570    0.20100    0.20720    1.000
    C2551    C        0.23530    0.18770    0.18280    1.000
    C2552    C        0.22430    0.16140    0.18100    1.000
    C2553    C        0.21530    0.14830    0.20480    1.000
    C2554    C        0.21370    0.16350    0.22610    1.000
    C2555    C        0.25020    0.22100    0.39710    1.000
    C2556    C        0.25900    0.24620    0.40230    1.000
    C2557    C        0.28150    0.25060    0.41900    1.000
    C2558    C        0.29520    0.22980    0.43040    1.000
    C2559    C        0.28640    0.20460    0.42520    1.000
    C2560    C        0.26400    0.20020    0.40850    1.000
    C2561    C        0.30330    0.13030    0.28350    1.000
    C2562    C        0.32550    0.12090    0.26700    1.000
    C2563    C        0.35420    0.11450    0.27600    1.000
    C2564    C        0.35890    0.11480    0.30420    1.000
    C2565    C        0.33530    0.12550    0.32190    1.000
    C2566    C        0.30850    0.13250    0.30960    1.000
    C2567    C        0.08880    0.30990    0.50290    1.000
    C2568    C        0.09470    0.30550    0.52960    1.000
    C2569    C        0.12280    0.31290    0.53830    1.000
    C2570    C        0.14320    0.32130    0.52260    1.000
    C2571    C        0.13760    0.32660    0.49630    1.000
    C2572    C        0.10970    0.31960    0.48570    1.000
    Cd353    Cd       0.10641    0.16020    0.39600    1.000
    Cd354    Cd       0.04925    0.18212    0.34200    1.000
    Cd355    Cd       0.16414    0.14207    0.34326    1.000
    Cd356    Cd       0.10245    0.16161    0.29000    1.000
    Cd357    Cd       0.12675    0.21301    0.33957    1.000
    Cd358    Cd       0.02657    0.12532    0.39709    1.000
    Cd359    Cd       0.16788    0.13937    0.45043    1.000
    Cd360    Cd       0.18306    0.19062    0.28403    1.000
    Cd361    Cd       0.22996    0.12238    0.29745    1.000
    Cd362    Cd       0.04319    0.18222    0.44641    1.000
    Cd363    Cd       0.12619    0.20710    0.45529    1.000
    Cd364    Cd       0.18458    0.19271    0.40045    1.000
    Cd365    Cd       0.23966    0.18492    0.34424    1.000
    Cd366    Cd       0.07589    0.23504    0.39603    1.000
    S567     S        0.14599    0.17894    0.36970    1.000
    S568     S        0.08784    0.19655    0.42338    1.000
    S569     S        0.06571    0.14419    0.36930    1.000
    S570     S        0.08547    0.20020    0.31284    1.000
    S571     S        0.20446    0.16057    0.31685    1.000
    S572     S        0.11439    0.25177    0.36749    1.000
    S573     S        0.20761    0.15897    0.42642    1.000
    S574     S        0.05987    0.14086    0.26721    1.000
    S575     S        0.14297    0.17094    0.25834    1.000
    S576     S        0.17157    0.22646    0.31476    1.000
    S577     S        0.00228    0.16467    0.32331    1.000
    S578     S        0.03232    0.21362    0.37614    1.000
    Cd367    Cd       0.26865    0.18955    0.27404    1.000
    Cd368    Cd       0.06125    0.25789    0.46802    1.000
    S579     S        0.22236    0.20763    0.25537    1.000
    S580     S        0.02641    0.22024    0.47369    1.000
    S581     S        0.15998    0.22937    0.42458    1.000
    S582     S        0.00359    0.16405    0.41949    1.000
    S583     S        0.99224    0.10729    0.36368    1.000
    S584     S        0.27042    0.13993    0.27151    1.000
    S585     S        0.11126    0.24521    0.48175    1.000
    S586     S        0.22211    0.21764    0.37500    1.000
    S587     S        0.05727    0.27229    0.42238    1.000
    S588     S        0.14310    0.16950    0.48162    1.000
    S589     S        0.27790    0.20679    0.31713    1.000
    S590     S        0.06630    0.14989    0.47629    1.000
    S591     S        0.05512    0.30085    0.49018    1.000
    C2573    C        0.18640    0.25160    0.44380    1.000
    C2574    C        0.20490    0.27410    0.47910    1.000
    C2575    C        0.18370    0.25890    0.46840    1.000
    C2576    C        0.20150    0.23330    0.45660    1.000
    C2577    C        0.99490    0.72960    0.95900    1.000
    C2578    C        0.96990    0.73330    0.97330    1.000
    C2579    C        0.94310    0.73870    0.96250    1.000
    C2580    C        0.94150    0.74270    0.93690    1.000
    C2581    C        0.96510    0.74010    0.92200    1.000
    C2582    C        0.99120    0.73230    0.93300    1.000
    C2583    C        0.26840    0.74040    0.81560    1.000
    C2584    C        0.26730    0.75420    0.79320    1.000
    C2585    C        0.26130    0.78210    0.79310    1.000
    C2586    C        0.25750    0.79550    0.81330    1.000
    C2587    C        0.25920    0.78060    0.83480    1.000
    C2588    C        0.26540    0.75420    0.83590    1.000
    C2589    C        0.16170    0.75440    0.79920    1.000
    C2590    C        0.13520    0.76470    0.79670    1.000
    C2591    C        0.12610    0.78960    0.78350    1.000
    C2592    C        0.14810    0.80020    0.77110    1.000
    C2593    C        0.17730    0.79380    0.77460    1.000
    C2594    C        0.18390    0.77280    0.78950    1.000
    C2595    C        0.97890    0.65290    0.94180    1.000
    C2596    C        0.95600    0.67020    0.94750    1.000
    C2597    C        0.93530    0.66130    0.96480    1.000
    C2598    C        0.93640    0.63500    0.97650    1.000
    C2599    C        0.96000    0.61910    0.97100    1.000
    C2600    C        0.98130    0.62830    0.95260    1.000
    C2601    C        0.00670    0.73540    0.86260    1.000
    C2602    C        0.00970    0.76000    0.86850    1.000
    C2603    C        0.98670    0.77800    0.85820    1.000
    C2604    C        0.96480    0.76680    0.84150    1.000
    C2605    C        0.95970    0.73930    0.84110    1.000
    C2606    C        0.98160    0.72360    0.85600    1.000
    C2607    C        0.99030    0.68660    0.80130    1.000
    C2608    C        0.00560    0.70530    0.79160    1.000
    C2609    C        0.99440    0.72410    0.77630    1.000
    C2610    C        0.96500    0.72210    0.76710    1.000
    C2611    C        0.94640    0.70350    0.77770    1.000
    C2612    C        0.96030    0.68450    0.79590    1.000
    C2613    C        0.04460    0.66540    0.74700    1.000
    C2614    C        0.05840    0.68790    0.74160    1.000
    C2615    C        0.04660    0.70640    0.72640    1.000
    C2616    C        0.01960    0.70130    0.71460    1.000
    C2617    C        0.00750    0.67810    0.71930    1.000
    C2618    C        0.01690    0.66400    0.73700    1.000
    C2619    C        0.09410    0.77400    0.84840    1.000
    C2620    C        0.07250    0.76580    0.83300    1.000
    C2621    C        0.05560    0.78360    0.81650    1.000
    C2622    C        0.06370    0.81200    0.81890    1.000
    C2623    C        0.08940    0.81860    0.83580    1.000
    C2624    C        0.10270    0.79940    0.85250    1.000
    C2625    C        0.08470    0.79730    0.91820    1.000
    C2626    C        0.07200    0.82170    0.91170    1.000
    C2627    C        0.09400    0.83910    0.90660    1.000
    C2628    C        0.12190    0.83620    0.91390    1.000
    C2629    C        0.13280    0.81360    0.91800    1.000
    C2630    C        0.11260    0.79090    0.92130    1.000
    C2631    C        0.03664    0.63717    0.99656    1.000
    C2632    C        0.03030    0.61084    0.99650    1.000
    C2633    C        0.00810    0.60133    0.01142    1.000
    C2634    C        0.99230    0.61820    0.02641    1.000
    C2635    C        0.99870    0.64450    0.02647    1.000
    C2636    C        0.02082    0.65400    0.01155    1.000
    C2637    C        0.10850    0.73469    0.01000    1.000
    C2638    C        0.09130    0.71322    0.01490    1.000
    C2639    C        0.08720    0.70491    0.03937    1.000
    C2640    C        0.10030    0.71810    0.05900    1.000
    C2641    C        0.11750    0.73950    0.05420    1.000
    C2642    C        0.12170    0.74780    0.02970    1.000
    C2643    C        0.17500    0.68861    0.99610    1.000
    C2644    C        0.17230    0.69885    0.02010    1.000
    C2645    C        0.19600    0.71032    0.03160    1.000
    C2646    C        0.22230    0.71156    0.01920    1.000
    C2647    C        0.22500    0.70133    0.99530    1.000
    C2648    C        0.20130    0.68985    0.98370    1.000
    C2649    C        0.95610    0.60180    0.87830    1.000
    C2650    C        0.95860    0.62310    0.89410    1.000
    C2651    C        0.93580    0.62980    0.90970    1.000
    C2652    C        0.91070    0.61510    0.90970    1.000
    C2653    C        0.90820    0.59380    0.89390    1.000
    C2654    C        0.93100    0.58710    0.87830    1.000
    C2655    C        0.13370    0.69830    0.73960    1.000
    C2656    C        0.12440    0.72070    0.75170    1.000
    C2657    C        0.11500    0.74280    0.73460    1.000
    C2658    C        0.11710    0.74150    0.70920    1.000
    C2659    C        0.12610    0.71900    0.69950    1.000
    C2660    C        0.13700    0.69740    0.71460    1.000
    C2661    C        0.22350    0.68940    0.72760    1.000
    C2662    C        0.23570    0.70100    0.70720    1.000
    C2663    C        0.23530    0.68770    0.68280    1.000
    C2664    C        0.22430    0.66140    0.68100    1.000
    C2665    C        0.21530    0.64830    0.70480    1.000
    C2666    C        0.21370    0.66350    0.72610    1.000
    C2667    C        0.25020    0.72100    0.89710    1.000
    C2668    C        0.25900    0.74620    0.90230    1.000
    C2669    C        0.28150    0.75060    0.91900    1.000
    C2670    C        0.29520    0.72980    0.93040    1.000
    C2671    C        0.28640    0.70460    0.92520    1.000
    C2672    C        0.26400    0.70020    0.90850    1.000
    C2673    C        0.30330    0.63030    0.78350    1.000
    C2674    C        0.32550    0.62090    0.76700    1.000
    C2675    C        0.35420    0.61450    0.77600    1.000
    C2676    C        0.35890    0.61480    0.80420    1.000
    C2677    C        0.33530    0.62550    0.82190    1.000
    C2678    C        0.30850    0.63250    0.80960    1.000
    C2679    C        0.08880    0.80990    0.00290    1.000
    C2680    C        0.09470    0.80550    0.02960    1.000
    C2681    C        0.12280    0.81290    0.03830    1.000
    C2682    C        0.14320    0.82130    0.02260    1.000
    C2683    C        0.13760    0.82660    0.99630    1.000
    C2684    C        0.10970    0.81960    0.98570    1.000
    Cd369    Cd       0.10641    0.66020    0.89600    1.000
    Cd370    Cd       0.04925    0.68212    0.84200    1.000
    Cd371    Cd       0.16414    0.64207    0.84326    1.000
    Cd372    Cd       0.10245    0.66161    0.79000    1.000
    Cd373    Cd       0.12675    0.71301    0.83957    1.000
    Cd374    Cd       0.02657    0.62532    0.89709    1.000
    Cd375    Cd       0.16788    0.63937    0.95043    1.000
    Cd376    Cd       0.18306    0.69062    0.78403    1.000
    Cd377    Cd       0.22996    0.62238    0.79745    1.000
    Cd378    Cd       0.04319    0.68222    0.94641    1.000
    Cd379    Cd       0.12619    0.70710    0.95529    1.000
    Cd380    Cd       0.18458    0.69271    0.90045    1.000
    Cd381    Cd       0.23966    0.68492    0.84424    1.000
    Cd382    Cd       0.07589    0.73504    0.89603    1.000
    S592     S        0.14599    0.67894    0.86970    1.000
    S593     S        0.08784    0.69655    0.92338    1.000
    S594     S        0.06571    0.64419    0.86930    1.000
    S595     S        0.08547    0.70020    0.81284    1.000
    S596     S        0.20446    0.66057    0.81685    1.000
    S597     S        0.11439    0.75177    0.86749    1.000
    S598     S        0.20761    0.65897    0.92642    1.000
    S599     S        0.05987    0.64086    0.76721    1.000
    S600     S        0.14297    0.67094    0.75834    1.000
    S601     S        0.17157    0.72646    0.81476    1.000
    S602     S        0.00228    0.66467    0.82331    1.000
    S603     S        0.03232    0.71362    0.87614    1.000
    Cd383    Cd       0.26865    0.68955    0.77404    1.000
    Cd384    Cd       0.06125    0.75789    0.96802    1.000
    S604     S        0.22236    0.70763    0.75537    1.000
    S605     S        0.02641    0.72024    0.97369    1.000
    S606     S        0.15998    0.72937    0.92458    1.000
    S607     S        0.00359    0.66405    0.91949    1.000
    S608     S        0.99224    0.60729    0.86368    1.000
    S609     S        0.27042    0.63993    0.77151    1.000
    S610     S        0.11126    0.74521    0.98175    1.000
    S611     S        0.22211    0.71764    0.87500    1.000
    S612     S        0.05727    0.77229    0.92238    1.000
    S613     S        0.14310    0.66950    0.98162    1.000
    S614     S        0.27790    0.70679    0.81713    1.000
    S615     S        0.06630    0.64989    0.97629    1.000
    S616     S        0.05512    0.80085    0.99018    1.000
    C2685    C        0.18640    0.75160    0.94380    1.000
    C2686    C        0.20490    0.77410    0.97910    1.000
    C2687    C        0.18370    0.75890    0.96840    1.000
    C2688    C        0.20150    0.73330    0.95660    1.000
    C2689    C        0.50510    0.47960    0.20900    1.000
    C2690    C        0.53010    0.48330    0.22330    1.000
    C2691    C        0.55690    0.48870    0.21250    1.000
    C2692    C        0.55850    0.49270    0.18690    1.000
    C2693    C        0.53490    0.49010    0.17200    1.000
    C2694    C        0.50880    0.48230    0.18300    1.000
    C2695    C        0.23160    0.49040    0.06560    1.000
    C2696    C        0.23270    0.50420    0.04320    1.000
    C2697    C        0.23870    0.53210    0.04310    1.000
    C2698    C        0.24250    0.54550    0.06330    1.000
    C2699    C        0.24080    0.53060    0.08480    1.000
    C2700    C        0.23460    0.50420    0.08590    1.000
    C2701    C        0.33830    0.50440    0.04920    1.000
    C2702    C        0.36480    0.51470    0.04670    1.000
    C2703    C        0.37390    0.53960    0.03350    1.000
    C2704    C        0.35190    0.55020    0.02110    1.000
    C2705    C        0.32270    0.54380    0.02460    1.000
    C2706    C        0.31610    0.52280    0.03950    1.000
    C2707    C        0.52110    0.40290    0.19180    1.000
    C2708    C        0.54400    0.42020    0.19750    1.000
    C2709    C        0.56470    0.41130    0.21480    1.000
    C2710    C        0.56360    0.38500    0.22650    1.000
    C2711    C        0.54000    0.36910    0.22100    1.000
    C2712    C        0.51870    0.37830    0.20260    1.000
    C2713    C        0.49330    0.48540    0.11260    1.000
    C2714    C        0.49030    0.51000    0.11850    1.000
    C2715    C        0.51330    0.52800    0.10820    1.000
    C2716    C        0.53520    0.51680    0.09150    1.000
    C2717    C        0.54030    0.48930    0.09110    1.000
    C2718    C        0.51840    0.47360    0.10600    1.000
    C2719    C        0.50970    0.43660    0.05130    1.000
    C2720    C        0.49440    0.45530    0.04160    1.000
    C2721    C        0.50560    0.47410    0.02630    1.000
    C2722    C        0.53500    0.47210    0.01710    1.000
    C2723    C        0.55360    0.45350    0.02770    1.000
    C2724    C        0.53970    0.43450    0.04590    1.000
    C2725    C        0.45540    0.41540    0.99700    1.000
    C2726    C        0.44160    0.43790    0.99160    1.000
    C2727    C        0.45340    0.45640    0.97640    1.000
    C2728    C        0.48040    0.45130    0.96460    1.000
    C2729    C        0.49250    0.42810    0.96930    1.000
    C2730    C        0.48310    0.41400    0.98700    1.000
    C2731    C        0.40590    0.52400    0.09840    1.000
    C2732    C        0.42750    0.51580    0.08300    1.000
    C2733    C        0.44440    0.53360    0.06650    1.000
    C2734    C        0.43630    0.56200    0.06890    1.000
    C2735    C        0.41060    0.56860    0.08580    1.000
    C2736    C        0.39730    0.54940    0.10250    1.000
    C2737    C        0.41530    0.54730    0.16820    1.000
    C2738    C        0.42800    0.57170    0.16170    1.000
    C2739    C        0.40600    0.58910    0.15660    1.000
    C2740    C        0.37810    0.58620    0.16390    1.000
    C2741    C        0.36720    0.56360    0.16800    1.000
    C2742    C        0.38740    0.54090    0.17130    1.000
    C2743    C        0.46336    0.38717    0.24656    1.000
    C2744    C        0.46970    0.36084    0.24650    1.000
    C2745    C        0.49190    0.35133    0.26142    1.000
    C2746    C        0.50770    0.36820    0.27641    1.000
    C2747    C        0.50130    0.39450    0.27647    1.000
    C2748    C        0.47918    0.40400    0.26155    1.000
    C2749    C        0.39150    0.48469    0.26000    1.000
    C2750    C        0.40870    0.46322    0.26490    1.000
    C2751    C        0.41280    0.45491    0.28937    1.000
    C2752    C        0.39970    0.46810    0.30900    1.000
    C2753    C        0.38250    0.48950    0.30420    1.000
    C2754    C        0.37830    0.49780    0.27970    1.000
    C2755    C        0.32500    0.43861    0.24610    1.000
    C2756    C        0.32770    0.44885    0.27010    1.000
    C2757    C        0.30400    0.46032    0.28160    1.000
    C2758    C        0.27770    0.46156    0.26920    1.000
    C2759    C        0.27500    0.45133    0.24530    1.000
    C2760    C        0.29870    0.43985    0.23370    1.000
    C2761    C        0.54390    0.35180    0.12830    1.000
    C2762    C        0.54140    0.37310    0.14410    1.000
    C2763    C        0.56420    0.37980    0.15970    1.000
    C2764    C        0.58930    0.36510    0.15970    1.000
    C2765    C        0.59180    0.34380    0.14390    1.000
    C2766    C        0.56900    0.33710    0.12830    1.000
    C2767    C        0.36630    0.44830    0.98960    1.000
    C2768    C        0.37560    0.47070    0.00170    1.000
    C2769    C        0.38500    0.49280    0.98460    1.000
    C2770    C        0.38290    0.49150    0.95920    1.000
    C2771    C        0.37390    0.46900    0.94950    1.000
    C2772    C        0.36300    0.44740    0.96460    1.000
    C2773    C        0.27650    0.43940    0.97760    1.000
    C2774    C        0.26430    0.45100    0.95720    1.000
    C2775    C        0.26470    0.43770    0.93280    1.000
    C2776    C        0.27570    0.41140    0.93100    1.000
    C2777    C        0.28470    0.39830    0.95480    1.000
    C2778    C        0.28630    0.41350    0.97610    1.000
    C2779    C        0.24980    0.47100    0.14710    1.000
    C2780    C        0.24100    0.49620    0.15230    1.000
    C2781    C        0.21850    0.50060    0.16900    1.000
    C2782    C        0.20480    0.47980    0.18040    1.000
    C2783    C        0.21360    0.45460    0.17520    1.000
    C2784    C        0.23600    0.45020    0.15850    1.000
    C2785    C        0.19670    0.38030    0.03350    1.000
    C2786    C        0.17450    0.37090    0.01700    1.000
    C2787    C        0.14580    0.36450    0.02600    1.000
    C2788    C        0.14110    0.36480    0.05420    1.000
    C2789    C        0.16470    0.37550    0.07190    1.000
    C2790    C        0.19150    0.38250    0.05960    1.000
    C2791    C        0.41120    0.55990    0.25290    1.000
    C2792    C        0.40530    0.55550    0.27960    1.000
    C2793    C        0.37720    0.56290    0.28830    1.000
    C2794    C        0.35680    0.57130    0.27260    1.000
    C2795    C        0.36240    0.57660    0.24630    1.000
    C2796    C        0.39030    0.56960    0.23570    1.000
    Cd385    Cd       0.39359    0.41020    0.14600    1.000
    Cd386    Cd       0.45075    0.43212    0.09200    1.000
    Cd387    Cd       0.33586    0.39207    0.09326    1.000
    Cd388    Cd       0.39755    0.41161    0.04000    1.000
    Cd389    Cd       0.37325    0.46301    0.08957    1.000
    Cd390    Cd       0.47343    0.37532    0.14709    1.000
    Cd391    Cd       0.33212    0.38937    0.20043    1.000
    Cd392    Cd       0.31694    0.44062    0.03403    1.000
    Cd393    Cd       0.27004    0.37238    0.04745    1.000
    Cd394    Cd       0.45681    0.43222    0.19641    1.000
    Cd395    Cd       0.37381    0.45710    0.20529    1.000
    Cd396    Cd       0.31542    0.44271    0.15045    1.000
    Cd397    Cd       0.26034    0.43492    0.09424    1.000
    Cd398    Cd       0.42411    0.48504    0.14603    1.000
    S617     S        0.35401    0.42894    0.11970    1.000
    S618     S        0.41216    0.44655    0.17338    1.000
    S619     S        0.43429    0.39419    0.11930    1.000
    S620     S        0.41453    0.45020    0.06284    1.000
    S621     S        0.29554    0.41057    0.06685    1.000
    S622     S        0.38561    0.50177    0.11749    1.000
    S623     S        0.29239    0.40897    0.17642    1.000
    S624     S        0.44013    0.39086    0.01721    1.000
    S625     S        0.35703    0.42094    0.00834    1.000
    S626     S        0.32843    0.47646    0.06476    1.000
    S627     S        0.49772    0.41467    0.07331    1.000
    S628     S        0.46768    0.46362    0.12614    1.000
    Cd399    Cd       0.23135    0.43955    0.02404    1.000
    Cd400    Cd       0.43875    0.50789    0.21802    1.000
    S629     S        0.27764    0.45763    0.00537    1.000
    S630     S        0.47359    0.47024    0.22369    1.000
    S631     S        0.34002    0.47937    0.17458    1.000
    S632     S        0.49641    0.41405    0.16949    1.000
    S633     S        0.50776    0.35729    0.11368    1.000
    S634     S        0.22958    0.38993    0.02151    1.000
    S635     S        0.38874    0.49521    0.23175    1.000
    S636     S        0.27789    0.46764    0.12500    1.000
    S637     S        0.44273    0.52229    0.17238    1.000
    S638     S        0.35690    0.41950    0.23162    1.000
    S639     S        0.22210    0.45679    0.06713    1.000
    S640     S        0.43370    0.39989    0.22629    1.000
    S641     S        0.44488    0.55085    0.24018    1.000
    C2797    C        0.31360    0.50160    0.19380    1.000
    C2798    C        0.29510    0.52410    0.22910    1.000
    C2799    C        0.31630    0.50890    0.21840    1.000
    C2800    C        0.29850    0.48330    0.20660    1.000
    C2801    C        0.50510    0.97960    0.70900    1.000
    C2802    C        0.53010    0.98330    0.72330    1.000
    C2803    C        0.55690    0.98870    0.71250    1.000
    C2804    C        0.55850    0.99270    0.68690    1.000
    C2805    C        0.53490    0.99010    0.67200    1.000
    C2806    C        0.50880    0.98230    0.68300    1.000
    C2807    C        0.23160    0.99040    0.56560    1.000
    C2808    C        0.23270    0.00420    0.54320    1.000
    C2809    C        0.23870    0.03210    0.54310    1.000
    C2810    C        0.24250    0.04550    0.56330    1.000
    C2811    C        0.24080    0.03060    0.58480    1.000
    C2812    C        0.23460    0.00420    0.58590    1.000
    C2813    C        0.33830    0.00440    0.54920    1.000
    C2814    C        0.36480    0.01470    0.54670    1.000
    C2815    C        0.37390    0.03960    0.53350    1.000
    C2816    C        0.35190    0.05020    0.52110    1.000
    C2817    C        0.32270    0.04380    0.52460    1.000
    C2818    C        0.31610    0.02280    0.53950    1.000
    C2819    C        0.52110    0.90290    0.69180    1.000
    C2820    C        0.54400    0.92020    0.69750    1.000
    C2821    C        0.56470    0.91130    0.71480    1.000
    C2822    C        0.56360    0.88500    0.72650    1.000
    C2823    C        0.54000    0.86910    0.72100    1.000
    C2824    C        0.51870    0.87830    0.70260    1.000
    C2825    C        0.49330    0.98540    0.61260    1.000
    C2826    C        0.49030    0.01000    0.61850    1.000
    C2827    C        0.51330    0.02800    0.60820    1.000
    C2828    C        0.53520    0.01680    0.59150    1.000
    C2829    C        0.54030    0.98930    0.59110    1.000
    C2830    C        0.51840    0.97360    0.60600    1.000
    C2831    C        0.50970    0.93660    0.55130    1.000
    C2832    C        0.49440    0.95530    0.54160    1.000
    C2833    C        0.50560    0.97410    0.52630    1.000
    C2834    C        0.53500    0.97210    0.51710    1.000
    C2835    C        0.55360    0.95350    0.52770    1.000
    C2836    C        0.53970    0.93450    0.54590    1.000
    C2837    C        0.45540    0.91540    0.49700    1.000
    C2838    C        0.44160    0.93790    0.49160    1.000
    C2839    C        0.45340    0.95640    0.47640    1.000
    C2840    C        0.48040    0.95130    0.46460    1.000
    C2841    C        0.49250    0.92810    0.46930    1.000
    C2842    C        0.48310    0.91400    0.48700    1.000
    C2843    C        0.40590    0.02400    0.59840    1.000
    C2844    C        0.42750    0.01580    0.58300    1.000
    C2845    C        0.44440    0.03360    0.56650    1.000
    C2846    C        0.43630    0.06200    0.56890    1.000
    C2847    C        0.41060    0.06860    0.58580    1.000
    C2848    C        0.39730    0.04940    0.60250    1.000
    C2849    C        0.41530    0.04730    0.66820    1.000
    C2850    C        0.42800    0.07170    0.66170    1.000
    C2851    C        0.40600    0.08910    0.65660    1.000
    C2852    C        0.37810    0.08620    0.66390    1.000
    C2853    C        0.36720    0.06360    0.66800    1.000
    C2854    C        0.38740    0.04090    0.67130    1.000
    C2855    C        0.46336    0.88717    0.74656    1.000
    C2856    C        0.46970    0.86084    0.74650    1.000
    C2857    C        0.49190    0.85133    0.76142    1.000
    C2858    C        0.50770    0.86820    0.77641    1.000
    C2859    C        0.50130    0.89450    0.77647    1.000
    C2860    C        0.47918    0.90400    0.76155    1.000
    C2861    C        0.39150    0.98469    0.76000    1.000
    C2862    C        0.40870    0.96322    0.76490    1.000
    C2863    C        0.41280    0.95491    0.78937    1.000
    C2864    C        0.39970    0.96810    0.80900    1.000
    C2865    C        0.38250    0.98950    0.80420    1.000
    C2866    C        0.37830    0.99780    0.77970    1.000
    C2867    C        0.32500    0.93861    0.74610    1.000
    C2868    C        0.32770    0.94885    0.77010    1.000
    C2869    C        0.30400    0.96032    0.78160    1.000
    C2870    C        0.27770    0.96156    0.76920    1.000
    C2871    C        0.27500    0.95133    0.74530    1.000
    C2872    C        0.29870    0.93985    0.73370    1.000
    C2873    C        0.54390    0.85180    0.62830    1.000
    C2874    C        0.54140    0.87310    0.64410    1.000
    C2875    C        0.56420    0.87980    0.65970    1.000
    C2876    C        0.58930    0.86510    0.65970    1.000
    C2877    C        0.59180    0.84380    0.64390    1.000
    C2878    C        0.56900    0.83710    0.62830    1.000
    C2879    C        0.36630    0.94830    0.48960    1.000
    C2880    C        0.37560    0.97070    0.50170    1.000
    C2881    C        0.38500    0.99280    0.48460    1.000
    C2882    C        0.38290    0.99150    0.45920    1.000
    C2883    C        0.37390    0.96900    0.44950    1.000
    C2884    C        0.36300    0.94740    0.46460    1.000
    C2885    C        0.27650    0.93940    0.47760    1.000
    C2886    C        0.26430    0.95100    0.45720    1.000
    C2887    C        0.26470    0.93770    0.43280    1.000
    C2888    C        0.27570    0.91140    0.43100    1.000
    C2889    C        0.28470    0.89830    0.45480    1.000
    C2890    C        0.28630    0.91350    0.47610    1.000
    C2891    C        0.24980    0.97100    0.64710    1.000
    C2892    C        0.24100    0.99620    0.65230    1.000
    C2893    C        0.21850    0.00060    0.66900    1.000
    C2894    C        0.20480    0.97980    0.68040    1.000
    C2895    C        0.21360    0.95460    0.67520    1.000
    C2896    C        0.23600    0.95020    0.65850    1.000
    C2897    C        0.19670    0.88030    0.53350    1.000
    C2898    C        0.17450    0.87090    0.51700    1.000
    C2899    C        0.14580    0.86450    0.52600    1.000
    C2900    C        0.14110    0.86480    0.55420    1.000
    C2901    C        0.16470    0.87550    0.57190    1.000
    C2902    C        0.19150    0.88250    0.55960    1.000
    C2903    C        0.41120    0.05990    0.75290    1.000
    C2904    C        0.40530    0.05550    0.77960    1.000
    C2905    C        0.37720    0.06290    0.78830    1.000
    C2906    C        0.35680    0.07130    0.77260    1.000
    C2907    C        0.36240    0.07660    0.74630    1.000
    C2908    C        0.39030    0.06960    0.73570    1.000
    Cd401    Cd       0.39359    0.91020    0.64600    1.000
    Cd402    Cd       0.45075    0.93212    0.59200    1.000
    Cd403    Cd       0.33586    0.89207    0.59326    1.000
    Cd404    Cd       0.39755    0.91161    0.54000    1.000
    Cd405    Cd       0.37325    0.96301    0.58957    1.000
    Cd406    Cd       0.47343    0.87532    0.64709    1.000
    Cd407    Cd       0.33212    0.88937    0.70043    1.000
    Cd408    Cd       0.31694    0.94062    0.53403    1.000
    Cd409    Cd       0.27004    0.87238    0.54745    1.000
    Cd410    Cd       0.45681    0.93222    0.69641    1.000
    Cd411    Cd       0.37381    0.95710    0.70529    1.000
    Cd412    Cd       0.31542    0.94271    0.65045    1.000
    Cd413    Cd       0.26034    0.93492    0.59424    1.000
    Cd414    Cd       0.42411    0.98504    0.64603    1.000
    S642     S        0.35401    0.92894    0.61970    1.000
    S643     S        0.41216    0.94655    0.67338    1.000
    S644     S        0.43429    0.89419    0.61930    1.000
    S645     S        0.41453    0.95020    0.56284    1.000
    S646     S        0.29554    0.91057    0.56685    1.000
    S647     S        0.38561    0.00177    0.61749    1.000
    S648     S        0.29239    0.90897    0.67642    1.000
    S649     S        0.44013    0.89086    0.51721    1.000
    S650     S        0.35703    0.92094    0.50834    1.000
    S651     S        0.32843    0.97646    0.56476    1.000
    S652     S        0.49772    0.91467    0.57331    1.000
    S653     S        0.46768    0.96362    0.62614    1.000
    Cd415    Cd       0.23135    0.93955    0.52404    1.000
    Cd416    Cd       0.43875    0.00789    0.71802    1.000
    S654     S        0.27764    0.95763    0.50537    1.000
    S655     S        0.47359    0.97024    0.72369    1.000
    S656     S        0.34002    0.97937    0.67458    1.000
    S657     S        0.49641    0.91405    0.66949    1.000
    S658     S        0.50776    0.85729    0.61368    1.000
    S659     S        0.22958    0.88993    0.52151    1.000
    S660     S        0.38874    0.99521    0.73175    1.000
    S661     S        0.27789    0.96764    0.62500    1.000
    S662     S        0.44273    0.02229    0.67238    1.000
    S663     S        0.35690    0.91950    0.73162    1.000
    S664     S        0.22210    0.95679    0.56713    1.000
    S665     S        0.43370    0.89989    0.72629    1.000
    S666     S        0.44488    0.05085    0.74018    1.000
    C2909    C        0.31360    0.00160    0.69380    1.000
    C2910    C        0.29510    0.02410    0.72910    1.000
    C2911    C        0.31630    0.00890    0.71840    1.000
    C2912    C        0.29850    0.98330    0.70660    1.000
    C2913    C        0.00510    0.47960    0.70900    1.000
    C2914    C        0.03010    0.48330    0.72330    1.000
    C2915    C        0.05690    0.48870    0.71250    1.000
    C2916    C        0.05850    0.49270    0.68690    1.000
    C2917    C        0.03490    0.49010    0.67200    1.000
    C2918    C        0.00880    0.48230    0.68300    1.000
    C2919    C        0.73160    0.49040    0.56560    1.000
    C2920    C        0.73270    0.50420    0.54320    1.000
    C2921    C        0.73870    0.53210    0.54310    1.000
    C2922    C        0.74250    0.54550    0.56330    1.000
    C2923    C        0.74080    0.53060    0.58480    1.000
    C2924    C        0.73460    0.50420    0.58590    1.000
    C2925    C        0.83830    0.50440    0.54920    1.000
    C2926    C        0.86480    0.51470    0.54670    1.000
    C2927    C        0.87390    0.53960    0.53350    1.000
    C2928    C        0.85190    0.55020    0.52110    1.000
    C2929    C        0.82270    0.54380    0.52460    1.000
    C2930    C        0.81610    0.52280    0.53950    1.000
    C2931    C        0.02110    0.40290    0.69180    1.000
    C2932    C        0.04400    0.42020    0.69750    1.000
    C2933    C        0.06470    0.41130    0.71480    1.000
    C2934    C        0.06360    0.38500    0.72650    1.000
    C2935    C        0.04000    0.36910    0.72100    1.000
    C2936    C        0.01870    0.37830    0.70260    1.000
    C2937    C        0.99330    0.48540    0.61260    1.000
    C2938    C        0.99030    0.51000    0.61850    1.000
    C2939    C        0.01330    0.52800    0.60820    1.000
    C2940    C        0.03520    0.51680    0.59150    1.000
    C2941    C        0.04030    0.48930    0.59110    1.000
    C2942    C        0.01840    0.47360    0.60600    1.000
    C2943    C        0.00970    0.43660    0.55130    1.000
    C2944    C        0.99440    0.45530    0.54160    1.000
    C2945    C        0.00560    0.47410    0.52630    1.000
    C2946    C        0.03500    0.47210    0.51710    1.000
    C2947    C        0.05360    0.45350    0.52770    1.000
    C2948    C        0.03970    0.43450    0.54590    1.000
    C2949    C        0.95540    0.41540    0.49700    1.000
    C2950    C        0.94160    0.43790    0.49160    1.000
    C2951    C        0.95340    0.45640    0.47640    1.000
    C2952    C        0.98040    0.45130    0.46460    1.000
    C2953    C        0.99250    0.42810    0.46930    1.000
    C2954    C        0.98310    0.41400    0.48700    1.000
    C2955    C        0.90590    0.52400    0.59840    1.000
    C2956    C        0.92750    0.51580    0.58300    1.000
    C2957    C        0.94440    0.53360    0.56650    1.000
    C2958    C        0.93630    0.56200    0.56890    1.000
    C2959    C        0.91060    0.56860    0.58580    1.000
    C2960    C        0.89730    0.54940    0.60250    1.000
    C2961    C        0.91530    0.54730    0.66820    1.000
    C2962    C        0.92800    0.57170    0.66170    1.000
    C2963    C        0.90600    0.58910    0.65660    1.000
    C2964    C        0.87810    0.58620    0.66390    1.000
    C2965    C        0.86720    0.56360    0.66800    1.000
    C2966    C        0.88740    0.54090    0.67130    1.000
    C2967    C        0.96336    0.38717    0.74656    1.000
    C2968    C        0.96970    0.36084    0.74650    1.000
    C2969    C        0.99190    0.35133    0.76142    1.000
    C2970    C        0.00770    0.36820    0.77641    1.000
    C2971    C        0.00130    0.39450    0.77647    1.000
    C2972    C        0.97918    0.40400    0.76155    1.000
    C2973    C        0.89150    0.48469    0.76000    1.000
    C2974    C        0.90870    0.46322    0.76490    1.000
    C2975    C        0.91280    0.45491    0.78937    1.000
    C2976    C        0.89970    0.46810    0.80900    1.000
    C2977    C        0.88250    0.48950    0.80420    1.000
    C2978    C        0.87830    0.49780    0.77970    1.000
    C2979    C        0.82500    0.43861    0.74610    1.000
    C2980    C        0.82770    0.44885    0.77010    1.000
    C2981    C        0.80400    0.46032    0.78160    1.000
    C2982    C        0.77770    0.46156    0.76920    1.000
    C2983    C        0.77500    0.45133    0.74530    1.000
    C2984    C        0.79870    0.43985    0.73370    1.000
    C2985    C        0.04390    0.35180    0.62830    1.000
    C2986    C        0.04140    0.37310    0.64410    1.000
    C2987    C        0.06420    0.37980    0.65970    1.000
    C2988    C        0.08930    0.36510    0.65970    1.000
    C2989    C        0.09180    0.34380    0.64390    1.000
    C2990    C        0.06900    0.33710    0.62830    1.000
    C2991    C        0.86630    0.44830    0.48960    1.000
    C2992    C        0.87560    0.47070    0.50170    1.000
    C2993    C        0.88500    0.49280    0.48460    1.000
    C2994    C        0.88290    0.49150    0.45920    1.000
    C2995    C        0.87390    0.46900    0.44950    1.000
    C2996    C        0.86300    0.44740    0.46460    1.000
    C2997    C        0.77650    0.43940    0.47760    1.000
    C2998    C        0.76430    0.45100    0.45720    1.000
    C2999    C        0.76470    0.43770    0.43280    1.000
    C3000    C        0.77570    0.41140    0.43100    1.000
    C3001    C        0.78470    0.39830    0.45480    1.000
    C3002    C        0.78630    0.41350    0.47610    1.000
    C3003    C        0.74980    0.47100    0.64710    1.000
    C3004    C        0.74100    0.49620    0.65230    1.000
    C3005    C        0.71850    0.50060    0.66900    1.000
    C3006    C        0.70480    0.47980    0.68040    1.000
    C3007    C        0.71360    0.45460    0.67520    1.000
    C3008    C        0.73600    0.45020    0.65850    1.000
    C3009    C        0.69670    0.38030    0.53350    1.000
    C3010    C        0.67450    0.37090    0.51700    1.000
    C3011    C        0.64580    0.36450    0.52600    1.000
    C3012    C        0.64110    0.36480    0.55420    1.000
    C3013    C        0.66470    0.37550    0.57190    1.000
    C3014    C        0.69150    0.38250    0.55960    1.000
    C3015    C        0.91120    0.55990    0.75290    1.000
    C3016    C        0.90530    0.55550    0.77960    1.000
    C3017    C        0.87720    0.56290    0.78830    1.000
    C3018    C        0.85680    0.57130    0.77260    1.000
    C3019    C        0.86240    0.57660    0.74630    1.000
    C3020    C        0.89030    0.56960    0.73570    1.000
    Cd417    Cd       0.89359    0.41020    0.64600    1.000
    Cd418    Cd       0.95075    0.43212    0.59200    1.000
    Cd419    Cd       0.83586    0.39207    0.59326    1.000
    Cd420    Cd       0.89755    0.41161    0.54000    1.000
    Cd421    Cd       0.87325    0.46301    0.58957    1.000
    Cd422    Cd       0.97343    0.37532    0.64709    1.000
    Cd423    Cd       0.83212    0.38937    0.70043    1.000
    Cd424    Cd       0.81694    0.44062    0.53403    1.000
    Cd425    Cd       0.77004    0.37238    0.54745    1.000
    Cd426    Cd       0.95681    0.43222    0.69641    1.000
    Cd427    Cd       0.87381    0.45710    0.70529    1.000
    Cd428    Cd       0.81542    0.44271    0.65045    1.000
    Cd429    Cd       0.76034    0.43492    0.59424    1.000
    Cd430    Cd       0.92411    0.48504    0.64603    1.000
    S667     S        0.85401    0.42894    0.61970    1.000
    S668     S        0.91216    0.44655    0.67338    1.000
    S669     S        0.93429    0.39419    0.61930    1.000
    S670     S        0.91453    0.45020    0.56284    1.000
    S671     S        0.79554    0.41057    0.56685    1.000
    S672     S        0.88561    0.50177    0.61749    1.000
    S673     S        0.79239    0.40897    0.67642    1.000
    S674     S        0.94013    0.39086    0.51721    1.000
    S675     S        0.85703    0.42094    0.50834    1.000
    S676     S        0.82843    0.47646    0.56476    1.000
    S677     S        0.99772    0.41467    0.57331    1.000
    S678     S        0.96768    0.46362    0.62614    1.000
    Cd431    Cd       0.73135    0.43955    0.52404    1.000
    Cd432    Cd       0.93875    0.50789    0.71802    1.000
    S679     S        0.77764    0.45763    0.50537    1.000
    S680     S        0.97359    0.47024    0.72369    1.000
    S681     S        0.84002    0.47937    0.67458    1.000
    S682     S        0.99641    0.41405    0.66949    1.000
    S683     S        0.00776    0.35729    0.61368    1.000
    S684     S        0.72958    0.38993    0.52151    1.000
    S685     S        0.88874    0.49521    0.73175    1.000
    S686     S        0.77789    0.46764    0.62500    1.000
    S687     S        0.94273    0.52229    0.67238    1.000
    S688     S        0.85690    0.41950    0.73162    1.000
    S689     S        0.72210    0.45679    0.56713    1.000
    S690     S        0.93370    0.39989    0.72629    1.000
    S691     S        0.94488    0.55085    0.74018    1.000
    C3021    C        0.81360    0.50160    0.69380    1.000
    C3022    C        0.79510    0.52410    0.72910    1.000
    C3023    C        0.81630    0.50890    0.71840    1.000
    C3024    C        0.79850    0.48330    0.70660    1.000
    C3025    C        0.00510    0.97960    0.20900    1.000
    C3026    C        0.03010    0.98330    0.22330    1.000
    C3027    C        0.05690    0.98870    0.21250    1.000
    C3028    C        0.05850    0.99270    0.18690    1.000
    C3029    C        0.03490    0.99010    0.17200    1.000
    C3030    C        0.00880    0.98230    0.18300    1.000
    C3031    C        0.73160    0.99040    0.06560    1.000
    C3032    C        0.73270    0.00420    0.04320    1.000
    C3033    C        0.73870    0.03210    0.04310    1.000
    C3034    C        0.74250    0.04550    0.06330    1.000
    C3035    C        0.74080    0.03060    0.08480    1.000
    C3036    C        0.73460    0.00420    0.08590    1.000
    C3037    C        0.83830    0.00440    0.04920    1.000
    C3038    C        0.86480    0.01470    0.04670    1.000
    C3039    C        0.87390    0.03960    0.03350    1.000
    C3040    C        0.85190    0.05020    0.02110    1.000
    C3041    C        0.82270    0.04380    0.02460    1.000
    C3042    C        0.81610    0.02280    0.03950    1.000
    C3043    C        0.02110    0.90290    0.19180    1.000
    C3044    C        0.04400    0.92020    0.19750    1.000
    C3045    C        0.06470    0.91130    0.21480    1.000
    C3046    C        0.06360    0.88500    0.22650    1.000
    C3047    C        0.04000    0.86910    0.22100    1.000
    C3048    C        0.01870    0.87830    0.20260    1.000
    C3049    C        0.99330    0.98540    0.11260    1.000
    C3050    C        0.99030    0.01000    0.11850    1.000
    C3051    C        0.01330    0.02800    0.10820    1.000
    C3052    C        0.03520    0.01680    0.09150    1.000
    C3053    C        0.04030    0.98930    0.09110    1.000
    C3054    C        0.01840    0.97360    0.10600    1.000
    C3055    C        0.00970    0.93660    0.05130    1.000
    C3056    C        0.99440    0.95530    0.04160    1.000
    C3057    C        0.00560    0.97410    0.02630    1.000
    C3058    C        0.03500    0.97210    0.01710    1.000
    C3059    C        0.05360    0.95350    0.02770    1.000
    C3060    C        0.03970    0.93450    0.04590    1.000
    C3061    C        0.95540    0.91540    0.99700    1.000
    C3062    C        0.94160    0.93790    0.99160    1.000
    C3063    C        0.95340    0.95640    0.97640    1.000
    C3064    C        0.98040    0.95130    0.96460    1.000
    C3065    C        0.99250    0.92810    0.96930    1.000
    C3066    C        0.98310    0.91400    0.98700    1.000
    C3067    C        0.90590    0.02400    0.09840    1.000
    C3068    C        0.92750    0.01580    0.08300    1.000
    C3069    C        0.94440    0.03360    0.06650    1.000
    C3070    C        0.93630    0.06200    0.06890    1.000
    C3071    C        0.91060    0.06860    0.08580    1.000
    C3072    C        0.89730    0.04940    0.10250    1.000
    C3073    C        0.91530    0.04730    0.16820    1.000
    C3074    C        0.92800    0.07170    0.16170    1.000
    C3075    C        0.90600    0.08910    0.15660    1.000
    C3076    C        0.87810    0.08620    0.16390    1.000
    C3077    C        0.86720    0.06360    0.16800    1.000
    C3078    C        0.88740    0.04090    0.17130    1.000
    C3079    C        0.96336    0.88717    0.24656    1.000
    C3080    C        0.96970    0.86084    0.24650    1.000
    C3081    C        0.99190    0.85133    0.26142    1.000
    C3082    C        0.00770    0.86820    0.27641    1.000
    C3083    C        0.00130    0.89450    0.27647    1.000
    C3084    C        0.97918    0.90400    0.26155    1.000
    C3085    C        0.89150    0.98469    0.26000    1.000
    C3086    C        0.90870    0.96322    0.26490    1.000
    C3087    C        0.91280    0.95491    0.28937    1.000
    C3088    C        0.89970    0.96810    0.30900    1.000
    C3089    C        0.88250    0.98950    0.30420    1.000
    C3090    C        0.87830    0.99780    0.27970    1.000
    C3091    C        0.82500    0.93861    0.24610    1.000
    C3092    C        0.82770    0.94885    0.27010    1.000
    C3093    C        0.80400    0.96032    0.28160    1.000
    C3094    C        0.77770    0.96156    0.26920    1.000
    C3095    C        0.77500    0.95133    0.24530    1.000
    C3096    C        0.79870    0.93985    0.23370    1.000
    C3097    C        0.04390    0.85180    0.12830    1.000
    C3098    C        0.04140    0.87310    0.14410    1.000
    C3099    C        0.06420    0.87980    0.15970    1.000
    C3100    C        0.08930    0.86510    0.15970    1.000
    C3101    C        0.09180    0.84380    0.14390    1.000
    C3102    C        0.06900    0.83710    0.12830    1.000
    C3103    C        0.86630    0.94830    0.98960    1.000
    C3104    C        0.87560    0.97070    0.00170    1.000
    C3105    C        0.88500    0.99280    0.98460    1.000
    C3106    C        0.88290    0.99150    0.95920    1.000
    C3107    C        0.87390    0.96900    0.94950    1.000
    C3108    C        0.86300    0.94740    0.96460    1.000
    C3109    C        0.77650    0.93940    0.97760    1.000
    C3110    C        0.76430    0.95100    0.95720    1.000
    C3111    C        0.76470    0.93770    0.93280    1.000
    C3112    C        0.77570    0.91140    0.93100    1.000
    C3113    C        0.78470    0.89830    0.95480    1.000
    C3114    C        0.78630    0.91350    0.97610    1.000
    C3115    C        0.74980    0.97100    0.14710    1.000
    C3116    C        0.74100    0.99620    0.15230    1.000
    C3117    C        0.71850    0.00060    0.16900    1.000
    C3118    C        0.70480    0.97980    0.18040    1.000
    C3119    C        0.71360    0.95460    0.17520    1.000
    C3120    C        0.73600    0.95020    0.15850    1.000
    C3121    C        0.69670    0.88030    0.03350    1.000
    C3122    C        0.67450    0.87090    0.01700    1.000
    C3123    C        0.64580    0.86450    0.02600    1.000
    C3124    C        0.64110    0.86480    0.05420    1.000
    C3125    C        0.66470    0.87550    0.07190    1.000
    C3126    C        0.69150    0.88250    0.05960    1.000
    C3127    C        0.91120    0.05990    0.25290    1.000
    C3128    C        0.90530    0.05550    0.27960    1.000
    C3129    C        0.87720    0.06290    0.28830    1.000
    C3130    C        0.85680    0.07130    0.27260    1.000
    C3131    C        0.86240    0.07660    0.24630    1.000
    C3132    C        0.89030    0.06960    0.23570    1.000
    Cd433    Cd       0.89359    0.91020    0.14600    1.000
    Cd434    Cd       0.95075    0.93212    0.09200    1.000
    Cd435    Cd       0.83586    0.89207    0.09326    1.000
    Cd436    Cd       0.89755    0.91161    0.04000    1.000
    Cd437    Cd       0.87325    0.96301    0.08957    1.000
    Cd438    Cd       0.97343    0.87532    0.14709    1.000
    Cd439    Cd       0.83212    0.88937    0.20043    1.000
    Cd440    Cd       0.81694    0.94062    0.03403    1.000
    Cd441    Cd       0.77004    0.87238    0.04745    1.000
    Cd442    Cd       0.95681    0.93222    0.19641    1.000
    Cd443    Cd       0.87381    0.95710    0.20529    1.000
    Cd444    Cd       0.81542    0.94271    0.15045    1.000
    Cd445    Cd       0.76034    0.93492    0.09424    1.000
    Cd446    Cd       0.92411    0.98504    0.14603    1.000
    S692     S        0.85401    0.92894    0.11970    1.000
    S693     S        0.91216    0.94655    0.17338    1.000
    S694     S        0.93429    0.89419    0.11930    1.000
    S695     S        0.91453    0.95020    0.06284    1.000
    S696     S        0.79554    0.91057    0.06685    1.000
    S697     S        0.88561    0.00177    0.11749    1.000
    S698     S        0.79239    0.90897    0.17642    1.000
    S699     S        0.94013    0.89086    0.01721    1.000
    S700     S        0.85703    0.92094    0.00834    1.000
    S701     S        0.82843    0.97646    0.06476    1.000
    S702     S        0.99772    0.91467    0.07331    1.000
    S703     S        0.96768    0.96362    0.12614    1.000
    Cd447    Cd       0.73135    0.93955    0.02404    1.000
    Cd448    Cd       0.93875    0.00789    0.21802    1.000
    S704     S        0.77764    0.95763    0.00537    1.000
    S705     S        0.97359    0.97024    0.22369    1.000
    S706     S        0.84002    0.97937    0.17458    1.000
    S707     S        0.99641    0.91405    0.16949    1.000
    S708     S        0.00776    0.85729    0.11368    1.000
    S709     S        0.72958    0.88993    0.02151    1.000
    S710     S        0.88874    0.99521    0.23175    1.000
    S711     S        0.77789    0.96764    0.12500    1.000
    S712     S        0.94273    0.02229    0.17238    1.000
    S713     S        0.85690    0.91950    0.23162    1.000
    S714     S        0.72210    0.95679    0.06713    1.000
    S715     S        0.93370    0.89989    0.22629    1.000
    S716     S        0.94488    0.05085    0.24018    1.000
    C3133    C        0.81360    0.00160    0.19380    1.000
    C3134    C        0.79510    0.02410    0.22910    1.000
    C3135    C        0.81630    0.00890    0.21840    1.000
    C3136    C        0.79850    0.98330    0.20660    1.000
    C3137    C        0.74490    0.77040    0.20900    1.000
    C3138    C        0.71990    0.76670    0.22330    1.000
    C3139    C        0.69310    0.76130    0.21250    1.000
    C3140    C        0.69150    0.75730    0.18690    1.000
    C3141    C        0.71510    0.75990    0.17200    1.000
    C3142    C        0.74120    0.76770    0.18300    1.000
    C3143    C        0.01840    0.75960    0.06560    1.000
    C3144    C        0.01730    0.74580    0.04320    1.000
    C3145    C        0.01130    0.71790    0.04310    1.000
    C3146    C        0.00750    0.70450    0.06330    1.000
    C3147    C        0.00920    0.71940    0.08480    1.000
    C3148    C        0.01540    0.74580    0.08590    1.000
    C3149    C        0.91170    0.74560    0.04920    1.000
    C3150    C        0.88520    0.73530    0.04670    1.000
    C3151    C        0.87610    0.71040    0.03350    1.000
    C3152    C        0.89810    0.69980    0.02110    1.000
    C3153    C        0.92730    0.70620    0.02460    1.000
    C3154    C        0.93390    0.72720    0.03950    1.000
    C3155    C        0.72890    0.84710    0.19180    1.000
    C3156    C        0.70600    0.82980    0.19750    1.000
    C3157    C        0.68530    0.83870    0.21480    1.000
    C3158    C        0.68640    0.86500    0.22650    1.000
    C3159    C        0.71000    0.88090    0.22100    1.000
    C3160    C        0.73130    0.87170    0.20260    1.000
    C3161    C        0.75670    0.76460    0.11260    1.000
    C3162    C        0.75970    0.74000    0.11850    1.000
    C3163    C        0.73670    0.72200    0.10820    1.000
    C3164    C        0.71480    0.73320    0.09150    1.000
    C3165    C        0.70970    0.76070    0.09110    1.000
    C3166    C        0.73160    0.77640    0.10600    1.000
    C3167    C        0.74030    0.81340    0.05130    1.000
    C3168    C        0.75560    0.79470    0.04160    1.000
    C3169    C        0.74440    0.77590    0.02630    1.000
    C3170    C        0.71500    0.77790    0.01710    1.000
    C3171    C        0.69640    0.79650    0.02770    1.000
    C3172    C        0.71030    0.81550    0.04590    1.000
    C3173    C        0.79460    0.83460    0.99700    1.000
    C3174    C        0.80840    0.81210    0.99160    1.000
    C3175    C        0.79660    0.79360    0.97640    1.000
    C3176    C        0.76960    0.79870    0.96460    1.000
    C3177    C        0.75750    0.82190    0.96930    1.000
    C3178    C        0.76690    0.83600    0.98700    1.000
    C3179    C        0.84410    0.72600    0.09840    1.000
    C3180    C        0.82250    0.73420    0.08300    1.000
    C3181    C        0.80560    0.71640    0.06650    1.000
    C3182    C        0.81370    0.68800    0.06890    1.000
    C3183    C        0.83940    0.68140    0.08580    1.000
    C3184    C        0.85270    0.70060    0.10250    1.000
    C3185    C        0.83470    0.70270    0.16820    1.000
    C3186    C        0.82200    0.67830    0.16170    1.000
    C3187    C        0.84400    0.66090    0.15660    1.000
    C3188    C        0.87190    0.66380    0.16390    1.000
    C3189    C        0.88280    0.68640    0.16800    1.000
    C3190    C        0.86260    0.70910    0.17130    1.000
    C3191    C        0.78664    0.86283    0.24656    1.000
    C3192    C        0.78030    0.88916    0.24650    1.000
    C3193    C        0.75810    0.89867    0.26142    1.000
    C3194    C        0.74230    0.88180    0.27641    1.000
    C3195    C        0.74870    0.85550    0.27647    1.000
    C3196    C        0.77082    0.84600    0.26155    1.000
    C3197    C        0.85850    0.76531    0.26000    1.000
    C3198    C        0.84130    0.78678    0.26490    1.000
    C3199    C        0.83720    0.79509    0.28937    1.000
    C3200    C        0.85030    0.78190    0.30900    1.000
    C3201    C        0.86750    0.76050    0.30420    1.000
    C3202    C        0.87170    0.75220    0.27970    1.000
    C3203    C        0.92500    0.81139    0.24610    1.000
    C3204    C        0.92230    0.80115    0.27010    1.000
    C3205    C        0.94600    0.78968    0.28160    1.000
    C3206    C        0.97230    0.78844    0.26920    1.000
    C3207    C        0.97500    0.79867    0.24530    1.000
    C3208    C        0.95130    0.81015    0.23370    1.000
    C3209    C        0.70610    0.89820    0.12830    1.000
    C3210    C        0.70860    0.87690    0.14410    1.000
    C3211    C        0.68580    0.87020    0.15970    1.000
    C3212    C        0.66070    0.88490    0.15970    1.000
    C3213    C        0.65820    0.90620    0.14390    1.000
    C3214    C        0.68100    0.91290    0.12830    1.000
    C3215    C        0.88370    0.80170    0.98960    1.000
    C3216    C        0.87440    0.77930    0.00170    1.000
    C3217    C        0.86500    0.75720    0.98460    1.000
    C3218    C        0.86710    0.75850    0.95920    1.000
    C3219    C        0.87610    0.78100    0.94950    1.000
    C3220    C        0.88700    0.80260    0.96460    1.000
    C3221    C        0.97350    0.81060    0.97760    1.000
    C3222    C        0.98570    0.79900    0.95720    1.000
    C3223    C        0.98530    0.81230    0.93280    1.000
    C3224    C        0.97430    0.83860    0.93100    1.000
    C3225    C        0.96530    0.85170    0.95480    1.000
    C3226    C        0.96370    0.83650    0.97610    1.000
    C3227    C        0.00020    0.77900    0.14710    1.000
    C3228    C        0.00900    0.75380    0.15230    1.000
    C3229    C        0.03150    0.74940    0.16900    1.000
    C3230    C        0.04520    0.77020    0.18040    1.000
    C3231    C        0.03640    0.79540    0.17520    1.000
    C3232    C        0.01400    0.79980    0.15850    1.000
    C3233    C        0.05330    0.86970    0.03350    1.000
    C3234    C        0.07550    0.87910    0.01700    1.000
    C3235    C        0.10420    0.88550    0.02600    1.000
    C3236    C        0.10890    0.88520    0.05420    1.000
    C3237    C        0.08530    0.87450    0.07190    1.000
    C3238    C        0.05850    0.86750    0.05960    1.000
    C3239    C        0.83880    0.69010    0.25290    1.000
    C3240    C        0.84470    0.69450    0.27960    1.000
    C3241    C        0.87280    0.68710    0.28830    1.000
    C3242    C        0.89320    0.67870    0.27260    1.000
    C3243    C        0.88760    0.67340    0.24630    1.000
    C3244    C        0.85970    0.68040    0.23570    1.000
    Cd449    Cd       0.85641    0.83980    0.14600    1.000
    Cd450    Cd       0.79925    0.81788    0.09200    1.000
    Cd451    Cd       0.91414    0.85793    0.09326    1.000
    Cd452    Cd       0.85245    0.83839    0.04000    1.000
    Cd453    Cd       0.87675    0.78699    0.08957    1.000
    Cd454    Cd       0.77657    0.87468    0.14709    1.000
    Cd455    Cd       0.91788    0.86063    0.20043    1.000
    Cd456    Cd       0.93306    0.80938    0.03403    1.000
    Cd457    Cd       0.97996    0.87762    0.04745    1.000
    Cd458    Cd       0.79319    0.81778    0.19641    1.000
    Cd459    Cd       0.87619    0.79290    0.20529    1.000
    Cd460    Cd       0.93458    0.80729    0.15045    1.000
    Cd461    Cd       0.98966    0.81508    0.09424    1.000
    Cd462    Cd       0.82589    0.76496    0.14603    1.000
    S717     S        0.89599    0.82106    0.11970    1.000
    S718     S        0.83784    0.80345    0.17338    1.000
    S719     S        0.81571    0.85581    0.11930    1.000
    S720     S        0.83547    0.79980    0.06284    1.000
    S721     S        0.95446    0.83943    0.06685    1.000
    S722     S        0.86439    0.74823    0.11749    1.000
    S723     S        0.95761    0.84103    0.17642    1.000
    S724     S        0.80987    0.85914    0.01721    1.000
    S725     S        0.89297    0.82906    0.00834    1.000
    S726     S        0.92157    0.77354    0.06476    1.000
    S727     S        0.75228    0.83533    0.07331    1.000
    S728     S        0.78232    0.78638    0.12614    1.000
    Cd463    Cd       0.01865    0.81045    0.02404    1.000
    Cd464    Cd       0.81125    0.74211    0.21802    1.000
    S729     S        0.97236    0.79237    0.00537    1.000
    S730     S        0.77641    0.77976    0.22369    1.000
    S731     S        0.90998    0.77063    0.17458    1.000
    S732     S        0.75359    0.83595    0.16949    1.000
    S733     S        0.74224    0.89271    0.11368    1.000
    S734     S        0.02042    0.86007    0.02151    1.000
    S735     S        0.86126    0.75479    0.23175    1.000
    S736     S        0.97211    0.78236    0.12500    1.000
    S737     S        0.80727    0.72771    0.17238    1.000
    S738     S        0.89310    0.83050    0.23162    1.000
    S739     S        0.02790    0.79321    0.06713    1.000
    S740     S        0.81630    0.85011    0.22629    1.000
    S741     S        0.80512    0.69915    0.24018    1.000
    C3245    C        0.93640    0.74840    0.19380    1.000
    C3246    C        0.95490    0.72590    0.22910    1.000
    C3247    C        0.93370    0.74110    0.21840    1.000
    C3248    C        0.95150    0.76670    0.20660    1.000
    C3249    C        0.74490    0.27040    0.70900    1.000
    C3250    C        0.71990    0.26670    0.72330    1.000
    C3251    C        0.69310    0.26130    0.71250    1.000
    C3252    C        0.69150    0.25730    0.68690    1.000
    C3253    C        0.71510    0.25990    0.67200    1.000
    C3254    C        0.74120    0.26770    0.68300    1.000
    C3255    C        0.01840    0.25960    0.56560    1.000
    C3256    C        0.01730    0.24580    0.54320    1.000
    C3257    C        0.01130    0.21790    0.54310    1.000
    C3258    C        0.00750    0.20450    0.56330    1.000
    C3259    C        0.00920    0.21940    0.58480    1.000
    C3260    C        0.01540    0.24580    0.58590    1.000
    C3261    C        0.91170    0.24560    0.54920    1.000
    C3262    C        0.88520    0.23530    0.54670    1.000
    C3263    C        0.87610    0.21040    0.53350    1.000
    C3264    C        0.89810    0.19980    0.52110    1.000
    C3265    C        0.92730    0.20620    0.52460    1.000
    C3266    C        0.93390    0.22720    0.53950    1.000
    C3267    C        0.72890    0.34710    0.69180    1.000
    C3268    C        0.70600    0.32980    0.69750    1.000
    C3269    C        0.68530    0.33870    0.71480    1.000
    C3270    C        0.68640    0.36500    0.72650    1.000
    C3271    C        0.71000    0.38090    0.72100    1.000
    C3272    C        0.73130    0.37170    0.70260    1.000
    C3273    C        0.75670    0.26460    0.61260    1.000
    C3274    C        0.75970    0.24000    0.61850    1.000
    C3275    C        0.73670    0.22200    0.60820    1.000
    C3276    C        0.71480    0.23320    0.59150    1.000
    C3277    C        0.70970    0.26070    0.59110    1.000
    C3278    C        0.73160    0.27640    0.60600    1.000
    C3279    C        0.74030    0.31340    0.55130    1.000
    C3280    C        0.75560    0.29470    0.54160    1.000
    C3281    C        0.74440    0.27590    0.52630    1.000
    C3282    C        0.71500    0.27790    0.51710    1.000
    C3283    C        0.69640    0.29650    0.52770    1.000
    C3284    C        0.71030    0.31550    0.54590    1.000
    C3285    C        0.79460    0.33460    0.49700    1.000
    C3286    C        0.80840    0.31210    0.49160    1.000
    C3287    C        0.79660    0.29360    0.47640    1.000
    C3288    C        0.76960    0.29870    0.46460    1.000
    C3289    C        0.75750    0.32190    0.46930    1.000
    C3290    C        0.76690    0.33600    0.48700    1.000
    C3291    C        0.84410    0.22600    0.59840    1.000
    C3292    C        0.82250    0.23420    0.58300    1.000
    C3293    C        0.80560    0.21640    0.56650    1.000
    C3294    C        0.81370    0.18800    0.56890    1.000
    C3295    C        0.83940    0.18140    0.58580    1.000
    C3296    C        0.85270    0.20060    0.60250    1.000
    C3297    C        0.83470    0.20270    0.66820    1.000
    C3298    C        0.82200    0.17830    0.66170    1.000
    C3299    C        0.84400    0.16090    0.65660    1.000
    C3300    C        0.87190    0.16380    0.66390    1.000
    C3301    C        0.88280    0.18640    0.66800    1.000
    C3302    C        0.86260    0.20910    0.67130    1.000
    C3303    C        0.78664    0.36283    0.74656    1.000
    C3304    C        0.78030    0.38916    0.74650    1.000
    C3305    C        0.75810    0.39867    0.76142    1.000
    C3306    C        0.74230    0.38180    0.77641    1.000
    C3307    C        0.74870    0.35550    0.77647    1.000
    C3308    C        0.77082    0.34600    0.76155    1.000
    C3309    C        0.85850    0.26531    0.76000    1.000
    C3310    C        0.84130    0.28678    0.76490    1.000
    C3311    C        0.83720    0.29509    0.78937    1.000
    C3312    C        0.85030    0.28190    0.80900    1.000
    C3313    C        0.86750    0.26050    0.80420    1.000
    C3314    C        0.87170    0.25220    0.77970    1.000
    C3315    C        0.92500    0.31139    0.74610    1.000
    C3316    C        0.92230    0.30115    0.77010    1.000
    C3317    C        0.94600    0.28968    0.78160    1.000
    C3318    C        0.97230    0.28844    0.76920    1.000
    C3319    C        0.97500    0.29867    0.74530    1.000
    C3320    C        0.95130    0.31015    0.73370    1.000
    C3321    C        0.70610    0.39820    0.62830    1.000
    C3322    C        0.70860    0.37690    0.64410    1.000
    C3323    C        0.68580    0.37020    0.65970    1.000
    C3324    C        0.66070    0.38490    0.65970    1.000
    C3325    C        0.65820    0.40620    0.64390    1.000
    C3326    C        0.68100    0.41290    0.62830    1.000
    C3327    C        0.88370    0.30170    0.48960    1.000
    C3328    C        0.87440    0.27930    0.50170    1.000
    C3329    C        0.86500    0.25720    0.48460    1.000
    C3330    C        0.86710    0.25850    0.45920    1.000
    C3331    C        0.87610    0.28100    0.44950    1.000
    C3332    C        0.88700    0.30260    0.46460    1.000
    C3333    C        0.97350    0.31060    0.47760    1.000
    C3334    C        0.98570    0.29900    0.45720    1.000
    C3335    C        0.98530    0.31230    0.43280    1.000
    C3336    C        0.97430    0.33860    0.43100    1.000
    C3337    C        0.96530    0.35170    0.45480    1.000
    C3338    C        0.96370    0.33650    0.47610    1.000
    C3339    C        0.00020    0.27900    0.64710    1.000
    C3340    C        0.00900    0.25380    0.65230    1.000
    C3341    C        0.03150    0.24940    0.66900    1.000
    C3342    C        0.04520    0.27020    0.68040    1.000
    C3343    C        0.03640    0.29540    0.67520    1.000
    C3344    C        0.01400    0.29980    0.65850    1.000
    C3345    C        0.05330    0.36970    0.53350    1.000
    C3346    C        0.07550    0.37910    0.51700    1.000
    C3347    C        0.10420    0.38550    0.52600    1.000
    C3348    C        0.10890    0.38520    0.55420    1.000
    C3349    C        0.08530    0.37450    0.57190    1.000
    C3350    C        0.05850    0.36750    0.55960    1.000
    C3351    C        0.83880    0.19010    0.75290    1.000
    C3352    C        0.84470    0.19450    0.77960    1.000
    C3353    C        0.87280    0.18710    0.78830    1.000
    C3354    C        0.89320    0.17870    0.77260    1.000
    C3355    C        0.88760    0.17340    0.74630    1.000
    C3356    C        0.85970    0.18040    0.73570    1.000
    Cd465    Cd       0.85641    0.33980    0.64600    1.000
    Cd466    Cd       0.79925    0.31788    0.59200    1.000
    Cd467    Cd       0.91414    0.35793    0.59326    1.000
    Cd468    Cd       0.85245    0.33839    0.54000    1.000
    Cd469    Cd       0.87675    0.28699    0.58957    1.000
    Cd470    Cd       0.77657    0.37468    0.64709    1.000
    Cd471    Cd       0.91788    0.36063    0.70043    1.000
    Cd472    Cd       0.93306    0.30938    0.53403    1.000
    Cd473    Cd       0.97996    0.37762    0.54745    1.000
    Cd474    Cd       0.79319    0.31778    0.69641    1.000
    Cd475    Cd       0.87619    0.29290    0.70529    1.000
    Cd476    Cd       0.93458    0.30729    0.65045    1.000
    Cd477    Cd       0.98966    0.31508    0.59424    1.000
    Cd478    Cd       0.82589    0.26496    0.64603    1.000
    S742     S        0.89599    0.32106    0.61970    1.000
    S743     S        0.83784    0.30345    0.67338    1.000
    S744     S        0.81571    0.35581    0.61930    1.000
    S745     S        0.83547    0.29980    0.56284    1.000
    S746     S        0.95446    0.33943    0.56685    1.000
    S747     S        0.86439    0.24823    0.61749    1.000
    S748     S        0.95761    0.34103    0.67642    1.000
    S749     S        0.80987    0.35914    0.51721    1.000
    S750     S        0.89297    0.32906    0.50834    1.000
    S751     S        0.92157    0.27354    0.56476    1.000
    S752     S        0.75228    0.33533    0.57331    1.000
    S753     S        0.78232    0.28638    0.62614    1.000
    Cd479    Cd       0.01865    0.31045    0.52404    1.000
    Cd480    Cd       0.81125    0.24211    0.71802    1.000
    S754     S        0.97236    0.29237    0.50537    1.000
    S755     S        0.77641    0.27976    0.72369    1.000
    S756     S        0.90998    0.27063    0.67458    1.000
    S757     S        0.75359    0.33595    0.66949    1.000
    S758     S        0.74224    0.39271    0.61368    1.000
    S759     S        0.02042    0.36007    0.52151    1.000
    S760     S        0.86126    0.25479    0.73175    1.000
    S761     S        0.97211    0.28236    0.62500    1.000
    S762     S        0.80727    0.22771    0.67238    1.000
    S763     S        0.89310    0.33050    0.73162    1.000
    S764     S        0.02790    0.29321    0.56713    1.000
    S765     S        0.81630    0.35011    0.72629    1.000
    S766     S        0.80512    0.19915    0.74018    1.000
    C3357    C        0.93640    0.24840    0.69380    1.000
    C3358    C        0.95490    0.22590    0.72910    1.000
    C3359    C        0.93370    0.24110    0.71840    1.000
    C3360    C        0.95150    0.26670    0.70660    1.000
    C3361    C        0.24490    0.77040    0.70900    1.000
    C3362    C        0.21990    0.76670    0.72330    1.000
    C3363    C        0.19310    0.76130    0.71250    1.000
    C3364    C        0.19150    0.75730    0.68690    1.000
    C3365    C        0.21510    0.75990    0.67200    1.000
    C3366    C        0.24120    0.76770    0.68300    1.000
    C3367    C        0.51840    0.75960    0.56560    1.000
    C3368    C        0.51730    0.74580    0.54320    1.000
    C3369    C        0.51130    0.71790    0.54310    1.000
    C3370    C        0.50750    0.70450    0.56330    1.000
    C3371    C        0.50920    0.71940    0.58480    1.000
    C3372    C        0.51540    0.74580    0.58590    1.000
    C3373    C        0.41170    0.74560    0.54920    1.000
    C3374    C        0.38520    0.73530    0.54670    1.000
    C3375    C        0.37610    0.71040    0.53350    1.000
    C3376    C        0.39810    0.69980    0.52110    1.000
    C3377    C        0.42730    0.70620    0.52460    1.000
    C3378    C        0.43390    0.72720    0.53950    1.000
    C3379    C        0.22890    0.84710    0.69180    1.000
    C3380    C        0.20600    0.82980    0.69750    1.000
    C3381    C        0.18530    0.83870    0.71480    1.000
    C3382    C        0.18640    0.86500    0.72650    1.000
    C3383    C        0.21000    0.88090    0.72100    1.000
    C3384    C        0.23130    0.87170    0.70260    1.000
    C3385    C        0.25670    0.76460    0.61260    1.000
    C3386    C        0.25970    0.74000    0.61850    1.000
    C3387    C        0.23670    0.72200    0.60820    1.000
    C3388    C        0.21480    0.73320    0.59150    1.000
    C3389    C        0.20970    0.76070    0.59110    1.000
    C3390    C        0.23160    0.77640    0.60600    1.000
    C3391    C        0.24030    0.81340    0.55130    1.000
    C3392    C        0.25560    0.79470    0.54160    1.000
    C3393    C        0.24440    0.77590    0.52630    1.000
    C3394    C        0.21500    0.77790    0.51710    1.000
    C3395    C        0.19640    0.79650    0.52770    1.000
    C3396    C        0.21030    0.81550    0.54590    1.000
    C3397    C        0.29460    0.83460    0.49700    1.000
    C3398    C        0.30840    0.81210    0.49160    1.000
    C3399    C        0.29660    0.79360    0.47640    1.000
    C3400    C        0.26960    0.79870    0.46460    1.000
    C3401    C        0.25750    0.82190    0.46930    1.000
    C3402    C        0.26690    0.83600    0.48700    1.000
    C3403    C        0.34410    0.72600    0.59840    1.000
    C3404    C        0.32250    0.73420    0.58300    1.000
    C3405    C        0.30560    0.71640    0.56650    1.000
    C3406    C        0.31370    0.68800    0.56890    1.000
    C3407    C        0.33940    0.68140    0.58580    1.000
    C3408    C        0.35270    0.70060    0.60250    1.000
    C3409    C        0.33470    0.70270    0.66820    1.000
    C3410    C        0.32200    0.67830    0.66170    1.000
    C3411    C        0.34400    0.66090    0.65660    1.000
    C3412    C        0.37190    0.66380    0.66390    1.000
    C3413    C        0.38280    0.68640    0.66800    1.000
    C3414    C        0.36260    0.70910    0.67130    1.000
    C3415    C        0.28664    0.86283    0.74656    1.000
    C3416    C        0.28030    0.88916    0.74650    1.000
    C3417    C        0.25810    0.89867    0.76142    1.000
    C3418    C        0.24230    0.88180    0.77641    1.000
    C3419    C        0.24870    0.85550    0.77647    1.000
    C3420    C        0.27082    0.84600    0.76155    1.000
    C3421    C        0.35850    0.76531    0.76000    1.000
    C3422    C        0.34130    0.78678    0.76490    1.000
    C3423    C        0.33720    0.79509    0.78937    1.000
    C3424    C        0.35030    0.78190    0.80900    1.000
    C3425    C        0.36750    0.76050    0.80420    1.000
    C3426    C        0.37170    0.75220    0.77970    1.000
    C3427    C        0.42500    0.81139    0.74610    1.000
    C3428    C        0.42230    0.80115    0.77010    1.000
    C3429    C        0.44600    0.78968    0.78160    1.000
    C3430    C        0.47230    0.78844    0.76920    1.000
    C3431    C        0.47500    0.79867    0.74530    1.000
    C3432    C        0.45130    0.81015    0.73370    1.000
    C3433    C        0.20610    0.89820    0.62830    1.000
    C3434    C        0.20860    0.87690    0.64410    1.000
    C3435    C        0.18580    0.87020    0.65970    1.000
    C3436    C        0.16070    0.88490    0.65970    1.000
    C3437    C        0.15820    0.90620    0.64390    1.000
    C3438    C        0.18100    0.91290    0.62830    1.000
    C3439    C        0.38370    0.80170    0.48960    1.000
    C3440    C        0.37440    0.77930    0.50170    1.000
    C3441    C        0.36500    0.75720    0.48460    1.000
    C3442    C        0.36710    0.75850    0.45920    1.000
    C3443    C        0.37610    0.78100    0.44950    1.000
    C3444    C        0.38700    0.80260    0.46460    1.000
    C3445    C        0.47350    0.81060    0.47760    1.000
    C3446    C        0.48570    0.79900    0.45720    1.000
    C3447    C        0.48530    0.81230    0.43280    1.000
    C3448    C        0.47430    0.83860    0.43100    1.000
    C3449    C        0.46530    0.85170    0.45480    1.000
    C3450    C        0.46370    0.83650    0.47610    1.000
    C3451    C        0.50020    0.77900    0.64710    1.000
    C3452    C        0.50900    0.75380    0.65230    1.000
    C3453    C        0.53150    0.74940    0.66900    1.000
    C3454    C        0.54520    0.77020    0.68040    1.000
    C3455    C        0.53640    0.79540    0.67520    1.000
    C3456    C        0.51400    0.79980    0.65850    1.000
    C3457    C        0.55330    0.86970    0.53350    1.000
    C3458    C        0.57550    0.87910    0.51700    1.000
    C3459    C        0.60420    0.88550    0.52600    1.000
    C3460    C        0.60890    0.88520    0.55420    1.000
    C3461    C        0.58530    0.87450    0.57190    1.000
    C3462    C        0.55850    0.86750    0.55960    1.000
    C3463    C        0.33880    0.69010    0.75290    1.000
    C3464    C        0.34470    0.69450    0.77960    1.000
    C3465    C        0.37280    0.68710    0.78830    1.000
    C3466    C        0.39320    0.67870    0.77260    1.000
    C3467    C        0.38760    0.67340    0.74630    1.000
    C3468    C        0.35970    0.68040    0.73570    1.000
    Cd481    Cd       0.35641    0.83980    0.64600    1.000
    Cd482    Cd       0.29925    0.81788    0.59200    1.000
    Cd483    Cd       0.41414    0.85793    0.59326    1.000
    Cd484    Cd       0.35245    0.83839    0.54000    1.000
    Cd485    Cd       0.37675    0.78699    0.58957    1.000
    Cd486    Cd       0.27657    0.87468    0.64709    1.000
    Cd487    Cd       0.41788    0.86063    0.70043    1.000
    Cd488    Cd       0.43306    0.80938    0.53403    1.000
    Cd489    Cd       0.47996    0.87762    0.54745    1.000
    Cd490    Cd       0.29319    0.81778    0.69641    1.000
    Cd491    Cd       0.37619    0.79290    0.70529    1.000
    Cd492    Cd       0.43458    0.80729    0.65045    1.000
    Cd493    Cd       0.48966    0.81508    0.59424    1.000
    Cd494    Cd       0.32589    0.76496    0.64603    1.000
    S767     S        0.39599    0.82106    0.61970    1.000
    S768     S        0.33784    0.80345    0.67338    1.000
    S769     S        0.31571    0.85581    0.61930    1.000
    S770     S        0.33547    0.79980    0.56284    1.000
    S771     S        0.45446    0.83943    0.56685    1.000
    S772     S        0.36439    0.74823    0.61749    1.000
    S773     S        0.45761    0.84103    0.67642    1.000
    S774     S        0.30987    0.85914    0.51721    1.000
    S775     S        0.39297    0.82906    0.50834    1.000
    S776     S        0.42157    0.77354    0.56476    1.000
    S777     S        0.25228    0.83533    0.57331    1.000
    S778     S        0.28232    0.78638    0.62614    1.000
    Cd495    Cd       0.51865    0.81045    0.52404    1.000
    Cd496    Cd       0.31125    0.74211    0.71802    1.000
    S779     S        0.47236    0.79237    0.50537    1.000
    S780     S        0.27641    0.77976    0.72369    1.000
    S781     S        0.40998    0.77063    0.67458    1.000
    S782     S        0.25359    0.83595    0.66949    1.000
    S783     S        0.24224    0.89271    0.61368    1.000
    S784     S        0.52042    0.86007    0.52151    1.000
    S785     S        0.36126    0.75479    0.73175    1.000
    S786     S        0.47211    0.78236    0.62500    1.000
    S787     S        0.30727    0.72771    0.67238    1.000
    S788     S        0.39310    0.83050    0.73162    1.000
    S789     S        0.52790    0.79321    0.56713    1.000
    S790     S        0.31630    0.85011    0.72629    1.000
    S791     S        0.30512    0.69915    0.74018    1.000
    C3469    C        0.43640    0.74840    0.69380    1.000
    C3470    C        0.45490    0.72590    0.72910    1.000
    C3471    C        0.43370    0.74110    0.71840    1.000
    C3472    C        0.45150    0.76670    0.70660    1.000
    C3473    C        0.24490    0.27040    0.20900    1.000
    C3474    C        0.21990    0.26670    0.22330    1.000
    C3475    C        0.19310    0.26130    0.21250    1.000
    C3476    C        0.19150    0.25730    0.18690    1.000
    C3477    C        0.21510    0.25990    0.17200    1.000
    C3478    C        0.24120    0.26770    0.18300    1.000
    C3479    C        0.51840    0.25960    0.06560    1.000
    C3480    C        0.51730    0.24580    0.04320    1.000
    C3481    C        0.51130    0.21790    0.04310    1.000
    C3482    C        0.50750    0.20450    0.06330    1.000
    C3483    C        0.50920    0.21940    0.08480    1.000
    C3484    C        0.51540    0.24580    0.08590    1.000
    C3485    C        0.41170    0.24560    0.04920    1.000
    C3486    C        0.38520    0.23530    0.04670    1.000
    C3487    C        0.37610    0.21040    0.03350    1.000
    C3488    C        0.39810    0.19980    0.02110    1.000
    C3489    C        0.42730    0.20620    0.02460    1.000
    C3490    C        0.43390    0.22720    0.03950    1.000
    C3491    C        0.22890    0.34710    0.19180    1.000
    C3492    C        0.20600    0.32980    0.19750    1.000
    C3493    C        0.18530    0.33870    0.21480    1.000
    C3494    C        0.18640    0.36500    0.22650    1.000
    C3495    C        0.21000    0.38090    0.22100    1.000
    C3496    C        0.23130    0.37170    0.20260    1.000
    C3497    C        0.25670    0.26460    0.11260    1.000
    C3498    C        0.25970    0.24000    0.11850    1.000
    C3499    C        0.23670    0.22200    0.10820    1.000
    C3500    C        0.21480    0.23320    0.09150    1.000
    C3501    C        0.20970    0.26070    0.09110    1.000
    C3502    C        0.23160    0.27640    0.10600    1.000
    C3503    C        0.24030    0.31340    0.05130    1.000
    C3504    C        0.25560    0.29470    0.04160    1.000
    C3505    C        0.24440    0.27590    0.02630    1.000
    C3506    C        0.21500    0.27790    0.01710    1.000
    C3507    C        0.19640    0.29650    0.02770    1.000
    C3508    C        0.21030    0.31550    0.04590    1.000
    C3509    C        0.29460    0.33460    0.99700    1.000
    C3510    C        0.30840    0.31210    0.99160    1.000
    C3511    C        0.29660    0.29360    0.97640    1.000
    C3512    C        0.26960    0.29870    0.96460    1.000
    C3513    C        0.25750    0.32190    0.96930    1.000
    C3514    C        0.26690    0.33600    0.98700    1.000
    C3515    C        0.34410    0.22600    0.09840    1.000
    C3516    C        0.32250    0.23420    0.08300    1.000
    C3517    C        0.30560    0.21640    0.06650    1.000
    C3518    C        0.31370    0.18800    0.06890    1.000
    C3519    C        0.33940    0.18140    0.08580    1.000
    C3520    C        0.35270    0.20060    0.10250    1.000
    C3521    C        0.33470    0.20270    0.16820    1.000
    C3522    C        0.32200    0.17830    0.16170    1.000
    C3523    C        0.34400    0.16090    0.15660    1.000
    C3524    C        0.37190    0.16380    0.16390    1.000
    C3525    C        0.38280    0.18640    0.16800    1.000
    C3526    C        0.36260    0.20910    0.17130    1.000
    C3527    C        0.28664    0.36283    0.24656    1.000
    C3528    C        0.28030    0.38916    0.24650    1.000
    C3529    C        0.25810    0.39867    0.26142    1.000
    C3530    C        0.24230    0.38180    0.27641    1.000
    C3531    C        0.24870    0.35550    0.27647    1.000
    C3532    C        0.27082    0.34600    0.26155    1.000
    C3533    C        0.35850    0.26531    0.26000    1.000
    C3534    C        0.34130    0.28678    0.26490    1.000
    C3535    C        0.33720    0.29509    0.28937    1.000
    C3536    C        0.35030    0.28190    0.30900    1.000
    C3537    C        0.36750    0.26050    0.30420    1.000
    C3538    C        0.37170    0.25220    0.27970    1.000
    C3539    C        0.42500    0.31139    0.24610    1.000
    C3540    C        0.42230    0.30115    0.27010    1.000
    C3541    C        0.44600    0.28968    0.28160    1.000
    C3542    C        0.47230    0.28844    0.26920    1.000
    C3543    C        0.47500    0.29867    0.24530    1.000
    C3544    C        0.45130    0.31015    0.23370    1.000
    C3545    C        0.20610    0.39820    0.12830    1.000
    C3546    C        0.20860    0.37690    0.14410    1.000
    C3547    C        0.18580    0.37020    0.15970    1.000
    C3548    C        0.16070    0.38490    0.15970    1.000
    C3549    C        0.15820    0.40620    0.14390    1.000
    C3550    C        0.18100    0.41290    0.12830    1.000
    C3551    C        0.38370    0.30170    0.98960    1.000
    C3552    C        0.37440    0.27930    0.00170    1.000
    C3553    C        0.36500    0.25720    0.98460    1.000
    C3554    C        0.36710    0.25850    0.95920    1.000
    C3555    C        0.37610    0.28100    0.94950    1.000
    C3556    C        0.38700    0.30260    0.96460    1.000
    C3557    C        0.47350    0.31060    0.97760    1.000
    C3558    C        0.48570    0.29900    0.95720    1.000
    C3559    C        0.48530    0.31230    0.93280    1.000
    C3560    C        0.47430    0.33860    0.93100    1.000
    C3561    C        0.46530    0.35170    0.95480    1.000
    C3562    C        0.46370    0.33650    0.97610    1.000
    C3563    C        0.50020    0.27900    0.14710    1.000
    C3564    C        0.50900    0.25380    0.15230    1.000
    C3565    C        0.53150    0.24940    0.16900    1.000
    C3566    C        0.54520    0.27020    0.18040    1.000
    C3567    C        0.53640    0.29540    0.17520    1.000
    C3568    C        0.51400    0.29980    0.15850    1.000
    C3569    C        0.55330    0.36970    0.03350    1.000
    C3570    C        0.57550    0.37910    0.01700    1.000
    C3571    C        0.60420    0.38550    0.02600    1.000
    C3572    C        0.60890    0.38520    0.05420    1.000
    C3573    C        0.58530    0.37450    0.07190    1.000
    C3574    C        0.55850    0.36750    0.05960    1.000
    C3575    C        0.33880    0.19010    0.25290    1.000
    C3576    C        0.34470    0.19450    0.27960    1.000
    C3577    C        0.37280    0.18710    0.28830    1.000
    C3578    C        0.39320    0.17870    0.27260    1.000
    C3579    C        0.38760    0.17340    0.24630    1.000
    C3580    C        0.35970    0.18040    0.23570    1.000
    Cd497    Cd       0.35641    0.33980    0.14600    1.000
    Cd498    Cd       0.29925    0.31788    0.09200    1.000
    Cd499    Cd       0.41414    0.35793    0.09326    1.000
    Cd500    Cd       0.35245    0.33839    0.04000    1.000
    Cd501    Cd       0.37675    0.28699    0.08957    1.000
    Cd502    Cd       0.27657    0.37468    0.14709    1.000
    Cd503    Cd       0.41788    0.36063    0.20043    1.000
    Cd504    Cd       0.43306    0.30938    0.03403    1.000
    Cd505    Cd       0.47996    0.37762    0.04745    1.000
    Cd506    Cd       0.29319    0.31778    0.19641    1.000
    Cd507    Cd       0.37619    0.29290    0.20529    1.000
    Cd508    Cd       0.43458    0.30729    0.15045    1.000
    Cd509    Cd       0.48966    0.31508    0.09424    1.000
    Cd510    Cd       0.32589    0.26496    0.14603    1.000
    S792     S        0.39599    0.32106    0.11970    1.000
    S793     S        0.33784    0.30345    0.17338    1.000
    S794     S        0.31571    0.35581    0.11930    1.000
    S795     S        0.33547    0.29980    0.06284    1.000
    S796     S        0.45446    0.33943    0.06685    1.000
    S797     S        0.36439    0.24823    0.11749    1.000
    S798     S        0.45761    0.34103    0.17642    1.000
    S799     S        0.30987    0.35914    0.01721    1.000
    S800     S        0.39297    0.32906    0.00834    1.000
    S801     S        0.42157    0.27354    0.06476    1.000
    S802     S        0.25228    0.33533    0.07331    1.000
    S803     S        0.28232    0.28638    0.12614    1.000
    Cd511    Cd       0.51865    0.31045    0.02404    1.000
    Cd512    Cd       0.31125    0.24211    0.21802    1.000
    S804     S        0.47236    0.29237    0.00537    1.000
    S805     S        0.27641    0.27976    0.22369    1.000
    S806     S        0.40998    0.27063    0.17458    1.000
    S807     S        0.25359    0.33595    0.16949    1.000
    S808     S        0.24224    0.39271    0.11368    1.000
    S809     S        0.52042    0.36007    0.02151    1.000
    S810     S        0.36126    0.25479    0.23175    1.000
    S811     S        0.47211    0.28236    0.12500    1.000
    S812     S        0.30727    0.22771    0.17238    1.000
    S813     S        0.39310    0.33050    0.23162    1.000
    S814     S        0.52790    0.29321    0.06713    1.000
    S815     S        0.31630    0.35011    0.22629    1.000
    S816     S        0.30512    0.19915    0.24018    1.000
    C3581    C        0.43640    0.24840    0.19380    1.000
    C3582    C        0.45490    0.22590    0.22910    1.000
    C3583    C        0.43370    0.24110    0.21840    1.000
    C3584    C        0.45150    0.26670    0.20660    1.000
    S817     S        0.12500    0.62500    0.81494    1.000
    S818     S        0.12500    0.62500    0.92438    1.000
    S819     S        0.12500    0.12500    0.31494    1.000
    S820     S        0.12500    0.12500    0.42438    1.000
    S821     S        0.62500    0.62500    0.31494    1.000
    S822     S        0.62500    0.62500    0.42438    1.000
    S823     S        0.62500    0.12500    0.81494    1.000
    S824     S        0.62500    0.12500    0.92438    1.000
    S825     S        0.37500    0.37500    0.06494    1.000
    S826     S        0.37500    0.37500    0.17438    1.000
    S827     S        0.37500    0.87500    0.56494    1.000
    S828     S        0.37500    0.87500    0.67438    1.000
    S829     S        0.87500    0.87500    0.06494    1.000
    S830     S        0.87500    0.87500    0.17438    1.000
    S831     S        0.87500    0.37500    0.56494    1.000
    S832     S        0.87500    0.37500    0.67438    1.000
