data_functionalizedCrystal
_audit_creation_method	'EQeq! by Chris Wilmer'
_symmetry_space_group_name_H-M	'P1'
_symmetry_Int_Tables_number	1
_symmetry_cell_setting	triclinic
loop_
_symmetry_equiv_pos_as_xyz
  x,y,z
_cell_length_a	16.719
_cell_length_b	16.719
_cell_length_c	24.598
_cell_angle_alpha	90
_cell_angle_beta	90
_cell_angle_gamma	120
loop_
_atom_site_label
_atom_site_type_symbol
_atom_site_fract_x
_atom_site_fract_y
_atom_site_fract_z
_atom_site_charge
Mof_Co	Co	0.40788	0.68402	0.74945	1.128
Mof_Co	Co	0.49182	0.25482	0.46862	1.097
Mof_C 	C 	0.0456	0.8284	0.5595	-0.735
Mof_H 	H 	0.0998	0.8317	0.544	0.248
Mof_H 	H 	0.0513	0.8323	0.5984	0.239
Mof_H 	H 	0.0388	0.8786	0.5461	0.233
Mof_C 	C 	0.9606	0.7366	0.5436	0.279
Mof_H 	H 	0.9687	0.6873	0.5594	-0.025
Mof_C 	C 	0.8721	0.7254	0.5662	-0.2
Mof_C 	C 	0.8642	0.7915	0.59514	0.118
Mof_H 	H 	0.9177	0.8477	0.6012	-0.033
Mof_C 	C 	0.7821	0.7801	0.616	-0.207
Mof_C 	C 	0.7027	0.6953	0.60845	0.246
Mof_C 	C 	0.7055	0.6255	0.5783	-0.304
Mof_H 	H 	0.6519	0.5692	0.5725	0.136
Mof_C 	C 	0.7881	0.6416	0.5575	0.246
Mof_C 	C 	0.73	0.5298	0.4871	-0.227
Mof_H 	H 	0.762	0.5334	0.4536	0.118
Mof_H 	H 	0.6958	0.562	0.4815	0.108
Mof_C 	C 	0.6628	0.4298	0.4997	0.428
Mof_C 	C 	0.5435	0.5958	0.6317	-0.181
Mof_H 	H 	0.5599	0.5504	0.6435	0.084
Mof_H 	H 	0.52	0.5804	0.5948	0.09
Mof_C 	C 	0.4689	0.5908	0.66817	0.376
Mof_C 	C 	0.7778	0.8584	0.6457	0.299
Mof_H 	H 	0.7327	0.8301	0.6751	-0.04
Mof_C 	C 	0.8678	0.9285	0.6713	-0.759
Mof_H 	H 	0.8599	0.9751	0.6892	0.252
Mof_H 	H 	0.9142	0.9567	0.6436	0.238
Mof_H 	H 	0.8867	0.8984	0.6973	0.238
Mof_C 	C 	0.742	0.9067	0.6078	-0.198
Mof_C 	C 	0.6981	0.9505	0.6293	0.242
Mof_C 	C 	0.6681	0.9986	0.5977	-0.313
Mof_H 	H 	0.64	0.0287	0.6136	0.153
Mof_C 	C 	0.6804	0.0016	0.5422	0.242
Mof_C 	C 	0.7241	0.9567	0.5182	-0.181
Mof_C 	C 	0.7537	0.9111	0.5519	0.107
Mof_H 	H 	0.783	0.8818	0.5364	-0.003
Mof_C 	C 	0.5981	0.8817	0.7018	-0.219
Mof_H 	H 	0.5827	0.8237	0.6843	0.1
Mof_H 	H 	0.5528	0.8986	0.6908	0.086
Mof_C 	C 	0.5965	0.8708	0.7636	0.42
Mof_C 	C 	0.6095	0.092	0.5312	-0.202
Mof_H 	H 	0.6496	0.1336	0.5592	0.071
Mof_H 	H 	0.5519	0.0473	0.5482	0.094
Mof_C 	C 	0.5911	0.1459	0.4892	0.39
Mof_O 	O 	0.7962	0.5751	0.52905	-0.179
Mof_O 	O 	0.6035	0.3872	0.46352	-0.478
Mof_O 	O 	0.6726	0.3988	0.54392	-0.472
Mof_O 	O 	0.6238	0.6847	0.632	-0.198
Mof_O 	O 	0.4907	0.6524	0.70354	-0.445
Mof_O 	O 	0.3906	0.5227	0.66184	-0.352
Mof_O 	O 	0.687	0.9509	0.68565	-0.192
Mof_O 	O 	0.6558	0.9307	0.79056	-0.33
Mof_O 	O 	0.5264	0.8008	0.78277	-0.574
Mof_O 	O 	0.6517	0.0459	0.50711	-0.189
Mof_O 	O 	0.569	0.2031	0.50852	-0.561
Mof_O 	O 	0.5963	0.134	0.4407	-0.315
Mof_Co	Co	0.31598	0.72386	0.08278	1.129
Mof_Co	Co	0.74518	0.237	0.80195	1.098
Mof_C 	C 	0.1716	0.2172	0.89283	-0.733
Mof_H 	H 	0.1683	0.2681	0.87733	0.249
Mof_H 	H 	0.1677	0.219	0.93173	0.24
Mof_H 	H 	0.1214	0.1602	0.87943	0.234
Mof_C 	C 	0.2634	0.224	0.87693	0.279
Mof_H 	H 	0.3127	0.2814	0.89273	-0.025
Mof_C 	C 	0.2746	0.1467	0.89953	-0.199
Mof_C 	C 	0.2085	0.0727	0.92847	0.117
Mof_H 	H 	0.1523	0.07	0.93453	-0.032
Mof_C 	C 	0.2199	0.002	0.94933	-0.205
Mof_C 	C 	0.3047	0.0074	0.94178	0.246
Mof_C 	C 	0.3745	0.08	0.91163	-0.304
Mof_H 	H 	0.4308	0.0827	0.90583	0.136
Mof_C 	C 	0.3584	0.1465	0.89083	0.246
Mof_C 	C 	0.4702	0.2002	0.82043	-0.227
Mof_H 	H 	0.4666	0.2286	0.78693	0.118
Mof_H 	H 	0.438	0.1338	0.81483	0.108
Mof_C 	C 	0.5702	0.233	0.83303	0.428
Mof_C 	C 	0.4042	0.9477	0.96503	-0.182
Mof_H 	H 	0.4496	0.0095	0.97683	0.084
Mof_H 	H 	0.4196	0.9396	0.92813	0.09
Mof_C 	C 	0.4092	0.8781	0.0015	0.377
Mof_C 	C 	0.1416	0.9194	0.97903	0.295
Mof_H 	H 	0.1699	0.9026	0.00843	-0.039
Mof_C 	C 	0.0715	0.9393	0.00463	-0.752
Mof_H 	H 	0.0249	0.8848	0.02253	0.25
Mof_H 	H 	0.0433	0.9575	0.97693	0.236
Mof_H 	H 	0.1016	0.9883	0.03063	0.236
Mof_C 	C 	0.0933	0.8353	0.94113	-0.197
Mof_C 	C 	0.0495	0.7476	0.96263	0.241
Mof_C 	C 	0.0014	0.6695	0.93103	-0.313
Mof_H 	H 	0.9713	0.6113	0.94693	0.154
Mof_C 	C 	0.9984	0.6788	0.87553	0.243
Mof_C 	C 	0.0433	0.7674	0.85153	-0.181
Mof_C 	C 	0.0889	0.8426	0.88523	0.106
Mof_H 	H 	0.1182	0.9012	0.86973	-0.002
Mof_C 	C 	0.1183	0.7164	0.03513	-0.22
Mof_H 	H 	0.1763	0.759	0.01763	0.1
Mof_H 	H 	0.1014	0.6542	0.02413	0.086
Mof_C 	C 	0.1292	0.7257	0.09693	0.42
Mof_C 	C 	0.908	0.5175	0.86453	-0.202
Mof_H 	H 	0.8664	0.516	0.89253	0.071
Mof_H 	H 	0.9527	0.5046	0.88153	0.094
Mof_C 	C 	0.8541	0.4452	0.82253	0.39
Mof_O 	O 	0.4249	0.2211	0.86238	-0.179
Mof_O 	O 	0.6128	0.2163	0.79685	-0.478
Mof_O 	O 	0.6012	0.2738	0.87725	-0.472
Mof_O 	O 	0.3153	0.9391	0.96533	-0.198
Mof_O 	O 	0.3476	0.8383	0.03687	-0.445
Mof_O 	O 	0.4773	0.8679	0.99517	-0.352
Mof_O 	O 	0.0491	0.7361	0.01898	-0.192
Mof_O 	O 	0.0693	0.7251	0.12389	-0.33
Mof_O 	O 	0.1992	0.7256	0.1161	-0.574
Mof_O 	O 	0.9541	0.6058	0.84044	-0.189
Mof_O 	O 	0.7969	0.3659	0.84185	-0.561
Mof_O 	O 	0.866	0.4623	0.77403	-0.315
Mof_Co	Co	0.27614	0.59212	0.41612	1.129
Mof_Co	Co	0.763	0.50818	0.13529	1.098
Mof_C 	C 	0.7828	0.9544	0.22617	-0.733
Mof_H 	H 	0.7319	0.9002	0.21067	0.249
Mof_H 	H 	0.781	0.9487	0.26507	0.24
Mof_H 	H 	0.8398	0.9612	0.21277	0.234
Mof_C 	C 	0.776	0.0394	0.21027	0.279
Mof_H 	H 	0.7186	0.0313	0.22607	-0.025
Mof_C 	C 	0.8533	0.1279	0.23287	-0.2
Mof_C 	C 	0.9273	0.1358	0.26181	0.118
Mof_H 	H 	0.93	0.0823	0.26787	-0.033
Mof_C 	C 	0.998	0.2179	0.28267	-0.207
Mof_C 	C 	0.9926	0.2973	0.27512	0.246
Mof_C 	C 	0.92	0.2945	0.24497	-0.304
Mof_H 	H 	0.9173	0.3481	0.23917	0.136
Mof_C 	C 	0.8535	0.2119	0.22417	0.246
Mof_C 	C 	0.7998	0.27	0.15377	-0.227
Mof_H 	H 	0.7714	0.238	0.12027	0.118
Mof_H 	H 	0.8662	0.3042	0.14817	0.108
Mof_C 	C 	0.767	0.3372	0.16637	0.428
Mof_C 	C 	0.0523	0.4565	0.29837	-0.181
Mof_H 	H 	0.9905	0.4401	0.31017	0.084
Mof_H 	H 	0.0604	0.48	0.26147	0.09
Mof_C 	C 	0.1219	0.5311	0.33484	0.376
Mof_C 	C 	0.0806	0.2222	0.31237	0.299
Mof_H 	H 	0.0974	0.2673	0.34177	-0.04
Mof_C 	C 	0.0607	0.1322	0.33797	-0.759
Mof_H 	H 	0.1152	0.1401	0.35587	0.252
Mof_H 	H 	0.0425	0.0858	0.31027	0.238
Mof_H 	H 	0.0117	0.1133	0.36397	0.238
Mof_C 	C 	0.1647	0.258	0.27447	-0.198
Mof_C 	C 	0.2524	0.3019	0.29597	0.242
Mof_C 	C 	0.3305	0.3319	0.26437	-0.313
Mof_H 	H 	0.3887	0.36	0.28027	0.153
Mof_C 	C 	0.3212	0.3196	0.20887	0.242
Mof_C 	C 	0.2326	0.2759	0.18487	-0.181
Mof_C 	C 	0.1574	0.2463	0.21857	0.107
Mof_H 	H 	0.0988	0.217	0.20307	-0.003
Mof_C 	C 	0.2836	0.4019	0.36847	-0.219
Mof_H 	H 	0.241	0.4173	0.35097	0.1
Mof_H 	H 	0.3458	0.4472	0.35747	0.086
Mof_C 	C 	0.2743	0.4035	0.43027	0.42
Mof_C 	C 	0.4825	0.3905	0.19787	-0.202
Mof_H 	H 	0.484	0.3504	0.22587	0.071
Mof_H 	H 	0.4954	0.4481	0.21487	0.094
Mof_C 	C 	0.5548	0.4089	0.15587	0.39
Mof_O 	O 	0.7789	0.2038	0.19572	-0.179
Mof_O 	O 	0.7837	0.3965	0.13019	-0.478
Mof_O 	O 	0.7262	0.3274	0.21059	-0.472
Mof_O 	O 	0.0609	0.3762	0.29867	-0.198
Mof_O 	O 	0.1617	0.5093	0.37021	-0.445
Mof_O 	O 	0.1321	0.6094	0.32851	-0.352
Mof_O 	O 	0.2639	0.313	0.35232	-0.192
Mof_O 	O 	0.2749	0.3442	0.45723	-0.33
Mof_O 	O 	0.2744	0.4736	0.44944	-0.574
Mof_O 	O 	0.3942	0.3483	0.17378	-0.189
Mof_O 	O 	0.6341	0.431	0.17519	-0.561
Mof_O 	O 	0.5377	0.4037	0.10737	-0.316
Mof_Co	Co	0.68402	0.40788	0.25055	1.129
Mof_Co	Co	0.25482	0.49182	0.53138	1.098
Mof_C 	C 	0.8284	0.0456	0.4405	-0.734
Mof_H 	H 	0.8317	0.0998	0.456	0.249
Mof_H 	H 	0.8323	0.0513	0.4016	0.24
Mof_H 	H 	0.8786	0.0388	0.4539	0.234
Mof_C 	C 	0.7366	0.9606	0.4564	0.279
Mof_H 	H 	0.6873	0.9687	0.4406	-0.025
Mof_C 	C 	0.7254	0.8721	0.4338	-0.2
Mof_C 	C 	0.7915	0.8642	0.40486	0.118
Mof_H 	H 	0.8477	0.9177	0.3988	-0.033
Mof_C 	C 	0.7801	0.7821	0.384	-0.207
Mof_C 	C 	0.6953	0.7027	0.39155	0.246
Mof_C 	C 	0.6255	0.7055	0.4217	-0.304
Mof_H 	H 	0.5692	0.6519	0.4275	0.136
Mof_C 	C 	0.6416	0.7881	0.4425	0.246
Mof_C 	C 	0.5298	0.73	0.5129	-0.227
Mof_H 	H 	0.5334	0.762	0.5464	0.118
Mof_H 	H 	0.562	0.6958	0.5185	0.108
Mof_C 	C 	0.4298	0.6628	0.5003	0.428
Mof_C 	C 	0.5958	0.5435	0.3683	-0.181
Mof_H 	H 	0.5504	0.5599	0.3565	0.084
Mof_H 	H 	0.5804	0.52	0.4052	0.09
Mof_C 	C 	0.5908	0.4689	0.33183	0.376
Mof_C 	C 	0.8584	0.7778	0.3543	0.299
Mof_H 	H 	0.8301	0.7327	0.3249	-0.04
Mof_C 	C 	0.9285	0.8678	0.3287	-0.759
Mof_H 	H 	0.9751	0.8599	0.3108	0.252
Mof_H 	H 	0.9567	0.9142	0.3564	0.238
Mof_H 	H 	0.8984	0.8867	0.3027	0.238
Mof_C 	C 	0.9067	0.742	0.3922	-0.198
Mof_C 	C 	0.9505	0.6981	0.3707	0.242
Mof_C 	C 	0.9986	0.6681	0.4023	-0.313
Mof_H 	H 	0.0287	0.64	0.3864	0.153
Mof_C 	C 	0.0016	0.6804	0.4578	0.242
Mof_C 	C 	0.9567	0.7241	0.4818	-0.181
Mof_C 	C 	0.9111	0.7537	0.4481	0.107
Mof_H 	H 	0.8818	0.783	0.4636	-0.003
Mof_C 	C 	0.8817	0.5981	0.2982	-0.219
Mof_H 	H 	0.8237	0.5827	0.3157	0.1
Mof_H 	H 	0.8986	0.5528	0.3092	0.086
Mof_C 	C 	0.8708	0.5965	0.2364	0.42
Mof_C 	C 	0.092	0.6095	0.4688	-0.202
Mof_H 	H 	0.1336	0.6496	0.4408	0.071
Mof_H 	H 	0.0473	0.5519	0.4518	0.094
Mof_C 	C 	0.1459	0.5911	0.5108	0.39
Mof_O 	O 	0.5751	0.7962	0.47095	-0.179
Mof_O 	O 	0.3872	0.6035	0.53648	-0.478
Mof_O 	O 	0.3988	0.6726	0.45608	-0.472
Mof_O 	O 	0.6847	0.6238	0.368	-0.198
Mof_O 	O 	0.6524	0.4907	0.29646	-0.445
Mof_O 	O 	0.5227	0.3906	0.33816	-0.352
Mof_O 	O 	0.9509	0.687	0.31435	-0.192
Mof_O 	O 	0.9307	0.6558	0.20944	-0.33
Mof_O 	O 	0.8008	0.5264	0.21723	-0.574
Mof_O 	O 	0.0459	0.6517	0.49289	-0.189
Mof_O 	O 	0.2031	0.569	0.49148	-0.561
Mof_O 	O 	0.134	0.5963	0.5593	-0.315
Mof_Co	Co	0.72386	0.31598	0.91722	1.129
Mof_Co	Co	0.237	0.74518	0.19805	1.098
Mof_C 	C 	0.2172	0.1716	0.10717	-0.733
Mof_H 	H 	0.2681	0.1683	0.12267	0.249
Mof_H 	H 	0.219	0.1677	0.06827	0.24
Mof_H 	H 	0.1602	0.1214	0.12057	0.234
Mof_C 	C 	0.224	0.2634	0.12307	0.279
Mof_H 	H 	0.2814	0.3127	0.10727	-0.025
Mof_C 	C 	0.1467	0.2746	0.10047	-0.199
Mof_C 	C 	0.0727	0.2085	0.07153	0.117
Mof_H 	H 	0.07	0.1523	0.06547	-0.032
Mof_C 	C 	0.002	0.2199	0.05067	-0.205
Mof_C 	C 	0.0074	0.3047	0.05822	0.246
Mof_C 	C 	0.08	0.3745	0.08837	-0.304
Mof_H 	H 	0.0827	0.4308	0.09417	0.136
Mof_C 	C 	0.1465	0.3584	0.10917	0.246
Mof_C 	C 	0.2002	0.4702	0.17957	-0.227
Mof_H 	H 	0.2286	0.4666	0.21307	0.118
Mof_H 	H 	0.1338	0.438	0.18517	0.108
Mof_C 	C 	0.233	0.5702	0.16697	0.428
Mof_C 	C 	0.9477	0.4042	0.03497	-0.182
Mof_H 	H 	0.0095	0.4496	0.02317	0.084
Mof_H 	H 	0.9396	0.4196	0.07187	0.09
Mof_C 	C 	0.8781	0.4092	0.9985	0.377
Mof_C 	C 	0.9194	0.1416	0.02097	0.295
Mof_H 	H 	0.9026	0.1699	0.99157	-0.039
Mof_C 	C 	0.9393	0.0715	0.99537	-0.752
Mof_H 	H 	0.8848	0.0249	0.97747	0.25
Mof_H 	H 	0.9575	0.0433	0.02307	0.236
Mof_H 	H 	0.9883	0.1016	0.96937	0.236
Mof_C 	C 	0.8353	0.0933	0.05887	-0.197
Mof_C 	C 	0.7476	0.0495	0.03737	0.241
Mof_C 	C 	0.6695	0.0014	0.06897	-0.313
Mof_H 	H 	0.6113	0.9713	0.05307	0.154
Mof_C 	C 	0.6788	0.9984	0.12447	0.243
Mof_C 	C 	0.7674	0.0433	0.14847	-0.181
Mof_C 	C 	0.8426	0.0889	0.11477	0.106
Mof_H 	H 	0.9012	0.1182	0.13027	-0.002
Mof_C 	C 	0.7164	0.1183	0.96487	-0.22
Mof_H 	H 	0.759	0.1763	0.98237	0.1
Mof_H 	H 	0.6542	0.1014	0.97587	0.086
Mof_C 	C 	0.7257	0.1292	0.90307	0.42
Mof_C 	C 	0.5175	0.908	0.13547	-0.202
Mof_H 	H 	0.516	0.8664	0.10747	0.071
Mof_H 	H 	0.5046	0.9527	0.11847	0.094
Mof_C 	C 	0.4452	0.8541	0.17747	0.39
Mof_O 	O 	0.2211	0.4249	0.13762	-0.179
Mof_O 	O 	0.2163	0.6128	0.20315	-0.478
Mof_O 	O 	0.2738	0.6012	0.12275	-0.472
Mof_O 	O 	0.9391	0.3153	0.03467	-0.198
Mof_O 	O 	0.8383	0.3476	0.96313	-0.445
Mof_O 	O 	0.8679	0.4773	0.00483	-0.352
Mof_O 	O 	0.7361	0.0491	0.98102	-0.192
Mof_O 	O 	0.7251	0.0693	0.87611	-0.33
Mof_O 	O 	0.7256	0.1992	0.8839	-0.574
Mof_O 	O 	0.6058	0.9541	0.15956	-0.189
Mof_O 	O 	0.3659	0.7969	0.15815	-0.561
Mof_O 	O 	0.4623	0.866	0.22597	-0.315
Mof_Co	Co	0.59212	0.27614	0.58388	1.129
Mof_Co	Co	0.50818	0.763	0.86471	1.098
Mof_C 	C 	0.9544	0.7828	0.77383	-0.733
Mof_H 	H 	0.9002	0.7319	0.78933	0.249
Mof_H 	H 	0.9487	0.781	0.73493	0.24
Mof_H 	H 	0.9612	0.8398	0.78723	0.234
Mof_C 	C 	0.0394	0.776	0.78973	0.279
Mof_H 	H 	0.0313	0.7186	0.77393	-0.025
Mof_C 	C 	0.1279	0.8533	0.76713	-0.2
Mof_C 	C 	0.1358	0.9273	0.73819	0.118
Mof_H 	H 	0.0823	0.93	0.73213	-0.033
Mof_C 	C 	0.2179	0.998	0.71733	-0.207
Mof_C 	C 	0.2973	0.9926	0.72488	0.246
Mof_C 	C 	0.2945	0.92	0.75503	-0.304
Mof_H 	H 	0.3481	0.9173	0.76083	0.136
Mof_C 	C 	0.2119	0.8535	0.77583	0.246
Mof_C 	C 	0.27	0.7998	0.84623	-0.227
Mof_H 	H 	0.238	0.7714	0.87973	0.118
Mof_H 	H 	0.3042	0.8662	0.85183	0.108
Mof_C 	C 	0.3372	0.767	0.83363	0.428
Mof_C 	C 	0.4565	0.0523	0.70163	-0.181
Mof_H 	H 	0.4401	0.9905	0.68983	0.084
Mof_H 	H 	0.48	0.0604	0.73853	0.09
Mof_C 	C 	0.5311	0.1219	0.66516	0.376
Mof_C 	C 	0.2222	0.0806	0.68763	0.299
Mof_H 	H 	0.2673	0.0974	0.65823	-0.04
Mof_C 	C 	0.1322	0.0607	0.66203	-0.759
Mof_H 	H 	0.1401	0.1152	0.64413	0.252
Mof_H 	H 	0.0858	0.0425	0.68973	0.238
Mof_H 	H 	0.1133	0.0117	0.63603	0.238
Mof_C 	C 	0.258	0.1647	0.72553	-0.198
Mof_C 	C 	0.3019	0.2524	0.70403	0.242
Mof_C 	C 	0.3319	0.3305	0.73563	-0.313
Mof_H 	H 	0.36	0.3887	0.71973	0.153
Mof_C 	C 	0.3196	0.3212	0.79113	0.242
Mof_C 	C 	0.2759	0.2326	0.81513	-0.181
Mof_C 	C 	0.2463	0.1574	0.78143	0.107
Mof_H 	H 	0.217	0.0988	0.79693	-0.003
Mof_C 	C 	0.4019	0.2836	0.63153	-0.219
Mof_H 	H 	0.4173	0.241	0.64903	0.1
Mof_H 	H 	0.4472	0.3458	0.64253	0.086
Mof_C 	C 	0.4035	0.2743	0.56973	0.42
Mof_C 	C 	0.3905	0.4825	0.80213	-0.202
Mof_H 	H 	0.3504	0.484	0.77413	0.071
Mof_H 	H 	0.4481	0.4954	0.78513	0.094
Mof_C 	C 	0.4089	0.5548	0.84413	0.39
Mof_O 	O 	0.2038	0.7789	0.80428	-0.179
Mof_O 	O 	0.3965	0.7837	0.86981	-0.478
Mof_O 	O 	0.3274	0.7262	0.78941	-0.472
Mof_O 	O 	0.3762	0.0609	0.70133	-0.198
Mof_O 	O 	0.5093	0.1617	0.62979	-0.445
Mof_O 	O 	0.6094	0.1321	0.67149	-0.352
Mof_O 	O 	0.313	0.2639	0.64768	-0.192
Mof_O 	O 	0.3442	0.2749	0.54277	-0.33
Mof_O 	O 	0.4736	0.2744	0.55056	-0.574
Mof_O 	O 	0.3483	0.3942	0.82622	-0.189
Mof_O 	O 	0.431	0.6341	0.82481	-0.561
Mof_O 	O 	0.4037	0.5377	0.89263	-0.316
_end
