data_functionalizedCrystal
_audit_creation_method	'EQeq! by Chris Wilmer'
_symmetry_space_group_name_H-M	'P1'
_symmetry_Int_Tables_number	1
_symmetry_cell_setting	triclinic
loop_
_symmetry_equiv_pos_as_xyz
  x,y,z
_cell_length_a	26.1514
_cell_length_b	31.9344
_cell_length_c	22.1932
_cell_angle_alpha	90
_cell_angle_beta	90
_cell_angle_gamma	90
loop_
_atom_site_label
_atom_site_type_symbol
_atom_site_fract_x
_atom_site_fract_y
_atom_site_fract_z
_atom_site_charge
Mof_Cd	Cd	0.1378	0.87438	0.8088	0.36
Mof_Cd	Cd	0.88543	0.87781	0.33049	0.315
Mof_O 	O 	0.1367	0.81321	0.871	-0.292
Mof_O 	O 	0.202	0.81677	0.8094	-0.264
Mof_O 	O 	0.3212	0.64917	0.8844	-0.292
Mof_O 	O 	0.334	0.6992	0.8182	-0.244
Mof_O 	O 	0.143	0.7188	0.0415	-0.122
Mof_O 	O 	0.2031	0.6722	0.0492	-0.117
Mof_N 	N 	0.0935	0.83944	0.7335	-0.146
Mof_N 	N 	0.9378	0.84678	0.4014	-0.163
Mof_N 	N 	0.1882	0.9053	0.8821	-0.16
Mof_N 	N 	0.3239	0.90851	0.2297	-0.143
Mof_N 	N 	0.1812	0.701	0.0224	-0.014
Mof_C 	C 	0.0971	0.7979	0.7285	0.576
Mof_H 	H 	0.1207	0.7833	0.7532	-0.159
Mof_C 	C 	0.0675	0.7758	0.6886	0.603
Mof_H 	H 	0.0692	0.7461	0.6878	-0.185
Mof_C 	C 	0.038	0.8402	0.6491	0.102
Mof_H 	H 	0.02	0.8566	0.6203	-0.001
Mof_C 	C 	0.068	0.8595	0.6917	0.124
Mof_H 	H 	0.0704	0.8892	0.6908	-0.017
Mof_C 	C 	0.034	0.7972	0.6482	0.102
Mof_C 	C 	0.9996	0.7746	0.6055	-0.073
Mof_H 	H 	0.9637	0.7845	0.6114	0.049
Mof_C 	C 	0.0116	0.7726	0.5369	-0.066
Mof_H 	H 	0.0494	0.7713	0.5303	0.067
Mof_C 	C 	0.9879	0.8022	0.4928	0.11
Mof_C 	C 	0.0063	0.8032	0.4337	-0.163
Mof_H 	H 	0.0368	0.7886	0.4236	0.102
Mof_C 	C 	0.9803	0.8254	0.3901	0.097
Mof_H 	H 	0.9935	0.8255	0.3502	-0.003
Mof_C 	C 	0.9208	0.8466	0.4591	0.092
Mof_H 	H 	0.8907	0.8619	0.4682	0.006
Mof_C 	C 	0.9443	0.8256	0.5051	-0.163
Mof_H 	H 	0.931	0.827	0.5449	0.091
Mof_C 	C 	0.1681	0.9082	0.9379	0.09
Mof_H 	H 	0.1361	0.895	0.945	-0.003
Mof_C 	C 	0.1905	0.9285	0.9844	-0.156
Mof_H 	H 	0.1745	0.9292	0.0228	0.079
Mof_C 	C 	0.2378	0.9484	0.9753	0.101
Mof_C 	C 	0.2598	0.9439	0.9189	-0.154
Mof_H 	H 	0.2925	0.9557	0.9108	0.081
Mof_C 	C 	0.2341	0.9221	0.8746	0.096
Mof_H 	H 	0.2502	0.919	0.8365	0.006
Mof_C 	C 	0.2609	0.9771	0.0208	-0.069
Mof_H 	H 	0.2988	0.9779	0.0153	0.052
Mof_C 	C 	0.2481	0.9756	0.0888	-0.053
Mof_H 	H 	0.2113	0.9677	0.0932	0.038
Mof_C 	C 	0.2782	0.9519	0.1346	0.057
Mof_C 	C 	0.28	0.9092	0.1348	-0.062
Mof_H 	H 	0.2666	0.8938	0.1017	0.05
Mof_C 	C 	0.3015	0.8884	0.1833	0.026
Mof_H 	H 	0.3004	0.8586	0.184	0.026
Mof_C 	C 	0.3207	0.9512	0.2298	0.003
Mof_H 	H 	0.3333	0.9658	0.264	0.015
Mof_C 	C 	0.3004	0.974	0.1836	-0.062
Mof_H 	H 	0.301	0.0037	0.1842	0.041
Mof_C 	C 	0.1792	0.8002	0.8522	0.294
Mof_C 	C 	0.2026	0.7626	0.8832	-0.03
Mof_C 	C 	0.2448	0.7423	0.8593	-0.014
Mof_H 	H 	0.2599	0.7525	0.8232	0.072
Mof_C 	C 	0.2653	0.7075	0.8873	-0.028
Mof_C 	C 	0.3104	0.6841	0.8621	0.293
Mof_C 	C 	0.2449	0.6942	0.9421	-0.077
Mof_H 	H 	0.2595	0.671	0.9627	0.087
Mof_C 	C 	0.2031	0.715	0.966	0.106
Mof_C 	C 	0.1816	0.7493	0.9372	-0.074
Mof_H 	H 	0.153	0.7634	0.9542	0.084
Mof_C 	C 	0.1093	0.806	0.705	-0.551
Mof_H 	H 	0.1426	0.796	0.7142	0.193
Mof_C 	C 	0.0818	0.7844	0.6632	-0.725
Mof_H 	H 	0.096	0.7604	0.6445	0.254
Mof_C 	C 	0.0125	0.8312	0.6783	-0.242
Mof_H 	H 	0.9783	0.8397	0.6705	0.093
Mof_C 	C 	0.0417	0.852	0.7192	-0.071
Mof_H 	H 	0.0276	0.8756	0.7392	0.034
Mof_C 	C 	0.265	0.9103	0.1489	-0.048
Mof_H 	H 	0.24	0.8957	0.126	0.048
Mof_C 	C 	0.2886	0.8918	0.1956	0.017
Mof_H 	H 	0.2786	0.864	0.2047	0.022
Mof_C 	C 	0.3436	0.9464	0.2066	0.03
Mof_H 	H 	0.3741	0.9574	0.2237	0.003
Mof_C 	C 	0.3214	0.9674	0.1618	-0.054
Mof_H 	H 	0.3355	0.9932	0.1487	0.034
Mof_Cd	Cd	0.6378	0.37438	0.8088	0.361
Mof_Cd	Cd	0.38543	0.37781	0.33049	0.316
Mof_O 	O 	0.6367	0.31321	0.871	-0.291
Mof_O 	O 	0.702	0.31677	0.8094	-0.263
Mof_O 	O 	0.8212	0.14917	0.8844	-0.291
Mof_O 	O 	0.834	0.1992	0.8182	-0.243
Mof_O 	O 	0.643	0.2188	0.0415	-0.121
Mof_O 	O 	0.7031	0.1722	0.0492	-0.116
Mof_N 	N 	0.5935	0.33944	0.7335	-0.145
Mof_N 	N 	0.4378	0.34678	0.4014	-0.162
Mof_N 	N 	0.6882	0.4053	0.8821	-0.159
Mof_N 	N 	0.8239	0.40851	0.2297	-0.142
Mof_N 	N 	0.6812	0.201	0.0224	-0.013
Mof_C 	C 	0.5971	0.2979	0.7285	0.577
Mof_H 	H 	0.6207	0.2833	0.7532	-0.158
Mof_C 	C 	0.5675	0.2758	0.6886	0.604
Mof_H 	H 	0.5692	0.2461	0.6878	-0.184
Mof_C 	C 	0.538	0.3402	0.6491	0.103
Mof_H 	H 	0.52	0.3566	0.6203	-0
Mof_C 	C 	0.568	0.3595	0.6917	0.125
Mof_H 	H 	0.5704	0.3892	0.6908	-0.016
Mof_C 	C 	0.534	0.2972	0.6482	0.103
Mof_C 	C 	0.4996	0.2746	0.6055	-0.072
Mof_H 	H 	0.4637	0.2845	0.6114	0.05
Mof_C 	C 	0.5116	0.2726	0.5369	-0.065
Mof_H 	H 	0.5494	0.2713	0.5303	0.068
Mof_C 	C 	0.4879	0.3022	0.4928	0.111
Mof_C 	C 	0.5063	0.3032	0.4337	-0.162
Mof_H 	H 	0.5368	0.2886	0.4236	0.103
Mof_C 	C 	0.4803	0.3254	0.3901	0.098
Mof_H 	H 	0.4935	0.3255	0.3502	-0.002
Mof_C 	C 	0.4208	0.3466	0.4591	0.093
Mof_H 	H 	0.3907	0.3619	0.4682	0.007
Mof_C 	C 	0.4443	0.3256	0.5051	-0.162
Mof_H 	H 	0.431	0.327	0.5449	0.092
Mof_C 	C 	0.6681	0.4082	0.9379	0.091
Mof_H 	H 	0.6361	0.395	0.945	-0.002
Mof_C 	C 	0.6905	0.4285	0.9844	-0.155
Mof_H 	H 	0.6745	0.4292	0.0228	0.08
Mof_C 	C 	0.7378	0.4484	0.9753	0.102
Mof_C 	C 	0.7598	0.4439	0.9189	-0.153
Mof_H 	H 	0.7925	0.4557	0.9108	0.082
Mof_C 	C 	0.7341	0.4221	0.8746	0.096
Mof_H 	H 	0.7502	0.419	0.8365	0.006
Mof_C 	C 	0.7609	0.4771	0.0208	-0.069
Mof_H 	H 	0.7988	0.4779	0.0153	0.052
Mof_C 	C 	0.7481	0.4756	0.0888	-0.053
Mof_H 	H 	0.7113	0.4677	0.0932	0.038
Mof_C 	C 	0.7782	0.4519	0.1346	0.057
Mof_C 	C 	0.78	0.4092	0.1348	-0.062
Mof_H 	H 	0.7666	0.3938	0.1017	0.05
Mof_C 	C 	0.8015	0.3884	0.1833	0.026
Mof_H 	H 	0.8004	0.3586	0.184	0.026
Mof_C 	C 	0.8207	0.4512	0.2298	0.003
Mof_H 	H 	0.8333	0.4658	0.264	0.015
Mof_C 	C 	0.8004	0.474	0.1836	-0.062
Mof_H 	H 	0.801	0.5037	0.1842	0.041
Mof_C 	C 	0.6792	0.3002	0.8522	0.294
Mof_C 	C 	0.7026	0.2626	0.8832	-0.03
Mof_C 	C 	0.7448	0.2423	0.8593	-0.014
Mof_H 	H 	0.7599	0.2525	0.8232	0.072
Mof_C 	C 	0.7653	0.2075	0.8873	-0.028
Mof_C 	C 	0.8104	0.1841	0.8621	0.293
Mof_C 	C 	0.7449	0.1942	0.9421	-0.077
Mof_H 	H 	0.7595	0.171	0.9627	0.087
Mof_C 	C 	0.7031	0.215	0.966	0.106
Mof_C 	C 	0.6816	0.2493	0.9372	-0.074
Mof_H 	H 	0.653	0.2634	0.9542	0.084
Mof_C 	C 	0.6093	0.306	0.705	-0.551
Mof_H 	H 	0.6426	0.296	0.7142	0.193
Mof_C 	C 	0.5818	0.2844	0.6632	-0.725
Mof_H 	H 	0.596	0.2604	0.6445	0.254
Mof_C 	C 	0.5125	0.3312	0.6783	-0.242
Mof_H 	H 	0.4783	0.3397	0.6705	0.093
Mof_C 	C 	0.5417	0.352	0.7192	-0.071
Mof_H 	H 	0.5276	0.3756	0.7392	0.034
Mof_C 	C 	0.765	0.4103	0.1489	-0.048
Mof_H 	H 	0.74	0.3957	0.126	0.048
Mof_C 	C 	0.7886	0.3918	0.1956	0.017
Mof_H 	H 	0.7786	0.364	0.2047	0.022
Mof_C 	C 	0.8436	0.4464	0.2066	0.03
Mof_H 	H 	0.8741	0.4574	0.2237	0.003
Mof_C 	C 	0.8214	0.4674	0.1618	-0.054
Mof_H 	H 	0.8355	0.4932	0.1487	0.034
Mof_Cd	Cd	0.3622	0.12562	0.8088	0.361
Mof_Cd	Cd	0.61457	0.12219	0.33049	0.316
Mof_O 	O 	0.3633	0.18679	0.871	-0.291
Mof_O 	O 	0.298	0.18323	0.8094	-0.263
Mof_O 	O 	0.1788	0.35083	0.8844	-0.291
Mof_O 	O 	0.166	0.3008	0.8182	-0.243
Mof_O 	O 	0.357	0.2812	0.0415	-0.121
Mof_O 	O 	0.2969	0.3278	0.0492	-0.116
Mof_N 	N 	0.4065	0.16056	0.7335	-0.145
Mof_N 	N 	0.5622	0.15322	0.4014	-0.162
Mof_N 	N 	0.3118	0.0947	0.8821	-0.159
Mof_N 	N 	0.1761	0.09149	0.2297	-0.142
Mof_N 	N 	0.3188	0.299	0.0224	-0.013
Mof_C 	C 	0.4029	0.2021	0.7285	0.577
Mof_H 	H 	0.3793	0.2167	0.7532	-0.158
Mof_C 	C 	0.4325	0.2242	0.6886	0.604
Mof_H 	H 	0.4308	0.2539	0.6878	-0.184
Mof_C 	C 	0.462	0.1598	0.6491	0.103
Mof_H 	H 	0.48	0.1434	0.6203	-0
Mof_C 	C 	0.432	0.1405	0.6917	0.125
Mof_H 	H 	0.4296	0.1108	0.6908	-0.016
Mof_C 	C 	0.466	0.2028	0.6482	0.103
Mof_C 	C 	0.5004	0.2254	0.6055	-0.072
Mof_H 	H 	0.5363	0.2155	0.6114	0.05
Mof_C 	C 	0.4884	0.2274	0.5369	-0.065
Mof_H 	H 	0.4506	0.2287	0.5303	0.068
Mof_C 	C 	0.5121	0.1978	0.4928	0.111
Mof_C 	C 	0.4937	0.1968	0.4337	-0.162
Mof_H 	H 	0.4632	0.2114	0.4236	0.103
Mof_C 	C 	0.5197	0.1746	0.3901	0.098
Mof_H 	H 	0.5065	0.1745	0.3502	-0.002
Mof_C 	C 	0.5792	0.1534	0.4591	0.093
Mof_H 	H 	0.6093	0.1381	0.4682	0.007
Mof_C 	C 	0.5557	0.1744	0.5051	-0.162
Mof_H 	H 	0.569	0.173	0.5449	0.092
Mof_C 	C 	0.3319	0.0918	0.9379	0.091
Mof_H 	H 	0.3639	0.105	0.945	-0.002
Mof_C 	C 	0.3095	0.0715	0.9844	-0.155
Mof_H 	H 	0.3255	0.0708	0.0228	0.08
Mof_C 	C 	0.2622	0.0516	0.9753	0.102
Mof_C 	C 	0.2402	0.0561	0.9189	-0.153
Mof_H 	H 	0.2075	0.0443	0.9108	0.082
Mof_C 	C 	0.2659	0.0779	0.8746	0.096
Mof_H 	H 	0.2498	0.081	0.8365	0.006
Mof_C 	C 	0.2391	0.0229	0.0208	-0.069
Mof_H 	H 	0.2012	0.0221	0.0153	0.052
Mof_C 	C 	0.2519	0.0244	0.0888	-0.053
Mof_H 	H 	0.2887	0.0323	0.0932	0.038
Mof_C 	C 	0.2218	0.0481	0.1346	0.057
Mof_C 	C 	0.22	0.0908	0.1348	-0.062
Mof_H 	H 	0.2334	0.1062	0.1017	0.05
Mof_C 	C 	0.1985	0.1116	0.1833	0.026
Mof_H 	H 	0.1996	0.1414	0.184	0.026
Mof_C 	C 	0.1793	0.0488	0.2298	0.003
Mof_H 	H 	0.1667	0.0342	0.264	0.015
Mof_C 	C 	0.1996	0.026	0.1836	-0.062
Mof_H 	H 	0.199	0.9963	0.1842	0.041
Mof_C 	C 	0.3208	0.1998	0.8522	0.294
Mof_C 	C 	0.2974	0.2374	0.8832	-0.03
Mof_C 	C 	0.2552	0.2577	0.8593	-0.014
Mof_H 	H 	0.2401	0.2475	0.8232	0.072
Mof_C 	C 	0.2347	0.2925	0.8873	-0.028
Mof_C 	C 	0.1896	0.3159	0.8621	0.293
Mof_C 	C 	0.2551	0.3058	0.9421	-0.077
Mof_H 	H 	0.2405	0.329	0.9627	0.087
Mof_C 	C 	0.2969	0.285	0.966	0.106
Mof_C 	C 	0.3184	0.2507	0.9372	-0.074
Mof_H 	H 	0.347	0.2366	0.9542	0.084
Mof_C 	C 	0.3907	0.194	0.705	-0.551
Mof_H 	H 	0.3574	0.204	0.7142	0.193
Mof_C 	C 	0.4182	0.2156	0.6632	-0.725
Mof_H 	H 	0.404	0.2396	0.6445	0.254
Mof_C 	C 	0.4875	0.1688	0.6783	-0.242
Mof_H 	H 	0.5217	0.1603	0.6705	0.093
Mof_C 	C 	0.4583	0.148	0.7192	-0.071
Mof_H 	H 	0.4724	0.1244	0.7392	0.034
Mof_C 	C 	0.235	0.0897	0.1489	-0.048
Mof_H 	H 	0.26	0.1043	0.126	0.048
Mof_C 	C 	0.2114	0.1082	0.1956	0.017
Mof_H 	H 	0.2214	0.136	0.2047	0.022
Mof_C 	C 	0.1564	0.0536	0.2066	0.03
Mof_H 	H 	0.1259	0.0426	0.2237	0.003
Mof_C 	C 	0.1786	0.0326	0.1618	-0.054
Mof_H 	H 	0.1645	0.0068	0.1487	0.034
Mof_Cd	Cd	0.8622	0.62562	0.8088	0.361
Mof_Cd	Cd	0.11457	0.62219	0.33049	0.316
Mof_O 	O 	0.8633	0.68679	0.871	-0.291
Mof_O 	O 	0.798	0.68323	0.8094	-0.263
Mof_O 	O 	0.6788	0.85083	0.8844	-0.291
Mof_O 	O 	0.666	0.8008	0.8182	-0.243
Mof_O 	O 	0.857	0.7812	0.0415	-0.121
Mof_O 	O 	0.7969	0.8278	0.0492	-0.116
Mof_N 	N 	0.9065	0.66056	0.7335	-0.145
Mof_N 	N 	0.0622	0.65322	0.4014	-0.162
Mof_N 	N 	0.8118	0.5947	0.8821	-0.159
Mof_N 	N 	0.6761	0.59149	0.2297	-0.142
Mof_N 	N 	0.8188	0.799	0.0224	-0.013
Mof_C 	C 	0.9029	0.7021	0.7285	0.577
Mof_H 	H 	0.8793	0.7167	0.7532	-0.158
Mof_C 	C 	0.9325	0.7242	0.6886	0.604
Mof_H 	H 	0.9308	0.7539	0.6878	-0.184
Mof_C 	C 	0.962	0.6598	0.6491	0.103
Mof_H 	H 	0.98	0.6434	0.6203	-0
Mof_C 	C 	0.932	0.6405	0.6917	0.125
Mof_H 	H 	0.9296	0.6108	0.6908	-0.016
Mof_C 	C 	0.966	0.7028	0.6482	0.103
Mof_C 	C 	0.0004	0.7254	0.6055	-0.072
Mof_H 	H 	0.0363	0.7155	0.6114	0.05
Mof_C 	C 	0.9884	0.7274	0.5369	-0.065
Mof_H 	H 	0.9506	0.7287	0.5303	0.068
Mof_C 	C 	0.0121	0.6978	0.4928	0.111
Mof_C 	C 	0.9937	0.6968	0.4337	-0.162
Mof_H 	H 	0.9632	0.7114	0.4236	0.103
Mof_C 	C 	0.0197	0.6746	0.3901	0.098
Mof_H 	H 	0.0065	0.6745	0.3502	-0.002
Mof_C 	C 	0.0792	0.6534	0.4591	0.093
Mof_H 	H 	0.1093	0.6381	0.4682	0.007
Mof_C 	C 	0.0557	0.6744	0.5051	-0.162
Mof_H 	H 	0.069	0.673	0.5449	0.092
Mof_C 	C 	0.8319	0.5918	0.9379	0.091
Mof_H 	H 	0.8639	0.605	0.945	-0.002
Mof_C 	C 	0.8095	0.5715	0.9844	-0.155
Mof_H 	H 	0.8255	0.5708	0.0228	0.08
Mof_C 	C 	0.7622	0.5516	0.9753	0.102
Mof_C 	C 	0.7402	0.5561	0.9189	-0.153
Mof_H 	H 	0.7075	0.5443	0.9108	0.082
Mof_C 	C 	0.7659	0.5779	0.8746	0.096
Mof_H 	H 	0.7498	0.581	0.8365	0.006
Mof_C 	C 	0.7391	0.5229	0.0208	-0.069
Mof_H 	H 	0.7012	0.5221	0.0153	0.052
Mof_C 	C 	0.7519	0.5244	0.0888	-0.053
Mof_H 	H 	0.7887	0.5323	0.0932	0.038
Mof_C 	C 	0.7218	0.5481	0.1346	0.057
Mof_C 	C 	0.72	0.5908	0.1348	-0.062
Mof_H 	H 	0.7334	0.6062	0.1017	0.05
Mof_C 	C 	0.6985	0.6116	0.1833	0.026
Mof_H 	H 	0.6996	0.6414	0.184	0.026
Mof_C 	C 	0.6793	0.5488	0.2298	0.003
Mof_H 	H 	0.6667	0.5342	0.264	0.015
Mof_C 	C 	0.6996	0.526	0.1836	-0.062
Mof_H 	H 	0.699	0.4963	0.1842	0.041
Mof_C 	C 	0.8208	0.6998	0.8522	0.294
Mof_C 	C 	0.7974	0.7374	0.8832	-0.03
Mof_C 	C 	0.7552	0.7577	0.8593	-0.014
Mof_H 	H 	0.7401	0.7475	0.8232	0.072
Mof_C 	C 	0.7347	0.7925	0.8873	-0.028
Mof_C 	C 	0.6896	0.8159	0.8621	0.293
Mof_C 	C 	0.7551	0.8058	0.9421	-0.077
Mof_H 	H 	0.7405	0.829	0.9627	0.087
Mof_C 	C 	0.7969	0.785	0.966	0.106
Mof_C 	C 	0.8184	0.7507	0.9372	-0.074
Mof_H 	H 	0.847	0.7366	0.9542	0.084
Mof_C 	C 	0.8907	0.694	0.705	-0.551
Mof_H 	H 	0.8574	0.704	0.7142	0.193
Mof_C 	C 	0.9182	0.7156	0.6632	-0.725
Mof_H 	H 	0.904	0.7396	0.6445	0.254
Mof_C 	C 	0.9875	0.6688	0.6783	-0.242
Mof_H 	H 	0.0217	0.6603	0.6705	0.093
Mof_C 	C 	0.9583	0.648	0.7192	-0.071
Mof_H 	H 	0.9724	0.6244	0.7392	0.034
Mof_C 	C 	0.735	0.5897	0.1489	-0.048
Mof_H 	H 	0.76	0.6043	0.126	0.048
Mof_C 	C 	0.7114	0.6082	0.1956	0.017
Mof_H 	H 	0.7214	0.636	0.2047	0.022
Mof_C 	C 	0.6564	0.5536	0.2066	0.03
Mof_H 	H 	0.6259	0.5426	0.2237	0.003
Mof_C 	C 	0.6786	0.5326	0.1618	-0.054
Mof_H 	H 	0.6645	0.5068	0.1487	0.034
Mof_Cd	Cd	0.1378	0.12562	0.3088	0.361
Mof_Cd	Cd	0.88543	0.12219	0.83049	0.316
Mof_O 	O 	0.1367	0.18679	0.371	-0.291
Mof_O 	O 	0.202	0.18323	0.3094	-0.263
Mof_O 	O 	0.3212	0.35083	0.3844	-0.291
Mof_O 	O 	0.334	0.3008	0.3182	-0.243
Mof_O 	O 	0.143	0.2812	0.5415	-0.121
Mof_O 	O 	0.2031	0.3278	0.5492	-0.116
Mof_N 	N 	0.0935	0.16056	0.2335	-0.145
Mof_N 	N 	0.9378	0.15322	0.9014	-0.162
Mof_N 	N 	0.1882	0.0947	0.3821	-0.159
Mof_N 	N 	0.3239	0.09149	0.7297	-0.142
Mof_N 	N 	0.1812	0.299	0.5224	-0.013
Mof_C 	C 	0.0971	0.2021	0.2285	0.577
Mof_H 	H 	0.1207	0.2167	0.2532	-0.158
Mof_C 	C 	0.0675	0.2242	0.1886	0.604
Mof_H 	H 	0.0692	0.2539	0.1878	-0.184
Mof_C 	C 	0.038	0.1598	0.1491	0.103
Mof_H 	H 	0.02	0.1434	0.1203	-0
Mof_C 	C 	0.068	0.1405	0.1917	0.125
Mof_H 	H 	0.0704	0.1108	0.1908	-0.016
Mof_C 	C 	0.034	0.2028	0.1482	0.103
Mof_C 	C 	0.9996	0.2254	0.1055	-0.072
Mof_H 	H 	0.9637	0.2155	0.1114	0.05
Mof_C 	C 	0.0116	0.2274	0.0369	-0.065
Mof_H 	H 	0.0494	0.2287	0.0303	0.068
Mof_C 	C 	0.9879	0.1978	0.9928	0.111
Mof_C 	C 	0.0063	0.1968	0.9337	-0.162
Mof_H 	H 	0.0368	0.2114	0.9236	0.103
Mof_C 	C 	0.9803	0.1746	0.8901	0.098
Mof_H 	H 	0.9935	0.1745	0.8502	-0.002
Mof_C 	C 	0.9208	0.1534	0.9591	0.093
Mof_H 	H 	0.8907	0.1381	0.9682	0.007
Mof_C 	C 	0.9443	0.1744	0.0051	-0.162
Mof_H 	H 	0.931	0.173	0.0449	0.092
Mof_C 	C 	0.1681	0.0918	0.4379	0.091
Mof_H 	H 	0.1361	0.105	0.445	-0.002
Mof_C 	C 	0.1905	0.0715	0.4844	-0.155
Mof_H 	H 	0.1745	0.0708	0.5228	0.08
Mof_C 	C 	0.2378	0.0516	0.4753	0.102
Mof_C 	C 	0.2598	0.0561	0.4189	-0.153
Mof_H 	H 	0.2925	0.0443	0.4108	0.082
Mof_C 	C 	0.2341	0.0779	0.3746	0.096
Mof_H 	H 	0.2502	0.081	0.3365	0.006
Mof_C 	C 	0.2609	0.0229	0.5208	-0.069
Mof_H 	H 	0.2988	0.0221	0.5153	0.052
Mof_C 	C 	0.2481	0.0244	0.5888	-0.053
Mof_H 	H 	0.2113	0.0323	0.5932	0.038
Mof_C 	C 	0.2782	0.0481	0.6346	0.057
Mof_C 	C 	0.28	0.0908	0.6348	-0.062
Mof_H 	H 	0.2666	0.1062	0.6017	0.05
Mof_C 	C 	0.3015	0.1116	0.6833	0.026
Mof_H 	H 	0.3004	0.1414	0.684	0.026
Mof_C 	C 	0.3207	0.0488	0.7298	0.003
Mof_H 	H 	0.3333	0.0342	0.764	0.015
Mof_C 	C 	0.3004	0.026	0.6836	-0.062
Mof_H 	H 	0.301	0.9963	0.6842	0.041
Mof_C 	C 	0.1792	0.1998	0.3522	0.294
Mof_C 	C 	0.2026	0.2374	0.3832	-0.03
Mof_C 	C 	0.2448	0.2577	0.3593	-0.014
Mof_H 	H 	0.2599	0.2475	0.3232	0.072
Mof_C 	C 	0.2653	0.2925	0.3873	-0.028
Mof_C 	C 	0.3104	0.3159	0.3621	0.293
Mof_C 	C 	0.2449	0.3058	0.4421	-0.077
Mof_H 	H 	0.2595	0.329	0.4627	0.087
Mof_C 	C 	0.2031	0.285	0.466	0.106
Mof_C 	C 	0.1816	0.2507	0.4372	-0.074
Mof_H 	H 	0.153	0.2366	0.4542	0.084
Mof_C 	C 	0.1093	0.194	0.205	-0.551
Mof_H 	H 	0.1426	0.204	0.2142	0.193
Mof_C 	C 	0.0818	0.2156	0.1632	-0.725
Mof_H 	H 	0.096	0.2396	0.1445	0.254
Mof_C 	C 	0.0125	0.1688	0.1783	-0.242
Mof_H 	H 	0.9783	0.1603	0.1705	0.093
Mof_C 	C 	0.0417	0.148	0.2192	-0.071
Mof_H 	H 	0.0276	0.1244	0.2392	0.034
Mof_C 	C 	0.265	0.0897	0.6489	-0.048
Mof_H 	H 	0.24	0.1043	0.626	0.048
Mof_C 	C 	0.2886	0.1082	0.6956	0.017
Mof_H 	H 	0.2786	0.136	0.7047	0.022
Mof_C 	C 	0.3436	0.0536	0.7066	0.03
Mof_H 	H 	0.3741	0.0426	0.7237	0.003
Mof_C 	C 	0.3214	0.0326	0.6618	-0.054
Mof_H 	H 	0.3355	0.0068	0.6487	0.034
Mof_Cd	Cd	0.6378	0.62562	0.3088	0.361
Mof_Cd	Cd	0.38543	0.62219	0.83049	0.316
Mof_O 	O 	0.6367	0.68679	0.371	-0.291
Mof_O 	O 	0.702	0.68323	0.3094	-0.262
Mof_O 	O 	0.8212	0.85083	0.3844	-0.291
Mof_O 	O 	0.834	0.8008	0.3182	-0.243
Mof_O 	O 	0.643	0.7812	0.5415	-0.121
Mof_O 	O 	0.7031	0.8278	0.5492	-0.116
Mof_N 	N 	0.5935	0.66056	0.2335	-0.145
Mof_N 	N 	0.4378	0.65322	0.9014	-0.162
Mof_N 	N 	0.6882	0.5947	0.3821	-0.159
Mof_N 	N 	0.8239	0.59149	0.7297	-0.142
Mof_N 	N 	0.6812	0.799	0.5224	-0.013
Mof_C 	C 	0.5971	0.7021	0.2285	0.576
Mof_H 	H 	0.6207	0.7167	0.2532	-0.158
Mof_C 	C 	0.5675	0.7242	0.1886	0.604
Mof_H 	H 	0.5692	0.7539	0.1878	-0.184
Mof_C 	C 	0.538	0.6598	0.1491	0.103
Mof_H 	H 	0.52	0.6434	0.1203	-0
Mof_C 	C 	0.568	0.6405	0.1917	0.125
Mof_H 	H 	0.5704	0.6108	0.1908	-0.016
Mof_C 	C 	0.534	0.7028	0.1482	0.103
Mof_C 	C 	0.4996	0.7254	0.1055	-0.072
Mof_H 	H 	0.4637	0.7155	0.1114	0.05
Mof_C 	C 	0.5116	0.7274	0.0369	-0.065
Mof_H 	H 	0.5494	0.7287	0.0303	0.068
Mof_C 	C 	0.4879	0.6978	0.9928	0.111
Mof_C 	C 	0.5063	0.6968	0.9337	-0.162
Mof_H 	H 	0.5368	0.7114	0.9236	0.103
Mof_C 	C 	0.4803	0.6746	0.8901	0.097
Mof_H 	H 	0.4935	0.6745	0.8502	-0.002
Mof_C 	C 	0.4208	0.6534	0.9591	0.093
Mof_H 	H 	0.3907	0.6381	0.9682	0.007
Mof_C 	C 	0.4443	0.6744	0.0051	-0.162
Mof_H 	H 	0.431	0.673	0.0449	0.092
Mof_C 	C 	0.6681	0.5918	0.4379	0.091
Mof_H 	H 	0.6361	0.605	0.445	-0.002
Mof_C 	C 	0.6905	0.5715	0.4844	-0.155
Mof_H 	H 	0.6745	0.5708	0.5228	0.08
Mof_C 	C 	0.7378	0.5516	0.4753	0.102
Mof_C 	C 	0.7598	0.5561	0.4189	-0.153
Mof_H 	H 	0.7925	0.5443	0.4108	0.082
Mof_C 	C 	0.7341	0.5779	0.3746	0.096
Mof_H 	H 	0.7502	0.581	0.3365	0.006
Mof_C 	C 	0.7609	0.5229	0.5208	-0.069
Mof_H 	H 	0.7988	0.5221	0.5153	0.052
Mof_C 	C 	0.7481	0.5244	0.5888	-0.053
Mof_H 	H 	0.7113	0.5323	0.5932	0.038
Mof_C 	C 	0.7782	0.5481	0.6346	0.057
Mof_C 	C 	0.78	0.5908	0.6348	-0.062
Mof_H 	H 	0.7666	0.6062	0.6017	0.05
Mof_C 	C 	0.8015	0.6116	0.6833	0.026
Mof_H 	H 	0.8004	0.6414	0.684	0.026
Mof_C 	C 	0.8207	0.5488	0.7298	0.003
Mof_H 	H 	0.8333	0.5342	0.764	0.015
Mof_C 	C 	0.8004	0.526	0.6836	-0.062
Mof_H 	H 	0.801	0.4963	0.6842	0.041
Mof_C 	C 	0.6792	0.6998	0.3522	0.294
Mof_C 	C 	0.7026	0.7374	0.3832	-0.03
Mof_C 	C 	0.7448	0.7577	0.3593	-0.014
Mof_H 	H 	0.7599	0.7475	0.3232	0.072
Mof_C 	C 	0.7653	0.7925	0.3873	-0.028
Mof_C 	C 	0.8104	0.8159	0.3621	0.293
Mof_C 	C 	0.7449	0.8058	0.4421	-0.077
Mof_H 	H 	0.7595	0.829	0.4627	0.087
Mof_C 	C 	0.7031	0.785	0.466	0.106
Mof_C 	C 	0.6816	0.7507	0.4372	-0.074
Mof_H 	H 	0.653	0.7366	0.4542	0.084
Mof_C 	C 	0.6093	0.694	0.205	-0.551
Mof_H 	H 	0.6426	0.704	0.2142	0.193
Mof_C 	C 	0.5818	0.7156	0.1632	-0.725
Mof_H 	H 	0.596	0.7396	0.1445	0.254
Mof_C 	C 	0.5125	0.6688	0.1783	-0.242
Mof_H 	H 	0.4783	0.6603	0.1705	0.093
Mof_C 	C 	0.5417	0.648	0.2192	-0.071
Mof_H 	H 	0.5276	0.6244	0.2392	0.034
Mof_C 	C 	0.765	0.5897	0.6489	-0.048
Mof_H 	H 	0.74	0.6043	0.626	0.048
Mof_C 	C 	0.7886	0.6082	0.6956	0.017
Mof_H 	H 	0.7786	0.636	0.7047	0.022
Mof_C 	C 	0.8436	0.5536	0.7066	0.03
Mof_H 	H 	0.8741	0.5426	0.7237	0.003
Mof_C 	C 	0.8214	0.5326	0.6618	-0.054
Mof_H 	H 	0.8355	0.5068	0.6487	0.034
Mof_Cd	Cd	0.3622	0.87438	0.3088	0.361
Mof_Cd	Cd	0.61457	0.87781	0.83049	0.316
Mof_O 	O 	0.3633	0.81321	0.371	-0.291
Mof_O 	O 	0.298	0.81677	0.3094	-0.262
Mof_O 	O 	0.1788	0.64917	0.3844	-0.291
Mof_O 	O 	0.166	0.6992	0.3182	-0.243
Mof_O 	O 	0.357	0.7188	0.5415	-0.121
Mof_O 	O 	0.2969	0.6722	0.5492	-0.116
Mof_N 	N 	0.4065	0.83944	0.2335	-0.145
Mof_N 	N 	0.5622	0.84678	0.9014	-0.162
Mof_N 	N 	0.3118	0.9053	0.3821	-0.159
Mof_N 	N 	0.1761	0.90851	0.7297	-0.142
Mof_N 	N 	0.3188	0.701	0.5224	-0.013
Mof_C 	C 	0.4029	0.7979	0.2285	0.577
Mof_H 	H 	0.3793	0.7833	0.2532	-0.158
Mof_C 	C 	0.4325	0.7758	0.1886	0.604
Mof_H 	H 	0.4308	0.7461	0.1878	-0.184
Mof_C 	C 	0.462	0.8402	0.1491	0.103
Mof_H 	H 	0.48	0.8566	0.1203	-0
Mof_C 	C 	0.432	0.8595	0.1917	0.125
Mof_H 	H 	0.4296	0.8892	0.1908	-0.016
Mof_C 	C 	0.466	0.7972	0.1482	0.103
Mof_C 	C 	0.5004	0.7746	0.1055	-0.072
Mof_H 	H 	0.5363	0.7845	0.1114	0.05
Mof_C 	C 	0.4884	0.7726	0.0369	-0.065
Mof_H 	H 	0.4506	0.7713	0.0303	0.068
Mof_C 	C 	0.5121	0.8022	0.9928	0.111
Mof_C 	C 	0.4937	0.8032	0.9337	-0.162
Mof_H 	H 	0.4632	0.7886	0.9236	0.103
Mof_C 	C 	0.5197	0.8254	0.8901	0.097
Mof_H 	H 	0.5065	0.8255	0.8502	-0.002
Mof_C 	C 	0.5792	0.8466	0.9591	0.093
Mof_H 	H 	0.6093	0.8619	0.9682	0.007
Mof_C 	C 	0.5557	0.8256	0.0051	-0.162
Mof_H 	H 	0.569	0.827	0.0449	0.092
Mof_C 	C 	0.3319	0.9082	0.4379	0.091
Mof_H 	H 	0.3639	0.895	0.445	-0.002
Mof_C 	C 	0.3095	0.9285	0.4844	-0.155
Mof_H 	H 	0.3255	0.9292	0.5228	0.08
Mof_C 	C 	0.2622	0.9484	0.4753	0.102
Mof_C 	C 	0.2402	0.9439	0.4189	-0.153
Mof_H 	H 	0.2075	0.9557	0.4108	0.082
Mof_C 	C 	0.2659	0.9221	0.3746	0.096
Mof_H 	H 	0.2498	0.919	0.3365	0.006
Mof_C 	C 	0.2391	0.9771	0.5208	-0.069
Mof_H 	H 	0.2012	0.9779	0.5153	0.052
Mof_C 	C 	0.2519	0.9756	0.5888	-0.053
Mof_H 	H 	0.2887	0.9677	0.5932	0.038
Mof_C 	C 	0.2218	0.9519	0.6346	0.057
Mof_C 	C 	0.22	0.9092	0.6348	-0.062
Mof_H 	H 	0.2334	0.8938	0.6017	0.05
Mof_C 	C 	0.1985	0.8884	0.6833	0.026
Mof_H 	H 	0.1996	0.8586	0.684	0.026
Mof_C 	C 	0.1793	0.9512	0.7298	0.003
Mof_H 	H 	0.1667	0.9658	0.764	0.015
Mof_C 	C 	0.1996	0.974	0.6836	-0.062
Mof_H 	H 	0.199	0.0037	0.6842	0.041
Mof_C 	C 	0.3208	0.8002	0.3522	0.294
Mof_C 	C 	0.2974	0.7626	0.3832	-0.03
Mof_C 	C 	0.2552	0.7423	0.3593	-0.014
Mof_H 	H 	0.2401	0.7525	0.3232	0.072
Mof_C 	C 	0.2347	0.7075	0.3873	-0.028
Mof_C 	C 	0.1896	0.6841	0.3621	0.293
Mof_C 	C 	0.2551	0.6942	0.4421	-0.077
Mof_H 	H 	0.2405	0.671	0.4627	0.087
Mof_C 	C 	0.2969	0.715	0.466	0.106
Mof_C 	C 	0.3184	0.7493	0.4372	-0.074
Mof_H 	H 	0.347	0.7634	0.4542	0.084
Mof_C 	C 	0.3907	0.806	0.205	-0.551
Mof_H 	H 	0.3574	0.796	0.2142	0.193
Mof_C 	C 	0.4182	0.7844	0.1632	-0.725
Mof_H 	H 	0.404	0.7604	0.1445	0.254
Mof_C 	C 	0.4875	0.8312	0.1783	-0.242
Mof_H 	H 	0.5217	0.8397	0.1705	0.093
Mof_C 	C 	0.4583	0.852	0.2192	-0.071
Mof_H 	H 	0.4724	0.8756	0.2392	0.034
Mof_C 	C 	0.235	0.9103	0.6489	-0.048
Mof_H 	H 	0.26	0.8957	0.626	0.048
Mof_C 	C 	0.2114	0.8918	0.6956	0.017
Mof_H 	H 	0.2214	0.864	0.7047	0.022
Mof_C 	C 	0.1564	0.9464	0.7066	0.03
Mof_H 	H 	0.1259	0.9574	0.7237	0.003
Mof_C 	C 	0.1786	0.9674	0.6618	-0.054
Mof_H 	H 	0.1645	0.9932	0.6487	0.034
Mof_Cd	Cd	0.8622	0.37438	0.3088	0.361
Mof_Cd	Cd	0.11457	0.37781	0.83049	0.316
Mof_O 	O 	0.8633	0.31321	0.371	-0.291
Mof_O 	O 	0.798	0.31677	0.3094	-0.263
Mof_O 	O 	0.6788	0.14917	0.3844	-0.291
Mof_O 	O 	0.666	0.1992	0.3182	-0.243
Mof_O 	O 	0.857	0.2188	0.5415	-0.121
Mof_O 	O 	0.7969	0.1722	0.5492	-0.116
Mof_N 	N 	0.9065	0.33944	0.2335	-0.145
Mof_N 	N 	0.0622	0.34678	0.9014	-0.162
Mof_N 	N 	0.8118	0.4053	0.3821	-0.159
Mof_N 	N 	0.6761	0.40851	0.7297	-0.142
Mof_N 	N 	0.8188	0.201	0.5224	-0.013
Mof_C 	C 	0.9029	0.2979	0.2285	0.576
Mof_H 	H 	0.8793	0.2833	0.2532	-0.158
Mof_C 	C 	0.9325	0.2758	0.1886	0.604
Mof_H 	H 	0.9308	0.2461	0.1878	-0.184
Mof_C 	C 	0.962	0.3402	0.1491	0.103
Mof_H 	H 	0.98	0.3566	0.1203	-0
Mof_C 	C 	0.932	0.3595	0.1917	0.125
Mof_H 	H 	0.9296	0.3892	0.1908	-0.016
Mof_C 	C 	0.966	0.2972	0.1482	0.103
Mof_C 	C 	0.0004	0.2746	0.1055	-0.072
Mof_H 	H 	0.0363	0.2845	0.1114	0.05
Mof_C 	C 	0.9884	0.2726	0.0369	-0.065
Mof_H 	H 	0.9506	0.2713	0.0303	0.068
Mof_C 	C 	0.0121	0.3022	0.9928	0.111
Mof_C 	C 	0.9937	0.3032	0.9337	-0.162
Mof_H 	H 	0.9632	0.2886	0.9236	0.103
Mof_C 	C 	0.0197	0.3254	0.8901	0.097
Mof_H 	H 	0.0065	0.3255	0.8502	-0.002
Mof_C 	C 	0.0792	0.3466	0.9591	0.093
Mof_H 	H 	0.1093	0.3619	0.9682	0.007
Mof_C 	C 	0.0557	0.3256	0.0051	-0.162
Mof_H 	H 	0.069	0.327	0.0449	0.092
Mof_C 	C 	0.8319	0.4082	0.4379	0.091
Mof_H 	H 	0.8639	0.395	0.445	-0.002
Mof_C 	C 	0.8095	0.4285	0.4844	-0.155
Mof_H 	H 	0.8255	0.4292	0.5228	0.08
Mof_C 	C 	0.7622	0.4484	0.4753	0.102
Mof_C 	C 	0.7402	0.4439	0.4189	-0.153
Mof_H 	H 	0.7075	0.4557	0.4108	0.082
Mof_C 	C 	0.7659	0.4221	0.3746	0.096
Mof_H 	H 	0.7498	0.419	0.3365	0.006
Mof_C 	C 	0.7391	0.4771	0.5208	-0.069
Mof_H 	H 	0.7012	0.4779	0.5153	0.052
Mof_C 	C 	0.7519	0.4756	0.5888	-0.053
Mof_H 	H 	0.7887	0.4677	0.5932	0.038
Mof_C 	C 	0.7218	0.4519	0.6346	0.057
Mof_C 	C 	0.72	0.4092	0.6348	-0.062
Mof_H 	H 	0.7334	0.3938	0.6017	0.05
Mof_C 	C 	0.6985	0.3884	0.6833	0.026
Mof_H 	H 	0.6996	0.3586	0.684	0.026
Mof_C 	C 	0.6793	0.4512	0.7298	0.003
Mof_H 	H 	0.6667	0.4658	0.764	0.015
Mof_C 	C 	0.6996	0.474	0.6836	-0.062
Mof_H 	H 	0.699	0.5037	0.6842	0.041
Mof_C 	C 	0.8208	0.3002	0.3522	0.294
Mof_C 	C 	0.7974	0.2626	0.3832	-0.03
Mof_C 	C 	0.7552	0.2423	0.3593	-0.014
Mof_H 	H 	0.7401	0.2525	0.3232	0.072
Mof_C 	C 	0.7347	0.2075	0.3873	-0.028
Mof_C 	C 	0.6896	0.1841	0.3621	0.293
Mof_C 	C 	0.7551	0.1942	0.4421	-0.077
Mof_H 	H 	0.7405	0.171	0.4627	0.087
Mof_C 	C 	0.7969	0.215	0.466	0.106
Mof_C 	C 	0.8184	0.2493	0.4372	-0.074
Mof_H 	H 	0.847	0.2634	0.4542	0.084
Mof_C 	C 	0.8907	0.306	0.205	-0.551
Mof_H 	H 	0.8574	0.296	0.2142	0.193
Mof_C 	C 	0.9182	0.2844	0.1632	-0.725
Mof_H 	H 	0.904	0.2604	0.1445	0.254
Mof_C 	C 	0.9875	0.3312	0.1783	-0.242
Mof_H 	H 	0.0217	0.3397	0.1705	0.093
Mof_C 	C 	0.9583	0.352	0.2192	-0.071
Mof_H 	H 	0.9724	0.3756	0.2392	0.034
Mof_C 	C 	0.735	0.4103	0.6489	-0.048
Mof_H 	H 	0.76	0.3957	0.626	0.048
Mof_C 	C 	0.7114	0.3918	0.6956	0.017
Mof_H 	H 	0.7214	0.364	0.7047	0.022
Mof_C 	C 	0.6564	0.4464	0.7066	0.03
Mof_H 	H 	0.6259	0.4574	0.7237	0.003
Mof_C 	C 	0.6786	0.4674	0.6618	-0.054
Mof_H 	H 	0.6645	0.4932	0.6487	0.034
Mof_Cd	Cd	0.8622	0.87438	0.6912	0.361
Mof_Cd	Cd	0.11457	0.87781	0.16951	0.316
Mof_O 	O 	0.8633	0.81321	0.629	-0.291
Mof_O 	O 	0.798	0.81677	0.6906	-0.263
Mof_O 	O 	0.6788	0.64917	0.6156	-0.291
Mof_O 	O 	0.666	0.6992	0.6818	-0.243
Mof_O 	O 	0.857	0.7188	0.4585	-0.121
Mof_O 	O 	0.7969	0.6722	0.4508	-0.116
Mof_N 	N 	0.9065	0.83944	0.7665	-0.145
Mof_N 	N 	0.0622	0.84678	0.0986	-0.162
Mof_N 	N 	0.8118	0.9053	0.6179	-0.159
Mof_N 	N 	0.6761	0.90851	0.2703	-0.142
Mof_N 	N 	0.8188	0.701	0.4776	-0.013
Mof_C 	C 	0.9029	0.7979	0.7715	0.577
Mof_H 	H 	0.8793	0.7833	0.7468	-0.158
Mof_C 	C 	0.9325	0.7758	0.8114	0.604
Mof_H 	H 	0.9308	0.7461	0.8122	-0.184
Mof_C 	C 	0.962	0.8402	0.8509	0.103
Mof_H 	H 	0.98	0.8566	0.8797	-0
Mof_C 	C 	0.932	0.8595	0.8083	0.125
Mof_H 	H 	0.9296	0.8892	0.8092	-0.016
Mof_C 	C 	0.966	0.7972	0.8518	0.103
Mof_C 	C 	0.0004	0.7746	0.8945	-0.072
Mof_H 	H 	0.0363	0.7845	0.8886	0.05
Mof_C 	C 	0.9884	0.7726	0.9631	-0.065
Mof_H 	H 	0.9506	0.7713	0.9697	0.068
Mof_C 	C 	0.0121	0.8022	0.0072	0.111
Mof_C 	C 	0.9937	0.8032	0.0663	-0.162
Mof_H 	H 	0.9632	0.7886	0.0764	0.103
Mof_C 	C 	0.0197	0.8254	0.1099	0.098
Mof_H 	H 	0.0065	0.8255	0.1498	-0.002
Mof_C 	C 	0.0792	0.8466	0.0409	0.093
Mof_H 	H 	0.1093	0.8619	0.0318	0.007
Mof_C 	C 	0.0557	0.8256	0.9949	-0.162
Mof_H 	H 	0.069	0.827	0.9551	0.092
Mof_C 	C 	0.8319	0.9082	0.5621	0.091
Mof_H 	H 	0.8639	0.895	0.555	-0.002
Mof_C 	C 	0.8095	0.9285	0.5156	-0.155
Mof_H 	H 	0.8255	0.9292	0.4772	0.08
Mof_C 	C 	0.7622	0.9484	0.5247	0.102
Mof_C 	C 	0.7402	0.9439	0.5811	-0.153
Mof_H 	H 	0.7075	0.9557	0.5892	0.082
Mof_C 	C 	0.7659	0.9221	0.6254	0.096
Mof_H 	H 	0.7498	0.919	0.6635	0.006
Mof_C 	C 	0.7391	0.9771	0.4792	-0.069
Mof_H 	H 	0.7012	0.9779	0.4847	0.052
Mof_C 	C 	0.7519	0.9756	0.4112	-0.053
Mof_H 	H 	0.7887	0.9677	0.4068	0.038
Mof_C 	C 	0.7218	0.9519	0.3654	0.057
Mof_C 	C 	0.72	0.9092	0.3652	-0.062
Mof_H 	H 	0.7334	0.8938	0.3983	0.05
Mof_C 	C 	0.6985	0.8884	0.3167	0.026
Mof_H 	H 	0.6996	0.8586	0.316	0.026
Mof_C 	C 	0.6793	0.9512	0.2702	0.003
Mof_H 	H 	0.6667	0.9658	0.236	0.015
Mof_C 	C 	0.6996	0.974	0.3164	-0.062
Mof_H 	H 	0.699	0.0037	0.3158	0.041
Mof_C 	C 	0.8208	0.8002	0.6478	0.294
Mof_C 	C 	0.7974	0.7626	0.6168	-0.03
Mof_C 	C 	0.7552	0.7423	0.6407	-0.014
Mof_H 	H 	0.7401	0.7525	0.6768	0.072
Mof_C 	C 	0.7347	0.7075	0.6127	-0.028
Mof_C 	C 	0.6896	0.6841	0.6379	0.293
Mof_C 	C 	0.7551	0.6942	0.5579	-0.077
Mof_H 	H 	0.7405	0.671	0.5373	0.087
Mof_C 	C 	0.7969	0.715	0.534	0.106
Mof_C 	C 	0.8184	0.7493	0.5628	-0.074
Mof_H 	H 	0.847	0.7634	0.5458	0.084
Mof_C 	C 	0.8907	0.806	0.795	-0.551
Mof_H 	H 	0.8574	0.796	0.7858	0.193
Mof_C 	C 	0.9182	0.7844	0.8368	-0.725
Mof_H 	H 	0.904	0.7604	0.8555	0.254
Mof_C 	C 	0.9875	0.8312	0.8217	-0.242
Mof_H 	H 	0.0217	0.8397	0.8295	0.093
Mof_C 	C 	0.9583	0.852	0.7808	-0.071
Mof_H 	H 	0.9724	0.8756	0.7608	0.034
Mof_C 	C 	0.735	0.9103	0.3511	-0.048
Mof_H 	H 	0.76	0.8957	0.374	0.048
Mof_C 	C 	0.7114	0.8918	0.3044	0.017
Mof_H 	H 	0.7214	0.864	0.2953	0.022
Mof_C 	C 	0.6564	0.9464	0.2934	0.03
Mof_H 	H 	0.6259	0.9574	0.2763	0.003
Mof_C 	C 	0.6786	0.9674	0.3382	-0.054
Mof_H 	H 	0.6645	0.9932	0.3513	0.034
Mof_Cd	Cd	0.3622	0.37438	0.6912	0.361
Mof_Cd	Cd	0.61457	0.37781	0.16951	0.316
Mof_O 	O 	0.3633	0.31321	0.629	-0.291
Mof_O 	O 	0.298	0.31677	0.6906	-0.262
Mof_O 	O 	0.1788	0.14917	0.6156	-0.291
Mof_O 	O 	0.166	0.1992	0.6818	-0.243
Mof_O 	O 	0.357	0.2188	0.4585	-0.121
Mof_O 	O 	0.2969	0.1722	0.4508	-0.116
Mof_N 	N 	0.4065	0.33944	0.7665	-0.145
Mof_N 	N 	0.5622	0.34678	0.0986	-0.162
Mof_N 	N 	0.3118	0.4053	0.6179	-0.159
Mof_N 	N 	0.1761	0.40851	0.2703	-0.142
Mof_N 	N 	0.3188	0.201	0.4776	-0.013
Mof_C 	C 	0.4029	0.2979	0.7715	0.576
Mof_H 	H 	0.3793	0.2833	0.7468	-0.158
Mof_C 	C 	0.4325	0.2758	0.8114	0.604
Mof_H 	H 	0.4308	0.2461	0.8122	-0.184
Mof_C 	C 	0.462	0.3402	0.8509	0.103
Mof_H 	H 	0.48	0.3566	0.8797	-0
Mof_C 	C 	0.432	0.3595	0.8083	0.125
Mof_H 	H 	0.4296	0.3892	0.8092	-0.016
Mof_C 	C 	0.466	0.2972	0.8518	0.103
Mof_C 	C 	0.5004	0.2746	0.8945	-0.072
Mof_H 	H 	0.5363	0.2845	0.8886	0.05
Mof_C 	C 	0.4884	0.2726	0.9631	-0.065
Mof_H 	H 	0.4506	0.2713	0.9697	0.068
Mof_C 	C 	0.5121	0.3022	0.0072	0.111
Mof_C 	C 	0.4937	0.3032	0.0663	-0.162
Mof_H 	H 	0.4632	0.2886	0.0764	0.103
Mof_C 	C 	0.5197	0.3254	0.1099	0.097
Mof_H 	H 	0.5065	0.3255	0.1498	-0.002
Mof_C 	C 	0.5792	0.3466	0.0409	0.093
Mof_H 	H 	0.6093	0.3619	0.0318	0.007
Mof_C 	C 	0.5557	0.3256	0.9949	-0.162
Mof_H 	H 	0.569	0.327	0.9551	0.092
Mof_C 	C 	0.3319	0.4082	0.5621	0.091
Mof_H 	H 	0.3639	0.395	0.555	-0.002
Mof_C 	C 	0.3095	0.4285	0.5156	-0.155
Mof_H 	H 	0.3255	0.4292	0.4772	0.08
Mof_C 	C 	0.2622	0.4484	0.5247	0.102
Mof_C 	C 	0.2402	0.4439	0.5811	-0.153
Mof_H 	H 	0.2075	0.4557	0.5892	0.082
Mof_C 	C 	0.2659	0.4221	0.6254	0.096
Mof_H 	H 	0.2498	0.419	0.6635	0.006
Mof_C 	C 	0.2391	0.4771	0.4792	-0.069
Mof_H 	H 	0.2012	0.4779	0.4847	0.052
Mof_C 	C 	0.2519	0.4756	0.4112	-0.053
Mof_H 	H 	0.2887	0.4677	0.4068	0.038
Mof_C 	C 	0.2218	0.4519	0.3654	0.057
Mof_C 	C 	0.22	0.4092	0.3652	-0.062
Mof_H 	H 	0.2334	0.3938	0.3983	0.05
Mof_C 	C 	0.1985	0.3884	0.3167	0.026
Mof_H 	H 	0.1996	0.3586	0.316	0.026
Mof_C 	C 	0.1793	0.4512	0.2702	0.003
Mof_H 	H 	0.1667	0.4658	0.236	0.015
Mof_C 	C 	0.1996	0.474	0.3164	-0.062
Mof_H 	H 	0.199	0.5037	0.3158	0.041
Mof_C 	C 	0.3208	0.3002	0.6478	0.294
Mof_C 	C 	0.2974	0.2626	0.6168	-0.03
Mof_C 	C 	0.2552	0.2423	0.6407	-0.014
Mof_H 	H 	0.2401	0.2525	0.6768	0.072
Mof_C 	C 	0.2347	0.2075	0.6127	-0.028
Mof_C 	C 	0.1896	0.1841	0.6379	0.293
Mof_C 	C 	0.2551	0.1942	0.5579	-0.077
Mof_H 	H 	0.2405	0.171	0.5373	0.087
Mof_C 	C 	0.2969	0.215	0.534	0.106
Mof_C 	C 	0.3184	0.2493	0.5628	-0.074
Mof_H 	H 	0.347	0.2634	0.5458	0.084
Mof_C 	C 	0.3907	0.306	0.795	-0.551
Mof_H 	H 	0.3574	0.296	0.7858	0.193
Mof_C 	C 	0.4182	0.2844	0.8368	-0.725
Mof_H 	H 	0.404	0.2604	0.8555	0.254
Mof_C 	C 	0.4875	0.3312	0.8217	-0.242
Mof_H 	H 	0.5217	0.3397	0.8295	0.093
Mof_C 	C 	0.4583	0.352	0.7808	-0.071
Mof_H 	H 	0.4724	0.3756	0.7608	0.034
Mof_C 	C 	0.235	0.4103	0.3511	-0.048
Mof_H 	H 	0.26	0.3957	0.374	0.048
Mof_C 	C 	0.2114	0.3918	0.3044	0.017
Mof_H 	H 	0.2214	0.364	0.2953	0.022
Mof_C 	C 	0.1564	0.4464	0.2934	0.03
Mof_H 	H 	0.1259	0.4574	0.2763	0.003
Mof_C 	C 	0.1786	0.4674	0.3382	-0.054
Mof_H 	H 	0.1645	0.4932	0.3513	0.034
Mof_Cd	Cd	0.6378	0.12562	0.6912	0.361
Mof_Cd	Cd	0.38543	0.12219	0.16951	0.316
Mof_O 	O 	0.6367	0.18679	0.629	-0.291
Mof_O 	O 	0.702	0.18323	0.6906	-0.262
Mof_O 	O 	0.8212	0.35083	0.6156	-0.291
Mof_O 	O 	0.834	0.3008	0.6818	-0.243
Mof_O 	O 	0.643	0.2812	0.4585	-0.121
Mof_O 	O 	0.7031	0.3278	0.4508	-0.116
Mof_N 	N 	0.5935	0.16056	0.7665	-0.145
Mof_N 	N 	0.4378	0.15322	0.0986	-0.162
Mof_N 	N 	0.6882	0.0947	0.6179	-0.159
Mof_N 	N 	0.8239	0.09149	0.2703	-0.142
Mof_N 	N 	0.6812	0.299	0.4776	-0.013
Mof_C 	C 	0.5971	0.2021	0.7715	0.577
Mof_H 	H 	0.6207	0.2167	0.7468	-0.158
Mof_C 	C 	0.5675	0.2242	0.8114	0.604
Mof_H 	H 	0.5692	0.2539	0.8122	-0.184
Mof_C 	C 	0.538	0.1598	0.8509	0.103
Mof_H 	H 	0.52	0.1434	0.8797	-0
Mof_C 	C 	0.568	0.1405	0.8083	0.125
Mof_H 	H 	0.5704	0.1108	0.8092	-0.016
Mof_C 	C 	0.534	0.2028	0.8518	0.103
Mof_C 	C 	0.4996	0.2254	0.8945	-0.072
Mof_H 	H 	0.4637	0.2155	0.8886	0.05
Mof_C 	C 	0.5116	0.2274	0.9631	-0.065
Mof_H 	H 	0.5494	0.2287	0.9697	0.068
Mof_C 	C 	0.4879	0.1978	0.0072	0.111
Mof_C 	C 	0.5063	0.1968	0.0663	-0.162
Mof_H 	H 	0.5368	0.2114	0.0764	0.103
Mof_C 	C 	0.4803	0.1746	0.1099	0.097
Mof_H 	H 	0.4935	0.1745	0.1498	-0.002
Mof_C 	C 	0.4208	0.1534	0.0409	0.093
Mof_H 	H 	0.3907	0.1381	0.0318	0.007
Mof_C 	C 	0.4443	0.1744	0.9949	-0.162
Mof_H 	H 	0.431	0.173	0.9551	0.092
Mof_C 	C 	0.6681	0.0918	0.5621	0.091
Mof_H 	H 	0.6361	0.105	0.555	-0.002
Mof_C 	C 	0.6905	0.0715	0.5156	-0.155
Mof_H 	H 	0.6745	0.0708	0.4772	0.08
Mof_C 	C 	0.7378	0.0516	0.5247	0.102
Mof_C 	C 	0.7598	0.0561	0.5811	-0.153
Mof_H 	H 	0.7925	0.0443	0.5892	0.082
Mof_C 	C 	0.7341	0.0779	0.6254	0.096
Mof_H 	H 	0.7502	0.081	0.6635	0.006
Mof_C 	C 	0.7609	0.0229	0.4792	-0.069
Mof_H 	H 	0.7988	0.0221	0.4847	0.052
Mof_C 	C 	0.7481	0.0244	0.4112	-0.053
Mof_H 	H 	0.7113	0.0323	0.4068	0.038
Mof_C 	C 	0.7782	0.0481	0.3654	0.057
Mof_C 	C 	0.78	0.0908	0.3652	-0.062
Mof_H 	H 	0.7666	0.1062	0.3983	0.05
Mof_C 	C 	0.8015	0.1116	0.3167	0.026
Mof_H 	H 	0.8004	0.1414	0.316	0.026
Mof_C 	C 	0.8207	0.0488	0.2702	0.003
Mof_H 	H 	0.8333	0.0342	0.236	0.015
Mof_C 	C 	0.8004	0.026	0.3164	-0.062
Mof_H 	H 	0.801	0.9963	0.3158	0.041
Mof_C 	C 	0.6792	0.1998	0.6478	0.294
Mof_C 	C 	0.7026	0.2374	0.6168	-0.03
Mof_C 	C 	0.7448	0.2577	0.6407	-0.014
Mof_H 	H 	0.7599	0.2475	0.6768	0.072
Mof_C 	C 	0.7653	0.2925	0.6127	-0.028
Mof_C 	C 	0.8104	0.3159	0.6379	0.293
Mof_C 	C 	0.7449	0.3058	0.5579	-0.077
Mof_H 	H 	0.7595	0.329	0.5373	0.087
Mof_C 	C 	0.7031	0.285	0.534	0.106
Mof_C 	C 	0.6816	0.2507	0.5628	-0.074
Mof_H 	H 	0.653	0.2366	0.5458	0.084
Mof_C 	C 	0.6093	0.194	0.795	-0.551
Mof_H 	H 	0.6426	0.204	0.7858	0.193
Mof_C 	C 	0.5818	0.2156	0.8368	-0.725
Mof_H 	H 	0.596	0.2396	0.8555	0.254
Mof_C 	C 	0.5125	0.1688	0.8217	-0.242
Mof_H 	H 	0.4783	0.1603	0.8295	0.093
Mof_C 	C 	0.5417	0.148	0.7808	-0.071
Mof_H 	H 	0.5276	0.1244	0.7608	0.034
Mof_C 	C 	0.765	0.0897	0.3511	-0.048
Mof_H 	H 	0.74	0.1043	0.374	0.048
Mof_C 	C 	0.7886	0.1082	0.3044	0.017
Mof_H 	H 	0.7786	0.136	0.2953	0.022
Mof_C 	C 	0.8436	0.0536	0.2934	0.03
Mof_H 	H 	0.8741	0.0426	0.2763	0.003
Mof_C 	C 	0.8214	0.0326	0.3382	-0.054
Mof_H 	H 	0.8355	0.0068	0.3513	0.034
Mof_Cd	Cd	0.1378	0.62562	0.6912	0.361
Mof_Cd	Cd	0.88543	0.62219	0.16951	0.316
Mof_O 	O 	0.1367	0.68679	0.629	-0.291
Mof_O 	O 	0.202	0.68323	0.6906	-0.263
Mof_O 	O 	0.3212	0.85083	0.6156	-0.291
Mof_O 	O 	0.334	0.8008	0.6818	-0.243
Mof_O 	O 	0.143	0.7812	0.4585	-0.121
Mof_O 	O 	0.2031	0.8278	0.4508	-0.116
Mof_N 	N 	0.0935	0.66056	0.7665	-0.145
Mof_N 	N 	0.9378	0.65322	0.0986	-0.162
Mof_N 	N 	0.1882	0.5947	0.6179	-0.159
Mof_N 	N 	0.3239	0.59149	0.2703	-0.142
Mof_N 	N 	0.1812	0.799	0.4776	-0.013
Mof_C 	C 	0.0971	0.7021	0.7715	0.576
Mof_H 	H 	0.1207	0.7167	0.7468	-0.158
Mof_C 	C 	0.0675	0.7242	0.8114	0.604
Mof_H 	H 	0.0692	0.7539	0.8122	-0.184
Mof_C 	C 	0.038	0.6598	0.8509	0.103
Mof_H 	H 	0.02	0.6434	0.8797	-0
Mof_C 	C 	0.068	0.6405	0.8083	0.125
Mof_H 	H 	0.0704	0.6108	0.8092	-0.016
Mof_C 	C 	0.034	0.7028	0.8518	0.103
Mof_C 	C 	0.9996	0.7254	0.8945	-0.072
Mof_H 	H 	0.9637	0.7155	0.8886	0.05
Mof_C 	C 	0.0116	0.7274	0.9631	-0.065
Mof_H 	H 	0.0494	0.7287	0.9697	0.068
Mof_C 	C 	0.9879	0.6978	0.0072	0.111
Mof_C 	C 	0.0063	0.6968	0.0663	-0.162
Mof_H 	H 	0.0368	0.7114	0.0764	0.103
Mof_C 	C 	0.9803	0.6746	0.1099	0.097
Mof_H 	H 	0.9935	0.6745	0.1498	-0.002
Mof_C 	C 	0.9208	0.6534	0.0409	0.093
Mof_H 	H 	0.8907	0.6381	0.0318	0.007
Mof_C 	C 	0.9443	0.6744	0.9949	-0.162
Mof_H 	H 	0.931	0.673	0.9551	0.092
Mof_C 	C 	0.1681	0.5918	0.5621	0.091
Mof_H 	H 	0.1361	0.605	0.555	-0.002
Mof_C 	C 	0.1905	0.5715	0.5156	-0.155
Mof_H 	H 	0.1745	0.5708	0.4772	0.08
Mof_C 	C 	0.2378	0.5516	0.5247	0.102
Mof_C 	C 	0.2598	0.5561	0.5811	-0.153
Mof_H 	H 	0.2925	0.5443	0.5892	0.082
Mof_C 	C 	0.2341	0.5779	0.6254	0.096
Mof_H 	H 	0.2502	0.581	0.6635	0.006
Mof_C 	C 	0.2609	0.5229	0.4792	-0.069
Mof_H 	H 	0.2988	0.5221	0.4847	0.052
Mof_C 	C 	0.2481	0.5244	0.4112	-0.053
Mof_H 	H 	0.2113	0.5323	0.4068	0.038
Mof_C 	C 	0.2782	0.5481	0.3654	0.057
Mof_C 	C 	0.28	0.5908	0.3652	-0.062
Mof_H 	H 	0.2666	0.6062	0.3983	0.05
Mof_C 	C 	0.3015	0.6116	0.3167	0.026
Mof_H 	H 	0.3004	0.6414	0.316	0.026
Mof_C 	C 	0.3207	0.5488	0.2702	0.003
Mof_H 	H 	0.3333	0.5342	0.236	0.015
Mof_C 	C 	0.3004	0.526	0.3164	-0.062
Mof_H 	H 	0.301	0.4963	0.3158	0.041
Mof_C 	C 	0.1792	0.6998	0.6478	0.294
Mof_C 	C 	0.2026	0.7374	0.6168	-0.03
Mof_C 	C 	0.2448	0.7577	0.6407	-0.014
Mof_H 	H 	0.2599	0.7475	0.6768	0.072
Mof_C 	C 	0.2653	0.7925	0.6127	-0.028
Mof_C 	C 	0.3104	0.8159	0.6379	0.293
Mof_C 	C 	0.2449	0.8058	0.5579	-0.077
Mof_H 	H 	0.2595	0.829	0.5373	0.087
Mof_C 	C 	0.2031	0.785	0.534	0.106
Mof_C 	C 	0.1816	0.7507	0.5628	-0.074
Mof_H 	H 	0.153	0.7366	0.5458	0.084
Mof_C 	C 	0.1093	0.694	0.795	-0.551
Mof_H 	H 	0.1426	0.704	0.7858	0.193
Mof_C 	C 	0.0818	0.7156	0.8368	-0.725
Mof_H 	H 	0.096	0.7396	0.8555	0.254
Mof_C 	C 	0.0125	0.6688	0.8217	-0.242
Mof_H 	H 	0.9783	0.6603	0.8295	0.093
Mof_C 	C 	0.0417	0.648	0.7808	-0.071
Mof_H 	H 	0.0276	0.6244	0.7608	0.034
Mof_C 	C 	0.265	0.5897	0.3511	-0.048
Mof_H 	H 	0.24	0.6043	0.374	0.048
Mof_C 	C 	0.2886	0.6082	0.3044	0.017
Mof_H 	H 	0.2786	0.636	0.2953	0.022
Mof_C 	C 	0.3436	0.5536	0.2934	0.03
Mof_H 	H 	0.3741	0.5426	0.2763	0.003
Mof_C 	C 	0.3214	0.5326	0.3382	-0.054
Mof_H 	H 	0.3355	0.5068	0.3513	0.034
Mof_Cd	Cd	0.8622	0.12562	0.1912	0.361
Mof_Cd	Cd	0.11457	0.12219	0.66951	0.316
Mof_O 	O 	0.8633	0.18679	0.129	-0.291
Mof_O 	O 	0.798	0.18323	0.1906	-0.263
Mof_O 	O 	0.6788	0.35083	0.1156	-0.291
Mof_O 	O 	0.666	0.3008	0.1818	-0.243
Mof_O 	O 	0.857	0.2812	0.9585	-0.121
Mof_O 	O 	0.7969	0.3278	0.9508	-0.116
Mof_N 	N 	0.9065	0.16056	0.2665	-0.145
Mof_N 	N 	0.0622	0.15322	0.5986	-0.162
Mof_N 	N 	0.8118	0.0947	0.1179	-0.159
Mof_N 	N 	0.6761	0.09149	0.7703	-0.142
Mof_N 	N 	0.8188	0.299	0.9776	-0.013
Mof_C 	C 	0.9029	0.2021	0.2715	0.577
Mof_H 	H 	0.8793	0.2167	0.2468	-0.158
Mof_C 	C 	0.9325	0.2242	0.3114	0.604
Mof_H 	H 	0.9308	0.2539	0.3122	-0.184
Mof_C 	C 	0.962	0.1598	0.3509	0.103
Mof_H 	H 	0.98	0.1434	0.3797	-0
Mof_C 	C 	0.932	0.1405	0.3083	0.125
Mof_H 	H 	0.9296	0.1108	0.3092	-0.016
Mof_C 	C 	0.966	0.2028	0.3518	0.103
Mof_C 	C 	0.0004	0.2254	0.3945	-0.072
Mof_H 	H 	0.0363	0.2155	0.3886	0.05
Mof_C 	C 	0.9884	0.2274	0.4631	-0.065
Mof_H 	H 	0.9506	0.2287	0.4697	0.068
Mof_C 	C 	0.0121	0.1978	0.5072	0.111
Mof_C 	C 	0.9937	0.1968	0.5663	-0.162
Mof_H 	H 	0.9632	0.2114	0.5764	0.103
Mof_C 	C 	0.0197	0.1746	0.6099	0.098
Mof_H 	H 	0.0065	0.1745	0.6498	-0.002
Mof_C 	C 	0.0792	0.1534	0.5409	0.093
Mof_H 	H 	0.1093	0.1381	0.5318	0.007
Mof_C 	C 	0.0557	0.1744	0.4949	-0.162
Mof_H 	H 	0.069	0.173	0.4551	0.092
Mof_C 	C 	0.8319	0.0918	0.0621	0.091
Mof_H 	H 	0.8639	0.105	0.055	-0.002
Mof_C 	C 	0.8095	0.0715	0.0156	-0.155
Mof_H 	H 	0.8255	0.0708	0.9772	0.08
Mof_C 	C 	0.7622	0.0516	0.0247	0.102
Mof_C 	C 	0.7402	0.0561	0.0811	-0.153
Mof_H 	H 	0.7075	0.0443	0.0892	0.082
Mof_C 	C 	0.7659	0.0779	0.1254	0.096
Mof_H 	H 	0.7498	0.081	0.1635	0.006
Mof_C 	C 	0.7391	0.0229	0.9792	-0.069
Mof_H 	H 	0.7012	0.0221	0.9847	0.052
Mof_C 	C 	0.7519	0.0244	0.9112	-0.053
Mof_H 	H 	0.7887	0.0323	0.9068	0.038
Mof_C 	C 	0.7218	0.0481	0.8654	0.057
Mof_C 	C 	0.72	0.0908	0.8652	-0.062
Mof_H 	H 	0.7334	0.1062	0.8983	0.05
Mof_C 	C 	0.6985	0.1116	0.8167	0.026
Mof_H 	H 	0.6996	0.1414	0.816	0.026
Mof_C 	C 	0.6793	0.0488	0.7702	0.003
Mof_H 	H 	0.6667	0.0342	0.736	0.015
Mof_C 	C 	0.6996	0.026	0.8164	-0.062
Mof_H 	H 	0.699	0.9963	0.8158	0.041
Mof_C 	C 	0.8208	0.1998	0.1478	0.294
Mof_C 	C 	0.7974	0.2374	0.1168	-0.03
Mof_C 	C 	0.7552	0.2577	0.1407	-0.014
Mof_H 	H 	0.7401	0.2475	0.1768	0.072
Mof_C 	C 	0.7347	0.2925	0.1127	-0.028
Mof_C 	C 	0.6896	0.3159	0.1379	0.293
Mof_C 	C 	0.7551	0.3058	0.0579	-0.077
Mof_H 	H 	0.7405	0.329	0.0373	0.087
Mof_C 	C 	0.7969	0.285	0.034	0.106
Mof_C 	C 	0.8184	0.2507	0.0628	-0.074
Mof_H 	H 	0.847	0.2366	0.0458	0.084
Mof_C 	C 	0.8907	0.194	0.295	-0.551
Mof_H 	H 	0.8574	0.204	0.2858	0.193
Mof_C 	C 	0.9182	0.2156	0.3368	-0.725
Mof_H 	H 	0.904	0.2396	0.3555	0.254
Mof_C 	C 	0.9875	0.1688	0.3217	-0.242
Mof_H 	H 	0.0217	0.1603	0.3295	0.093
Mof_C 	C 	0.9583	0.148	0.2808	-0.071
Mof_H 	H 	0.9724	0.1244	0.2608	0.034
Mof_C 	C 	0.735	0.0897	0.8511	-0.048
Mof_H 	H 	0.76	0.1043	0.874	0.048
Mof_C 	C 	0.7114	0.1082	0.8044	0.017
Mof_H 	H 	0.7214	0.136	0.7953	0.022
Mof_C 	C 	0.6564	0.0536	0.7934	0.03
Mof_H 	H 	0.6259	0.0426	0.7763	0.003
Mof_C 	C 	0.6786	0.0326	0.8382	-0.054
Mof_H 	H 	0.6645	0.0068	0.8513	0.034
Mof_Cd	Cd	0.3622	0.62562	0.1912	0.361
Mof_Cd	Cd	0.61457	0.62219	0.66951	0.316
Mof_O 	O 	0.3633	0.68679	0.129	-0.291
Mof_O 	O 	0.298	0.68323	0.1906	-0.263
Mof_O 	O 	0.1788	0.85083	0.1156	-0.291
Mof_O 	O 	0.166	0.8008	0.1818	-0.243
Mof_O 	O 	0.357	0.7812	0.9585	-0.121
Mof_O 	O 	0.2969	0.8278	0.9508	-0.116
Mof_N 	N 	0.4065	0.66056	0.2665	-0.145
Mof_N 	N 	0.5622	0.65322	0.5986	-0.162
Mof_N 	N 	0.3118	0.5947	0.1179	-0.159
Mof_N 	N 	0.1761	0.59149	0.7703	-0.142
Mof_N 	N 	0.3188	0.799	0.9776	-0.013
Mof_C 	C 	0.4029	0.7021	0.2715	0.577
Mof_H 	H 	0.3793	0.7167	0.2468	-0.158
Mof_C 	C 	0.4325	0.7242	0.3114	0.604
Mof_H 	H 	0.4308	0.7539	0.3122	-0.184
Mof_C 	C 	0.462	0.6598	0.3509	0.103
Mof_H 	H 	0.48	0.6434	0.3797	-0
Mof_C 	C 	0.432	0.6405	0.3083	0.125
Mof_H 	H 	0.4296	0.6108	0.3092	-0.016
Mof_C 	C 	0.466	0.7028	0.3518	0.103
Mof_C 	C 	0.5004	0.7254	0.3945	-0.072
Mof_H 	H 	0.5363	0.7155	0.3886	0.05
Mof_C 	C 	0.4884	0.7274	0.4631	-0.065
Mof_H 	H 	0.4506	0.7287	0.4697	0.068
Mof_C 	C 	0.5121	0.6978	0.5072	0.111
Mof_C 	C 	0.4937	0.6968	0.5663	-0.162
Mof_H 	H 	0.4632	0.7114	0.5764	0.103
Mof_C 	C 	0.5197	0.6746	0.6099	0.098
Mof_H 	H 	0.5065	0.6745	0.6498	-0.002
Mof_C 	C 	0.5792	0.6534	0.5409	0.093
Mof_H 	H 	0.6093	0.6381	0.5318	0.007
Mof_C 	C 	0.5557	0.6744	0.4949	-0.162
Mof_H 	H 	0.569	0.673	0.4551	0.092
Mof_C 	C 	0.3319	0.5918	0.0621	0.091
Mof_H 	H 	0.3639	0.605	0.055	-0.002
Mof_C 	C 	0.3095	0.5715	0.0156	-0.155
Mof_H 	H 	0.3255	0.5708	0.9772	0.08
Mof_C 	C 	0.2622	0.5516	0.0247	0.102
Mof_C 	C 	0.2402	0.5561	0.0811	-0.153
Mof_H 	H 	0.2075	0.5443	0.0892	0.082
Mof_C 	C 	0.2659	0.5779	0.1254	0.096
Mof_H 	H 	0.2498	0.581	0.1635	0.006
Mof_C 	C 	0.2391	0.5229	0.9792	-0.069
Mof_H 	H 	0.2012	0.5221	0.9847	0.052
Mof_C 	C 	0.2519	0.5244	0.9112	-0.053
Mof_H 	H 	0.2887	0.5323	0.9068	0.038
Mof_C 	C 	0.2218	0.5481	0.8654	0.057
Mof_C 	C 	0.22	0.5908	0.8652	-0.062
Mof_H 	H 	0.2334	0.6062	0.8983	0.05
Mof_C 	C 	0.1985	0.6116	0.8167	0.026
Mof_H 	H 	0.1996	0.6414	0.816	0.026
Mof_C 	C 	0.1793	0.5488	0.7702	0.003
Mof_H 	H 	0.1667	0.5342	0.736	0.015
Mof_C 	C 	0.1996	0.526	0.8164	-0.062
Mof_H 	H 	0.199	0.4963	0.8158	0.041
Mof_C 	C 	0.3208	0.6998	0.1478	0.294
Mof_C 	C 	0.2974	0.7374	0.1168	-0.03
Mof_C 	C 	0.2552	0.7577	0.1407	-0.014
Mof_H 	H 	0.2401	0.7475	0.1768	0.072
Mof_C 	C 	0.2347	0.7925	0.1127	-0.028
Mof_C 	C 	0.1896	0.8159	0.1379	0.293
Mof_C 	C 	0.2551	0.8058	0.0579	-0.077
Mof_H 	H 	0.2405	0.829	0.0373	0.087
Mof_C 	C 	0.2969	0.785	0.034	0.106
Mof_C 	C 	0.3184	0.7507	0.0628	-0.074
Mof_H 	H 	0.347	0.7366	0.0458	0.084
Mof_C 	C 	0.3907	0.694	0.295	-0.551
Mof_H 	H 	0.3574	0.704	0.2858	0.193
Mof_C 	C 	0.4182	0.7156	0.3368	-0.725
Mof_H 	H 	0.404	0.7396	0.3555	0.254
Mof_C 	C 	0.4875	0.6688	0.3217	-0.242
Mof_H 	H 	0.5217	0.6603	0.3295	0.093
Mof_C 	C 	0.4583	0.648	0.2808	-0.071
Mof_H 	H 	0.4724	0.6244	0.2608	0.034
Mof_C 	C 	0.235	0.5897	0.8511	-0.048
Mof_H 	H 	0.26	0.6043	0.874	0.048
Mof_C 	C 	0.2114	0.6082	0.8044	0.017
Mof_H 	H 	0.2214	0.636	0.7953	0.022
Mof_C 	C 	0.1564	0.5536	0.7934	0.03
Mof_H 	H 	0.1259	0.5426	0.7763	0.003
Mof_C 	C 	0.1786	0.5326	0.8382	-0.054
Mof_H 	H 	0.1645	0.5068	0.8513	0.034
Mof_Cd	Cd	0.6378	0.87438	0.1912	0.361
Mof_Cd	Cd	0.38543	0.87781	0.66951	0.316
Mof_O 	O 	0.6367	0.81321	0.129	-0.291
Mof_O 	O 	0.702	0.81677	0.1906	-0.263
Mof_O 	O 	0.8212	0.64917	0.1156	-0.291
Mof_O 	O 	0.834	0.6992	0.1818	-0.243
Mof_O 	O 	0.643	0.7188	0.9585	-0.121
Mof_O 	O 	0.7031	0.6722	0.9508	-0.116
Mof_N 	N 	0.5935	0.83944	0.2665	-0.145
Mof_N 	N 	0.4378	0.84678	0.5986	-0.162
Mof_N 	N 	0.6882	0.9053	0.1179	-0.159
Mof_N 	N 	0.8239	0.90851	0.7703	-0.142
Mof_N 	N 	0.6812	0.701	0.9776	-0.013
Mof_C 	C 	0.5971	0.7979	0.2715	0.577
Mof_H 	H 	0.6207	0.7833	0.2468	-0.158
Mof_C 	C 	0.5675	0.7758	0.3114	0.604
Mof_H 	H 	0.5692	0.7461	0.3122	-0.184
Mof_C 	C 	0.538	0.8402	0.3509	0.103
Mof_H 	H 	0.52	0.8566	0.3797	-0
Mof_C 	C 	0.568	0.8595	0.3083	0.125
Mof_H 	H 	0.5704	0.8892	0.3092	-0.016
Mof_C 	C 	0.534	0.7972	0.3518	0.103
Mof_C 	C 	0.4996	0.7746	0.3945	-0.072
Mof_H 	H 	0.4637	0.7845	0.3886	0.05
Mof_C 	C 	0.5116	0.7726	0.4631	-0.065
Mof_H 	H 	0.5494	0.7713	0.4697	0.068
Mof_C 	C 	0.4879	0.8022	0.5072	0.111
Mof_C 	C 	0.5063	0.8032	0.5663	-0.162
Mof_H 	H 	0.5368	0.7886	0.5764	0.103
Mof_C 	C 	0.4803	0.8254	0.6099	0.098
Mof_H 	H 	0.4935	0.8255	0.6498	-0.002
Mof_C 	C 	0.4208	0.8466	0.5409	0.093
Mof_H 	H 	0.3907	0.8619	0.5318	0.007
Mof_C 	C 	0.4443	0.8256	0.4949	-0.162
Mof_H 	H 	0.431	0.827	0.4551	0.092
Mof_C 	C 	0.6681	0.9082	0.0621	0.091
Mof_H 	H 	0.6361	0.895	0.055	-0.002
Mof_C 	C 	0.6905	0.9285	0.0156	-0.155
Mof_H 	H 	0.6745	0.9292	0.9772	0.08
Mof_C 	C 	0.7378	0.9484	0.0247	0.102
Mof_C 	C 	0.7598	0.9439	0.0811	-0.153
Mof_H 	H 	0.7925	0.9557	0.0892	0.082
Mof_C 	C 	0.7341	0.9221	0.1254	0.096
Mof_H 	H 	0.7502	0.919	0.1635	0.006
Mof_C 	C 	0.7609	0.9771	0.9792	-0.069
Mof_H 	H 	0.7988	0.9779	0.9847	0.052
Mof_C 	C 	0.7481	0.9756	0.9112	-0.053
Mof_H 	H 	0.7113	0.9677	0.9068	0.038
Mof_C 	C 	0.7782	0.9519	0.8654	0.057
Mof_C 	C 	0.78	0.9092	0.8652	-0.062
Mof_H 	H 	0.7666	0.8938	0.8983	0.05
Mof_C 	C 	0.8015	0.8884	0.8167	0.026
Mof_H 	H 	0.8004	0.8586	0.816	0.026
Mof_C 	C 	0.8207	0.9512	0.7702	0.003
Mof_H 	H 	0.8333	0.9658	0.736	0.015
Mof_C 	C 	0.8004	0.974	0.8164	-0.062
Mof_H 	H 	0.801	0.0037	0.8158	0.041
Mof_C 	C 	0.6792	0.8002	0.1478	0.294
Mof_C 	C 	0.7026	0.7626	0.1168	-0.03
Mof_C 	C 	0.7448	0.7423	0.1407	-0.014
Mof_H 	H 	0.7599	0.7525	0.1768	0.072
Mof_C 	C 	0.7653	0.7075	0.1127	-0.028
Mof_C 	C 	0.8104	0.6841	0.1379	0.293
Mof_C 	C 	0.7449	0.6942	0.0579	-0.077
Mof_H 	H 	0.7595	0.671	0.0373	0.087
Mof_C 	C 	0.7031	0.715	0.034	0.106
Mof_C 	C 	0.6816	0.7493	0.0628	-0.074
Mof_H 	H 	0.653	0.7634	0.0458	0.084
Mof_C 	C 	0.6093	0.806	0.295	-0.551
Mof_H 	H 	0.6426	0.796	0.2858	0.193
Mof_C 	C 	0.5818	0.7844	0.3368	-0.725
Mof_H 	H 	0.596	0.7604	0.3555	0.254
Mof_C 	C 	0.5125	0.8312	0.3217	-0.242
Mof_H 	H 	0.4783	0.8397	0.3295	0.093
Mof_C 	C 	0.5417	0.852	0.2808	-0.071
Mof_H 	H 	0.5276	0.8756	0.2608	0.034
Mof_C 	C 	0.765	0.9103	0.8511	-0.048
Mof_H 	H 	0.74	0.8957	0.874	0.048
Mof_C 	C 	0.7886	0.8918	0.8044	0.017
Mof_H 	H 	0.7786	0.864	0.7953	0.022
Mof_C 	C 	0.8436	0.9464	0.7934	0.03
Mof_H 	H 	0.8741	0.9574	0.7763	0.003
Mof_C 	C 	0.8214	0.9674	0.8382	-0.054
Mof_H 	H 	0.8355	0.9932	0.8513	0.034
Mof_Cd	Cd	0.1378	0.37438	0.1912	0.361
Mof_Cd	Cd	0.88543	0.37781	0.66951	0.316
Mof_O 	O 	0.1367	0.31321	0.129	-0.291
Mof_O 	O 	0.202	0.31677	0.1906	-0.263
Mof_O 	O 	0.3212	0.14917	0.1156	-0.291
Mof_O 	O 	0.334	0.1992	0.1818	-0.243
Mof_O 	O 	0.143	0.2188	0.9585	-0.121
Mof_O 	O 	0.2031	0.1722	0.9508	-0.116
Mof_N 	N 	0.0935	0.33944	0.2665	-0.145
Mof_N 	N 	0.9378	0.34678	0.5986	-0.162
Mof_N 	N 	0.1882	0.4053	0.1179	-0.159
Mof_N 	N 	0.3239	0.40851	0.7703	-0.142
Mof_N 	N 	0.1812	0.201	0.9776	-0.013
Mof_C 	C 	0.0971	0.2979	0.2715	0.577
Mof_H 	H 	0.1207	0.2833	0.2468	-0.158
Mof_C 	C 	0.0675	0.2758	0.3114	0.604
Mof_H 	H 	0.0692	0.2461	0.3122	-0.184
Mof_C 	C 	0.038	0.3402	0.3509	0.103
Mof_H 	H 	0.02	0.3566	0.3797	-0
Mof_C 	C 	0.068	0.3595	0.3083	0.125
Mof_H 	H 	0.0704	0.3892	0.3092	-0.016
Mof_C 	C 	0.034	0.2972	0.3518	0.103
Mof_C 	C 	0.9996	0.2746	0.3945	-0.072
Mof_H 	H 	0.9637	0.2845	0.3886	0.05
Mof_C 	C 	0.0116	0.2726	0.4631	-0.065
Mof_H 	H 	0.0494	0.2713	0.4697	0.068
Mof_C 	C 	0.9879	0.3022	0.5072	0.111
Mof_C 	C 	0.0063	0.3032	0.5663	-0.162
Mof_H 	H 	0.0368	0.2886	0.5764	0.103
Mof_C 	C 	0.9803	0.3254	0.6099	0.098
Mof_H 	H 	0.9935	0.3255	0.6498	-0.002
Mof_C 	C 	0.9208	0.3466	0.5409	0.093
Mof_H 	H 	0.8907	0.3619	0.5318	0.007
Mof_C 	C 	0.9443	0.3256	0.4949	-0.162
Mof_H 	H 	0.931	0.327	0.4551	0.092
Mof_C 	C 	0.1681	0.4082	0.0621	0.091
Mof_H 	H 	0.1361	0.395	0.055	-0.002
Mof_C 	C 	0.1905	0.4285	0.0156	-0.155
Mof_H 	H 	0.1745	0.4292	0.9772	0.08
Mof_C 	C 	0.2378	0.4484	0.0247	0.102
Mof_C 	C 	0.2598	0.4439	0.0811	-0.153
Mof_H 	H 	0.2925	0.4557	0.0892	0.082
Mof_C 	C 	0.2341	0.4221	0.1254	0.096
Mof_H 	H 	0.2502	0.419	0.1635	0.006
Mof_C 	C 	0.2609	0.4771	0.9792	-0.069
Mof_H 	H 	0.2988	0.4779	0.9847	0.052
Mof_C 	C 	0.2481	0.4756	0.9112	-0.053
Mof_H 	H 	0.2113	0.4677	0.9068	0.038
Mof_C 	C 	0.2782	0.4519	0.8654	0.057
Mof_C 	C 	0.28	0.4092	0.8652	-0.062
Mof_H 	H 	0.2666	0.3938	0.8983	0.05
Mof_C 	C 	0.3015	0.3884	0.8167	0.026
Mof_H 	H 	0.3004	0.3586	0.816	0.026
Mof_C 	C 	0.3207	0.4512	0.7702	0.003
Mof_H 	H 	0.3333	0.4658	0.736	0.015
Mof_C 	C 	0.3004	0.474	0.8164	-0.062
Mof_H 	H 	0.301	0.5037	0.8158	0.041
Mof_C 	C 	0.1792	0.3002	0.1478	0.294
Mof_C 	C 	0.2026	0.2626	0.1168	-0.03
Mof_C 	C 	0.2448	0.2423	0.1407	-0.014
Mof_H 	H 	0.2599	0.2525	0.1768	0.072
Mof_C 	C 	0.2653	0.2075	0.1127	-0.028
Mof_C 	C 	0.3104	0.1841	0.1379	0.293
Mof_C 	C 	0.2449	0.1942	0.0579	-0.077
Mof_H 	H 	0.2595	0.171	0.0373	0.087
Mof_C 	C 	0.2031	0.215	0.034	0.106
Mof_C 	C 	0.1816	0.2493	0.0628	-0.074
Mof_H 	H 	0.153	0.2634	0.0458	0.084
Mof_C 	C 	0.1093	0.306	0.295	-0.551
Mof_H 	H 	0.1426	0.296	0.2858	0.193
Mof_C 	C 	0.0818	0.2844	0.3368	-0.725
Mof_H 	H 	0.096	0.2604	0.3555	0.254
Mof_C 	C 	0.0125	0.3312	0.3217	-0.242
Mof_H 	H 	0.9783	0.3397	0.3295	0.093
Mof_C 	C 	0.0417	0.352	0.2808	-0.071
Mof_H 	H 	0.0276	0.3756	0.2608	0.034
Mof_C 	C 	0.265	0.4103	0.8511	-0.048
Mof_H 	H 	0.24	0.3957	0.874	0.048
Mof_C 	C 	0.2886	0.3918	0.8044	0.017
Mof_H 	H 	0.2786	0.364	0.7953	0.022
Mof_C 	C 	0.3436	0.4464	0.7934	0.03
Mof_H 	H 	0.3741	0.4574	0.7763	0.003
Mof_C 	C 	0.3214	0.4674	0.8382	-0.054
Mof_H 	H 	0.3355	0.4932	0.8513	0.034
_end
