# CIF file generated by openbabel 3.1.0, see https://openbabel.org
data_I
_chemical_name_common 'image0'
_cell_length_a 11.2644
_cell_length_b 12.7025
_cell_length_c 13.2365
_cell_angle_alpha 97.922
_cell_angle_beta 112.939
_cell_angle_gamma 109.088
_space_group_name_H-M_alt 'P 1'
_space_group_name_Hall 'P 1'
loop_
    _symmetry_equiv_pos_as_xyz
    x,y,z
loop_
    _atom_site_label
    _atom_site_type_symbol
    _atom_site_fract_x
    _atom_site_fract_y
    _atom_site_fract_z
    _atom_site_occupancy
    Mn1      Mn       0.89498    0.06990    0.22334    1.000
    C1       C        0.97110    0.22880    0.12670    1.000
    C2       C        0.98070    0.31800    0.06250    1.000
    C3       C        0.00570    0.42830    0.11520    1.000
    H1       H        0.02150    0.44820    0.19100    1.000
    C4       C        0.00820    0.51340    0.05610    1.000
    C5       C        0.03130    0.63000    0.10520    1.000
    C6       C        0.96020    0.28690    0.94950    1.000
    H2       H        0.94120    0.21110    0.91260    1.000
    C7       C        0.16560    0.03140    0.26690    1.000
    C8       C        0.29390    0.00660    0.33360    1.000
    C9       C        0.34570    0.04030    0.45160    1.000
    H3       H        0.30060    0.07280    0.48370    1.000
    C10      C        0.52620    0.06080    0.64630    1.000
    C11      C        0.46430    0.02620    0.52290    1.000
    C12      C        0.36020    0.95550    0.28380    1.000
    H4       H        0.32650    0.93350    0.20440    1.000
    C13      C        0.29110    0.03910    0.38310    1.000
    C14      C        0.32850    0.08920    0.49710    1.000
    H5       H        0.27580    0.12430    0.51540    1.000
    C15      C        0.44460    0.08600    0.58260    1.000
    C16      C        0.51920    0.02580    0.55660    1.000
    C17      C        0.35940    0.98160    0.35290    1.000
    H6       H        0.33000    0.94700    0.27560    1.000
    C18      C        0.78160    0.82320    0.05820    1.000
    C19      C        0.68140    0.69570    0.02400    1.000
    C20      C        0.60750    0.65920    0.08030    1.000
    H7       H        0.62020    0.71290    0.14320    1.000
    C21      C        0.51030    0.54100    0.04690    1.000
    C22      C        0.66000    0.61650    0.92890    1.000
    H8       H        0.71110    0.64040    0.88920    1.000
    C23      C        0.43590    0.49640    0.10650    1.000
    O1       O        0.99440    0.26020    0.22790    1.000
    O2       O        0.93140    0.12250    0.07240    1.000
    O3       O        0.09860    0.07080    0.31040    1.000
    O4       O        0.13840    0.00410    0.16800    1.000
    O5       O        0.79960    0.88930    0.14630    1.000
    O6       O        0.83370    0.84990    0.99280    1.000
    N1       N        0.04560    0.66510    0.22100    1.000
    O7       O        0.95050    0.59260    0.23910    1.000
    O8       O        0.12890    0.75500    0.28370    1.000
    N2       N        0.47360    0.13000    0.70260    1.000
    O9       O        0.42210    0.18880    0.66660    1.000
    O10      O        0.46770    0.09920    0.78930    1.000
    O11      O        0.37600    0.12460    0.71350    1.000
    O12      O        0.60230    0.20350    0.77390    1.000
    N3       N        0.49290    0.56790    0.23400    1.000
    O13      O        0.61800    0.63370    0.29720    1.000
    O14      O        0.39950    0.55390    0.26240    1.000
    S1       S        0.92010    0.17790    0.49300    1.000
    O15      O        0.86410    0.09330    0.37830    1.000
    C24      C        0.99100    0.32130    0.48390    1.000
    H9       H        0.91650    0.33490    0.42830    1.000
    H10      H        0.06320    0.32910    0.46070    1.000
    H11      H        0.03070    0.37740    0.55780    1.000
    C25      C        0.07400    0.17600    0.60000    1.000
    H12      H        0.05110    0.10150    0.61360    1.000
    H13      H        0.11100    0.23680    0.66960    1.000
    H14      H        0.14490    0.18860    0.57340    1.000
    C26      C        0.05800    0.32400    0.50660    1.000
    C27      C        0.05900    0.14900    0.59500    1.000
    H15      H        0.05120    0.35500    0.44350    1.000
    H16      H        0.13940    0.37870    0.57610    1.000
    H17      H        0.97380    0.31010    0.51530    1.000
    H18      H        0.14010    0.19600    0.66770    1.000
    H19      H        0.05780    0.07230    0.57540    1.000
    H20      H        0.97420    0.14180    0.59870    1.000
    N4       N        0.64630    0.41930    0.86610    1.000
    O16      O        0.65960    0.33530    0.89790    1.000
    O17      O        0.66800    0.44110    0.79000    1.000
    O18      O        0.93440    0.12310    0.38910    1.000
    O19      O        0.02400    0.74390    0.24990    1.000
    O20      O        0.14400    0.64730    0.30870    1.000
    S2       S        0.07140    0.21640    0.48420    1.000
    Mn2      Mn       0.10502    0.93010    0.77666    1.000
    C28      C        0.02890    0.77120    0.87330    1.000
    C29      C        0.01930    0.68200    0.93750    1.000
    C30      C        0.99430    0.57170    0.88480    1.000
    H21      H        0.97850    0.55180    0.80900    1.000
    C31      C        0.99180    0.48660    0.94390    1.000
    C32      C        0.96870    0.37000    0.89480    1.000
    C33      C        0.03980    0.71310    0.05050    1.000
    H22      H        0.05880    0.78890    0.08740    1.000
    C34      C        0.83440    0.96860    0.73310    1.000
    C35      C        0.70610    0.99340    0.66640    1.000
    C36      C        0.65430    0.95970    0.54840    1.000
    H23      H        0.69940    0.92720    0.51630    1.000
    C37      C        0.47380    0.93920    0.35370    1.000
    C38      C        0.53570    0.97380    0.47710    1.000
    C39      C        0.63980    0.04450    0.71620    1.000
    H24      H        0.67350    0.06650    0.79560    1.000
    C40      C        0.70890    0.96090    0.61690    1.000
    C41      C        0.67150    0.91080    0.50290    1.000
    H25      H        0.72420    0.87570    0.48460    1.000
    C42      C        0.55540    0.91400    0.41740    1.000
    C43      C        0.48080    0.97420    0.44340    1.000
    C44      C        0.64060    0.01840    0.64710    1.000
    H26      H        0.67000    0.05300    0.72440    1.000
    C45      C        0.21840    0.17680    0.94180    1.000
    C46      C        0.31860    0.30430    0.97600    1.000
    C47      C        0.39250    0.34080    0.91970    1.000
    H27      H        0.37980    0.28710    0.85680    1.000
    C48      C        0.48970    0.45900    0.95310    1.000
    C49      C        0.34000    0.38350    0.07110    1.000
    H28      H        0.28890    0.35960    0.11080    1.000
    C50      C        0.56410    0.50360    0.89350    1.000
    O21      O        0.00560    0.73980    0.77210    1.000
    O22      O        0.06860    0.87750    0.92760    1.000
    O23      O        0.90140    0.92920    0.68960    1.000
    O24      O        0.86160    0.99590    0.83200    1.000
    O25      O        0.20040    0.11070    0.85370    1.000
    O26      O        0.16630    0.15010    0.00720    1.000
    N5       N        0.95440    0.33490    0.77900    1.000
    O27      O        0.04950    0.40740    0.76090    1.000
    O28      O        0.87110    0.24500    0.71630    1.000
    N6       N        0.52640    0.87000    0.29740    1.000
    O29      O        0.57790    0.81120    0.33340    1.000
    O30      O        0.53230    0.90080    0.21070    1.000
    O31      O        0.62400    0.87540    0.28650    1.000
    O32      O        0.39770    0.79650    0.22610    1.000
    N7       N        0.50710    0.43210    0.76600    1.000
    O33      O        0.38200    0.36630    0.70280    1.000
    O34      O        0.60050    0.44610    0.73760    1.000
    S3       S        0.07990    0.82210    0.50700    1.000
    O35      O        0.13590    0.90670    0.62170    1.000
    C51      C        0.00900    0.67870    0.51610    1.000
    H29      H        0.08350    0.66510    0.57170    1.000
    H30      H        0.93680    0.67090    0.53930    1.000
    H31      H        0.96930    0.62260    0.44220    1.000
    C52      C        0.92600    0.82400    0.40000    1.000
    H32      H        0.94890    0.89850    0.38640    1.000
    H33      H        0.88900    0.76320    0.33040    1.000
    H34      H        0.85510    0.81140    0.42660    1.000
    C53      C        0.94200    0.67600    0.49340    1.000
    C54      C        0.94100    0.85100    0.40500    1.000
    H35      H        0.94880    0.64500    0.55650    1.000
    H36      H        0.86060    0.62130    0.42390    1.000
    H37      H        0.02620    0.68990    0.48470    1.000
    H38      H        0.85990    0.80400    0.33230    1.000
    H39      H        0.94220    0.92770    0.42460    1.000
    H40      H        0.02580    0.85820    0.40130    1.000
    N8       N        0.35370    0.58070    0.13390    1.000
    O36      O        0.34040    0.66470    0.10210    1.000
    O37      O        0.33200    0.55890    0.21000    1.000
    O38      O        0.06560    0.87690    0.61090    1.000
    O39      O        0.97600    0.25610    0.75010    1.000
    O40      O        0.85600    0.35270    0.69130    1.000
    S4       S        0.92860    0.78360    0.51580    1.000
    Mn3      Mn       0.00000    0.00000    0.00000    1.000
