data_functionalizedCrystal
_audit_creation_method	'EQeq! by Chris Wilmer'
_symmetry_space_group_name_H-M	'P1'
_symmetry_Int_Tables_number	1
_symmetry_cell_setting	triclinic
loop_
_symmetry_equiv_pos_as_xyz
  x,y,z
_cell_length_a	34.9115
_cell_length_b	41.3131
_cell_length_c	28.971
_cell_angle_alpha	90
_cell_angle_beta	90
_cell_angle_gamma	90
loop_
_atom_site_label
_atom_site_type_symbol
_atom_site_fract_x
_atom_site_fract_y
_atom_site_fract_z
_atom_site_charge
Mof_H 	H 	0.1176	0.9948	0.4729	0.066
Mof_C 	C 	0.1463	0.0621	0.4533	0.517
Mof_H 	H 	0.1612	0.0515	0.4294	-0.096
Mof_H 	H 	0.146	0.0852	0.4468	-0.061
Mof_C 	C 	0.1054	0.049	0.4532	0.369
Mof_H 	H 	0.0879	0.0663	0.445	-0.019
Mof_H 	H 	0.1032	0.0322	0.43	-0.063
Mof_H 	H 	0.1763	0.0125	0.5271	0.073
Mof_C 	C 	0.45124	0.9885	0.9386	0.366
Mof_C 	C 	0.42103	0.98112	0.9031	-0.124
Mof_C 	C 	0.401	0.00584	0.8816	0.067
Mof_H 	H 	0.4067	0.0272	0.8889	0.028
Mof_C 	C 	0.3728	0.99932	0.8498	-0.143
Mof_H 	H 	0.3601	0.0162	0.8353	0.086
Mof_C 	C 	0.36326	0.96726	0.8393	0.093
Mof_C 	C 	0.3833	0.94274	0.8604	-0.143
Mof_H 	H 	0.3776	0.9212	0.8538	0.09
Mof_C 	C 	0.4124	0.95043	0.8919	0.07
Mof_H 	H 	0.4261	0.9337	0.9056	0.031
Mof_C 	C 	0.33191	0.95918	0.80593	-0.039
Mof_C 	C 	0.3069	0.93441	0.8152	0.028
Mof_H 	H 	0.3101	0.9229	0.8425	0.008
Mof_C 	C 	0.27392	0.94215	0.7488	0.036
Mof_H 	H 	0.2542	0.9358	0.7291	0.004
Mof_C 	C 	0.29631	0.96775	0.73579	-0.045
Mof_C 	C 	0.32613	0.97592	0.7654	-0.027
Mof_H 	H 	0.3424	0.9929	0.7577	0.042
Mof_C 	C 	0.2906	0.98515	0.69007	0.105
Mof_C 	C 	0.25439	0.98912	0.6715	-0.164
Mof_H 	H 	0.2331	0.9807	0.6867	0.089
Mof_C 	C 	0.24989	0.00551	0.63055	0.098
Mof_H 	H 	0.2255	0.0078	0.6182	0.012
Mof_C 	C 	0.28017	0.01837	0.60787	-0.164
Mof_C 	C 	0.31604	0.01361	0.6244	0.101
Mof_H 	H 	0.337	0.0212	0.6079	0.013
Mof_C 	C 	0.32153	0.99776	0.665	-0.165
Mof_H 	H 	0.3463	0.9952	0.6764	0.091
Mof_C 	C 	0.2742	0.03812	0.56631	0.383
Mof_C 	C 	0.2533	0.12143	0.44094	0.357
Mof_C 	C 	0.2474	0.1496	0.40827	-0.139
Mof_C 	C 	0.2132	0.15481	0.3864	0.088
Mof_H 	H 	0.1926	0.1412	0.3923	0.013
Mof_C 	C 	0.209	0.17967	0.3561	-0.167
Mof_H 	H 	0.1856	0.1829	0.3416	0.091
Mof_C 	C 	0.239	0.20001	0.3468	0.107
Mof_C 	C 	0.2733	0.19538	0.3702	-0.164
Mof_H 	H 	0.2938	0.2093	0.3651	0.094
Mof_C 	C 	0.2768	0.17045	0.4005	0.086
Mof_H 	H 	0.2997	0.1676	0.4163	0.018
Mof_C 	C 	0.23685	0.22658	0.31134	-0.043
Mof_C 	C 	0.25049	0.25723	0.32012	0.032
Mof_H 	H 	0.2613	0.2613	0.3489	0.004
Mof_C 	C 	0.23285	0.27521	0.24843	0.015
Mof_H 	H 	0.2318	0.2919	0.2269	0.014
Mof_C 	C 	0.21776	0.24554	0.2367	-0.032
Mof_C 	C 	0.21965	0.22116	0.2694	-0.033
Mof_H 	H 	0.2092	0.201	0.263	0.044
Mof_C 	C 	0.2007	0.24012	0.1907	0.079
Mof_C 	C 	0.177	0.26254	0.1695	-0.129
Mof_H 	H 	0.173	0.2824	0.1838	0.077
Mof_C 	C 	0.159	0.25628	0.1272	0.054
Mof_H 	H 	0.1433	0.2717	0.1134	0.026
Mof_C 	C 	0.16506	0.22686	0.1069	-0.115
Mof_C 	C 	0.1889	0.20365	0.1268	0.05
Mof_H 	H 	0.193	0.1839	0.1123	0.027
Mof_C 	C 	0.2062	0.21069	0.1683	-0.13
Mof_H 	H 	0.2221	0.1953	0.1818	0.077
Mof_C 	C 	0.1433	0.2167	0.06379	0.366
Mof_C 	C 	0.97834	0.03718	0.43605	0.372
Mof_C 	C 	0.96584	0.05583	0.39457	-0.143
Mof_C 	C 	0.93093	0.04997	0.37415	0.083
Mof_H 	H 	0.9144	0.0349	0.3873	0.016
Mof_C 	C 	0.92004	0.06587	0.3349	-0.16
Mof_H 	H 	0.8966	0.0609	0.3215	0.087
Mof_C 	C 	0.94276	0.08893	0.31487	0.103
Mof_C 	C 	0.9776	0.09577	0.3357	-0.155
Mof_H 	H 	0.9936	0.1116	0.3234	0.086
Mof_C 	C 	0.98858	0.07897	0.37509	0.08
Mof_H 	H 	0.0121	0.0836	0.3886	0.017
Mof_C 	C 	0.93209	0.10568	0.27094	-0.045
Mof_C 	C 	0.89439	0.11113	0.25905	0.03
Mof_H 	H 	0.8753	0.1046	0.2795	0.007
Mof_C 	C 	0.96022	0.11535	0.2385	-0.027
Mof_H 	H 	0.9859	0.1117	0.245	0.04
Mof_C 	C 	0.95026	0.12994	0.1982	-0.043
Mof_C 	C 	0.91137	0.13418	0.1895	0.02
Mof_H 	H 	0.9041	0.1436	0.1617	0.005
Mof_C 	C 	0.97825	0.14139	0.1645	0.104
Mof_C 	C 	0.0088	0.12345	0.1514	-0.158
Mof_H 	H 	0.0129	0.1034	0.165	0.087
Mof_C 	C 	0.03389	0.1343	0.1184	0.07
Mof_H 	H 	0.0545	0.1214	0.1096	0.02
Mof_C 	C 	0.0287	0.16452	0.098	-0.127
Mof_C 	C 	0.9979	0.1831	0.1114	0.075
Mof_H 	H 	0.994	0.2034	0.0986	0.018
Mof_C 	C 	0.97343	0.1714	0.1436	-0.158
Mof_H 	H 	0.9525	0.184	0.152	0.091
Mof_C 	C 	0.0565	0.17647	0.0602	0.367
Mof_C 	C 	0.82726	0.13403	0.0267	-0.114
Mof_H 	H 	0.8368	0.1134	0.0379	0.049
Mof_H 	H 	0.8442	0.1509	0.0379	0.049
Mof_C 	C 	0.7752	0.17142	0.02671	-0.123
Mof_H 	H 	0.7918	0.1885	0.038	0.051
Mof_H 	H 	0.7495	0.1755	0.038	0.051
Mof_C 	C 	0.7648	0.1132	0.02737	-0.114
Mof_H 	H 	0.7388	0.116	0.0387	0.047
Mof_H 	H 	0.7743	0.0926	0.0387	0.048
Mof_Cu	Cu	0.8286	0.13266	0.19857	0.723
Mof_Cu	Cu	0.75748	0.11063	0.19252	0.72
Mof_Cu	Cu	0.78785	0.13938	0.11713	0.727
Mof_Cu	Cu	0.77007	0.17406	0.19302	0.721
Mof_I 	I 	0.83336	0.18769	0.14358	-0.584
Mof_I 	I 	0.7826	0.13984	0.27006	-0.59
Mof_I 	I 	0.81372	0.0818	0.14346	-0.594
Mof_I 	I 	0.71401	0.14942	0.13907	-0.587
Mof_N 	N 	0.2786	0.92597	0.78752	-0.223
Mof_N 	N 	0.24917	0.28125	0.29005	-0.219
Mof_N 	N 	0.8839	0.12535	0.21947	-0.22
Mof_N 	N 	0.78896	0.13944	0.04437	-0.156
Mof_O 	O 	0.47017	0.96497	0.95248	-0.396
Mof_O 	O 	0.45361	0.01779	0.95186	-0.39
Mof_O 	O 	0.30336	0.05085	0.54839	-0.408
Mof_O 	O 	0.24077	0.04073	0.5497	-0.402
Mof_O 	O 	0.28705	0.11545	0.45354	-0.41
Mof_O 	O 	0.22309	0.10607	0.45283	-0.389
Mof_O 	O 	0.0109	0.04318	0.45165	-0.402
Mof_O 	O 	0.95475	0.01656	0.45149	-0.405
Mof_O 	O 	0.08172	0.15675	0.04675	-0.416
Mof_O 	O 	0.05178	0.20497	0.04691	-0.422
Mof_O 	O 	0.14969	0.18905	0.04806	-0.422
Mof_O 	O 	0.12024	0.23752	0.04868	-0.413
Mof_C 	C 	0.141	0.0803	0.4735	-0.173
Mof_H 	H 	0.1593	0.0653	0.4601	-0.229
Mof_H 	H 	0.1439	0.1017	0.4601	0.112
Mof_C 	C 	0.0986	0.0675	0.4729	-0.159
Mof_H 	H 	0.0804	0.0826	0.4594	0.087
Mof_H 	H 	0.0958	0.0461	0.4594	-0.187
Mof_H 	H 	0.8824	0.0052	0.4729	0.065
Mof_C 	C 	0.8537	0.9379	0.4533	0.516
Mof_H 	H 	0.8388	0.9485	0.4294	-0.097
Mof_H 	H 	0.854	0.9148	0.4468	-0.062
Mof_C 	C 	0.8946	0.951	0.4532	0.368
Mof_H 	H 	0.9121	0.9337	0.445	-0.02
Mof_H 	H 	0.8968	0.9678	0.43	-0.064
Mof_H 	H 	0.8237	0.9875	0.5271	0.072
Mof_C 	C 	0.54876	0.0115	0.9386	0.366
Mof_C 	C 	0.57897	0.01888	0.9031	-0.124
Mof_C 	C 	0.599	0.99416	0.8816	0.067
Mof_H 	H 	0.5933	0.9728	0.8889	0.028
Mof_C 	C 	0.6272	0.00068	0.8498	-0.143
Mof_H 	H 	0.6399	0.9838	0.8353	0.086
Mof_C 	C 	0.63674	0.03274	0.8393	0.093
Mof_C 	C 	0.6167	0.05726	0.8604	-0.143
Mof_H 	H 	0.6224	0.0788	0.8538	0.09
Mof_C 	C 	0.5876	0.04957	0.8919	0.07
Mof_H 	H 	0.5739	0.0663	0.9056	0.031
Mof_C 	C 	0.66809	0.04082	0.80593	-0.039
Mof_C 	C 	0.6931	0.06559	0.8152	0.028
Mof_H 	H 	0.6899	0.0771	0.8425	0.008
Mof_C 	C 	0.72608	0.05785	0.7488	0.036
Mof_H 	H 	0.7458	0.0642	0.7291	0.004
Mof_C 	C 	0.70369	0.03225	0.73579	-0.045
Mof_C 	C 	0.67387	0.02408	0.7654	-0.027
Mof_H 	H 	0.6576	0.0071	0.7577	0.042
Mof_C 	C 	0.7094	0.01485	0.69007	0.105
Mof_C 	C 	0.74561	0.01088	0.6715	-0.164
Mof_H 	H 	0.7669	0.0193	0.6867	0.089
Mof_C 	C 	0.75011	0.99449	0.63055	0.098
Mof_H 	H 	0.7745	0.9922	0.6182	0.012
Mof_C 	C 	0.71983	0.98163	0.60787	-0.164
Mof_C 	C 	0.68396	0.98639	0.6244	0.101
Mof_H 	H 	0.663	0.9788	0.6079	0.013
Mof_C 	C 	0.67847	0.00224	0.665	-0.165
Mof_H 	H 	0.6537	0.0048	0.6764	0.091
Mof_C 	C 	0.7258	0.96188	0.56631	0.383
Mof_C 	C 	0.7467	0.87857	0.44094	0.357
Mof_C 	C 	0.7526	0.8504	0.40827	-0.139
Mof_C 	C 	0.7868	0.84519	0.3864	0.088
Mof_H 	H 	0.8074	0.8588	0.3923	0.013
Mof_C 	C 	0.791	0.82033	0.3561	-0.167
Mof_H 	H 	0.8144	0.8171	0.3416	0.091
Mof_C 	C 	0.761	0.79999	0.3468	0.107
Mof_C 	C 	0.7267	0.80462	0.3702	-0.164
Mof_H 	H 	0.7062	0.7907	0.3651	0.094
Mof_C 	C 	0.7232	0.82955	0.4005	0.086
Mof_H 	H 	0.7003	0.8324	0.4163	0.018
Mof_C 	C 	0.76315	0.77342	0.31134	-0.043
Mof_C 	C 	0.74951	0.74277	0.32012	0.032
Mof_H 	H 	0.7387	0.7387	0.3489	0.004
Mof_C 	C 	0.76715	0.72479	0.24843	0.015
Mof_H 	H 	0.7682	0.7081	0.2269	0.014
Mof_C 	C 	0.78224	0.75446	0.2367	-0.032
Mof_C 	C 	0.78035	0.77884	0.2694	-0.033
Mof_H 	H 	0.7908	0.799	0.263	0.044
Mof_C 	C 	0.7993	0.75988	0.1907	0.079
Mof_C 	C 	0.823	0.73746	0.1695	-0.129
Mof_H 	H 	0.827	0.7176	0.1838	0.077
Mof_C 	C 	0.841	0.74372	0.1272	0.054
Mof_H 	H 	0.8567	0.7283	0.1134	0.026
Mof_C 	C 	0.83494	0.77314	0.1069	-0.115
Mof_C 	C 	0.8111	0.79635	0.1268	0.05
Mof_H 	H 	0.807	0.8161	0.1123	0.027
Mof_C 	C 	0.7938	0.78931	0.1683	-0.13
Mof_H 	H 	0.7779	0.8047	0.1818	0.077
Mof_C 	C 	0.8567	0.7833	0.06379	0.366
Mof_C 	C 	0.02166	0.96282	0.43605	0.372
Mof_C 	C 	0.03416	0.94417	0.39457	-0.143
Mof_C 	C 	0.06907	0.95003	0.37415	0.083
Mof_H 	H 	0.0856	0.9651	0.3873	0.016
Mof_C 	C 	0.07996	0.93413	0.3349	-0.16
Mof_H 	H 	0.1034	0.9391	0.3215	0.087
Mof_C 	C 	0.05724	0.91107	0.31487	0.103
Mof_C 	C 	0.0224	0.90423	0.3357	-0.155
Mof_H 	H 	0.0064	0.8884	0.3234	0.086
Mof_C 	C 	0.01142	0.92103	0.37509	0.08
Mof_H 	H 	0.9879	0.9164	0.3886	0.017
Mof_C 	C 	0.06791	0.89432	0.27094	-0.045
Mof_C 	C 	0.10561	0.88887	0.25905	0.03
Mof_H 	H 	0.1247	0.8954	0.2795	0.007
Mof_C 	C 	0.03978	0.88465	0.2385	-0.027
Mof_H 	H 	0.0141	0.8883	0.245	0.04
Mof_C 	C 	0.04974	0.87006	0.1982	-0.043
Mof_C 	C 	0.08863	0.86582	0.1895	0.02
Mof_H 	H 	0.0959	0.8564	0.1617	0.005
Mof_C 	C 	0.02175	0.85861	0.1645	0.104
Mof_C 	C 	0.9912	0.87655	0.1514	-0.158
Mof_H 	H 	0.9871	0.8966	0.165	0.087
Mof_C 	C 	0.96611	0.8657	0.1184	0.07
Mof_H 	H 	0.9455	0.8786	0.1096	0.02
Mof_C 	C 	0.9713	0.83548	0.098	-0.127
Mof_C 	C 	0.0021	0.8169	0.1114	0.075
Mof_H 	H 	0.006	0.7966	0.0986	0.018
Mof_C 	C 	0.02657	0.8286	0.1436	-0.158
Mof_H 	H 	0.0475	0.816	0.152	0.091
Mof_C 	C 	0.9435	0.82353	0.0602	0.367
Mof_C 	C 	0.17274	0.86597	0.0267	-0.114
Mof_H 	H 	0.1632	0.8866	0.0379	0.049
Mof_H 	H 	0.1558	0.8491	0.0379	0.049
Mof_C 	C 	0.2248	0.82858	0.02671	-0.123
Mof_H 	H 	0.2082	0.8115	0.038	0.051
Mof_H 	H 	0.2505	0.8245	0.038	0.051
Mof_C 	C 	0.2352	0.8868	0.02737	-0.114
Mof_H 	H 	0.2612	0.884	0.0387	0.047
Mof_H 	H 	0.2257	0.9074	0.0387	0.048
Mof_Cu	Cu	0.1714	0.86734	0.19857	0.723
Mof_Cu	Cu	0.24252	0.88937	0.19252	0.72
Mof_Cu	Cu	0.21215	0.86062	0.11713	0.727
Mof_Cu	Cu	0.22993	0.82594	0.19302	0.721
Mof_I 	I 	0.16664	0.81231	0.14358	-0.584
Mof_I 	I 	0.2174	0.86016	0.27006	-0.59
Mof_I 	I 	0.18628	0.9182	0.14346	-0.594
Mof_I 	I 	0.28599	0.85058	0.13907	-0.587
Mof_N 	N 	0.7214	0.07403	0.78752	-0.223
Mof_N 	N 	0.75083	0.71875	0.29005	-0.219
Mof_N 	N 	0.1161	0.87465	0.21947	-0.22
Mof_N 	N 	0.21104	0.86056	0.04437	-0.156
Mof_O 	O 	0.52983	0.03503	0.95248	-0.396
Mof_O 	O 	0.54639	0.98221	0.95186	-0.39
Mof_O 	O 	0.69664	0.94915	0.54839	-0.408
Mof_O 	O 	0.75923	0.95927	0.5497	-0.402
Mof_O 	O 	0.71295	0.88455	0.45354	-0.41
Mof_O 	O 	0.77691	0.89393	0.45283	-0.389
Mof_O 	O 	0.9891	0.95682	0.45165	-0.402
Mof_O 	O 	0.04525	0.98344	0.45149	-0.405
Mof_O 	O 	0.91828	0.84325	0.04675	-0.416
Mof_O 	O 	0.94822	0.79503	0.04691	-0.422
Mof_O 	O 	0.85031	0.81095	0.04806	-0.422
Mof_O 	O 	0.87976	0.76248	0.04868	-0.413
Mof_C 	C 	0.859	0.9197	0.4735	-0.173
Mof_H 	H 	0.8407	0.9347	0.4601	-0.229
Mof_H 	H 	0.8561	0.8983	0.4601	0.112
Mof_C 	C 	0.9014	0.9325	0.4729	-0.159
Mof_H 	H 	0.9196	0.9174	0.4594	0.087
Mof_H 	H 	0.9042	0.9539	0.4594	-0.187
Mof_H 	H 	0.3824	0.4948	0.0271	0.075
Mof_C 	C 	0.3537	0.5621	0.0467	0.487
Mof_H 	H 	0.3388	0.5515	0.0706	-0.087
Mof_H 	H 	0.354	0.5852	0.0532	-0.065
Mof_C 	C 	0.3946	0.549	0.0468	0.355
Mof_H 	H 	0.4121	0.5663	0.055	0
Mof_H 	H 	0.3968	0.5322	0.07	-0.067
Mof_H 	H 	0.3237	0.5125	0.9729	0.107
Mof_C 	C 	0.04876	0.4885	0.5614	0.37
Mof_C 	C 	0.07897	0.48112	0.5969	-0.132
Mof_C 	C 	0.099	0.50584	0.6184	0.071
Mof_H 	H 	0.0933	0.5272	0.6111	0.024
Mof_C 	C 	0.1272	0.49932	0.6502	-0.148
Mof_H 	H 	0.1399	0.5162	0.6647	0.086
Mof_C 	C 	0.13674	0.46726	0.6607	0.095
Mof_C 	C 	0.1167	0.44274	0.6396	-0.148
Mof_H 	H 	0.1224	0.4212	0.6462	0.09
Mof_C 	C 	0.0876	0.45043	0.6081	0.073
Mof_H 	H 	0.0739	0.4337	0.5944	0.025
Mof_C 	C 	0.16809	0.45918	0.69407	-0.041
Mof_C 	C 	0.1931	0.43441	0.6848	0.028
Mof_H 	H 	0.1899	0.4229	0.6575	0.006
Mof_C 	C 	0.22608	0.44215	0.7512	0.035
Mof_H 	H 	0.2458	0.4358	0.7709	0.005
Mof_C 	C 	0.20369	0.46775	0.76421	-0.044
Mof_C 	C 	0.17387	0.47592	0.7346	-0.027
Mof_H 	H 	0.1576	0.4929	0.7423	0.042
Mof_C 	C 	0.2094	0.48515	0.80993	0.103
Mof_C 	C 	0.24561	0.48912	0.8285	-0.16
Mof_H 	H 	0.2669	0.4807	0.8133	0.088
Mof_C 	C 	0.25011	0.50551	0.86945	0.095
Mof_H 	H 	0.2745	0.5078	0.8818	0.014
Mof_C 	C 	0.21983	0.51837	0.89213	-0.157
Mof_C 	C 	0.18396	0.51361	0.8756	0.097
Mof_H 	H 	0.163	0.5212	0.8921	0.019
Mof_C 	C 	0.17847	0.49776	0.835	-0.16
Mof_H 	H 	0.1537	0.4952	0.8236	0.091
Mof_C 	C 	0.2258	0.53812	0.93369	0.378
Mof_C 	C 	0.2467	0.62143	0.05906	0.356
Mof_C 	C 	0.2526	0.6496	0.09173	-0.144
Mof_C 	C 	0.2868	0.65481	0.1136	0.089
Mof_H 	H 	0.3074	0.6412	0.1077	0.011
Mof_C 	C 	0.291	0.67967	0.1439	-0.17
Mof_H 	H 	0.3144	0.6829	0.1584	0.09
Mof_C 	C 	0.261	0.70001	0.1532	0.107
Mof_C 	C 	0.2267	0.69538	0.1298	-0.167
Mof_H 	H 	0.2062	0.7093	0.1349	0.093
Mof_C 	C 	0.2232	0.67045	0.0995	0.088
Mof_H 	H 	0.2003	0.6676	0.0837	0.013
Mof_C 	C 	0.26315	0.72658	0.18866	-0.044
Mof_C 	C 	0.24951	0.75723	0.17988	0.032
Mof_H 	H 	0.2387	0.7613	0.1511	0.002
Mof_C 	C 	0.26715	0.77521	0.25157	0.014
Mof_H 	H 	0.2682	0.7919	0.2731	0.015
Mof_C 	C 	0.28224	0.74554	0.2633	-0.031
Mof_C 	C 	0.28035	0.72116	0.2306	-0.033
Mof_H 	H 	0.2908	0.701	0.237	0.044
Mof_C 	C 	0.2993	0.74012	0.3093	0.078
Mof_C 	C 	0.323	0.76254	0.3305	-0.126
Mof_H 	H 	0.327	0.7824	0.3162	0.077
Mof_C 	C 	0.341	0.75628	0.3728	0.051
Mof_H 	H 	0.3567	0.7717	0.3866	0.031
Mof_C 	C 	0.33494	0.72686	0.3931	-0.11
Mof_C 	C 	0.3111	0.70365	0.3732	0.048
Mof_H 	H 	0.307	0.6839	0.3877	0.031
Mof_C 	C 	0.2938	0.71069	0.3317	-0.127
Mof_H 	H 	0.2779	0.6953	0.3182	0.078
Mof_C 	C 	0.3567	0.7167	0.43621	0.365
Mof_C 	C 	0.52166	0.53718	0.06395	0.373
Mof_C 	C 	0.53416	0.55583	0.10543	-0.147
Mof_C 	C 	0.56907	0.54997	0.12585	0.085
Mof_H 	H 	0.5856	0.5349	0.1127	0.014
Mof_C 	C 	0.57996	0.56587	0.1651	-0.162
Mof_H 	H 	0.6034	0.5609	0.1785	0.087
Mof_C 	C 	0.55724	0.58893	0.18513	0.104
Mof_C 	C 	0.5224	0.59577	0.1643	-0.157
Mof_H 	H 	0.5064	0.6116	0.1766	0.085
Mof_C 	C 	0.51142	0.57897	0.12491	0.081
Mof_H 	H 	0.4879	0.5836	0.1114	0.013
Mof_C 	C 	0.56791	0.60568	0.22906	-0.045
Mof_C 	C 	0.60561	0.61113	0.24095	0.03
Mof_H 	H 	0.6247	0.6046	0.2205	0.006
Mof_C 	C 	0.53978	0.61535	0.2615	-0.027
Mof_H 	H 	0.5141	0.6117	0.255	0.04
Mof_C 	C 	0.54974	0.62994	0.3018	-0.042
Mof_C 	C 	0.58863	0.63418	0.3105	0.02
Mof_H 	H 	0.5959	0.6436	0.3383	0.007
Mof_C 	C 	0.52175	0.64139	0.3355	0.102
Mof_C 	C 	0.4912	0.62345	0.3486	-0.154
Mof_H 	H 	0.4871	0.6034	0.335	0.087
Mof_C 	C 	0.46611	0.6343	0.3816	0.068
Mof_H 	H 	0.4455	0.6214	0.3904	0.024
Mof_C 	C 	0.4713	0.66452	0.402	-0.121
Mof_C 	C 	0.5021	0.6831	0.3886	0.073
Mof_H 	H 	0.506	0.7034	0.4014	0.023
Mof_C 	C 	0.52657	0.6714	0.3564	-0.153
Mof_H 	H 	0.5475	0.684	0.348	0.091
Mof_C 	C 	0.4435	0.67647	0.4398	0.366
Mof_C 	C 	0.67274	0.63403	0.4733	-0.06
Mof_H 	H 	0.6632	0.6134	0.4621	0.041
Mof_H 	H 	0.6558	0.6509	0.4621	0.04
Mof_C 	C 	0.7248	0.67142	0.47329	-0.069
Mof_H 	H 	0.7082	0.6885	0.462	0.042
Mof_H 	H 	0.7505	0.6755	0.462	0.043
Mof_C 	C 	0.7352	0.6132	0.47263	-0.065
Mof_H 	H 	0.7612	0.616	0.4613	0.04
Mof_H 	H 	0.7257	0.5926	0.4613	0.041
Mof_Cu	Cu	0.6714	0.63266	0.30143	0.723
Mof_Cu	Cu	0.74252	0.61063	0.30748	0.719
Mof_Cu	Cu	0.71215	0.63938	0.38287	0.726
Mof_Cu	Cu	0.72993	0.67406	0.30698	0.721
Mof_I 	I 	0.66664	0.68769	0.35642	-0.579
Mof_I 	I 	0.7174	0.63984	0.22994	-0.595
Mof_I 	I 	0.68628	0.5818	0.35654	-0.586
Mof_I 	I 	0.78599	0.64942	0.36093	-0.58
Mof_N 	N 	0.2214	0.42597	0.71248	-0.223
Mof_N 	N 	0.25083	0.78125	0.20995	-0.219
Mof_N 	N 	0.6161	0.62535	0.28053	-0.22
Mof_N 	N 	0.71104	0.63944	0.45563	-0.17
Mof_O 	O 	0.02983	0.46497	0.54752	-0.412
Mof_O 	O 	0.04639	0.51779	0.54814	-0.406
Mof_O 	O 	0.19664	0.55085	0.95161	-0.392
Mof_O 	O 	0.25923	0.54073	0.9503	-0.387
Mof_O 	O 	0.21295	0.61545	0.04646	-0.418
Mof_O 	O 	0.27691	0.60607	0.04717	-0.395
Mof_O 	O 	0.4891	0.54318	0.04835	-0.41
Mof_O 	O 	0.54525	0.51656	0.04851	-0.412
Mof_O 	O 	0.41828	0.65675	0.45325	-0.408
Mof_O 	O 	0.44822	0.70497	0.45309	-0.414
Mof_O 	O 	0.35031	0.68905	0.45194	-0.414
Mof_O 	O 	0.37976	0.73752	0.45132	-0.405
Mof_C 	C 	0.359	0.5803	0.0265	-0.129
Mof_H 	H 	0.3407	0.5653	0.0399	-0.223
Mof_H 	H 	0.3561	0.6017	0.0399	0.093
Mof_C 	C 	0.4014	0.5675	0.0271	-0.249
Mof_H 	H 	0.4196	0.5826	0.0406	0.098
Mof_H 	H 	0.4042	0.5461	0.0406	-0.151
Mof_H 	H 	0.6176	0.5052	0.0271	0.075
Mof_C 	C 	0.6463	0.4379	0.0467	0.487
Mof_H 	H 	0.6612	0.4485	0.0706	-0.087
Mof_H 	H 	0.646	0.4148	0.0532	-0.065
Mof_C 	C 	0.6054	0.451	0.0468	0.355
Mof_H 	H 	0.5879	0.4337	0.055	0
Mof_H 	H 	0.6032	0.4678	0.07	-0.067
Mof_H 	H 	0.6763	0.4875	0.9729	0.107
Mof_C 	C 	0.95124	0.5115	0.5614	0.37
Mof_C 	C 	0.92103	0.51888	0.5969	-0.132
Mof_C 	C 	0.901	0.49416	0.6184	0.071
Mof_H 	H 	0.9067	0.4728	0.6111	0.024
Mof_C 	C 	0.8728	0.50068	0.6502	-0.148
Mof_H 	H 	0.8601	0.4838	0.6647	0.086
Mof_C 	C 	0.86326	0.53274	0.6607	0.095
Mof_C 	C 	0.8833	0.55726	0.6396	-0.148
Mof_H 	H 	0.8776	0.5788	0.6462	0.09
Mof_C 	C 	0.9124	0.54957	0.6081	0.073
Mof_H 	H 	0.9261	0.5663	0.5944	0.025
Mof_C 	C 	0.83191	0.54082	0.69407	-0.041
Mof_C 	C 	0.8069	0.56559	0.6848	0.028
Mof_H 	H 	0.8101	0.5771	0.6575	0.006
Mof_C 	C 	0.77392	0.55785	0.7512	0.035
Mof_H 	H 	0.7542	0.5642	0.7709	0.005
Mof_C 	C 	0.79631	0.53225	0.76421	-0.044
Mof_C 	C 	0.82613	0.52408	0.7346	-0.027
Mof_H 	H 	0.8424	0.5071	0.7423	0.042
Mof_C 	C 	0.7906	0.51485	0.80993	0.103
Mof_C 	C 	0.75439	0.51088	0.8285	-0.16
Mof_H 	H 	0.7331	0.5193	0.8133	0.088
Mof_C 	C 	0.74989	0.49449	0.86945	0.095
Mof_H 	H 	0.7255	0.4922	0.8818	0.014
Mof_C 	C 	0.78017	0.48163	0.89213	-0.157
Mof_C 	C 	0.81604	0.48639	0.8756	0.097
Mof_H 	H 	0.837	0.4788	0.8921	0.019
Mof_C 	C 	0.82153	0.50224	0.835	-0.16
Mof_H 	H 	0.8463	0.5048	0.8236	0.091
Mof_C 	C 	0.7742	0.46188	0.93369	0.378
Mof_C 	C 	0.7533	0.37857	0.05906	0.356
Mof_C 	C 	0.7474	0.3504	0.09173	-0.144
Mof_C 	C 	0.7132	0.34519	0.1136	0.089
Mof_H 	H 	0.6926	0.3588	0.1077	0.011
Mof_C 	C 	0.709	0.32033	0.1439	-0.17
Mof_H 	H 	0.6856	0.3171	0.1584	0.09
Mof_C 	C 	0.739	0.29999	0.1532	0.107
Mof_C 	C 	0.7733	0.30462	0.1298	-0.167
Mof_H 	H 	0.7938	0.2907	0.1349	0.093
Mof_C 	C 	0.7768	0.32955	0.0995	0.088
Mof_H 	H 	0.7997	0.3324	0.0837	0.013
Mof_C 	C 	0.73685	0.27342	0.18866	-0.044
Mof_C 	C 	0.75049	0.24277	0.17988	0.032
Mof_H 	H 	0.7613	0.2387	0.1511	0.002
Mof_C 	C 	0.73285	0.22479	0.25157	0.014
Mof_H 	H 	0.7318	0.2081	0.2731	0.015
Mof_C 	C 	0.71776	0.25446	0.2633	-0.031
Mof_C 	C 	0.71965	0.27884	0.2306	-0.033
Mof_H 	H 	0.7092	0.299	0.237	0.044
Mof_C 	C 	0.7007	0.25988	0.3093	0.078
Mof_C 	C 	0.677	0.23746	0.3305	-0.126
Mof_H 	H 	0.673	0.2176	0.3162	0.077
Mof_C 	C 	0.659	0.24372	0.3728	0.051
Mof_H 	H 	0.6433	0.2283	0.3866	0.031
Mof_C 	C 	0.66506	0.27314	0.3931	-0.11
Mof_C 	C 	0.6889	0.29635	0.3732	0.048
Mof_H 	H 	0.693	0.3161	0.3877	0.031
Mof_C 	C 	0.7062	0.28931	0.3317	-0.127
Mof_H 	H 	0.7221	0.3047	0.3182	0.078
Mof_C 	C 	0.6433	0.2833	0.43621	0.365
Mof_C 	C 	0.47834	0.46282	0.06395	0.373
Mof_C 	C 	0.46584	0.44417	0.10543	-0.147
Mof_C 	C 	0.43093	0.45003	0.12585	0.085
Mof_H 	H 	0.4144	0.4651	0.1127	0.014
Mof_C 	C 	0.42004	0.43413	0.1651	-0.162
Mof_H 	H 	0.3966	0.4391	0.1785	0.087
Mof_C 	C 	0.44276	0.41107	0.18513	0.104
Mof_C 	C 	0.4776	0.40423	0.1643	-0.157
Mof_H 	H 	0.4936	0.3884	0.1766	0.085
Mof_C 	C 	0.48858	0.42103	0.12491	0.081
Mof_H 	H 	0.5121	0.4164	0.1114	0.013
Mof_C 	C 	0.43209	0.39432	0.22906	-0.045
Mof_C 	C 	0.39439	0.38887	0.24095	0.03
Mof_H 	H 	0.3753	0.3954	0.2205	0.006
Mof_C 	C 	0.46022	0.38465	0.2615	-0.027
Mof_H 	H 	0.4859	0.3883	0.255	0.04
Mof_C 	C 	0.45026	0.37006	0.3018	-0.042
Mof_C 	C 	0.41137	0.36582	0.3105	0.02
Mof_H 	H 	0.4041	0.3564	0.3383	0.007
Mof_C 	C 	0.47825	0.35861	0.3355	0.102
Mof_C 	C 	0.5088	0.37655	0.3486	-0.154
Mof_H 	H 	0.5129	0.3966	0.335	0.087
Mof_C 	C 	0.53389	0.3657	0.3816	0.068
Mof_H 	H 	0.5545	0.3786	0.3904	0.024
Mof_C 	C 	0.5287	0.33548	0.402	-0.121
Mof_C 	C 	0.4979	0.3169	0.3886	0.073
Mof_H 	H 	0.494	0.2966	0.4014	0.023
Mof_C 	C 	0.47343	0.3286	0.3564	-0.153
Mof_H 	H 	0.4525	0.316	0.348	0.091
Mof_C 	C 	0.5565	0.32353	0.4398	0.366
Mof_C 	C 	0.32726	0.36597	0.4733	-0.06
Mof_H 	H 	0.3368	0.3866	0.4621	0.041
Mof_H 	H 	0.3442	0.3491	0.4621	0.04
Mof_C 	C 	0.2752	0.32858	0.47329	-0.069
Mof_H 	H 	0.2918	0.3115	0.462	0.042
Mof_H 	H 	0.2495	0.3245	0.462	0.043
Mof_C 	C 	0.2648	0.3868	0.47263	-0.065
Mof_H 	H 	0.2388	0.384	0.4613	0.04
Mof_H 	H 	0.2743	0.4074	0.4613	0.041
Mof_Cu	Cu	0.3286	0.36734	0.30143	0.723
Mof_Cu	Cu	0.25748	0.38937	0.30748	0.719
Mof_Cu	Cu	0.28785	0.36062	0.38287	0.726
Mof_Cu	Cu	0.27007	0.32594	0.30698	0.721
Mof_I 	I 	0.33336	0.31231	0.35642	-0.579
Mof_I 	I 	0.2826	0.36016	0.22994	-0.595
Mof_I 	I 	0.31372	0.4182	0.35654	-0.586
Mof_I 	I 	0.21401	0.35058	0.36093	-0.58
Mof_N 	N 	0.7786	0.57403	0.71248	-0.223
Mof_N 	N 	0.74917	0.21875	0.20995	-0.219
Mof_N 	N 	0.3839	0.37465	0.28053	-0.22
Mof_N 	N 	0.28896	0.36056	0.45563	-0.17
Mof_O 	O 	0.97017	0.53503	0.54752	-0.412
Mof_O 	O 	0.95361	0.48221	0.54814	-0.406
Mof_O 	O 	0.80336	0.44915	0.95161	-0.392
Mof_O 	O 	0.74077	0.45927	0.9503	-0.387
Mof_O 	O 	0.78705	0.38455	0.04646	-0.418
Mof_O 	O 	0.72309	0.39393	0.04717	-0.395
Mof_O 	O 	0.5109	0.45682	0.04835	-0.41
Mof_O 	O 	0.45475	0.48344	0.04851	-0.412
Mof_O 	O 	0.58172	0.34325	0.45325	-0.408
Mof_O 	O 	0.55178	0.29503	0.45309	-0.414
Mof_O 	O 	0.64969	0.31095	0.45194	-0.414
Mof_O 	O 	0.62024	0.26248	0.45132	-0.405
Mof_C 	C 	0.641	0.4197	0.0265	-0.129
Mof_H 	H 	0.6593	0.4347	0.0399	-0.223
Mof_H 	H 	0.6439	0.3983	0.0399	0.093
Mof_C 	C 	0.5986	0.4325	0.0271	-0.249
Mof_H 	H 	0.5804	0.4174	0.0406	0.098
Mof_H 	H 	0.5958	0.4539	0.0406	-0.151
Mof_H 	H 	0.8824	0.0052	0.5271	0.065
Mof_C 	C 	0.8537	0.9379	0.5467	0.516
Mof_H 	H 	0.8388	0.9485	0.5706	-0.096
Mof_H 	H 	0.854	0.9148	0.5532	-0.061
Mof_C 	C 	0.8946	0.951	0.5468	0.368
Mof_H 	H 	0.9121	0.9337	0.555	-0.02
Mof_H 	H 	0.8968	0.9678	0.57	-0.064
Mof_H 	H 	0.8237	0.9875	0.4729	0.072
Mof_C 	C 	0.54876	0.0115	0.0614	0.371
Mof_C 	C 	0.57897	0.01888	0.0969	-0.138
Mof_C 	C 	0.599	0.99416	0.1184	0.073
Mof_H 	H 	0.5933	0.9728	0.1111	0.019
Mof_C 	C 	0.6272	0.00068	0.1502	-0.152
Mof_H 	H 	0.6399	0.9838	0.1647	0.085
Mof_C 	C 	0.63674	0.03274	0.1607	0.096
Mof_C 	C 	0.6167	0.05726	0.1396	-0.153
Mof_H 	H 	0.6224	0.0788	0.1462	0.089
Mof_C 	C 	0.5876	0.04957	0.1081	0.075
Mof_H 	H 	0.5739	0.0663	0.0944	0.02
Mof_C 	C 	0.66809	0.04082	0.19407	-0.044
Mof_C 	C 	0.6931	0.06559	0.1848	0.029
Mof_H 	H 	0.6899	0.0771	0.1575	0.004
Mof_C 	C 	0.72608	0.05785	0.2512	0.036
Mof_H 	H 	0.7458	0.0642	0.2709	0.003
Mof_C 	C 	0.70369	0.03225	0.26421	-0.047
Mof_C 	C 	0.67387	0.02408	0.2346	-0.026
Mof_H 	H 	0.6576	0.0071	0.2423	0.04
Mof_C 	C 	0.7094	0.01485	0.30993	0.105
Mof_C 	C 	0.74561	0.01088	0.3285	-0.164
Mof_H 	H 	0.7669	0.0193	0.3133	0.088
Mof_C 	C 	0.75011	0.99449	0.36945	0.098
Mof_H 	H 	0.7745	0.9922	0.3818	0.011
Mof_C 	C 	0.71983	0.98163	0.39213	-0.165
Mof_C 	C 	0.68396	0.98639	0.3756	0.101
Mof_H 	H 	0.663	0.9788	0.3921	0.013
Mof_C 	C 	0.67847	0.00224	0.335	-0.165
Mof_H 	H 	0.6537	0.0048	0.3236	0.09
Mof_C 	C 	0.7258	0.96188	0.43369	0.383
Mof_C 	C 	0.7467	0.87857	0.55906	0.357
Mof_C 	C 	0.7526	0.8504	0.59173	-0.139
Mof_C 	C 	0.7868	0.84519	0.6136	0.088
Mof_H 	H 	0.8074	0.8588	0.6077	0.013
Mof_C 	C 	0.791	0.82033	0.6439	-0.167
Mof_H 	H 	0.8144	0.8171	0.6584	0.091
Mof_C 	C 	0.761	0.79999	0.6532	0.107
Mof_C 	C 	0.7267	0.80462	0.6298	-0.163
Mof_H 	H 	0.7062	0.7907	0.6349	0.094
Mof_C 	C 	0.7232	0.82955	0.5995	0.086
Mof_H 	H 	0.7003	0.8324	0.5837	0.018
Mof_C 	C 	0.76315	0.77342	0.68866	-0.041
Mof_C 	C 	0.74951	0.74277	0.67988	0.032
Mof_H 	H 	0.7387	0.7387	0.6511	0.004
Mof_C 	C 	0.76715	0.72479	0.75157	0.014
Mof_H 	H 	0.7682	0.7081	0.7731	0.017
Mof_C 	C 	0.78224	0.75446	0.7633	-0.028
Mof_C 	C 	0.78035	0.77884	0.7306	-0.035
Mof_H 	H 	0.7908	0.799	0.737	0.045
Mof_C 	C 	0.7993	0.75988	0.8093	0.077
Mof_C 	C 	0.823	0.73746	0.8305	-0.121
Mof_H 	H 	0.827	0.7176	0.8162	0.078
Mof_C 	C 	0.841	0.74372	0.8728	0.048
Mof_H 	H 	0.8567	0.7283	0.8866	0.036
Mof_C 	C 	0.83494	0.77314	0.8931	-0.103
Mof_C 	C 	0.8111	0.79635	0.8732	0.045
Mof_H 	H 	0.807	0.8161	0.8877	0.036
Mof_C 	C 	0.7938	0.78931	0.8317	-0.122
Mof_H 	H 	0.7779	0.8047	0.8182	0.078
Mof_C 	C 	0.8567	0.7833	0.93621	0.362
Mof_C 	C 	0.02166	0.96282	0.56395	0.372
Mof_C 	C 	0.03416	0.94417	0.60543	-0.142
Mof_C 	C 	0.06907	0.95003	0.62585	0.083
Mof_H 	H 	0.0856	0.9651	0.6127	0.016
Mof_C 	C 	0.07996	0.93413	0.6651	-0.159
Mof_H 	H 	0.1034	0.9391	0.6785	0.087
Mof_C 	C 	0.05724	0.91107	0.68513	0.103
Mof_C 	C 	0.0224	0.90423	0.6643	-0.154
Mof_H 	H 	0.0064	0.8884	0.6766	0.086
Mof_C 	C 	0.01142	0.92103	0.62491	0.08
Mof_H 	H 	0.9879	0.9164	0.6114	0.017
Mof_C 	C 	0.06791	0.89432	0.72906	-0.043
Mof_C 	C 	0.10561	0.88887	0.74095	0.03
Mof_H 	H 	0.1247	0.8954	0.7205	0.007
Mof_C 	C 	0.03978	0.88465	0.7615	-0.028
Mof_H 	H 	0.0141	0.8883	0.755	0.042
Mof_C 	C 	0.04974	0.87006	0.8018	-0.038
Mof_C 	C 	0.08863	0.86582	0.8105	0.019
Mof_H 	H 	0.0959	0.8564	0.8383	0.009
Mof_C 	C 	0.02175	0.85861	0.8355	0.1
Mof_C 	C 	0.9912	0.87655	0.8486	-0.148
Mof_H 	H 	0.9871	0.8966	0.835	0.088
Mof_C 	C 	0.96611	0.8657	0.8816	0.064
Mof_H 	H 	0.9455	0.8786	0.8904	0.029
Mof_C 	C 	0.9713	0.83548	0.902	-0.113
Mof_C 	C 	0.0021	0.8169	0.8886	0.069
Mof_H 	H 	0.006	0.7966	0.9014	0.028
Mof_C 	C 	0.02657	0.8286	0.8564	-0.148
Mof_H 	H 	0.0475	0.816	0.848	0.092
Mof_C 	C 	0.9435	0.82353	0.9398	0.363
Mof_C 	C 	0.17274	0.86597	0.9733	-0.006
Mof_H 	H 	0.1632	0.8866	0.9621	0.032
Mof_H 	H 	0.1558	0.8491	0.9621	0.032
Mof_C 	C 	0.2248	0.82858	0.97329	-0.015
Mof_H 	H 	0.2082	0.8115	0.962	0.034
Mof_H 	H 	0.2505	0.8245	0.962	0.034
Mof_C 	C 	0.2352	0.8868	0.97263	-0.016
Mof_H 	H 	0.2612	0.884	0.9613	0.033
Mof_H 	H 	0.2257	0.9074	0.9613	0.034
Mof_Cu	Cu	0.1714	0.86734	0.80143	0.723
Mof_Cu	Cu	0.24252	0.88937	0.80748	0.719
Mof_Cu	Cu	0.21215	0.86062	0.88287	0.726
Mof_Cu	Cu	0.22993	0.82594	0.80698	0.721
Mof_I 	I 	0.16664	0.81231	0.85642	-0.572
Mof_I 	I 	0.2174	0.86016	0.72994	-0.59
Mof_I 	I 	0.18628	0.9182	0.85654	-0.578
Mof_I 	I 	0.28599	0.85058	0.86093	-0.571
Mof_N 	N 	0.7214	0.07403	0.21248	-0.224
Mof_N 	N 	0.75083	0.71875	0.70995	-0.218
Mof_N 	N 	0.1161	0.87465	0.78053	-0.219
Mof_N 	N 	0.21104	0.86056	0.95563	-0.184
Mof_O 	O 	0.52983	0.03503	0.04752	-0.421
Mof_O 	O 	0.54639	0.98221	0.04814	-0.415
Mof_O 	O 	0.69664	0.94915	0.45161	-0.409
Mof_O 	O 	0.75923	0.95927	0.4503	-0.402
Mof_O 	O 	0.71295	0.88455	0.54646	-0.41
Mof_O 	O 	0.77691	0.89393	0.54717	-0.388
Mof_O 	O 	0.9891	0.95682	0.54835	-0.402
Mof_O 	O 	0.04525	0.98344	0.54851	-0.405
Mof_O 	O 	0.91828	0.84325	0.95325	-0.391
Mof_O 	O 	0.94822	0.79503	0.95309	-0.398
Mof_O 	O 	0.85031	0.81095	0.95194	-0.397
Mof_O 	O 	0.87976	0.76248	0.95132	-0.388
Mof_C 	C 	0.859	0.9197	0.5265	-0.172
Mof_H 	H 	0.8407	0.9347	0.5399	-0.229
Mof_H 	H 	0.8561	0.8983	0.5399	0.112
Mof_C 	C 	0.9014	0.9325	0.5271	-0.159
Mof_H 	H 	0.9196	0.9174	0.5406	0.087
Mof_H 	H 	0.9042	0.9539	0.5406	-0.186
Mof_H 	H 	0.1176	0.9948	0.5271	0.065
Mof_C 	C 	0.1463	0.0621	0.5467	0.516
Mof_H 	H 	0.1612	0.0515	0.5706	-0.096
Mof_H 	H 	0.146	0.0852	0.5532	-0.061
Mof_C 	C 	0.1054	0.049	0.5468	0.368
Mof_H 	H 	0.0879	0.0663	0.555	-0.02
Mof_H 	H 	0.1032	0.0322	0.57	-0.064
Mof_H 	H 	0.1763	0.0125	0.4729	0.072
Mof_C 	C 	0.45124	0.9885	0.0614	0.371
Mof_C 	C 	0.42103	0.98112	0.0969	-0.138
Mof_C 	C 	0.401	0.00584	0.1184	0.073
Mof_H 	H 	0.4067	0.0272	0.1111	0.019
Mof_C 	C 	0.3728	0.99932	0.1502	-0.152
Mof_H 	H 	0.3601	0.0162	0.1647	0.085
Mof_C 	C 	0.36326	0.96726	0.1607	0.096
Mof_C 	C 	0.3833	0.94274	0.1396	-0.153
Mof_H 	H 	0.3776	0.9212	0.1462	0.089
Mof_C 	C 	0.4124	0.95043	0.1081	0.075
Mof_H 	H 	0.4261	0.9337	0.0944	0.02
Mof_C 	C 	0.33191	0.95918	0.19407	-0.044
Mof_C 	C 	0.3069	0.93441	0.1848	0.029
Mof_H 	H 	0.3101	0.9229	0.1575	0.004
Mof_C 	C 	0.27392	0.94215	0.2512	0.036
Mof_H 	H 	0.2542	0.9358	0.2709	0.003
Mof_C 	C 	0.29631	0.96775	0.26421	-0.047
Mof_C 	C 	0.32613	0.97592	0.2346	-0.026
Mof_H 	H 	0.3424	0.9929	0.2423	0.04
Mof_C 	C 	0.2906	0.98515	0.30993	0.105
Mof_C 	C 	0.25439	0.98912	0.3285	-0.164
Mof_H 	H 	0.2331	0.9807	0.3133	0.088
Mof_C 	C 	0.24989	0.00551	0.36945	0.098
Mof_H 	H 	0.2255	0.0078	0.3818	0.011
Mof_C 	C 	0.28017	0.01837	0.39213	-0.165
Mof_C 	C 	0.31604	0.01361	0.3756	0.101
Mof_H 	H 	0.337	0.0212	0.3921	0.013
Mof_C 	C 	0.32153	0.99776	0.335	-0.165
Mof_H 	H 	0.3463	0.9952	0.3236	0.09
Mof_C 	C 	0.2742	0.03812	0.43369	0.383
Mof_C 	C 	0.2533	0.12143	0.55906	0.357
Mof_C 	C 	0.2474	0.1496	0.59173	-0.139
Mof_C 	C 	0.2132	0.15481	0.6136	0.088
Mof_H 	H 	0.1926	0.1412	0.6077	0.013
Mof_C 	C 	0.209	0.17967	0.6439	-0.167
Mof_H 	H 	0.1856	0.1829	0.6584	0.091
Mof_C 	C 	0.239	0.20001	0.6532	0.107
Mof_C 	C 	0.2733	0.19538	0.6298	-0.163
Mof_H 	H 	0.2938	0.2093	0.6349	0.094
Mof_C 	C 	0.2768	0.17045	0.5995	0.086
Mof_H 	H 	0.2997	0.1676	0.5837	0.018
Mof_C 	C 	0.23685	0.22658	0.68866	-0.041
Mof_C 	C 	0.25049	0.25723	0.67988	0.032
Mof_H 	H 	0.2613	0.2613	0.6511	0.004
Mof_C 	C 	0.23285	0.27521	0.75157	0.014
Mof_H 	H 	0.2318	0.2919	0.7731	0.017
Mof_C 	C 	0.21776	0.24554	0.7633	-0.028
Mof_C 	C 	0.21965	0.22116	0.7306	-0.035
Mof_H 	H 	0.2092	0.201	0.737	0.045
Mof_C 	C 	0.2007	0.24012	0.8093	0.077
Mof_C 	C 	0.177	0.26254	0.8305	-0.121
Mof_H 	H 	0.173	0.2824	0.8162	0.078
Mof_C 	C 	0.159	0.25628	0.8728	0.048
Mof_H 	H 	0.1433	0.2717	0.8866	0.036
Mof_C 	C 	0.16506	0.22686	0.8931	-0.103
Mof_C 	C 	0.1889	0.20365	0.8732	0.045
Mof_H 	H 	0.193	0.1839	0.8877	0.036
Mof_C 	C 	0.2062	0.21069	0.8317	-0.122
Mof_H 	H 	0.2221	0.1953	0.8182	0.078
Mof_C 	C 	0.1433	0.2167	0.93621	0.362
Mof_C 	C 	0.97834	0.03718	0.56395	0.372
Mof_C 	C 	0.96584	0.05583	0.60543	-0.142
Mof_C 	C 	0.93093	0.04997	0.62585	0.083
Mof_H 	H 	0.9144	0.0349	0.6127	0.016
Mof_C 	C 	0.92004	0.06587	0.6651	-0.159
Mof_H 	H 	0.8966	0.0609	0.6785	0.087
Mof_C 	C 	0.94276	0.08893	0.68513	0.103
Mof_C 	C 	0.9776	0.09577	0.6643	-0.154
Mof_H 	H 	0.9936	0.1116	0.6766	0.086
Mof_C 	C 	0.98858	0.07897	0.62491	0.08
Mof_H 	H 	0.0121	0.0836	0.6114	0.017
Mof_C 	C 	0.93209	0.10568	0.72906	-0.043
Mof_C 	C 	0.89439	0.11113	0.74095	0.03
Mof_H 	H 	0.8753	0.1046	0.7205	0.007
Mof_C 	C 	0.96022	0.11535	0.7615	-0.028
Mof_H 	H 	0.9859	0.1117	0.755	0.042
Mof_C 	C 	0.95026	0.12994	0.8018	-0.038
Mof_C 	C 	0.91137	0.13418	0.8105	0.019
Mof_H 	H 	0.9041	0.1436	0.8383	0.009
Mof_C 	C 	0.97825	0.14139	0.8355	0.1
Mof_C 	C 	0.0088	0.12345	0.8486	-0.148
Mof_H 	H 	0.0129	0.1034	0.835	0.088
Mof_C 	C 	0.03389	0.1343	0.8816	0.064
Mof_H 	H 	0.0545	0.1214	0.8904	0.029
Mof_C 	C 	0.0287	0.16452	0.902	-0.113
Mof_C 	C 	0.9979	0.1831	0.8886	0.069
Mof_H 	H 	0.994	0.2034	0.9014	0.028
Mof_C 	C 	0.97343	0.1714	0.8564	-0.148
Mof_H 	H 	0.9525	0.184	0.848	0.092
Mof_C 	C 	0.0565	0.17647	0.9398	0.363
Mof_C 	C 	0.82726	0.13403	0.9733	-0.006
Mof_H 	H 	0.8368	0.1134	0.9621	0.032
Mof_H 	H 	0.8442	0.1509	0.9621	0.032
Mof_C 	C 	0.7752	0.17142	0.97329	-0.015
Mof_H 	H 	0.7918	0.1885	0.962	0.034
Mof_H 	H 	0.7495	0.1755	0.962	0.034
Mof_C 	C 	0.7648	0.1132	0.97263	-0.016
Mof_H 	H 	0.7388	0.116	0.9613	0.033
Mof_H 	H 	0.7743	0.0926	0.9613	0.034
Mof_Cu	Cu	0.8286	0.13266	0.80143	0.723
Mof_Cu	Cu	0.75748	0.11063	0.80748	0.719
Mof_Cu	Cu	0.78785	0.13938	0.88287	0.726
Mof_Cu	Cu	0.77007	0.17406	0.80698	0.721
Mof_I 	I 	0.83336	0.18769	0.85642	-0.572
Mof_I 	I 	0.7826	0.13984	0.72994	-0.59
Mof_I 	I 	0.81372	0.0818	0.85654	-0.578
Mof_I 	I 	0.71401	0.14942	0.86093	-0.571
Mof_N 	N 	0.2786	0.92597	0.21248	-0.224
Mof_N 	N 	0.24917	0.28125	0.70995	-0.218
Mof_N 	N 	0.8839	0.12535	0.78053	-0.219
Mof_N 	N 	0.78896	0.13944	0.95563	-0.184
Mof_O 	O 	0.47017	0.96497	0.04752	-0.421
Mof_O 	O 	0.45361	0.01779	0.04814	-0.415
Mof_O 	O 	0.30336	0.05085	0.45161	-0.409
Mof_O 	O 	0.24077	0.04073	0.4503	-0.402
Mof_O 	O 	0.28705	0.11545	0.54646	-0.41
Mof_O 	O 	0.22309	0.10607	0.54717	-0.388
Mof_O 	O 	0.0109	0.04318	0.54835	-0.402
Mof_O 	O 	0.95475	0.01656	0.54851	-0.405
Mof_O 	O 	0.08172	0.15675	0.95325	-0.391
Mof_O 	O 	0.05178	0.20497	0.95309	-0.398
Mof_O 	O 	0.14969	0.18905	0.95194	-0.397
Mof_O 	O 	0.12024	0.23752	0.95132	-0.388
Mof_C 	C 	0.141	0.0803	0.5265	-0.172
Mof_H 	H 	0.1593	0.0653	0.5399	-0.229
Mof_H 	H 	0.1439	0.1017	0.5399	0.112
Mof_C 	C 	0.0986	0.0675	0.5271	-0.159
Mof_H 	H 	0.0804	0.0826	0.5406	0.087
Mof_H 	H 	0.0958	0.0461	0.5406	-0.186
Mof_H 	H 	0.6176	0.5052	0.9729	0.101
Mof_C 	C 	0.6463	0.4379	0.9533	0.547
Mof_H 	H 	0.6612	0.4485	0.9294	-0.104
Mof_H 	H 	0.646	0.4148	0.9468	-0.064
Mof_C 	C 	0.6054	0.451	0.9532	0.385
Mof_H 	H 	0.5879	0.4337	0.945	-0.046
Mof_H 	H 	0.6032	0.4678	0.93	-0.059
Mof_H 	H 	0.6763	0.4875	0.0271	0.081
Mof_C 	C 	0.95124	0.5115	0.4386	0.37
Mof_C 	C 	0.92103	0.51888	0.4031	-0.132
Mof_C 	C 	0.901	0.49416	0.3816	0.071
Mof_H 	H 	0.9067	0.4728	0.3889	0.023
Mof_C 	C 	0.8728	0.50068	0.3498	-0.148
Mof_H 	H 	0.8601	0.4838	0.3353	0.085
Mof_C 	C 	0.86326	0.53274	0.3393	0.095
Mof_C 	C 	0.8833	0.55726	0.3604	-0.149
Mof_H 	H 	0.8776	0.5788	0.3538	0.089
Mof_C 	C 	0.9124	0.54957	0.3919	0.073
Mof_H 	H 	0.9261	0.5663	0.4056	0.025
Mof_C 	C 	0.83191	0.54082	0.30593	-0.042
Mof_C 	C 	0.8069	0.56559	0.3152	0.029
Mof_H 	H 	0.8101	0.5771	0.3425	0.006
Mof_C 	C 	0.77392	0.55785	0.2488	0.036
Mof_H 	H 	0.7542	0.5642	0.2291	0.002
Mof_C 	C 	0.79631	0.53225	0.23579	-0.048
Mof_C 	C 	0.82613	0.52408	0.2654	-0.026
Mof_H 	H 	0.8424	0.5071	0.2577	0.04
Mof_C 	C 	0.7906	0.51485	0.19007	0.106
Mof_C 	C 	0.75439	0.51088	0.1715	-0.167
Mof_H 	H 	0.7331	0.5193	0.1867	0.089
Mof_C 	C 	0.74989	0.49449	0.13055	0.101
Mof_H 	H 	0.7255	0.4922	0.1182	0.009
Mof_C 	C 	0.78017	0.48163	0.10787	-0.17
Mof_C 	C 	0.81604	0.48639	0.1244	0.104
Mof_H 	H 	0.837	0.4788	0.1079	0.009
Mof_C 	C 	0.82153	0.50224	0.165	-0.169
Mof_H 	H 	0.8463	0.5048	0.1764	0.09
Mof_C 	C 	0.7742	0.46188	0.06631	0.384
Mof_C 	C 	0.7533	0.37857	0.94094	0.355
Mof_C 	C 	0.7474	0.3504	0.90827	-0.132
Mof_C 	C 	0.7132	0.34519	0.8864	0.085
Mof_H 	H 	0.6926	0.3588	0.8923	0.016
Mof_C 	C 	0.709	0.32033	0.8561	-0.162
Mof_H 	H 	0.6856	0.3171	0.8416	0.091
Mof_C 	C 	0.739	0.29999	0.8468	0.105
Mof_C 	C 	0.7733	0.30462	0.8702	-0.158
Mof_H 	H 	0.7938	0.2907	0.8651	0.095
Mof_C 	C 	0.7768	0.32955	0.9005	0.083
Mof_H 	H 	0.7997	0.3324	0.9163	0.024
Mof_C 	C 	0.73685	0.27342	0.81134	-0.04
Mof_C 	C 	0.75049	0.24277	0.82012	0.031
Mof_H 	H 	0.7613	0.2387	0.8489	0.006
Mof_C 	C 	0.73285	0.22479	0.74843	0.015
Mof_H 	H 	0.7318	0.2081	0.7269	0.015
Mof_C 	C 	0.71776	0.25446	0.7367	-0.029
Mof_C 	C 	0.71965	0.27884	0.7694	-0.035
Mof_H 	H 	0.7092	0.299	0.763	0.045
Mof_C 	C 	0.7007	0.25988	0.6907	0.078
Mof_C 	C 	0.677	0.23746	0.6695	-0.126
Mof_H 	H 	0.673	0.2176	0.6838	0.078
Mof_C 	C 	0.659	0.24372	0.6272	0.052
Mof_H 	H 	0.6433	0.2283	0.6134	0.031
Mof_C 	C 	0.66506	0.27314	0.6069	-0.11
Mof_C 	C 	0.6889	0.29635	0.6268	0.048
Mof_H 	H 	0.693	0.3161	0.6123	0.032
Mof_C 	C 	0.7062	0.28931	0.6683	-0.126
Mof_H 	H 	0.7221	0.3047	0.6818	0.078
Mof_C 	C 	0.6433	0.2833	0.56379	0.365
Mof_C 	C 	0.47834	0.46282	0.93605	0.369
Mof_C 	C 	0.46584	0.44417	0.89457	-0.136
Mof_C 	C 	0.43093	0.45003	0.87415	0.081
Mof_H 	H 	0.4144	0.4651	0.8873	0.018
Mof_C 	C 	0.42004	0.43413	0.8349	-0.156
Mof_H 	H 	0.3966	0.4391	0.8215	0.086
Mof_C 	C 	0.44276	0.41107	0.81487	0.102
Mof_C 	C 	0.4776	0.40423	0.8357	-0.151
Mof_H 	H 	0.4936	0.3884	0.8234	0.086
Mof_C 	C 	0.48858	0.42103	0.87509	0.077
Mof_H 	H 	0.5121	0.4164	0.8886	0.021
Mof_C 	C 	0.43209	0.39432	0.77094	-0.042
Mof_C 	C 	0.39439	0.38887	0.75905	0.03
Mof_H 	H 	0.3753	0.3954	0.7795	0.008
Mof_C 	C 	0.46022	0.38465	0.7385	-0.028
Mof_H 	H 	0.4859	0.3883	0.745	0.041
Mof_C 	C 	0.45026	0.37006	0.6982	-0.04
Mof_C 	C 	0.41137	0.36582	0.6895	0.02
Mof_H 	H 	0.4041	0.3564	0.6617	0.007
Mof_C 	C 	0.47825	0.35861	0.6645	0.102
Mof_C 	C 	0.5088	0.37655	0.6514	-0.153
Mof_H 	H 	0.5129	0.3966	0.665	0.088
Mof_C 	C 	0.53389	0.3657	0.6184	0.068
Mof_H 	H 	0.5545	0.3786	0.6096	0.024
Mof_C 	C 	0.5287	0.33548	0.598	-0.121
Mof_C 	C 	0.4979	0.3169	0.6114	0.073
Mof_H 	H 	0.494	0.2966	0.5986	0.023
Mof_C 	C 	0.47343	0.3286	0.6436	-0.153
Mof_H 	H 	0.4525	0.316	0.652	0.092
Mof_C 	C 	0.5565	0.32353	0.5602	0.366
Mof_C 	C 	0.32726	0.36597	0.5267	-0.06
Mof_H 	H 	0.3368	0.3866	0.5379	0.041
Mof_H 	H 	0.3442	0.3491	0.5379	0.04
Mof_C 	C 	0.2752	0.32858	0.52671	-0.069
Mof_H 	H 	0.2918	0.3115	0.538	0.042
Mof_H 	H 	0.2495	0.3245	0.538	0.043
Mof_C 	C 	0.2648	0.3868	0.52737	-0.065
Mof_H 	H 	0.2388	0.384	0.5387	0.04
Mof_H 	H 	0.2743	0.4074	0.5387	0.041
Mof_Cu	Cu	0.3286	0.36734	0.69857	0.723
Mof_Cu	Cu	0.25748	0.38937	0.69252	0.719
Mof_Cu	Cu	0.28785	0.36062	0.61713	0.726
Mof_Cu	Cu	0.27007	0.32594	0.69302	0.721
Mof_I 	I 	0.33336	0.31231	0.64358	-0.577
Mof_I 	I 	0.2826	0.36016	0.77006	-0.584
Mof_I 	I 	0.31372	0.4182	0.64346	-0.586
Mof_I 	I 	0.21401	0.35058	0.63907	-0.579
Mof_N 	N 	0.7786	0.57403	0.28752	-0.223
Mof_N 	N 	0.74917	0.21875	0.79005	-0.218
Mof_N 	N 	0.3839	0.37465	0.71947	-0.219
Mof_N 	N 	0.28896	0.36056	0.54437	-0.17
Mof_O 	O 	0.97017	0.53503	0.45248	-0.412
Mof_O 	O 	0.95361	0.48221	0.45186	-0.406
Mof_O 	O 	0.80336	0.44915	0.04839	-0.417
Mof_O 	O 	0.74077	0.45927	0.0497	-0.409
Mof_O 	O 	0.78705	0.38455	0.95354	-0.394
Mof_O 	O 	0.72309	0.39393	0.95283	-0.374
Mof_O 	O 	0.5109	0.45682	0.95165	-0.385
Mof_O 	O 	0.45475	0.48344	0.95149	-0.39
Mof_O 	O 	0.58172	0.34325	0.54675	-0.408
Mof_O 	O 	0.55178	0.29503	0.54691	-0.414
Mof_O 	O 	0.64969	0.31095	0.54806	-0.413
Mof_O 	O 	0.62024	0.26248	0.54868	-0.405
Mof_C 	C 	0.641	0.4197	0.9735	-0.208
Mof_H 	H 	0.6593	0.4347	0.9601	-0.225
Mof_H 	H 	0.6439	0.3983	0.9601	0.132
Mof_C 	C 	0.5986	0.4325	0.9729	-0.063
Mof_H 	H 	0.5804	0.4174	0.9594	0.077
Mof_H 	H 	0.5958	0.4539	0.9594	-0.212
Mof_H 	H 	0.3824	0.4948	0.9729	0.101
Mof_C 	C 	0.3537	0.5621	0.9533	0.547
Mof_H 	H 	0.3388	0.5515	0.9294	-0.104
Mof_H 	H 	0.354	0.5852	0.9468	-0.064
Mof_C 	C 	0.3946	0.549	0.9532	0.385
Mof_H 	H 	0.4121	0.5663	0.945	-0.046
Mof_H 	H 	0.3968	0.5322	0.93	-0.059
Mof_H 	H 	0.3237	0.5125	0.0271	0.081
Mof_C 	C 	0.04876	0.4885	0.4386	0.37
Mof_C 	C 	0.07897	0.48112	0.4031	-0.132
Mof_C 	C 	0.099	0.50584	0.3816	0.071
Mof_H 	H 	0.0933	0.5272	0.3889	0.023
Mof_C 	C 	0.1272	0.49932	0.3498	-0.148
Mof_H 	H 	0.1399	0.5162	0.3353	0.085
Mof_C 	C 	0.13674	0.46726	0.3393	0.095
Mof_C 	C 	0.1167	0.44274	0.3604	-0.149
Mof_H 	H 	0.1224	0.4212	0.3538	0.089
Mof_C 	C 	0.0876	0.45043	0.3919	0.073
Mof_H 	H 	0.0739	0.4337	0.4056	0.025
Mof_C 	C 	0.16809	0.45918	0.30593	-0.042
Mof_C 	C 	0.1931	0.43441	0.3152	0.029
Mof_H 	H 	0.1899	0.4229	0.3425	0.006
Mof_C 	C 	0.22608	0.44215	0.2488	0.036
Mof_H 	H 	0.2458	0.4358	0.2291	0.002
Mof_C 	C 	0.20369	0.46775	0.23579	-0.048
Mof_C 	C 	0.17387	0.47592	0.2654	-0.026
Mof_H 	H 	0.1576	0.4929	0.2577	0.04
Mof_C 	C 	0.2094	0.48515	0.19007	0.106
Mof_C 	C 	0.24561	0.48912	0.1715	-0.167
Mof_H 	H 	0.2669	0.4807	0.1867	0.089
Mof_C 	C 	0.25011	0.50551	0.13055	0.101
Mof_H 	H 	0.2745	0.5078	0.1182	0.009
Mof_C 	C 	0.21983	0.51837	0.10787	-0.17
Mof_C 	C 	0.18396	0.51361	0.1244	0.104
Mof_H 	H 	0.163	0.5212	0.1079	0.009
Mof_C 	C 	0.17847	0.49776	0.165	-0.169
Mof_H 	H 	0.1537	0.4952	0.1764	0.09
Mof_C 	C 	0.2258	0.53812	0.06631	0.384
Mof_C 	C 	0.2467	0.62143	0.94094	0.355
Mof_C 	C 	0.2526	0.6496	0.90827	-0.132
Mof_C 	C 	0.2868	0.65481	0.8864	0.085
Mof_H 	H 	0.3074	0.6412	0.8923	0.016
Mof_C 	C 	0.291	0.67967	0.8561	-0.162
Mof_H 	H 	0.3144	0.6829	0.8416	0.091
Mof_C 	C 	0.261	0.70001	0.8468	0.105
Mof_C 	C 	0.2267	0.69538	0.8702	-0.158
Mof_H 	H 	0.2062	0.7093	0.8651	0.095
Mof_C 	C 	0.2232	0.67045	0.9005	0.083
Mof_H 	H 	0.2003	0.6676	0.9163	0.024
Mof_C 	C 	0.26315	0.72658	0.81134	-0.04
Mof_C 	C 	0.24951	0.75723	0.82012	0.031
Mof_H 	H 	0.2387	0.7613	0.8489	0.006
Mof_C 	C 	0.26715	0.77521	0.74843	0.015
Mof_H 	H 	0.2682	0.7919	0.7269	0.015
Mof_C 	C 	0.28224	0.74554	0.7367	-0.029
Mof_C 	C 	0.28035	0.72116	0.7694	-0.035
Mof_H 	H 	0.2908	0.701	0.763	0.045
Mof_C 	C 	0.2993	0.74012	0.6907	0.078
Mof_C 	C 	0.323	0.76254	0.6695	-0.126
Mof_H 	H 	0.327	0.7824	0.6838	0.078
Mof_C 	C 	0.341	0.75628	0.6272	0.052
Mof_H 	H 	0.3567	0.7717	0.6134	0.031
Mof_C 	C 	0.33494	0.72686	0.6069	-0.11
Mof_C 	C 	0.3111	0.70365	0.6268	0.048
Mof_H 	H 	0.307	0.6839	0.6123	0.032
Mof_C 	C 	0.2938	0.71069	0.6683	-0.126
Mof_H 	H 	0.2779	0.6953	0.6818	0.078
Mof_C 	C 	0.3567	0.7167	0.56379	0.365
Mof_C 	C 	0.52166	0.53718	0.93605	0.369
Mof_C 	C 	0.53416	0.55583	0.89457	-0.136
Mof_C 	C 	0.56907	0.54997	0.87415	0.081
Mof_H 	H 	0.5856	0.5349	0.8873	0.018
Mof_C 	C 	0.57996	0.56587	0.8349	-0.156
Mof_H 	H 	0.6034	0.5609	0.8215	0.086
Mof_C 	C 	0.55724	0.58893	0.81487	0.102
Mof_C 	C 	0.5224	0.59577	0.8357	-0.151
Mof_H 	H 	0.5064	0.6116	0.8234	0.086
Mof_C 	C 	0.51142	0.57897	0.87509	0.077
Mof_H 	H 	0.4879	0.5836	0.8886	0.021
Mof_C 	C 	0.56791	0.60568	0.77094	-0.042
Mof_C 	C 	0.60561	0.61113	0.75905	0.03
Mof_H 	H 	0.6247	0.6046	0.7795	0.008
Mof_C 	C 	0.53978	0.61535	0.7385	-0.028
Mof_H 	H 	0.5141	0.6117	0.745	0.041
Mof_C 	C 	0.54974	0.62994	0.6982	-0.04
Mof_C 	C 	0.58863	0.63418	0.6895	0.02
Mof_H 	H 	0.5959	0.6436	0.6617	0.007
Mof_C 	C 	0.52175	0.64139	0.6645	0.102
Mof_C 	C 	0.4912	0.62345	0.6514	-0.153
Mof_H 	H 	0.4871	0.6034	0.665	0.088
Mof_C 	C 	0.46611	0.6343	0.6184	0.068
Mof_H 	H 	0.4455	0.6214	0.6096	0.024
Mof_C 	C 	0.4713	0.66452	0.598	-0.121
Mof_C 	C 	0.5021	0.6831	0.6114	0.073
Mof_H 	H 	0.506	0.7034	0.5986	0.023
Mof_C 	C 	0.52657	0.6714	0.6436	-0.153
Mof_H 	H 	0.5475	0.684	0.652	0.092
Mof_C 	C 	0.4435	0.67647	0.5602	0.366
Mof_C 	C 	0.67274	0.63403	0.5267	-0.06
Mof_H 	H 	0.6632	0.6134	0.5379	0.041
Mof_H 	H 	0.6558	0.6509	0.5379	0.04
Mof_C 	C 	0.7248	0.67142	0.52671	-0.069
Mof_H 	H 	0.7082	0.6885	0.538	0.042
Mof_H 	H 	0.7505	0.6755	0.538	0.043
Mof_C 	C 	0.7352	0.6132	0.52737	-0.065
Mof_H 	H 	0.7612	0.616	0.5387	0.04
Mof_H 	H 	0.7257	0.5926	0.5387	0.041
Mof_Cu	Cu	0.6714	0.63266	0.69857	0.723
Mof_Cu	Cu	0.74252	0.61063	0.69252	0.719
Mof_Cu	Cu	0.71215	0.63938	0.61713	0.726
Mof_Cu	Cu	0.72993	0.67406	0.69302	0.721
Mof_I 	I 	0.66664	0.68769	0.64358	-0.577
Mof_I 	I 	0.7174	0.63984	0.77006	-0.584
Mof_I 	I 	0.68628	0.5818	0.64346	-0.586
Mof_I 	I 	0.78599	0.64942	0.63907	-0.579
Mof_N 	N 	0.2214	0.42597	0.28752	-0.223
Mof_N 	N 	0.25083	0.78125	0.79005	-0.218
Mof_N 	N 	0.6161	0.62535	0.71947	-0.219
Mof_N 	N 	0.71104	0.63944	0.54437	-0.17
Mof_O 	O 	0.02983	0.46497	0.45248	-0.412
Mof_O 	O 	0.04639	0.51779	0.45186	-0.406
Mof_O 	O 	0.19664	0.55085	0.04839	-0.417
Mof_O 	O 	0.25923	0.54073	0.0497	-0.409
Mof_O 	O 	0.21295	0.61545	0.95354	-0.394
Mof_O 	O 	0.27691	0.60607	0.95283	-0.374
Mof_O 	O 	0.4891	0.54318	0.95165	-0.385
Mof_O 	O 	0.54525	0.51656	0.95149	-0.39
Mof_O 	O 	0.41828	0.65675	0.54675	-0.408
Mof_O 	O 	0.44822	0.70497	0.54691	-0.414
Mof_O 	O 	0.35031	0.68905	0.54806	-0.413
Mof_O 	O 	0.37976	0.73752	0.54868	-0.405
Mof_C 	C 	0.359	0.5803	0.9735	-0.208
Mof_H 	H 	0.3407	0.5653	0.9601	-0.225
Mof_H 	H 	0.3561	0.6017	0.9601	0.132
Mof_C 	C 	0.4014	0.5675	0.9729	-0.063
Mof_H 	H 	0.4196	0.5826	0.9594	0.077
Mof_H 	H 	0.4042	0.5461	0.9594	-0.212
Mof_C 	C 	0.1218	0.00809	0.5	-0.102
Mof_C 	C 	0.1631	0.02063	0.5	-0.124
Mof_Cu	Cu	0.30037	0.08384	0.5	0.91
Mof_Cu	Cu	0.2251	0.07135	0.5	0.918
Mof_Cu	Cu	0.03411	0.01564	0.5	0.917
Mof_N 	N 	0.1645	0.05616	0.5	-0.129
Mof_N 	N 	0.09424	0.03526	0.5	-0.131
Mof_C 	C 	0.8782	0.99191	0.5	-0.102
Mof_C 	C 	0.8369	0.97937	0.5	-0.124
Mof_Cu	Cu	0.69963	0.91616	0.5	0.91
Mof_Cu	Cu	0.7749	0.92865	0.5	0.918
Mof_Cu	Cu	0.96589	0.98436	0.5	0.917
Mof_N 	N 	0.8355	0.94384	0.5	-0.129
Mof_N 	N 	0.90576	0.96474	0.5	-0.131
Mof_C 	C 	0.3782	0.50809	-0	-0.152
Mof_C 	C 	0.3369	0.52063	-0	-0.173
Mof_Cu	Cu	0.19963	0.58384	-0	0.895
Mof_Cu	Cu	0.2749	0.57135	-0	0.904
Mof_Cu	Cu	0.46589	0.51564	-0	0.903
Mof_N 	N 	0.3355	0.55616	-0	-0.141
Mof_N 	N 	0.40576	0.53526	-0	-0.142
Mof_C 	C 	0.6218	0.49191	-0	-0.152
Mof_C 	C 	0.6631	0.47937	-0	-0.173
Mof_Cu	Cu	0.80037	0.41616	-0	0.895
Mof_Cu	Cu	0.7251	0.42865	-0	0.904
Mof_Cu	Cu	0.53411	0.48436	-0	0.903
Mof_N 	N 	0.6645	0.44384	-0	-0.141
Mof_N 	N 	0.59424	0.46474	-0	-0.142
Mof_Cu	Cu	0.50997	0.9692	-0	0.888
Mof_Cu	Cu	0.49003	0.0308	-0	0.888
Mof_Cu	Cu	0.99003	0.4692	0.5	0.903
Mof_Cu	Cu	0.00997	0.5308	0.5	0.903
Mof_Cu	Cu	0.11861	0.16926	-0	0.894
Mof_Cu	Cu	0.08325	0.22577	-0	0.889
Mof_Cu	Cu	0.88139	0.83074	-0	0.894
Mof_Cu	Cu	0.91675	0.77423	-0	0.889
Mof_Cu	Cu	0.38139	0.66926	0.5	0.909
Mof_Cu	Cu	0.41675	0.72577	0.5	0.904
Mof_Cu	Cu	0.61861	0.33074	0.5	0.909
Mof_Cu	Cu	0.58325	0.27423	0.5	0.904
_end
