# CIF file generated by openbabel 3.1.0, see https://openbabel.org
data_I
_chemical_name_common 'CELZEA_clean'
_cell_length_a 9.0023
_cell_length_b 10.6114
_cell_length_c 11.6941
_cell_angle_alpha 116.982
_cell_angle_beta 109.226
_cell_angle_gamma 90
_space_group_name_H-M_alt 'P 1'
_space_group_name_Hall 'P 1'
loop_
    _symmetry_equiv_pos_as_xyz
    x,y,z
loop_
    _atom_site_label
    _atom_site_type_symbol
    _atom_site_fract_x
    _atom_site_fract_y
    _atom_site_fract_z
    _atom_site_occupancy
    Mo1      Mo       0.76367    0.41345    0.53004    1.000
    Mo2      Mo       0.73633    0.88341    0.46996    1.000
    Mo3      Mo       0.23633    0.58655    0.46996    1.000
    Mo4      Mo       0.26367    0.11659    0.53004    1.000
    P1       P        0.53892    0.09557    0.38148    1.000
    P2       P        0.96108    0.71409    0.61852    1.000
    P3       P        0.46108    0.90443    0.61852    1.000
    P4       P        0.03892    0.28591    0.38148    1.000
    H1       H        0.35540    0.17490    0.25060    1.000
    H2       H        0.29760    0.00940    0.19900    1.000
    H3       H        0.45010    0.23140    0.11280    1.000
    H4       H        0.53660    0.16760    0.93020    1.000
    H5       H        0.14460    0.92430    0.74940    1.000
    H6       H        0.20240    0.81040    0.80100    1.000
    H7       H        0.04990    0.11860    0.88720    1.000
    H8       H        0.96340    0.23740    0.06980    1.000
    H9       H        0.64460    0.82510    0.74940    1.000
    H10      H        0.70240    0.99060    0.80100    1.000
    H11      H        0.54990    0.76860    0.88720    1.000
    H12      H        0.46340    0.83240    0.06980    1.000
    H13      H        0.85540    0.07570    0.25060    1.000
    H14      H        0.79760    0.18960    0.19900    1.000
    H15      H        0.95010    0.88140    0.11280    1.000
    H16      H        0.03660    0.76260    0.93020    1.000
    C1       C        0.39120    0.08126    0.22852    1.000
    C2       C        0.44700    0.03860    0.10920    1.000
    C3       C        0.47010    0.13677    0.06694    1.000
    C4       C        0.52200    0.09906    0.95852    1.000
    C5       C        0.10880    0.85274    0.77148    1.000
    C6       C        0.05300    0.92940    0.89080    1.000
    C7       C        0.02990    0.06983    0.93306    1.000
    C8       C        0.97800    0.14054    0.04148    1.000
    C9       C        0.60880    0.91874    0.77148    1.000
    C10      C        0.55300    0.96140    0.89080    1.000
    C11      C        0.52990    0.86323    0.93306    1.000
    C12      C        0.47800    0.90094    0.04148    1.000
    C13      C        0.89120    0.14726    0.22852    1.000
    C14      C        0.94700    0.07060    0.10920    1.000
    C15      C        0.97010    0.93017    0.06694    1.000
    C16      C        0.02200    0.85946    0.95852    1.000
    O1       O        0.68839    0.20132    0.42424    1.000
    O2       O        0.47346    0.14629    0.49520    1.000
    O3       O        0.58672    0.94653    0.34360    1.000
    O4       O        0.81161    0.77708    0.57576    1.000
    O5       O        0.02654    0.65109    0.50480    1.000
    O6       O        0.91328    0.60293    0.65640    1.000
    O7       O        0.31161    0.79868    0.57576    1.000
    O8       O        0.52654    0.85371    0.50480    1.000
    O9       O        0.41328    0.05347    0.65640    1.000
    O10      O        0.18839    0.22292    0.42424    1.000
    O11      O        0.97346    0.34891    0.49520    1.000
    O12      O        0.08672    0.39707    0.34360    1.000
