# CIF file generated by openbabel 3.1.0, see https://openbabel.org
data_I
_chemical_name_common 'COJHIT_clean'
_cell_length_a 13.2529
_cell_length_b 13.253
_cell_length_c 13.995
_cell_angle_alpha 90
_cell_angle_beta 90
_cell_angle_gamma 90
_space_group_name_H-M_alt 'P 1'
_space_group_name_Hall 'P 1'
loop_
    _symmetry_equiv_pos_as_xyz
    x,y,z
loop_
    _atom_site_label
    _atom_site_type_symbol
    _atom_site_fract_x
    _atom_site_fract_y
    _atom_site_fract_z
    _atom_site_occupancy
    Co1      Co       0.97058    0.00258    0.87270    1.000
    Co2      Co       0.02942    0.99742    0.37270    1.000
    Co3      Co       0.02942    0.00258    0.62730    1.000
    Co4      Co       0.97058    0.99742    0.12730    1.000
    H1       H        0.72940    0.99770    0.86140    1.000
    H2       H        0.91920    0.76510    0.86750    1.000
    H3       H        0.95020    0.58700    0.87970    1.000
    H4       H        0.94740    0.41740    0.88710    1.000
    H5       H        0.55890    0.00480    0.85340    1.000
    H6       H        0.38660    0.00470    0.85690    1.000
    H7       H        0.27060    0.00230    0.36140    1.000
    H8       H        0.08080    0.23490    0.36750    1.000
    H9       H        0.04980    0.41300    0.37970    1.000
    H10      H        0.05260    0.58260    0.38710    1.000
    H11      H        0.44110    0.99520    0.35340    1.000
    H12      H        0.61340    0.99530    0.35690    1.000
    H13      H        0.27060    0.99770    0.63860    1.000
    H14      H        0.08080    0.76510    0.63250    1.000
    H15      H        0.04980    0.58700    0.62030    1.000
    H16      H        0.05260    0.41740    0.61290    1.000
    H17      H        0.44110    0.00480    0.64660    1.000
    H18      H        0.61340    0.00470    0.64310    1.000
    H19      H        0.72940    0.00230    0.13860    1.000
    H20      H        0.91920    0.23490    0.13250    1.000
    H21      H        0.95020    0.41300    0.12030    1.000
    H22      H        0.94740    0.58260    0.11290    1.000
    H23      H        0.55890    0.99520    0.14660    1.000
    H24      H        0.38660    0.99530    0.14310    1.000
    C1       C        0.75160    0.99800    0.92590    1.000
    C2       C        0.95760    0.78530    0.81350    1.000
    C3       C        0.97190    0.55370    0.82320    1.000
    C4       C        0.96920    0.44970    0.83010    1.000
    C5       C        0.52380    0.00290    0.91260    1.000
    C6       C        0.42230    0.00280    0.91570    1.000
    C7       C        0.18590    0.02480    0.92250    1.000
    C8       C        0.97070    0.22290    0.82520    1.000
    C9       C        0.24840    0.00200    0.42590    1.000
    C10      C        0.04240    0.21470    0.31350    1.000
    C11      C        0.02810    0.44630    0.32320    1.000
    C12      C        0.03080    0.55030    0.33010    1.000
    C13      C        0.47620    0.99710    0.41260    1.000
    C14      C        0.57770    0.99720    0.41570    1.000
    C15      C        0.81410    0.97520    0.42250    1.000
    C16      C        0.02930    0.77710    0.32520    1.000
    C17      C        0.24840    0.99800    0.57410    1.000
    C18      C        0.04240    0.78530    0.68650    1.000
    C19      C        0.02810    0.55370    0.67680    1.000
    C20      C        0.03080    0.44970    0.66990    1.000
    C21      C        0.47620    0.00290    0.58740    1.000
    C22      C        0.57770    0.00280    0.58430    1.000
    C23      C        0.81410    0.02480    0.57750    1.000
    C24      C        0.02930    0.22290    0.67480    1.000
    C25      C        0.75160    0.00200    0.07410    1.000
    C26      C        0.95760    0.21470    0.18650    1.000
    C27      C        0.97190    0.44630    0.17680    1.000
    C28      C        0.96920    0.55030    0.16990    1.000
    C29      C        0.52380    0.99710    0.08740    1.000
    C30      C        0.42230    0.99720    0.08430    1.000
    C31      C        0.18590    0.97520    0.07750    1.000
    C32      C        0.97070    0.77710    0.17480    1.000
    C33      C        0.00000    0.72020    0.75000    1.000
    C34      C        0.00000    0.62000    0.75000    1.000
    C35      C        0.00000    0.39320    0.75000    1.000
    C36      C        0.00000    0.28800    0.75000    1.000
    C37      C        0.00000    0.27980    0.25000    1.000
    C38      C        0.00000    0.38000    0.25000    1.000
    C39      C        0.00000    0.60680    0.25000    1.000
    C40      C        0.00000    0.71200    0.25000    1.000
    C41      C        0.68790    0.00000    0.00000    1.000
    C42      C        0.57590    0.00000    0.00000    1.000
    C43      C        0.36630    0.00000    0.00000    1.000
    C44      C        0.25460    0.00000    0.00000    1.000
    C45      C        0.31210    0.00000    0.50000    1.000
    C46      C        0.42410    0.00000    0.50000    1.000
    C47      C        0.63370    0.00000    0.50000    1.000
    C48      C        0.74540    0.00000    0.50000    1.000
    N1       N        0.97610    0.87710    0.79130    1.000
    N2       N        0.84790    0.99480    0.94980    1.000
    N3       N        0.09470    0.01930    0.95360    1.000
    N4       N        0.97730    0.12130    0.79310    1.000
    N5       N        0.02390    0.12290    0.29130    1.000
    N6       N        0.15210    0.00520    0.44980    1.000
    N7       N        0.90530    0.98070    0.45360    1.000
    N8       N        0.02270    0.87870    0.29310    1.000
    N9       N        0.02390    0.87710    0.70870    1.000
    N10      N        0.15210    0.99480    0.55020    1.000
    N11      N        0.90530    0.01930    0.54640    1.000
    N12      N        0.02270    0.12130    0.70690    1.000
    N13      N        0.97610    0.12290    0.20870    1.000
    N14      N        0.84790    0.00520    0.05020    1.000
    N15      N        0.09470    0.98070    0.04640    1.000
    N16      N        0.97730    0.87870    0.20690    1.000
