# CIF file generated by openbabel 3.1.0, see https://openbabel.org
data_I
_chemical_name_common 'image0'
_cell_length_a 10.911
_cell_length_b 6.413
_cell_length_c 17.045
_cell_angle_alpha 90
_cell_angle_beta 105.867
_cell_angle_gamma 90
_space_group_name_H-M_alt 'P 1'
_space_group_name_Hall 'P 1'
loop_
    _symmetry_equiv_pos_as_xyz
    x,y,z
loop_
    _atom_site_label
    _atom_site_type_symbol
    _atom_site_fract_x
    _atom_site_fract_y
    _atom_site_fract_z
    _atom_site_occupancy
    Co1      Co       0.53436    0.99644    0.41579    1.000
    O1       O        0.35990    0.12640    0.34520    1.000
    O2       O        0.38420    0.46270    0.38150    1.000
    O3       O        0.34330    0.03260    0.04860    1.000
    O4       O        0.27590    0.36160    0.03460    1.000
    O5       O        0.44310    0.80980    0.48260    1.000
    H1       H        0.35230    0.80970    0.45350    1.000
    C1       C        0.33040    0.31510    0.33600    1.000
    C2       C        0.22140    0.38320    0.26420    1.000
    C3       C        0.17850    0.24450    0.19860    1.000
    H2       H        0.21710    0.11470    0.20000    1.000
    C4       C        0.07800    0.30020    0.13120    1.000
    C5       C        0.01870    0.49440    0.13080    1.000
    H3       H        0.94910    0.53040    0.08770    1.000
    C6       C        0.06450    0.63410    0.19540    1.000
    H4       H        0.02650    0.76390    0.19500    1.000
    C7       C        0.16730    0.57690    0.26010    1.000
    H5       H        0.20010    0.67240    0.30160    1.000
    C8       C        0.03840    0.15220    0.06180    1.000
    C9       C        0.91510    0.06930    0.03980    1.000
    H6       H        0.85620    0.11810    0.06580    1.000
    C10      C        0.12230    0.08490    0.02020    1.000
    C11      C        0.25900    0.17040    0.03650    1.000
    Co2      Co       0.46564    0.49644    0.08421    1.000
    O6       O        0.64010    0.62640    0.15480    1.000
    O7       O        0.61580    0.96270    0.11850    1.000
    O8       O        0.65670    0.53260    0.45140    1.000
    O9       O        0.72410    0.86160    0.46540    1.000
    O10      O        0.55690    0.30980    0.01740    1.000
    H7       H        0.64770    0.30970    0.04650    1.000
    C12      C        0.66960    0.81510    0.16400    1.000
    C13      C        0.77860    0.88320    0.23580    1.000
    C14      C        0.82150    0.74450    0.30140    1.000
    H8       H        0.78290    0.61470    0.30000    1.000
    C15      C        0.92200    0.80020    0.36880    1.000
    C16      C        0.98130    0.99440    0.36920    1.000
    H9       H        0.05090    0.03040    0.41230    1.000
    C17      C        0.93550    0.13410    0.30460    1.000
    H10      H        0.97350    0.26390    0.30500    1.000
    C18      C        0.83270    0.07690    0.23990    1.000
    H11      H        0.79990    0.17240    0.19840    1.000
    C19      C        0.96160    0.65220    0.43820    1.000
    C20      C        0.08490    0.56930    0.46020    1.000
    H12      H        0.14380    0.61810    0.43420    1.000
    C21      C        0.87770    0.58490    0.47980    1.000
    C22      C        0.74100    0.67040    0.46350    1.000
    Co3      Co       0.46564    0.00356    0.58421    1.000
    O11      O        0.64010    0.87360    0.65480    1.000
    O12      O        0.61580    0.53730    0.61850    1.000
    O13      O        0.65670    0.96740    0.95140    1.000
    O14      O        0.72410    0.63840    0.96540    1.000
    O15      O        0.55690    0.19020    0.51740    1.000
    H13      H        0.64770    0.19030    0.54650    1.000
    C23      C        0.66960    0.68490    0.66400    1.000
    C24      C        0.77860    0.61680    0.73580    1.000
    C25      C        0.82150    0.75550    0.80140    1.000
    H14      H        0.78290    0.88530    0.80000    1.000
    C26      C        0.92200    0.69980    0.86880    1.000
    C27      C        0.98130    0.50560    0.86920    1.000
    H15      H        0.05090    0.46960    0.91230    1.000
    C28      C        0.93550    0.36590    0.80460    1.000
    H16      H        0.97350    0.23610    0.80500    1.000
    C29      C        0.83270    0.42310    0.73990    1.000
    H17      H        0.79990    0.32760    0.69840    1.000
    C30      C        0.96160    0.84780    0.93820    1.000
    C31      C        0.08490    0.93070    0.96020    1.000
    H18      H        0.14380    0.88190    0.93420    1.000
    C32      C        0.87770    0.91510    0.97980    1.000
    C33      C        0.74100    0.82960    0.96350    1.000
    Co4      Co       0.53436    0.50356    0.91579    1.000
    O16      O        0.35990    0.37360    0.84520    1.000
    O17      O        0.38420    0.03730    0.88150    1.000
    O18      O        0.34330    0.46740    0.54860    1.000
    O19      O        0.27590    0.13840    0.53460    1.000
    O20      O        0.44310    0.69020    0.98260    1.000
    H19      H        0.35230    0.69030    0.95350    1.000
    C34      C        0.33040    0.18490    0.83600    1.000
    C35      C        0.22140    0.11680    0.76420    1.000
    C36      C        0.17850    0.25550    0.69860    1.000
    H20      H        0.21710    0.38530    0.70000    1.000
    C37      C        0.07800    0.19980    0.63120    1.000
    C38      C        0.01870    0.00560    0.63080    1.000
    H21      H        0.94910    0.96960    0.58770    1.000
    C39      C        0.06450    0.86590    0.69540    1.000
    H22      H        0.02650    0.73610    0.69500    1.000
    C40      C        0.16730    0.92310    0.76010    1.000
    H23      H        0.20010    0.82760    0.80160    1.000
    C41      C        0.03840    0.34780    0.56180    1.000
    C42      C        0.91510    0.43070    0.53980    1.000
    H24      H        0.85620    0.38190    0.56580    1.000
    C43      C        0.12230    0.41510    0.52020    1.000
    C44      C        0.25900    0.32960    0.53650    1.000
    Co5      Co       0.50000    0.50000    0.50000    1.000
    Co6      Co       0.50000    0.00000    0.00000    1.000
