data_functionalizedCrystal
_audit_creation_method	'EQeq! by Chris Wilmer'
_symmetry_space_group_name_H-M	'P1'
_symmetry_Int_Tables_number	1
_symmetry_cell_setting	triclinic
loop_
_symmetry_equiv_pos_as_xyz
  x,y,z
_cell_length_a	18.5802
_cell_length_b	18.5802
_cell_length_c	45.903
_cell_angle_alpha	90
_cell_angle_beta	90
_cell_angle_gamma	90
loop_
_atom_site_label
_atom_site_type_symbol
_atom_site_fract_x
_atom_site_fract_y
_atom_site_fract_z
_atom_site_charge
Mof_C 	C 	0.36586	0.23102	0.22327	0.361
Mof_O 	O 	0.3104	0.2072	0.21121	-0.411
Mof_O 	O 	0.36897	0.264	0.24734	-0.407
Mof_C 	C 	0.43546	0.2193	0.20773	-0.09
Mof_C 	C 	0.43527	0.1908	0.18009	-0.005
Mof_H 	H 	0.3917	0.1819	0.1708	0.045
Mof_C 	C 	0.5562	0.063	0.10079	-0.028
Mof_H 	H 	0.5922	0.0304	0.0959	0.03
Mof_C 	C 	0.4524	0.1284	0.08821	-0.038
Mof_H 	H 	0.4178	0.1412	0.0745	0.04
Mof_C 	C 	0.4504	0.1625	0.11499	-0.05
Mof_H 	H 	0.416	0.1976	0.1189	0.045
Mof_C 	C 	0.5566	0.0964	0.12757	-0.055
Mof_H 	H 	0.5942	0.088	0.1405	0.049
Mof_C 	C 	0.86586	0.73102	0.72327	0.359
Mof_O 	O 	0.8104	0.7072	0.71121	-0.411
Mof_O 	O 	0.86897	0.764	0.74734	-0.406
Mof_C 	C 	0.93546	0.7193	0.70773	-0.086
Mof_C 	C 	0.93527	0.6908	0.68009	-0.001
Mof_H 	H 	0.8917	0.6819	0.6708	0.044
Mof_C 	C 	0.0562	0.563	0.60079	-0.025
Mof_H 	H 	0.0922	0.5304	0.5959	0.031
Mof_C 	C 	0.9524	0.6284	0.58821	-0.03
Mof_H 	H 	0.9178	0.6412	0.5745	0.039
Mof_C 	C 	0.9504	0.6625	0.61499	-0.049
Mof_H 	H 	0.916	0.6976	0.6189	0.047
Mof_C 	C 	0.0566	0.5964	0.62757	-0.056
Mof_H 	H 	0.0942	0.588	0.6405	0.05
Mof_C 	C 	0.63414	0.76898	0.22327	0.36
Mof_O 	O 	0.6896	0.7928	0.21121	-0.411
Mof_O 	O 	0.63103	0.736	0.24734	-0.408
Mof_C 	C 	0.56454	0.7807	0.20773	-0.09
Mof_C 	C 	0.56473	0.8092	0.18009	-0.004
Mof_H 	H 	0.6083	0.8181	0.1708	0.045
Mof_C 	C 	0.4438	0.937	0.10079	-0.025
Mof_H 	H 	0.4078	0.9696	0.0959	0.033
Mof_C 	C 	0.5476	0.8716	0.08821	-0.033
Mof_H 	H 	0.5822	0.8588	0.0745	0.039
Mof_C 	C 	0.5496	0.8375	0.11499	-0.053
Mof_H 	H 	0.584	0.8024	0.1189	0.047
Mof_C 	C 	0.4434	0.9036	0.12757	-0.056
Mof_H 	H 	0.4058	0.912	0.1405	0.05
Mof_C 	C 	0.13414	0.26898	0.72327	0.36
Mof_O 	O 	0.1896	0.2928	0.71121	-0.411
Mof_O 	O 	0.13103	0.236	0.74734	-0.408
Mof_C 	C 	0.06454	0.2807	0.70773	-0.089
Mof_C 	C 	0.06473	0.3092	0.68009	-0.005
Mof_H 	H 	0.1083	0.3181	0.6708	0.045
Mof_C 	C 	0.9438	0.437	0.60079	-0.024
Mof_H 	H 	0.9078	0.4696	0.5959	0.031
Mof_C 	C 	0.0476	0.3716	0.58821	-0.036
Mof_H 	H 	0.0822	0.3588	0.5745	0.039
Mof_C 	C 	0.0496	0.3375	0.61499	-0.051
Mof_H 	H 	0.084	0.3024	0.6189	0.046
Mof_C 	C 	0.9434	0.4036	0.62757	-0.052
Mof_H 	H 	0.9058	0.412	0.6405	0.049
Mof_C 	C 	0.76898	0.36586	0.22327	0.361
Mof_O 	O 	0.7928	0.3104	0.21121	-0.411
Mof_O 	O 	0.736	0.36897	0.24734	-0.408
Mof_C 	C 	0.7807	0.43546	0.20773	-0.091
Mof_C 	C 	0.8092	0.43527	0.18009	-0.004
Mof_H 	H 	0.8181	0.3917	0.1708	0.045
Mof_C 	C 	0.937	0.5562	0.10079	-0.025
Mof_H 	H 	0.9696	0.5922	0.0959	0.033
Mof_C 	C 	0.8716	0.4524	0.08821	-0.033
Mof_H 	H 	0.8588	0.4178	0.0745	0.038
Mof_C 	C 	0.8375	0.4504	0.11499	-0.054
Mof_H 	H 	0.8024	0.416	0.1189	0.047
Mof_C 	C 	0.9036	0.5566	0.12757	-0.056
Mof_H 	H 	0.912	0.5942	0.1405	0.051
Mof_C 	C 	0.26898	0.86586	0.72327	0.359
Mof_O 	O 	0.2928	0.8104	0.71121	-0.411
Mof_O 	O 	0.236	0.86897	0.74734	-0.407
Mof_C 	C 	0.2807	0.93546	0.70773	-0.086
Mof_C 	C 	0.3092	0.93527	0.68009	-0.001
Mof_H 	H 	0.3181	0.8917	0.6708	0.044
Mof_C 	C 	0.437	0.0562	0.60079	-0.025
Mof_H 	H 	0.4696	0.0922	0.5959	0.031
Mof_C 	C 	0.3716	0.9524	0.58821	-0.03
Mof_H 	H 	0.3588	0.9178	0.5745	0.039
Mof_C 	C 	0.3375	0.9504	0.61499	-0.049
Mof_H 	H 	0.3024	0.916	0.6189	0.046
Mof_C 	C 	0.4036	0.0566	0.62757	-0.056
Mof_H 	H 	0.412	0.0942	0.6405	0.05
Mof_C 	C 	0.23102	0.63414	0.22327	0.36
Mof_O 	O 	0.2072	0.6896	0.21121	-0.411
Mof_O 	O 	0.264	0.63103	0.24734	-0.408
Mof_C 	C 	0.2193	0.56454	0.20773	-0.09
Mof_C 	C 	0.1908	0.56473	0.18009	-0.005
Mof_H 	H 	0.1819	0.6083	0.1708	0.045
Mof_C 	C 	0.063	0.4438	0.10079	-0.029
Mof_H 	H 	0.0304	0.4078	0.0959	0.03
Mof_C 	C 	0.1284	0.5476	0.08821	-0.038
Mof_H 	H 	0.1412	0.5822	0.0745	0.04
Mof_C 	C 	0.1625	0.5496	0.11499	-0.049
Mof_H 	H 	0.1976	0.584	0.1189	0.045
Mof_C 	C 	0.0964	0.4434	0.12757	-0.055
Mof_H 	H 	0.088	0.4058	0.1405	0.048
Mof_C 	C 	0.73102	0.13414	0.72327	0.36
Mof_O 	O 	0.7072	0.1896	0.71121	-0.411
Mof_O 	O 	0.764	0.13103	0.74734	-0.408
Mof_C 	C 	0.7193	0.06454	0.70773	-0.089
Mof_C 	C 	0.6908	0.06473	0.68009	-0.005
Mof_H 	H 	0.6819	0.1083	0.6708	0.045
Mof_C 	C 	0.563	0.9438	0.60079	-0.024
Mof_H 	H 	0.5304	0.9078	0.5959	0.031
Mof_C 	C 	0.6284	0.0476	0.58821	-0.036
Mof_H 	H 	0.6412	0.0822	0.5745	0.039
Mof_C 	C 	0.6625	0.0496	0.61499	-0.051
Mof_H 	H 	0.6976	0.084	0.6189	0.046
Mof_C 	C 	0.5964	0.9434	0.62757	-0.052
Mof_H 	H 	0.588	0.9058	0.6405	0.049
Mof_C 	C 	0.63414	0.23102	0.77673	0.36
Mof_O 	O 	0.6896	0.2072	0.78879	-0.411
Mof_O 	O 	0.63103	0.264	0.75266	-0.408
Mof_C 	C 	0.56454	0.2193	0.79227	-0.09
Mof_C 	C 	0.56473	0.1908	0.81991	-0.005
Mof_H 	H 	0.6083	0.1819	0.8292	0.045
Mof_C 	C 	0.4438	0.063	0.89921	-0.029
Mof_H 	H 	0.4078	0.0304	0.9041	0.03
Mof_C 	C 	0.5476	0.1284	0.91179	-0.038
Mof_H 	H 	0.5822	0.1412	0.9255	0.04
Mof_C 	C 	0.5496	0.1625	0.88501	-0.049
Mof_H 	H 	0.584	0.1976	0.8811	0.045
Mof_C 	C 	0.4434	0.0964	0.87243	-0.055
Mof_H 	H 	0.4058	0.088	0.8595	0.048
Mof_C 	C 	0.13414	0.73102	0.27673	0.36
Mof_O 	O 	0.1896	0.7072	0.28879	-0.411
Mof_O 	O 	0.13103	0.764	0.25266	-0.408
Mof_C 	C 	0.06454	0.7193	0.29227	-0.089
Mof_C 	C 	0.06473	0.6908	0.31991	-0.005
Mof_H 	H 	0.1083	0.6819	0.3292	0.045
Mof_C 	C 	0.9438	0.563	0.39921	-0.024
Mof_H 	H 	0.9078	0.5304	0.4041	0.031
Mof_C 	C 	0.0476	0.6284	0.41179	-0.036
Mof_H 	H 	0.0822	0.6412	0.4255	0.039
Mof_C 	C 	0.0496	0.6625	0.38501	-0.051
Mof_H 	H 	0.084	0.6976	0.3811	0.046
Mof_C 	C 	0.9434	0.5964	0.37243	-0.052
Mof_H 	H 	0.9058	0.588	0.3595	0.049
Mof_C 	C 	0.36586	0.76898	0.77673	0.36
Mof_O 	O 	0.3104	0.7928	0.78879	-0.411
Mof_O 	O 	0.36897	0.736	0.75266	-0.408
Mof_C 	C 	0.43546	0.7807	0.79227	-0.091
Mof_C 	C 	0.43527	0.8092	0.81991	-0.004
Mof_H 	H 	0.3917	0.8181	0.8292	0.045
Mof_C 	C 	0.5562	0.937	0.89921	-0.025
Mof_H 	H 	0.5922	0.9696	0.9041	0.033
Mof_C 	C 	0.4524	0.8716	0.91179	-0.033
Mof_H 	H 	0.4178	0.8588	0.9255	0.038
Mof_C 	C 	0.4504	0.8375	0.88501	-0.054
Mof_H 	H 	0.416	0.8024	0.8811	0.047
Mof_C 	C 	0.5566	0.9036	0.87243	-0.056
Mof_H 	H 	0.5942	0.912	0.8595	0.051
Mof_C 	C 	0.86586	0.26898	0.27673	0.359
Mof_O 	O 	0.8104	0.2928	0.28879	-0.411
Mof_O 	O 	0.86897	0.236	0.25266	-0.407
Mof_C 	C 	0.93546	0.2807	0.29227	-0.086
Mof_C 	C 	0.93527	0.3092	0.31991	-0.001
Mof_H 	H 	0.8917	0.3181	0.3292	0.044
Mof_C 	C 	0.0562	0.437	0.39921	-0.025
Mof_H 	H 	0.0922	0.4696	0.4041	0.031
Mof_C 	C 	0.9524	0.3716	0.41179	-0.03
Mof_H 	H 	0.9178	0.3588	0.4255	0.039
Mof_C 	C 	0.9504	0.3375	0.38501	-0.049
Mof_H 	H 	0.916	0.3024	0.3811	0.046
Mof_C 	C 	0.0566	0.4036	0.37243	-0.056
Mof_H 	H 	0.0942	0.412	0.3595	0.05
Mof_C 	C 	0.23102	0.36586	0.77673	0.36
Mof_O 	O 	0.2072	0.3104	0.78879	-0.412
Mof_O 	O 	0.264	0.36897	0.75266	-0.408
Mof_C 	C 	0.2193	0.43546	0.79227	-0.091
Mof_C 	C 	0.1908	0.43527	0.81991	-0.005
Mof_H 	H 	0.1819	0.3917	0.8292	0.045
Mof_C 	C 	0.063	0.5562	0.89921	-0.028
Mof_H 	H 	0.0304	0.5922	0.9041	0.03
Mof_C 	C 	0.1284	0.4524	0.91179	-0.038
Mof_H 	H 	0.1412	0.4178	0.9255	0.04
Mof_C 	C 	0.1625	0.4504	0.88501	-0.05
Mof_H 	H 	0.1976	0.416	0.8811	0.045
Mof_C 	C 	0.0964	0.5566	0.87243	-0.055
Mof_H 	H 	0.088	0.5942	0.8595	0.049
Mof_C 	C 	0.73102	0.86586	0.27673	0.359
Mof_O 	O 	0.7072	0.8104	0.28879	-0.411
Mof_O 	O 	0.764	0.86897	0.25266	-0.406
Mof_C 	C 	0.7193	0.93546	0.29227	-0.086
Mof_C 	C 	0.6908	0.93527	0.31991	-0.001
Mof_H 	H 	0.6819	0.8917	0.3292	0.044
Mof_C 	C 	0.563	0.0562	0.39921	-0.025
Mof_H 	H 	0.5304	0.0922	0.4041	0.031
Mof_C 	C 	0.6284	0.9524	0.41179	-0.03
Mof_H 	H 	0.6412	0.9178	0.4255	0.039
Mof_C 	C 	0.6625	0.9504	0.38501	-0.049
Mof_H 	H 	0.6976	0.916	0.3811	0.047
Mof_C 	C 	0.5964	0.0566	0.37243	-0.056
Mof_H 	H 	0.588	0.0942	0.3595	0.05
Mof_C 	C 	0.76898	0.63414	0.77673	0.36
Mof_O 	O 	0.7928	0.6896	0.78879	-0.411
Mof_O 	O 	0.736	0.63103	0.75266	-0.408
Mof_C 	C 	0.7807	0.56454	0.79227	-0.09
Mof_C 	C 	0.8092	0.56473	0.81991	-0.004
Mof_H 	H 	0.8181	0.6083	0.8292	0.045
Mof_C 	C 	0.937	0.4438	0.89921	-0.025
Mof_H 	H 	0.9696	0.4078	0.9041	0.033
Mof_C 	C 	0.8716	0.5476	0.91179	-0.033
Mof_H 	H 	0.8588	0.5822	0.9255	0.039
Mof_C 	C 	0.8375	0.5496	0.88501	-0.053
Mof_H 	H 	0.8024	0.584	0.8811	0.047
Mof_C 	C 	0.9036	0.4434	0.87243	-0.056
Mof_H 	H 	0.912	0.4058	0.8595	0.05
Mof_C 	C 	0.26898	0.13414	0.27673	0.36
Mof_O 	O 	0.2928	0.1896	0.28879	-0.411
Mof_O 	O 	0.236	0.13103	0.25266	-0.408
Mof_C 	C 	0.2807	0.06454	0.29227	-0.089
Mof_C 	C 	0.3092	0.06473	0.31991	-0.005
Mof_H 	H 	0.3181	0.1083	0.3292	0.045
Mof_C 	C 	0.437	0.9438	0.39921	-0.024
Mof_H 	H 	0.4696	0.9078	0.4041	0.031
Mof_C 	C 	0.3716	0.0476	0.41179	-0.036
Mof_H 	H 	0.3588	0.0822	0.4255	0.039
Mof_C 	C 	0.3375	0.0496	0.38501	-0.051
Mof_H 	H 	0.3024	0.084	0.3811	0.046
Mof_C 	C 	0.4036	0.9434	0.37243	-0.052
Mof_H 	H 	0.412	0.9058	0.3595	0.049
Mof_C 	C 	0.63414	0.76898	0.77673	0.36
Mof_O 	O 	0.6896	0.7928	0.78879	-0.411
Mof_O 	O 	0.63103	0.736	0.75266	-0.408
Mof_C 	C 	0.56454	0.7807	0.79227	-0.09
Mof_C 	C 	0.56473	0.8092	0.81991	-0.004
Mof_H 	H 	0.6083	0.8181	0.8292	0.045
Mof_C 	C 	0.4438	0.937	0.89921	-0.025
Mof_H 	H 	0.4078	0.9696	0.9041	0.033
Mof_C 	C 	0.5476	0.8716	0.91179	-0.033
Mof_H 	H 	0.5822	0.8588	0.9255	0.039
Mof_C 	C 	0.5496	0.8375	0.88501	-0.053
Mof_H 	H 	0.584	0.8024	0.8811	0.047
Mof_C 	C 	0.4434	0.9036	0.87243	-0.056
Mof_H 	H 	0.4058	0.912	0.8595	0.05
Mof_C 	C 	0.13414	0.26898	0.27673	0.36
Mof_O 	O 	0.1896	0.2928	0.28879	-0.411
Mof_O 	O 	0.13103	0.236	0.25266	-0.408
Mof_C 	C 	0.06454	0.2807	0.29227	-0.089
Mof_C 	C 	0.06473	0.3092	0.31991	-0.005
Mof_H 	H 	0.1083	0.3181	0.3292	0.045
Mof_C 	C 	0.9438	0.437	0.39921	-0.024
Mof_H 	H 	0.9078	0.4696	0.4041	0.031
Mof_C 	C 	0.0476	0.3716	0.41179	-0.036
Mof_H 	H 	0.0822	0.3588	0.4255	0.039
Mof_C 	C 	0.0496	0.3375	0.38501	-0.051
Mof_H 	H 	0.084	0.3024	0.3811	0.046
Mof_C 	C 	0.9434	0.4036	0.37243	-0.052
Mof_H 	H 	0.9058	0.412	0.3595	0.049
Mof_C 	C 	0.36586	0.23102	0.77673	0.36
Mof_O 	O 	0.3104	0.2072	0.78879	-0.412
Mof_O 	O 	0.36897	0.264	0.75266	-0.408
Mof_C 	C 	0.43546	0.2193	0.79227	-0.091
Mof_C 	C 	0.43527	0.1908	0.81991	-0.005
Mof_H 	H 	0.3917	0.1819	0.8292	0.045
Mof_C 	C 	0.5562	0.063	0.89921	-0.028
Mof_H 	H 	0.5922	0.0304	0.9041	0.03
Mof_C 	C 	0.4524	0.1284	0.91179	-0.038
Mof_H 	H 	0.4178	0.1412	0.9255	0.04
Mof_C 	C 	0.4504	0.1625	0.88501	-0.05
Mof_H 	H 	0.416	0.1976	0.8811	0.045
Mof_C 	C 	0.5566	0.0964	0.87243	-0.055
Mof_H 	H 	0.5942	0.088	0.8595	0.049
Mof_C 	C 	0.86586	0.73102	0.27673	0.359
Mof_O 	O 	0.8104	0.7072	0.28879	-0.411
Mof_O 	O 	0.86897	0.764	0.25266	-0.406
Mof_C 	C 	0.93546	0.7193	0.29227	-0.086
Mof_C 	C 	0.93527	0.6908	0.31991	-0.001
Mof_H 	H 	0.8917	0.6819	0.3292	0.044
Mof_C 	C 	0.0562	0.563	0.39921	-0.025
Mof_H 	H 	0.0922	0.5304	0.4041	0.031
Mof_C 	C 	0.9524	0.6284	0.41179	-0.03
Mof_H 	H 	0.9178	0.6412	0.4255	0.039
Mof_C 	C 	0.9504	0.6625	0.38501	-0.049
Mof_H 	H 	0.916	0.6976	0.3811	0.047
Mof_C 	C 	0.0566	0.5964	0.37243	-0.056
Mof_H 	H 	0.0942	0.588	0.3595	0.05
Mof_C 	C 	0.23102	0.63414	0.77673	0.36
Mof_O 	O 	0.2072	0.6896	0.78879	-0.411
Mof_O 	O 	0.264	0.63103	0.75266	-0.408
Mof_C 	C 	0.2193	0.56454	0.79227	-0.09
Mof_C 	C 	0.1908	0.56473	0.81991	-0.005
Mof_H 	H 	0.1819	0.6083	0.8292	0.045
Mof_C 	C 	0.063	0.4438	0.89921	-0.029
Mof_H 	H 	0.0304	0.4078	0.9041	0.03
Mof_C 	C 	0.1284	0.5476	0.91179	-0.038
Mof_H 	H 	0.1412	0.5822	0.9255	0.04
Mof_C 	C 	0.1625	0.5496	0.88501	-0.049
Mof_H 	H 	0.1976	0.584	0.8811	0.045
Mof_C 	C 	0.0964	0.4434	0.87243	-0.055
Mof_H 	H 	0.088	0.4058	0.8595	0.048
Mof_C 	C 	0.73102	0.13414	0.27673	0.36
Mof_O 	O 	0.7072	0.1896	0.28879	-0.411
Mof_O 	O 	0.764	0.13103	0.25266	-0.408
Mof_C 	C 	0.7193	0.06454	0.29227	-0.089
Mof_C 	C 	0.6908	0.06473	0.31991	-0.005
Mof_H 	H 	0.6819	0.1083	0.3292	0.045
Mof_C 	C 	0.563	0.9438	0.39921	-0.024
Mof_H 	H 	0.5304	0.9078	0.4041	0.031
Mof_C 	C 	0.6284	0.0476	0.41179	-0.036
Mof_H 	H 	0.6412	0.0822	0.4255	0.039
Mof_C 	C 	0.6625	0.0496	0.38501	-0.051
Mof_H 	H 	0.6976	0.084	0.3811	0.046
Mof_C 	C 	0.5964	0.9434	0.37243	-0.052
Mof_H 	H 	0.588	0.9058	0.3595	0.049
Mof_C 	C 	0.76898	0.36586	0.77673	0.36
Mof_O 	O 	0.7928	0.3104	0.78879	-0.411
Mof_O 	O 	0.736	0.36897	0.75266	-0.408
Mof_C 	C 	0.7807	0.43546	0.79227	-0.091
Mof_C 	C 	0.8092	0.43527	0.81991	-0.004
Mof_H 	H 	0.8181	0.3917	0.8292	0.045
Mof_C 	C 	0.937	0.5562	0.89921	-0.025
Mof_H 	H 	0.9696	0.5922	0.9041	0.033
Mof_C 	C 	0.8716	0.4524	0.91179	-0.033
Mof_H 	H 	0.8588	0.4178	0.9255	0.038
Mof_C 	C 	0.8375	0.4504	0.88501	-0.054
Mof_H 	H 	0.8024	0.416	0.8811	0.047
Mof_C 	C 	0.9036	0.5566	0.87243	-0.056
Mof_H 	H 	0.912	0.5942	0.8595	0.051
Mof_C 	C 	0.26898	0.86586	0.27673	0.359
Mof_O 	O 	0.2928	0.8104	0.28879	-0.411
Mof_O 	O 	0.236	0.86897	0.25266	-0.407
Mof_C 	C 	0.2807	0.93546	0.29227	-0.086
Mof_C 	C 	0.3092	0.93527	0.31991	-0.001
Mof_H 	H 	0.3181	0.8917	0.3292	0.044
Mof_C 	C 	0.437	0.0562	0.39921	-0.025
Mof_H 	H 	0.4696	0.0922	0.4041	0.031
Mof_C 	C 	0.3716	0.9524	0.41179	-0.03
Mof_H 	H 	0.3588	0.9178	0.4255	0.039
Mof_C 	C 	0.3375	0.9504	0.38501	-0.049
Mof_H 	H 	0.3024	0.916	0.3811	0.046
Mof_C 	C 	0.4036	0.0566	0.37243	-0.056
Mof_H 	H 	0.412	0.0942	0.3595	0.05
Mof_C 	C 	0.36586	0.76898	0.22327	0.361
Mof_O 	O 	0.3104	0.7928	0.21121	-0.411
Mof_O 	O 	0.36897	0.736	0.24734	-0.408
Mof_C 	C 	0.43546	0.7807	0.20773	-0.091
Mof_C 	C 	0.43527	0.8092	0.18009	-0.004
Mof_H 	H 	0.3917	0.8181	0.1708	0.045
Mof_C 	C 	0.5562	0.937	0.10079	-0.025
Mof_H 	H 	0.5922	0.9696	0.0959	0.033
Mof_C 	C 	0.4524	0.8716	0.08821	-0.033
Mof_H 	H 	0.4178	0.8588	0.0745	0.038
Mof_C 	C 	0.4504	0.8375	0.11499	-0.054
Mof_H 	H 	0.416	0.8024	0.1189	0.047
Mof_C 	C 	0.5566	0.9036	0.12757	-0.056
Mof_H 	H 	0.5942	0.912	0.1405	0.051
Mof_C 	C 	0.86586	0.26898	0.72327	0.359
Mof_O 	O 	0.8104	0.2928	0.71121	-0.411
Mof_O 	O 	0.86897	0.236	0.74734	-0.407
Mof_C 	C 	0.93546	0.2807	0.70773	-0.086
Mof_C 	C 	0.93527	0.3092	0.68009	-0.001
Mof_H 	H 	0.8917	0.3181	0.6708	0.044
Mof_C 	C 	0.0562	0.437	0.60079	-0.025
Mof_H 	H 	0.0922	0.4696	0.5959	0.031
Mof_C 	C 	0.9524	0.3716	0.58821	-0.03
Mof_H 	H 	0.9178	0.3588	0.5745	0.039
Mof_C 	C 	0.9504	0.3375	0.61499	-0.049
Mof_H 	H 	0.916	0.3024	0.6189	0.046
Mof_C 	C 	0.0566	0.4036	0.62757	-0.056
Mof_H 	H 	0.0942	0.412	0.6405	0.05
Mof_C 	C 	0.63414	0.23102	0.22327	0.36
Mof_O 	O 	0.6896	0.2072	0.21121	-0.411
Mof_O 	O 	0.63103	0.264	0.24734	-0.408
Mof_C 	C 	0.56454	0.2193	0.20773	-0.09
Mof_C 	C 	0.56473	0.1908	0.18009	-0.005
Mof_H 	H 	0.6083	0.1819	0.1708	0.045
Mof_C 	C 	0.4438	0.063	0.10079	-0.029
Mof_H 	H 	0.4078	0.0304	0.0959	0.03
Mof_C 	C 	0.5476	0.1284	0.08821	-0.038
Mof_H 	H 	0.5822	0.1412	0.0745	0.04
Mof_C 	C 	0.5496	0.1625	0.11499	-0.049
Mof_H 	H 	0.584	0.1976	0.1189	0.045
Mof_C 	C 	0.4434	0.0964	0.12757	-0.055
Mof_H 	H 	0.4058	0.088	0.1405	0.048
Mof_C 	C 	0.13414	0.73102	0.72327	0.36
Mof_O 	O 	0.1896	0.7072	0.71121	-0.411
Mof_O 	O 	0.13103	0.764	0.74734	-0.408
Mof_C 	C 	0.06454	0.7193	0.70773	-0.089
Mof_C 	C 	0.06473	0.6908	0.68009	-0.005
Mof_H 	H 	0.1083	0.6819	0.6708	0.045
Mof_C 	C 	0.9438	0.563	0.60079	-0.024
Mof_H 	H 	0.9078	0.5304	0.5959	0.031
Mof_C 	C 	0.0476	0.6284	0.58821	-0.036
Mof_H 	H 	0.0822	0.6412	0.5745	0.039
Mof_C 	C 	0.0496	0.6625	0.61499	-0.051
Mof_H 	H 	0.084	0.6976	0.6189	0.046
Mof_C 	C 	0.9434	0.5964	0.62757	-0.052
Mof_H 	H 	0.9058	0.588	0.6405	0.049
Mof_C 	C 	0.76898	0.63414	0.22327	0.36
Mof_O 	O 	0.7928	0.6896	0.21121	-0.411
Mof_O 	O 	0.736	0.63103	0.24734	-0.408
Mof_C 	C 	0.7807	0.56454	0.20773	-0.09
Mof_C 	C 	0.8092	0.56473	0.18009	-0.004
Mof_H 	H 	0.8181	0.6083	0.1708	0.045
Mof_C 	C 	0.937	0.4438	0.10079	-0.025
Mof_H 	H 	0.9696	0.4078	0.0959	0.033
Mof_C 	C 	0.8716	0.5476	0.08821	-0.033
Mof_H 	H 	0.8588	0.5822	0.0745	0.039
Mof_C 	C 	0.8375	0.5496	0.11499	-0.053
Mof_H 	H 	0.8024	0.584	0.1189	0.047
Mof_C 	C 	0.9036	0.4434	0.12757	-0.056
Mof_H 	H 	0.912	0.4058	0.1405	0.05
Mof_C 	C 	0.26898	0.13414	0.72327	0.36
Mof_O 	O 	0.2928	0.1896	0.71121	-0.411
Mof_O 	O 	0.236	0.13103	0.74734	-0.408
Mof_C 	C 	0.2807	0.06454	0.70773	-0.089
Mof_C 	C 	0.3092	0.06473	0.68009	-0.005
Mof_H 	H 	0.3181	0.1083	0.6708	0.045
Mof_C 	C 	0.437	0.9438	0.60079	-0.024
Mof_H 	H 	0.4696	0.9078	0.5959	0.031
Mof_C 	C 	0.3716	0.0476	0.58821	-0.036
Mof_H 	H 	0.3588	0.0822	0.5745	0.039
Mof_C 	C 	0.3375	0.0496	0.61499	-0.051
Mof_H 	H 	0.3024	0.084	0.6189	0.046
Mof_C 	C 	0.4036	0.9434	0.62757	-0.052
Mof_H 	H 	0.412	0.9058	0.6405	0.049
Mof_C 	C 	0.23102	0.36586	0.22327	0.36
Mof_O 	O 	0.2072	0.3104	0.21121	-0.412
Mof_O 	O 	0.264	0.36897	0.24734	-0.408
Mof_C 	C 	0.2193	0.43546	0.20773	-0.091
Mof_C 	C 	0.1908	0.43527	0.18009	-0.005
Mof_H 	H 	0.1819	0.3917	0.1708	0.045
Mof_C 	C 	0.063	0.5562	0.10079	-0.028
Mof_H 	H 	0.0304	0.5922	0.0959	0.03
Mof_C 	C 	0.1284	0.4524	0.08821	-0.038
Mof_H 	H 	0.1412	0.4178	0.0745	0.04
Mof_C 	C 	0.1625	0.4504	0.11499	-0.05
Mof_H 	H 	0.1976	0.416	0.1189	0.045
Mof_C 	C 	0.0964	0.5566	0.12757	-0.055
Mof_H 	H 	0.088	0.5942	0.1405	0.049
Mof_C 	C 	0.73102	0.86586	0.72327	0.359
Mof_O 	O 	0.7072	0.8104	0.71121	-0.411
Mof_O 	O 	0.764	0.86897	0.74734	-0.406
Mof_C 	C 	0.7193	0.93546	0.70773	-0.086
Mof_C 	C 	0.6908	0.93527	0.68009	-0.001
Mof_H 	H 	0.6819	0.8917	0.6708	0.044
Mof_C 	C 	0.563	0.0562	0.60079	-0.025
Mof_H 	H 	0.5304	0.0922	0.5959	0.031
Mof_C 	C 	0.6284	0.9524	0.58821	-0.03
Mof_H 	H 	0.6412	0.9178	0.5745	0.039
Mof_C 	C 	0.6625	0.9504	0.61499	-0.049
Mof_H 	H 	0.6976	0.916	0.6189	0.047
Mof_C 	C 	0.5964	0.0566	0.62757	-0.056
Mof_H 	H 	0.588	0.0942	0.6405	0.05
Mof_Cu	Cu	0.21546	0.21546	0.22885	0.907
Mof_Cu	Cu	0.71546	0.71546	0.72885	0.907
Mof_Cu	Cu	0.78454	0.78454	0.22885	0.907
Mof_Cu	Cu	0.28454	0.28454	0.72885	0.907
Mof_Cu	Cu	0.78454	0.21546	0.22885	0.907
Mof_Cu	Cu	0.28454	0.71546	0.72885	0.907
Mof_Cu	Cu	0.21546	0.78454	0.22885	0.907
Mof_Cu	Cu	0.71546	0.28454	0.72885	0.907
Mof_Cu	Cu	0.78454	0.21546	0.77115	0.907
Mof_Cu	Cu	0.28454	0.71546	0.27115	0.907
Mof_Cu	Cu	0.21546	0.78454	0.77115	0.907
Mof_Cu	Cu	0.71546	0.28454	0.27115	0.907
Mof_Cu	Cu	0.21546	0.21546	0.77115	0.907
Mof_Cu	Cu	0.71546	0.71546	0.27115	0.907
Mof_Cu	Cu	0.78454	0.78454	0.77115	0.907
Mof_Cu	Cu	0.28454	0.28454	0.27115	0.907
Mof_C 	C 	0.5	0.175	0.16572	-0.027
Mof_C 	C 	0.5	0.1434	0.13556	0.055
Mof_C 	C 	0.5	0.2344	0.2217	0.032
Mof_H 	H 	0.5	0.2546	0.2402	0.05
Mof_C 	C 	0.5	0.0788	0.08061	0.025
Mof_C 	C 	0.5	0.0746	0.02687	-0.086
Mof_H 	H 	0.5	0.1246	0.0271	0.058
Mof_C 	C 	0.5	0.0374	0.05277	-0.011
Mof_C 	C 	6.16657e-33	0.675	0.66572	-0.031
Mof_C 	C 	5.8872e-33	0.6434	0.63556	0.052
Mof_C 	C 	6.68512e-33	0.7344	0.7217	0.026
Mof_H 	H 	-5.8873e-33	0.7546	0.7402	0.051
Mof_C 	C 	1.8122e-32	0.5788	0.58061	0.013
Mof_C 	C 	4.88041e-33	0.5746	0.52687	-0.098
Mof_H 	H 	4.88254e-33	0.6246	0.5271	0.062
Mof_C 	C 	-7.62347e-33	0.5374	0.55277	0.003
Mof_C 	C 	0.5	0.825	0.16572	-0.028
Mof_C 	C 	0.5	0.8566	0.13556	0.059
Mof_C 	C 	0.5	0.7656	0.2217	0.032
Mof_H 	H 	0.5	0.7454	0.2402	0.05
Mof_C 	C 	0.5	0.9212	0.08061	0.014
Mof_C 	C 	0.5	0.9254	0.02687	-0.108
Mof_H 	H 	0.5	0.8754	0.0271	0.066
Mof_C 	C 	0.5	0.9626	0.05277	0.015
Mof_C 	C 	6.16657e-33	0.325	0.66572	-0.031
Mof_C 	C 	5.8872e-33	0.3566	0.63556	0.052
Mof_C 	C 	6.68512e-33	0.2656	0.7217	0.026
Mof_H 	H 	-5.8873e-33	0.2454	0.7402	0.051
Mof_C 	C 	-7.36559e-33	0.4212	0.58061	0.013
Mof_C 	C 	4.88041e-33	0.4254	0.52687	-0.098
Mof_H 	H 	-7.86125e-33	0.3754	0.5271	0.061
Mof_C 	C 	-7.62347e-33	0.4626	0.55277	0.003
Mof_C 	C 	0.825	0.5	0.16572	-0.028
Mof_C 	C 	0.8566	0.5	0.13556	0.059
Mof_C 	C 	0.7656	0.5	0.2217	0.032
Mof_H 	H 	0.7454	0.5	0.2402	0.05
Mof_C 	C 	0.9212	0.5	0.08061	0.014
Mof_C 	C 	0.9254	0.5	0.02687	-0.108
Mof_H 	H 	0.8754	0.5	0.0271	0.066
Mof_C 	C 	0.9626	0.5	0.05277	0.015
Mof_C 	C 	0.325	0	0.66572	-0.031
Mof_C 	C 	0.3566	0	0.63556	0.052
Mof_C 	C 	0.2656	0	0.7217	0.026
Mof_H 	H 	0.2454	0	0.7402	0.051
Mof_C 	C 	0.4212	0	0.58061	0.013
Mof_C 	C 	0.4254	0	0.52687	-0.098
Mof_H 	H 	0.3754	0	0.5271	0.061
Mof_C 	C 	0.4626	1.27438e-32	0.55277	0.003
Mof_C 	C 	0.175	0.5	0.16572	-0.027
Mof_C 	C 	0.1434	0.5	0.13556	0.055
Mof_C 	C 	0.2344	0.5	0.2217	0.032
Mof_H 	H 	0.2546	0.5	0.2402	0.05
Mof_C 	C 	0.0788	0.5	0.08061	0.025
Mof_C 	C 	0.0746	0.5	0.02687	-0.086
Mof_H 	H 	0.1246	0.5	0.0271	0.058
Mof_C 	C 	0.0374	0.5	0.05277	-0.011
Mof_C 	C 	0.675	0	0.66572	-0.031
Mof_C 	C 	0.6434	0	0.63556	0.052
Mof_C 	C 	0.7344	0	0.7217	0.026
Mof_H 	H 	0.7546	0	0.7402	0.051
Mof_C 	C 	0.5788	0	0.58061	0.013
Mof_C 	C 	0.5746	0	0.52687	-0.098
Mof_H 	H 	0.6246	0	0.5271	0.062
Mof_C 	C 	0.5374	1.27438e-32	0.55277	0.003
Mof_C 	C 	0.5	0.175	0.83428	-0.027
Mof_C 	C 	0.5	0.1434	0.86444	0.055
Mof_C 	C 	0.5	0.2344	0.7783	0.032
Mof_H 	H 	0.5	0.2546	0.7598	0.05
Mof_C 	C 	0.5	0.0788	0.91939	0.025
Mof_C 	C 	0.5	0.0746	0.97313	-0.085
Mof_H 	H 	0.5	0.1246	0.9729	0.058
Mof_C 	C 	0.5	0.0374	0.94723	-0.011
Mof_C 	C 	3.09644e-33	0.675	0.33428	-0.031
Mof_C 	C 	3.37581e-33	0.6434	0.36444	0.052
Mof_C 	C 	8.94979e-33	0.7344	0.2783	0.026
Mof_H 	H 	-3.96536e-33	0.7546	0.2598	0.051
Mof_C 	C 	1.66286e-32	0.5788	0.41939	0.013
Mof_C 	C 	-8.36118e-33	0.5746	0.47313	-0.098
Mof_H 	H 	4.38048e-33	0.6246	0.4729	0.062
Mof_C 	C 	-8.60109e-33	0.5374	0.44723	0.003
Mof_C 	C 	0.5	0.825	0.83428	-0.028
Mof_C 	C 	0.5	0.8566	0.86444	0.059
Mof_C 	C 	0.5	0.7656	0.7783	0.032
Mof_H 	H 	0.5	0.7454	0.7598	0.05
Mof_C 	C 	0.5	0.9212	0.91939	0.014
Mof_C 	C 	0.5	0.9254	0.97313	-0.108
Mof_H 	H 	0.5	0.8754	0.9729	0.066
Mof_C 	C 	0.5	0.9626	0.94723	0.015
Mof_C 	C 	-9.64735e-33	0.325	0.33428	-0.031
Mof_C 	C 	-2.99608e-33	0.3566	0.36444	0.052
Mof_C 	C 	2.5779e-33	0.2656	0.2783	0.026
Mof_H 	H 	-3.96536e-33	0.2454	0.2598	0.051
Mof_C 	C 	3.88482e-33	0.4212	0.41939	0.013
Mof_C 	C 	-8.36118e-33	0.4254	0.47313	-0.098
Mof_H 	H 	4.38048e-33	0.3754	0.4729	0.061
Mof_C 	C 	-8.60109e-33	0.4626	0.44723	0.003
Mof_C 	C 	0.175	0.5	0.83428	-0.027
Mof_C 	C 	0.1434	0.5	0.86444	0.055
Mof_C 	C 	0.2344	0.5	0.7783	0.032
Mof_H 	H 	0.2546	0.5	0.7598	0.05
Mof_C 	C 	0.0788	0.5	0.91939	0.025
Mof_C 	C 	0.0746	0.5	0.97313	-0.085
Mof_H 	H 	0.1246	0.5	0.9729	0.058
Mof_C 	C 	0.0374	0.5	0.94723	-0.011
Mof_C 	C 	0.675	-6.37189e-33	0.33428	-0.031
Mof_C 	C 	0.6434	-6.37189e-33	0.36444	0.052
Mof_C 	C 	0.7344	0	0.2783	0.026
Mof_H 	H 	0.7546	0	0.2598	0.051
Mof_C 	C 	0.5788	1.27438e-32	0.41939	0.013
Mof_C 	C 	0.5746	0	0.47313	-0.098
Mof_H 	H 	0.6246	0	0.4729	0.062
Mof_C 	C 	0.5374	0	0.44723	0.003
Mof_C 	C 	0.825	0.5	0.83428	-0.028
Mof_C 	C 	0.8566	0.5	0.86444	0.059
Mof_C 	C 	0.7656	0.5	0.7783	0.032
Mof_H 	H 	0.7454	0.5	0.7598	0.05
Mof_C 	C 	0.9212	0.5	0.91939	0.014
Mof_C 	C 	0.9254	0.5	0.97313	-0.108
Mof_H 	H 	0.8754	0.5	0.9729	0.066
Mof_C 	C 	0.9626	0.5	0.94723	0.015
Mof_C 	C 	0.325	-6.37189e-33	0.33428	-0.031
Mof_C 	C 	0.3566	-6.37189e-33	0.36444	0.052
Mof_C 	C 	0.2656	0	0.2783	0.026
Mof_H 	H 	0.2454	0	0.2598	0.051
Mof_C 	C 	0.4212	1.27438e-32	0.41939	0.013
Mof_C 	C 	0.4254	0	0.47313	-0.098
Mof_H 	H 	0.3754	0	0.4729	0.061
Mof_C 	C 	0.4626	0	0.44723	0.003
Mof_C 	C 	0.5	0.0378	-0	0.02
Mof_C 	C 	-8.11228e-33	0.5378	0.5	0.035
Mof_C 	C 	0.5	0.9622	-0	0.05
Mof_C 	C 	-8.11228e-33	0.4622	0.5	0.035
Mof_C 	C 	0.9622	0.5	-0	0.05
Mof_C 	C 	0.4622	0	0.5	0.035
Mof_C 	C 	0.0378	0.5	-0	0.02
Mof_C 	C 	0.5378	0	0.5	0.035
_end
