# CIF file generated by openbabel 3.1.0, see https://openbabel.org
data_I
_chemical_name_common 'GULWEQ_clean'
_cell_length_a 41.5947
_cell_length_b 41.5947
_cell_length_c 41.5947
_cell_angle_alpha 90
_cell_angle_beta 90
_cell_angle_gamma 90
_space_group_name_H-M_alt 'P 1'
_space_group_name_Hall 'P 1'
loop_
    _symmetry_equiv_pos_as_xyz
    x,y,z
loop_
    _atom_site_label
    _atom_site_type_symbol
    _atom_site_fract_x
    _atom_site_fract_y
    _atom_site_fract_z
    _atom_site_occupancy
    Cd1      Cd       0.44864    0.32570    0.17909    1.000
    Cd2      Cd       0.40612    0.24310    0.21271    1.000
    Cd3      Cd       0.51984    0.17030    0.99353    1.000
    Cd4      Cd       0.55674    0.28399    0.41298    1.000
    Cd5      Cd       0.05136    0.67430    0.67909    1.000
    Cd6      Cd       0.09388    0.75690    0.71271    1.000
    Cd7      Cd       0.98016    0.82970    0.49353    1.000
    Cd8      Cd       0.94326    0.71601    0.91298    1.000
    Cd9      Cd       0.55136    0.82570    0.32091    1.000
    Cd10     Cd       0.59388    0.74310    0.28729    1.000
    Cd11     Cd       0.48016    0.67030    0.50647    1.000
    Cd12     Cd       0.44326    0.78399    0.08702    1.000
    Cd13     Cd       0.94864    0.17430    0.82091    1.000
    Cd14     Cd       0.90612    0.25690    0.78729    1.000
    Cd15     Cd       0.01984    0.32970    0.00647    1.000
    Cd16     Cd       0.05674    0.21601    0.58702    1.000
    Cd17     Cd       0.17909    0.44864    0.32570    1.000
    Cd18     Cd       0.21271    0.40612    0.24310    1.000
    Cd19     Cd       0.99353    0.51984    0.17030    1.000
    Cd20     Cd       0.41298    0.55674    0.28399    1.000
    Cd21     Cd       0.67909    0.05136    0.67430    1.000
    Cd22     Cd       0.71271    0.09388    0.75690    1.000
    Cd23     Cd       0.49353    0.98016    0.82970    1.000
    Cd24     Cd       0.91298    0.94326    0.71601    1.000
    Cd25     Cd       0.32091    0.55136    0.82570    1.000
    Cd26     Cd       0.28729    0.59388    0.74310    1.000
    Cd27     Cd       0.50647    0.48016    0.67030    1.000
    Cd28     Cd       0.08702    0.44326    0.78399    1.000
    Cd29     Cd       0.82091    0.94864    0.17430    1.000
    Cd30     Cd       0.78729    0.90612    0.25690    1.000
    Cd31     Cd       0.00647    0.01984    0.32970    1.000
    Cd32     Cd       0.58702    0.05674    0.21601    1.000
    Cd33     Cd       0.32570    0.17909    0.44864    1.000
    Cd34     Cd       0.24310    0.21271    0.40612    1.000
    Cd35     Cd       0.17030    0.99353    0.51984    1.000
    Cd36     Cd       0.28399    0.41298    0.55674    1.000
    Cd37     Cd       0.67430    0.67909    0.05136    1.000
    Cd38     Cd       0.75690    0.71271    0.09388    1.000
    Cd39     Cd       0.82970    0.49353    0.98016    1.000
    Cd40     Cd       0.71601    0.91298    0.94326    1.000
    Cd41     Cd       0.82570    0.32091    0.55136    1.000
    Cd42     Cd       0.74310    0.28729    0.59388    1.000
    Cd43     Cd       0.67030    0.50647    0.48016    1.000
    Cd44     Cd       0.78399    0.08702    0.44326    1.000
    Cd45     Cd       0.17430    0.82091    0.94864    1.000
    Cd46     Cd       0.25690    0.78729    0.90612    1.000
    Cd47     Cd       0.32970    0.00647    0.01984    1.000
    Cd48     Cd       0.21601    0.58702    0.05674    1.000
    Cd49     Cd       0.55136    0.67430    0.82091    1.000
    Cd50     Cd       0.59388    0.75690    0.78729    1.000
    Cd51     Cd       0.48016    0.82970    0.00647    1.000
    Cd52     Cd       0.44326    0.71601    0.58702    1.000
    Cd53     Cd       0.94864    0.32570    0.32091    1.000
    Cd54     Cd       0.90612    0.24310    0.28729    1.000
    Cd55     Cd       0.01984    0.17030    0.50647    1.000
    Cd56     Cd       0.05674    0.28399    0.08702    1.000
    Cd57     Cd       0.44864    0.17430    0.67909    1.000
    Cd58     Cd       0.40612    0.25690    0.71271    1.000
    Cd59     Cd       0.51984    0.32970    0.49353    1.000
    Cd60     Cd       0.55674    0.21601    0.91298    1.000
    Cd61     Cd       0.05136    0.82570    0.17909    1.000
    Cd62     Cd       0.09388    0.74310    0.21271    1.000
    Cd63     Cd       0.98016    0.67030    0.99353    1.000
    Cd64     Cd       0.94326    0.78399    0.41298    1.000
    Cd65     Cd       0.82091    0.55136    0.67430    1.000
    Cd66     Cd       0.78729    0.59388    0.75690    1.000
    Cd67     Cd       0.00647    0.48016    0.82970    1.000
    Cd68     Cd       0.58702    0.44326    0.71601    1.000
    Cd69     Cd       0.32091    0.94864    0.32570    1.000
    Cd70     Cd       0.28729    0.90612    0.24310    1.000
    Cd71     Cd       0.50647    0.01984    0.17030    1.000
    Cd72     Cd       0.08702    0.05674    0.28399    1.000
    Cd73     Cd       0.67909    0.44864    0.17430    1.000
    Cd74     Cd       0.71271    0.40612    0.25690    1.000
    Cd75     Cd       0.49353    0.51984    0.32970    1.000
    Cd76     Cd       0.91298    0.55674    0.21601    1.000
    Cd77     Cd       0.17909    0.05136    0.82570    1.000
    Cd78     Cd       0.21271    0.09388    0.74310    1.000
    Cd79     Cd       0.99353    0.98016    0.67030    1.000
    Cd80     Cd       0.41298    0.94326    0.78399    1.000
    Cd81     Cd       0.67430    0.82091    0.55136    1.000
    Cd82     Cd       0.75690    0.78729    0.59388    1.000
    Cd83     Cd       0.82970    0.00647    0.48016    1.000
    Cd84     Cd       0.71601    0.58702    0.44326    1.000
    Cd85     Cd       0.32570    0.32091    0.94864    1.000
    Cd86     Cd       0.24310    0.28729    0.90612    1.000
    Cd87     Cd       0.17030    0.50647    0.01984    1.000
    Cd88     Cd       0.28399    0.08702    0.05674    1.000
    Cd89     Cd       0.17430    0.67909    0.44864    1.000
    Cd90     Cd       0.25690    0.71271    0.40612    1.000
    Cd91     Cd       0.32970    0.49353    0.51984    1.000
    Cd92     Cd       0.21601    0.91298    0.55674    1.000
    Cd93     Cd       0.82570    0.17909    0.05136    1.000
    Cd94     Cd       0.74310    0.21271    0.09388    1.000
    Cd95     Cd       0.67030    0.99353    0.98016    1.000
    Cd96     Cd       0.78399    0.41298    0.94326    1.000
    H1       H        0.47640    0.24540    0.32320    1.000
    H2       H        0.52640    0.32470    0.29650    1.000
    H3       H        0.50600    0.24390    0.37000    1.000
    H4       H        0.55210    0.32170    0.34640    1.000
    H5       H        0.33200    0.39080    0.20180    1.000
    H6       H        0.29310    0.30890    0.23450    1.000
    H7       H        0.28460    0.41640    0.21570    1.000
    H8       H        0.24860    0.33780    0.25130    1.000
    H9       H        0.47770    0.17860    0.11200    1.000
    H10      H        0.49240    0.26510    0.07070    1.000
    H11      H        0.52010    0.23800    0.03050    1.000
    H12      H        0.49660    0.15530    0.06460    1.000
    H13      H        0.41390    0.44350    0.20420    1.000
    H14      H        0.49180    0.41440    0.25510    1.000
    H15      H        0.48850    0.36520    0.22700    1.000
    H16      H        0.41070    0.39300    0.18150    1.000
    H17      H        0.43710    0.12380    0.19560    1.000
    H18      H        0.50950    0.17270    0.23010    1.000
    H19      H        0.40500    0.16790    0.20330    1.000
    H20      H        0.47270    0.21590    0.23770    1.000
    H21      H        0.49930    0.05990    0.92560    1.000
    H22      H        0.52530    0.10190    0.84340    1.000
    H23      H        0.48600    0.01480    0.89780    1.000
    H24      H        0.51210    0.05610    0.81710    1.000
    H25      H        0.02360    0.75460    0.82320    1.000
    H26      H        0.97360    0.67530    0.79650    1.000
    H27      H        0.99400    0.75610    0.87000    1.000
    H28      H        0.94790    0.67830    0.84640    1.000
    H29      H        0.16800    0.60920    0.70180    1.000
    H30      H        0.20690    0.69110    0.73450    1.000
    H31      H        0.21540    0.58360    0.71570    1.000
    H32      H        0.25140    0.66220    0.75130    1.000
    H33      H        0.02230    0.82140    0.61200    1.000
    H34      H        0.00760    0.73490    0.57070    1.000
    H35      H        0.97990    0.76200    0.53050    1.000
    H36      H        0.00340    0.84470    0.56460    1.000
    H37      H        0.08610    0.55650    0.70420    1.000
    H38      H        0.00820    0.58560    0.75510    1.000
    H39      H        0.01150    0.63480    0.72700    1.000
    H40      H        0.08930    0.60700    0.68150    1.000
    H41      H        0.06290    0.87620    0.69560    1.000
    H42      H        0.99050    0.82730    0.73010    1.000
    H43      H        0.09500    0.83210    0.70330    1.000
    H44      H        0.02730    0.78410    0.73770    1.000
    H45      H        0.00070    0.94010    0.42560    1.000
    H46      H        0.97470    0.89810    0.34340    1.000
    H47      H        0.01400    0.98520    0.39780    1.000
    H48      H        0.98790    0.94390    0.31710    1.000
    H49      H        0.52360    0.74540    0.17680    1.000
    H50      H        0.47360    0.82470    0.20350    1.000
    H51      H        0.49400    0.74390    0.13000    1.000
    H52      H        0.44790    0.82170    0.15360    1.000
    H53      H        0.66800    0.89080    0.29820    1.000
    H54      H        0.70690    0.80890    0.26550    1.000
    H55      H        0.71540    0.91640    0.28430    1.000
    H56      H        0.75140    0.83780    0.24870    1.000
    H57      H        0.52230    0.67860    0.38800    1.000
    H58      H        0.50760    0.76510    0.42930    1.000
    H59      H        0.47990    0.73800    0.46950    1.000
    H60      H        0.50340    0.65530    0.43540    1.000
    H61      H        0.58610    0.94350    0.29580    1.000
    H62      H        0.50820    0.91440    0.24490    1.000
    H63      H        0.51150    0.86520    0.27300    1.000
    H64      H        0.58930    0.89300    0.31850    1.000
    H65      H        0.56290    0.62380    0.30440    1.000
    H66      H        0.49050    0.67270    0.26990    1.000
    H67      H        0.59500    0.66790    0.29670    1.000
    H68      H        0.52730    0.71590    0.26230    1.000
    H69      H        0.50070    0.55990    0.57440    1.000
    H70      H        0.47470    0.60190    0.65660    1.000
    H71      H        0.51400    0.51480    0.60220    1.000
    H72      H        0.48790    0.55610    0.68290    1.000
    H73      H        0.97640    0.25460    0.67680    1.000
    H74      H        0.02640    0.17530    0.70350    1.000
    H75      H        0.00600    0.25610    0.63000    1.000
    H76      H        0.05210    0.17830    0.65360    1.000
    H77      H        0.83200    0.10920    0.79820    1.000
    H78      H        0.79310    0.19110    0.76550    1.000
    H79      H        0.78460    0.08360    0.78430    1.000
    H80      H        0.74860    0.16220    0.74870    1.000
    H81      H        0.97770    0.32140    0.88800    1.000
    H82      H        0.99240    0.23490    0.92930    1.000
    H83      H        0.02010    0.26200    0.96950    1.000
    H84      H        0.99660    0.34470    0.93540    1.000
    H85      H        0.91390    0.05650    0.79580    1.000
    H86      H        0.99180    0.08560    0.74490    1.000
    H87      H        0.98850    0.13480    0.77300    1.000
    H88      H        0.91070    0.10700    0.81850    1.000
    H89      H        0.93710    0.37620    0.80440    1.000
    H90      H        0.00950    0.32730    0.76990    1.000
    H91      H        0.90500    0.33210    0.79670    1.000
    H92      H        0.97270    0.28410    0.76230    1.000
    H93      H        0.99930    0.44010    0.07440    1.000
    H94      H        0.02530    0.39810    0.15660    1.000
    H95      H        0.98600    0.48520    0.10220    1.000
    H96      H        0.01210    0.44390    0.18290    1.000
    H97      H        0.32320    0.47640    0.24540    1.000
    H98      H        0.29650    0.52640    0.32470    1.000
    H99      H        0.37000    0.50600    0.24390    1.000
    H100     H        0.34640    0.55210    0.32170    1.000
    H101     H        0.20180    0.33200    0.39080    1.000
    H102     H        0.23450    0.29310    0.30890    1.000
    H103     H        0.21570    0.28460    0.41640    1.000
    H104     H        0.25130    0.24860    0.33780    1.000
    H105     H        0.11200    0.47770    0.17860    1.000
    H106     H        0.07070    0.49240    0.26510    1.000
    H107     H        0.03050    0.52010    0.23800    1.000
    H108     H        0.06460    0.49660    0.15530    1.000
    H109     H        0.20420    0.41390    0.44350    1.000
    H110     H        0.25510    0.49180    0.41440    1.000
    H111     H        0.22700    0.48850    0.36520    1.000
    H112     H        0.18150    0.41070    0.39300    1.000
    H113     H        0.19560    0.43710    0.12380    1.000
    H114     H        0.23010    0.50950    0.17270    1.000
    H115     H        0.20330    0.40500    0.16790    1.000
    H116     H        0.23770    0.47270    0.21590    1.000
    H117     H        0.92560    0.49930    0.05990    1.000
    H118     H        0.84340    0.52530    0.10190    1.000
    H119     H        0.89780    0.48600    0.01480    1.000
    H120     H        0.81710    0.51210    0.05610    1.000
    H121     H        0.82320    0.02360    0.75460    1.000
    H122     H        0.79650    0.97360    0.67530    1.000
    H123     H        0.87000    0.99400    0.75610    1.000
    H124     H        0.84640    0.94790    0.67830    1.000
    H125     H        0.70180    0.16800    0.60920    1.000
    H126     H        0.73450    0.20690    0.69110    1.000
    H127     H        0.71570    0.21540    0.58360    1.000
    H128     H        0.75130    0.25140    0.66220    1.000
    H129     H        0.61200    0.02230    0.82140    1.000
    H130     H        0.57070    0.00760    0.73490    1.000
    H131     H        0.53050    0.97990    0.76200    1.000
    H132     H        0.56460    0.00340    0.84470    1.000
    H133     H        0.70420    0.08610    0.55650    1.000
    H134     H        0.75510    0.00820    0.58560    1.000
    H135     H        0.72700    0.01150    0.63480    1.000
    H136     H        0.68150    0.08930    0.60700    1.000
    H137     H        0.69560    0.06290    0.87620    1.000
    H138     H        0.73010    0.99050    0.82730    1.000
    H139     H        0.70330    0.09500    0.83210    1.000
    H140     H        0.73770    0.02730    0.78410    1.000
    H141     H        0.42560    0.00070    0.94010    1.000
    H142     H        0.34340    0.97470    0.89810    1.000
    H143     H        0.39780    0.01400    0.98520    1.000
    H144     H        0.31710    0.98790    0.94390    1.000
    H145     H        0.17680    0.52360    0.74540    1.000
    H146     H        0.20350    0.47360    0.82470    1.000
    H147     H        0.13000    0.49400    0.74390    1.000
    H148     H        0.15360    0.44790    0.82170    1.000
    H149     H        0.29820    0.66800    0.89080    1.000
    H150     H        0.26550    0.70690    0.80890    1.000
    H151     H        0.28430    0.71540    0.91640    1.000
    H152     H        0.24870    0.75140    0.83780    1.000
    H153     H        0.38800    0.52230    0.67860    1.000
    H154     H        0.42930    0.50760    0.76510    1.000
    H155     H        0.46950    0.47990    0.73800    1.000
    H156     H        0.43540    0.50340    0.65530    1.000
    H157     H        0.29580    0.58610    0.94350    1.000
    H158     H        0.24490    0.50820    0.91440    1.000
    H159     H        0.27300    0.51150    0.86520    1.000
    H160     H        0.31850    0.58930    0.89300    1.000
    H161     H        0.30440    0.56290    0.62380    1.000
    H162     H        0.26990    0.49050    0.67270    1.000
    H163     H        0.29670    0.59500    0.66790    1.000
    H164     H        0.26230    0.52730    0.71590    1.000
    H165     H        0.57440    0.50070    0.55990    1.000
    H166     H        0.65660    0.47470    0.60190    1.000
    H167     H        0.60220    0.51400    0.51480    1.000
    H168     H        0.68290    0.48790    0.55610    1.000
    H169     H        0.67680    0.97640    0.25460    1.000
    H170     H        0.70350    0.02640    0.17530    1.000
    H171     H        0.63000    0.00600    0.25610    1.000
    H172     H        0.65360    0.05210    0.17830    1.000
    H173     H        0.79820    0.83200    0.10920    1.000
    H174     H        0.76550    0.79310    0.19110    1.000
    H175     H        0.78430    0.78460    0.08360    1.000
    H176     H        0.74870    0.74860    0.16220    1.000
    H177     H        0.88800    0.97770    0.32140    1.000
    H178     H        0.92930    0.99240    0.23490    1.000
    H179     H        0.96950    0.02010    0.26200    1.000
    H180     H        0.93540    0.99660    0.34470    1.000
    H181     H        0.79580    0.91390    0.05650    1.000
    H182     H        0.74490    0.99180    0.08560    1.000
    H183     H        0.77300    0.98850    0.13480    1.000
    H184     H        0.81850    0.91070    0.10700    1.000
    H185     H        0.80440    0.93710    0.37620    1.000
    H186     H        0.76990    0.00950    0.32730    1.000
    H187     H        0.79670    0.90500    0.33210    1.000
    H188     H        0.76230    0.97270    0.28410    1.000
    H189     H        0.07440    0.99930    0.44010    1.000
    H190     H        0.15660    0.02530    0.39810    1.000
    H191     H        0.10220    0.98600    0.48520    1.000
    H192     H        0.18290    0.01210    0.44390    1.000
    H193     H        0.24540    0.32320    0.47640    1.000
    H194     H        0.32470    0.29650    0.52640    1.000
    H195     H        0.24390    0.37000    0.50600    1.000
    H196     H        0.32170    0.34640    0.55210    1.000
    H197     H        0.39080    0.20180    0.33200    1.000
    H198     H        0.30890    0.23450    0.29310    1.000
    H199     H        0.41640    0.21570    0.28460    1.000
    H200     H        0.33780    0.25130    0.24860    1.000
    H201     H        0.17860    0.11200    0.47770    1.000
    H202     H        0.26510    0.07070    0.49240    1.000
    H203     H        0.23800    0.03050    0.52010    1.000
    H204     H        0.15530    0.06460    0.49660    1.000
    H205     H        0.44350    0.20420    0.41390    1.000
    H206     H        0.41440    0.25510    0.49180    1.000
    H207     H        0.36520    0.22700    0.48850    1.000
    H208     H        0.39300    0.18150    0.41070    1.000
    H209     H        0.12380    0.19560    0.43710    1.000
    H210     H        0.17270    0.23010    0.50950    1.000
    H211     H        0.16790    0.20330    0.40500    1.000
    H212     H        0.21590    0.23770    0.47270    1.000
    H213     H        0.05990    0.92560    0.49930    1.000
    H214     H        0.10190    0.84340    0.52530    1.000
    H215     H        0.01480    0.89780    0.48600    1.000
    H216     H        0.05610    0.81710    0.51210    1.000
    H217     H        0.75460    0.82320    0.02360    1.000
    H218     H        0.67530    0.79650    0.97360    1.000
    H219     H        0.75610    0.87000    0.99400    1.000
    H220     H        0.67830    0.84640    0.94790    1.000
    H221     H        0.60920    0.70180    0.16800    1.000
    H222     H        0.69110    0.73450    0.20690    1.000
    H223     H        0.58360    0.71570    0.21540    1.000
    H224     H        0.66220    0.75130    0.25140    1.000
    H225     H        0.82140    0.61200    0.02230    1.000
    H226     H        0.73490    0.57070    0.00760    1.000
    H227     H        0.76200    0.53050    0.97990    1.000
    H228     H        0.84470    0.56460    0.00340    1.000
    H229     H        0.55650    0.70420    0.08610    1.000
    H230     H        0.58560    0.75510    0.00820    1.000
    H231     H        0.63480    0.72700    0.01150    1.000
    H232     H        0.60700    0.68150    0.08930    1.000
    H233     H        0.87620    0.69560    0.06290    1.000
    H234     H        0.82730    0.73010    0.99050    1.000
    H235     H        0.83210    0.70330    0.09500    1.000
    H236     H        0.78410    0.73770    0.02730    1.000
    H237     H        0.94010    0.42560    0.00070    1.000
    H238     H        0.89810    0.34340    0.97470    1.000
    H239     H        0.98520    0.39780    0.01400    1.000
    H240     H        0.94390    0.31710    0.98790    1.000
    H241     H        0.74540    0.17680    0.52360    1.000
    H242     H        0.82470    0.20350    0.47360    1.000
    H243     H        0.74390    0.13000    0.49400    1.000
    H244     H        0.82170    0.15360    0.44790    1.000
    H245     H        0.89080    0.29820    0.66800    1.000
    H246     H        0.80890    0.26550    0.70690    1.000
    H247     H        0.91640    0.28430    0.71540    1.000
    H248     H        0.83780    0.24870    0.75140    1.000
    H249     H        0.67860    0.38800    0.52230    1.000
    H250     H        0.76510    0.42930    0.50760    1.000
    H251     H        0.73800    0.46950    0.47990    1.000
    H252     H        0.65530    0.43540    0.50340    1.000
    H253     H        0.94350    0.29580    0.58610    1.000
    H254     H        0.91440    0.24490    0.50820    1.000
    H255     H        0.86520    0.27300    0.51150    1.000
    H256     H        0.89300    0.31850    0.58930    1.000
    H257     H        0.62380    0.30440    0.56290    1.000
    H258     H        0.67270    0.26990    0.49050    1.000
    H259     H        0.66790    0.29670    0.59500    1.000
    H260     H        0.71590    0.26230    0.52730    1.000
    H261     H        0.55990    0.57440    0.50070    1.000
    H262     H        0.60190    0.65660    0.47470    1.000
    H263     H        0.51480    0.60220    0.51400    1.000
    H264     H        0.55610    0.68290    0.48790    1.000
    H265     H        0.25460    0.67680    0.97640    1.000
    H266     H        0.17530    0.70350    0.02640    1.000
    H267     H        0.25610    0.63000    0.00600    1.000
    H268     H        0.17830    0.65360    0.05210    1.000
    H269     H        0.10920    0.79820    0.83200    1.000
    H270     H        0.19110    0.76550    0.79310    1.000
    H271     H        0.08360    0.78430    0.78460    1.000
    H272     H        0.16220    0.74870    0.74860    1.000
    H273     H        0.32140    0.88800    0.97770    1.000
    H274     H        0.23490    0.92930    0.99240    1.000
    H275     H        0.26200    0.96950    0.02010    1.000
    H276     H        0.34470    0.93540    0.99660    1.000
    H277     H        0.05650    0.79580    0.91390    1.000
    H278     H        0.08560    0.74490    0.99180    1.000
    H279     H        0.13480    0.77300    0.98850    1.000
    H280     H        0.10700    0.81850    0.91070    1.000
    H281     H        0.37620    0.80440    0.93710    1.000
    H282     H        0.32730    0.76990    0.00950    1.000
    H283     H        0.33210    0.79670    0.90500    1.000
    H284     H        0.28410    0.76230    0.97270    1.000
    H285     H        0.44010    0.07440    0.99930    1.000
    H286     H        0.39810    0.15660    0.02530    1.000
    H287     H        0.48520    0.10220    0.98600    1.000
    H288     H        0.44390    0.18290    0.01210    1.000
    H289     H        0.52360    0.75460    0.67680    1.000
    H290     H        0.47360    0.67530    0.70350    1.000
    H291     H        0.49400    0.75610    0.63000    1.000
    H292     H        0.44790    0.67830    0.65360    1.000
    H293     H        0.66800    0.60920    0.79820    1.000
    H294     H        0.70690    0.69110    0.76550    1.000
    H295     H        0.71540    0.58360    0.78430    1.000
    H296     H        0.75140    0.66220    0.74870    1.000
    H297     H        0.52230    0.82140    0.88800    1.000
    H298     H        0.50760    0.73490    0.92930    1.000
    H299     H        0.47990    0.76200    0.96950    1.000
    H300     H        0.50340    0.84470    0.93540    1.000
    H301     H        0.58610    0.55650    0.79580    1.000
    H302     H        0.50820    0.58560    0.74490    1.000
    H303     H        0.51150    0.63480    0.77300    1.000
    H304     H        0.58930    0.60700    0.81850    1.000
    H305     H        0.56290    0.87620    0.80440    1.000
    H306     H        0.49050    0.82730    0.76990    1.000
    H307     H        0.59500    0.83210    0.79670    1.000
    H308     H        0.52730    0.78410    0.76230    1.000
    H309     H        0.50070    0.94010    0.07440    1.000
    H310     H        0.47470    0.89810    0.15660    1.000
    H311     H        0.51400    0.98520    0.10220    1.000
    H312     H        0.48790    0.94390    0.18290    1.000
    H313     H        0.97640    0.24540    0.17680    1.000
    H314     H        0.02640    0.32470    0.20350    1.000
    H315     H        0.00600    0.24390    0.13000    1.000
    H316     H        0.05210    0.32170    0.15360    1.000
    H317     H        0.83200    0.39080    0.29820    1.000
    H318     H        0.79310    0.30890    0.26550    1.000
    H319     H        0.78460    0.41640    0.28430    1.000
    H320     H        0.74860    0.33780    0.24870    1.000
    H321     H        0.97770    0.17860    0.38800    1.000
    H322     H        0.99240    0.26510    0.42930    1.000
    H323     H        0.02010    0.23800    0.46950    1.000
    H324     H        0.99660    0.15530    0.43540    1.000
    H325     H        0.91390    0.44350    0.29580    1.000
    H326     H        0.99180    0.41440    0.24490    1.000
    H327     H        0.98850    0.36520    0.27300    1.000
    H328     H        0.91070    0.39300    0.31850    1.000
    H329     H        0.93710    0.12380    0.30440    1.000
    H330     H        0.00950    0.17270    0.26990    1.000
    H331     H        0.90500    0.16790    0.29670    1.000
    H332     H        0.97270    0.21590    0.26230    1.000
    H333     H        0.99930    0.05990    0.57440    1.000
    H334     H        0.02530    0.10190    0.65660    1.000
    H335     H        0.98600    0.01480    0.60220    1.000
    H336     H        0.01210    0.05610    0.68290    1.000
    H337     H        0.47640    0.25460    0.82320    1.000
    H338     H        0.52640    0.17530    0.79650    1.000
    H339     H        0.50600    0.25610    0.87000    1.000
    H340     H        0.55210    0.17830    0.84640    1.000
    H341     H        0.33200    0.10920    0.70180    1.000
    H342     H        0.29310    0.19110    0.73450    1.000
    H343     H        0.28460    0.08360    0.71570    1.000
    H344     H        0.24860    0.16220    0.75130    1.000
    H345     H        0.47770    0.32140    0.61200    1.000
    H346     H        0.49240    0.23490    0.57070    1.000
    H347     H        0.52010    0.26200    0.53050    1.000
    H348     H        0.49660    0.34470    0.56460    1.000
    H349     H        0.41390    0.05650    0.70420    1.000
    H350     H        0.49180    0.08560    0.75510    1.000
    H351     H        0.48850    0.13480    0.72700    1.000
    H352     H        0.41070    0.10700    0.68150    1.000
    H353     H        0.43710    0.37620    0.69560    1.000
    H354     H        0.50950    0.32730    0.73010    1.000
    H355     H        0.40500    0.33210    0.70330    1.000
    H356     H        0.47270    0.28410    0.73770    1.000
    H357     H        0.49930    0.44010    0.42560    1.000
    H358     H        0.52530    0.39810    0.34340    1.000
    H359     H        0.48600    0.48520    0.39780    1.000
    H360     H        0.51210    0.44390    0.31710    1.000
    H361     H        0.02360    0.74540    0.32320    1.000
    H362     H        0.97360    0.82470    0.29650    1.000
    H363     H        0.99400    0.74390    0.37000    1.000
    H364     H        0.94790    0.82170    0.34640    1.000
    H365     H        0.16800    0.89080    0.20180    1.000
    H366     H        0.20690    0.80890    0.23450    1.000
    H367     H        0.21540    0.91640    0.21570    1.000
    H368     H        0.25140    0.83780    0.25130    1.000
    H369     H        0.02230    0.67860    0.11200    1.000
    H370     H        0.00760    0.76510    0.07070    1.000
    H371     H        0.97990    0.73800    0.03050    1.000
    H372     H        0.00340    0.65530    0.06460    1.000
    H373     H        0.08610    0.94350    0.20420    1.000
    H374     H        0.00820    0.91440    0.25510    1.000
    H375     H        0.01150    0.86520    0.22700    1.000
    H376     H        0.08930    0.89300    0.18150    1.000
    H377     H        0.06290    0.62380    0.19560    1.000
    H378     H        0.99050    0.67270    0.23010    1.000
    H379     H        0.09500    0.66790    0.20330    1.000
    H380     H        0.02730    0.71590    0.23770    1.000
    H381     H        0.00070    0.55990    0.92560    1.000
    H382     H        0.97470    0.60190    0.84340    1.000
    H383     H        0.01400    0.51480    0.89780    1.000
    H384     H        0.98790    0.55610    0.81710    1.000
    H385     H        0.67680    0.52360    0.75460    1.000
    H386     H        0.70350    0.47360    0.67530    1.000
    H387     H        0.63000    0.49400    0.75610    1.000
    H388     H        0.65360    0.44790    0.67830    1.000
    H389     H        0.79820    0.66800    0.60920    1.000
    H390     H        0.76550    0.70690    0.69110    1.000
    H391     H        0.78430    0.71540    0.58360    1.000
    H392     H        0.74870    0.75140    0.66220    1.000
    H393     H        0.88800    0.52230    0.82140    1.000
    H394     H        0.92930    0.50760    0.73490    1.000
    H395     H        0.96950    0.47990    0.76200    1.000
    H396     H        0.93540    0.50340    0.84470    1.000
    H397     H        0.79580    0.58610    0.55650    1.000
    H398     H        0.74490    0.50820    0.58560    1.000
    H399     H        0.77300    0.51150    0.63480    1.000
    H400     H        0.81850    0.58930    0.60700    1.000
    H401     H        0.80440    0.56290    0.87620    1.000
    H402     H        0.76990    0.49050    0.82730    1.000
    H403     H        0.79670    0.59500    0.83210    1.000
    H404     H        0.76230    0.52730    0.78410    1.000
    H405     H        0.07440    0.50070    0.94010    1.000
    H406     H        0.15660    0.47470    0.89810    1.000
    H407     H        0.10220    0.51400    0.98520    1.000
    H408     H        0.18290    0.48790    0.94390    1.000
    H409     H        0.17680    0.97640    0.24540    1.000
    H410     H        0.20350    0.02640    0.32470    1.000
    H411     H        0.13000    0.00600    0.24390    1.000
    H412     H        0.15360    0.05210    0.32170    1.000
    H413     H        0.29820    0.83200    0.39080    1.000
    H414     H        0.26550    0.79310    0.30890    1.000
    H415     H        0.28430    0.78460    0.41640    1.000
    H416     H        0.24870    0.74860    0.33780    1.000
    H417     H        0.38800    0.97770    0.17860    1.000
    H418     H        0.42930    0.99240    0.26510    1.000
    H419     H        0.46950    0.02010    0.23800    1.000
    H420     H        0.43540    0.99660    0.15530    1.000
    H421     H        0.29580    0.91390    0.44350    1.000
    H422     H        0.24490    0.99180    0.41440    1.000
    H423     H        0.27300    0.98850    0.36520    1.000
    H424     H        0.31850    0.91070    0.39300    1.000
    H425     H        0.30440    0.93710    0.12380    1.000
    H426     H        0.26990    0.00950    0.17270    1.000
    H427     H        0.29670    0.90500    0.16790    1.000
    H428     H        0.26230    0.97270    0.21590    1.000
    H429     H        0.57440    0.99930    0.05990    1.000
    H430     H        0.65660    0.02530    0.10190    1.000
    H431     H        0.60220    0.98600    0.01480    1.000
    H432     H        0.68290    0.01210    0.05610    1.000
    H433     H        0.82320    0.47640    0.25460    1.000
    H434     H        0.79650    0.52640    0.17530    1.000
    H435     H        0.87000    0.50600    0.25610    1.000
    H436     H        0.84640    0.55210    0.17830    1.000
    H437     H        0.70180    0.33200    0.10920    1.000
    H438     H        0.73450    0.29310    0.19110    1.000
    H439     H        0.71570    0.28460    0.08360    1.000
    H440     H        0.75130    0.24860    0.16220    1.000
    H441     H        0.61200    0.47770    0.32140    1.000
    H442     H        0.57070    0.49240    0.23490    1.000
    H443     H        0.53050    0.52010    0.26200    1.000
    H444     H        0.56460    0.49660    0.34470    1.000
    H445     H        0.70420    0.41390    0.05650    1.000
    H446     H        0.75510    0.49180    0.08560    1.000
    H447     H        0.72700    0.48850    0.13480    1.000
    H448     H        0.68150    0.41070    0.10700    1.000
    H449     H        0.69560    0.43710    0.37620    1.000
    H450     H        0.73010    0.50950    0.32730    1.000
    H451     H        0.70330    0.40500    0.33210    1.000
    H452     H        0.73770    0.47270    0.28410    1.000
    H453     H        0.42560    0.49930    0.44010    1.000
    H454     H        0.34340    0.52530    0.39810    1.000
    H455     H        0.39780    0.48600    0.48520    1.000
    H456     H        0.31710    0.51210    0.44390    1.000
    H457     H        0.32320    0.02360    0.74540    1.000
    H458     H        0.29650    0.97360    0.82470    1.000
    H459     H        0.37000    0.99400    0.74390    1.000
    H460     H        0.34640    0.94790    0.82170    1.000
    H461     H        0.20180    0.16800    0.89080    1.000
    H462     H        0.23450    0.20690    0.80890    1.000
    H463     H        0.21570    0.21540    0.91640    1.000
    H464     H        0.25130    0.25140    0.83780    1.000
    H465     H        0.11200    0.02230    0.67860    1.000
    H466     H        0.07070    0.00760    0.76510    1.000
    H467     H        0.03050    0.97990    0.73800    1.000
    H468     H        0.06460    0.00340    0.65530    1.000
    H469     H        0.20420    0.08610    0.94350    1.000
    H470     H        0.25510    0.00820    0.91440    1.000
    H471     H        0.22700    0.01150    0.86520    1.000
    H472     H        0.18150    0.08930    0.89300    1.000
    H473     H        0.19560    0.06290    0.62380    1.000
    H474     H        0.23010    0.99050    0.67270    1.000
    H475     H        0.20330    0.09500    0.66790    1.000
    H476     H        0.23770    0.02730    0.71590    1.000
    H477     H        0.92560    0.00070    0.55990    1.000
    H478     H        0.84340    0.97470    0.60190    1.000
    H479     H        0.89780    0.01400    0.51480    1.000
    H480     H        0.81710    0.98790    0.55610    1.000
    H481     H        0.75460    0.67680    0.52360    1.000
    H482     H        0.67530    0.70350    0.47360    1.000
    H483     H        0.75610    0.63000    0.49400    1.000
    H484     H        0.67830    0.65360    0.44790    1.000
    H485     H        0.60920    0.79820    0.66800    1.000
    H486     H        0.69110    0.76550    0.70690    1.000
    H487     H        0.58360    0.78430    0.71540    1.000
    H488     H        0.66220    0.74870    0.75140    1.000
    H489     H        0.82140    0.88800    0.52230    1.000
    H490     H        0.73490    0.92930    0.50760    1.000
    H491     H        0.76200    0.96950    0.47990    1.000
    H492     H        0.84470    0.93540    0.50340    1.000
    H493     H        0.55650    0.79580    0.58610    1.000
    H494     H        0.58560    0.74490    0.50820    1.000
    H495     H        0.63480    0.77300    0.51150    1.000
    H496     H        0.60700    0.81850    0.58930    1.000
    H497     H        0.87620    0.80440    0.56290    1.000
    H498     H        0.82730    0.76990    0.49050    1.000
    H499     H        0.83210    0.79670    0.59500    1.000
    H500     H        0.78410    0.76230    0.52730    1.000
    H501     H        0.94010    0.07440    0.50070    1.000
    H502     H        0.89810    0.15660    0.47470    1.000
    H503     H        0.98520    0.10220    0.51400    1.000
    H504     H        0.94390    0.18290    0.48790    1.000
    H505     H        0.24540    0.17680    0.97640    1.000
    H506     H        0.32470    0.20350    0.02640    1.000
    H507     H        0.24390    0.13000    0.00600    1.000
    H508     H        0.32170    0.15360    0.05210    1.000
    H509     H        0.39080    0.29820    0.83200    1.000
    H510     H        0.30890    0.26550    0.79310    1.000
    H511     H        0.41640    0.28430    0.78460    1.000
    H512     H        0.33780    0.24870    0.74860    1.000
    H513     H        0.17860    0.38800    0.97770    1.000
    H514     H        0.26510    0.42930    0.99240    1.000
    H515     H        0.23800    0.46950    0.02010    1.000
    H516     H        0.15530    0.43540    0.99660    1.000
    H517     H        0.44350    0.29580    0.91390    1.000
    H518     H        0.41440    0.24490    0.99180    1.000
    H519     H        0.36520    0.27300    0.98850    1.000
    H520     H        0.39300    0.31850    0.91070    1.000
    H521     H        0.12380    0.30440    0.93710    1.000
    H522     H        0.17270    0.26990    0.00950    1.000
    H523     H        0.16790    0.29670    0.90500    1.000
    H524     H        0.21590    0.26230    0.97270    1.000
    H525     H        0.05990    0.57440    0.99930    1.000
    H526     H        0.10190    0.65660    0.02530    1.000
    H527     H        0.01480    0.60220    0.98600    1.000
    H528     H        0.05610    0.68290    0.01210    1.000
    H529     H        0.25460    0.82320    0.47640    1.000
    H530     H        0.17530    0.79650    0.52640    1.000
    H531     H        0.25610    0.87000    0.50600    1.000
    H532     H        0.17830    0.84640    0.55210    1.000
    H533     H        0.10920    0.70180    0.33200    1.000
    H534     H        0.19110    0.73450    0.29310    1.000
    H535     H        0.08360    0.71570    0.28460    1.000
    H536     H        0.16220    0.75130    0.24860    1.000
    H537     H        0.32140    0.61200    0.47770    1.000
    H538     H        0.23490    0.57070    0.49240    1.000
    H539     H        0.26200    0.53050    0.52010    1.000
    H540     H        0.34470    0.56460    0.49660    1.000
    H541     H        0.05650    0.70420    0.41390    1.000
    H542     H        0.08560    0.75510    0.49180    1.000
    H543     H        0.13480    0.72700    0.48850    1.000
    H544     H        0.10700    0.68150    0.41070    1.000
    H545     H        0.37620    0.69560    0.43710    1.000
    H546     H        0.32730    0.73010    0.50950    1.000
    H547     H        0.33210    0.70330    0.40500    1.000
    H548     H        0.28410    0.73770    0.47270    1.000
    H549     H        0.44010    0.42560    0.49930    1.000
    H550     H        0.39810    0.34340    0.52530    1.000
    H551     H        0.48520    0.39780    0.48600    1.000
    H552     H        0.44390    0.31710    0.51210    1.000
    H553     H        0.74540    0.32320    0.02360    1.000
    H554     H        0.82470    0.29650    0.97360    1.000
    H555     H        0.74390    0.37000    0.99400    1.000
    H556     H        0.82170    0.34640    0.94790    1.000
    H557     H        0.89080    0.20180    0.16800    1.000
    H558     H        0.80890    0.23450    0.20690    1.000
    H559     H        0.91640    0.21570    0.21540    1.000
    H560     H        0.83780    0.25130    0.25140    1.000
    H561     H        0.67860    0.11200    0.02230    1.000
    H562     H        0.76510    0.07070    0.00760    1.000
    H563     H        0.73800    0.03050    0.97990    1.000
    H564     H        0.65530    0.06460    0.00340    1.000
    H565     H        0.94350    0.20420    0.08610    1.000
    H566     H        0.91440    0.25510    0.00820    1.000
    H567     H        0.86520    0.22700    0.01150    1.000
    H568     H        0.89300    0.18150    0.08930    1.000
    H569     H        0.62380    0.19560    0.06290    1.000
    H570     H        0.67270    0.23010    0.99050    1.000
    H571     H        0.66790    0.20330    0.09500    1.000
    H572     H        0.71590    0.23770    0.02730    1.000
    H573     H        0.55990    0.92560    0.00070    1.000
    H574     H        0.60190    0.84340    0.97470    1.000
    H575     H        0.51480    0.89780    0.01400    1.000
    H576     H        0.55610    0.81710    0.98790    1.000
    C1       C        0.47960    0.28640    0.27440    1.000
    C2       C        0.49820    0.28520    0.30410    1.000
    C3       C        0.49240    0.26120    0.32700    1.000
    C4       C        0.52120    0.30800    0.31120    1.000
    C5       C        0.51000    0.26080    0.35510    1.000
    C6       C        0.53690    0.30550    0.34120    1.000
    C7       C        0.34740    0.32880    0.20850    1.000
    C8       C        0.31830    0.34700    0.21780    1.000
    C9       C        0.31510    0.37900    0.21170    1.000
    C10      C        0.29240    0.33150    0.23130    1.000
    C11      C        0.28650    0.39410    0.22030    1.000
    C12      C        0.26530    0.34890    0.24030    1.000
    C13      C        0.46470    0.24040    0.12270    1.000
    C14      C        0.48080    0.22440    0.09520    1.000
    C15      C        0.48390    0.19160    0.09430    1.000
    C16      C        0.49370    0.24230    0.07070    1.000
    C17      C        0.50880    0.22570    0.04610    1.000
    C18      C        0.49670    0.17810    0.06640    1.000
    C19      C        0.45240    0.46380    0.25280    1.000
    C20      C        0.45100    0.43360    0.23410    1.000
    C21      C        0.42870    0.42730    0.21050    1.000
    C22      C        0.47500    0.41050    0.24020    1.000
    C23      C        0.47280    0.38130    0.22310    1.000
    C24      C        0.42770    0.39770    0.19600    1.000
    C25      C        0.49680    0.11420    0.21270    1.000
    C26      C        0.47660    0.14260    0.21650    1.000
    C27      C        0.44570    0.14240    0.20560    1.000
    C28      C        0.48740    0.16980    0.22540    1.000
    C29      C        0.42700    0.16970    0.20910    1.000
    C30      C        0.46470    0.19670    0.22810    1.000
    C31      C        0.52440    0.11470    0.90620    1.000
    C32      C        0.51490    0.08640    0.88830    1.000
    C33      C        0.50250    0.05960    0.90300    1.000
    C34      C        0.51770    0.08400    0.85540    1.000
    C35      C        0.49470    0.03250    0.88620    1.000
    C36      C        0.50970    0.05660    0.83980    1.000
    C37      C        0.02040    0.71360    0.77440    1.000
    C38      C        0.00180    0.71480    0.80410    1.000
    C39      C        0.00760    0.73880    0.82700    1.000
    C40      C        0.97880    0.69200    0.81120    1.000
    C41      C        0.99000    0.73920    0.85510    1.000
    C42      C        0.96310    0.69450    0.84120    1.000
    C43      C        0.15260    0.67120    0.70850    1.000
    C44      C        0.18170    0.65300    0.71780    1.000
    C45      C        0.18490    0.62100    0.71170    1.000
    C46      C        0.20760    0.66850    0.73130    1.000
    C47      C        0.21350    0.60590    0.72030    1.000
    C48      C        0.23470    0.65110    0.74030    1.000
    C49      C        0.03530    0.75960    0.62270    1.000
    C50      C        0.01920    0.77560    0.59520    1.000
    C51      C        0.01610    0.80840    0.59430    1.000
    C52      C        0.00630    0.75770    0.57070    1.000
    C53      C        0.99120    0.77430    0.54610    1.000
    C54      C        0.00330    0.82190    0.56640    1.000
    C55      C        0.04760    0.53620    0.75280    1.000
    C56      C        0.04900    0.56640    0.73410    1.000
    C57      C        0.07130    0.57270    0.71050    1.000
    C58      C        0.02500    0.58950    0.74020    1.000
    C59      C        0.02720    0.61870    0.72310    1.000
    C60      C        0.07230    0.60230    0.69600    1.000
    C61      C        0.00320    0.88580    0.71270    1.000
    C62      C        0.02340    0.85740    0.71650    1.000
    C63      C        0.05430    0.85760    0.70560    1.000
    C64      C        0.01260    0.83020    0.72540    1.000
    C65      C        0.07300    0.83030    0.70910    1.000
    C66      C        0.03530    0.80330    0.72810    1.000
    C67      C        0.97560    0.88530    0.40620    1.000
    C68      C        0.98510    0.91360    0.38830    1.000
    C69      C        0.99750    0.94040    0.40300    1.000
    C70      C        0.98230    0.91600    0.35540    1.000
    C71      C        0.00530    0.96750    0.38620    1.000
    C72      C        0.99030    0.94340    0.33980    1.000
    C73      C        0.52040    0.78640    0.22560    1.000
    C74      C        0.50180    0.78520    0.19590    1.000
    C75      C        0.50760    0.76120    0.17300    1.000
    C76      C        0.47880    0.80800    0.18880    1.000
    C77      C        0.49000    0.76080    0.14490    1.000
    C78      C        0.46310    0.80550    0.15880    1.000
    C79      C        0.65260    0.82880    0.29150    1.000
    C80      C        0.68170    0.84700    0.28220    1.000
    C81      C        0.68490    0.87900    0.28830    1.000
    C82      C        0.70760    0.83150    0.26870    1.000
    C83      C        0.71350    0.89410    0.27970    1.000
    C84      C        0.73470    0.84890    0.25970    1.000
    C85      C        0.53530    0.74040    0.37730    1.000
    C86      C        0.51920    0.72440    0.40480    1.000
    C87      C        0.51610    0.69160    0.40570    1.000
    C88      C        0.50630    0.74230    0.42930    1.000
    C89      C        0.49120    0.72570    0.45390    1.000
    C90      C        0.50330    0.67810    0.43360    1.000
    C91      C        0.54760    0.96380    0.24720    1.000
    C92      C        0.54900    0.93360    0.26590    1.000
    C93      C        0.57130    0.92730    0.28950    1.000
    C94      C        0.52500    0.91050    0.25980    1.000
    C95      C        0.52720    0.88130    0.27690    1.000
    C96      C        0.57230    0.89770    0.30400    1.000
    C97      C        0.50320    0.61420    0.28730    1.000
    C98      C        0.52340    0.64260    0.28350    1.000
    C99      C        0.55430    0.64240    0.29440    1.000
    C100     C        0.51260    0.66980    0.27460    1.000
    C101     C        0.57300    0.66970    0.29090    1.000
    C102     C        0.53530    0.69670    0.27190    1.000
    C103     C        0.47560    0.61470    0.59380    1.000
    C104     C        0.48510    0.58640    0.61170    1.000
    C105     C        0.49750    0.55960    0.59700    1.000
    C106     C        0.48230    0.58400    0.64460    1.000
    C107     C        0.50530    0.53250    0.61380    1.000
    C108     C        0.49030    0.55660    0.66020    1.000
    C109     C        0.97960    0.21360    0.72560    1.000
    C110     C        0.99820    0.21480    0.69590    1.000
    C111     C        0.99240    0.23880    0.67300    1.000
    C112     C        0.02120    0.19200    0.68880    1.000
    C113     C        0.01000    0.23920    0.64490    1.000
    C114     C        0.03690    0.19450    0.65880    1.000
    C115     C        0.84740    0.17120    0.79150    1.000
    C116     C        0.81830    0.15300    0.78220    1.000
    C117     C        0.81510    0.12100    0.78830    1.000
    C118     C        0.79240    0.16850    0.76870    1.000
    C119     C        0.78650    0.10590    0.77970    1.000
    C120     C        0.76530    0.15110    0.75970    1.000
    C121     C        0.96470    0.25960    0.87730    1.000
    C122     C        0.98080    0.27560    0.90480    1.000
    C123     C        0.98390    0.30840    0.90570    1.000
    C124     C        0.99370    0.25770    0.92930    1.000
    C125     C        0.00880    0.27430    0.95390    1.000
    C126     C        0.99670    0.32190    0.93360    1.000
    C127     C        0.95240    0.03620    0.74720    1.000
    C128     C        0.95100    0.06640    0.76590    1.000
    C129     C        0.92870    0.07270    0.78950    1.000
    C130     C        0.97500    0.08950    0.75980    1.000
    C131     C        0.97280    0.11870    0.77690    1.000
    C132     C        0.92770    0.10230    0.80400    1.000
    C133     C        0.99680    0.38580    0.78730    1.000
    C134     C        0.97660    0.35740    0.78350    1.000
    C135     C        0.94570    0.35760    0.79440    1.000
    C136     C        0.98740    0.33020    0.77460    1.000
    C137     C        0.92700    0.33030    0.79090    1.000
    C138     C        0.96470    0.30330    0.77190    1.000
    C139     C        0.02440    0.38530    0.09380    1.000
    C140     C        0.01490    0.41360    0.11170    1.000
    C141     C        0.00250    0.44040    0.09700    1.000
    C142     C        0.01770    0.41600    0.14460    1.000
    C143     C        0.99470    0.46750    0.11380    1.000
    C144     C        0.00970    0.44340    0.16020    1.000
    C145     C        0.27440    0.47960    0.28640    1.000
    C146     C        0.30410    0.49820    0.28520    1.000
    C147     C        0.32700    0.49240    0.26120    1.000
    C148     C        0.31120    0.52120    0.30800    1.000
    C149     C        0.35510    0.51000    0.26080    1.000
    C150     C        0.34120    0.53690    0.30550    1.000
    C151     C        0.20850    0.34740    0.32880    1.000
    C152     C        0.21780    0.31830    0.34700    1.000
    C153     C        0.21170    0.31510    0.37900    1.000
    C154     C        0.23130    0.29240    0.33150    1.000
    C155     C        0.22030    0.28650    0.39410    1.000
    C156     C        0.24030    0.26530    0.34890    1.000
    C157     C        0.12270    0.46470    0.24040    1.000
    C158     C        0.09520    0.48080    0.22440    1.000
    C159     C        0.09430    0.48390    0.19160    1.000
    C160     C        0.07070    0.49370    0.24230    1.000
    C161     C        0.04610    0.50880    0.22570    1.000
    C162     C        0.06640    0.49670    0.17810    1.000
    C163     C        0.25280    0.45240    0.46380    1.000
    C164     C        0.23410    0.45100    0.43360    1.000
    C165     C        0.21050    0.42870    0.42730    1.000
    C166     C        0.24020    0.47500    0.41050    1.000
    C167     C        0.22310    0.47280    0.38130    1.000
    C168     C        0.19600    0.42770    0.39770    1.000
    C169     C        0.21270    0.49680    0.11420    1.000
    C170     C        0.21650    0.47660    0.14260    1.000
    C171     C        0.20560    0.44570    0.14240    1.000
    C172     C        0.22540    0.48740    0.16980    1.000
    C173     C        0.20910    0.42700    0.16970    1.000
    C174     C        0.22810    0.46470    0.19670    1.000
    C175     C        0.90620    0.52440    0.11470    1.000
    C176     C        0.88830    0.51490    0.08640    1.000
    C177     C        0.90300    0.50250    0.05960    1.000
    C178     C        0.85540    0.51770    0.08400    1.000
    C179     C        0.88620    0.49470    0.03250    1.000
    C180     C        0.83980    0.50970    0.05660    1.000
    C181     C        0.77440    0.02040    0.71360    1.000
    C182     C        0.80410    0.00180    0.71480    1.000
    C183     C        0.82700    0.00760    0.73880    1.000
    C184     C        0.81120    0.97880    0.69200    1.000
    C185     C        0.85510    0.99000    0.73920    1.000
    C186     C        0.84120    0.96310    0.69450    1.000
    C187     C        0.70850    0.15260    0.67120    1.000
    C188     C        0.71780    0.18170    0.65300    1.000
    C189     C        0.71170    0.18490    0.62100    1.000
    C190     C        0.73130    0.20760    0.66850    1.000
    C191     C        0.72030    0.21350    0.60590    1.000
    C192     C        0.74030    0.23470    0.65110    1.000
    C193     C        0.62270    0.03530    0.75960    1.000
    C194     C        0.59520    0.01920    0.77560    1.000
    C195     C        0.59430    0.01610    0.80840    1.000
    C196     C        0.57070    0.00630    0.75770    1.000
    C197     C        0.54610    0.99120    0.77430    1.000
    C198     C        0.56640    0.00330    0.82190    1.000
    C199     C        0.75280    0.04760    0.53620    1.000
    C200     C        0.73410    0.04900    0.56640    1.000
    C201     C        0.71050    0.07130    0.57270    1.000
    C202     C        0.74020    0.02500    0.58950    1.000
    C203     C        0.72310    0.02720    0.61870    1.000
    C204     C        0.69600    0.07230    0.60230    1.000
    C205     C        0.71270    0.00320    0.88580    1.000
    C206     C        0.71650    0.02340    0.85740    1.000
    C207     C        0.70560    0.05430    0.85760    1.000
    C208     C        0.72540    0.01260    0.83020    1.000
    C209     C        0.70910    0.07300    0.83030    1.000
    C210     C        0.72810    0.03530    0.80330    1.000
    C211     C        0.40620    0.97560    0.88530    1.000
    C212     C        0.38830    0.98510    0.91360    1.000
    C213     C        0.40300    0.99750    0.94040    1.000
    C214     C        0.35540    0.98230    0.91600    1.000
    C215     C        0.38620    0.00530    0.96750    1.000
    C216     C        0.33980    0.99030    0.94340    1.000
    C217     C        0.22560    0.52040    0.78640    1.000
    C218     C        0.19590    0.50180    0.78520    1.000
    C219     C        0.17300    0.50760    0.76120    1.000
    C220     C        0.18880    0.47880    0.80800    1.000
    C221     C        0.14490    0.49000    0.76080    1.000
    C222     C        0.15880    0.46310    0.80550    1.000
    C223     C        0.29150    0.65260    0.82880    1.000
    C224     C        0.28220    0.68170    0.84700    1.000
    C225     C        0.28830    0.68490    0.87900    1.000
    C226     C        0.26870    0.70760    0.83150    1.000
    C227     C        0.27970    0.71350    0.89410    1.000
    C228     C        0.25970    0.73470    0.84890    1.000
    C229     C        0.37730    0.53530    0.74040    1.000
    C230     C        0.40480    0.51920    0.72440    1.000
    C231     C        0.40570    0.51610    0.69160    1.000
    C232     C        0.42930    0.50630    0.74230    1.000
    C233     C        0.45390    0.49120    0.72570    1.000
    C234     C        0.43360    0.50330    0.67810    1.000
    C235     C        0.24720    0.54760    0.96380    1.000
    C236     C        0.26590    0.54900    0.93360    1.000
    C237     C        0.28950    0.57130    0.92730    1.000
    C238     C        0.25980    0.52500    0.91050    1.000
    C239     C        0.27690    0.52720    0.88130    1.000
    C240     C        0.30400    0.57230    0.89770    1.000
    C241     C        0.28730    0.50320    0.61420    1.000
    C242     C        0.28350    0.52340    0.64260    1.000
    C243     C        0.29440    0.55430    0.64240    1.000
    C244     C        0.27460    0.51260    0.66980    1.000
    C245     C        0.29090    0.57300    0.66970    1.000
    C246     C        0.27190    0.53530    0.69670    1.000
    C247     C        0.59380    0.47560    0.61470    1.000
    C248     C        0.61170    0.48510    0.58640    1.000
    C249     C        0.59700    0.49750    0.55960    1.000
    C250     C        0.64460    0.48230    0.58400    1.000
    C251     C        0.61380    0.50530    0.53250    1.000
    C252     C        0.66020    0.49030    0.55660    1.000
    C253     C        0.72560    0.97960    0.21360    1.000
    C254     C        0.69590    0.99820    0.21480    1.000
    C255     C        0.67300    0.99240    0.23880    1.000
    C256     C        0.68880    0.02120    0.19200    1.000
    C257     C        0.64490    0.01000    0.23920    1.000
    C258     C        0.65880    0.03690    0.19450    1.000
    C259     C        0.79150    0.84740    0.17120    1.000
    C260     C        0.78220    0.81830    0.15300    1.000
    C261     C        0.78830    0.81510    0.12100    1.000
    C262     C        0.76870    0.79240    0.16850    1.000
    C263     C        0.77970    0.78650    0.10590    1.000
    C264     C        0.75970    0.76530    0.15110    1.000
    C265     C        0.87730    0.96470    0.25960    1.000
    C266     C        0.90480    0.98080    0.27560    1.000
    C267     C        0.90570    0.98390    0.30840    1.000
    C268     C        0.92930    0.99370    0.25770    1.000
    C269     C        0.95390    0.00880    0.27430    1.000
    C270     C        0.93360    0.99670    0.32190    1.000
    C271     C        0.74720    0.95240    0.03620    1.000
    C272     C        0.76590    0.95100    0.06640    1.000
    C273     C        0.78950    0.92870    0.07270    1.000
    C274     C        0.75980    0.97500    0.08950    1.000
    C275     C        0.77690    0.97280    0.11870    1.000
    C276     C        0.80400    0.92770    0.10230    1.000
    C277     C        0.78730    0.99680    0.38580    1.000
    C278     C        0.78350    0.97660    0.35740    1.000
    C279     C        0.79440    0.94570    0.35760    1.000
    C280     C        0.77460    0.98740    0.33020    1.000
    C281     C        0.79090    0.92700    0.33030    1.000
    C282     C        0.77190    0.96470    0.30330    1.000
    C283     C        0.09380    0.02440    0.38530    1.000
    C284     C        0.11170    0.01490    0.41360    1.000
    C285     C        0.09700    0.00250    0.44040    1.000
    C286     C        0.14460    0.01770    0.41600    1.000
    C287     C        0.11380    0.99470    0.46750    1.000
    C288     C        0.16020    0.00970    0.44340    1.000
    C289     C        0.28640    0.27440    0.47960    1.000
    C290     C        0.28520    0.30410    0.49820    1.000
    C291     C        0.26120    0.32700    0.49240    1.000
    C292     C        0.30800    0.31120    0.52120    1.000
    C293     C        0.26080    0.35510    0.51000    1.000
    C294     C        0.30550    0.34120    0.53690    1.000
    C295     C        0.32880    0.20850    0.34740    1.000
    C296     C        0.34700    0.21780    0.31830    1.000
    C297     C        0.37900    0.21170    0.31510    1.000
    C298     C        0.33150    0.23130    0.29240    1.000
    C299     C        0.39410    0.22030    0.28650    1.000
    C300     C        0.34890    0.24030    0.26530    1.000
    C301     C        0.24040    0.12270    0.46470    1.000
    C302     C        0.22440    0.09520    0.48080    1.000
    C303     C        0.19160    0.09430    0.48390    1.000
    C304     C        0.24230    0.07070    0.49370    1.000
    C305     C        0.22570    0.04610    0.50880    1.000
    C306     C        0.17810    0.06640    0.49670    1.000
    C307     C        0.46380    0.25280    0.45240    1.000
    C308     C        0.43360    0.23410    0.45100    1.000
    C309     C        0.42730    0.21050    0.42870    1.000
    C310     C        0.41050    0.24020    0.47500    1.000
    C311     C        0.38130    0.22310    0.47280    1.000
    C312     C        0.39770    0.19600    0.42770    1.000
    C313     C        0.11420    0.21270    0.49680    1.000
    C314     C        0.14260    0.21650    0.47660    1.000
    C315     C        0.14240    0.20560    0.44570    1.000
    C316     C        0.16980    0.22540    0.48740    1.000
    C317     C        0.16970    0.20910    0.42700    1.000
    C318     C        0.19670    0.22810    0.46470    1.000
    C319     C        0.11470    0.90620    0.52440    1.000
    C320     C        0.08640    0.88830    0.51490    1.000
    C321     C        0.05960    0.90300    0.50250    1.000
    C322     C        0.08400    0.85540    0.51770    1.000
    C323     C        0.03250    0.88620    0.49470    1.000
    C324     C        0.05660    0.83980    0.50970    1.000
    C325     C        0.71360    0.77440    0.02040    1.000
    C326     C        0.71480    0.80410    0.00180    1.000
    C327     C        0.73880    0.82700    0.00760    1.000
    C328     C        0.69200    0.81120    0.97880    1.000
    C329     C        0.73920    0.85510    0.99000    1.000
    C330     C        0.69450    0.84120    0.96310    1.000
    C331     C        0.67120    0.70850    0.15260    1.000
    C332     C        0.65300    0.71780    0.18170    1.000
    C333     C        0.62100    0.71170    0.18490    1.000
    C334     C        0.66850    0.73130    0.20760    1.000
    C335     C        0.60590    0.72030    0.21350    1.000
    C336     C        0.65110    0.74030    0.23470    1.000
    C337     C        0.75960    0.62270    0.03530    1.000
    C338     C        0.77560    0.59520    0.01920    1.000
    C339     C        0.80840    0.59430    0.01610    1.000
    C340     C        0.75770    0.57070    0.00630    1.000
    C341     C        0.77430    0.54610    0.99120    1.000
    C342     C        0.82190    0.56640    0.00330    1.000
    C343     C        0.53620    0.75280    0.04760    1.000
    C344     C        0.56640    0.73410    0.04900    1.000
    C345     C        0.57270    0.71050    0.07130    1.000
    C346     C        0.58950    0.74020    0.02500    1.000
    C347     C        0.61870    0.72310    0.02720    1.000
    C348     C        0.60230    0.69600    0.07230    1.000
    C349     C        0.88580    0.71270    0.00320    1.000
    C350     C        0.85740    0.71650    0.02340    1.000
    C351     C        0.85760    0.70560    0.05430    1.000
    C352     C        0.83020    0.72540    0.01260    1.000
    C353     C        0.83030    0.70910    0.07300    1.000
    C354     C        0.80330    0.72810    0.03530    1.000
    C355     C        0.88530    0.40620    0.97560    1.000
    C356     C        0.91360    0.38830    0.98510    1.000
    C357     C        0.94040    0.40300    0.99750    1.000
    C358     C        0.91600    0.35540    0.98230    1.000
    C359     C        0.96750    0.38620    0.00530    1.000
    C360     C        0.94340    0.33980    0.99030    1.000
    C361     C        0.78640    0.22560    0.52040    1.000
    C362     C        0.78520    0.19590    0.50180    1.000
    C363     C        0.76120    0.17300    0.50760    1.000
    C364     C        0.80800    0.18880    0.47880    1.000
    C365     C        0.76080    0.14490    0.49000    1.000
    C366     C        0.80550    0.15880    0.46310    1.000
    C367     C        0.82880    0.29150    0.65260    1.000
    C368     C        0.84700    0.28220    0.68170    1.000
    C369     C        0.87900    0.28830    0.68490    1.000
    C370     C        0.83150    0.26870    0.70760    1.000
    C371     C        0.89410    0.27970    0.71350    1.000
    C372     C        0.84890    0.25970    0.73470    1.000
    C373     C        0.74040    0.37730    0.53530    1.000
    C374     C        0.72440    0.40480    0.51920    1.000
    C375     C        0.69160    0.40570    0.51610    1.000
    C376     C        0.74230    0.42930    0.50630    1.000
    C377     C        0.72570    0.45390    0.49120    1.000
    C378     C        0.67810    0.43360    0.50330    1.000
    C379     C        0.96380    0.24720    0.54760    1.000
    C380     C        0.93360    0.26590    0.54900    1.000
    C381     C        0.92730    0.28950    0.57130    1.000
    C382     C        0.91050    0.25980    0.52500    1.000
    C383     C        0.88130    0.27690    0.52720    1.000
    C384     C        0.89770    0.30400    0.57230    1.000
    C385     C        0.61420    0.28730    0.50320    1.000
    C386     C        0.64260    0.28350    0.52340    1.000
    C387     C        0.64240    0.29440    0.55430    1.000
    C388     C        0.66980    0.27460    0.51260    1.000
    C389     C        0.66970    0.29090    0.57300    1.000
    C390     C        0.69670    0.27190    0.53530    1.000
    C391     C        0.61470    0.59380    0.47560    1.000
    C392     C        0.58640    0.61170    0.48510    1.000
    C393     C        0.55960    0.59700    0.49750    1.000
    C394     C        0.58400    0.64460    0.48230    1.000
    C395     C        0.53250    0.61380    0.50530    1.000
    C396     C        0.55660    0.66020    0.49030    1.000
    C397     C        0.21360    0.72560    0.97960    1.000
    C398     C        0.21480    0.69590    0.99820    1.000
    C399     C        0.23880    0.67300    0.99240    1.000
    C400     C        0.19200    0.68880    0.02120    1.000
    C401     C        0.23920    0.64490    0.01000    1.000
    C402     C        0.19450    0.65880    0.03690    1.000
    C403     C        0.17120    0.79150    0.84740    1.000
    C404     C        0.15300    0.78220    0.81830    1.000
    C405     C        0.12100    0.78830    0.81510    1.000
    C406     C        0.16850    0.76870    0.79240    1.000
    C407     C        0.10590    0.77970    0.78650    1.000
    C408     C        0.15110    0.75970    0.76530    1.000
    C409     C        0.25960    0.87730    0.96470    1.000
    C410     C        0.27560    0.90480    0.98080    1.000
    C411     C        0.30840    0.90570    0.98390    1.000
    C412     C        0.25770    0.92930    0.99370    1.000
    C413     C        0.27430    0.95390    0.00880    1.000
    C414     C        0.32190    0.93360    0.99670    1.000
    C415     C        0.03620    0.74720    0.95240    1.000
    C416     C        0.06640    0.76590    0.95100    1.000
    C417     C        0.07270    0.78950    0.92870    1.000
    C418     C        0.08950    0.75980    0.97500    1.000
    C419     C        0.11870    0.77690    0.97280    1.000
    C420     C        0.10230    0.80400    0.92770    1.000
    C421     C        0.38580    0.78730    0.99680    1.000
    C422     C        0.35740    0.78350    0.97660    1.000
    C423     C        0.35760    0.79440    0.94570    1.000
    C424     C        0.33020    0.77460    0.98740    1.000
    C425     C        0.33030    0.79090    0.92700    1.000
    C426     C        0.30330    0.77190    0.96470    1.000
    C427     C        0.38530    0.09380    0.02440    1.000
    C428     C        0.41360    0.11170    0.01490    1.000
    C429     C        0.44040    0.09700    0.00250    1.000
    C430     C        0.41600    0.14460    0.01770    1.000
    C431     C        0.46750    0.11380    0.99470    1.000
    C432     C        0.44340    0.16020    0.00970    1.000
    C433     C        0.52040    0.71360    0.72560    1.000
    C434     C        0.50180    0.71480    0.69590    1.000
    C435     C        0.50760    0.73880    0.67300    1.000
    C436     C        0.47880    0.69200    0.68880    1.000
    C437     C        0.49000    0.73920    0.64490    1.000
    C438     C        0.46310    0.69450    0.65880    1.000
    C439     C        0.65260    0.67120    0.79150    1.000
    C440     C        0.68170    0.65300    0.78220    1.000
    C441     C        0.68490    0.62100    0.78830    1.000
    C442     C        0.70760    0.66850    0.76870    1.000
    C443     C        0.71350    0.60590    0.77970    1.000
    C444     C        0.73470    0.65110    0.75970    1.000
    C445     C        0.53530    0.75960    0.87730    1.000
    C446     C        0.51920    0.77560    0.90480    1.000
    C447     C        0.51610    0.80840    0.90570    1.000
    C448     C        0.50630    0.75770    0.92930    1.000
    C449     C        0.49120    0.77430    0.95390    1.000
    C450     C        0.50330    0.82190    0.93360    1.000
    C451     C        0.54760    0.53620    0.74720    1.000
    C452     C        0.54900    0.56640    0.76590    1.000
    C453     C        0.57130    0.57270    0.78950    1.000
    C454     C        0.52500    0.58950    0.75980    1.000
    C455     C        0.52720    0.61870    0.77690    1.000
    C456     C        0.57230    0.60230    0.80400    1.000
    C457     C        0.50320    0.88580    0.78730    1.000
    C458     C        0.52340    0.85740    0.78350    1.000
    C459     C        0.55430    0.85760    0.79440    1.000
    C460     C        0.51260    0.83020    0.77460    1.000
    C461     C        0.57300    0.83030    0.79090    1.000
    C462     C        0.53530    0.80330    0.77190    1.000
    C463     C        0.47560    0.88530    0.09380    1.000
    C464     C        0.48510    0.91360    0.11170    1.000
    C465     C        0.49750    0.94040    0.09700    1.000
    C466     C        0.48230    0.91600    0.14460    1.000
    C467     C        0.50530    0.96750    0.11380    1.000
    C468     C        0.49030    0.94340    0.16020    1.000
    C469     C        0.97960    0.28640    0.22560    1.000
    C470     C        0.99820    0.28520    0.19590    1.000
    C471     C        0.99240    0.26120    0.17300    1.000
    C472     C        0.02120    0.30800    0.18880    1.000
    C473     C        0.01000    0.26080    0.14490    1.000
    C474     C        0.03690    0.30550    0.15880    1.000
    C475     C        0.84740    0.32880    0.29150    1.000
    C476     C        0.81830    0.34700    0.28220    1.000
    C477     C        0.81510    0.37900    0.28830    1.000
    C478     C        0.79240    0.33150    0.26870    1.000
    C479     C        0.78650    0.39410    0.27970    1.000
    C480     C        0.76530    0.34890    0.25970    1.000
    C481     C        0.96470    0.24040    0.37730    1.000
    C482     C        0.98080    0.22440    0.40480    1.000
    C483     C        0.98390    0.19160    0.40570    1.000
    C484     C        0.99370    0.24230    0.42930    1.000
    C485     C        0.00880    0.22570    0.45390    1.000
    C486     C        0.99670    0.17810    0.43360    1.000
    C487     C        0.95240    0.46380    0.24720    1.000
    C488     C        0.95100    0.43360    0.26590    1.000
    C489     C        0.92870    0.42730    0.28950    1.000
    C490     C        0.97500    0.41050    0.25980    1.000
    C491     C        0.97280    0.38130    0.27690    1.000
    C492     C        0.92770    0.39770    0.30400    1.000
    C493     C        0.99680    0.11420    0.28730    1.000
    C494     C        0.97660    0.14260    0.28350    1.000
    C495     C        0.94570    0.14240    0.29440    1.000
    C496     C        0.98740    0.16980    0.27460    1.000
    C497     C        0.92700    0.16970    0.29090    1.000
    C498     C        0.96470    0.19670    0.27190    1.000
    C499     C        0.02440    0.11470    0.59380    1.000
    C500     C        0.01490    0.08640    0.61170    1.000
    C501     C        0.00250    0.05960    0.59700    1.000
    C502     C        0.01770    0.08400    0.64460    1.000
    C503     C        0.99470    0.03250    0.61380    1.000
    C504     C        0.00970    0.05660    0.66020    1.000
    C505     C        0.47960    0.21360    0.77440    1.000
    C506     C        0.49820    0.21480    0.80410    1.000
    C507     C        0.49240    0.23880    0.82700    1.000
    C508     C        0.52120    0.19200    0.81120    1.000
    C509     C        0.51000    0.23920    0.85510    1.000
    C510     C        0.53690    0.19450    0.84120    1.000
    C511     C        0.34740    0.17120    0.70850    1.000
    C512     C        0.31830    0.15300    0.71780    1.000
    C513     C        0.31510    0.12100    0.71170    1.000
    C514     C        0.29240    0.16850    0.73130    1.000
    C515     C        0.28650    0.10590    0.72030    1.000
    C516     C        0.26530    0.15110    0.74030    1.000
    C517     C        0.46470    0.25960    0.62270    1.000
    C518     C        0.48080    0.27560    0.59520    1.000
    C519     C        0.48390    0.30840    0.59430    1.000
    C520     C        0.49370    0.25770    0.57070    1.000
    C521     C        0.50880    0.27430    0.54610    1.000
    C522     C        0.49670    0.32190    0.56640    1.000
    C523     C        0.45240    0.03620    0.75280    1.000
    C524     C        0.45100    0.06640    0.73410    1.000
    C525     C        0.42870    0.07270    0.71050    1.000
    C526     C        0.47500    0.08950    0.74020    1.000
    C527     C        0.47280    0.11870    0.72310    1.000
    C528     C        0.42770    0.10230    0.69600    1.000
    C529     C        0.49680    0.38580    0.71270    1.000
    C530     C        0.47660    0.35740    0.71650    1.000
    C531     C        0.44570    0.35760    0.70560    1.000
    C532     C        0.48740    0.33020    0.72540    1.000
    C533     C        0.42700    0.33030    0.70910    1.000
    C534     C        0.46470    0.30330    0.72810    1.000
    C535     C        0.52440    0.38530    0.40620    1.000
    C536     C        0.51490    0.41360    0.38830    1.000
    C537     C        0.50250    0.44040    0.40300    1.000
    C538     C        0.51770    0.41600    0.35540    1.000
    C539     C        0.49470    0.46750    0.38620    1.000
    C540     C        0.50970    0.44340    0.33980    1.000
    C541     C        0.02040    0.78640    0.27440    1.000
    C542     C        0.00180    0.78520    0.30410    1.000
    C543     C        0.00760    0.76120    0.32700    1.000
    C544     C        0.97880    0.80800    0.31120    1.000
    C545     C        0.99000    0.76080    0.35510    1.000
    C546     C        0.96310    0.80550    0.34120    1.000
    C547     C        0.15260    0.82880    0.20850    1.000
    C548     C        0.18170    0.84700    0.21780    1.000
    C549     C        0.18490    0.87900    0.21170    1.000
    C550     C        0.20760    0.83150    0.23130    1.000
    C551     C        0.21350    0.89410    0.22030    1.000
    C552     C        0.23470    0.84890    0.24030    1.000
    C553     C        0.03530    0.74040    0.12270    1.000
    C554     C        0.01920    0.72440    0.09520    1.000
    C555     C        0.01610    0.69160    0.09430    1.000
    C556     C        0.00630    0.74230    0.07070    1.000
    C557     C        0.99120    0.72570    0.04610    1.000
    C558     C        0.00330    0.67810    0.06640    1.000
    C559     C        0.04760    0.96380    0.25280    1.000
    C560     C        0.04900    0.93360    0.23410    1.000
    C561     C        0.07130    0.92730    0.21050    1.000
    C562     C        0.02500    0.91050    0.24020    1.000
    C563     C        0.02720    0.88130    0.22310    1.000
    C564     C        0.07230    0.89770    0.19600    1.000
    C565     C        0.00320    0.61420    0.21270    1.000
    C566     C        0.02340    0.64260    0.21650    1.000
    C567     C        0.05430    0.64240    0.20560    1.000
    C568     C        0.01260    0.66980    0.22540    1.000
    C569     C        0.07300    0.66970    0.20910    1.000
    C570     C        0.03530    0.69670    0.22810    1.000
    C571     C        0.97560    0.61470    0.90620    1.000
    C572     C        0.98510    0.58640    0.88830    1.000
    C573     C        0.99750    0.55960    0.90300    1.000
    C574     C        0.98230    0.58400    0.85540    1.000
    C575     C        0.00530    0.53250    0.88620    1.000
    C576     C        0.99030    0.55660    0.83980    1.000
    C577     C        0.72560    0.52040    0.71360    1.000
    C578     C        0.69590    0.50180    0.71480    1.000
    C579     C        0.67300    0.50760    0.73880    1.000
    C580     C        0.68880    0.47880    0.69200    1.000
    C581     C        0.64490    0.49000    0.73920    1.000
    C582     C        0.65880    0.46310    0.69450    1.000
    C583     C        0.79150    0.65260    0.67120    1.000
    C584     C        0.78220    0.68170    0.65300    1.000
    C585     C        0.78830    0.68490    0.62100    1.000
    C586     C        0.76870    0.70760    0.66850    1.000
    C587     C        0.77970    0.71350    0.60590    1.000
    C588     C        0.75970    0.73470    0.65110    1.000
    C589     C        0.87730    0.53530    0.75960    1.000
    C590     C        0.90480    0.51920    0.77560    1.000
    C591     C        0.90570    0.51610    0.80840    1.000
    C592     C        0.92930    0.50630    0.75770    1.000
    C593     C        0.95390    0.49120    0.77430    1.000
    C594     C        0.93360    0.50330    0.82190    1.000
    C595     C        0.74720    0.54760    0.53620    1.000
    C596     C        0.76590    0.54900    0.56640    1.000
    C597     C        0.78950    0.57130    0.57270    1.000
    C598     C        0.75980    0.52500    0.58950    1.000
    C599     C        0.77690    0.52720    0.61870    1.000
    C600     C        0.80400    0.57230    0.60230    1.000
    C601     C        0.78730    0.50320    0.88580    1.000
    C602     C        0.78350    0.52340    0.85740    1.000
    C603     C        0.79440    0.55430    0.85760    1.000
    C604     C        0.77460    0.51260    0.83020    1.000
    C605     C        0.79090    0.57300    0.83030    1.000
    C606     C        0.77190    0.53530    0.80330    1.000
    C607     C        0.09380    0.47560    0.88530    1.000
    C608     C        0.11170    0.48510    0.91360    1.000
    C609     C        0.09700    0.49750    0.94040    1.000
    C610     C        0.14460    0.48230    0.91600    1.000
    C611     C        0.11380    0.50530    0.96750    1.000
    C612     C        0.16020    0.49030    0.94340    1.000
    C613     C        0.22560    0.97960    0.28640    1.000
    C614     C        0.19590    0.99820    0.28520    1.000
    C615     C        0.17300    0.99240    0.26120    1.000
    C616     C        0.18880    0.02120    0.30800    1.000
    C617     C        0.14490    0.01000    0.26080    1.000
    C618     C        0.15880    0.03690    0.30550    1.000
    C619     C        0.29150    0.84740    0.32880    1.000
    C620     C        0.28220    0.81830    0.34700    1.000
    C621     C        0.28830    0.81510    0.37900    1.000
    C622     C        0.26870    0.79240    0.33150    1.000
    C623     C        0.27970    0.78650    0.39410    1.000
    C624     C        0.25970    0.76530    0.34890    1.000
    C625     C        0.37730    0.96470    0.24040    1.000
    C626     C        0.40480    0.98080    0.22440    1.000
    C627     C        0.40570    0.98390    0.19160    1.000
    C628     C        0.42930    0.99370    0.24230    1.000
    C629     C        0.45390    0.00880    0.22570    1.000
    C630     C        0.43360    0.99670    0.17810    1.000
    C631     C        0.24720    0.95240    0.46380    1.000
    C632     C        0.26590    0.95100    0.43360    1.000
    C633     C        0.28950    0.92870    0.42730    1.000
    C634     C        0.25980    0.97500    0.41050    1.000
    C635     C        0.27690    0.97280    0.38130    1.000
    C636     C        0.30400    0.92770    0.39770    1.000
    C637     C        0.28730    0.99680    0.11420    1.000
    C638     C        0.28350    0.97660    0.14260    1.000
    C639     C        0.29440    0.94570    0.14240    1.000
    C640     C        0.27460    0.98740    0.16980    1.000
    C641     C        0.29090    0.92700    0.16970    1.000
    C642     C        0.27190    0.96470    0.19670    1.000
    C643     C        0.59380    0.02440    0.11470    1.000
    C644     C        0.61170    0.01490    0.08640    1.000
    C645     C        0.59700    0.00250    0.05960    1.000
    C646     C        0.64460    0.01770    0.08400    1.000
    C647     C        0.61380    0.99470    0.03250    1.000
    C648     C        0.66020    0.00970    0.05660    1.000
    C649     C        0.77440    0.47960    0.21360    1.000
    C650     C        0.80410    0.49820    0.21480    1.000
    C651     C        0.82700    0.49240    0.23880    1.000
    C652     C        0.81120    0.52120    0.19200    1.000
    C653     C        0.85510    0.51000    0.23920    1.000
    C654     C        0.84120    0.53690    0.19450    1.000
    C655     C        0.70850    0.34740    0.17120    1.000
    C656     C        0.71780    0.31830    0.15300    1.000
    C657     C        0.71170    0.31510    0.12100    1.000
    C658     C        0.73130    0.29240    0.16850    1.000
    C659     C        0.72030    0.28650    0.10590    1.000
    C660     C        0.74030    0.26530    0.15110    1.000
    C661     C        0.62270    0.46470    0.25960    1.000
    C662     C        0.59520    0.48080    0.27560    1.000
    C663     C        0.59430    0.48390    0.30840    1.000
    C664     C        0.57070    0.49370    0.25770    1.000
    C665     C        0.54610    0.50880    0.27430    1.000
    C666     C        0.56640    0.49670    0.32190    1.000
    C667     C        0.75280    0.45240    0.03620    1.000
    C668     C        0.73410    0.45100    0.06640    1.000
    C669     C        0.71050    0.42870    0.07270    1.000
    C670     C        0.74020    0.47500    0.08950    1.000
    C671     C        0.72310    0.47280    0.11870    1.000
    C672     C        0.69600    0.42770    0.10230    1.000
    C673     C        0.71270    0.49680    0.38580    1.000
    C674     C        0.71650    0.47660    0.35740    1.000
    C675     C        0.70560    0.44570    0.35760    1.000
    C676     C        0.72540    0.48740    0.33020    1.000
    C677     C        0.70910    0.42700    0.33030    1.000
    C678     C        0.72810    0.46470    0.30330    1.000
    C679     C        0.40620    0.52440    0.38530    1.000
    C680     C        0.38830    0.51490    0.41360    1.000
    C681     C        0.40300    0.50250    0.44040    1.000
    C682     C        0.35540    0.51770    0.41600    1.000
    C683     C        0.38620    0.49470    0.46750    1.000
    C684     C        0.33980    0.50970    0.44340    1.000
    C685     C        0.27440    0.02040    0.78640    1.000
    C686     C        0.30410    0.00180    0.78520    1.000
    C687     C        0.32700    0.00760    0.76120    1.000
    C688     C        0.31120    0.97880    0.80800    1.000
    C689     C        0.35510    0.99000    0.76080    1.000
    C690     C        0.34120    0.96310    0.80550    1.000
    C691     C        0.20850    0.15260    0.82880    1.000
    C692     C        0.21780    0.18170    0.84700    1.000
    C693     C        0.21170    0.18490    0.87900    1.000
    C694     C        0.23130    0.20760    0.83150    1.000
    C695     C        0.22030    0.21350    0.89410    1.000
    C696     C        0.24030    0.23470    0.84890    1.000
    C697     C        0.12270    0.03530    0.74040    1.000
    C698     C        0.09520    0.01920    0.72440    1.000
    C699     C        0.09430    0.01610    0.69160    1.000
    C700     C        0.07070    0.00630    0.74230    1.000
    C701     C        0.04610    0.99120    0.72570    1.000
    C702     C        0.06640    0.00330    0.67810    1.000
    C703     C        0.25280    0.04760    0.96380    1.000
    C704     C        0.23410    0.04900    0.93360    1.000
    C705     C        0.21050    0.07130    0.92730    1.000
    C706     C        0.24020    0.02500    0.91050    1.000
    C707     C        0.22310    0.02720    0.88130    1.000
    C708     C        0.19600    0.07230    0.89770    1.000
    C709     C        0.21270    0.00320    0.61420    1.000
    C710     C        0.21650    0.02340    0.64260    1.000
    C711     C        0.20560    0.05430    0.64240    1.000
    C712     C        0.22540    0.01260    0.66980    1.000
    C713     C        0.20910    0.07300    0.66970    1.000
    C714     C        0.22810    0.03530    0.69670    1.000
    C715     C        0.90620    0.97560    0.61470    1.000
    C716     C        0.88830    0.98510    0.58640    1.000
    C717     C        0.90300    0.99750    0.55960    1.000
    C718     C        0.85540    0.98230    0.58400    1.000
    C719     C        0.88620    0.00530    0.53250    1.000
    C720     C        0.83980    0.99030    0.55660    1.000
    C721     C        0.71360    0.72560    0.52040    1.000
    C722     C        0.71480    0.69590    0.50180    1.000
    C723     C        0.73880    0.67300    0.50760    1.000
    C724     C        0.69200    0.68880    0.47880    1.000
    C725     C        0.73920    0.64490    0.49000    1.000
    C726     C        0.69450    0.65880    0.46310    1.000
    C727     C        0.67120    0.79150    0.65260    1.000
    C728     C        0.65300    0.78220    0.68170    1.000
    C729     C        0.62100    0.78830    0.68490    1.000
    C730     C        0.66850    0.76870    0.70760    1.000
    C731     C        0.60590    0.77970    0.71350    1.000
    C732     C        0.65110    0.75970    0.73470    1.000
    C733     C        0.75960    0.87730    0.53530    1.000
    C734     C        0.77560    0.90480    0.51920    1.000
    C735     C        0.80840    0.90570    0.51610    1.000
    C736     C        0.75770    0.92930    0.50630    1.000
    C737     C        0.77430    0.95390    0.49120    1.000
    C738     C        0.82190    0.93360    0.50330    1.000
    C739     C        0.53620    0.74720    0.54760    1.000
    C740     C        0.56640    0.76590    0.54900    1.000
    C741     C        0.57270    0.78950    0.57130    1.000
    C742     C        0.58950    0.75980    0.52500    1.000
    C743     C        0.61870    0.77690    0.52720    1.000
    C744     C        0.60230    0.80400    0.57230    1.000
    C745     C        0.88580    0.78730    0.50320    1.000
    C746     C        0.85740    0.78350    0.52340    1.000
    C747     C        0.85760    0.79440    0.55430    1.000
    C748     C        0.83020    0.77460    0.51260    1.000
    C749     C        0.83030    0.79090    0.57300    1.000
    C750     C        0.80330    0.77190    0.53530    1.000
    C751     C        0.88530    0.09380    0.47560    1.000
    C752     C        0.91360    0.11170    0.48510    1.000
    C753     C        0.94040    0.09700    0.49750    1.000
    C754     C        0.91600    0.14460    0.48230    1.000
    C755     C        0.96750    0.11380    0.50530    1.000
    C756     C        0.94340    0.16020    0.49030    1.000
    C757     C        0.28640    0.22560    0.97960    1.000
    C758     C        0.28520    0.19590    0.99820    1.000
    C759     C        0.26120    0.17300    0.99240    1.000
    C760     C        0.30800    0.18880    0.02120    1.000
    C761     C        0.26080    0.14490    0.01000    1.000
    C762     C        0.30550    0.15880    0.03690    1.000
    C763     C        0.32880    0.29150    0.84740    1.000
    C764     C        0.34700    0.28220    0.81830    1.000
    C765     C        0.37900    0.28830    0.81510    1.000
    C766     C        0.33150    0.26870    0.79240    1.000
    C767     C        0.39410    0.27970    0.78650    1.000
    C768     C        0.34890    0.25970    0.76530    1.000
    C769     C        0.24040    0.37730    0.96470    1.000
    C770     C        0.22440    0.40480    0.98080    1.000
    C771     C        0.19160    0.40570    0.98390    1.000
    C772     C        0.24230    0.42930    0.99370    1.000
    C773     C        0.22570    0.45390    0.00880    1.000
    C774     C        0.17810    0.43360    0.99670    1.000
    C775     C        0.46380    0.24720    0.95240    1.000
    C776     C        0.43360    0.26590    0.95100    1.000
    C777     C        0.42730    0.28950    0.92870    1.000
    C778     C        0.41050    0.25980    0.97500    1.000
    C779     C        0.38130    0.27690    0.97280    1.000
    C780     C        0.39770    0.30400    0.92770    1.000
    C781     C        0.11420    0.28730    0.99680    1.000
    C782     C        0.14260    0.28350    0.97660    1.000
    C783     C        0.14240    0.29440    0.94570    1.000
    C784     C        0.16980    0.27460    0.98740    1.000
    C785     C        0.16970    0.29090    0.92700    1.000
    C786     C        0.19670    0.27190    0.96470    1.000
    C787     C        0.11470    0.59380    0.02440    1.000
    C788     C        0.08640    0.61170    0.01490    1.000
    C789     C        0.05960    0.59700    0.00250    1.000
    C790     C        0.08400    0.64460    0.01770    1.000
    C791     C        0.03250    0.61380    0.99470    1.000
    C792     C        0.05660    0.66020    0.00970    1.000
    C793     C        0.21360    0.77440    0.47960    1.000
    C794     C        0.21480    0.80410    0.49820    1.000
    C795     C        0.23880    0.82700    0.49240    1.000
    C796     C        0.19200    0.81120    0.52120    1.000
    C797     C        0.23920    0.85510    0.51000    1.000
    C798     C        0.19450    0.84120    0.53690    1.000
    C799     C        0.17120    0.70850    0.34740    1.000
    C800     C        0.15300    0.71780    0.31830    1.000
    C801     C        0.12100    0.71170    0.31510    1.000
    C802     C        0.16850    0.73130    0.29240    1.000
    C803     C        0.10590    0.72030    0.28650    1.000
    C804     C        0.15110    0.74030    0.26530    1.000
    C805     C        0.25960    0.62270    0.46470    1.000
    C806     C        0.27560    0.59520    0.48080    1.000
    C807     C        0.30840    0.59430    0.48390    1.000
    C808     C        0.25770    0.57070    0.49370    1.000
    C809     C        0.27430    0.54610    0.50880    1.000
    C810     C        0.32190    0.56640    0.49670    1.000
    C811     C        0.03620    0.75280    0.45240    1.000
    C812     C        0.06640    0.73410    0.45100    1.000
    C813     C        0.07270    0.71050    0.42870    1.000
    C814     C        0.08950    0.74020    0.47500    1.000
    C815     C        0.11870    0.72310    0.47280    1.000
    C816     C        0.10230    0.69600    0.42770    1.000
    C817     C        0.38580    0.71270    0.49680    1.000
    C818     C        0.35740    0.71650    0.47660    1.000
    C819     C        0.35760    0.70560    0.44570    1.000
    C820     C        0.33020    0.72540    0.48740    1.000
    C821     C        0.33030    0.70910    0.42700    1.000
    C822     C        0.30330    0.72810    0.46470    1.000
    C823     C        0.38530    0.40620    0.52440    1.000
    C824     C        0.41360    0.38830    0.51490    1.000
    C825     C        0.44040    0.40300    0.50250    1.000
    C826     C        0.41600    0.35540    0.51770    1.000
    C827     C        0.46750    0.38620    0.49470    1.000
    C828     C        0.44340    0.33980    0.50970    1.000
    C829     C        0.78640    0.27440    0.02040    1.000
    C830     C        0.78520    0.30410    0.00180    1.000
    C831     C        0.76120    0.32700    0.00760    1.000
    C832     C        0.80800    0.31120    0.97880    1.000
    C833     C        0.76080    0.35510    0.99000    1.000
    C834     C        0.80550    0.34120    0.96310    1.000
    C835     C        0.82880    0.20850    0.15260    1.000
    C836     C        0.84700    0.21780    0.18170    1.000
    C837     C        0.87900    0.21170    0.18490    1.000
    C838     C        0.83150    0.23130    0.20760    1.000
    C839     C        0.89410    0.22030    0.21350    1.000
    C840     C        0.84890    0.24030    0.23470    1.000
    C841     C        0.74040    0.12270    0.03530    1.000
    C842     C        0.72440    0.09520    0.01920    1.000
    C843     C        0.69160    0.09430    0.01610    1.000
    C844     C        0.74230    0.07070    0.00630    1.000
    C845     C        0.72570    0.04610    0.99120    1.000
    C846     C        0.67810    0.06640    0.00330    1.000
    C847     C        0.96380    0.25280    0.04760    1.000
    C848     C        0.93360    0.23410    0.04900    1.000
    C849     C        0.92730    0.21050    0.07130    1.000
    C850     C        0.91050    0.24020    0.02500    1.000
    C851     C        0.88130    0.22310    0.02720    1.000
    C852     C        0.89770    0.19600    0.07230    1.000
    C853     C        0.61420    0.21270    0.00320    1.000
    C854     C        0.64260    0.21650    0.02340    1.000
    C855     C        0.64240    0.20560    0.05430    1.000
    C856     C        0.66980    0.22540    0.01260    1.000
    C857     C        0.66970    0.20910    0.07300    1.000
    C858     C        0.69670    0.22810    0.03530    1.000
    C859     C        0.61470    0.90620    0.97560    1.000
    C860     C        0.58640    0.88830    0.98510    1.000
    C861     C        0.55960    0.90300    0.99750    1.000
    C862     C        0.58400    0.85540    0.98230    1.000
    C863     C        0.53250    0.88620    0.00530    1.000
    C864     C        0.55660    0.83980    0.99030    1.000
    N1       N        0.46140    0.29960    0.22910    1.000
    N2       N        0.48260    0.30880    0.25160    1.000
    N3       N        0.44600    0.27310    0.23850    1.000
    N4       N        0.45750    0.26420    0.26709    1.000
    N5       N        0.53220    0.28260    0.36260    1.000
    N6       N        0.39420    0.31870    0.19320    1.000
    N7       N        0.37370    0.34350    0.19590    1.000
    N8       N        0.38100    0.29140    0.20250    1.000
    N9       N        0.35060    0.29720    0.21280    1.000
    N10      N        0.26130    0.37990    0.23450    1.000
    N11      N        0.43770    0.24900    0.16480    1.000
    N12      N        0.44670    0.22600    0.14440    1.000
    N13      N        0.45010    0.27760    0.15440    1.000
    N14      N        0.46700    0.27230    0.12780    1.000
    N15      N        0.50870    0.19460    0.04290    1.000
    N16      N        0.46530    0.49890    0.28620    1.000
    N17      N        0.43970    0.50940    0.27130    1.000
    N18      N        0.43080    0.48780    0.24920    1.000
    N19      N        0.47340    0.46970    0.27400    1.000
    N20      N        0.44960    0.37540    0.20170    1.000
    N21      N        0.53040    0.14710    0.94440    1.000
    N22      N        0.54194    0.16090    0.91780    1.000
    N23      N        0.52000    0.11760    0.93780    1.000
    N24      N        0.53840    0.14050    0.89337    1.000
    N25      N        0.49840    0.02950    0.85470    1.000
    N26      N        0.51110    0.06750    0.19840    1.000
    N27      N        0.53570    0.08170    0.21210    1.000
    N28      N        0.48550    0.08730    0.19840    1.000
    N29      N        0.52770    0.11160    0.22100    1.000
    N30      N        0.43650    0.19700    0.21930    1.000
    N31      N        0.03860    0.70040    0.72910    1.000
    N32      N        0.01740    0.69120    0.75160    1.000
    N33      N        0.05400    0.72690    0.73850    1.000
    N34      N        0.04250    0.73580    0.76709    1.000
    N35      N        0.96780    0.71740    0.86260    1.000
    N36      N        0.10580    0.68130    0.69320    1.000
    N37      N        0.12630    0.65650    0.69590    1.000
    N38      N        0.11900    0.70860    0.70250    1.000
    N39      N        0.14940    0.70280    0.71280    1.000
    N40      N        0.23870    0.62010    0.73450    1.000
    N41      N        0.06230    0.75100    0.66480    1.000
    N42      N        0.05330    0.77400    0.64440    1.000
    N43      N        0.04990    0.72240    0.65440    1.000
    N44      N        0.03300    0.72770    0.62780    1.000
    N45      N        0.99130    0.80540    0.54290    1.000
    N46      N        0.03470    0.50110    0.78620    1.000
    N47      N        0.06030    0.49060    0.77130    1.000
    N48      N        0.06920    0.51220    0.74920    1.000
    N49      N        0.02660    0.53030    0.77400    1.000
    N50      N        0.05040    0.62460    0.70170    1.000
    N51      N        0.96960    0.85290    0.44440    1.000
    N52      N        0.95806    0.83910    0.41780    1.000
    N53      N        0.98000    0.88240    0.43780    1.000
    N54      N        0.96160    0.85950    0.39337    1.000
    N55      N        0.00160    0.97050    0.35470    1.000
    N56      N        0.98890    0.93250    0.69840    1.000
    N57      N        0.96430    0.91830    0.71210    1.000
    N58      N        0.01450    0.91270    0.69840    1.000
    N59      N        0.97230    0.88840    0.72100    1.000
    N60      N        0.06350    0.80300    0.71930    1.000
    N61      N        0.53860    0.79960    0.27090    1.000
    N62      N        0.51740    0.80880    0.24840    1.000
    N63      N        0.55400    0.77310    0.26150    1.000
    N64      N        0.54250    0.76420    0.23291    1.000
    N65      N        0.46780    0.78260    0.13740    1.000
    N66      N        0.60580    0.81870    0.30680    1.000
    N67      N        0.62630    0.84350    0.30410    1.000
    N68      N        0.61900    0.79140    0.29750    1.000
    N69      N        0.64940    0.79720    0.28720    1.000
    N70      N        0.73870    0.87990    0.26550    1.000
    N71      N        0.56230    0.74900    0.33520    1.000
    N72      N        0.55330    0.72600    0.35560    1.000
    N73      N        0.54990    0.77760    0.34560    1.000
    N74      N        0.53300    0.77230    0.37220    1.000
    N75      N        0.49130    0.69460    0.45710    1.000
    N76      N        0.53470    0.99890    0.21380    1.000
    N77      N        0.56030    0.00940    0.22870    1.000
    N78      N        0.56920    0.98780    0.25080    1.000
    N79      N        0.52660    0.96970    0.22600    1.000
    N80      N        0.55040    0.87540    0.29830    1.000
    N81      N        0.46960    0.64710    0.55560    1.000
    N82      N        0.45806    0.66090    0.58220    1.000
    N83      N        0.48000    0.61760    0.56220    1.000
    N84      N        0.46160    0.64050    0.60663    1.000
    N85      N        0.50160    0.52950    0.64530    1.000
    N86      N        0.48890    0.56750    0.30160    1.000
    N87      N        0.46430    0.58170    0.28790    1.000
    N88      N        0.51450    0.58730    0.30160    1.000
    N89      N        0.47230    0.61160    0.27900    1.000
    N90      N        0.56350    0.69700    0.28070    1.000
    N91      N        0.96140    0.20040    0.77090    1.000
    N92      N        0.98260    0.19120    0.74840    1.000
    N93      N        0.94600    0.22690    0.76150    1.000
    N94      N        0.95750    0.23580    0.73291    1.000
    N95      N        0.03220    0.21740    0.63740    1.000
    N96      N        0.89420    0.18130    0.80680    1.000
    N97      N        0.87370    0.15650    0.80410    1.000
    N98      N        0.88100    0.20860    0.79750    1.000
    N99      N        0.85060    0.20280    0.78720    1.000
    N100     N        0.76130    0.12010    0.76550    1.000
    N101     N        0.93770    0.25100    0.83520    1.000
    N102     N        0.94670    0.27400    0.85560    1.000
    N103     N        0.95010    0.22240    0.84560    1.000
    N104     N        0.96700    0.22770    0.87220    1.000
    N105     N        0.00870    0.30540    0.95710    1.000
    N106     N        0.96530    0.00110    0.71380    1.000
    N107     N        0.93970    0.99060    0.72870    1.000
    N108     N        0.93080    0.01220    0.75080    1.000
    N109     N        0.97340    0.03030    0.72600    1.000
    N110     N        0.94960    0.12460    0.79830    1.000
    N111     N        0.03040    0.35290    0.05560    1.000
    N112     N        0.04194    0.33910    0.08220    1.000
    N113     N        0.02000    0.38240    0.06220    1.000
    N114     N        0.03840    0.35950    0.10663    1.000
    N115     N        0.99840    0.47050    0.14530    1.000
    N116     N        0.01110    0.43250    0.80160    1.000
    N117     N        0.03570    0.41830    0.78790    1.000
    N118     N        0.98550    0.41270    0.80160    1.000
    N119     N        0.02770    0.38840    0.77900    1.000
    N120     N        0.93650    0.30300    0.78070    1.000
    N121     N        0.22910    0.46140    0.29960    1.000
    N122     N        0.25160    0.48260    0.30880    1.000
    N123     N        0.23850    0.44600    0.27310    1.000
    N124     N        0.26709    0.45750    0.26420    1.000
    N125     N        0.36260    0.53220    0.28260    1.000
    N126     N        0.19320    0.39420    0.31870    1.000
    N127     N        0.19590    0.37370    0.34350    1.000
    N128     N        0.20250    0.38100    0.29140    1.000
    N129     N        0.21280    0.35060    0.29720    1.000
    N130     N        0.23450    0.26130    0.37990    1.000
    N131     N        0.16480    0.43770    0.24900    1.000
    N132     N        0.14440    0.44670    0.22600    1.000
    N133     N        0.15440    0.45010    0.27760    1.000
    N134     N        0.12780    0.46700    0.27230    1.000
    N135     N        0.04290    0.50870    0.19460    1.000
    N136     N        0.28620    0.46530    0.49890    1.000
    N137     N        0.27130    0.43970    0.50940    1.000
    N138     N        0.24920    0.43080    0.48780    1.000
    N139     N        0.27400    0.47340    0.46970    1.000
    N140     N        0.20170    0.44960    0.37540    1.000
    N141     N        0.94440    0.53040    0.14710    1.000
    N142     N        0.91780    0.54194    0.16090    1.000
    N143     N        0.93780    0.52000    0.11760    1.000
    N144     N        0.89337    0.53840    0.14050    1.000
    N145     N        0.85470    0.49840    0.02950    1.000
    N146     N        0.19840    0.51110    0.06750    1.000
    N147     N        0.21210    0.53570    0.08170    1.000
    N148     N        0.19840    0.48550    0.08730    1.000
    N149     N        0.22100    0.52770    0.11160    1.000
    N150     N        0.21930    0.43650    0.19700    1.000
    N151     N        0.72910    0.03860    0.70040    1.000
    N152     N        0.75160    0.01740    0.69120    1.000
    N153     N        0.73850    0.05400    0.72690    1.000
    N154     N        0.76709    0.04250    0.73580    1.000
    N155     N        0.86260    0.96780    0.71740    1.000
    N156     N        0.69320    0.10580    0.68130    1.000
    N157     N        0.69590    0.12630    0.65650    1.000
    N158     N        0.70250    0.11900    0.70860    1.000
    N159     N        0.71280    0.14940    0.70280    1.000
    N160     N        0.73450    0.23870    0.62010    1.000
    N161     N        0.66480    0.06230    0.75100    1.000
    N162     N        0.64440    0.05330    0.77400    1.000
    N163     N        0.65440    0.04990    0.72240    1.000
    N164     N        0.62780    0.03300    0.72770    1.000
    N165     N        0.54290    0.99130    0.80540    1.000
    N166     N        0.78620    0.03470    0.50110    1.000
    N167     N        0.77130    0.06030    0.49060    1.000
    N168     N        0.74920    0.06920    0.51220    1.000
    N169     N        0.77400    0.02660    0.53030    1.000
    N170     N        0.70170    0.05040    0.62460    1.000
    N171     N        0.44440    0.96960    0.85290    1.000
    N172     N        0.41780    0.95806    0.83910    1.000
    N173     N        0.43780    0.98000    0.88240    1.000
    N174     N        0.39337    0.96160    0.85950    1.000
    N175     N        0.35470    0.00160    0.97050    1.000
    N176     N        0.69840    0.98890    0.93250    1.000
    N177     N        0.71210    0.96430    0.91830    1.000
    N178     N        0.69840    0.01450    0.91270    1.000
    N179     N        0.72100    0.97230    0.88840    1.000
    N180     N        0.71930    0.06350    0.80300    1.000
    N181     N        0.27090    0.53860    0.79960    1.000
    N182     N        0.24840    0.51740    0.80880    1.000
    N183     N        0.26150    0.55400    0.77310    1.000
    N184     N        0.23291    0.54250    0.76420    1.000
    N185     N        0.13740    0.46780    0.78260    1.000
    N186     N        0.30680    0.60580    0.81870    1.000
    N187     N        0.30410    0.62630    0.84350    1.000
    N188     N        0.29750    0.61900    0.79140    1.000
    N189     N        0.28720    0.64940    0.79720    1.000
    N190     N        0.26550    0.73870    0.87990    1.000
    N191     N        0.33520    0.56230    0.74900    1.000
    N192     N        0.35560    0.55330    0.72600    1.000
    N193     N        0.34560    0.54990    0.77760    1.000
    N194     N        0.37220    0.53300    0.77230    1.000
    N195     N        0.45710    0.49130    0.69460    1.000
    N196     N        0.21380    0.53470    0.99890    1.000
    N197     N        0.22870    0.56030    0.00940    1.000
    N198     N        0.25080    0.56920    0.98780    1.000
    N199     N        0.22600    0.52660    0.96970    1.000
    N200     N        0.29830    0.55040    0.87540    1.000
    N201     N        0.55560    0.46960    0.64710    1.000
    N202     N        0.58220    0.45806    0.66090    1.000
    N203     N        0.56220    0.48000    0.61760    1.000
    N204     N        0.60663    0.46160    0.64050    1.000
    N205     N        0.64530    0.50160    0.52950    1.000
    N206     N        0.30160    0.48890    0.56750    1.000
    N207     N        0.28790    0.46430    0.58170    1.000
    N208     N        0.30160    0.51450    0.58730    1.000
    N209     N        0.27900    0.47230    0.61160    1.000
    N210     N        0.28070    0.56350    0.69700    1.000
    N211     N        0.77090    0.96140    0.20040    1.000
    N212     N        0.74840    0.98260    0.19120    1.000
    N213     N        0.76150    0.94600    0.22690    1.000
    N214     N        0.73291    0.95750    0.23580    1.000
    N215     N        0.63740    0.03220    0.21740    1.000
    N216     N        0.80680    0.89420    0.18130    1.000
    N217     N        0.80410    0.87370    0.15650    1.000
    N218     N        0.79750    0.88100    0.20860    1.000
    N219     N        0.78720    0.85060    0.20280    1.000
    N220     N        0.76550    0.76130    0.12010    1.000
    N221     N        0.83520    0.93770    0.25100    1.000
    N222     N        0.85560    0.94670    0.27400    1.000
    N223     N        0.84560    0.95010    0.22240    1.000
    N224     N        0.87220    0.96700    0.22770    1.000
    N225     N        0.95710    0.00870    0.30540    1.000
    N226     N        0.71380    0.96530    0.00110    1.000
    N227     N        0.72870    0.93970    0.99060    1.000
    N228     N        0.75080    0.93080    0.01220    1.000
    N229     N        0.72600    0.97340    0.03030    1.000
    N230     N        0.79830    0.94960    0.12460    1.000
    N231     N        0.05560    0.03040    0.35290    1.000
    N232     N        0.08220    0.04194    0.33910    1.000
    N233     N        0.06220    0.02000    0.38240    1.000
    N234     N        0.10663    0.03840    0.35950    1.000
    N235     N        0.14530    0.99840    0.47050    1.000
    N236     N        0.80160    0.01110    0.43250    1.000
    N237     N        0.78790    0.03570    0.41830    1.000
    N238     N        0.80160    0.98550    0.41270    1.000
    N239     N        0.77900    0.02770    0.38840    1.000
    N240     N        0.78070    0.93650    0.30300    1.000
    N241     N        0.29960    0.22910    0.46140    1.000
    N242     N        0.30880    0.25160    0.48260    1.000
    N243     N        0.27310    0.23850    0.44600    1.000
    N244     N        0.26420    0.26709    0.45750    1.000
    N245     N        0.28260    0.36260    0.53220    1.000
    N246     N        0.31870    0.19320    0.39420    1.000
    N247     N        0.34350    0.19590    0.37370    1.000
    N248     N        0.29140    0.20250    0.38100    1.000
    N249     N        0.29720    0.21280    0.35060    1.000
    N250     N        0.37990    0.23450    0.26130    1.000
    N251     N        0.24900    0.16480    0.43770    1.000
    N252     N        0.22600    0.14440    0.44670    1.000
    N253     N        0.27760    0.15440    0.45010    1.000
    N254     N        0.27230    0.12780    0.46700    1.000
    N255     N        0.19460    0.04290    0.50870    1.000
    N256     N        0.49890    0.28620    0.46530    1.000
    N257     N        0.50940    0.27130    0.43970    1.000
    N258     N        0.48780    0.24920    0.43080    1.000
    N259     N        0.46970    0.27400    0.47340    1.000
    N260     N        0.37540    0.20170    0.44960    1.000
    N261     N        0.14710    0.94440    0.53040    1.000
    N262     N        0.16090    0.91780    0.54194    1.000
    N263     N        0.11760    0.93780    0.52000    1.000
    N264     N        0.14050    0.89337    0.53840    1.000
    N265     N        0.02950    0.85470    0.49840    1.000
    N266     N        0.06750    0.19840    0.51110    1.000
    N267     N        0.08170    0.21210    0.53570    1.000
    N268     N        0.08730    0.19840    0.48550    1.000
    N269     N        0.11160    0.22100    0.52770    1.000
    N270     N        0.19700    0.21930    0.43650    1.000
    N271     N        0.70040    0.72910    0.03860    1.000
    N272     N        0.69120    0.75160    0.01740    1.000
    N273     N        0.72690    0.73850    0.05400    1.000
    N274     N        0.73580    0.76709    0.04250    1.000
    N275     N        0.71740    0.86260    0.96780    1.000
    N276     N        0.68130    0.69320    0.10580    1.000
    N277     N        0.65650    0.69590    0.12630    1.000
    N278     N        0.70860    0.70250    0.11900    1.000
    N279     N        0.70280    0.71280    0.14940    1.000
    N280     N        0.62010    0.73450    0.23870    1.000
    N281     N        0.75100    0.66480    0.06230    1.000
    N282     N        0.77400    0.64440    0.05330    1.000
    N283     N        0.72240    0.65440    0.04990    1.000
    N284     N        0.72770    0.62780    0.03300    1.000
    N285     N        0.80540    0.54290    0.99130    1.000
    N286     N        0.50110    0.78620    0.03470    1.000
    N287     N        0.49060    0.77130    0.06030    1.000
    N288     N        0.51220    0.74920    0.06920    1.000
    N289     N        0.53030    0.77400    0.02660    1.000
    N290     N        0.62460    0.70170    0.05040    1.000
    N291     N        0.85290    0.44440    0.96960    1.000
    N292     N        0.83910    0.41780    0.95806    1.000
    N293     N        0.88240    0.43780    0.98000    1.000
    N294     N        0.85950    0.39337    0.96160    1.000
    N295     N        0.97050    0.35470    0.00160    1.000
    N296     N        0.93250    0.69840    0.98890    1.000
    N297     N        0.91830    0.71210    0.96430    1.000
    N298     N        0.91270    0.69840    0.01450    1.000
    N299     N        0.88840    0.72100    0.97230    1.000
    N300     N        0.80300    0.71930    0.06350    1.000
    N301     N        0.79960    0.27090    0.53860    1.000
    N302     N        0.80880    0.24840    0.51740    1.000
    N303     N        0.77310    0.26150    0.55400    1.000
    N304     N        0.76420    0.23291    0.54250    1.000
    N305     N        0.78260    0.13740    0.46780    1.000
    N306     N        0.81870    0.30680    0.60580    1.000
    N307     N        0.84350    0.30410    0.62630    1.000
    N308     N        0.79140    0.29750    0.61900    1.000
    N309     N        0.79720    0.28720    0.64940    1.000
    N310     N        0.87990    0.26550    0.73870    1.000
    N311     N        0.74900    0.33520    0.56230    1.000
    N312     N        0.72600    0.35560    0.55330    1.000
    N313     N        0.77760    0.34560    0.54990    1.000
    N314     N        0.77230    0.37220    0.53300    1.000
    N315     N        0.69460    0.45710    0.49130    1.000
    N316     N        0.99890    0.21380    0.53470    1.000
    N317     N        0.00940    0.22870    0.56030    1.000
    N318     N        0.98780    0.25080    0.56920    1.000
    N319     N        0.96970    0.22600    0.52660    1.000
    N320     N        0.87540    0.29830    0.55040    1.000
    N321     N        0.64710    0.55560    0.46960    1.000
    N322     N        0.66090    0.58220    0.45806    1.000
    N323     N        0.61760    0.56220    0.48000    1.000
    N324     N        0.64050    0.60663    0.46160    1.000
    N325     N        0.52950    0.64530    0.50160    1.000
    N326     N        0.56750    0.30160    0.48890    1.000
    N327     N        0.58170    0.28790    0.46430    1.000
    N328     N        0.58730    0.30160    0.51450    1.000
    N329     N        0.61160    0.27900    0.47230    1.000
    N330     N        0.69700    0.28070    0.56350    1.000
    N331     N        0.20040    0.77090    0.96140    1.000
    N332     N        0.19120    0.74840    0.98260    1.000
    N333     N        0.22690    0.76150    0.94600    1.000
    N334     N        0.23580    0.73291    0.95750    1.000
    N335     N        0.21740    0.63740    0.03220    1.000
    N336     N        0.18130    0.80680    0.89420    1.000
    N337     N        0.15650    0.80410    0.87370    1.000
    N338     N        0.20860    0.79750    0.88100    1.000
    N339     N        0.20280    0.78720    0.85060    1.000
    N340     N        0.12010    0.76550    0.76130    1.000
    N341     N        0.25100    0.83520    0.93770    1.000
    N342     N        0.27400    0.85560    0.94670    1.000
    N343     N        0.22240    0.84560    0.95010    1.000
    N344     N        0.22770    0.87220    0.96700    1.000
    N345     N        0.30540    0.95710    0.00870    1.000
    N346     N        0.00110    0.71380    0.96530    1.000
    N347     N        0.99060    0.72870    0.93970    1.000
    N348     N        0.01220    0.75080    0.93080    1.000
    N349     N        0.03030    0.72600    0.97340    1.000
    N350     N        0.12460    0.79830    0.94960    1.000
    N351     N        0.35290    0.05560    0.03040    1.000
    N352     N        0.33910    0.08220    0.04194    1.000
    N353     N        0.38240    0.06220    0.02000    1.000
    N354     N        0.35950    0.10663    0.03840    1.000
    N355     N        0.47050    0.14530    0.99840    1.000
    N356     N        0.43250    0.80160    0.01110    1.000
    N357     N        0.41830    0.78790    0.03570    1.000
    N358     N        0.41270    0.80160    0.98550    1.000
    N359     N        0.38840    0.77900    0.02770    1.000
    N360     N        0.30300    0.78070    0.93650    1.000
    N361     N        0.53860    0.70040    0.77090    1.000
    N362     N        0.51740    0.69120    0.74840    1.000
    N363     N        0.55400    0.72690    0.76150    1.000
    N364     N        0.54250    0.73580    0.73291    1.000
    N365     N        0.46780    0.71740    0.63740    1.000
    N366     N        0.60580    0.68130    0.80680    1.000
    N367     N        0.62630    0.65650    0.80410    1.000
    N368     N        0.61900    0.70860    0.79750    1.000
    N369     N        0.64940    0.70280    0.78720    1.000
    N370     N        0.73870    0.62010    0.76550    1.000
    N371     N        0.56230    0.75100    0.83520    1.000
    N372     N        0.55330    0.77400    0.85560    1.000
    N373     N        0.54990    0.72240    0.84560    1.000
    N374     N        0.53300    0.72770    0.87220    1.000
    N375     N        0.49130    0.80540    0.95710    1.000
    N376     N        0.53470    0.50110    0.71380    1.000
    N377     N        0.56030    0.49060    0.72870    1.000
    N378     N        0.56920    0.51220    0.75080    1.000
    N379     N        0.52660    0.53030    0.72600    1.000
    N380     N        0.55040    0.62460    0.79830    1.000
    N381     N        0.46960    0.85290    0.05560    1.000
    N382     N        0.45806    0.83910    0.08220    1.000
    N383     N        0.48000    0.88240    0.06220    1.000
    N384     N        0.46160    0.85950    0.10663    1.000
    N385     N        0.50160    0.97050    0.14530    1.000
    N386     N        0.48890    0.93250    0.80160    1.000
    N387     N        0.46430    0.91830    0.78790    1.000
    N388     N        0.51450    0.91270    0.80160    1.000
    N389     N        0.47230    0.88840    0.77900    1.000
    N390     N        0.56350    0.80300    0.78070    1.000
    N391     N        0.96140    0.29960    0.27090    1.000
    N392     N        0.98260    0.30880    0.24840    1.000
    N393     N        0.94600    0.27310    0.26150    1.000
    N394     N        0.95750    0.26420    0.23291    1.000
    N395     N        0.03220    0.28260    0.13740    1.000
    N396     N        0.89420    0.31870    0.30680    1.000
    N397     N        0.87370    0.34350    0.30410    1.000
    N398     N        0.88100    0.29140    0.29750    1.000
    N399     N        0.85060    0.29720    0.28720    1.000
    N400     N        0.76130    0.37990    0.26550    1.000
    N401     N        0.93770    0.24900    0.33520    1.000
    N402     N        0.94670    0.22600    0.35560    1.000
    N403     N        0.95010    0.27760    0.34560    1.000
    N404     N        0.96700    0.27230    0.37220    1.000
    N405     N        0.00870    0.19460    0.45710    1.000
    N406     N        0.96530    0.49890    0.21380    1.000
    N407     N        0.93970    0.50940    0.22870    1.000
    N408     N        0.93080    0.48780    0.25080    1.000
    N409     N        0.97340    0.46970    0.22600    1.000
    N410     N        0.94960    0.37540    0.29830    1.000
    N411     N        0.03040    0.14710    0.55560    1.000
    N412     N        0.04194    0.16090    0.58220    1.000
    N413     N        0.02000    0.11760    0.56220    1.000
    N414     N        0.03840    0.14050    0.60663    1.000
    N415     N        0.99840    0.02950    0.64530    1.000
    N416     N        0.01110    0.06750    0.30160    1.000
    N417     N        0.03570    0.08170    0.28790    1.000
    N418     N        0.98550    0.08730    0.30160    1.000
    N419     N        0.02770    0.11160    0.27900    1.000
    N420     N        0.93650    0.19700    0.28070    1.000
    N421     N        0.46140    0.20040    0.72910    1.000
    N422     N        0.48260    0.19120    0.75160    1.000
    N423     N        0.44600    0.22690    0.73850    1.000
    N424     N        0.45750    0.23580    0.76709    1.000
    N425     N        0.53220    0.21740    0.86260    1.000
    N426     N        0.39420    0.18130    0.69320    1.000
    N427     N        0.37370    0.15650    0.69590    1.000
    N428     N        0.38100    0.20860    0.70250    1.000
    N429     N        0.35060    0.20280    0.71280    1.000
    N430     N        0.26130    0.12010    0.73450    1.000
    N431     N        0.43770    0.25100    0.66480    1.000
    N432     N        0.44670    0.27400    0.64440    1.000
    N433     N        0.45010    0.22240    0.65440    1.000
    N434     N        0.46700    0.22770    0.62780    1.000
    N435     N        0.50870    0.30540    0.54290    1.000
    N436     N        0.46530    0.00110    0.78620    1.000
    N437     N        0.43970    0.99060    0.77130    1.000
    N438     N        0.43080    0.01220    0.74920    1.000
    N439     N        0.47340    0.03030    0.77400    1.000
    N440     N        0.44960    0.12460    0.70170    1.000
    N441     N        0.53040    0.35290    0.44440    1.000
    N442     N        0.54194    0.33910    0.41780    1.000
    N443     N        0.52000    0.38240    0.43780    1.000
    N444     N        0.53840    0.35950    0.39337    1.000
    N445     N        0.49840    0.47050    0.35470    1.000
    N446     N        0.51110    0.43250    0.69840    1.000
    N447     N        0.53570    0.41830    0.71210    1.000
    N448     N        0.48550    0.41270    0.69840    1.000
    N449     N        0.52770    0.38840    0.72100    1.000
    N450     N        0.43650    0.30300    0.71930    1.000
    N451     N        0.03860    0.79960    0.22910    1.000
    N452     N        0.01740    0.80880    0.25160    1.000
    N453     N        0.05400    0.77310    0.23850    1.000
    N454     N        0.04250    0.76420    0.26709    1.000
    N455     N        0.96780    0.78260    0.36260    1.000
    N456     N        0.10580    0.81870    0.19320    1.000
    N457     N        0.12630    0.84350    0.19590    1.000
    N458     N        0.11900    0.79140    0.20250    1.000
    N459     N        0.14940    0.79720    0.21280    1.000
    N460     N        0.23870    0.87990    0.23450    1.000
    N461     N        0.06230    0.74900    0.16480    1.000
    N462     N        0.05330    0.72600    0.14440    1.000
    N463     N        0.04990    0.77760    0.15440    1.000
    N464     N        0.03300    0.77230    0.12780    1.000
    N465     N        0.99130    0.69460    0.04290    1.000
    N466     N        0.03470    0.99890    0.28620    1.000
    N467     N        0.06030    0.00940    0.27130    1.000
    N468     N        0.06920    0.98780    0.24920    1.000
    N469     N        0.02660    0.96970    0.27400    1.000
    N470     N        0.05040    0.87540    0.20170    1.000
    N471     N        0.96960    0.64710    0.94440    1.000
    N472     N        0.95806    0.66090    0.91780    1.000
    N473     N        0.98000    0.61760    0.93780    1.000
    N474     N        0.96160    0.64050    0.89337    1.000
    N475     N        0.00160    0.52950    0.85470    1.000
    N476     N        0.98890    0.56750    0.19840    1.000
    N477     N        0.96430    0.58170    0.21210    1.000
    N478     N        0.01450    0.58730    0.19840    1.000
    N479     N        0.97230    0.61160    0.22100    1.000
    N480     N        0.06350    0.69700    0.21930    1.000
    N481     N        0.77090    0.53860    0.70040    1.000
    N482     N        0.74840    0.51740    0.69120    1.000
    N483     N        0.76150    0.55400    0.72690    1.000
    N484     N        0.73291    0.54250    0.73580    1.000
    N485     N        0.63740    0.46780    0.71740    1.000
    N486     N        0.80680    0.60580    0.68130    1.000
    N487     N        0.80410    0.62630    0.65650    1.000
    N488     N        0.79750    0.61900    0.70860    1.000
    N489     N        0.78720    0.64940    0.70280    1.000
    N490     N        0.76550    0.73870    0.62010    1.000
    N491     N        0.83520    0.56230    0.75100    1.000
    N492     N        0.85560    0.55330    0.77400    1.000
    N493     N        0.84560    0.54990    0.72240    1.000
    N494     N        0.87220    0.53300    0.72770    1.000
    N495     N        0.95710    0.49130    0.80540    1.000
    N496     N        0.71380    0.53470    0.50110    1.000
    N497     N        0.72870    0.56030    0.49060    1.000
    N498     N        0.75080    0.56920    0.51220    1.000
    N499     N        0.72600    0.52660    0.53030    1.000
    N500     N        0.79830    0.55040    0.62460    1.000
    N501     N        0.05560    0.46960    0.85290    1.000
    N502     N        0.08220    0.45806    0.83910    1.000
    N503     N        0.06220    0.48000    0.88240    1.000
    N504     N        0.10663    0.46160    0.85950    1.000
    N505     N        0.14530    0.50160    0.97050    1.000
    N506     N        0.80160    0.48890    0.93250    1.000
    N507     N        0.78790    0.46430    0.91830    1.000
    N508     N        0.80160    0.51450    0.91270    1.000
    N509     N        0.77900    0.47230    0.88840    1.000
    N510     N        0.78070    0.56350    0.80300    1.000
    N511     N        0.27090    0.96140    0.29960    1.000
    N512     N        0.24840    0.98260    0.30880    1.000
    N513     N        0.26150    0.94600    0.27310    1.000
    N514     N        0.23291    0.95750    0.26420    1.000
    N515     N        0.13740    0.03220    0.28260    1.000
    N516     N        0.30680    0.89420    0.31870    1.000
    N517     N        0.30410    0.87370    0.34350    1.000
    N518     N        0.29750    0.88100    0.29140    1.000
    N519     N        0.28720    0.85060    0.29720    1.000
    N520     N        0.26550    0.76130    0.37990    1.000
    N521     N        0.33520    0.93770    0.24900    1.000
    N522     N        0.35560    0.94670    0.22600    1.000
    N523     N        0.34560    0.95010    0.27760    1.000
    N524     N        0.37220    0.96700    0.27230    1.000
    N525     N        0.45710    0.00870    0.19460    1.000
    N526     N        0.21380    0.96530    0.49890    1.000
    N527     N        0.22870    0.93970    0.50940    1.000
    N528     N        0.25080    0.93080    0.48780    1.000
    N529     N        0.22600    0.97340    0.46970    1.000
    N530     N        0.29830    0.94960    0.37540    1.000
    N531     N        0.55560    0.03040    0.14710    1.000
    N532     N        0.58220    0.04194    0.16090    1.000
    N533     N        0.56220    0.02000    0.11760    1.000
    N534     N        0.60663    0.03840    0.14050    1.000
    N535     N        0.64530    0.99840    0.02950    1.000
    N536     N        0.30160    0.01110    0.06750    1.000
    N537     N        0.28790    0.03570    0.08170    1.000
    N538     N        0.30160    0.98550    0.08730    1.000
    N539     N        0.27900    0.02770    0.11160    1.000
    N540     N        0.28070    0.93650    0.19700    1.000
    N541     N        0.72910    0.46140    0.20040    1.000
    N542     N        0.75160    0.48260    0.19120    1.000
    N543     N        0.73850    0.44600    0.22690    1.000
    N544     N        0.76709    0.45750    0.23580    1.000
    N545     N        0.86260    0.53220    0.21740    1.000
    N546     N        0.69320    0.39420    0.18130    1.000
    N547     N        0.69590    0.37370    0.15650    1.000
    N548     N        0.70250    0.38100    0.20860    1.000
    N549     N        0.71280    0.35060    0.20280    1.000
    N550     N        0.73450    0.26130    0.12010    1.000
    N551     N        0.66480    0.43770    0.25100    1.000
    N552     N        0.64440    0.44670    0.27400    1.000
    N553     N        0.65440    0.45010    0.22240    1.000
    N554     N        0.62780    0.46700    0.22770    1.000
    N555     N        0.54290    0.50870    0.30540    1.000
    N556     N        0.78620    0.46530    0.00110    1.000
    N557     N        0.77130    0.43970    0.99060    1.000
    N558     N        0.74920    0.43080    0.01220    1.000
    N559     N        0.77400    0.47340    0.03030    1.000
    N560     N        0.70170    0.44960    0.12460    1.000
    N561     N        0.44440    0.53040    0.35290    1.000
    N562     N        0.41780    0.54194    0.33910    1.000
    N563     N        0.43780    0.52000    0.38240    1.000
    N564     N        0.39337    0.53840    0.35950    1.000
    N565     N        0.35470    0.49840    0.47050    1.000
    N566     N        0.69840    0.51110    0.43250    1.000
    N567     N        0.71210    0.53570    0.41830    1.000
    N568     N        0.69840    0.48550    0.41270    1.000
    N569     N        0.72100    0.52770    0.38840    1.000
    N570     N        0.71930    0.43650    0.30300    1.000
    N571     N        0.22910    0.03860    0.79960    1.000
    N572     N        0.25160    0.01740    0.80880    1.000
    N573     N        0.23850    0.05400    0.77310    1.000
    N574     N        0.26709    0.04250    0.76420    1.000
    N575     N        0.36260    0.96780    0.78260    1.000
    N576     N        0.19320    0.10580    0.81870    1.000
    N577     N        0.19590    0.12630    0.84350    1.000
    N578     N        0.20250    0.11900    0.79140    1.000
    N579     N        0.21280    0.14940    0.79720    1.000
    N580     N        0.23450    0.23870    0.87990    1.000
    N581     N        0.16480    0.06230    0.74900    1.000
    N582     N        0.14440    0.05330    0.72600    1.000
    N583     N        0.15440    0.04990    0.77760    1.000
    N584     N        0.12780    0.03300    0.77230    1.000
    N585     N        0.04290    0.99130    0.69460    1.000
    N586     N        0.28620    0.03470    0.99890    1.000
    N587     N        0.27130    0.06030    0.00940    1.000
    N588     N        0.24920    0.06920    0.98780    1.000
    N589     N        0.27400    0.02660    0.96970    1.000
    N590     N        0.20170    0.05040    0.87540    1.000
    N591     N        0.94440    0.96960    0.64710    1.000
    N592     N        0.91780    0.95806    0.66090    1.000
    N593     N        0.93780    0.98000    0.61760    1.000
    N594     N        0.89337    0.96160    0.64050    1.000
    N595     N        0.85470    0.00160    0.52950    1.000
    N596     N        0.19840    0.98890    0.56750    1.000
    N597     N        0.21210    0.96430    0.58170    1.000
    N598     N        0.19840    0.01450    0.58730    1.000
    N599     N        0.22100    0.97230    0.61160    1.000
    N600     N        0.21930    0.06350    0.69700    1.000
    N601     N        0.70040    0.77090    0.53860    1.000
    N602     N        0.69120    0.74840    0.51740    1.000
    N603     N        0.72690    0.76150    0.55400    1.000
    N604     N        0.73580    0.73291    0.54250    1.000
    N605     N        0.71740    0.63740    0.46780    1.000
    N606     N        0.68130    0.80680    0.60580    1.000
    N607     N        0.65650    0.80410    0.62630    1.000
    N608     N        0.70860    0.79750    0.61900    1.000
    N609     N        0.70280    0.78720    0.64940    1.000
    N610     N        0.62010    0.76550    0.73870    1.000
    N611     N        0.75100    0.83520    0.56230    1.000
    N612     N        0.77400    0.85560    0.55330    1.000
    N613     N        0.72240    0.84560    0.54990    1.000
    N614     N        0.72770    0.87220    0.53300    1.000
    N615     N        0.80540    0.95710    0.49130    1.000
    N616     N        0.50110    0.71380    0.53470    1.000
    N617     N        0.49060    0.72870    0.56030    1.000
    N618     N        0.51220    0.75080    0.56920    1.000
    N619     N        0.53030    0.72600    0.52660    1.000
    N620     N        0.62460    0.79830    0.55040    1.000
    N621     N        0.85290    0.05560    0.46960    1.000
    N622     N        0.83910    0.08220    0.45806    1.000
    N623     N        0.88240    0.06220    0.48000    1.000
    N624     N        0.85950    0.10663    0.46160    1.000
    N625     N        0.97050    0.14530    0.50160    1.000
    N626     N        0.93250    0.80160    0.48890    1.000
    N627     N        0.91830    0.78790    0.46430    1.000
    N628     N        0.91270    0.80160    0.51450    1.000
    N629     N        0.88840    0.77900    0.47230    1.000
    N630     N        0.80300    0.78070    0.56350    1.000
    N631     N        0.29960    0.27090    0.96140    1.000
    N632     N        0.30880    0.24840    0.98260    1.000
    N633     N        0.27310    0.26150    0.94600    1.000
    N634     N        0.26420    0.23291    0.95750    1.000
    N635     N        0.28260    0.13740    0.03220    1.000
    N636     N        0.31870    0.30680    0.89420    1.000
    N637     N        0.34350    0.30410    0.87370    1.000
    N638     N        0.29140    0.29750    0.88100    1.000
    N639     N        0.29720    0.28720    0.85060    1.000
    N640     N        0.37990    0.26550    0.76130    1.000
    N641     N        0.24900    0.33520    0.93770    1.000
    N642     N        0.22600    0.35560    0.94670    1.000
    N643     N        0.27760    0.34560    0.95010    1.000
    N644     N        0.27230    0.37220    0.96700    1.000
    N645     N        0.19460    0.45710    0.00870    1.000
    N646     N        0.49890    0.21380    0.96530    1.000
    N647     N        0.50940    0.22870    0.93970    1.000
    N648     N        0.48780    0.25080    0.93080    1.000
    N649     N        0.46970    0.22600    0.97340    1.000
    N650     N        0.37540    0.29830    0.94960    1.000
    N651     N        0.14710    0.55560    0.03040    1.000
    N652     N        0.16090    0.58220    0.04194    1.000
    N653     N        0.11760    0.56220    0.02000    1.000
    N654     N        0.14050    0.60663    0.03840    1.000
    N655     N        0.02950    0.64530    0.99840    1.000
    N656     N        0.06750    0.30160    0.01110    1.000
    N657     N        0.08170    0.28790    0.03570    1.000
    N658     N        0.08730    0.30160    0.98550    1.000
    N659     N        0.11160    0.27900    0.02770    1.000
    N660     N        0.19700    0.28070    0.93650    1.000
    N661     N        0.20040    0.72910    0.46140    1.000
    N662     N        0.19120    0.75160    0.48260    1.000
    N663     N        0.22690    0.73850    0.44600    1.000
    N664     N        0.23580    0.76709    0.45750    1.000
    N665     N        0.21740    0.86260    0.53220    1.000
    N666     N        0.18130    0.69320    0.39420    1.000
    N667     N        0.15650    0.69590    0.37370    1.000
    N668     N        0.20860    0.70250    0.38100    1.000
    N669     N        0.20280    0.71280    0.35060    1.000
    N670     N        0.12010    0.73450    0.26130    1.000
    N671     N        0.25100    0.66480    0.43770    1.000
    N672     N        0.27400    0.64440    0.44670    1.000
    N673     N        0.22240    0.65440    0.45010    1.000
    N674     N        0.22770    0.62780    0.46700    1.000
    N675     N        0.30540    0.54290    0.50870    1.000
    N676     N        0.00110    0.78620    0.46530    1.000
    N677     N        0.99060    0.77130    0.43970    1.000
    N678     N        0.01220    0.74920    0.43080    1.000
    N679     N        0.03030    0.77400    0.47340    1.000
    N680     N        0.12460    0.70170    0.44960    1.000
    N681     N        0.35290    0.44440    0.53040    1.000
    N682     N        0.33910    0.41780    0.54194    1.000
    N683     N        0.38240    0.43780    0.52000    1.000
    N684     N        0.35950    0.39337    0.53840    1.000
    N685     N        0.47050    0.35470    0.49840    1.000
    N686     N        0.43250    0.69840    0.51110    1.000
    N687     N        0.41830    0.71210    0.53570    1.000
    N688     N        0.41270    0.69840    0.48550    1.000
    N689     N        0.38840    0.72100    0.52770    1.000
    N690     N        0.30300    0.71930    0.43650    1.000
    N691     N        0.79960    0.22910    0.03860    1.000
    N692     N        0.80880    0.25160    0.01740    1.000
    N693     N        0.77310    0.23850    0.05400    1.000
    N694     N        0.76420    0.26709    0.04250    1.000
    N695     N        0.78260    0.36260    0.96780    1.000
    N696     N        0.81870    0.19320    0.10580    1.000
    N697     N        0.84350    0.19590    0.12630    1.000
    N698     N        0.79140    0.20250    0.11900    1.000
    N699     N        0.79720    0.21280    0.14940    1.000
    N700     N        0.87990    0.23450    0.23870    1.000
    N701     N        0.74900    0.16480    0.06230    1.000
    N702     N        0.72600    0.14440    0.05330    1.000
    N703     N        0.77760    0.15440    0.04990    1.000
    N704     N        0.77230    0.12780    0.03300    1.000
    N705     N        0.69460    0.04290    0.99130    1.000
    N706     N        0.99890    0.28620    0.03470    1.000
    N707     N        0.00940    0.27130    0.06030    1.000
    N708     N        0.98780    0.24920    0.06920    1.000
    N709     N        0.96970    0.27400    0.02660    1.000
    N710     N        0.87540    0.20170    0.05040    1.000
    N711     N        0.64710    0.94440    0.96960    1.000
    N712     N        0.66090    0.91780    0.95806    1.000
    N713     N        0.61760    0.93780    0.98000    1.000
    N714     N        0.64050    0.89337    0.96160    1.000
    N715     N        0.52950    0.85470    0.00160    1.000
    N716     N        0.56750    0.19840    0.98890    1.000
    N717     N        0.58170    0.21210    0.96430    1.000
    N718     N        0.58730    0.19840    0.01450    1.000
    N719     N        0.61160    0.22100    0.97230    1.000
    N720     N        0.69700    0.21930    0.06350    1.000
