data_functionalizedCrystal
_audit_creation_method	'EQeq! by Chris Wilmer'
_symmetry_space_group_name_H-M	'P1'
_symmetry_Int_Tables_number	1
_symmetry_cell_setting	triclinic
loop_
_symmetry_equiv_pos_as_xyz
  x,y,z
_cell_length_a	9.021
_cell_length_b	13.841
_cell_length_c	30.183
_cell_angle_alpha	90
_cell_angle_beta	90
_cell_angle_gamma	90
loop_
_atom_site_label
_atom_site_type_symbol
_atom_site_fract_x
_atom_site_fract_y
_atom_site_fract_z
_atom_site_charge
Mof_C 	C 	0.1333	0.6739	0.18996	0.42
Mof_C 	C 	0.192	0.6788	0.14317	-0.239
Mof_C 	C 	0.3337	0.6506	0.13248	0.204
Mof_H 	H 	0.3985	0.6325	0.155	-0.023
Mof_C 	C 	0.3822	0.6485	0.08885	-0.327
Mof_H 	H 	0.4785	0.6298	0.082	0.159
Mof_C 	C 	0.2843	0.6749	0.05567	0.337
Mof_C 	C 	0.1452	0.7061	0.06554	-0.339
Mof_H 	H 	0.0817	0.7258	0.043	0.162
Mof_C 	C 	0.0984	0.7085	0.10912	0.204
Mof_H 	H 	0.0033	0.7301	0.1158	-0.033
Mof_C 	C 	0.2888	0.5826	0.98968	0.32
Mof_C 	C 	0.291	0.5831	0.94419	-0.254
Mof_H 	H 	0.3196	0.6385	0.929	0.136
Mof_C 	C 	0.3462	0.8307	0.28236	0.024
Mof_H 	H 	0.3385	0.8391	0.2519	0.029
Mof_C 	C 	0.3958	0.8982	0.31119	-0.003
Mof_H 	H 	0.4319	0.9592	0.3042	0.035
Mof_C 	C 	0.3308	0.77	0.34622	0.117
Mof_H 	H 	0.3119	0.7272	0.3693	-0.001
Mof_C 	C 	0.4166	0.9012	0.39473	0.132
Mof_C 	C 	0.3473	0.8683	0.43191	-0.128
Mof_H 	H 	0.2757	0.8203	0.4296	0.082
Mof_C 	C 	0.382	0.9055	0.47275	-0.001
Mof_H 	H 	0.336	0.8803	0.4978	0.037
Mof_C 	C 	0.484	0.9794	0.47761	-0.01
Mof_C 	C 	0.547	0.0123	0.43987	-0.005
Mof_H 	H 	0.6156	0.0622	0.4418	0.036
Mof_C 	C 	0.5142	0.9752	0.39836	-0.13
Mof_H 	H 	0.5588	0.0008	0.3732	0.083
Mof_Fe	Fe	0.19364	0.61714	0.2852	0.869
Mof_N 	N 	0.3092	0.7489	0.30449	-0.174
Mof_N 	N 	0.3826	0.8592	0.35236	-0.146
Mof_O 	O 	0.2853	0.57742	0.85194	-0.348
Mof_O 	O 	0.2237	0.651	0.2196	-0.386
Mof_O 	O 	0.9994	0.6922	0.19619	-0.369
Mof_O 	O 	0.3301	0.6673	0.01138	-0.326
Mof_O 	O 	0.1009	0.47534	0.27182	-0.449
Mof_C 	C 	0.3667	0.3261	0.18996	0.434
Mof_C 	C 	0.308	0.3212	0.14317	-0.245
Mof_C 	C 	0.1663	0.3494	0.13248	0.206
Mof_H 	H 	0.1015	0.3675	0.155	-0.028
Mof_C 	C 	0.1178	0.3515	0.08885	-0.33
Mof_H 	H 	0.0215	0.3702	0.082	0.157
Mof_C 	C 	0.2157	0.3251	0.05567	0.338
Mof_C 	C 	0.3548	0.2939	0.06554	-0.341
Mof_H 	H 	0.4183	0.2742	0.043	0.166
Mof_C 	C 	0.4016	0.2915	0.10912	0.209
Mof_H 	H 	0.4967	0.2699	0.1158	-0.03
Mof_C 	C 	0.2112	0.4174	0.98968	0.32
Mof_C 	C 	0.209	0.4169	0.94419	-0.254
Mof_H 	H 	0.1804	0.3615	0.929	0.134
Mof_C 	C 	0.1538	0.1693	0.28236	0.024
Mof_H 	H 	0.1615	0.1609	0.2519	0.028
Mof_C 	C 	0.1042	0.1018	0.31119	-0.004
Mof_H 	H 	0.0681	0.0408	0.3042	0.032
Mof_C 	C 	0.1692	0.23	0.34622	0.116
Mof_H 	H 	0.1881	0.2728	0.3693	-0.002
Mof_C 	C 	0.0834	0.0988	0.39473	0.133
Mof_C 	C 	0.1527	0.1317	0.43191	-0.146
Mof_H 	H 	0.2243	0.1797	0.4296	0.089
Mof_C 	C 	0.118	0.0945	0.47275	0.027
Mof_H 	H 	0.164	0.1197	0.4978	0.026
Mof_C 	C 	0.016	0.0206	0.47761	-0.06
Mof_C 	C 	0.953	0.9877	0.43987	0.035
Mof_H 	H 	0.8844	0.9378	0.4418	0.023
Mof_C 	C 	0.9858	0.0248	0.39836	-0.137
Mof_H 	H 	0.9412	0.9992	0.3732	0.088
Mof_Fe	Fe	0.30636	0.38286	0.2852	0.871
Mof_N 	N 	0.1908	0.2511	0.30449	-0.174
Mof_N 	N 	0.1174	0.1408	0.35236	-0.148
Mof_O 	O 	0.2147	0.42258	0.85194	-0.349
Mof_O 	O 	0.2763	0.349	0.2196	-0.39
Mof_O 	O 	0.5006	0.3078	0.19619	-0.383
Mof_O 	O 	0.1699	0.3327	0.01138	-0.328
Mof_O 	O 	0.3991	0.52466	0.27182	-0.452
Mof_C 	C 	0.8667	0.6739	0.31004	0.45
Mof_C 	C 	0.808	0.6788	0.35683	-0.249
Mof_C 	C 	0.6663	0.6506	0.36752	0.212
Mof_H 	H 	0.6015	0.6325	0.345	-0.026
Mof_C 	C 	0.6178	0.6485	0.41115	-0.332
Mof_H 	H 	0.5215	0.6298	0.418	0.162
Mof_C 	C 	0.7157	0.6749	0.44433	0.342
Mof_C 	C 	0.8548	0.7061	0.43446	-0.344
Mof_H 	H 	0.9183	0.7258	0.457	0.169
Mof_C 	C 	0.9016	0.7085	0.39088	0.214
Mof_H 	H 	0.9967	0.7301	0.3842	-0.027
Mof_C 	C 	0.7112	0.5826	0.51032	0.322
Mof_C 	C 	0.709	0.5831	0.55581	-0.253
Mof_H 	H 	0.6804	0.6385	0.571	0.137
Mof_C 	C 	0.6538	0.8307	0.21764	0.025
Mof_H 	H 	0.6615	0.8391	0.2481	0.03
Mof_C 	C 	0.6042	0.8982	0.18881	-0.002
Mof_H 	H 	0.5681	0.9592	0.1958	0.035
Mof_C 	C 	0.6692	0.77	0.15378	0.118
Mof_H 	H 	0.6881	0.7272	0.1307	-0
Mof_C 	C 	0.5834	0.9012	0.10527	0.133
Mof_C 	C 	0.6527	0.8683	0.06809	-0.128
Mof_H 	H 	0.7243	0.8203	0.0704	0.085
Mof_C 	C 	0.618	0.9055	0.02725	-0.001
Mof_H 	H 	0.664	0.8803	0.0022	0.038
Mof_C 	C 	0.516	0.9794	0.02239	-0.01
Mof_C 	C 	0.453	0.0123	0.06013	-0.006
Mof_H 	H 	0.3844	0.0622	0.0582	0.036
Mof_C 	C 	0.4858	0.9752	0.10164	-0.13
Mof_H 	H 	0.4412	0.0008	0.1268	0.082
Mof_Fe	Fe	0.80636	0.61714	0.2148	0.874
Mof_N 	N 	0.6908	0.7489	0.19551	-0.174
Mof_N 	N 	0.6174	0.8592	0.14764	-0.146
Mof_O 	O 	0.7147	0.57742	0.64806	-0.347
Mof_O 	O 	0.7763	0.651	0.2804	-0.392
Mof_O 	O 	0.0006	0.6922	0.30381	-0.396
Mof_O 	O 	0.6699	0.6673	0.48862	-0.326
Mof_O 	O 	0.8991	0.47534	0.22818	-0.44
Mof_C 	C 	0.6333	0.3261	0.31004	0.434
Mof_C 	C 	0.692	0.3212	0.35683	-0.244
Mof_C 	C 	0.8337	0.3494	0.36752	0.208
Mof_H 	H 	0.8985	0.3675	0.345	-0.022
Mof_C 	C 	0.8822	0.3515	0.41115	-0.328
Mof_H 	H 	0.9785	0.3702	0.418	0.164
Mof_C 	C 	0.7843	0.3251	0.44433	0.34
Mof_C 	C 	0.6452	0.2939	0.43446	-0.341
Mof_H 	H 	0.5817	0.2742	0.457	0.166
Mof_C 	C 	0.5984	0.2915	0.39088	0.209
Mof_H 	H 	0.5033	0.2699	0.3842	-0.03
Mof_C 	C 	0.7888	0.4174	0.51032	0.322
Mof_C 	C 	0.791	0.4169	0.55581	-0.253
Mof_H 	H 	0.8196	0.3615	0.571	0.138
Mof_C 	C 	0.8462	0.1693	0.21764	0.026
Mof_H 	H 	0.8385	0.1609	0.2481	0.031
Mof_C 	C 	0.8958	0.1018	0.18881	-0.001
Mof_H 	H 	0.9319	0.0408	0.1958	0.038
Mof_C 	C 	0.8308	0.23	0.15378	0.119
Mof_H 	H 	0.8119	0.2728	0.1307	0.001
Mof_C 	C 	0.9166	0.0988	0.10527	0.132
Mof_C 	C 	0.8473	0.1317	0.06809	-0.11
Mof_H 	H 	0.7757	0.1797	0.0704	0.078
Mof_C 	C 	0.882	0.0945	0.02725	-0.029
Mof_H 	H 	0.836	0.1197	0.0022	0.049
Mof_C 	C 	0.984	0.0206	0.02239	0.04
Mof_C 	C 	0.047	0.9877	0.06013	-0.045
Mof_H 	H 	0.1156	0.9378	0.0582	0.049
Mof_C 	C 	0.0142	0.0248	0.10164	-0.123
Mof_H 	H 	0.0588	0.9992	0.1268	0.077
Mof_Fe	Fe	0.69364	0.38286	0.2148	0.873
Mof_N 	N 	0.8092	0.2511	0.19551	-0.173
Mof_N 	N 	0.8826	0.1408	0.14764	-0.145
Mof_O 	O 	0.7853	0.42258	0.64806	-0.347
Mof_O 	O 	0.7237	0.349	0.2804	-0.388
Mof_O 	O 	0.4994	0.3078	0.30381	-0.382
Mof_O 	O 	0.8301	0.3327	0.48862	-0.323
Mof_O 	O 	0.6009	0.52466	0.22818	-0.452
Mof_C 	C 	0.8667	0.3261	0.81004	0.45
Mof_C 	C 	0.808	0.3212	0.85683	-0.249
Mof_C 	C 	0.6663	0.3494	0.86752	0.211
Mof_H 	H 	0.6015	0.3675	0.845	-0.026
Mof_C 	C 	0.6178	0.3515	0.91115	-0.332
Mof_H 	H 	0.5215	0.3702	0.918	0.162
Mof_C 	C 	0.7157	0.3251	0.94433	0.341
Mof_C 	C 	0.8548	0.2939	0.93446	-0.343
Mof_H 	H 	0.9183	0.2742	0.957	0.17
Mof_C 	C 	0.9016	0.2915	0.89088	0.214
Mof_H 	H 	0.9967	0.2699	0.8842	-0.027
Mof_C 	C 	0.7112	0.4174	0.01032	0.319
Mof_C 	C 	0.709	0.4169	0.05581	-0.251
Mof_H 	H 	0.6804	0.3615	0.071	0.136
Mof_C 	C 	0.6538	0.1693	0.71764	0.026
Mof_H 	H 	0.6615	0.1609	0.7481	0.03
Mof_C 	C 	0.6042	0.1018	0.68881	-0.002
Mof_H 	H 	0.5681	0.0408	0.6958	0.035
Mof_C 	C 	0.6692	0.23	0.65378	0.118
Mof_H 	H 	0.6881	0.2728	0.6307	-0
Mof_C 	C 	0.5834	0.0988	0.60527	0.133
Mof_C 	C 	0.6527	0.1317	0.56809	-0.127
Mof_H 	H 	0.7243	0.1797	0.5704	0.085
Mof_C 	C 	0.618	0.0945	0.52725	-0.002
Mof_H 	H 	0.664	0.1197	0.5022	0.039
Mof_C 	C 	0.516	0.0206	0.52239	-0.008
Mof_C 	C 	0.453	0.9877	0.56013	-0.007
Mof_H 	H 	0.3844	0.9378	0.5582	0.036
Mof_C 	C 	0.4858	0.0248	0.60164	-0.129
Mof_H 	H 	0.4412	0.9992	0.6268	0.082
Mof_Fe	Fe	0.80636	0.38286	0.7148	0.874
Mof_N 	N 	0.6908	0.2511	0.69551	-0.174
Mof_N 	N 	0.6174	0.1408	0.64764	-0.146
Mof_O 	O 	0.7147	0.42258	0.14806	-0.347
Mof_O 	O 	0.7763	0.349	0.7804	-0.392
Mof_O 	O 	0.0006	0.3078	0.80381	-0.396
Mof_O 	O 	0.6699	0.3327	0.98862	-0.325
Mof_O 	O 	0.8991	0.52466	0.72818	-0.44
Mof_C 	C 	0.6333	0.6739	0.81004	0.434
Mof_C 	C 	0.692	0.6788	0.85683	-0.243
Mof_C 	C 	0.8337	0.6506	0.86752	0.207
Mof_H 	H 	0.8985	0.6325	0.845	-0.022
Mof_C 	C 	0.8822	0.6485	0.91115	-0.328
Mof_H 	H 	0.9785	0.6298	0.918	0.164
Mof_C 	C 	0.7843	0.6749	0.94433	0.339
Mof_C 	C 	0.6452	0.7061	0.93446	-0.341
Mof_H 	H 	0.5817	0.7258	0.957	0.166
Mof_C 	C 	0.5984	0.7085	0.89088	0.209
Mof_H 	H 	0.5033	0.7301	0.8842	-0.03
Mof_C 	C 	0.7888	0.5826	0.01032	0.319
Mof_C 	C 	0.791	0.5831	0.05581	-0.251
Mof_H 	H 	0.8196	0.6385	0.071	0.138
Mof_C 	C 	0.8462	0.8307	0.71764	0.026
Mof_H 	H 	0.8385	0.8391	0.7481	0.031
Mof_C 	C 	0.8958	0.8982	0.68881	-0.001
Mof_H 	H 	0.9319	0.9592	0.6958	0.038
Mof_C 	C 	0.8308	0.77	0.65378	0.119
Mof_H 	H 	0.8119	0.7272	0.6307	0.001
Mof_C 	C 	0.9166	0.9012	0.60527	0.132
Mof_C 	C 	0.8473	0.8683	0.56809	-0.11
Mof_H 	H 	0.7757	0.8203	0.5704	0.077
Mof_C 	C 	0.882	0.9055	0.52725	-0.03
Mof_H 	H 	0.836	0.8803	0.5022	0.049
Mof_C 	C 	0.984	0.9794	0.52239	0.042
Mof_C 	C 	0.047	0.0123	0.56013	-0.046
Mof_H 	H 	0.1156	0.0622	0.5582	0.05
Mof_C 	C 	0.0142	0.9752	0.60164	-0.122
Mof_H 	H 	0.0588	0.0008	0.6268	0.077
Mof_Fe	Fe	0.69364	0.61714	0.7148	0.873
Mof_N 	N 	0.8092	0.7489	0.69551	-0.173
Mof_N 	N 	0.8826	0.8592	0.64764	-0.145
Mof_O 	O 	0.7853	0.57742	0.14806	-0.347
Mof_O 	O 	0.7237	0.651	0.7804	-0.388
Mof_O 	O 	0.4994	0.6922	0.80381	-0.382
Mof_O 	O 	0.8301	0.6673	0.98862	-0.322
Mof_O 	O 	0.6009	0.47534	0.72818	-0.452
Mof_C 	C 	0.1333	0.3261	0.68996	0.419
Mof_C 	C 	0.192	0.3212	0.64317	-0.24
Mof_C 	C 	0.3337	0.3494	0.63248	0.203
Mof_H 	H 	0.3985	0.3675	0.655	-0.024
Mof_C 	C 	0.3822	0.3515	0.58885	-0.326
Mof_H 	H 	0.4785	0.3702	0.582	0.159
Mof_C 	C 	0.2843	0.3251	0.55567	0.336
Mof_C 	C 	0.1452	0.2939	0.56554	-0.339
Mof_H 	H 	0.0817	0.2742	0.543	0.162
Mof_C 	C 	0.0984	0.2915	0.60912	0.204
Mof_H 	H 	0.0033	0.2699	0.6158	-0.033
Mof_C 	C 	0.2888	0.4174	0.48968	0.319
Mof_C 	C 	0.291	0.4169	0.44419	-0.253
Mof_H 	H 	0.3196	0.3615	0.429	0.136
Mof_C 	C 	0.3462	0.1693	0.78236	0.024
Mof_H 	H 	0.3385	0.1609	0.7519	0.029
Mof_C 	C 	0.3958	0.1018	0.81119	-0.003
Mof_H 	H 	0.4319	0.0408	0.8042	0.035
Mof_C 	C 	0.3308	0.23	0.84622	0.117
Mof_H 	H 	0.3119	0.2728	0.8693	-0.001
Mof_C 	C 	0.4166	0.0988	0.89473	0.132
Mof_C 	C 	0.3473	0.1317	0.93191	-0.127
Mof_H 	H 	0.2757	0.1797	0.9296	0.081
Mof_C 	C 	0.382	0.0945	0.97275	-0.002
Mof_H 	H 	0.336	0.1197	0.9978	0.037
Mof_C 	C 	0.484	0.0206	0.97761	-0.008
Mof_C 	C 	0.547	0.9877	0.93987	-0.006
Mof_H 	H 	0.6156	0.9378	0.9418	0.037
Mof_C 	C 	0.5142	0.0248	0.89836	-0.13
Mof_H 	H 	0.5588	0.9992	0.8732	0.083
Mof_Fe	Fe	0.19364	0.38286	0.7852	0.869
Mof_N 	N 	0.3092	0.2511	0.80449	-0.174
Mof_N 	N 	0.3826	0.1408	0.85236	-0.146
Mof_O 	O 	0.2853	0.42258	0.35194	-0.349
Mof_O 	O 	0.2237	0.349	0.7196	-0.386
Mof_O 	O 	0.9994	0.3078	0.69619	-0.369
Mof_O 	O 	0.3301	0.3327	0.51138	-0.325
Mof_O 	O 	0.1009	0.52466	0.77182	-0.449
Mof_C 	C 	0.3667	0.6739	0.68996	0.434
Mof_C 	C 	0.308	0.6788	0.64317	-0.245
Mof_C 	C 	0.1663	0.6506	0.63248	0.206
Mof_H 	H 	0.1015	0.6325	0.655	-0.028
Mof_C 	C 	0.1178	0.6485	0.58885	-0.33
Mof_H 	H 	0.0215	0.6298	0.582	0.156
Mof_C 	C 	0.2157	0.6749	0.55567	0.338
Mof_C 	C 	0.3548	0.7061	0.56554	-0.341
Mof_H 	H 	0.4183	0.7258	0.543	0.166
Mof_C 	C 	0.4016	0.7085	0.60912	0.209
Mof_H 	H 	0.4967	0.7301	0.6158	-0.03
Mof_C 	C 	0.2112	0.5826	0.48968	0.319
Mof_C 	C 	0.209	0.5831	0.44419	-0.253
Mof_H 	H 	0.1804	0.6385	0.429	0.134
Mof_C 	C 	0.1538	0.8307	0.78236	0.024
Mof_H 	H 	0.1615	0.8391	0.7519	0.028
Mof_C 	C 	0.1042	0.8982	0.81119	-0.004
Mof_H 	H 	0.0681	0.9592	0.8042	0.032
Mof_C 	C 	0.1692	0.77	0.84622	0.116
Mof_H 	H 	0.1881	0.7272	0.8693	-0.002
Mof_C 	C 	0.0834	0.9012	0.89473	0.132
Mof_C 	C 	0.1527	0.8683	0.93191	-0.145
Mof_H 	H 	0.2243	0.8203	0.9296	0.089
Mof_C 	C 	0.118	0.9055	0.97275	0.026
Mof_H 	H 	0.164	0.8803	0.9978	0.027
Mof_C 	C 	0.016	0.9794	0.97761	-0.059
Mof_C 	C 	0.953	0.0123	0.93987	0.034
Mof_H 	H 	0.8844	0.0622	0.9418	0.023
Mof_C 	C 	0.9858	0.9752	0.89836	-0.136
Mof_H 	H 	0.9412	0.0008	0.8732	0.088
Mof_Fe	Fe	0.30636	0.61714	0.7852	0.871
Mof_N 	N 	0.1908	0.7489	0.80449	-0.174
Mof_N 	N 	0.1174	0.8592	0.85236	-0.147
Mof_O 	O 	0.2147	0.57742	0.35194	-0.349
Mof_O 	O 	0.2763	0.651	0.7196	-0.39
Mof_O 	O 	0.5006	0.6922	0.69619	-0.383
Mof_O 	O 	0.1699	0.6673	0.51138	-0.328
Mof_O 	O 	0.3991	0.47534	0.77182	-0.452
Mof_C 	C 	-3.56208e-33	0.4357	0.25	0.514
Mof_H 	H 	-3.56208e-33	0.3685	0.25	-0.137
Mof_C 	C 	0.5	0.5643	0.25	0.534
Mof_H 	H 	0.5	0.6315	0.25	-0.14
Mof_C 	C 	-1.73846e-32	0.5643	0.75	0.514
Mof_H 	H 	-1.73846e-32	0.6315	0.75	-0.137
Mof_C 	C 	0.5	0.4357	0.75	0.534
Mof_H 	H 	0.5	0.3685	0.75	-0.14
Mof_C 	C 	0.25	0.5	0.01346	-0.365
Mof_H 	H 	0.25	0.5	0.0443	0.173
Mof_C 	C 	0.25	0.5	0.87091	0.304
Mof_C 	C 	0.25	0.5	0.92078	0.077
Mof_C 	C 	0.75	0.5	0.48654	-0.363
Mof_H 	H 	0.75	0.5	0.4557	0.173
Mof_C 	C 	0.75	0.5	0.62909	0.306
Mof_C 	C 	0.75	0.5	0.57922	0.079
Mof_C 	C 	0.75	0.5	0.98654	-0.359
Mof_H 	H 	0.75	0.5	0.9557	0.172
Mof_C 	C 	0.75	0.5	0.12909	0.307
Mof_C 	C 	0.75	0.5	0.07922	0.078
Mof_C 	C 	0.25	0.5	0.51346	-0.364
Mof_H 	H 	0.25	0.5	0.5443	0.172
Mof_C 	C 	0.25	0.5	0.37091	0.305
Mof_C 	C 	0.25	0.5	0.42078	0.076
_end
