# CIF file generated by openbabel 3.1.0, see https://openbabel.org
data_I
_chemical_name_common 'image0'
_cell_length_a 10.456
_cell_length_b 20.017
_cell_length_c 8.1077
_cell_angle_alpha 90
_cell_angle_beta 102.602
_cell_angle_gamma 90
_space_group_name_H-M_alt 'P 1'
_space_group_name_Hall 'P 1'
loop_
    _symmetry_equiv_pos_as_xyz
    x,y,z
loop_
    _atom_site_label
    _atom_site_type_symbol
    _atom_site_fract_x
    _atom_site_fract_y
    _atom_site_fract_z
    _atom_site_occupancy
    N1       N        0.65150    0.15722    0.99050    1.000
    C1       C        0.71000    0.10032    0.94460    1.000
    H1       H        0.79000    0.10320    0.91280    1.000
    C2       C        0.65160    0.04173    0.94610    1.000
    H2       H        0.69170    0.00420    0.91260    1.000
    C3       C        0.53170    0.03355    0.99600    1.000
    C4       C        0.47530    0.09380    0.04500    1.000
    H3       H        0.39610    0.09190    0.07920    1.000
    C5       C        0.53470    0.15210    0.04210    1.000
    H4       H        0.49680    0.19040    0.07550    1.000
    O1       O        0.91360    0.20160    0.14660    1.000
    N2       N        0.15150    0.65722    0.99050    1.000
    C6       C        0.21000    0.60032    0.94460    1.000
    H5       H        0.29000    0.60320    0.91280    1.000
    C7       C        0.15160    0.54173    0.94610    1.000
    H6       H        0.19170    0.50420    0.91260    1.000
    C8       C        0.03170    0.53355    0.99600    1.000
    C9       C        0.97530    0.59380    0.04500    1.000
    H7       H        0.89610    0.59190    0.07920    1.000
    C10      C        0.03470    0.65210    0.04210    1.000
    H8       H        0.99680    0.69040    0.07550    1.000
    O2       O        0.41360    0.70160    0.14660    1.000
    N3       N        0.34850    0.15722    0.50950    1.000
    C11      C        0.29000    0.10032    0.55540    1.000
    H9       H        0.21000    0.10320    0.58720    1.000
    C12      C        0.34840    0.04173    0.55390    1.000
    H10      H        0.30830    0.00420    0.58740    1.000
    C13      C        0.46830    0.03355    0.50400    1.000
    C14      C        0.52470    0.09380    0.45500    1.000
    H11      H        0.60390    0.09190    0.42080    1.000
    C15      C        0.46530    0.15210    0.45790    1.000
    H12      H        0.50320    0.19040    0.42450    1.000
    O3       O        0.08640    0.20160    0.35340    1.000
    N4       N        0.84850    0.65722    0.50950    1.000
    C16      C        0.79000    0.60032    0.55540    1.000
    H13      H        0.71000    0.60320    0.58720    1.000
    C17      C        0.84840    0.54173    0.55390    1.000
    H14      H        0.80830    0.50420    0.58740    1.000
    C18      C        0.96830    0.53355    0.50400    1.000
    C19      C        0.02470    0.59380    0.45500    1.000
    H15      H        0.10390    0.59190    0.42080    1.000
    C20      C        0.96530    0.65210    0.45790    1.000
    H16      H        0.00320    0.69040    0.42450    1.000
    O4       O        0.58640    0.70160    0.35340    1.000
    N5       N        0.34850    0.84278    0.00950    1.000
    C21      C        0.29000    0.89968    0.05540    1.000
    H17      H        0.21000    0.89680    0.08720    1.000
    C22      C        0.34840    0.95827    0.05390    1.000
    H18      H        0.30830    0.99580    0.08740    1.000
    C23      C        0.46830    0.96645    0.00400    1.000
    C24      C        0.52470    0.90620    0.95500    1.000
    H19      H        0.60390    0.90810    0.92080    1.000
    C25      C        0.46530    0.84790    0.95790    1.000
    H20      H        0.50320    0.80960    0.92450    1.000
    O5       O        0.08640    0.79840    0.85340    1.000
    N6       N        0.84850    0.34278    0.00950    1.000
    C26      C        0.79000    0.39968    0.05540    1.000
    H21      H        0.71000    0.39680    0.08720    1.000
    C27      C        0.84840    0.45827    0.05390    1.000
    H22      H        0.80830    0.49580    0.08740    1.000
    C28      C        0.96830    0.46645    0.00400    1.000
    C29      C        0.02470    0.40620    0.95500    1.000
    H23      H        0.10390    0.40810    0.92080    1.000
    C30      C        0.96530    0.34790    0.95790    1.000
    H24      H        0.00320    0.30960    0.92450    1.000
    O6       O        0.58640    0.29840    0.85340    1.000
    N7       N        0.65150    0.84278    0.49050    1.000
    C31      C        0.71000    0.89968    0.44460    1.000
    H25      H        0.79000    0.89680    0.41280    1.000
    C32      C        0.65160    0.95827    0.44610    1.000
    H26      H        0.69170    0.99580    0.41260    1.000
    C33      C        0.53170    0.96645    0.49600    1.000
    C34      C        0.47530    0.90620    0.54500    1.000
    H27      H        0.39610    0.90810    0.57920    1.000
    C35      C        0.53470    0.84790    0.54210    1.000
    H28      H        0.49680    0.80960    0.57550    1.000
    O7       O        0.91360    0.79840    0.64660    1.000
    N8       N        0.15150    0.34278    0.49050    1.000
    C36      C        0.21000    0.39968    0.44460    1.000
    H29      H        0.29000    0.39680    0.41280    1.000
    C37      C        0.15160    0.45827    0.44610    1.000
    H30      H        0.19170    0.49580    0.41260    1.000
    C38      C        0.03170    0.46645    0.49600    1.000
    C39      C        0.97530    0.40620    0.54500    1.000
    H31      H        0.89610    0.40810    0.57920    1.000
    C40      C        0.03470    0.34790    0.54210    1.000
    H32      H        0.99680    0.30960    0.57550    1.000
    O8       O        0.41360    0.29840    0.64660    1.000
    C41      C        0.00000    0.23200    0.25000    1.000
    H33      H        0.00000    0.27840    0.25000    1.000
    C42      C        0.50000    0.73200    0.25000    1.000
    H34      H        0.50000    0.77840    0.25000    1.000
    C43      C        0.00000    0.76800    0.75000    1.000
    H35      H        0.00000    0.72160    0.75000    1.000
    C44      C        0.50000    0.26800    0.75000    1.000
    H36      H        0.50000    0.22160    0.75000    1.000
    Ni1      Ni       0.75000    0.25000    0.00000    1.000
    Ni2      Ni       0.25000    0.25000    0.50000    1.000
    Ni3      Ni       0.25000    0.75000    0.00000    1.000
    Ni4      Ni       0.75000    0.75000    0.50000    1.000
