data_functionalizedCrystal
_audit_creation_method	'EQeq! by Chris Wilmer'
_symmetry_space_group_name_H-M	'P1'
_symmetry_Int_Tables_number	1
_symmetry_cell_setting	triclinic
loop_
_symmetry_equiv_pos_as_xyz
  x,y,z
_cell_length_a	13.669
_cell_length_b	15.925
_cell_length_c	14.633
_cell_angle_alpha	90
_cell_angle_beta	90
_cell_angle_gamma	90
loop_
_atom_site_label
_atom_site_type_symbol
_atom_site_fract_x
_atom_site_fract_y
_atom_site_fract_z
_atom_site_charge
Mof_Co	Co	0.20609	0.4971	0.23316	1.187
Mof_Co	Co	0.064	0.41669	0.03015	1.165
Mof_C 	C 	0.2644	0.3954	0.1112	0.32
Mof_C 	C 	0.2944	0.3284	0.0442	-0.069
Mof_C 	C 	0.287	0.3349	0.9485	-0.091
Mof_C 	C 	0.2401	0.4078	0.8996	0.355
Mof_C 	C 	0.3179	0.2672	0.8958	0.023
Mof_H 	H 	0.3163	0.2719	0.8325	0.043
Mof_C 	C 	0.3511	0.1925	0.9344	-0.094
Mof_C 	C 	0.377	0.1227	0.8685	0.378
Mof_C 	C 	0.3543	0.1852	0.0292	-0.092
Mof_C 	C 	0.3742	0.1035	0.0786	0.379
Mof_C 	C 	0.3273	0.254	0.0828	0.014
Mof_H 	H 	0.3314	0.2498	0.1461	0.039
Mof_O 	O 	0.3265	0.4333	0.1576	-0.344
Mof_O 	O 	0.1733	0.4093	0.125	-0.512
Mof_O 	O 	0.1702	0.4466	0.9354	-0.445
Mof_O 	O 	0.2729	0.4242	0.8208	-0.41
Mof_O 	O 	0.309	0.1016	0.8166	-0.42
Mof_O 	O 	0.4617	0.0929	0.8673	-0.454
Mof_O 	O 	0.4428	0.0545	0.0532	-0.526
Mof_O 	O 	0.3169	0.0889	0.1424	-0.442
Mof_Co	Co	0.29391	0.0029	0.73316	1.185
Mof_Co	Co	0.436	0.08331	0.53015	1.165
Mof_C 	C 	0.2356	0.1046	0.6112	0.322
Mof_C 	C 	0.2056	0.1716	0.5442	-0.074
Mof_C 	C 	0.213	0.1651	0.4485	-0.086
Mof_C 	C 	0.2599	0.0922	0.3996	0.354
Mof_C 	C 	0.1821	0.2328	0.3958	0.018
Mof_H 	H 	0.1837	0.2281	0.3325	0.045
Mof_C 	C 	0.1489	0.3075	0.4344	-0.085
Mof_C 	C 	0.123	0.3773	0.3685	0.376
Mof_C 	C 	0.1457	0.3148	0.5292	-0.101
Mof_C 	C 	0.1258	0.3965	0.5786	0.382
Mof_C 	C 	0.1727	0.246	0.5828	0.019
Mof_H 	H 	0.1686	0.2502	0.6461	0.037
Mof_O 	O 	0.1735	0.0667	0.6576	-0.345
Mof_O 	O 	0.3267	0.0907	0.625	-0.512
Mof_O 	O 	0.3298	0.0534	0.4354	-0.445
Mof_O 	O 	0.2271	0.0758	0.3208	-0.408
Mof_O 	O 	0.191	0.3984	0.3166	-0.419
Mof_O 	O 	0.0383	0.4071	0.3673	-0.452
Mof_O 	O 	0.0572	0.4455	0.5532	-0.532
Mof_O 	O 	0.1831	0.4111	0.6424	-0.446
Mof_Co	Co	0.79391	0.4971	0.26684	1.187
Mof_Co	Co	0.936	0.41669	0.46985	1.165
Mof_C 	C 	0.7356	0.3954	0.3888	0.322
Mof_C 	C 	0.7056	0.3284	0.4558	-0.074
Mof_C 	C 	0.713	0.3349	0.5515	-0.087
Mof_C 	C 	0.7599	0.4078	0.6004	0.354
Mof_C 	C 	0.6821	0.2672	0.6042	0.018
Mof_H 	H 	0.6837	0.2719	0.6675	0.045
Mof_C 	C 	0.6489	0.1925	0.5656	-0.085
Mof_C 	C 	0.623	0.1227	0.6315	0.376
Mof_C 	C 	0.6457	0.1852	0.4708	-0.101
Mof_C 	C 	0.6258	0.1035	0.4214	0.382
Mof_C 	C 	0.6727	0.254	0.4172	0.019
Mof_H 	H 	0.6686	0.2498	0.3539	0.037
Mof_O 	O 	0.6735	0.4333	0.3424	-0.345
Mof_O 	O 	0.8267	0.4093	0.375	-0.511
Mof_O 	O 	0.8298	0.4466	0.5646	-0.446
Mof_O 	O 	0.7271	0.4242	0.6792	-0.41
Mof_O 	O 	0.691	0.1016	0.6834	-0.419
Mof_O 	O 	0.5383	0.0929	0.6327	-0.452
Mof_O 	O 	0.5572	0.0545	0.4468	-0.531
Mof_O 	O 	0.6831	0.0889	0.3576	-0.444
Mof_Co	Co	0.70609	0.0029	0.76684	1.185
Mof_Co	Co	0.564	0.08331	0.96985	1.16
Mof_C 	C 	0.7644	0.1046	0.8888	0.327
Mof_C 	C 	0.7944	0.1716	0.9558	-0.092
Mof_C 	C 	0.787	0.1651	0.0515	-0.068
Mof_C 	C 	0.7401	0.0922	0.1004	0.349
Mof_C 	C 	0.8179	0.2328	0.1042	0.005
Mof_H 	H 	0.8163	0.2281	0.1675	0.05
Mof_C 	C 	0.8511	0.3075	0.0656	-0.068
Mof_C 	C 	0.877	0.3773	0.1315	0.372
Mof_C 	C 	0.8543	0.3148	0.9708	-0.117
Mof_C 	C 	0.8742	0.3965	0.9214	0.387
Mof_C 	C 	0.8273	0.246	0.9172	0.032
Mof_H 	H 	0.8314	0.2502	0.8539	0.032
Mof_O 	O 	0.8265	0.0667	0.8424	-0.349
Mof_O 	O 	0.6733	0.0907	0.875	-0.515
Mof_O 	O 	0.6702	0.0534	0.0646	-0.439
Mof_O 	O 	0.7729	0.0758	0.1792	-0.406
Mof_O 	O 	0.809	0.3984	0.1834	-0.417
Mof_O 	O 	0.9617	0.4071	0.1327	-0.447
Mof_O 	O 	0.9428	0.4455	0.9468	-0.535
Mof_O 	O 	0.8169	0.4111	0.8576	-0.447
Mof_Co	Co	0.79391	0.5029	0.76684	1.186
Mof_Co	Co	0.936	0.58331	0.96985	1.164
Mof_C 	C 	0.7356	0.6046	0.8888	0.32
Mof_C 	C 	0.7056	0.6716	0.9558	-0.069
Mof_C 	C 	0.713	0.6651	0.0515	-0.091
Mof_C 	C 	0.7599	0.5922	0.1004	0.355
Mof_C 	C 	0.6821	0.7328	0.1042	0.023
Mof_H 	H 	0.6837	0.7281	0.1675	0.043
Mof_C 	C 	0.6489	0.8075	0.0656	-0.094
Mof_C 	C 	0.623	0.8773	0.1315	0.378
Mof_C 	C 	0.6457	0.8148	0.9708	-0.092
Mof_C 	C 	0.6258	0.8965	0.9214	0.379
Mof_C 	C 	0.6727	0.746	0.9172	0.014
Mof_H 	H 	0.6686	0.7502	0.8539	0.039
Mof_O 	O 	0.6735	0.5667	0.8424	-0.344
Mof_O 	O 	0.8267	0.5907	0.875	-0.512
Mof_O 	O 	0.8298	0.5534	0.0646	-0.445
Mof_O 	O 	0.7271	0.5758	0.1792	-0.41
Mof_O 	O 	0.691	0.8984	0.1834	-0.42
Mof_O 	O 	0.5383	0.9071	0.1327	-0.454
Mof_O 	O 	0.5572	0.9455	0.9468	-0.526
Mof_O 	O 	0.6831	0.9111	0.8576	-0.442
Mof_Co	Co	0.70609	0.9971	0.26684	1.185
Mof_Co	Co	0.564	0.91669	0.46985	1.165
Mof_C 	C 	0.7644	0.8954	0.3888	0.322
Mof_C 	C 	0.7944	0.8284	0.4558	-0.074
Mof_C 	C 	0.787	0.8349	0.5515	-0.086
Mof_C 	C 	0.7401	0.9078	0.6004	0.354
Mof_C 	C 	0.8179	0.7672	0.6042	0.018
Mof_H 	H 	0.8163	0.7719	0.6675	0.045
Mof_C 	C 	0.8511	0.6925	0.5656	-0.085
Mof_C 	C 	0.877	0.6227	0.6315	0.376
Mof_C 	C 	0.8543	0.6852	0.4708	-0.101
Mof_C 	C 	0.8742	0.6035	0.4214	0.382
Mof_C 	C 	0.8273	0.754	0.4172	0.019
Mof_H 	H 	0.8314	0.7498	0.3539	0.037
Mof_O 	O 	0.8265	0.9333	0.3424	-0.345
Mof_O 	O 	0.6733	0.9093	0.375	-0.512
Mof_O 	O 	0.6702	0.9466	0.5646	-0.445
Mof_O 	O 	0.7729	0.9242	0.6792	-0.408
Mof_O 	O 	0.809	0.6016	0.6834	-0.419
Mof_O 	O 	0.9617	0.5929	0.6327	-0.452
Mof_O 	O 	0.9428	0.5545	0.4468	-0.532
Mof_O 	O 	0.8169	0.5889	0.3576	-0.446
Mof_Co	Co	0.20609	0.5029	0.73316	1.187
Mof_Co	Co	0.064	0.58331	0.53015	1.165
Mof_C 	C 	0.2644	0.6046	0.6112	0.322
Mof_C 	C 	0.2944	0.6716	0.5442	-0.074
Mof_C 	C 	0.287	0.6651	0.4485	-0.087
Mof_C 	C 	0.2401	0.5922	0.3996	0.354
Mof_C 	C 	0.3179	0.7328	0.3958	0.018
Mof_H 	H 	0.3163	0.7281	0.3325	0.045
Mof_C 	C 	0.3511	0.8075	0.4344	-0.085
Mof_C 	C 	0.377	0.8773	0.3685	0.376
Mof_C 	C 	0.3543	0.8148	0.5292	-0.101
Mof_C 	C 	0.3742	0.8965	0.5786	0.382
Mof_C 	C 	0.3273	0.746	0.5828	0.019
Mof_H 	H 	0.3314	0.7502	0.6461	0.037
Mof_O 	O 	0.3265	0.5667	0.6576	-0.345
Mof_O 	O 	0.1733	0.5907	0.625	-0.511
Mof_O 	O 	0.1702	0.5534	0.4354	-0.446
Mof_O 	O 	0.2729	0.5758	0.3208	-0.41
Mof_O 	O 	0.309	0.8984	0.3166	-0.419
Mof_O 	O 	0.4617	0.9071	0.3673	-0.452
Mof_O 	O 	0.4428	0.9455	0.5532	-0.531
Mof_O 	O 	0.3169	0.9111	0.6424	-0.444
Mof_Co	Co	0.29391	0.9971	0.23316	1.185
Mof_Co	Co	0.436	0.91669	0.03015	1.16
Mof_C 	C 	0.2356	0.8954	0.1112	0.327
Mof_C 	C 	0.2056	0.8284	0.0442	-0.092
Mof_C 	C 	0.213	0.8349	0.9485	-0.068
Mof_C 	C 	0.2599	0.9078	0.8996	0.349
Mof_C 	C 	0.1821	0.7672	0.8958	0.005
Mof_H 	H 	0.1837	0.7719	0.8325	0.05
Mof_C 	C 	0.1489	0.6925	0.9344	-0.068
Mof_C 	C 	0.123	0.6227	0.8685	0.372
Mof_C 	C 	0.1457	0.6852	0.0292	-0.117
Mof_C 	C 	0.1258	0.6035	0.0786	0.387
Mof_C 	C 	0.1727	0.754	0.0828	0.032
Mof_H 	H 	0.1686	0.7498	0.1461	0.032
Mof_O 	O 	0.1735	0.9333	0.1576	-0.349
Mof_O 	O 	0.3267	0.9093	0.125	-0.515
Mof_O 	O 	0.3298	0.9466	0.9354	-0.439
Mof_O 	O 	0.2271	0.9242	0.8208	-0.406
Mof_O 	O 	0.191	0.6016	0.8166	-0.417
Mof_O 	O 	0.0383	0.5929	0.8673	-0.447
Mof_O 	O 	0.0572	0.5545	0.0532	-0.535
Mof_O 	O 	0.1831	0.5889	0.1424	-0.447
_end
