data_functionalizedCrystal
_audit_creation_method	'EQeq! by Chris Wilmer'
_symmetry_space_group_name_H-M	'P1'
_symmetry_Int_Tables_number	1
_symmetry_cell_setting	triclinic
loop_
_symmetry_equiv_pos_as_xyz
  x,y,z
_cell_length_a	8.7734
_cell_length_b	15.507
_cell_length_c	17.264
_cell_angle_alpha	90
_cell_angle_beta	90
_cell_angle_gamma	93.94
loop_
_atom_site_label
_atom_site_type_symbol
_atom_site_fract_x
_atom_site_fract_y
_atom_site_fract_z
_atom_site_charge
Mof_V 	V 	0.94123	0.33416	0.982	1.708
Mof_V 	V 	0.05877	0.16584	0.482	1.712
Mof_V 	V 	0.05877	0.66584	0.018	1.708
Mof_V 	V 	0.94123	0.83416	0.518	1.713
Mof_Co	Co	0.80822	0.63445	0.76042	1.099
Mof_Co	Co	0.19178	0.86555	0.26042	1.098
Mof_Co	Co	0.19178	0.36555	0.23958	1.099
Mof_Co	Co	0.80822	0.13445	0.73958	1.099
Mof_P 	P 	0.94376	0.5102	0.89318	0.453
Mof_P 	P 	0.05624	0.9898	0.39318	0.452
Mof_P 	P 	0.05624	0.4898	0.10682	0.454
Mof_P 	P 	0.94376	0.0102	0.60682	0.471
Mof_H 	H 	0.7654	0.521	0.9948	0.076
Mof_H 	H 	0.6795	0.5228	0.9128	0.08
Mof_H 	H 	0.687	0.4051	0.833	0.14
Mof_H 	H 	0.551	0.3512	0.8767	0.136
Mof_H 	H 	0.5029	0.3747	0.992	0.109
Mof_H 	H 	0.6147	0.4275	0.0511	0.119
Mof_H 	H 	0.4633	0.6131	0.8078	-0.01
Mof_H 	H 	0.2591	0.5101	0.8047	0.089
Mof_H 	H 	0.5136	0.3624	0.6684	0.098
Mof_H 	H 	0.7093	0.4701	0.6759	-0.029
Mof_H 	H 	0.8712	0.3261	0.7096	-0.015
Mof_H 	H 	0.0635	0.4353	0.7185	0.071
Mof_H 	H 	0.364	0.2515	0.7504	0.08
Mof_H 	H 	0.1609	0.1479	0.7464	-0.01
Mof_H 	H 	0.2346	0.979	0.4948	0.066
Mof_H 	H 	0.3205	0.9772	0.4128	0.069
Mof_H 	H 	0.313	0.0949	0.333	0.141
Mof_H 	H 	0.449	0.1488	0.3767	0.135
Mof_H 	H 	0.4971	0.1253	0.492	0.112
Mof_H 	H 	0.3853	0.0725	0.5511	0.121
Mof_H 	H 	0.5367	0.8869	0.3078	-0.002
Mof_H 	H 	0.7409	0.9899	0.3047	0.071
Mof_H 	H 	0.4864	0.1376	0.1684	0.096
Mof_H 	H 	0.2907	0.0299	0.1759	-0.028
Mof_H 	H 	0.1288	0.1739	0.2096	-0.016
Mof_H 	H 	0.9365	0.0647	0.2185	0.075
Mof_H 	H 	0.636	0.2485	0.2504	0.081
Mof_H 	H 	0.8391	0.3521	0.2464	-0.012
Mof_H 	H 	0.2346	0.479	0.0052	0.076
Mof_H 	H 	0.3205	0.4772	0.0872	0.08
Mof_H 	H 	0.313	0.5949	0.167	0.14
Mof_H 	H 	0.449	0.6488	0.1233	0.135
Mof_H 	H 	0.4971	0.6253	0.008	0.108
Mof_H 	H 	0.3853	0.5725	0.9489	0.119
Mof_H 	H 	0.5367	0.3869	0.1922	-0.01
Mof_H 	H 	0.7409	0.4899	0.1953	0.089
Mof_H 	H 	0.4864	0.6376	0.3316	0.097
Mof_H 	H 	0.2907	0.5299	0.3241	-0.029
Mof_H 	H 	0.1288	0.6739	0.2904	-0.016
Mof_H 	H 	0.9365	0.5647	0.2815	0.071
Mof_H 	H 	0.636	0.7485	0.2496	0.079
Mof_H 	H 	0.8391	0.8521	0.2536	-0.012
Mof_H 	H 	0.7654	0.021	0.5052	0.089
Mof_H 	H 	0.6795	0.0228	0.5872	0.091
Mof_H 	H 	0.687	0.9051	0.667	0.14
Mof_H 	H 	0.551	0.8512	0.6233	0.135
Mof_H 	H 	0.5029	0.8747	0.508	0.112
Mof_H 	H 	0.6147	0.9275	0.4489	0.119
Mof_H 	H 	0.4633	0.1131	0.6922	-0.009
Mof_H 	H 	0.2591	0.0101	0.6953	0.087
Mof_H 	H 	0.5136	0.8624	0.8316	0.095
Mof_H 	H 	0.7093	0.9701	0.8241	-0.028
Mof_H 	H 	0.8712	0.8261	0.7904	-0.015
Mof_H 	H 	0.0635	0.9353	0.7815	0.07
Mof_H 	H 	0.364	0.7515	0.7496	0.08
Mof_H 	H 	0.1609	0.6479	0.7536	-0.011
Mof_C 	C 	0.7586	0.4945	0.9426	-0.281
Mof_C 	C 	0.6634	0.3624	0.8747	-0.358
Mof_C 	C 	0.7348	0.2789	0.8544	0.449
Mof_C 	C 	0.6082	0.3799	0.0128	-0.322
Mof_C 	C 	0.6419	0.2957	0.0531	0.405
Mof_C 	C 	0.4738	0.561	0.7799	0.067
Mof_C 	C 	0.351	0.5	0.7781	-0.147
Mof_C 	C 	0.3639	0.4237	0.737	0.063
Mof_C 	C 	0.5007	0.4131	0.698	-0.148
Mof_C 	C 	0.6171	0.4777	0.7031	0.075
Mof_C 	C 	0.9726	0.3111	0.7191	0.048
Mof_C 	C 	0.0867	0.3765	0.7232	-0.111
Mof_C 	C 	0.2363	0.355	0.7342	0.046
Mof_C 	C 	0.263	0.2684	0.7427	-0.123
Mof_C 	C 	0.1415	0.207	0.7398	0.066
Mof_C 	C 	0.2414	0.0055	0.4426	-0.254
Mof_C 	C 	0.3366	0.1376	0.3747	-0.357
Mof_C 	C 	0.2652	0.2211	0.3544	0.449
Mof_C 	C 	0.3918	0.1201	0.5128	-0.329
Mof_C 	C 	0.3581	0.2043	0.5531	0.407
Mof_C 	C 	0.5262	0.939	0.2799	0.043
Mof_C 	C 	0.649	-2.69328e-33	0.2781	-0.113
Mof_C 	C 	0.6361	0.0763	0.237	0.05
Mof_C 	C 	0.4993	0.0869	0.198	-0.142
Mof_C 	C 	0.3829	0.0223	0.2031	0.079
Mof_C 	C 	0.0274	0.1889	0.2191	0.05
Mof_C 	C 	0.9133	0.1235	0.2232	-0.115
Mof_C 	C 	0.7637	0.145	0.2342	0.053
Mof_C 	C 	0.737	0.2316	0.2427	-0.128
Mof_C 	C 	0.8585	0.293	0.2398	0.068
Mof_C 	C 	0.2414	0.5055	0.0574	-0.281
Mof_C 	C 	0.3366	0.6376	0.1253	-0.358
Mof_C 	C 	0.2652	0.7211	0.1456	0.449
Mof_C 	C 	0.3918	0.6201	0.9872	-0.321
Mof_C 	C 	0.3581	0.7043	0.9469	0.405
Mof_C 	C 	0.5262	0.439	0.2201	0.067
Mof_C 	C 	0.649	0.5	0.2219	-0.147
Mof_C 	C 	0.6361	0.5763	0.263	0.063
Mof_C 	C 	0.4993	0.5869	0.302	-0.148
Mof_C 	C 	0.3829	0.5223	0.2969	0.075
Mof_C 	C 	0.0274	0.6889	0.2809	0.049
Mof_C 	C 	0.9133	0.6235	0.2768	-0.112
Mof_C 	C 	0.7637	0.645	0.2658	0.046
Mof_C 	C 	0.737	0.7316	0.2573	-0.124
Mof_C 	C 	0.8585	0.793	0.2602	0.065
Mof_C 	C 	0.7586	0.9945	0.5574	-0.306
Mof_C 	C 	0.6634	0.8624	0.6253	-0.358
Mof_C 	C 	0.7348	0.7789	0.6456	0.449
Mof_C 	C 	0.6082	0.8799	0.4872	-0.331
Mof_C 	C 	0.6419	0.7957	0.4469	0.407
Mof_C 	C 	0.4738	0.061	0.7201	0.063
Mof_C 	C 	0.351	0	0.7219	-0.139
Mof_C 	C 	0.3639	0.9237	0.763	0.055
Mof_C 	C 	0.5007	0.9131	0.802	-0.142
Mof_C 	C 	0.6171	0.9777	0.7969	0.068
Mof_C 	C 	0.9726	0.8111	0.7809	0.047
Mof_C 	C 	0.0867	0.8765	0.7768	-0.111
Mof_C 	C 	0.2363	0.855	0.7658	0.048
Mof_C 	C 	0.263	0.7684	0.7573	-0.125
Mof_C 	C 	0.1415	0.707	0.7602	0.067
Mof_N 	N 	0.7163	0.40046	0.94939	-0.09
Mof_N 	N 	0.6071	0.55025	0.74423	-0.251
Mof_N 	N 	0.9972	0.22727	0.72802	-0.256
Mof_N 	N 	0.2837	0.09954	0.44939	-0.09
Mof_N 	N 	0.3929	0.94975	0.24423	-0.251
Mof_N 	N 	0.0028	0.27273	0.22802	-0.257
Mof_N 	N 	0.2837	0.59954	0.05061	-0.09
Mof_N 	N 	0.3929	0.44975	0.25577	-0.251
Mof_N 	N 	0.0028	0.77273	0.27198	-0.256
Mof_N 	N 	0.7163	0.90046	0.55061	-0.085
Mof_N 	N 	0.6071	0.05025	0.75577	-0.247
Mof_N 	N 	0.9972	0.72727	0.77198	-0.257
Mof_O 	O 	0.9182	0.5331	0.80932	-0.434
Mof_O 	O 	0.0421	0.58096	0.93448	-0.54
Mof_O 	O 	0.0129	0.42274	0.90311	-0.492
Mof_O 	O 	0.851	0.26053	0.89396	-0.573
Mof_O 	O 	0.6825	0.23443	0.79931	-0.451
Mof_O 	O 	0.7758	0.26937	0.04514	-0.513
Mof_O 	O 	0.5397	0.2584	0.09281	-0.316
Mof_O 	O 	0.0818	0.9669	0.30932	-0.437
Mof_O 	O 	0.9579	0.91904	0.43448	-0.548
Mof_O 	O 	0.9871	0.07726	0.40311	-0.495
Mof_O 	O 	0.149	0.23947	0.39396	-0.57
Mof_O 	O 	0.3175	0.26557	0.29931	-0.451
Mof_O 	O 	0.2242	0.23063	0.54514	-0.518
Mof_O 	O 	0.4603	0.2416	0.59281	-0.317
Mof_O 	O 	0.0818	0.4669	0.19068	-0.434
Mof_O 	O 	0.9579	0.41904	0.06552	-0.541
Mof_O 	O 	0.9871	0.57726	0.09689	-0.493
Mof_O 	O 	0.149	0.73947	0.10604	-0.574
Mof_O 	O 	0.3175	0.76557	0.20069	-0.452
Mof_O 	O 	0.2242	0.73063	0.95486	-0.514
Mof_O 	O 	0.4603	0.7416	0.90719	-0.316
Mof_O 	O 	0.9182	0.0331	0.69068	-0.435
Mof_O 	O 	0.0421	0.08096	0.56552	-0.548
Mof_O 	O 	0.0129	0.92274	0.59689	-0.502
Mof_O 	O 	0.851	0.76053	0.60604	-0.57
Mof_O 	O 	0.6825	0.73443	0.70069	-0.451
Mof_O 	O 	0.7758	0.76937	0.45486	-0.518
Mof_O 	O 	0.5397	0.7584	0.40719	-0.317
_end
