data_functionalizedCrystal
_audit_creation_method	'EQeq! by Chris Wilmer'
_symmetry_space_group_name_H-M	'P1'
_symmetry_Int_Tables_number	1
_symmetry_cell_setting	triclinic
loop_
_symmetry_equiv_pos_as_xyz
  x,y,z
_cell_length_a	14.595
_cell_length_b	14.595
_cell_length_c	15.267
_cell_angle_alpha	90
_cell_angle_beta	90
_cell_angle_gamma	120
loop_
_atom_site_label
_atom_site_type_symbol
_atom_site_fract_x
_atom_site_fract_y
_atom_site_fract_z
_atom_site_charge
Mof_Y 	Y 	0.33333	0.66666	0.25	1.603
Mof_Y 	Y 	0.66667	0.33334	0.25	1.602
Mof_Y 	Y 	0.66667	0.33334	0.75	1.612
Mof_Y 	Y 	0.33333	0.66666	0.75	1.612
Mof_Cu	Cu	0.5	0.5	-0	0.89
Mof_Cu	Cu	-0	0.5	-0	0.857
Mof_Cu	Cu	0.5	0	-0	0.857
Mof_Cu	Cu	1.66807e-17	0.5	0.5	0.915
Mof_Cu	Cu	0.5	0.5	0.5	0.949
Mof_Cu	Cu	0.5	-8.96309e-33	0.5	0.915
Mof_H 	H 	0.7965	0.1623	0.8396	0.124
Mof_H 	H 	0.7168	0.0873	0.768	0.085
Mof_H 	H 	0.3658	0.2035	0.8396	0.103
Mof_H 	H 	0.3705	0.2832	0.768	0.094
Mof_H 	H 	0.8377	0.6342	0.8396	0.141
Mof_H 	H 	0.9127	0.6295	0.768	0.135
Mof_H 	H 	0.2035	0.8377	0.8396	0.121
Mof_H 	H 	0.2832	0.9127	0.768	0.124
Mof_H 	H 	0.6342	0.7965	0.8396	0.143
Mof_H 	H 	0.6295	0.7168	0.768	0.116
Mof_H 	H 	0.1623	0.3658	0.8396	0.104
Mof_H 	H 	0.0873	0.3705	0.768	0.075
Mof_H 	H 	0.6342	0.8377	0.6604	0.126
Mof_H 	H 	0.6295	0.9127	0.732	0.136
Mof_H 	H 	0.1623	0.7965	0.6604	0.109
Mof_H 	H 	0.0873	0.7168	0.732	0.087
Mof_H 	H 	0.2035	0.3658	0.6604	0.087
Mof_H 	H 	0.2832	0.3705	0.732	0.095
Mof_H 	H 	0.3658	0.1623	0.6604	0.089
Mof_H 	H 	0.3705	0.0873	0.732	0.076
Mof_H 	H 	0.8377	0.2035	0.6604	0.105
Mof_H 	H 	0.9127	0.2832	0.732	0.125
Mof_H 	H 	0.7965	0.6342	0.6604	0.128
Mof_H 	H 	0.7168	0.6295	0.732	0.118
Mof_H 	H 	0.2035	0.8377	0.1604	0.085
Mof_H 	H 	0.2832	0.9127	0.232	0.116
Mof_H 	H 	0.6342	0.7965	0.1604	0.108
Mof_H 	H 	0.6295	0.7168	0.232	0.108
Mof_H 	H 	0.1623	0.3658	0.1604	0.068
Mof_H 	H 	0.0873	0.3705	0.232	0.065
Mof_H 	H 	0.7965	0.1623	0.1604	0.089
Mof_H 	H 	0.7168	0.0873	0.232	0.077
Mof_H 	H 	0.3658	0.2035	0.1604	0.066
Mof_H 	H 	0.3705	0.2832	0.232	0.085
Mof_H 	H 	0.8377	0.6342	0.1604	0.105
Mof_H 	H 	0.9127	0.6295	0.232	0.127
Mof_H 	H 	0.3658	0.1623	0.3396	0.083
Mof_H 	H 	0.3705	0.0873	0.268	0.065
Mof_H 	H 	0.8377	0.2035	0.3396	0.1
Mof_H 	H 	0.9127	0.2832	0.268	0.116
Mof_H 	H 	0.7965	0.6342	0.3396	0.123
Mof_H 	H 	0.7168	0.6295	0.268	0.108
Mof_H 	H 	0.6342	0.8377	0.3396	0.121
Mof_H 	H 	0.6295	0.9127	0.268	0.127
Mof_H 	H 	0.1623	0.7965	0.3396	0.104
Mof_H 	H 	0.0873	0.7168	0.268	0.077
Mof_H 	H 	0.2035	0.3658	0.3396	0.082
Mof_H 	H 	0.2832	0.3705	0.268	0.085
Mof_C 	C 	0.1311	0.6448	0.3611	0.418
Mof_C 	C 	0.8505	0.2635	0.6964	-0.223
Mof_C 	C 	0.5137	0.8689	0.3611	0.429
Mof_C 	C 	0.413	0.1495	0.6964	-0.199
Mof_C 	C 	0.3552	0.4863	0.3611	0.413
Mof_C 	C 	0.7365	0.587	0.6964	-0.238
Mof_C 	C 	0.8689	0.3552	0.3611	0.421
Mof_C 	C 	0.1495	0.7365	0.6964	-0.215
Mof_C 	C 	0.4863	0.1311	0.3611	0.409
Mof_C 	C 	0.587	0.8505	0.6964	-0.24
Mof_C 	C 	0.6448	0.5137	0.3611	0.429
Mof_C 	C 	0.2635	0.413	0.6964	-0.203
Mof_C 	C 	0.4863	0.3552	0.1389	0.41
Mof_C 	C 	0.587	0.7365	0.8036	-0.235
Mof_C 	C 	0.6448	0.1311	0.1389	0.415
Mof_C 	C 	0.2635	0.8505	0.8036	-0.22
Mof_C 	C 	0.8689	0.5137	0.1389	0.426
Mof_C 	C 	0.1495	0.413	0.8036	-0.196
Mof_C 	C 	0.5137	0.6448	0.1389	0.426
Mof_C 	C 	0.413	0.2635	0.8036	-0.201
Mof_C 	C 	0.3552	0.8689	0.1389	0.418
Mof_C 	C 	0.7365	0.1495	0.8036	-0.213
Mof_C 	C 	0.1311	0.4863	0.1389	0.406
Mof_C 	C 	0.8505	0.587	0.8036	-0.238
Mof_C 	C 	0.8689	0.3552	0.6389	0.425
Mof_C 	C 	0.1495	0.7365	0.3036	-0.206
Mof_C 	C 	0.4863	0.1311	0.6389	0.413
Mof_C 	C 	0.587	0.8505	0.3036	-0.231
Mof_C 	C 	0.6448	0.5137	0.6389	0.433
Mof_C 	C 	0.2635	0.413	0.3036	-0.194
Mof_C 	C 	0.1311	0.6448	0.6389	0.422
Mof_C 	C 	0.8505	0.2635	0.3036	-0.214
Mof_C 	C 	0.5137	0.8689	0.6389	0.433
Mof_C 	C 	0.413	0.1495	0.3036	-0.189
Mof_C 	C 	0.3552	0.4863	0.6389	0.417
Mof_C 	C 	0.7365	0.587	0.3036	-0.229
Mof_C 	C 	0.5137	0.6448	0.8611	0.43
Mof_C 	C 	0.413	0.2635	0.1964	-0.193
Mof_C 	C 	0.3552	0.8689	0.8611	0.422
Mof_C 	C 	0.7365	0.1495	0.1964	-0.205
Mof_C 	C 	0.1311	0.4863	0.8611	0.411
Mof_C 	C 	0.8505	0.587	0.1964	-0.23
Mof_C 	C 	0.4863	0.3552	0.8611	0.414
Mof_C 	C 	0.587	0.7365	0.1964	-0.228
Mof_C 	C 	0.6448	0.1311	0.8611	0.418
Mof_C 	C 	0.2635	0.8505	0.1964	-0.213
Mof_C 	C 	0.8689	0.5137	0.8611	0.43
Mof_C 	C 	0.1495	0.413	0.1964	-0.188
Mof_O 	O 	0.196	0.6123	0.35495	-0.415
Mof_O 	O 	0.0536	0.6105	0.4105	-0.435
Mof_O 	O 	0.4163	0.804	0.35495	-0.401
Mof_O 	O 	0.5569	0.9464	0.4105	-0.372
Mof_O 	O 	0.3877	0.5837	0.35495	-0.407
Mof_O 	O 	0.3895	0.4431	0.4105	-0.415
Mof_O 	O 	0.804	0.3877	0.35495	-0.399
Mof_O 	O 	0.9464	0.3895	0.4105	-0.375
Mof_O 	O 	0.5837	0.196	0.35495	-0.413
Mof_O 	O 	0.4431	0.0536	0.4105	-0.438
Mof_O 	O 	0.6123	0.4163	0.35495	-0.411
Mof_O 	O 	0.6105	0.5569	0.4105	-0.409
Mof_O 	O 	0.5837	0.3877	0.14505	-0.425
Mof_O 	O 	0.4431	0.3895	0.0895	-0.448
Mof_O 	O 	0.6123	0.196	0.14505	-0.434
Mof_O 	O 	0.6105	0.0536	0.0895	-0.468
Mof_O 	O 	0.804	0.4163	0.14505	-0.419
Mof_O 	O 	0.9464	0.5569	0.0895	-0.404
Mof_O 	O 	0.4163	0.6123	0.14505	-0.429
Mof_O 	O 	0.5569	0.6105	0.0895	-0.442
Mof_O 	O 	0.3877	0.804	0.14505	-0.417
Mof_O 	O 	0.3895	0.9464	0.0895	-0.407
Mof_O 	O 	0.196	0.5837	0.14505	-0.432
Mof_O 	O 	0.0536	0.4431	0.0895	-0.471
Mof_O 	O 	0.804	0.3877	0.64505	-0.401
Mof_O 	O 	0.9464	0.3895	0.5895	-0.376
Mof_O 	O 	0.5837	0.196	0.64505	-0.416
Mof_O 	O 	0.4431	0.0536	0.5895	-0.439
Mof_O 	O 	0.6123	0.4163	0.64505	-0.413
Mof_O 	O 	0.6105	0.5569	0.5895	-0.41
Mof_O 	O 	0.196	0.6123	0.64505	-0.418
Mof_O 	O 	0.0536	0.6105	0.5895	-0.436
Mof_O 	O 	0.4163	0.804	0.64505	-0.403
Mof_O 	O 	0.5569	0.9464	0.5895	-0.373
Mof_O 	O 	0.3877	0.5837	0.64505	-0.409
Mof_O 	O 	0.3895	0.4431	0.5895	-0.416
Mof_O 	O 	0.4163	0.6123	0.85495	-0.388
Mof_O 	O 	0.5569	0.6105	0.9105	-0.353
Mof_O 	O 	0.3877	0.804	0.85495	-0.377
Mof_O 	O 	0.3895	0.9464	0.9105	-0.32
Mof_O 	O 	0.196	0.5837	0.85495	-0.391
Mof_O 	O 	0.0536	0.4431	0.9105	-0.38
Mof_O 	O 	0.5837	0.3877	0.85495	-0.384
Mof_O 	O 	0.4431	0.3895	0.9105	-0.357
Mof_O 	O 	0.6123	0.196	0.85495	-0.392
Mof_O 	O 	0.6105	0.0536	0.9105	-0.378
Mof_O 	O 	0.804	0.4163	0.85495	-0.379
Mof_O 	O 	0.9464	0.5569	0.9105	-0.317
Mof_O 	O 	0.7638	0.2362	0.75	-0.187
Mof_O 	O 	0.4724	0.2362	0.75	-0.198
Mof_O 	O 	0.7638	0.5276	0.75	-0.174
Mof_O 	O 	0.2362	0.7638	0.75	-0.187
Mof_O 	O 	0.5276	0.7638	0.75	-0.174
Mof_O 	O 	0.2362	0.4724	0.75	-0.199
Mof_O 	O 	0.2362	0.7638	0.25	-0.194
Mof_O 	O 	0.5276	0.7638	0.25	-0.182
Mof_O 	O 	0.2362	0.4724	0.25	-0.206
Mof_O 	O 	0.7638	0.2362	0.25	-0.194
Mof_O 	O 	0.4724	0.2362	0.25	-0.206
Mof_O 	O 	0.7638	0.5276	0.25	-0.182
_end
