data_functionalizedCrystal
_audit_creation_method	'EQeq! by Chris Wilmer'
_symmetry_space_group_name_H-M	'P1'
_symmetry_Int_Tables_number	1
_symmetry_cell_setting	triclinic
loop_
_symmetry_equiv_pos_as_xyz
  x,y,z
_cell_length_a	15.4724
_cell_length_b	14.1459
_cell_length_c	24.04
_cell_angle_alpha	90
_cell_angle_beta	90.188
_cell_angle_gamma	90
loop_
_atom_site_label
_atom_site_type_symbol
_atom_site_fract_x
_atom_site_fract_y
_atom_site_fract_z
_atom_site_charge
Mof_C 	C 	0.3716	0.0084	0.425	0.413
Mof_C 	C 	0.3357	0.0533	0.373	-0.151
Mof_C 	C 	0.3685	0.1394	0.3542	0.054
Mof_H 	H 	0.4125	0.1702	0.3751	0.011
Mof_C 	C 	0.3398	0.1787	0.3082	-0.116
Mof_H 	H 	0.3624	0.238	0.2967	0.072
Mof_C 	C 	0.2754	0.1338	0.2754	0.017
Mof_C 	C 	0.2425	0.0479	0.2952	-0.097
Mof_C 	C 	0.2724	0.0043	0.3439	0.008
Mof_H 	H 	0.2507	0.9451	0.3562	0.041
Mof_C 	C 	0.074	0.1751	0.0778	0.622
Mof_C 	C 	0.1308	0.1653	0.1277	-0.295
Mof_C 	C 	0.1891	0.2337	0.1413	0.14
Mof_H 	H 	0.1942	0.2866	0.1172	-0.019
Mof_C 	C 	0.2435	0.2306	0.1899	-0.2
Mof_H 	H 	0.2854	0.2777	0.1979	0.099
Mof_C 	C 	0.2303	0.1572	0.2221	0.095
Mof_C 	C 	0.1724	0.0846	0.2095	-0.158
Mof_C 	C 	0.1214	0.0872	0.1646	0.125
Mof_H 	H 	0.0803	0.0387	0.1575	-0.036
Mof_C 	C 	0.1761	0.0026	0.2551	0.266
Mof_C 	C 	0.0908	0.9982	0.2826	-0.434
Mof_H 	H 	0.0966	0.0189	0.3214	0.122
Mof_H 	H 	0.0692	0.9331	0.2817	0.15
Mof_H 	H 	0.0501	0.0397	0.2631	0.117
Mof_C 	C 	0.4643	0.6819	0.5915	0.593
Mof_C 	C 	0.4165	0.6868	0.6448	-0.317
Mof_C 	C 	0.3951	0.7711	0.6683	0.18
Mof_H 	H 	0.4116	0.8279	0.6501	-0.057
Mof_C 	C 	0.3499	0.7766	0.7179	-0.221
Mof_H 	H 	0.3431	0.8357	0.7361	0.109
Mof_C 	C 	0.3158	0.6976	0.7402	0.096
Mof_C 	C 	0.3415	0.6072	0.7182	-0.193
Mof_C 	C 	0.3896	0.6044	0.6712	0.167
Mof_H 	H 	0.4053	0.5449	0.6559	-0.044
Mof_C 	C 	0.1057	0.5725	0.9193	0.517
Mof_C 	C 	0.1615	0.6081	0.8727	-0.215
Mof_C 	C 	0.1672	0.7068	0.8655	0.086
Mof_H 	H 	0.1356	0.7483	0.8889	-0.009
Mof_C 	C 	0.2199	0.7428	0.8236	-0.14
Mof_H 	H 	0.2246	0.809	0.8179	0.064
Mof_C 	C 	0.2656	0.6795	0.7898	0.051
Mof_C 	C 	0.2536	0.5837	0.7948	-0.161
Mof_C 	C 	0.2022	0.5483	0.8387	0.123
Mof_H 	H 	0.1967	0.482	0.844	-0.012
Mof_C 	C 	0.2973	0.5304	0.7516	0.356
Mof_C 	C 	0.3636	0.4543	0.77	-0.652
Mof_H 	H 	0.3329	0.3998	0.7854	0.214
Mof_H 	H 	0.4022	0.4809	0.7983	0.205
Mof_H 	H 	0.3976	0.4342	0.7378	0.204
Mof_Eu	Eu	0.44398	0.87368	0.50845	2.432
Mof_O 	O 	0.339	0.932	0.4436	-0.523
Mof_O 	O 	0.4374	0.042	0.4512	-0.645
Mof_O 	O 	0.0857	0.2434	0.0468	-0.68
Mof_O 	O 	0.0225	0.1122	0.0657	-0.663
Mof_O 	O 	0.2027	0.9217	0.2327	-0.344
Mof_H 	H 	0.2642	0.9111	0.225	0.162
Mof_O 	O 	0.4891	0.7576	0.57	-0.649
Mof_O 	O 	0.4768	0.6025	0.5685	-0.674
Mof_O 	O 	0.0502	0.6278	0.9401	-0.6
Mof_O 	O 	0.1165	0.4848	0.9317	-0.612
Mof_O 	O 	0.2364	0.4905	0.7174	-0.369
Mof_H 	H 	0.2626	0.4579	0.6868	0.153
Mof_C 	C 	0.1284	0.5084	0.075	0.45
Mof_C 	C 	0.1643	0.5533	0.127	-0.2
Mof_C 	C 	0.1315	0.6394	0.1458	0.093
Mof_H 	H 	0.0875	0.6702	0.1249	-0.016
Mof_C 	C 	0.1602	0.6787	0.1918	-0.152
Mof_H 	H 	0.1376	0.738	0.2033	0.078
Mof_C 	C 	0.2246	0.6338	0.2246	0.045
Mof_C 	C 	0.2575	0.5479	0.2048	-0.157
Mof_C 	C 	0.2276	0.5043	0.1561	0.086
Mof_H 	H 	0.2493	0.4451	0.1438	0.002
Mof_C 	C 	0.426	0.6751	0.4222	0.636
Mof_C 	C 	0.3692	0.6653	0.3723	-0.299
Mof_C 	C 	0.3109	0.7337	0.3587	0.149
Mof_H 	H 	0.3058	0.7866	0.3828	-0.019
Mof_C 	C 	0.2565	0.7306	0.3101	-0.202
Mof_H 	H 	0.2146	0.7777	0.3021	0.099
Mof_C 	C 	0.2697	0.6572	0.2779	0.099
Mof_C 	C 	0.3276	0.5846	0.2905	-0.189
Mof_C 	C 	0.3786	0.5872	0.3354	0.148
Mof_H 	H 	0.4197	0.5387	0.3425	-0.031
Mof_C 	C 	0.3239	0.5026	0.2449	0.396
Mof_C 	C 	0.4092	0.4982	0.2174	-0.72
Mof_H 	H 	0.4034	0.5189	0.1786	0.223
Mof_H 	H 	0.4308	0.4331	0.2183	0.237
Mof_H 	H 	0.4499	0.5397	0.2369	0.226
Mof_C 	C 	0.0357	0.1819	0.9085	0.574
Mof_C 	C 	0.0835	0.1868	0.8552	-0.313
Mof_C 	C 	0.1049	0.2711	0.8317	0.174
Mof_H 	H 	0.0884	0.3279	0.8499	-0.063
Mof_C 	C 	0.1501	0.2766	0.7821	-0.225
Mof_H 	H 	0.1569	0.3357	0.7639	0.103
Mof_C 	C 	0.1842	0.1976	0.7598	0.096
Mof_C 	C 	0.1585	0.1072	0.7818	-0.183
Mof_C 	C 	0.1104	0.1044	0.8288	0.151
Mof_H 	H 	0.0947	0.0449	0.8441	-0.047
Mof_C 	C 	0.3943	0.0725	0.5807	0.484
Mof_C 	C 	0.3385	0.1081	0.6273	-0.181
Mof_C 	C 	0.3328	0.2068	0.6345	0.059
Mof_H 	H 	0.3644	0.2483	0.6111	-0.001
Mof_C 	C 	0.2801	0.2428	0.6764	-0.12
Mof_H 	H 	0.2754	0.309	0.6821	0.053
Mof_C 	C 	0.2344	0.1795	0.7102	0.025
Mof_C 	C 	0.2464	0.0837	0.7052	-0.122
Mof_C 	C 	0.2978	0.0483	0.6613	0.057
Mof_H 	H 	0.3033	0.982	0.656	0.019
Mof_C 	C 	0.2027	0.0304	0.7484	0.289
Mof_C 	C 	0.1364	0.9543	0.73	-0.558
Mof_H 	H 	0.1671	0.8998	0.7146	0.181
Mof_H 	H 	0.0978	0.9809	0.7017	0.165
Mof_H 	H 	0.1024	0.9342	0.7622	0.168
Mof_Eu	Eu	0.05602	0.37368	0.99155	2.463
Mof_O 	O 	0.161	0.432	0.0564	-0.561
Mof_O 	O 	0.0626	0.542	0.0488	-0.681
Mof_O 	O 	0.4143	0.7434	0.4532	-0.66
Mof_O 	O 	0.4775	0.6122	0.4343	-0.677
Mof_O 	O 	0.2973	0.4217	0.2673	-0.39
Mof_H 	H 	0.2358	0.4111	0.275	0.164
Mof_O 	O 	0.0109	0.2576	0.93	-0.657
Mof_O 	O 	0.0232	0.1025	0.9315	-0.628
Mof_O 	O 	0.4498	0.1278	0.5599	-0.589
Mof_O 	O 	0.3835	0.9848	0.5683	-0.595
Mof_O 	O 	0.2636	0.9905	0.7826	-0.332
Mof_H 	H 	0.2374	0.9579	0.8132	0.155
Mof_C 	C 	0.6284	0.9916	0.575	0.471
Mof_C 	C 	0.6643	0.9467	0.627	-0.207
Mof_C 	C 	0.6315	0.8606	0.6458	0.11
Mof_H 	H 	0.5875	0.8298	0.6249	-0.005
Mof_C 	C 	0.6602	0.8213	0.6918	-0.159
Mof_H 	H 	0.6376	0.762	0.7033	0.089
Mof_C 	C 	0.7246	0.8662	0.7246	0.065
Mof_C 	C 	0.7575	0.9521	0.7048	-0.185
Mof_C 	C 	0.7276	0.9957	0.6561	0.128
Mof_H 	H 	0.7493	0.0549	0.6438	-0.014
Mof_C 	C 	0.926	0.8249	0.9222	0.604
Mof_C 	C 	0.8692	0.8347	0.8723	-0.264
Mof_C 	C 	0.8109	0.7663	0.8587	0.138
Mof_H 	H 	0.8058	0.7134	0.8828	-0.007
Mof_C 	C 	0.7565	0.7694	0.8101	-0.186
Mof_H 	H 	0.7146	0.7223	0.8021	0.099
Mof_C 	C 	0.7697	0.8428	0.7779	0.097
Mof_C 	C 	0.8276	0.9154	0.7905	-0.19
Mof_C 	C 	0.8786	0.9128	0.8354	0.144
Mof_H 	H 	0.9197	0.9613	0.8425	-0.008
Mof_C 	C 	0.8239	0.9974	0.7449	0.465
Mof_C 	C 	0.9092	0.0018	0.7174	-0.878
Mof_H 	H 	0.9034	0.9811	0.6786	0.286
Mof_H 	H 	0.9308	0.0669	0.7183	0.296
Mof_H 	H 	0.9499	0.9603	0.7369	0.293
Mof_C 	C 	0.5357	0.3181	0.4085	0.593
Mof_C 	C 	0.5835	0.3132	0.3552	-0.315
Mof_C 	C 	0.6049	0.2289	0.3317	0.18
Mof_H 	H 	0.5884	0.1721	0.3499	-0.057
Mof_C 	C 	0.6501	0.2234	0.2821	-0.221
Mof_H 	H 	0.6569	0.1643	0.2639	0.106
Mof_C 	C 	0.6842	0.3024	0.2598	0.099
Mof_C 	C 	0.6585	0.3928	0.2818	-0.189
Mof_C 	C 	0.6104	0.3956	0.3288	0.166
Mof_H 	H 	0.5947	0.4551	0.3441	-0.042
Mof_C 	C 	0.8943	0.4275	0.0807	0.511
Mof_C 	C 	0.8385	0.3919	0.1273	-0.204
Mof_C 	C 	0.8328	0.2932	0.1345	0.08
Mof_H 	H 	0.8644	0.2517	0.1111	0.002
Mof_C 	C 	0.7801	0.2572	0.1764	-0.131
Mof_H 	H 	0.7754	0.191	0.1821	0.06
Mof_C 	C 	0.7344	0.3205	0.2102	0.045
Mof_C 	C 	0.7464	0.4163	0.2052	-0.152
Mof_C 	C 	0.7978	0.4517	0.1613	0.117
Mof_H 	H 	0.8033	0.518	0.156	-0.009
Mof_C 	C 	0.7027	0.4696	0.2484	0.348
Mof_C 	C 	0.6364	0.5457	0.23	-0.639
Mof_H 	H 	0.6671	0.6002	0.2146	0.207
Mof_H 	H 	0.5978	0.5191	0.2017	0.195
Mof_H 	H 	0.6024	0.5658	0.2622	0.199
Mof_Eu	Eu	0.55602	0.12632	0.49155	2.418
Mof_O 	O 	0.661	0.068	0.5564	-0.548
Mof_O 	O 	0.5626	0.958	0.5488	-0.647
Mof_O 	O 	0.9143	0.7566	0.9532	-0.606
Mof_O 	O 	0.9775	0.8878	0.9343	-0.574
Mof_O 	O 	0.7973	0.0783	0.7673	-0.41
Mof_H 	H 	0.7358	0.0889	0.775	0.176
Mof_O 	O 	0.5109	0.2424	0.43	-0.649
Mof_O 	O 	0.5232	0.3975	0.4315	-0.674
Mof_O 	O 	0.9498	0.3722	0.0599	-0.58
Mof_O 	O 	0.8835	0.5152	0.0683	-0.606
Mof_O 	O 	0.7636	0.5095	0.2826	-0.355
Mof_H 	H 	0.7374	0.5421	0.3132	0.156
Mof_C 	C 	0.8716	0.4916	0.925	0.444
Mof_C 	C 	0.8357	0.4467	0.873	-0.168
Mof_C 	C 	0.8685	0.3606	0.8542	0.082
Mof_H 	H 	0.9125	0.3298	0.8751	0.024
Mof_C 	C 	0.8398	0.3213	0.8082	-0.128
Mof_H 	H 	0.8624	0.262	0.7967	0.088
Mof_C 	C 	0.7754	0.3662	0.7754	0.044
Mof_C 	C 	0.7425	0.4521	0.7952	-0.148
Mof_C 	C 	0.7724	0.4957	0.8439	0.079
Mof_H 	H 	0.7507	0.5549	0.8562	0.011
Mof_C 	C 	0.574	0.3249	0.5778	0.637
Mof_C 	C 	0.6308	0.3347	0.6277	-0.297
Mof_C 	C 	0.6891	0.2663	0.6413	0.152
Mof_H 	H 	0.6942	0.2134	0.6172	-0.016
Mof_C 	C 	0.7435	0.2694	0.6899	-0.202
Mof_H 	H 	0.7854	0.2223	0.6979	0.105
Mof_C 	C 	0.7303	0.3428	0.7221	0.107
Mof_C 	C 	0.6724	0.4154	0.7095	-0.189
Mof_C 	C 	0.6214	0.4128	0.6646	0.151
Mof_H 	H 	0.5803	0.4613	0.6575	-0.03
Mof_C 	C 	0.6761	0.4974	0.7551	0.401
Mof_C 	C 	0.5908	0.5018	0.7826	-0.734
Mof_H 	H 	0.5966	0.4811	0.8214	0.234
Mof_H 	H 	0.5692	0.5669	0.7817	0.245
Mof_H 	H 	0.5501	0.4603	0.7631	0.232
Mof_C 	C 	0.9643	0.8181	0.0915	0.563
Mof_C 	C 	0.9165	0.8132	0.1448	-0.286
Mof_C 	C 	0.8951	0.7289	0.1683	0.166
Mof_H 	H 	0.9116	0.6721	0.1501	-0.043
Mof_C 	C 	0.8499	0.7234	0.2179	-0.203
Mof_H 	H 	0.8431	0.6643	0.2361	0.106
Mof_C 	C 	0.8158	0.8024	0.2402	0.089
Mof_C 	C 	0.8415	0.8928	0.2182	-0.186
Mof_C 	C 	0.8896	0.8956	0.1712	0.159
Mof_H 	H 	0.9053	0.9551	0.1559	-0.024
Mof_C 	C 	0.6057	0.9275	0.4193	0.541
Mof_C 	C 	0.6615	0.8919	0.3727	-0.235
Mof_C 	C 	0.6672	0.7932	0.3655	0.106
Mof_H 	H 	0.6356	0.7517	0.3889	-0.013
Mof_C 	C 	0.7199	0.7572	0.3236	-0.153
Mof_H 	H 	0.7246	0.691	0.3179	0.069
Mof_C 	C 	0.7656	0.8205	0.2898	0.071
Mof_C 	C 	0.7536	0.9163	0.2948	-0.185
Mof_C 	C 	0.7022	0.9517	0.3387	0.171
Mof_H 	H 	0.6967	0.018	0.344	-0.033
Mof_C 	C 	0.7973	0.9696	0.2516	0.397
Mof_C 	C 	0.8636	0.0457	0.27	-0.716
Mof_H 	H 	0.8329	0.1002	0.2854	0.236
Mof_H 	H 	0.9022	0.0191	0.2983	0.234
Mof_H 	H 	0.8976	0.0658	0.2378	0.235
Mof_Eu	Eu	0.94398	0.62632	0.00845	2.373
Mof_O 	O 	0.839	0.568	0.9436	-0.511
Mof_O 	O 	0.9374	0.458	0.9512	-0.604
Mof_O 	O 	0.5857	0.2566	0.5468	-0.656
Mof_O 	O 	0.5225	0.3878	0.5657	-0.678
Mof_O 	O 	0.7027	0.5783	0.7327	-0.391
Mof_H 	H 	0.7642	0.5889	0.725	0.175
Mof_O 	O 	0.9891	0.7424	0.07	-0.617
Mof_O 	O 	0.9768	0.8975	0.0685	-0.599
Mof_O 	O 	0.5502	0.8722	0.4401	-0.596
Mof_O 	O 	0.6165	0.0152	0.4317	-0.623
Mof_O 	O 	0.7364	0.0095	0.2174	-0.383
Mof_H 	H 	0.7626	0.0421	0.1868	0.158
Mof_Eu	Eu	0.5	0.5	0.5	2.142
Mof_Eu	Eu	-0	0	-0	1.831
_end
