data_functionalizedCrystal
_audit_creation_method	'EQeq! by Chris Wilmer'
_symmetry_space_group_name_H-M	'P1'
_symmetry_Int_Tables_number	1
_symmetry_cell_setting	triclinic
loop_
_symmetry_equiv_pos_as_xyz
  x,y,z
_cell_length_a	7.3256
_cell_length_b	7.3256
_cell_length_c	24.3944
_cell_angle_alpha	90
_cell_angle_beta	90
_cell_angle_gamma	120
loop_
_atom_site_label
_atom_site_type_symbol
_atom_site_fract_x
_atom_site_fract_y
_atom_site_fract_z
_atom_site_charge
Mof_O 	O 	0.3383	0.4513	0.13233	-0.351
Mof_O 	O 	0.9211	0.2979	0.9646	-0.302
Mof_O 	O 	0.1416	0.4192	0.03432	-0.348
Mof_C 	C 	0.0334	0.4313	0.9987	0.422
Mof_H 	H 	0.035	0.5589	0.9968	-0.079
Mof_O 	O 	0.5487	0.887	0.46566	-0.315
Mof_O 	O 	0.7021	0.6232	0.29793	-0.325
Mof_O 	O 	0.5808	0.7224	0.36765	-0.331
Mof_C 	C 	0.5687	0.6021	0.33203	0.451
Mof_H 	H 	0.4411	0.4761	0.33013	-0.087
Mof_O 	O 	0.113	0.6617	0.799	-0.336
Mof_O 	O 	0.3768	0.0789	0.63127	-0.356
Mof_O 	O 	0.2776	0.8584	0.70099	-0.349
Mof_C 	C 	0.3979	0.9666	0.66537	0.483
Mof_H 	H 	0.5239	0.965	0.66347	-0.089
Mof_O 	O 	0.6617	0.5487	0.63233	-0.339
Mof_O 	O 	0.0789	0.7021	0.4646	-0.349
Mof_O 	O 	0.8584	0.5808	0.53432	-0.341
Mof_C 	C 	0.9666	0.5687	0.4987	0.482
Mof_H 	H 	0.965	0.4411	0.4968	-0.091
Mof_O 	O 	0.4513	0.113	0.96566	-0.327
Mof_O 	O 	0.2979	0.3768	0.79793	-0.338
Mof_O 	O 	0.4192	0.2776	0.86765	-0.346
Mof_C 	C 	0.4313	0.3979	0.83203	0.452
Mof_H 	H 	0.5589	0.5239	0.83013	-0.083
Mof_O 	O 	0.887	0.3383	0.299	-0.323
Mof_O 	O 	0.6232	0.9211	0.13127	-0.296
Mof_O 	O 	0.7224	0.1416	0.20099	-0.327
Mof_C 	C 	0.6021	0.0334	0.16537	0.4
Mof_H 	H 	0.4761	0.035	0.16347	-0.078
Mof_O 	O 	0.4513	0.3383	0.201	-0.352
Mof_O 	O 	0.2979	0.9211	0.36873	-0.302
Mof_O 	O 	0.4192	0.1416	0.29901	-0.335
Mof_C 	C 	0.4313	0.0334	0.33463	0.399
Mof_H 	H 	0.5589	0.035	0.33653	-0.076
Mof_O 	O 	0.887	0.5487	0.86767	-0.314
Mof_O 	O 	0.6232	0.7021	0.0354	-0.321
Mof_O 	O 	0.7224	0.5808	0.96568	-0.316
Mof_C 	C 	0.6021	0.5687	0.0013	0.428
Mof_H 	H 	0.4761	0.4411	0.0032	-0.083
Mof_O 	O 	0.6617	0.113	0.53434	-0.337
Mof_O 	O 	0.0789	0.3768	0.70207	-0.357
Mof_O 	O 	0.8584	0.2776	0.63235	-0.349
Mof_C 	C 	0.9666	0.3979	0.66797	0.484
Mof_H 	H 	0.965	0.5239	0.66987	-0.089
Mof_O 	O 	0.5487	0.6617	0.701	-0.34
Mof_O 	O 	0.7021	0.0789	0.86873	-0.346
Mof_O 	O 	0.5808	0.8584	0.79901	-0.341
Mof_C 	C 	0.5687	0.9666	0.83463	0.48
Mof_H 	H 	0.4411	0.965	0.83653	-0.09
Mof_O 	O 	0.113	0.4513	0.36767	-0.343
Mof_O 	O 	0.3768	0.2979	0.5354	-0.339
Mof_O 	O 	0.2776	0.4192	0.46568	-0.347
Mof_C 	C 	0.3979	0.4313	0.5013	0.452
Mof_H 	H 	0.5239	0.5589	0.5032	-0.083
Mof_O 	O 	0.3383	0.887	0.03434	-0.32
Mof_O 	O 	0.9211	0.6232	0.20207	-0.296
Mof_O 	O 	0.1416	0.7224	0.13235	-0.328
Mof_C 	C 	0.0334	0.6021	0.16797	0.401
Mof_H 	H 	0.035	0.4761	0.16987	-0.078
Mof_Cu	Cu	0.36473	0.68237	0.08333	0.956
Mof_Cu	Cu	0.31764	0.68236	0.41667	0.957
Mof_Cu	Cu	0.31764	0.63527	0.75	0.958
Mof_Cu	Cu	0.63527	0.31764	0.58333	0.958
Mof_Cu	Cu	0.68237	0.31764	0.91667	0.958
Mof_Cu	Cu	0.68236	0.36473	0.25	0.957
Mof_C 	C 	0.4742	0.4742	0.16667	0.425
Mof_H 	H 	0.6011	0.6011	0.16667	-0.076
Mof_C 	C 	0.5258	-4.45321e-32	0.5	0.381
Mof_H 	H 	0.3989	-4.45321e-32	0.5	-0.074
Mof_C 	C 	1.11306e-17	0.5258	0.83333	0.379
Mof_H 	H 	3.62e-17	0.3989	0.83333	-0.073
Mof_C 	C 	0.5258	0.5258	0.66667	0.422
Mof_H 	H 	0.3989	0.3989	0.66667	-0.08
Mof_C 	C 	0.4742	0	-0	0.361
Mof_H 	H 	0.6011	0	-0	-0.068
Mof_C 	C 	1.44808e-17	0.4742	0.33333	0.385
Mof_H 	H 	1.44808e-17	0.6011	0.33333	-0.072
_end
