# CIF file generated by openbabel 3.1.0, see https://openbabel.org
data_I
_chemical_name_common 'image0'
_cell_length_a 10.24
_cell_length_b 13.772
_cell_length_c 16.7
_cell_angle_alpha 90
_cell_angle_beta 127.046
_cell_angle_gamma 90
_space_group_name_H-M_alt 'P 1'
_space_group_name_Hall 'P 1'
loop_
    _symmetry_equiv_pos_as_xyz
    x,y,z
loop_
    _atom_site_label
    _atom_site_type_symbol
    _atom_site_fract_x
    _atom_site_fract_y
    _atom_site_fract_z
    _atom_site_occupancy
    Cd1      Cd       0.58220    0.42413    0.93814    1.000
    O1       O        0.68050    0.54580    0.05330    1.000
    O2       O        0.66660    0.64800    0.14840    1.000
    O3       O        0.20080    0.54710    0.07730    1.000
    O4       O        0.38760    0.65690    0.17430    1.000
    O5       O        0.36600    0.83320    0.42730    1.000
    O6       O        0.17110    0.79410    0.44080    1.000
    C1       C        0.74000    0.60960    0.11790    1.000
    C2       C        0.91280    0.64400    0.16610    1.000
    C3       C        0.99850    0.61520    0.13050    1.000
    H1       H        0.94850    0.57530    0.07440    1.000
    C4       C        0.15820    0.64540    0.17800    1.000
    C5       C        0.25350    0.61450    0.14020    1.000
    C6       C        0.23310    0.70390    0.26090    1.000
    H2       H        0.33910    0.72590    0.29140    1.000
    C7       C        0.14840    0.73050    0.29990    1.000
    C8       C        0.23470    0.79030    0.39570    1.000
    C9       C        0.99100    0.70110    0.25340    1.000
    H3       H        0.93550    0.71880    0.27930    1.000
    Cd2      Cd       0.41780    0.92413    0.56186    1.000
    O7       O        0.31950    0.04580    0.44670    1.000
    O8       O        0.33340    0.14800    0.35160    1.000
    O9       O        0.79920    0.04710    0.42270    1.000
    O10      O        0.61240    0.15690    0.32570    1.000
    O11      O        0.63400    0.33320    0.07270    1.000
    O12      O        0.82890    0.29410    0.05920    1.000
    C10      C        0.26000    0.10960    0.38210    1.000
    C11      C        0.08720    0.14400    0.33390    1.000
    C12      C        0.00150    0.11520    0.36950    1.000
    H4       H        0.05150    0.07530    0.42560    1.000
    C13      C        0.84180    0.14540    0.32200    1.000
    C14      C        0.74650    0.11450    0.35980    1.000
    C15      C        0.76690    0.20390    0.23910    1.000
    H5       H        0.66090    0.22590    0.20860    1.000
    C16      C        0.85160    0.23050    0.20010    1.000
    C17      C        0.76530    0.29030    0.10430    1.000
    C18      C        0.00900    0.20110    0.24660    1.000
    H6       H        0.06450    0.21880    0.22070    1.000
    Cd3      Cd       0.41780    0.57587    0.06186    1.000
    O13      O        0.31950    0.45420    0.94670    1.000
    O14      O        0.33340    0.35200    0.85160    1.000
    O15      O        0.79920    0.45290    0.92270    1.000
    O16      O        0.61240    0.34310    0.82570    1.000
    O17      O        0.63400    0.16680    0.57270    1.000
    O18      O        0.82890    0.20590    0.55920    1.000
    C19      C        0.26000    0.39040    0.88210    1.000
    C20      C        0.08720    0.35600    0.83390    1.000
    C21      C        0.00150    0.38480    0.86950    1.000
    H7       H        0.05150    0.42470    0.92560    1.000
    C22      C        0.84180    0.35460    0.82200    1.000
    C23      C        0.74650    0.38550    0.85980    1.000
    C24      C        0.76690    0.29610    0.73910    1.000
    H8       H        0.66090    0.27410    0.70860    1.000
    C25      C        0.85160    0.26950    0.70010    1.000
    C26      C        0.76530    0.20970    0.60430    1.000
    C27      C        0.00900    0.29890    0.74660    1.000
    H9       H        0.06450    0.28120    0.72070    1.000
    Cd4      Cd       0.58220    0.07587    0.43814    1.000
    O19      O        0.68050    0.95420    0.55330    1.000
    O20      O        0.66660    0.85200    0.64840    1.000
    O21      O        0.20080    0.95290    0.57730    1.000
    O22      O        0.38760    0.84310    0.67430    1.000
    O23      O        0.36600    0.66680    0.92730    1.000
    O24      O        0.17110    0.70590    0.94080    1.000
    C28      C        0.74000    0.89040    0.61790    1.000
    C29      C        0.91280    0.85600    0.66610    1.000
    C30      C        0.99850    0.88480    0.63050    1.000
    H10      H        0.94850    0.92470    0.57440    1.000
    C31      C        0.15820    0.85460    0.67800    1.000
    C32      C        0.25350    0.88550    0.64020    1.000
    C33      C        0.23310    0.79610    0.76090    1.000
    H11      H        0.33910    0.77410    0.79140    1.000
    C34      C        0.14840    0.76950    0.79990    1.000
    C35      C        0.23470    0.70970    0.89570    1.000
    C36      C        0.99100    0.79890    0.75340    1.000
    H12      H        0.93550    0.78120    0.77930    1.000
