data_functionalizedCrystal
_audit_creation_method	'EQeq! by Chris Wilmer'
_symmetry_space_group_name_H-M	'P1'
_symmetry_Int_Tables_number	1
_symmetry_cell_setting	triclinic
loop_
_symmetry_equiv_pos_as_xyz
  x,y,z
_cell_length_a	12.269
_cell_length_b	12.269
_cell_length_c	4.822
_cell_angle_alpha	90
_cell_angle_beta	90
_cell_angle_gamma	90
loop_
_atom_site_label
_atom_site_type_symbol
_atom_site_fract_x
_atom_site_fract_y
_atom_site_fract_z
_atom_site_charge
Mof_C 	C 	0.7176	0.0865	0.285	0.085
Mof_C 	C 	0.7866	0.1495	0.441	-0.159
Mof_H 	H 	0.7416	0.0181	0.229	-0.033
Mof_H 	H 	0.8556	0.1245	0.489	0.087
Mof_C 	C 	0.2824	0.9135	0.285	0.083
Mof_C 	C 	0.2134	0.8505	0.441	-0.147
Mof_H 	H 	0.2584	0.9819	0.229	-0.004
Mof_H 	H 	0.1444	0.8755	0.489	0.077
Mof_C 	C 	0.9135	0.7176	0.285	0.089
Mof_C 	C 	0.8505	0.7866	0.441	-0.15
Mof_H 	H 	0.9819	0.7416	0.229	-0.001
Mof_H 	H 	0.8755	0.8556	0.489	0.099
Mof_C 	C 	0.0865	0.2824	0.285	0.079
Mof_C 	C 	0.1495	0.2134	0.441	-0.156
Mof_H 	H 	0.0181	0.2584	0.229	-0.036
Mof_H 	H 	0.1245	0.1444	0.489	0.065
Mof_C 	C 	0.2176	0.4135	0.285	0.081
Mof_C 	C 	0.2866	0.3505	0.441	-0.153
Mof_H 	H 	0.2416	0.4819	0.229	-0.021
Mof_H 	H 	0.3556	0.3755	0.489	0.081
Mof_C 	C 	0.7824	0.5865	0.285	0.087
Mof_C 	C 	0.7134	0.6495	0.441	-0.153
Mof_H 	H 	0.7584	0.5181	0.229	-0.017
Mof_H 	H 	0.6444	0.6245	0.489	0.083
Mof_C 	C 	0.4135	0.7824	0.285	0.084
Mof_C 	C 	0.3505	0.7134	0.441	-0.15
Mof_H 	H 	0.4819	0.7584	0.229	-0.016
Mof_H 	H 	0.3755	0.6444	0.489	0.081
Mof_C 	C 	0.5865	0.2176	0.285	0.084
Mof_C 	C 	0.6495	0.2866	0.441	-0.156
Mof_H 	H 	0.5181	0.2416	0.229	-0.022
Mof_H 	H 	0.6245	0.3556	0.489	0.083
Mof_Ag	Ag	0.5	0	-0	0.447
Mof_Ag	Ag	-0	0.5	-0	0.447
Mof_N 	N 	0.6179	0.1179	0.21	-0.203
Mof_C 	C 	0.751	0.251	0.524	0.072
Mof_C 	C 	0.8217	0.3217	0.672	0.065
Mof_N 	N 	0.8789	0.3789	0.783	-0.134
Mof_N 	N 	0.3821	0.8821	0.21	-0.186
Mof_C 	C 	0.249	0.749	0.524	0.063
Mof_C 	C 	0.1783	0.6783	0.672	0.055
Mof_N 	N 	0.1211	0.6211	0.783	-0.156
Mof_N 	N 	0.8821	0.6179	0.21	-0.187
Mof_C 	C 	0.749	0.751	0.524	0.072
Mof_C 	C 	0.6783	0.8217	0.672	0.068
Mof_N 	N 	0.6211	0.8789	0.783	-0.134
Mof_N 	N 	0.1179	0.3821	0.21	-0.202
Mof_C 	C 	0.251	0.249	0.524	0.063
Mof_C 	C 	0.3217	0.1783	0.672	0.052
Mof_N 	N 	0.3789	0.1211	0.783	-0.156
_end
