data_functionalizedCrystal
_audit_creation_method	'EQeq! by Chris Wilmer'
_symmetry_space_group_name_H-M	'P1'
_symmetry_Int_Tables_number	1
_symmetry_cell_setting	triclinic
loop_
_symmetry_equiv_pos_as_xyz
  x,y,z
_cell_length_a	21.5594
_cell_length_b	21.5594
_cell_length_c	14.9195
_cell_angle_alpha	90
_cell_angle_beta	90
_cell_angle_gamma	120
loop_
_atom_site_label
_atom_site_type_symbol
_atom_site_fract_x
_atom_site_fract_y
_atom_site_fract_z
_atom_site_charge
Mof_N 	N 	0.0751	0.2081	0.1414	-0.103
Mof_N 	N 	0.0215	0.0979	0.0897	-0.152
Mof_N 	N 	0.1749	0.1648	0.3288	-0.107
Mof_N 	N 	0.1011	0.0719	0.4107	-0.145
Mof_C 	C 	0.1488	0.3083	0.2461	0.03
Mof_C 	C 	0.1343	0.3592	0.2793	-0.112
Mof_H 	H 	0.1121	0.3767	0.2418	0.071
Mof_C 	C 	0.1822	0.2812	0.3016	0.04
Mof_C 	C 	0.1292	0.2842	0.1488	-0.108
Mof_H 	H 	0.172	0.2929	0.1167	0.059
Mof_H 	H 	0.1111	0.3125	0.1206	0.06
Mof_C 	C 	0.0781	0.1621	0.0831	0.078
Mof_H 	H 	0.1156	0.1742	0.0431	0.004
Mof_C 	C 	0.9806	0.1032	0.1562	0.044
Mof_H 	H 	0.9369	0.0659	0.1761	0.021
Mof_C 	C 	0.0135	0.1708	0.1884	-0.049
Mof_H 	H 	0.9971	0.1883	0.234	0.057
Mof_C 	C 	0.2033	0.2277	0.2702	-0.112
Mof_H 	H 	0.1855	0.2124	0.2098	0.07
Mof_H 	H 	0.2551	0.2506	0.2686	0.063
Mof_C 	C 	0.1077	0.1244	0.3591	0.084
Mof_H 	H 	0.0703	0.1325	0.3453	0.01
Mof_C 	C 	0.167	0.0786	0.411	0.011
Mof_H 	H 	0.1788	0.0481	0.4411	0.026
Mof_C 	C 	0.2127	0.1349	0.3624	-0.017
Mof_H 	H 	0.261	0.1507	0.3531	0.031
Mof_N 	N 	0.74177	0.54143	0.47473	-0.11
Mof_N 	N 	0.68817	0.43123	0.42303	-0.142
Mof_N 	N 	0.84157	0.49813	0.66213	-0.106
Mof_N 	N 	0.76777	0.40523	0.74403	-0.144
Mof_C 	C 	0.81547	0.64163	0.57943	0.031
Mof_C 	C 	0.80097	0.69253	0.61263	-0.111
Mof_H 	H 	0.77877	0.71003	0.57513	0.072
Mof_C 	C 	0.84887	0.61453	0.63493	0.042
Mof_C 	C 	0.79587	0.61753	0.48213	-0.105
Mof_H 	H 	0.83867	0.62623	0.45003	0.059
Mof_H 	H 	0.77777	0.64583	0.45393	0.062
Mof_C 	C 	0.74477	0.49543	0.41643	0.08
Mof_H 	H 	0.78227	0.50753	0.37643	0.006
Mof_C 	C 	0.64727	0.43653	0.48953	0.005
Mof_H 	H 	0.60357	0.39923	0.50943	0.035
Mof_C 	C 	0.68017	0.50413	0.52173	-0.004
Mof_H 	H 	0.66377	0.52163	0.56733	0.035
Mof_C 	C 	0.86997	0.56103	0.60353	-0.114
Mof_H 	H 	0.85217	0.54573	0.54313	0.072
Mof_H 	H 	0.92177	0.58393	0.60193	0.066
Mof_C 	C 	0.77437	0.45773	0.69243	0.085
Mof_H 	H 	0.73697	0.46583	0.67863	0.012
Mof_C 	C 	0.83367	0.41193	0.74433	0.013
Mof_H 	H 	0.84547	0.38143	0.77443	0.028
Mof_C 	C 	0.87937	0.46823	0.69573	-0.016
Mof_H 	H 	0.92767	0.48403	0.68643	0.034
Mof_N 	N 	0.40843	0.87477	0.80807	-0.109
Mof_N 	N 	0.35483	0.76457	0.75637	-0.142
Mof_N 	N 	0.50823	0.83147	0.99547	-0.102
Mof_N 	N 	0.43443	0.73857	0.07737	-0.144
Mof_C 	C 	0.48213	0.97497	0.91277	0.044
Mof_C 	C 	0.46763	0.02587	0.94597	-0.122
Mof_H 	H 	0.44543	0.04337	0.90847	0.074
Mof_C 	C 	0.51553	0.94787	0.96827	0.038
Mof_C 	C 	0.46253	0.95087	0.81547	-0.113
Mof_H 	H 	0.50533	0.95957	0.78337	0.063
Mof_H 	H 	0.44443	0.97917	0.78727	0.067
Mof_C 	C 	0.41143	0.82877	0.74977	0.08
Mof_H 	H 	0.44893	0.84087	0.70977	0.006
Mof_C 	C 	0.31393	0.76987	0.82287	0.006
Mof_H 	H 	0.27023	0.73257	0.84277	0.036
Mof_C 	C 	0.34683	0.83747	0.85507	-0.004
Mof_H 	H 	0.33043	0.85497	0.90067	0.038
Mof_C 	C 	0.53663	0.89437	0.93687	-0.111
Mof_H 	H 	0.51883	0.87907	0.87647	0.071
Mof_H 	H 	0.58843	0.91727	0.93527	0.066
Mof_C 	C 	0.44103	0.79107	0.02577	0.08
Mof_H 	H 	0.40363	0.79917	0.01197	0.012
Mof_C 	C 	0.50033	0.74527	0.07767	0.014
Mof_H 	H 	0.51213	0.71477	0.10777	0.026
Mof_C 	C 	0.54603	0.80157	0.02907	-0.022
Mof_H 	H 	0.59433	0.81737	0.01977	0.033
Mof_N 	N 	0.7919	0.867	0.1414	-0.11
Mof_N 	N 	0.9021	0.9236	0.0897	-0.138
Mof_N 	N 	0.8352	0.0101	0.3288	-0.12
Mof_N 	N 	0.9281	0.0292	0.4107	-0.148
Mof_C 	C 	0.6917	0.8405	0.2461	0.036
Mof_C 	C 	0.6408	0.7751	0.2793	-0.116
Mof_H 	H 	0.6233	0.7354	0.2418	0.073
Mof_C 	C 	0.7188	0.901	0.3016	0.031
Mof_C 	C 	0.7158	0.845	0.1488	-0.108
Mof_H 	H 	0.7071	0.8791	0.1167	0.06
Mof_H 	H 	0.6875	0.7986	0.1206	0.062
Mof_C 	C 	0.8379	0.916	0.0831	0.081
Mof_H 	H 	0.8258	0.9414	0.0431	0.007
Mof_C 	C 	0.8968	0.8774	0.1562	0.005
Mof_H 	H 	0.9341	0.871	0.1761	0.038
Mof_C 	C 	0.8292	0.8427	0.1884	-0.003
Mof_H 	H 	0.8117	0.8088	0.234	0.035
Mof_C 	C 	0.7723	0.9756	0.2702	-0.082
Mof_H 	H 	0.7876	0.9731	0.2098	0.065
Mof_H 	H 	0.7494	0.0045	0.2686	0.049
Mof_C 	C 	0.8756	0.9833	0.3591	0.105
Mof_H 	H 	0.8675	0.9378	0.3453	0.007
Mof_C 	C 	0.9214	0.0884	0.411	0.01
Mof_H 	H 	0.9519	0.1307	0.4411	0.03
Mof_C 	C 	0.8651	0.0778	0.3624	-0.014
Mof_H 	H 	0.8493	0.1103	0.3531	0.03
Mof_N 	N 	0.45857	0.20033	0.47473	-0.11
Mof_N 	N 	0.56877	0.25693	0.42303	-0.143
Mof_N 	N 	0.50187	0.34343	0.66213	-0.107
Mof_N 	N 	0.59477	0.36253	0.74403	-0.144
Mof_C 	C 	0.35837	0.17383	0.57943	0.034
Mof_C 	C 	0.30747	0.10843	0.61263	-0.119
Mof_H 	H 	0.28997	0.06873	0.57513	0.073
Mof_C 	C 	0.38547	0.23433	0.63493	0.038
Mof_C 	C 	0.38247	0.17833	0.48213	-0.107
Mof_H 	H 	0.37377	0.21243	0.45003	0.059
Mof_H 	H 	0.35417	0.13193	0.45393	0.061
Mof_C 	C 	0.50457	0.24933	0.41643	0.08
Mof_H 	H 	0.49247	0.27473	0.37643	0.005
Mof_C 	C 	0.56347	0.21073	0.48953	0.005
Mof_H 	H 	0.60077	0.20433	0.50943	0.035
Mof_C 	C 	0.49587	0.17603	0.52173	-0.004
Mof_H 	H 	0.47837	0.14213	0.56733	0.034
Mof_C 	C 	0.43897	0.30893	0.60353	-0.111
Mof_H 	H 	0.45427	0.30643	0.54313	0.071
Mof_H 	H 	0.41607	0.33783	0.60193	0.064
Mof_C 	C 	0.54227	0.31663	0.69243	0.085
Mof_H 	H 	0.53417	0.27113	0.67863	0.012
Mof_C 	C 	0.58807	0.42173	0.74433	0.012
Mof_H 	H 	0.61857	0.46403	0.77443	0.028
Mof_C 	C 	0.53177	0.41113	0.69573	-0.016
Mof_H 	H 	0.51597	0.44363	0.68643	0.032
Mof_N 	N 	0.12523	0.53367	0.80807	-0.113
Mof_N 	N 	0.23543	0.59027	0.75637	-0.143
Mof_N 	N 	0.16853	0.67677	0.99547	-0.099
Mof_N 	N 	0.26143	0.69587	0.07737	-0.144
Mof_C 	C 	0.02503	0.50717	0.91277	-0.002
Mof_C 	C 	0.97413	0.44177	0.94597	-0.069
Mof_H 	H 	0.95663	0.40207	0.90847	0.061
Mof_C 	C 	0.05213	0.56767	0.96827	0.071
Mof_C 	C 	0.04913	0.51167	0.81547	-0.087
Mof_H 	H 	0.04043	0.54577	0.78337	0.052
Mof_H 	H 	0.02083	0.46527	0.78727	0.054
Mof_C 	C 	0.17123	0.58267	0.74977	0.081
Mof_H 	H 	0.15913	0.60807	0.70977	0.004
Mof_C 	C 	0.23013	0.54407	0.82287	0.005
Mof_H 	H 	0.26743	0.53767	0.84277	0.036
Mof_C 	C 	0.16253	0.50937	0.85507	-0.002
Mof_H 	H 	0.14503	0.47547	0.90067	0.036
Mof_C 	C 	0.10563	0.64227	0.93687	-0.13
Mof_H 	H 	0.12093	0.63977	0.87647	0.076
Mof_H 	H 	0.08273	0.67117	0.93527	0.069
Mof_C 	C 	0.20893	0.64997	0.02577	0.078
Mof_H 	H 	0.20083	0.60447	0.01197	0.012
Mof_C 	C 	0.25473	0.75507	0.07767	0.015
Mof_H 	H 	0.28523	0.79737	0.10777	0.027
Mof_C 	C 	0.19843	0.74447	0.02907	-0.024
Mof_H 	H 	0.18263	0.77697	0.01977	0.033
Mof_N 	N 	0.133	0.9249	0.1414	-0.118
Mof_N 	N 	0.0764	0.9785	0.0897	-0.131
Mof_N 	N 	0.9899	0.8251	0.3288	-0.095
Mof_N 	N 	0.9708	0.8989	0.4107	-0.134
Mof_C 	C 	0.1595	0.8512	0.2461	0.024
Mof_C 	C 	0.2249	0.8657	0.2793	-0.107
Mof_H 	H 	0.2646	0.8879	0.2418	0.072
Mof_C 	C 	0.099	0.8178	0.3016	0.05
Mof_C 	C 	0.155	0.8708	0.1488	-0.098
Mof_H 	H 	0.1209	0.828	0.1167	0.055
Mof_H 	H 	0.2014	0.8889	0.1206	0.06
Mof_C 	C 	0.084	0.9219	0.0831	0.081
Mof_H 	H 	0.0586	0.8844	0.0431	0.003
Mof_C 	C 	0.1226	0.0194	0.1562	-0.039
Mof_H 	H 	0.129	0.0631	0.1761	0.049
Mof_C 	C 	0.1573	0.9865	0.1884	0.044
Mof_H 	H 	0.1912	0.0029	0.234	0.011
Mof_C 	C 	0.0244	0.7967	0.2702	-0.14
Mof_H 	H 	0.0269	0.8145	0.2098	0.077
Mof_H 	H 	0.9955	0.7449	0.2686	0.077
Mof_C 	C 	0.0167	0.8923	0.3591	0.068
Mof_H 	H 	0.0622	0.9297	0.3453	0.02
Mof_C 	C 	0.9116	0.833	0.411	0.014
Mof_H 	H 	0.8693	0.8212	0.4411	0.028
Mof_C 	C 	0.9222	0.7873	0.3624	-0.018
Mof_H 	H 	0.8897	0.739	0.3531	0.033
Mof_N 	N 	0.79967	0.25823	0.47473	-0.11
Mof_N 	N 	0.74307	0.31183	0.42303	-0.143
Mof_N 	N 	0.65657	0.15843	0.66213	-0.107
Mof_N 	N 	0.63747	0.23223	0.74403	-0.144
Mof_C 	C 	0.82617	0.18453	0.57943	0.027
Mof_C 	C 	0.89157	0.19903	0.61263	-0.105
Mof_H 	H 	0.93127	0.22123	0.57513	0.072
Mof_C 	C 	0.76567	0.15113	0.63493	0.043
Mof_C 	C 	0.82167	0.20413	0.48213	-0.103
Mof_H 	H 	0.78757	0.16133	0.45003	0.058
Mof_H 	H 	0.86807	0.22223	0.45393	0.062
Mof_C 	C 	0.75067	0.25523	0.41643	0.08
Mof_H 	H 	0.72527	0.21773	0.37643	0.005
Mof_C 	C 	0.78927	0.35273	0.48953	0.005
Mof_H 	H 	0.79567	0.39643	0.50943	0.035
Mof_C 	C 	0.82397	0.31983	0.52173	-0.004
Mof_H 	H 	0.85787	0.33623	0.56733	0.036
Mof_C 	C 	0.69107	0.13003	0.60353	-0.113
Mof_H 	H 	0.69357	0.14783	0.54313	0.071
Mof_H 	H 	0.66217	0.07823	0.60193	0.062
Mof_C 	C 	0.68337	0.22563	0.69243	0.085
Mof_H 	H 	0.72887	0.26303	0.67863	0.012
Mof_C 	C 	0.57827	0.16633	0.74433	0.011
Mof_H 	H 	0.53597	0.15453	0.77443	0.027
Mof_C 	C 	0.58887	0.12063	0.69573	-0.017
Mof_H 	H 	0.55637	0.07233	0.68643	0.029
Mof_N 	N 	0.46633	0.59157	0.80807	-0.111
Mof_N 	N 	0.40973	0.64517	0.75637	-0.142
Mof_N 	N 	0.32323	0.49177	0.99547	-0.1
Mof_N 	N 	0.30413	0.56557	0.07737	-0.144
Mof_C 	C 	0.49283	0.51787	0.91277	0.02
Mof_C 	C 	0.55823	0.53237	0.94597	-0.095
Mof_H 	H 	0.59793	0.55457	0.90847	0.068
Mof_C 	C 	0.43233	0.48447	0.96827	0.056
Mof_C 	C 	0.48833	0.53747	0.81547	-0.1
Mof_H 	H 	0.45423	0.49467	0.78337	0.057
Mof_H 	H 	0.53473	0.55557	0.78727	0.06
Mof_C 	C 	0.41733	0.58857	0.74977	0.081
Mof_H 	H 	0.39193	0.55107	0.70977	0.005
Mof_C 	C 	0.45593	0.68607	0.82287	0.005
Mof_H 	H 	0.46233	0.72977	0.84277	0.036
Mof_C 	C 	0.49063	0.65317	0.85507	-0.003
Mof_H 	H 	0.52453	0.66957	0.90067	0.037
Mof_C 	C 	0.35773	0.46337	0.93687	-0.121
Mof_H 	H 	0.36023	0.48117	0.87647	0.074
Mof_H 	H 	0.32883	0.41157	0.93527	0.068
Mof_C 	C 	0.35003	0.55897	0.02577	0.079
Mof_H 	H 	0.39553	0.59637	0.01197	0.012
Mof_C 	C 	0.24493	0.49967	0.07767	0.015
Mof_H 	H 	0.20263	0.48787	0.10777	0.026
Mof_C 	C 	0.25553	0.45397	0.02907	-0.024
Mof_H 	H 	0.22303	0.40567	0.01977	0.032
Mof_N 	N 	0.9249	0.7919	0.8586	-0.115
Mof_N 	N 	0.9785	0.9021	0.9103	-0.13
Mof_N 	N 	0.8251	0.8352	0.6712	-0.106
Mof_N 	N 	0.8989	0.9281	0.5893	-0.14
Mof_C 	C 	0.8512	0.6917	0.7539	0.031
Mof_C 	C 	0.8657	0.6408	0.7207	-0.112
Mof_H 	H 	0.8879	0.6233	0.7582	0.074
Mof_C 	C 	0.8178	0.7188	0.6984	0.041
Mof_C 	C 	0.8708	0.7158	0.8512	-0.103
Mof_H 	H 	0.828	0.7071	0.8833	0.059
Mof_H 	H 	0.8889	0.6875	0.8794	0.062
Mof_C 	C 	0.9219	0.8379	0.9169	0.082
Mof_H 	H 	0.8844	0.8258	0.9569	0.007
Mof_C 	C 	0.0194	0.8968	0.8438	-0.027
Mof_H 	H 	0.0631	0.9341	0.8239	0.049
Mof_C 	C 	0.9865	0.8292	0.8116	0.033
Mof_H 	H 	0.0029	0.8117	0.766	0.018
Mof_C 	C 	0.7967	0.7723	0.7298	-0.113
Mof_H 	H 	0.8145	0.7876	0.7902	0.072
Mof_H 	H 	0.7449	0.7494	0.7314	0.064
Mof_C 	C 	0.8923	0.8756	0.6409	0.086
Mof_H 	H 	0.9297	0.8675	0.6547	0.015
Mof_C 	C 	0.833	0.9214	0.589	0.013
Mof_H 	H 	0.8212	0.9519	0.5589	0.03
Mof_C 	C 	0.7873	0.8651	0.6376	-0.016
Mof_H 	H 	0.739	0.8493	0.6469	0.032
Mof_N 	N 	0.59157	0.12523	0.19193	-0.112
Mof_N 	N 	0.64517	0.23543	0.24363	-0.143
Mof_N 	N 	0.49177	0.16853	0.00453	-0.113
Mof_N 	N 	0.56557	0.26143	0.92263	-0.144
Mof_C 	C 	0.51787	0.02503	0.08723	0.015
Mof_C 	C 	0.53237	0.97413	0.05403	-0.098
Mof_H 	H 	0.55457	0.95663	0.09153	0.07
Mof_C 	C 	0.48447	0.05213	0.03173	0.042
Mof_C 	C 	0.53747	0.04913	0.18453	-0.097
Mof_H 	H 	0.49467	0.04043	0.21663	0.054
Mof_H 	H 	0.55557	0.02083	0.21273	0.056
Mof_C 	C 	0.58857	0.17123	0.25023	0.08
Mof_H 	H 	0.55107	0.15913	0.29023	0.005
Mof_C 	C 	0.68607	0.23013	0.17713	0.004
Mof_H 	H 	0.72977	0.26743	0.15723	0.035
Mof_C 	C 	0.65317	0.16253	0.14493	-0.004
Mof_H 	H 	0.66957	0.14503	0.09933	0.033
Mof_C 	C 	0.46337	0.10563	0.06313	-0.113
Mof_H 	H 	0.48117	0.12093	0.12353	0.071
Mof_H 	H 	0.41157	0.08273	0.06473	0.061
Mof_C 	C 	0.55897	0.20893	0.97423	0.091
Mof_H 	H 	0.59637	0.20083	0.98803	0.011
Mof_C 	C 	0.49967	0.25473	0.92233	0.01
Mof_H 	H 	0.48787	0.28523	0.89223	0.029
Mof_C 	C 	0.45397	0.19843	0.97093	-0.01
Mof_H 	H 	0.40567	0.18263	0.98023	0.03
Mof_N 	N 	0.25823	0.45857	0.52527	-0.11
Mof_N 	N 	0.31183	0.56877	0.57697	-0.143
Mof_N 	N 	0.15843	0.50187	0.33787	-0.107
Mof_N 	N 	0.23223	0.59477	0.25597	-0.144
Mof_C 	C 	0.18453	0.35837	0.42057	0.03
Mof_C 	C 	0.19903	0.30747	0.38737	-0.112
Mof_H 	H 	0.22123	0.28997	0.42487	0.072
Mof_C 	C 	0.15113	0.38547	0.36507	0.04
Mof_C 	C 	0.20413	0.38247	0.51787	-0.105
Mof_H 	H 	0.16133	0.37377	0.54997	0.058
Mof_H 	H 	0.22223	0.35417	0.54607	0.061
Mof_C 	C 	0.25523	0.50457	0.58357	0.08
Mof_H 	H 	0.21773	0.49247	0.62357	0.005
Mof_C 	C 	0.35273	0.56347	0.51047	0.005
Mof_H 	H 	0.39643	0.60077	0.49057	0.035
Mof_C 	C 	0.31983	0.49587	0.47827	-0.004
Mof_H 	H 	0.33623	0.47837	0.43267	0.035
Mof_C 	C 	0.13003	0.43897	0.39647	-0.111
Mof_H 	H 	0.14783	0.45427	0.45687	0.07
Mof_H 	H 	0.07823	0.41607	0.39807	0.062
Mof_C 	C 	0.22563	0.54227	0.30757	0.085
Mof_H 	H 	0.26303	0.53417	0.32137	0.012
Mof_C 	C 	0.16633	0.58807	0.25567	0.011
Mof_H 	H 	0.15453	0.61857	0.22557	0.027
Mof_C 	C 	0.12063	0.53177	0.30427	-0.017
Mof_H 	H 	0.07233	0.51597	0.31357	0.029
Mof_N 	N 	0.2081	0.133	0.8586	-0.11
Mof_N 	N 	0.0979	0.0764	0.9103	-0.142
Mof_N 	N 	0.1648	0.9899	0.6712	-0.092
Mof_N 	N 	0.0719	0.9708	0.5893	-0.135
Mof_C 	C 	0.3083	0.1595	0.7539	0.024
Mof_C 	C 	0.3592	0.2249	0.7207	-0.108
Mof_H 	H 	0.3767	0.2646	0.7582	0.071
Mof_C 	C 	0.2812	0.099	0.6984	0.051
Mof_C 	C 	0.2842	0.155	0.8512	-0.102
Mof_H 	H 	0.2929	0.1209	0.8833	0.057
Mof_H 	H 	0.3125	0.2014	0.8794	0.061
Mof_C 	C 	0.1621	0.084	0.9169	0.08
Mof_H 	H 	0.1742	0.0586	0.9569	0.005
Mof_C 	C 	0.1032	0.1226	0.8438	0.005
Mof_H 	H 	0.0659	0.129	0.8239	0.033
Mof_C 	C 	0.1708	0.1573	0.8116	-0.004
Mof_H 	H 	0.1883	0.1912	0.766	0.035
Mof_C 	C 	0.2277	0.0244	0.7298	-0.146
Mof_H 	H 	0.2124	0.0269	0.7902	0.078
Mof_H 	H 	0.2506	0.9955	0.7314	0.08
Mof_C 	C 	0.1244	0.0167	0.6409	0.063
Mof_H 	H 	0.1325	0.0622	0.6547	0.018
Mof_C 	C 	0.0786	0.9116	0.589	0.014
Mof_H 	H 	0.0481	0.8693	0.5589	0.026
Mof_C 	C 	0.1349	0.9222	0.6376	-0.018
Mof_H 	H 	0.1507	0.8897	0.6469	0.033
Mof_N 	N 	0.87477	0.46633	0.19193	-0.107
Mof_N 	N 	0.76457	0.40973	0.24363	-0.143
Mof_N 	N 	0.83147	0.32323	0.00453	-0.115
Mof_N 	N 	0.73857	0.30413	0.92263	-0.144
Mof_C 	C 	0.97497	0.49283	0.08723	0.064
Mof_C 	C 	0.02587	0.55823	0.05403	-0.156
Mof_H 	H 	0.04337	0.59793	0.09153	0.084
Mof_C 	C 	0.94787	0.43233	0.03173	0.011
Mof_C 	C 	0.95087	0.48833	0.18453	-0.123
Mof_H 	H 	0.95957	0.45423	0.21663	0.066
Mof_H 	H 	0.97917	0.53473	0.21273	0.069
Mof_C 	C 	0.82877	0.41733	0.25023	0.079
Mof_H 	H 	0.84087	0.39193	0.29023	0.006
Mof_C 	C 	0.76987	0.45593	0.17713	0.005
Mof_H 	H 	0.73257	0.46233	0.15723	0.034
Mof_C 	C 	0.83747	0.49063	0.14493	-0.005
Mof_H 	H 	0.85497	0.52453	0.09933	0.035
Mof_C 	C 	0.89437	0.35773	0.06313	-0.096
Mof_H 	H 	0.87907	0.36023	0.12353	0.066
Mof_H 	H 	0.91727	0.32883	0.06473	0.059
Mof_C 	C 	0.79107	0.35003	0.97423	0.091
Mof_H 	H 	0.79917	0.39553	0.98803	0.011
Mof_C 	C 	0.74527	0.24493	0.92233	0.009
Mof_H 	H 	0.71477	0.20263	0.89223	0.028
Mof_C 	C 	0.80157	0.25553	0.97093	-0.009
Mof_H 	H 	0.81737	0.22303	0.98023	0.03
Mof_N 	N 	0.54143	0.79967	0.52527	-0.11
Mof_N 	N 	0.43123	0.74307	0.57697	-0.143
Mof_N 	N 	0.49813	0.65657	0.33787	-0.107
Mof_N 	N 	0.40523	0.63747	0.25597	-0.144
Mof_C 	C 	0.64163	0.82617	0.42057	0.027
Mof_C 	C 	0.69253	0.89157	0.38737	-0.104
Mof_H 	H 	0.71003	0.93127	0.42487	0.072
Mof_C 	C 	0.61453	0.76567	0.36507	0.044
Mof_C 	C 	0.61753	0.82167	0.51787	-0.104
Mof_H 	H 	0.62623	0.78757	0.54997	0.058
Mof_H 	H 	0.64583	0.86807	0.54607	0.062
Mof_C 	C 	0.49543	0.75067	0.58357	0.08
Mof_H 	H 	0.50753	0.72527	0.62357	0.005
Mof_C 	C 	0.43653	0.78927	0.51047	0.005
Mof_H 	H 	0.39923	0.79567	0.49057	0.036
Mof_C 	C 	0.50413	0.82397	0.47827	-0.004
Mof_H 	H 	0.52163	0.85787	0.43267	0.036
Mof_C 	C 	0.56103	0.69107	0.39647	-0.114
Mof_H 	H 	0.54573	0.69357	0.45687	0.072
Mof_H 	H 	0.58393	0.66217	0.39807	0.064
Mof_C 	C 	0.45773	0.68337	0.30757	0.085
Mof_H 	H 	0.46583	0.72887	0.32137	0.012
Mof_C 	C 	0.41193	0.57827	0.25567	0.012
Mof_H 	H 	0.38143	0.53597	0.22557	0.027
Mof_C 	C 	0.46823	0.58887	0.30427	-0.017
Mof_H 	H 	0.48403	0.55637	0.31357	0.032
Mof_N 	N 	0.867	0.0751	0.8586	-0.103
Mof_N 	N 	0.9236	0.0215	0.9103	-0.147
Mof_N 	N 	0.0101	0.1749	0.6712	-0.12
Mof_N 	N 	0.0292	0.1011	0.5893	-0.151
Mof_C 	C 	0.8405	0.1488	0.7539	0.037
Mof_C 	C 	0.7751	0.1343	0.7207	-0.116
Mof_H 	H 	0.7354	0.1121	0.7582	0.073
Mof_C 	C 	0.901	0.1822	0.6984	0.031
Mof_C 	C 	0.845	0.1292	0.8512	-0.112
Mof_H 	H 	0.8791	0.172	0.8833	0.062
Mof_H 	H 	0.7986	0.1111	0.8794	0.063
Mof_C 	C 	0.916	0.0781	0.9169	0.08
Mof_H 	H 	0.9414	0.1156	0.9569	0.009
Mof_C 	C 	0.8774	0.9806	0.8438	0.04
Mof_H 	H 	0.871	0.9369	0.8239	0.026
Mof_C 	C 	0.8427	0.0135	0.8116	-0.042
Mof_H 	H 	0.8088	0.9971	0.766	0.055
Mof_C 	C 	0.9756	0.2033	0.7298	-0.082
Mof_H 	H 	0.9731	0.1855	0.7902	0.065
Mof_H 	H 	0.0045	0.2551	0.7314	0.05
Mof_C 	C 	0.9833	0.1077	0.6409	0.105
Mof_H 	H 	0.9378	0.0703	0.6547	0.004
Mof_C 	C 	0.0884	0.167	0.589	0.01
Mof_H 	H 	0.1307	0.1788	0.5589	0.028
Mof_C 	C 	0.0778	0.2127	0.6376	-0.015
Mof_H 	H 	0.1103	0.261	0.6469	0.03
Mof_N 	N 	0.53367	0.40843	0.19193	-0.109
Mof_N 	N 	0.59027	0.35483	0.24363	-0.143
Mof_N 	N 	0.67677	0.50823	0.00453	-0.113
Mof_N 	N 	0.69587	0.43443	0.92263	-0.144
Mof_C 	C 	0.50717	0.48213	0.08723	0.041
Mof_C 	C 	0.44177	0.46763	0.05403	-0.129
Mof_H 	H 	0.40207	0.44543	0.09153	0.077
Mof_C 	C 	0.56767	0.51553	0.03173	0.026
Mof_C 	C 	0.51167	0.46253	0.18453	-0.111
Mof_H 	H 	0.54577	0.50533	0.21663	0.06
Mof_H 	H 	0.46527	0.44443	0.21273	0.063
Mof_C 	C 	0.58267	0.41143	0.25023	0.08
Mof_H 	H 	0.60807	0.44893	0.29023	0.006
Mof_C 	C 	0.54407	0.31393	0.17713	0.004
Mof_H 	H 	0.53767	0.27023	0.15723	0.034
Mof_C 	C 	0.50937	0.34683	0.14493	-0.005
Mof_H 	H 	0.47547	0.33043	0.09933	0.034
Mof_C 	C 	0.64227	0.53663	0.06313	-0.105
Mof_H 	H 	0.63977	0.51883	0.12353	0.068
Mof_H 	H 	0.67117	0.58843	0.06473	0.06
Mof_C 	C 	0.64997	0.44103	0.97423	0.091
Mof_H 	H 	0.60447	0.40363	0.98803	0.012
Mof_C 	C 	0.75507	0.50033	0.92233	0.01
Mof_H 	H 	0.79737	0.51213	0.89223	0.029
Mof_C 	C 	0.74447	0.54603	0.97093	-0.009
Mof_H 	H 	0.77697	0.59433	0.98023	0.031
Mof_N 	N 	0.20033	0.74177	0.52527	-0.11
Mof_N 	N 	0.25693	0.68817	0.57697	-0.142
Mof_N 	N 	0.34343	0.84157	0.33787	-0.106
Mof_N 	N 	0.36253	0.76777	0.25597	-0.144
Mof_C 	C 	0.17383	0.81547	0.42057	0.034
Mof_C 	C 	0.10843	0.80097	0.38737	-0.118
Mof_H 	H 	0.06873	0.77877	0.42487	0.073
Mof_C 	C 	0.23433	0.84887	0.36507	0.039
Mof_C 	C 	0.17833	0.79587	0.51787	-0.107
Mof_H 	H 	0.21243	0.83867	0.54997	0.06
Mof_H 	H 	0.13193	0.77777	0.54607	0.061
Mof_C 	C 	0.24933	0.74477	0.58357	0.08
Mof_H 	H 	0.27473	0.78227	0.62357	0.006
Mof_C 	C 	0.21073	0.64727	0.51047	0.005
Mof_H 	H 	0.20433	0.60357	0.49057	0.035
Mof_C 	C 	0.17603	0.68017	0.47827	-0.004
Mof_H 	H 	0.14213	0.66377	0.43267	0.034
Mof_C 	C 	0.30893	0.86997	0.39647	-0.112
Mof_H 	H 	0.30643	0.85217	0.45687	0.072
Mof_H 	H 	0.33783	0.92177	0.39807	0.066
Mof_C 	C 	0.31663	0.77437	0.30757	0.085
Mof_H 	H 	0.27113	0.73697	0.32137	0.012
Mof_C 	C 	0.42173	0.83367	0.25567	0.013
Mof_H 	H 	0.46403	0.84547	0.22557	0.028
Mof_C 	C 	0.41113	0.87937	0.30427	-0.016
Mof_H 	H 	0.44363	0.92767	0.31357	0.034
Mof_Cd	Cd	-0	0	0.5	0.359
Mof_Cd	Cd	0.66667	0.33333	0.83333	0.376
Mof_Cd	Cd	0.33333	0.66667	0.16667	0.375
Mof_Cd	Cd	-0	0	-0	0.355
Mof_Cd	Cd	0.66667	0.33333	0.33333	0.377
Mof_Cd	Cd	0.33333	0.66667	0.66667	0.377
_end
