data_functionalizedCrystal
_audit_creation_method	'EQeq! by Chris Wilmer'
_symmetry_space_group_name_H-M	'P1'
_symmetry_Int_Tables_number	1
_symmetry_cell_setting	triclinic
loop_
_symmetry_equiv_pos_as_xyz
  x,y,z
_cell_length_a	8.755
_cell_length_b	11.2739
_cell_length_c	17.7519
_cell_angle_alpha	84.5057
_cell_angle_beta	75.7242
_cell_angle_gamma	67.1522
loop_
_atom_site_label
_atom_site_type_symbol
_atom_site_fract_x
_atom_site_fract_y
_atom_site_fract_z
_atom_site_charge
Mof_Sc	Sc	0.63567	0.25	0.22866	1.961
Mof_Sc	Sc	0.11433	0.25	0.27134	1.96
Mof_Sc	Sc	0.36433	0.75	0.77134	1.961
Mof_Sc	Sc	0.88567	0.75	0.72866	1.96
Mof_H 	H 	0.7258	0.0472	0.0152	0.046
Mof_H 	H 	0.2469	0.0654	0.0932	0.031
Mof_H 	H 	0.842	0.8618	0.2474	0.037
Mof_H 	H 	0.759	0.4528	0.0152	0.045
Mof_H 	H 	0.1599	0.4346	0.0932	0.032
Mof_H 	H 	0.4106	0.6382	0.2474	0.039
Mof_H 	H 	0.227	0.0472	0.4848	0.046
Mof_H 	H 	0.6877	0.0654	0.4068	0.031
Mof_H 	H 	0.2962	0.8618	0.2526	0.038
Mof_H 	H 	0.7882	0.4528	0.4848	0.046
Mof_H 	H 	0.4055	0.4346	0.4068	0.031
Mof_H 	H 	0.9512	0.6382	0.2526	0.04
Mof_H 	H 	0.2742	0.9528	0.9848	0.046
Mof_H 	H 	0.7531	0.9346	0.9068	0.031
Mof_H 	H 	0.158	0.1382	0.7526	0.037
Mof_H 	H 	0.241	0.5472	0.9848	0.045
Mof_H 	H 	0.8401	0.5654	0.9068	0.032
Mof_H 	H 	0.5894	0.3618	0.7526	0.039
Mof_H 	H 	0.773	0.9528	0.5152	0.046
Mof_H 	H 	0.3123	0.9346	0.5932	0.031
Mof_H 	H 	0.7038	0.1382	0.7474	0.038
Mof_H 	H 	0.2118	0.5472	0.5152	0.046
Mof_H 	H 	0.5945	0.5654	0.5932	0.031
Mof_H 	H 	0.0488	0.3618	0.7474	0.04
Mof_C 	C 	0.46505	0.13942	0.13524	0.542
Mof_C 	C 	0.48347	0.06744	0.06508	-0.146
Mof_C 	C 	0.63499	0.02836	0.00928	0
Mof_C 	C 	0.34877	0.03914	0.05576	0.01
Mof_C 	C 	0.95538	0.81712	0.24914	0.009
Mof_C 	C 	0.89971	0.36058	0.13524	0.541
Mof_C 	C 	0.95145	0.43256	0.06508	-0.144
Mof_C 	C 	0.85573	0.47164	0.00928	0.001
Mof_C 	C 	0.09547	0.46086	0.05576	0.008
Mof_C 	C 	0.29548	0.68288	0.24914	0.004
Mof_C 	C 	0.39553	0.13942	0.36476	0.542
Mof_C 	C 	0.44909	0.06744	0.43492	-0.146
Mof_C 	C 	0.33665	0.02836	0.49072	-0.001
Mof_C 	C 	0.61209	0.03914	0.44424	0.012
Mof_C 	C 	0.2275	0.81712	0.25086	0.008
Mof_C 	C 	0.73971	0.36058	0.36476	0.542
Mof_C 	C 	0.61599	0.43256	0.43492	-0.146
Mof_C 	C 	0.67263	0.47164	0.49072	-0.001
Mof_C 	C 	0.44367	0.46086	0.44424	0.011
Mof_C 	C 	0.02164	0.68288	0.25086	0.003
Mof_C 	C 	0.53495	0.86058	0.86476	0.542
Mof_C 	C 	0.51653	0.93256	0.93492	-0.146
Mof_C 	C 	0.36501	0.97164	0.99072	0
Mof_C 	C 	0.65123	0.96086	0.94424	0.01
Mof_C 	C 	0.04462	0.18288	0.75086	0.009
Mof_C 	C 	0.10029	0.63942	0.86476	0.541
Mof_C 	C 	0.04855	0.56744	0.93492	-0.144
Mof_C 	C 	0.14427	0.52836	0.99072	0.001
Mof_C 	C 	0.90453	0.53914	0.94424	0.008
Mof_C 	C 	0.70452	0.31712	0.75086	0.004
Mof_C 	C 	0.60447	0.86058	0.63524	0.542
Mof_C 	C 	0.55091	0.93256	0.56508	-0.146
Mof_C 	C 	0.66335	0.97164	0.50928	-0.001
Mof_C 	C 	0.38791	0.96086	0.55576	0.012
Mof_C 	C 	0.7725	0.18288	0.74914	0.008
Mof_C 	C 	0.26029	0.63942	0.63524	0.542
Mof_C 	C 	0.38401	0.56744	0.56508	-0.146
Mof_C 	C 	0.32737	0.52836	0.50928	-0.001
Mof_C 	C 	0.55633	0.53914	0.55576	0.011
Mof_C 	C 	0.97836	0.31712	0.74914	0.003
Mof_C 	C 	0.98638	0.02724	0.25	0.548
Mof_C 	C 	0.05826	0.88348	0.25	-0.148
Mof_C 	C 	0.26362	0.47276	0.25	0.544
Mof_C 	C 	0.19174	0.61652	0.25	-0.144
Mof_C 	C 	0.01362	0.97276	0.75	0.548
Mof_C 	C 	0.94174	0.11652	0.75	-0.148
Mof_C 	C 	0.73638	0.52724	0.75	0.544
Mof_C 	C 	0.80826	0.38348	0.75	-0.144
Mof_O 	O 	0.58762	0.16672	0.14092	-0.55
Mof_O 	O 	0.32787	0.16844	0.18514	-0.588
Mof_O 	O 	0.84879	0.08328	0.22942	-0.571
Mof_O 	O 	0.77146	0.33328	0.14092	-0.549
Mof_O 	O 	0.98699	0.33156	0.18514	-0.587
Mof_O 	O 	0.42179	0.41672	0.22942	-0.57
Mof_O 	O 	0.24566	0.16672	0.35908	-0.55
Mof_O 	O 	0.50369	0.16844	0.31486	-0.588
Mof_O 	O 	0.06793	0.08328	0.27058	-0.572
Mof_O 	O 	0.89526	0.33328	0.35908	-0.549
Mof_O 	O 	0.68145	0.33156	0.31486	-0.588
Mof_O 	O 	0.16149	0.41672	0.27058	-0.57
Mof_O 	O 	0.41238	0.83328	0.85908	-0.55
Mof_O 	O 	0.67213	0.83156	0.81486	-0.588
Mof_O 	O 	0.15121	0.91672	0.77058	-0.571
Mof_O 	O 	0.22854	0.66672	0.85908	-0.549
Mof_O 	O 	0.01301	0.66844	0.81486	-0.587
Mof_O 	O 	0.57821	0.58328	0.77058	-0.57
Mof_O 	O 	0.75434	0.83328	0.64092	-0.55
Mof_O 	O 	0.49631	0.83156	0.68514	-0.588
Mof_O 	O 	0.93207	0.91672	0.72942	-0.572
Mof_O 	O 	0.10474	0.66672	0.64092	-0.549
Mof_O 	O 	0.31855	0.66844	0.68514	-0.588
Mof_O 	O 	0.83851	0.58328	0.72942	-0.57
_end
