data_functionalizedCrystal
_audit_creation_method	'EQeq! by Chris Wilmer'
_symmetry_space_group_name_H-M	'P1'
_symmetry_Int_Tables_number	1
_symmetry_cell_setting	triclinic
loop_
_symmetry_equiv_pos_as_xyz
  x,y,z
_cell_length_a	36.015
_cell_length_b	14.7774
_cell_length_c	31.248
_cell_angle_alpha	90
_cell_angle_beta	102.216
_cell_angle_gamma	90
loop_
_atom_site_label
_atom_site_type_symbol
_atom_site_fract_x
_atom_site_fract_y
_atom_site_fract_z
_atom_site_charge
Mof_C 	C 	0.2567	0.0962	0.19843	0.086
Mof_N 	N 	0.26305	0.18419	0.19209	-0.142
Mof_C 	C 	0.29324	0.219	0.21962	0.102
Mof_N 	N 	0.31713	0.17242	0.24984	-0.138
Mof_C 	C 	0.30734	0.0861	0.25425	0.098
Mof_N 	N 	0.27701	0.0448	0.23037	-0.143
Mof_C 	C 	0.22453	0.0515	0.16848	0.04
Mof_C 	C 	0.21475	0.9626	0.17611	-0.122
Mof_H 	H 	0.2286	0.9303	0.2006	0.086
Mof_C 	C 	0.18496	0.9221	0.14799	0.064
Mof_H 	H 	0.1784	0.8616	0.1537	-0.008
Mof_N 	N 	0.16469	0.96491	0.11268	-0.275
Mof_C 	C 	0.17417	0.0509	0.10527	0.059
Mof_H 	H 	0.16	0.0816	0.0804	-0.006
Mof_C 	C 	0.20362	0.0964	0.13225	-0.113
Mof_H 	H 	0.2094	0.1571	0.1261	0.077
Mof_C 	C 	0.30055	0.3176	0.21853	0.05
Mof_C 	C 	0.27278	0.3779	0.19879	-0.117
Mof_H 	H 	0.2485	0.3566	0.1841	0.072
Mof_C 	C 	0.28079	0.4694	0.20064	0.063
Mof_H 	H 	0.2615	0.5104	0.1873	-0.012
Mof_N 	N 	0.31472	0.50275	0.22043	-0.275
Mof_C 	C 	0.34158	0.4439	0.23936	0.063
Mof_H 	H 	0.3657	0.4669	0.2535	-0.017
Mof_C 	C 	0.33581	0.3517	0.23927	-0.116
Mof_H 	H 	0.3555	0.3121	0.2531	0.079
Mof_C 	C 	0.33317	0.0342	0.28945	0.055
Mof_C 	C 	0.36452	0.0762	0.31421	-0.12
Mof_H 	H 	0.37	0.1375	0.3089	0.089
Mof_C 	C 	0.3879	0.0279	0.3468	0.068
Mof_H 	H 	0.4098	0.057	0.3634	-0.01
Mof_N 	N 	0.38122	0.94209	0.35611	-0.276
Mof_C 	C 	0.35035	0.9016	0.33257	0.065
Mof_H 	H 	0.3452	0.8408	0.3393	-0.012
Mof_C 	C 	0.32553	0.9446	0.29872	-0.124
Mof_H 	H 	0.304	0.9139	0.2823	0.073
Mof_C 	C 	0.98311	0.1677	0.0638	0.093
Mof_N 	N 	0.96287	0.1541	0.0945	-0.135
Mof_C 	C 	0.93421	0.2121	0.09265	0.107
Mof_N 	N 	0.92641	0.28275	0.06537	-0.136
Mof_C 	C 	0.94881	0.2897	0.03684	0.093
Mof_N 	N 	0.9767	0.2323	0.03341	-0.15
Mof_C 	C 	0.01569	0.1066	0.0644	0.045
Mof_C 	C 	0.02915	0.091	0.02687	-0.119
Mof_H 	H 	0.0174	0.119	-0	0.074
Mof_C 	C 	0.05988	0.0346	0.0288	0.068
Mof_H 	H 	0.0688	0.0234	0.0028	-0.008
Mof_N 	N 	0.07771	0.99475	0.06605	-0.275
Mof_C 	C 	0.06484	0.0119	0.10262	0.069
Mof_H 	H 	0.0777	0.9852	0.1293	-0.015
Mof_C 	C 	0.03399	0.066	0.10311	-0.119
Mof_H 	H 	0.0254	0.0755	0.1295	0.081
Mof_C 	C 	0.90872	0.1958	0.12357	0.061
Mof_C 	C 	0.91933	0.1365	0.15858	-0.119
Mof_H 	H 	0.9433	0.107	0.1637	0.082
Mof_C 	C 	0.89438	0.1216	0.18563	0.072
Mof_H 	H 	0.9017	0.0815	0.2097	-0.02
Mof_N 	N 	0.86031	0.1609	0.17968	-0.277
Mof_C 	C 	0.85025	0.2183	0.14592	0.066
Mof_H 	H 	0.826	0.2466	0.1414	-0.013
Mof_C 	C 	0.87357	0.2377	0.11761	-0.116
Mof_H 	H 	0.8657	0.2792	0.0943	0.082
Mof_C 	C 	0.94323	0.3683	0.00633	0.044
Mof_C 	C 	0.91142	0.4227	0.00163	-0.121
Mof_H 	H 	0.8929	0.4116	0.0186	0.078
Mof_C 	C 	0.90668	0.4931	0.97214	0.071
Mof_H 	H 	0.8843	0.5287	0.9685	-0.019
Mof_N 	N 	0.93226	0.51331	0.94841	-0.272
Mof_C 	C 	0.96343	0.4616	0.95336	0.065
Mof_H 	H 	0.982	0.4758	0.9368	-0.01
Mof_C 	C 	0.96977	0.3886	0.98154	-0.114
Mof_H 	H 	0.992	0.3527	0.9839	0.068
Mof_Zn	Zn	0.12117	0.90373	0.0687	1.158
Mof_I 	I 	0.09971	0.7613	0.10415	-0.186
Mof_I 	I 	0.13771	0.9012	0.99228	-0.218
Mof_Zn	Zn	0.42126	0.88013	0.40366	1.158
Mof_I 	I 	0.38979	0.75558	0.43838	-0.16
Mof_I 	I 	0.47818	0.8692	0.36736	-0.161
Mof_Zn	Zn	0.82656	0.13994	0.22461	1.158
Mof_I 	I 	0.87059	0.16163	0.30052	-0.241
Mof_I 	I 	0.76562	0.23014	0.1997	-0.163
Mof_I 	I 	0.09987	0.7694	0.1072	-0.154
Mof_I 	I 	0.1356	0.8944	0.9957	-0.117
Mof_I 	I 	0.3911	0.759	0.4434	-0.178
Mof_I 	I 	0.477	0.8493	0.3673	-0.159
Mof_I 	I 	0.8655	0.1628	0.2971	-0.128
Mof_I 	I 	0.7646	0.2249	0.1948	-0.174
Mof_C 	C 	0.7567	0.5962	0.19843	0.087
Mof_N 	N 	0.76305	0.68419	0.19209	-0.141
Mof_C 	C 	0.79324	0.719	0.21962	0.103
Mof_N 	N 	0.81713	0.67242	0.24984	-0.137
Mof_C 	C 	0.80734	0.5861	0.25425	0.099
Mof_N 	N 	0.77701	0.5448	0.23037	-0.142
Mof_C 	C 	0.72453	0.5515	0.16848	0.041
Mof_C 	C 	0.71475	0.4626	0.17611	-0.121
Mof_H 	H 	0.7286	0.4303	0.2006	0.087
Mof_C 	C 	0.68496	0.4221	0.14799	0.065
Mof_H 	H 	0.6784	0.3616	0.1537	-0.007
Mof_N 	N 	0.66469	0.46491	0.11268	-0.274
Mof_C 	C 	0.67417	0.5509	0.10527	0.06
Mof_H 	H 	0.66	0.5816	0.0804	-0.005
Mof_C 	C 	0.70362	0.5964	0.13225	-0.112
Mof_H 	H 	0.7094	0.6571	0.1261	0.078
Mof_C 	C 	0.80055	0.8176	0.21853	0.051
Mof_C 	C 	0.77278	0.8779	0.19879	-0.116
Mof_H 	H 	0.7485	0.8566	0.1841	0.073
Mof_C 	C 	0.78079	0.9694	0.20064	0.063
Mof_H 	H 	0.7615	0.0104	0.1873	-0.011
Mof_N 	N 	0.81472	0.00275	0.22043	-0.274
Mof_C 	C 	0.84158	0.9439	0.23936	0.063
Mof_H 	H 	0.8657	0.9669	0.2535	-0.017
Mof_C 	C 	0.83581	0.8517	0.23927	-0.116
Mof_H 	H 	0.8555	0.8121	0.2531	0.079
Mof_C 	C 	0.83317	0.5342	0.28945	0.055
Mof_C 	C 	0.86452	0.5762	0.31421	-0.12
Mof_H 	H 	0.87	0.6375	0.3089	0.089
Mof_C 	C 	0.8879	0.5279	0.3468	0.068
Mof_H 	H 	0.9098	0.557	0.3634	-0.01
Mof_N 	N 	0.88122	0.44209	0.35611	-0.276
Mof_C 	C 	0.85035	0.4016	0.33257	0.065
Mof_H 	H 	0.8452	0.3408	0.3393	-0.012
Mof_C 	C 	0.82553	0.4446	0.29872	-0.124
Mof_H 	H 	0.804	0.4139	0.2823	0.073
Mof_C 	C 	0.48311	0.6677	0.0638	0.093
Mof_N 	N 	0.46287	0.6541	0.0945	-0.135
Mof_C 	C 	0.43421	0.7121	0.09265	0.107
Mof_N 	N 	0.42641	0.78275	0.06537	-0.136
Mof_C 	C 	0.44881	0.7897	0.03684	0.093
Mof_N 	N 	0.4767	0.7323	0.03341	-0.15
Mof_C 	C 	0.51569	0.6066	0.0644	0.045
Mof_C 	C 	0.52915	0.591	0.02687	-0.118
Mof_H 	H 	0.5174	0.619	-0	0.074
Mof_C 	C 	0.55988	0.5346	0.0288	0.068
Mof_H 	H 	0.5688	0.5234	0.0028	-0.008
Mof_N 	N 	0.57771	0.49475	0.06605	-0.275
Mof_C 	C 	0.56484	0.5119	0.10262	0.068
Mof_H 	H 	0.5777	0.4852	0.1293	-0.015
Mof_C 	C 	0.53399	0.566	0.10311	-0.119
Mof_H 	H 	0.5254	0.5755	0.1295	0.081
Mof_C 	C 	0.40872	0.6958	0.12357	0.061
Mof_C 	C 	0.41933	0.6365	0.15858	-0.119
Mof_H 	H 	0.4433	0.607	0.1637	0.082
Mof_C 	C 	0.39438	0.6216	0.18563	0.072
Mof_H 	H 	0.4017	0.5815	0.2097	-0.02
Mof_N 	N 	0.36031	0.6609	0.17968	-0.277
Mof_C 	C 	0.35025	0.7183	0.14592	0.066
Mof_H 	H 	0.326	0.7466	0.1414	-0.013
Mof_C 	C 	0.37357	0.7377	0.11761	-0.116
Mof_H 	H 	0.3657	0.7792	0.0943	0.082
Mof_C 	C 	0.44323	0.8683	0.00633	0.044
Mof_C 	C 	0.41142	0.9227	0.00163	-0.121
Mof_H 	H 	0.3929	0.9116	0.0186	0.078
Mof_C 	C 	0.40668	0.9931	0.97214	0.071
Mof_H 	H 	0.3843	0.0287	0.9685	-0.019
Mof_N 	N 	0.43226	0.01331	0.94841	-0.272
Mof_C 	C 	0.46343	0.9616	0.95336	0.065
Mof_H 	H 	0.482	0.9758	0.9368	-0.01
Mof_C 	C 	0.46977	0.8886	0.98154	-0.114
Mof_H 	H 	0.492	0.8527	0.9839	0.068
Mof_Zn	Zn	0.62117	0.40373	0.0687	1.158
Mof_I 	I 	0.59971	0.2613	0.10415	-0.186
Mof_I 	I 	0.63771	0.4012	0.99228	-0.218
Mof_Zn	Zn	0.92126	0.38013	0.40366	1.158
Mof_I 	I 	0.88979	0.25558	0.43838	-0.16
Mof_I 	I 	0.97818	0.3692	0.36736	-0.161
Mof_Zn	Zn	0.32656	0.63994	0.22461	1.158
Mof_I 	I 	0.37059	0.66163	0.30052	-0.241
Mof_I 	I 	0.26562	0.73014	0.1997	-0.163
Mof_I 	I 	0.59987	0.2694	0.1072	-0.154
Mof_I 	I 	0.6356	0.3944	0.9957	-0.117
Mof_I 	I 	0.8911	0.259	0.4434	-0.178
Mof_I 	I 	0.977	0.3493	0.3673	-0.159
Mof_I 	I 	0.3655	0.6628	0.2971	-0.128
Mof_I 	I 	0.2646	0.7249	0.1948	-0.174
Mof_C 	C 	0.2567	0.9038	0.69843	0.087
Mof_N 	N 	0.26305	0.81581	0.69209	-0.141
Mof_C 	C 	0.29324	0.781	0.71962	0.103
Mof_N 	N 	0.31713	0.82758	0.74984	-0.137
Mof_C 	C 	0.30734	0.9139	0.75425	0.099
Mof_N 	N 	0.27701	0.9552	0.73037	-0.142
Mof_C 	C 	0.22453	0.9485	0.66848	0.041
Mof_C 	C 	0.21475	0.0374	0.67611	-0.121
Mof_H 	H 	0.2286	0.0697	0.7006	0.087
Mof_C 	C 	0.18496	0.0779	0.64799	0.065
Mof_H 	H 	0.1784	0.1384	0.6537	-0.007
Mof_N 	N 	0.16469	0.03509	0.61268	-0.274
Mof_C 	C 	0.17417	0.9491	0.60527	0.06
Mof_H 	H 	0.16	0.9184	0.5804	-0.005
Mof_C 	C 	0.20362	0.9036	0.63225	-0.112
Mof_H 	H 	0.2094	0.8429	0.6261	0.079
Mof_C 	C 	0.30055	0.6824	0.71853	0.051
Mof_C 	C 	0.27278	0.6221	0.69879	-0.116
Mof_H 	H 	0.2485	0.6434	0.6841	0.073
Mof_C 	C 	0.28079	0.5306	0.70064	0.064
Mof_H 	H 	0.2615	0.4896	0.6873	-0.011
Mof_N 	N 	0.31472	0.49725	0.72043	-0.274
Mof_C 	C 	0.34158	0.5561	0.73936	0.063
Mof_H 	H 	0.3657	0.5331	0.7535	-0.017
Mof_C 	C 	0.33581	0.6483	0.73927	-0.116
Mof_H 	H 	0.3555	0.6879	0.7531	0.079
Mof_C 	C 	0.33317	0.9658	0.78945	0.055
Mof_C 	C 	0.36452	0.9238	0.81421	-0.12
Mof_H 	H 	0.37	0.8625	0.8089	0.089
Mof_C 	C 	0.3879	0.9721	0.8468	0.068
Mof_H 	H 	0.4098	0.943	0.8634	-0.01
Mof_N 	N 	0.38122	0.05791	0.85611	-0.276
Mof_C 	C 	0.35035	0.0984	0.83257	0.065
Mof_H 	H 	0.3452	0.1592	0.8393	-0.012
Mof_C 	C 	0.32553	0.0554	0.79872	-0.124
Mof_H 	H 	0.304	0.0861	0.7823	0.073
Mof_C 	C 	0.98311	0.8323	0.5638	0.093
Mof_N 	N 	0.96287	0.8459	0.5945	-0.135
Mof_C 	C 	0.93421	0.7879	0.59265	0.107
Mof_N 	N 	0.92641	0.71725	0.56537	-0.136
Mof_C 	C 	0.94881	0.7103	0.53684	0.093
Mof_N 	N 	0.9767	0.7677	0.53341	-0.15
Mof_C 	C 	0.01569	0.8934	0.5644	0.045
Mof_C 	C 	0.02915	0.909	0.52687	-0.118
Mof_H 	H 	0.0174	0.881	0.5	0.075
Mof_C 	C 	0.05988	0.9654	0.5288	0.068
Mof_H 	H 	0.0688	0.9766	0.5028	-0.007
Mof_N 	N 	0.07771	0.00525	0.56605	-0.275
Mof_C 	C 	0.06484	0.9881	0.60262	0.068
Mof_H 	H 	0.0777	0.0148	0.6293	-0.015
Mof_C 	C 	0.03399	0.934	0.60311	-0.119
Mof_H 	H 	0.0254	0.9245	0.6295	0.081
Mof_C 	C 	0.90872	0.8042	0.62357	0.061
Mof_C 	C 	0.91933	0.8635	0.65858	-0.119
Mof_H 	H 	0.9433	0.893	0.6637	0.082
Mof_C 	C 	0.89438	0.8784	0.68563	0.072
Mof_H 	H 	0.9017	0.9185	0.7097	-0.02
Mof_N 	N 	0.86031	0.8391	0.67968	-0.277
Mof_C 	C 	0.85025	0.7817	0.64592	0.066
Mof_H 	H 	0.826	0.7534	0.6414	-0.013
Mof_C 	C 	0.87357	0.7623	0.61761	-0.116
Mof_H 	H 	0.8657	0.7208	0.5943	0.082
Mof_C 	C 	0.94323	0.6317	0.50633	0.046
Mof_C 	C 	0.91142	0.5773	0.50163	-0.119
Mof_H 	H 	0.8929	0.5884	0.5186	0.078
Mof_C 	C 	0.90668	0.5069	0.47214	0.068
Mof_H 	H 	0.8843	0.4713	0.4685	-0.018
Mof_N 	N 	0.93226	0.48669	0.44841	-0.272
Mof_C 	C 	0.96343	0.5384	0.45336	0.066
Mof_H 	H 	0.982	0.5242	0.4368	-0.01
Mof_C 	C 	0.96977	0.6114	0.48154	-0.116
Mof_H 	H 	0.992	0.6473	0.4839	0.068
Mof_Zn	Zn	0.12117	0.09627	0.5687	1.158
Mof_I 	I 	0.09971	0.2387	0.60415	-0.186
Mof_I 	I 	0.13771	0.0988	0.49228	-0.219
Mof_Zn	Zn	0.42126	0.11987	0.90366	1.158
Mof_I 	I 	0.38979	0.24442	0.93838	-0.16
Mof_I 	I 	0.47818	0.1308	0.86736	-0.161
Mof_Zn	Zn	0.82656	0.86006	0.72461	1.158
Mof_I 	I 	0.87059	0.83837	0.80052	-0.241
Mof_I 	I 	0.76562	0.76986	0.6997	-0.163
Mof_I 	I 	0.09987	0.2306	0.6072	-0.153
Mof_I 	I 	0.1356	0.1056	0.4957	-0.117
Mof_I 	I 	0.3911	0.241	0.9434	-0.178
Mof_I 	I 	0.477	0.1507	0.8673	-0.159
Mof_I 	I 	0.8655	0.8372	0.7971	-0.128
Mof_I 	I 	0.7646	0.7751	0.6948	-0.174
Mof_C 	C 	0.7567	0.4038	0.69843	0.087
Mof_N 	N 	0.76305	0.31581	0.69209	-0.141
Mof_C 	C 	0.79324	0.281	0.71962	0.103
Mof_N 	N 	0.81713	0.32758	0.74984	-0.137
Mof_C 	C 	0.80734	0.4139	0.75425	0.099
Mof_N 	N 	0.77701	0.4552	0.73037	-0.142
Mof_C 	C 	0.72453	0.4485	0.66848	0.041
Mof_C 	C 	0.71475	0.5374	0.67611	-0.121
Mof_H 	H 	0.7286	0.5697	0.7006	0.087
Mof_C 	C 	0.68496	0.5779	0.64799	0.065
Mof_H 	H 	0.6784	0.6384	0.6537	-0.007
Mof_N 	N 	0.66469	0.53509	0.61268	-0.274
Mof_C 	C 	0.67417	0.4491	0.60527	0.06
Mof_H 	H 	0.66	0.4184	0.5804	-0.005
Mof_C 	C 	0.70362	0.4036	0.63225	-0.112
Mof_H 	H 	0.7094	0.3429	0.6261	0.079
Mof_C 	C 	0.80055	0.1824	0.71853	0.051
Mof_C 	C 	0.77278	0.1221	0.69879	-0.116
Mof_H 	H 	0.7485	0.1434	0.6841	0.073
Mof_C 	C 	0.78079	0.0306	0.70064	0.064
Mof_H 	H 	0.7615	0.9896	0.6873	-0.011
Mof_N 	N 	0.81472	0.99725	0.72043	-0.274
Mof_C 	C 	0.84158	0.0561	0.73936	0.063
Mof_H 	H 	0.8657	0.0331	0.7535	-0.017
Mof_C 	C 	0.83581	0.1483	0.73927	-0.116
Mof_H 	H 	0.8555	0.1879	0.7531	0.079
Mof_C 	C 	0.83317	0.4658	0.78945	0.055
Mof_C 	C 	0.86452	0.4238	0.81421	-0.12
Mof_H 	H 	0.87	0.3625	0.8089	0.089
Mof_C 	C 	0.8879	0.4721	0.8468	0.068
Mof_H 	H 	0.9098	0.443	0.8634	-0.01
Mof_N 	N 	0.88122	0.55791	0.85611	-0.276
Mof_C 	C 	0.85035	0.5984	0.83257	0.065
Mof_H 	H 	0.8452	0.6592	0.8393	-0.012
Mof_C 	C 	0.82553	0.5554	0.79872	-0.124
Mof_H 	H 	0.804	0.5861	0.7823	0.073
Mof_C 	C 	0.48311	0.3323	0.5638	0.093
Mof_N 	N 	0.46287	0.3459	0.5945	-0.135
Mof_C 	C 	0.43421	0.2879	0.59265	0.107
Mof_N 	N 	0.42641	0.21725	0.56537	-0.136
Mof_C 	C 	0.44881	0.2103	0.53684	0.093
Mof_N 	N 	0.4767	0.2677	0.53341	-0.15
Mof_C 	C 	0.51569	0.3934	0.5644	0.045
Mof_C 	C 	0.52915	0.409	0.52687	-0.118
Mof_H 	H 	0.5174	0.381	0.5	0.075
Mof_C 	C 	0.55988	0.4654	0.5288	0.068
Mof_H 	H 	0.5688	0.4766	0.5028	-0.007
Mof_N 	N 	0.57771	0.50525	0.56605	-0.275
Mof_C 	C 	0.56484	0.4881	0.60262	0.068
Mof_H 	H 	0.5777	0.5148	0.6293	-0.015
Mof_C 	C 	0.53399	0.434	0.60311	-0.119
Mof_H 	H 	0.5254	0.4245	0.6295	0.081
Mof_C 	C 	0.40872	0.3042	0.62357	0.061
Mof_C 	C 	0.41933	0.3635	0.65858	-0.119
Mof_H 	H 	0.4433	0.393	0.6637	0.082
Mof_C 	C 	0.39438	0.3784	0.68563	0.072
Mof_H 	H 	0.4017	0.4185	0.7097	-0.02
Mof_N 	N 	0.36031	0.3391	0.67968	-0.277
Mof_C 	C 	0.35025	0.2817	0.64592	0.066
Mof_H 	H 	0.326	0.2534	0.6414	-0.013
Mof_C 	C 	0.37357	0.2623	0.61761	-0.116
Mof_H 	H 	0.3657	0.2208	0.5943	0.082
Mof_C 	C 	0.44323	0.1317	0.50633	0.046
Mof_C 	C 	0.41142	0.0773	0.50163	-0.119
Mof_H 	H 	0.3929	0.0884	0.5186	0.078
Mof_C 	C 	0.40668	0.0069	0.47214	0.068
Mof_H 	H 	0.3843	0.9713	0.4685	-0.018
Mof_N 	N 	0.43226	0.98669	0.44841	-0.272
Mof_C 	C 	0.46343	0.0384	0.45336	0.066
Mof_H 	H 	0.482	0.0242	0.4368	-0.01
Mof_C 	C 	0.46977	0.1114	0.48154	-0.116
Mof_H 	H 	0.492	0.1473	0.4839	0.068
Mof_Zn	Zn	0.62117	0.59627	0.5687	1.158
Mof_I 	I 	0.59971	0.7387	0.60415	-0.186
Mof_I 	I 	0.63771	0.5988	0.49228	-0.219
Mof_Zn	Zn	0.92126	0.61987	0.90366	1.158
Mof_I 	I 	0.88979	0.74442	0.93838	-0.16
Mof_I 	I 	0.97818	0.6308	0.86736	-0.161
Mof_Zn	Zn	0.32656	0.36006	0.72461	1.158
Mof_I 	I 	0.37059	0.33837	0.80052	-0.241
Mof_I 	I 	0.26562	0.26986	0.6997	-0.163
Mof_I 	I 	0.59987	0.7306	0.6072	-0.153
Mof_I 	I 	0.6356	0.6056	0.4957	-0.117
Mof_I 	I 	0.8911	0.741	0.9434	-0.178
Mof_I 	I 	0.977	0.6507	0.8673	-0.159
Mof_I 	I 	0.3655	0.3372	0.7971	-0.128
Mof_I 	I 	0.2646	0.2751	0.6948	-0.174
Mof_C 	C 	0.7433	0.0962	0.30157	0.087
Mof_N 	N 	0.73695	0.18419	0.30791	-0.141
Mof_C 	C 	0.70676	0.219	0.28038	0.103
Mof_N 	N 	0.68287	0.17242	0.25016	-0.137
Mof_C 	C 	0.69266	0.0861	0.24575	0.099
Mof_N 	N 	0.72299	0.0448	0.26963	-0.142
Mof_C 	C 	0.77547	0.0515	0.33152	0.041
Mof_C 	C 	0.78525	0.9626	0.32389	-0.121
Mof_H 	H 	0.7714	0.9303	0.2994	0.087
Mof_C 	C 	0.81504	0.9221	0.35201	0.065
Mof_H 	H 	0.8216	0.8616	0.3463	-0.007
Mof_N 	N 	0.83531	0.96491	0.38732	-0.274
Mof_C 	C 	0.82583	0.0509	0.39473	0.06
Mof_H 	H 	0.84	0.0816	0.4196	-0.005
Mof_C 	C 	0.79638	0.0964	0.36775	-0.112
Mof_H 	H 	0.7906	0.1571	0.3739	0.079
Mof_C 	C 	0.69945	0.3176	0.28147	0.051
Mof_C 	C 	0.72722	0.3779	0.30121	-0.116
Mof_H 	H 	0.7515	0.3566	0.3159	0.073
Mof_C 	C 	0.71921	0.4694	0.29936	0.064
Mof_H 	H 	0.7385	0.5104	0.3127	-0.011
Mof_N 	N 	0.68528	0.50275	0.27957	-0.274
Mof_C 	C 	0.65842	0.4439	0.26064	0.063
Mof_H 	H 	0.6343	0.4669	0.2465	-0.017
Mof_C 	C 	0.66419	0.3517	0.26073	-0.116
Mof_H 	H 	0.6445	0.3121	0.2469	0.079
Mof_C 	C 	0.66683	0.0342	0.21055	0.055
Mof_C 	C 	0.63548	0.0762	0.18579	-0.12
Mof_H 	H 	0.63	0.1375	0.1911	0.089
Mof_C 	C 	0.6121	0.0279	0.1532	0.068
Mof_H 	H 	0.5902	0.057	0.1366	-0.01
Mof_N 	N 	0.61878	0.94209	0.14389	-0.276
Mof_C 	C 	0.64965	0.9016	0.16743	0.065
Mof_H 	H 	0.6548	0.8408	0.1607	-0.012
Mof_C 	C 	0.67447	0.9446	0.20128	-0.124
Mof_H 	H 	0.696	0.9139	0.2177	0.073
Mof_C 	C 	0.01689	0.1677	0.4362	0.093
Mof_N 	N 	0.03713	0.1541	0.4055	-0.135
Mof_C 	C 	0.06579	0.2121	0.40735	0.107
Mof_N 	N 	0.07359	0.28275	0.43463	-0.136
Mof_C 	C 	0.05119	0.2897	0.46316	0.093
Mof_N 	N 	0.0233	0.2323	0.46659	-0.15
Mof_C 	C 	0.98431	0.1066	0.4356	0.045
Mof_C 	C 	0.97085	0.091	0.47313	-0.118
Mof_H 	H 	0.9826	0.119	0.5	0.075
Mof_C 	C 	0.94012	0.0346	0.4712	0.068
Mof_H 	H 	0.9312	0.0234	0.4972	-0.007
Mof_N 	N 	0.92229	0.99475	0.43395	-0.275
Mof_C 	C 	0.93516	0.0119	0.39738	0.069
Mof_H 	H 	0.9223	0.9852	0.3707	-0.015
Mof_C 	C 	0.96601	0.066	0.39689	-0.119
Mof_H 	H 	0.9746	0.0755	0.3705	0.081
Mof_C 	C 	0.09128	0.1958	0.37643	0.061
Mof_C 	C 	0.08067	0.1365	0.34142	-0.119
Mof_H 	H 	0.0567	0.107	0.3363	0.082
Mof_C 	C 	0.10562	0.1216	0.31437	0.072
Mof_H 	H 	0.0983	0.0815	0.2903	-0.02
Mof_N 	N 	0.13969	0.1609	0.32032	-0.277
Mof_C 	C 	0.14975	0.2183	0.35408	0.066
Mof_H 	H 	0.174	0.2466	0.3586	-0.013
Mof_C 	C 	0.12643	0.2377	0.38239	-0.116
Mof_H 	H 	0.1343	0.2792	0.4057	0.082
Mof_C 	C 	0.05677	0.3683	0.49367	0.046
Mof_C 	C 	0.08858	0.4227	0.49837	-0.119
Mof_H 	H 	0.1071	0.4116	0.4814	0.078
Mof_C 	C 	0.09332	0.4931	0.52786	0.068
Mof_H 	H 	0.1157	0.5287	0.5315	-0.018
Mof_N 	N 	0.06774	0.51331	0.55159	-0.272
Mof_C 	C 	0.03657	0.4616	0.54664	0.066
Mof_H 	H 	0.018	0.4758	0.5632	-0.01
Mof_C 	C 	0.03023	0.3886	0.51846	-0.116
Mof_H 	H 	0.008	0.3527	0.5161	0.068
Mof_Zn	Zn	0.87883	0.90373	0.4313	1.158
Mof_I 	I 	0.90029	0.7613	0.39585	-0.186
Mof_I 	I 	0.86229	0.9012	0.50772	-0.219
Mof_Zn	Zn	0.57874	0.88013	0.09634	1.158
Mof_I 	I 	0.61021	0.75558	0.06162	-0.161
Mof_I 	I 	0.52182	0.8692	0.13264	-0.161
Mof_Zn	Zn	0.17344	0.13994	0.27539	1.158
Mof_I 	I 	0.12941	0.16163	0.19948	-0.241
Mof_I 	I 	0.23438	0.23014	0.3003	-0.163
Mof_I 	I 	0.90013	0.7694	0.3928	-0.153
Mof_I 	I 	0.8644	0.8944	0.5043	-0.118
Mof_I 	I 	0.6089	0.759	0.0566	-0.179
Mof_I 	I 	0.523	0.8493	0.1327	-0.16
Mof_I 	I 	0.1345	0.1628	0.2029	-0.128
Mof_I 	I 	0.2354	0.2249	0.3052	-0.174
Mof_C 	C 	0.2433	0.5962	0.30157	0.087
Mof_N 	N 	0.23695	0.68419	0.30791	-0.141
Mof_C 	C 	0.20676	0.719	0.28038	0.103
Mof_N 	N 	0.18287	0.67242	0.25016	-0.137
Mof_C 	C 	0.19266	0.5861	0.24575	0.099
Mof_N 	N 	0.22299	0.5448	0.26963	-0.142
Mof_C 	C 	0.27547	0.5515	0.33152	0.041
Mof_C 	C 	0.28525	0.4626	0.32389	-0.121
Mof_H 	H 	0.2714	0.4303	0.2994	0.087
Mof_C 	C 	0.31504	0.4221	0.35201	0.065
Mof_H 	H 	0.3216	0.3616	0.3463	-0.007
Mof_N 	N 	0.33531	0.46491	0.38732	-0.274
Mof_C 	C 	0.32583	0.5509	0.39473	0.06
Mof_H 	H 	0.34	0.5816	0.4196	-0.005
Mof_C 	C 	0.29638	0.5964	0.36775	-0.112
Mof_H 	H 	0.2906	0.6571	0.3739	0.079
Mof_C 	C 	0.19945	0.8176	0.28147	0.051
Mof_C 	C 	0.22722	0.8779	0.30121	-0.116
Mof_H 	H 	0.2515	0.8566	0.3159	0.073
Mof_C 	C 	0.21921	0.9694	0.29936	0.063
Mof_H 	H 	0.2385	0.0104	0.3127	-0.011
Mof_N 	N 	0.18528	0.00275	0.27957	-0.274
Mof_C 	C 	0.15842	0.9439	0.26064	0.063
Mof_H 	H 	0.1343	0.9669	0.2465	-0.017
Mof_C 	C 	0.16419	0.8517	0.26073	-0.116
Mof_H 	H 	0.1445	0.8121	0.2469	0.079
Mof_C 	C 	0.16683	0.5342	0.21055	0.055
Mof_C 	C 	0.13548	0.5762	0.18579	-0.12
Mof_H 	H 	0.13	0.6375	0.1911	0.089
Mof_C 	C 	0.1121	0.5279	0.1532	0.068
Mof_H 	H 	0.0902	0.557	0.1366	-0.01
Mof_N 	N 	0.11878	0.44209	0.14389	-0.276
Mof_C 	C 	0.14965	0.4016	0.16743	0.065
Mof_H 	H 	0.1548	0.3408	0.1607	-0.012
Mof_C 	C 	0.17447	0.4446	0.20128	-0.124
Mof_H 	H 	0.196	0.4139	0.2177	0.073
Mof_C 	C 	0.51689	0.6677	0.4362	0.093
Mof_N 	N 	0.53713	0.6541	0.4055	-0.135
Mof_C 	C 	0.56579	0.7121	0.40735	0.107
Mof_N 	N 	0.57359	0.78275	0.43463	-0.136
Mof_C 	C 	0.55119	0.7897	0.46316	0.093
Mof_N 	N 	0.5233	0.7323	0.46659	-0.15
Mof_C 	C 	0.48431	0.6066	0.4356	0.045
Mof_C 	C 	0.47085	0.591	0.47313	-0.118
Mof_H 	H 	0.4826	0.619	0.5	0.075
Mof_C 	C 	0.44012	0.5346	0.4712	0.068
Mof_H 	H 	0.4312	0.5234	0.4972	-0.007
Mof_N 	N 	0.42229	0.49475	0.43395	-0.275
Mof_C 	C 	0.43516	0.5119	0.39738	0.068
Mof_H 	H 	0.4223	0.4852	0.3707	-0.015
Mof_C 	C 	0.46601	0.566	0.39689	-0.119
Mof_H 	H 	0.4746	0.5755	0.3705	0.081
Mof_C 	C 	0.59128	0.6958	0.37643	0.061
Mof_C 	C 	0.58067	0.6365	0.34142	-0.119
Mof_H 	H 	0.5567	0.607	0.3363	0.082
Mof_C 	C 	0.60562	0.6216	0.31437	0.072
Mof_H 	H 	0.5983	0.5815	0.2903	-0.02
Mof_N 	N 	0.63969	0.6609	0.32032	-0.277
Mof_C 	C 	0.64975	0.7183	0.35408	0.066
Mof_H 	H 	0.674	0.7466	0.3586	-0.013
Mof_C 	C 	0.62643	0.7377	0.38239	-0.116
Mof_H 	H 	0.6343	0.7792	0.4057	0.082
Mof_C 	C 	0.55677	0.8683	0.49367	0.046
Mof_C 	C 	0.58858	0.9227	0.49837	-0.119
Mof_H 	H 	0.6071	0.9116	0.4814	0.077
Mof_C 	C 	0.59332	0.9931	0.52786	0.068
Mof_H 	H 	0.6157	0.0287	0.5315	-0.018
Mof_N 	N 	0.56774	0.01331	0.55159	-0.272
Mof_C 	C 	0.53657	0.9616	0.54664	0.066
Mof_H 	H 	0.518	0.9758	0.5632	-0.01
Mof_C 	C 	0.53023	0.8886	0.51846	-0.116
Mof_H 	H 	0.508	0.8527	0.5161	0.068
Mof_Zn	Zn	0.37883	0.40373	0.4313	1.158
Mof_I 	I 	0.40029	0.2613	0.39585	-0.186
Mof_I 	I 	0.36229	0.4012	0.50772	-0.219
Mof_Zn	Zn	0.07874	0.38013	0.09634	1.158
Mof_I 	I 	0.11021	0.25558	0.06162	-0.161
Mof_I 	I 	0.02182	0.3692	0.13264	-0.161
Mof_Zn	Zn	0.67344	0.63994	0.27539	1.158
Mof_I 	I 	0.62941	0.66163	0.19948	-0.241
Mof_I 	I 	0.73438	0.73014	0.3003	-0.163
Mof_I 	I 	0.40013	0.2694	0.3928	-0.153
Mof_I 	I 	0.3644	0.3944	0.5043	-0.117
Mof_I 	I 	0.1089	0.259	0.0566	-0.179
Mof_I 	I 	0.023	0.3493	0.1327	-0.159
Mof_I 	I 	0.6345	0.6628	0.2029	-0.128
Mof_I 	I 	0.7354	0.7249	0.3052	-0.174
Mof_C 	C 	0.7433	0.9038	0.80157	0.087
Mof_N 	N 	0.73695	0.81581	0.80791	-0.141
Mof_C 	C 	0.70676	0.781	0.78038	0.103
Mof_N 	N 	0.68287	0.82758	0.75016	-0.137
Mof_C 	C 	0.69266	0.9139	0.74575	0.099
Mof_N 	N 	0.72299	0.9552	0.76963	-0.142
Mof_C 	C 	0.77547	0.9485	0.83152	0.041
Mof_C 	C 	0.78525	0.0374	0.82389	-0.121
Mof_H 	H 	0.7714	0.0697	0.7994	0.087
Mof_C 	C 	0.81504	0.0779	0.85201	0.065
Mof_H 	H 	0.8216	0.1384	0.8463	-0.007
Mof_N 	N 	0.83531	0.03509	0.88732	-0.274
Mof_C 	C 	0.82583	0.9491	0.89473	0.06
Mof_H 	H 	0.84	0.9184	0.9196	-0.004
Mof_C 	C 	0.79638	0.9036	0.86775	-0.112
Mof_H 	H 	0.7906	0.8429	0.8739	0.079
Mof_C 	C 	0.69945	0.6824	0.78147	0.051
Mof_C 	C 	0.72722	0.6221	0.80121	-0.116
Mof_H 	H 	0.7515	0.6434	0.8159	0.073
Mof_C 	C 	0.71921	0.5306	0.79936	0.064
Mof_H 	H 	0.7385	0.4896	0.8127	-0.011
Mof_N 	N 	0.68528	0.49725	0.77957	-0.274
Mof_C 	C 	0.65842	0.5561	0.76064	0.063
Mof_H 	H 	0.6343	0.5331	0.7465	-0.017
Mof_C 	C 	0.66419	0.6483	0.76073	-0.116
Mof_H 	H 	0.6445	0.6879	0.7469	0.079
Mof_C 	C 	0.66683	0.9658	0.71055	0.055
Mof_C 	C 	0.63548	0.9238	0.68579	-0.12
Mof_H 	H 	0.63	0.8625	0.6911	0.089
Mof_C 	C 	0.6121	0.9721	0.6532	0.068
Mof_H 	H 	0.5902	0.943	0.6366	-0.01
Mof_N 	N 	0.61878	0.05791	0.64389	-0.276
Mof_C 	C 	0.64965	0.0984	0.66743	0.065
Mof_H 	H 	0.6548	0.1592	0.6607	-0.012
Mof_C 	C 	0.67447	0.0554	0.70128	-0.124
Mof_H 	H 	0.696	0.0861	0.7177	0.073
Mof_C 	C 	0.01689	0.8323	0.9362	0.094
Mof_N 	N 	0.03713	0.8459	0.9055	-0.135
Mof_C 	C 	0.06579	0.7879	0.90735	0.107
Mof_N 	N 	0.07359	0.71725	0.93463	-0.136
Mof_C 	C 	0.05119	0.7103	0.96316	0.093
Mof_N 	N 	0.0233	0.7677	0.96659	-0.15
Mof_C 	C 	0.98431	0.8934	0.9356	0.043
Mof_C 	C 	0.97085	0.909	0.97313	-0.113
Mof_H 	H 	0.9826	0.881	-0	0.072
Mof_C 	C 	0.94012	0.9654	0.9712	0.066
Mof_H 	H 	0.9312	0.9766	0.9972	-0.006
Mof_N 	N 	0.92229	0.00525	0.93395	-0.274
Mof_C 	C 	0.93516	0.9881	0.89738	0.068
Mof_H 	H 	0.9223	0.0148	0.8707	-0.015
Mof_C 	C 	0.96601	0.934	0.89689	-0.118
Mof_H 	H 	0.9746	0.9245	0.8705	0.081
Mof_C 	C 	0.09128	0.8042	0.87643	0.061
Mof_C 	C 	0.08067	0.8635	0.84142	-0.119
Mof_H 	H 	0.0567	0.893	0.8363	0.082
Mof_C 	C 	0.10562	0.8784	0.81437	0.072
Mof_H 	H 	0.0983	0.9185	0.7903	-0.02
Mof_N 	N 	0.13969	0.8391	0.82032	-0.277
Mof_C 	C 	0.14975	0.7817	0.85408	0.066
Mof_H 	H 	0.174	0.7534	0.8586	-0.013
Mof_C 	C 	0.12643	0.7623	0.88239	-0.116
Mof_H 	H 	0.1343	0.7208	0.9057	0.082
Mof_C 	C 	0.05677	0.6317	0.99367	0.048
Mof_C 	C 	0.08858	0.5773	0.99837	-0.116
Mof_H 	H 	0.1071	0.5884	0.9814	0.077
Mof_C 	C 	0.09332	0.5069	0.02786	0.065
Mof_H 	H 	0.1157	0.4713	0.0315	-0.018
Mof_N 	N 	0.06774	0.48669	0.05159	-0.272
Mof_C 	C 	0.03657	0.5384	0.04664	0.066
Mof_H 	H 	0.018	0.5242	0.0632	-0.011
Mof_C 	C 	0.03023	0.6114	0.01846	-0.119
Mof_H 	H 	0.008	0.6473	0.0161	0.068
Mof_Zn	Zn	0.87883	0.09627	0.9313	1.158
Mof_I 	I 	0.90029	0.2387	0.89585	-0.186
Mof_I 	I 	0.86229	0.0988	0.00772	-0.22
Mof_Zn	Zn	0.57874	0.11987	0.59634	1.158
Mof_I 	I 	0.61021	0.24442	0.56162	-0.16
Mof_I 	I 	0.52182	0.1308	0.63264	-0.161
Mof_Zn	Zn	0.17344	0.86006	0.77539	1.158
Mof_I 	I 	0.12941	0.83837	0.69948	-0.241
Mof_I 	I 	0.23438	0.76986	0.8003	-0.163
Mof_I 	I 	0.90013	0.2306	0.8928	-0.153
Mof_I 	I 	0.8644	0.1056	0.0043	-0.118
Mof_I 	I 	0.6089	0.241	0.5566	-0.178
Mof_I 	I 	0.523	0.1507	0.6327	-0.159
Mof_I 	I 	0.1345	0.8372	0.7029	-0.128
Mof_I 	I 	0.2354	0.7751	0.8052	-0.174
Mof_C 	C 	0.2433	0.4038	0.80157	0.087
Mof_N 	N 	0.23695	0.31581	0.80791	-0.141
Mof_C 	C 	0.20676	0.281	0.78038	0.103
Mof_N 	N 	0.18287	0.32758	0.75016	-0.137
Mof_C 	C 	0.19266	0.4139	0.74575	0.099
Mof_N 	N 	0.22299	0.4552	0.76963	-0.142
Mof_C 	C 	0.27547	0.4485	0.83152	0.041
Mof_C 	C 	0.28525	0.5374	0.82389	-0.121
Mof_H 	H 	0.2714	0.5697	0.7994	0.087
Mof_C 	C 	0.31504	0.5779	0.85201	0.065
Mof_H 	H 	0.3216	0.6384	0.8463	-0.007
Mof_N 	N 	0.33531	0.53509	0.88732	-0.273
Mof_C 	C 	0.32583	0.4491	0.89473	0.06
Mof_H 	H 	0.34	0.4184	0.9196	-0.004
Mof_C 	C 	0.29638	0.4036	0.86775	-0.112
Mof_H 	H 	0.2906	0.3429	0.8739	0.079
Mof_C 	C 	0.19945	0.1824	0.78147	0.051
Mof_C 	C 	0.22722	0.1221	0.80121	-0.116
Mof_H 	H 	0.2515	0.1434	0.8159	0.073
Mof_C 	C 	0.21921	0.0306	0.79936	0.064
Mof_H 	H 	0.2385	0.9896	0.8127	-0.011
Mof_N 	N 	0.18528	0.99725	0.77957	-0.274
Mof_C 	C 	0.15842	0.0561	0.76064	0.063
Mof_H 	H 	0.1343	0.0331	0.7465	-0.017
Mof_C 	C 	0.16419	0.1483	0.76073	-0.116
Mof_H 	H 	0.1445	0.1879	0.7469	0.079
Mof_C 	C 	0.16683	0.4658	0.71055	0.055
Mof_C 	C 	0.13548	0.4238	0.68579	-0.12
Mof_H 	H 	0.13	0.3625	0.6911	0.089
Mof_C 	C 	0.1121	0.4721	0.6532	0.068
Mof_H 	H 	0.0902	0.443	0.6366	-0.01
Mof_N 	N 	0.11878	0.55791	0.64389	-0.276
Mof_C 	C 	0.14965	0.5984	0.66743	0.065
Mof_H 	H 	0.1548	0.6592	0.6607	-0.012
Mof_C 	C 	0.17447	0.5554	0.70128	-0.124
Mof_H 	H 	0.196	0.5861	0.7177	0.073
Mof_C 	C 	0.51689	0.3323	0.9362	0.094
Mof_N 	N 	0.53713	0.3459	0.9055	-0.135
Mof_C 	C 	0.56579	0.2879	0.90735	0.107
Mof_N 	N 	0.57359	0.21725	0.93463	-0.136
Mof_C 	C 	0.55119	0.2103	0.96316	0.093
Mof_N 	N 	0.5233	0.2677	0.96659	-0.15
Mof_C 	C 	0.48431	0.3934	0.9356	0.043
Mof_C 	C 	0.47085	0.409	0.97313	-0.113
Mof_H 	H 	0.4826	0.381	-0	0.072
Mof_C 	C 	0.44012	0.4654	0.9712	0.066
Mof_H 	H 	0.4312	0.4766	0.9972	-0.006
Mof_N 	N 	0.42229	0.50525	0.93395	-0.274
Mof_C 	C 	0.43516	0.4881	0.89738	0.068
Mof_H 	H 	0.4223	0.5148	0.8707	-0.015
Mof_C 	C 	0.46601	0.434	0.89689	-0.118
Mof_H 	H 	0.4746	0.4245	0.8705	0.081
Mof_C 	C 	0.59128	0.3042	0.87643	0.061
Mof_C 	C 	0.58067	0.3635	0.84142	-0.119
Mof_H 	H 	0.5567	0.393	0.8363	0.082
Mof_C 	C 	0.60562	0.3784	0.81437	0.072
Mof_H 	H 	0.5983	0.4185	0.7903	-0.02
Mof_N 	N 	0.63969	0.3391	0.82032	-0.277
Mof_C 	C 	0.64975	0.2817	0.85408	0.066
Mof_H 	H 	0.674	0.2534	0.8586	-0.013
Mof_C 	C 	0.62643	0.2623	0.88239	-0.116
Mof_H 	H 	0.6343	0.2208	0.9057	0.082
Mof_C 	C 	0.55677	0.1317	0.99367	0.048
Mof_C 	C 	0.58858	0.0773	0.99837	-0.117
Mof_H 	H 	0.6071	0.0884	0.9814	0.077
Mof_C 	C 	0.59332	0.0069	0.02786	0.066
Mof_H 	H 	0.6157	0.9713	0.0315	-0.018
Mof_N 	N 	0.56774	0.98669	0.05159	-0.272
Mof_C 	C 	0.53657	0.0384	0.04664	0.066
Mof_H 	H 	0.518	0.0242	0.0632	-0.011
Mof_C 	C 	0.53023	0.1114	0.01846	-0.119
Mof_H 	H 	0.508	0.1473	0.0161	0.068
Mof_Zn	Zn	0.37883	0.59627	0.9313	1.159
Mof_I 	I 	0.40029	0.7387	0.89585	-0.186
Mof_I 	I 	0.36229	0.5988	0.00772	-0.22
Mof_Zn	Zn	0.07874	0.61987	0.59634	1.158
Mof_I 	I 	0.11021	0.74442	0.56162	-0.16
Mof_I 	I 	0.02182	0.6308	0.63264	-0.161
Mof_Zn	Zn	0.67344	0.36006	0.77539	1.158
Mof_I 	I 	0.62941	0.33837	0.69948	-0.241
Mof_I 	I 	0.73438	0.26986	0.8003	-0.163
Mof_I 	I 	0.40013	0.7306	0.8928	-0.153
Mof_I 	I 	0.3644	0.6056	0.0043	-0.118
Mof_I 	I 	0.1089	0.741	0.5566	-0.178
Mof_I 	I 	0.023	0.6507	0.6327	-0.159
Mof_I 	I 	0.6345	0.3372	0.7029	-0.128
Mof_I 	I 	0.7354	0.2751	0.8052	-0.174
_end
