# CIF file generated by openbabel 3.1.0, see https://openbabel.org
data_I
_chemical_name_common 'image0'
_cell_length_a 25.0111
_cell_length_b 22.9843
_cell_length_c 17.1959
_cell_angle_alpha 90
_cell_angle_beta 96.404
_cell_angle_gamma 90
_space_group_name_H-M_alt 'P 1'
_space_group_name_Hall 'P 1'
loop_
    _symmetry_equiv_pos_as_xyz
    x,y,z
loop_
    _atom_site_label
    _atom_site_type_symbol
    _atom_site_fract_x
    _atom_site_fract_y
    _atom_site_fract_z
    _atom_site_occupancy
    Zn1      Zn       0.14242    0.93269    0.31883    1.000
    S1       S        0.85210    0.74480    0.48520    1.000
    S2       S        0.24430    0.11660    0.81190    1.000
    O1       O        0.03299    0.93287    0.19220    1.000
    O2       O        0.07180    0.89430    0.30290    1.000
    O3       O        0.69624    0.62630    0.31340    1.000
    O4       O        0.71870    0.58710    0.20250    1.000
    O5       O        0.14490    0.95101    0.42913    1.000
    C1       C        0.03420    0.89870    0.24830    1.000
    C2       C        0.98730    0.85840    0.25010    1.000
    C3       C        0.94630    0.85890    0.18990    1.000
    H1       H        0.94740    0.88510    0.14740    1.000
    C4       C        0.90320    0.82110    0.19120    1.000
    H2       H        0.87620    0.81850    0.14790    1.000
    C5       C        0.90050    0.78610    0.25920    1.000
    C6       C        0.93840    0.78950    0.32040    1.000
    H3       H        0.93540    0.76680    0.36590    1.000
    C7       C        0.98260    0.82660    0.31740    1.000
    H4       H        0.00910    0.82980    0.36120    1.000
    C8       C        0.85380    0.74490    0.25980    1.000
    C9       C        0.84390    0.70760    0.19640    1.000
    H5       H        0.86590    0.70730    0.15470    1.000
    C10      C        0.79840    0.66920    0.19740    1.000
    H6       H        0.78880    0.64450    0.15370    1.000
    C11      C        0.76910    0.66740    0.25820    1.000
    C12      C        0.77740    0.70880    0.31320    1.000
    H7       H        0.75330    0.71160    0.35190    1.000
    C13      C        0.81870    0.74660    0.31530    1.000
    C14      C        0.82710    0.78900    0.39050    1.000
    H8       H        0.85380    0.81950    0.38180    1.000
    H9       H        0.79270    0.80850    0.39760    1.000
    C15      C        0.85740    0.80310    0.55810    1.000
    H10      H        0.86960    0.78680    0.60980    1.000
    H11      H        0.88340    0.83220    0.54430    1.000
    H12      H        0.82220    0.82140    0.55930    1.000
    C16      C        0.72580    0.62320    0.25920    1.000
    C17      C        0.13060    0.95030    0.58960    1.000
    H13      H        0.12000    0.91630    0.56030    1.000
    C18      C        0.12970    0.94970    0.66690    1.000
    H14      H        0.11870    0.91570    0.69230    1.000
    C19      C        0.09460    0.98850    0.82840    1.000
    H15      H        0.06350    0.98000    0.79320    1.000
    C20      C        0.09070    0.01090    0.90460    1.000
    H16      H        0.05680    0.01800    0.92300    1.000
    C21      C        0.18600    0.01580    0.92970    1.000
    H17      H        0.21640    0.02590    0.96530    1.000
    C22      C        0.18950    0.01600    0.84990    1.000
    C23      C        0.24270    0.03140    0.82360    1.000
    H18      H        0.24690    0.01230    0.77310    1.000
    H19      H        0.27230    0.01840    0.86270    1.000
    C24      C        0.26370    0.12200    0.71600    1.000
    H20      H        0.26500    0.16310    0.70100    1.000
    H21      H        0.23760    0.10150    0.67920    1.000
    H22      H        0.29940    0.10460    0.71490    1.000
    C25      C        0.16180    0.04540    0.59210    1.000
    C26      C        0.15840    0.04870    0.67300    1.000
    H23      H        0.17590    0.07790    0.56690    1.000
    H24      H        0.16510    0.08430    0.70040    1.000
    Zn2      Zn       0.64242    0.43269    0.31883    1.000
    S3       S        0.35210    0.24480    0.48520    1.000
    S4       S        0.74430    0.61660    0.81190    1.000
    O6       O        0.53299    0.43287    0.19220    1.000
    O7       O        0.57180    0.39430    0.30290    1.000
    O8       O        0.19624    0.12630    0.31340    1.000
    O9       O        0.21870    0.08710    0.20250    1.000
    O10      O        0.64490    0.45101    0.42913    1.000
    C27      C        0.53420    0.39870    0.24830    1.000
    C28      C        0.48730    0.35840    0.25010    1.000
    C29      C        0.44630    0.35890    0.18990    1.000
    H25      H        0.44740    0.38510    0.14740    1.000
    C30      C        0.40320    0.32110    0.19120    1.000
    H26      H        0.37620    0.31850    0.14790    1.000
    C31      C        0.40050    0.28610    0.25920    1.000
    C32      C        0.43840    0.28950    0.32040    1.000
    H27      H        0.43540    0.26680    0.36590    1.000
    C33      C        0.48260    0.32660    0.31740    1.000
    H28      H        0.50910    0.32980    0.36120    1.000
    C34      C        0.35380    0.24490    0.25980    1.000
    C35      C        0.34390    0.20760    0.19640    1.000
    H29      H        0.36590    0.20730    0.15470    1.000
    C36      C        0.29840    0.16920    0.19740    1.000
    H30      H        0.28880    0.14450    0.15370    1.000
    C37      C        0.26910    0.16740    0.25820    1.000
    C38      C        0.27740    0.20880    0.31320    1.000
    H31      H        0.25330    0.21160    0.35190    1.000
    C39      C        0.31870    0.24660    0.31530    1.000
    C40      C        0.32710    0.28900    0.39050    1.000
    H32      H        0.35380    0.31950    0.38180    1.000
    H33      H        0.29270    0.30850    0.39760    1.000
    C41      C        0.35740    0.30310    0.55810    1.000
    H34      H        0.36960    0.28680    0.60980    1.000
    H35      H        0.38340    0.33220    0.54430    1.000
    H36      H        0.32220    0.32140    0.55930    1.000
    C42      C        0.22580    0.12320    0.25920    1.000
    C43      C        0.63060    0.45030    0.58960    1.000
    H37      H        0.62000    0.41630    0.56030    1.000
    C44      C        0.62970    0.44970    0.66690    1.000
    H38      H        0.61870    0.41570    0.69230    1.000
    C45      C        0.59460    0.48850    0.82840    1.000
    H39      H        0.56350    0.48000    0.79320    1.000
    C46      C        0.59070    0.51090    0.90460    1.000
    H40      H        0.55680    0.51800    0.92300    1.000
    C47      C        0.68600    0.51580    0.92970    1.000
    H41      H        0.71640    0.52590    0.96530    1.000
    C48      C        0.68950    0.51600    0.84990    1.000
    C49      C        0.74270    0.53140    0.82360    1.000
    H42      H        0.74690    0.51230    0.77310    1.000
    H43      H        0.77230    0.51840    0.86270    1.000
    C50      C        0.76370    0.62200    0.71600    1.000
    H44      H        0.76500    0.66310    0.70100    1.000
    H45      H        0.73760    0.60150    0.67920    1.000
    H46      H        0.79940    0.60460    0.71490    1.000
    C51      C        0.66180    0.54540    0.59210    1.000
    C52      C        0.65840    0.54870    0.67300    1.000
    H47      H        0.67590    0.57790    0.56690    1.000
    H48      H        0.66510    0.58430    0.70040    1.000
    Zn3      Zn       0.14242    0.06731    0.31883    1.000
    S5       S        0.85210    0.25520    0.48520    1.000
    S6       S        0.24430    0.88340    0.81190    1.000
    O11      O        0.03299    0.06713    0.19220    1.000
    O12      O        0.07180    0.10570    0.30290    1.000
    O13      O        0.69624    0.37370    0.31340    1.000
    O14      O        0.71870    0.41290    0.20250    1.000
    O15      O        0.14490    0.04899    0.42913    1.000
    C53      C        0.03420    0.10130    0.24830    1.000
    C54      C        0.98730    0.14160    0.25010    1.000
    C55      C        0.94630    0.14110    0.18990    1.000
    H49      H        0.94740    0.11490    0.14740    1.000
    C56      C        0.90320    0.17890    0.19120    1.000
    H50      H        0.87620    0.18150    0.14790    1.000
    C57      C        0.90050    0.21390    0.25920    1.000
    C58      C        0.93840    0.21050    0.32040    1.000
    H51      H        0.93540    0.23320    0.36590    1.000
    C59      C        0.98260    0.17340    0.31740    1.000
    H52      H        0.00910    0.17020    0.36120    1.000
    C60      C        0.85380    0.25510    0.25980    1.000
    C61      C        0.84390    0.29240    0.19640    1.000
    H53      H        0.86590    0.29270    0.15470    1.000
    C62      C        0.79840    0.33080    0.19740    1.000
    H54      H        0.78880    0.35550    0.15370    1.000
    C63      C        0.76910    0.33260    0.25820    1.000
    C64      C        0.77740    0.29120    0.31320    1.000
    H55      H        0.75330    0.28840    0.35190    1.000
    C65      C        0.81870    0.25340    0.31530    1.000
    C66      C        0.82710    0.21100    0.39050    1.000
    H56      H        0.85380    0.18050    0.38180    1.000
    H57      H        0.79270    0.19150    0.39760    1.000
    C67      C        0.85740    0.19690    0.55810    1.000
    H58      H        0.86960    0.21320    0.60980    1.000
    H59      H        0.88340    0.16780    0.54430    1.000
    H60      H        0.82220    0.17860    0.55930    1.000
    C68      C        0.72580    0.37680    0.25920    1.000
    C69      C        0.13060    0.04970    0.58960    1.000
    H61      H        0.12000    0.08370    0.56030    1.000
    C70      C        0.12970    0.05030    0.66690    1.000
    H62      H        0.11870    0.08430    0.69230    1.000
    C71      C        0.09460    0.01150    0.82840    1.000
    H63      H        0.06350    0.02000    0.79320    1.000
    C72      C        0.09070    0.98910    0.90460    1.000
    H64      H        0.05680    0.98200    0.92300    1.000
    C73      C        0.18600    0.98420    0.92970    1.000
    H65      H        0.21640    0.97410    0.96530    1.000
    C74      C        0.18950    0.98400    0.84990    1.000
    C75      C        0.24270    0.96860    0.82360    1.000
    H66      H        0.24690    0.98770    0.77310    1.000
    H67      H        0.27230    0.98160    0.86270    1.000
    C76      C        0.26370    0.87800    0.71600    1.000
    H68      H        0.26500    0.83690    0.70100    1.000
    H69      H        0.23760    0.89850    0.67920    1.000
    H70      H        0.29940    0.89540    0.71490    1.000
    C77      C        0.16180    0.95460    0.59210    1.000
    C78      C        0.15840    0.95130    0.67300    1.000
    H71      H        0.17590    0.92210    0.56690    1.000
    H72      H        0.16510    0.91570    0.70040    1.000
    Zn4      Zn       0.64242    0.56731    0.31883    1.000
    S7       S        0.35210    0.75520    0.48520    1.000
    S8       S        0.74430    0.38340    0.81190    1.000
    O16      O        0.53299    0.56713    0.19220    1.000
    O17      O        0.57180    0.60570    0.30290    1.000
    O18      O        0.19624    0.87370    0.31340    1.000
    O19      O        0.21870    0.91290    0.20250    1.000
    O20      O        0.64490    0.54899    0.42913    1.000
    C79      C        0.53420    0.60130    0.24830    1.000
    C80      C        0.48730    0.64160    0.25010    1.000
    C81      C        0.44630    0.64110    0.18990    1.000
    H73      H        0.44740    0.61490    0.14740    1.000
    C82      C        0.40320    0.67890    0.19120    1.000
    H74      H        0.37620    0.68150    0.14790    1.000
    C83      C        0.40050    0.71390    0.25920    1.000
    C84      C        0.43840    0.71050    0.32040    1.000
    H75      H        0.43540    0.73320    0.36590    1.000
    C85      C        0.48260    0.67340    0.31740    1.000
    H76      H        0.50910    0.67020    0.36120    1.000
    C86      C        0.35380    0.75510    0.25980    1.000
    C87      C        0.34390    0.79240    0.19640    1.000
    H77      H        0.36590    0.79270    0.15470    1.000
    C88      C        0.29840    0.83080    0.19740    1.000
    H78      H        0.28880    0.85550    0.15370    1.000
    C89      C        0.26910    0.83260    0.25820    1.000
    C90      C        0.27740    0.79120    0.31320    1.000
    H79      H        0.25330    0.78840    0.35190    1.000
    C91      C        0.31870    0.75340    0.31530    1.000
    C92      C        0.32710    0.71100    0.39050    1.000
    H80      H        0.35380    0.68050    0.38180    1.000
    H81      H        0.29270    0.69150    0.39760    1.000
    C93      C        0.35740    0.69690    0.55810    1.000
    H82      H        0.36960    0.71320    0.60980    1.000
    H83      H        0.38340    0.66780    0.54430    1.000
    H84      H        0.32220    0.67860    0.55930    1.000
    C94      C        0.22580    0.87680    0.25920    1.000
    C95      C        0.63060    0.54970    0.58960    1.000
    H85      H        0.62000    0.58370    0.56030    1.000
    C96      C        0.62970    0.55030    0.66690    1.000
    H86      H        0.61870    0.58430    0.69230    1.000
    C97      C        0.59460    0.51150    0.82840    1.000
    H87      H        0.56350    0.52000    0.79320    1.000
    C98      C        0.59070    0.48910    0.90460    1.000
    H88      H        0.55680    0.48200    0.92300    1.000
    C99      C        0.68600    0.48420    0.92970    1.000
    H89      H        0.71640    0.47410    0.96530    1.000
    C100     C        0.68950    0.48400    0.84990    1.000
    C101     C        0.74270    0.46860    0.82360    1.000
    H90      H        0.74690    0.48770    0.77310    1.000
    H91      H        0.77230    0.48160    0.86270    1.000
    C102     C        0.76370    0.37800    0.71600    1.000
    H92      H        0.76500    0.33690    0.70100    1.000
    H93      H        0.73760    0.39850    0.67920    1.000
    H94      H        0.79940    0.39540    0.71490    1.000
    C103     C        0.66180    0.45460    0.59210    1.000
    C104     C        0.65840    0.45130    0.67300    1.000
    H95      H        0.67590    0.42210    0.56690    1.000
    H96      H        0.66510    0.41570    0.70040    1.000
    Zn5      Zn       0.07965    0.00000    0.17837    1.000
    Zn6      Zn       0.20952    0.00000    0.19914    1.000
    O21      O        0.14198    0.00000    0.25265    1.000
    O22      O        0.17690    0.00000    0.08700    1.000
    O23      O        0.08892    0.00000    0.06860    1.000
    C105     C        0.14590    0.00000    0.46240    1.000
    C106     C        0.14670    0.00000    0.55000    1.000
    C107     C        0.14530    0.00000    0.71090    1.000
    C108     C        0.14350    0.00000    0.79830    1.000
    C109     C        0.13590    0.00000    0.95850    1.000
    C110     C        0.13420    0.00000    0.04500    1.000
    Zn7      Zn       0.57965    0.50000    0.17837    1.000
    Zn8      Zn       0.70952    0.50000    0.19914    1.000
    O24      O        0.64198    0.50000    0.25265    1.000
    O25      O        0.67690    0.50000    0.08700    1.000
    O26      O        0.58892    0.50000    0.06860    1.000
    C111     C        0.64590    0.50000    0.46240    1.000
    C112     C        0.64670    0.50000    0.55000    1.000
    C113     C        0.64530    0.50000    0.71090    1.000
    C114     C        0.64350    0.50000    0.79830    1.000
    C115     C        0.63590    0.50000    0.95850    1.000
    C116     C        0.63420    0.50000    0.04500    1.000
    Zn9      Zn       0.85758    0.93269    0.68117    1.000
    S9       S        0.14790    0.74480    0.51480    1.000
    S10      S        0.75570    0.11660    0.18810    1.000
    O27      O        0.96701    0.93287    0.80780    1.000
    O28      O        0.92820    0.89430    0.69710    1.000
    O29      O        0.30376    0.62630    0.68660    1.000
    O30      O        0.28130    0.58710    0.79750    1.000
    O31      O        0.85510    0.95101    0.57087    1.000
    C117     C        0.96580    0.89870    0.75170    1.000
    C118     C        0.01270    0.85840    0.74990    1.000
    C119     C        0.05370    0.85890    0.81010    1.000
    H97      H        0.05260    0.88510    0.85260    1.000
    C120     C        0.09680    0.82110    0.80880    1.000
    H98      H        0.12380    0.81850    0.85210    1.000
    C121     C        0.09950    0.78610    0.74080    1.000
    C122     C        0.06160    0.78950    0.67960    1.000
    H99      H        0.06460    0.76680    0.63410    1.000
    C123     C        0.01740    0.82660    0.68260    1.000
    H100     H        0.99090    0.82980    0.63880    1.000
    C124     C        0.14620    0.74490    0.74020    1.000
    C125     C        0.15610    0.70760    0.80360    1.000
    H101     H        0.13410    0.70730    0.84530    1.000
    C126     C        0.20160    0.66920    0.80260    1.000
    H102     H        0.21120    0.64450    0.84630    1.000
    C127     C        0.23090    0.66740    0.74180    1.000
    C128     C        0.22260    0.70880    0.68680    1.000
    H103     H        0.24670    0.71160    0.64810    1.000
    C129     C        0.18130    0.74660    0.68470    1.000
    C130     C        0.17290    0.78900    0.60950    1.000
    H104     H        0.14620    0.81950    0.61820    1.000
    H105     H        0.20730    0.80850    0.60240    1.000
    C131     C        0.14260    0.80310    0.44190    1.000
    H106     H        0.13040    0.78680    0.39020    1.000
    H107     H        0.11660    0.83220    0.45570    1.000
    H108     H        0.17780    0.82140    0.44070    1.000
    C132     C        0.27420    0.62320    0.74080    1.000
    C133     C        0.86940    0.95030    0.41040    1.000
    H109     H        0.88000    0.91630    0.43970    1.000
    C134     C        0.87030    0.94970    0.33310    1.000
    H110     H        0.88130    0.91570    0.30770    1.000
    C135     C        0.90540    0.98850    0.17160    1.000
    H111     H        0.93650    0.98000    0.20680    1.000
    C136     C        0.90930    0.01090    0.09540    1.000
    H112     H        0.94320    0.01800    0.07700    1.000
    C137     C        0.81400    0.01580    0.07030    1.000
    H113     H        0.78360    0.02590    0.03470    1.000
    C138     C        0.81050    0.01600    0.15010    1.000
    C139     C        0.75730    0.03140    0.17640    1.000
    H114     H        0.75310    0.01230    0.22690    1.000
    H115     H        0.72770    0.01840    0.13730    1.000
    C140     C        0.73630    0.12200    0.28400    1.000
    H116     H        0.73500    0.16310    0.29900    1.000
    H117     H        0.76240    0.10150    0.32080    1.000
    H118     H        0.70060    0.10460    0.28510    1.000
    C141     C        0.83820    0.04540    0.40790    1.000
    C142     C        0.84160    0.04870    0.32700    1.000
    H119     H        0.82410    0.07790    0.43310    1.000
    H120     H        0.83490    0.08430    0.29960    1.000
    Zn10     Zn       0.35758    0.43269    0.68117    1.000
    S11      S        0.64790    0.24480    0.51480    1.000
    S12      S        0.25570    0.61660    0.18810    1.000
    O32      O        0.46701    0.43287    0.80780    1.000
    O33      O        0.42820    0.39430    0.69710    1.000
    O34      O        0.80376    0.12630    0.68660    1.000
    O35      O        0.78130    0.08710    0.79750    1.000
    O36      O        0.35510    0.45101    0.57087    1.000
    C143     C        0.46580    0.39870    0.75170    1.000
    C144     C        0.51270    0.35840    0.74990    1.000
    C145     C        0.55370    0.35890    0.81010    1.000
    H121     H        0.55260    0.38510    0.85260    1.000
    C146     C        0.59680    0.32110    0.80880    1.000
    H122     H        0.62380    0.31850    0.85210    1.000
    C147     C        0.59950    0.28610    0.74080    1.000
    C148     C        0.56160    0.28950    0.67960    1.000
    H123     H        0.56460    0.26680    0.63410    1.000
    C149     C        0.51740    0.32660    0.68260    1.000
    H124     H        0.49090    0.32980    0.63880    1.000
    C150     C        0.64620    0.24490    0.74020    1.000
    C151     C        0.65610    0.20760    0.80360    1.000
    H125     H        0.63410    0.20730    0.84530    1.000
    C152     C        0.70160    0.16920    0.80260    1.000
    H126     H        0.71120    0.14450    0.84630    1.000
    C153     C        0.73090    0.16740    0.74180    1.000
    C154     C        0.72260    0.20880    0.68680    1.000
    H127     H        0.74670    0.21160    0.64810    1.000
    C155     C        0.68130    0.24660    0.68470    1.000
    C156     C        0.67290    0.28900    0.60950    1.000
    H128     H        0.64620    0.31950    0.61820    1.000
    H129     H        0.70730    0.30850    0.60240    1.000
    C157     C        0.64260    0.30310    0.44190    1.000
    H130     H        0.63040    0.28680    0.39020    1.000
    H131     H        0.61660    0.33220    0.45570    1.000
    H132     H        0.67780    0.32140    0.44070    1.000
    C158     C        0.77420    0.12320    0.74080    1.000
    C159     C        0.36940    0.45030    0.41040    1.000
    H133     H        0.38000    0.41630    0.43970    1.000
    C160     C        0.37030    0.44970    0.33310    1.000
    H134     H        0.38130    0.41570    0.30770    1.000
    C161     C        0.40540    0.48850    0.17160    1.000
    H135     H        0.43650    0.48000    0.20680    1.000
    C162     C        0.40930    0.51090    0.09540    1.000
    H136     H        0.44320    0.51800    0.07700    1.000
    C163     C        0.31400    0.51580    0.07030    1.000
    H137     H        0.28360    0.52590    0.03470    1.000
    C164     C        0.31050    0.51600    0.15010    1.000
    C165     C        0.25730    0.53140    0.17640    1.000
    H138     H        0.25310    0.51230    0.22690    1.000
    H139     H        0.22770    0.51840    0.13730    1.000
    C166     C        0.23630    0.62200    0.28400    1.000
    H140     H        0.23500    0.66310    0.29900    1.000
    H141     H        0.26240    0.60150    0.32080    1.000
    H142     H        0.20060    0.60460    0.28510    1.000
    C167     C        0.33820    0.54540    0.40790    1.000
    C168     C        0.34160    0.54870    0.32700    1.000
    H143     H        0.32410    0.57790    0.43310    1.000
    H144     H        0.33490    0.58430    0.29960    1.000
    Zn11     Zn       0.85758    0.06731    0.68117    1.000
    S13      S        0.14790    0.25520    0.51480    1.000
    S14      S        0.75570    0.88340    0.18810    1.000
    O37      O        0.96701    0.06713    0.80780    1.000
    O38      O        0.92820    0.10570    0.69710    1.000
    O39      O        0.30376    0.37370    0.68660    1.000
    O40      O        0.28130    0.41290    0.79750    1.000
    O41      O        0.85510    0.04899    0.57087    1.000
    C169     C        0.96580    0.10130    0.75170    1.000
    C170     C        0.01270    0.14160    0.74990    1.000
    C171     C        0.05370    0.14110    0.81010    1.000
    H145     H        0.05260    0.11490    0.85260    1.000
    C172     C        0.09680    0.17890    0.80880    1.000
    H146     H        0.12380    0.18150    0.85210    1.000
    C173     C        0.09950    0.21390    0.74080    1.000
    C174     C        0.06160    0.21050    0.67960    1.000
    H147     H        0.06460    0.23320    0.63410    1.000
    C175     C        0.01740    0.17340    0.68260    1.000
    H148     H        0.99090    0.17020    0.63880    1.000
    C176     C        0.14620    0.25510    0.74020    1.000
    C177     C        0.15610    0.29240    0.80360    1.000
    H149     H        0.13410    0.29270    0.84530    1.000
    C178     C        0.20160    0.33080    0.80260    1.000
    H150     H        0.21120    0.35550    0.84630    1.000
    C179     C        0.23090    0.33260    0.74180    1.000
    C180     C        0.22260    0.29120    0.68680    1.000
    H151     H        0.24670    0.28840    0.64810    1.000
    C181     C        0.18130    0.25340    0.68470    1.000
    C182     C        0.17290    0.21100    0.60950    1.000
    H152     H        0.14620    0.18050    0.61820    1.000
    H153     H        0.20730    0.19150    0.60240    1.000
    C183     C        0.14260    0.19690    0.44190    1.000
    H154     H        0.13040    0.21320    0.39020    1.000
    H155     H        0.11660    0.16780    0.45570    1.000
    H156     H        0.17780    0.17860    0.44070    1.000
    C184     C        0.27420    0.37680    0.74080    1.000
    C185     C        0.86940    0.04970    0.41040    1.000
    H157     H        0.88000    0.08370    0.43970    1.000
    C186     C        0.87030    0.05030    0.33310    1.000
    H158     H        0.88130    0.08430    0.30770    1.000
    C187     C        0.90540    0.01150    0.17160    1.000
    H159     H        0.93650    0.02000    0.20680    1.000
    C188     C        0.90930    0.98910    0.09540    1.000
    H160     H        0.94320    0.98200    0.07700    1.000
    C189     C        0.81400    0.98420    0.07030    1.000
    H161     H        0.78360    0.97410    0.03470    1.000
    C190     C        0.81050    0.98400    0.15010    1.000
    C191     C        0.75730    0.96860    0.17640    1.000
    H162     H        0.75310    0.98770    0.22690    1.000
    H163     H        0.72770    0.98160    0.13730    1.000
    C192     C        0.73630    0.87800    0.28400    1.000
    H164     H        0.73500    0.83690    0.29900    1.000
    H165     H        0.76240    0.89850    0.32080    1.000
    H166     H        0.70060    0.89540    0.28510    1.000
    C193     C        0.83820    0.95460    0.40790    1.000
    C194     C        0.84160    0.95130    0.32700    1.000
    H167     H        0.82410    0.92210    0.43310    1.000
    H168     H        0.83490    0.91570    0.29960    1.000
    Zn12     Zn       0.35758    0.56731    0.68117    1.000
    S15      S        0.64790    0.75520    0.51480    1.000
    S16      S        0.25570    0.38340    0.18810    1.000
    O42      O        0.46701    0.56713    0.80780    1.000
    O43      O        0.42820    0.60570    0.69710    1.000
    O44      O        0.80376    0.87370    0.68660    1.000
    O45      O        0.78130    0.91290    0.79750    1.000
    O46      O        0.35510    0.54899    0.57087    1.000
    C195     C        0.46580    0.60130    0.75170    1.000
    C196     C        0.51270    0.64160    0.74990    1.000
    C197     C        0.55370    0.64110    0.81010    1.000
    H169     H        0.55260    0.61490    0.85260    1.000
    C198     C        0.59680    0.67890    0.80880    1.000
    H170     H        0.62380    0.68150    0.85210    1.000
    C199     C        0.59950    0.71390    0.74080    1.000
    C200     C        0.56160    0.71050    0.67960    1.000
    H171     H        0.56460    0.73320    0.63410    1.000
    C201     C        0.51740    0.67340    0.68260    1.000
    H172     H        0.49090    0.67020    0.63880    1.000
    C202     C        0.64620    0.75510    0.74020    1.000
    C203     C        0.65610    0.79240    0.80360    1.000
    H173     H        0.63410    0.79270    0.84530    1.000
    C204     C        0.70160    0.83080    0.80260    1.000
    H174     H        0.71120    0.85550    0.84630    1.000
    C205     C        0.73090    0.83260    0.74180    1.000
    C206     C        0.72260    0.79120    0.68680    1.000
    H175     H        0.74670    0.78840    0.64810    1.000
    C207     C        0.68130    0.75340    0.68470    1.000
    C208     C        0.67290    0.71100    0.60950    1.000
    H176     H        0.64620    0.68050    0.61820    1.000
    H177     H        0.70730    0.69150    0.60240    1.000
    C209     C        0.64260    0.69690    0.44190    1.000
    H178     H        0.63040    0.71320    0.39020    1.000
    H179     H        0.61660    0.66780    0.45570    1.000
    H180     H        0.67780    0.67860    0.44070    1.000
    C210     C        0.77420    0.87680    0.74080    1.000
    C211     C        0.36940    0.54970    0.41040    1.000
    H181     H        0.38000    0.58370    0.43970    1.000
    C212     C        0.37030    0.55030    0.33310    1.000
    H182     H        0.38130    0.58430    0.30770    1.000
    C213     C        0.40540    0.51150    0.17160    1.000
    H183     H        0.43650    0.52000    0.20680    1.000
    C214     C        0.40930    0.48910    0.09540    1.000
    H184     H        0.44320    0.48200    0.07700    1.000
    C215     C        0.31400    0.48420    0.07030    1.000
    H185     H        0.28360    0.47410    0.03470    1.000
    C216     C        0.31050    0.48400    0.15010    1.000
    C217     C        0.25730    0.46860    0.17640    1.000
    H186     H        0.25310    0.48770    0.22690    1.000
    H187     H        0.22770    0.48160    0.13730    1.000
    C218     C        0.23630    0.37800    0.28400    1.000
    H188     H        0.23500    0.33690    0.29900    1.000
    H189     H        0.26240    0.39850    0.32080    1.000
    H190     H        0.20060    0.39540    0.28510    1.000
    C219     C        0.33820    0.45460    0.40790    1.000
    C220     C        0.34160    0.45130    0.32700    1.000
    H191     H        0.32410    0.42210    0.43310    1.000
    H192     H        0.33490    0.41570    0.29960    1.000
    Zn13     Zn       0.92035    0.00000    0.82163    1.000
    Zn14     Zn       0.79048    0.00000    0.80086    1.000
    O47      O        0.85802    0.00000    0.74735    1.000
    O48      O        0.82310    0.00000    0.91300    1.000
    O49      O        0.91108    0.00000    0.93140    1.000
    C221     C        0.85410    0.00000    0.53760    1.000
    C222     C        0.85330    0.00000    0.45000    1.000
    C223     C        0.85470    0.00000    0.28910    1.000
    C224     C        0.85650    0.00000    0.20170    1.000
    C225     C        0.86410    0.00000    0.04150    1.000
    C226     C        0.86580    0.00000    0.95500    1.000
    Zn15     Zn       0.42035    0.50000    0.82163    1.000
    Zn16     Zn       0.29048    0.50000    0.80086    1.000
    O50      O        0.35802    0.50000    0.74735    1.000
    O51      O        0.32310    0.50000    0.91300    1.000
    O52      O        0.41108    0.50000    0.93140    1.000
    C227     C        0.35410    0.50000    0.53760    1.000
    C228     C        0.35330    0.50000    0.45000    1.000
    C229     C        0.35470    0.50000    0.28910    1.000
    C230     C        0.35650    0.50000    0.20170    1.000
    C231     C        0.36410    0.50000    0.04150    1.000
    C232     C        0.36580    0.50000    0.95500    1.000
