data_functionalizedCrystal
_audit_creation_method	'EQeq! by Chris Wilmer'
_symmetry_space_group_name_H-M	'P1'
_symmetry_Int_Tables_number	1
_symmetry_cell_setting	triclinic
loop_
_symmetry_equiv_pos_as_xyz
  x,y,z
_cell_length_a	24.803
_cell_length_b	24.803
_cell_length_c	28.412
_cell_angle_alpha	90
_cell_angle_beta	90
_cell_angle_gamma	90
loop_
_atom_site_label
_atom_site_type_symbol
_atom_site_fract_x
_atom_site_fract_y
_atom_site_fract_z
_atom_site_charge
Mof_S 	S 	0.9998	0.3239	0.0803	-0.457
Mof_N 	N 	0.1397	0.3323	0.0784	-0.246
Mof_N 	N 	0.9227	0.3913	0.1709	-0.246
Mof_C 	C 	0.1342	0.3167	0.0338	0.068
Mof_C 	C 	0.1781	0.3184	0.0043	-0.126
Mof_C 	C 	0.2268	0.334	0.0156	0.059
Mof_C 	C 	0.2306	0.3517	0.0632	-0.146
Mof_C 	C 	0.1878	0.3495	0.0906	0.099
Mof_C 	C 	0.9335	0.4417	0.1564	0.084
Mof_C 	C 	0.9367	0.4836	0.1844	-0.132
Mof_C 	C 	0.9273	0.477	0.2329	0.058
Mof_C 	C 	0.9172	0.4242	0.2463	-0.137
Mof_C 	C 	0.9136	0.3846	0.2152	0.093
Mof_H 	H 	0.1003	0.3031	0.0238	-0.009
Mof_H 	H 	0.172	0.3076	0.9727	0.069
Mof_H 	H 	0.2643	0.3647	0.0743	0.085
Mof_H 	H 	0.1923	0.3603	0.1225	-0.018
Mof_H 	H 	0.9386	0.447	0.1236	-0.01
Mof_H 	H 	0.9453	0.5184	0.1725	0.078
Mof_H 	H 	0.9121	0.4168	0.2788	0.068
Mof_H 	H 	0.9047	0.3494	0.226	-0.016
Mof_S 	S 	0.4998	0.8239	0.5803	-0.473
Mof_N 	N 	0.6397	0.8323	0.5784	-0.244
Mof_N 	N 	0.4227	0.8913	0.6709	-0.246
Mof_C 	C 	0.6342	0.8167	0.5338	0.068
Mof_C 	C 	0.6781	0.8184	0.5043	-0.124
Mof_C 	C 	0.7268	0.834	0.5156	0.06
Mof_C 	C 	0.7306	0.8517	0.5632	-0.146
Mof_C 	C 	0.6878	0.8495	0.5906	0.099
Mof_C 	C 	0.4335	0.9417	0.6564	0.083
Mof_C 	C 	0.4367	0.9836	0.6844	-0.133
Mof_C 	C 	0.4273	0.977	0.7329	0.057
Mof_C 	C 	0.4172	0.9242	0.7463	-0.138
Mof_C 	C 	0.4136	0.8846	0.7152	0.092
Mof_H 	H 	0.6003	0.8031	0.5238	-0.008
Mof_H 	H 	0.672	0.8076	0.4727	0.068
Mof_H 	H 	0.7643	0.8647	0.5743	0.085
Mof_H 	H 	0.6923	0.8603	0.6225	-0.018
Mof_H 	H 	0.4386	0.947	0.6236	-0.011
Mof_H 	H 	0.4453	0.0184	0.6725	0.077
Mof_H 	H 	0.4121	0.9168	0.7788	0.068
Mof_H 	H 	0.4047	0.8494	0.726	-0.016
Mof_S 	S 	0.5002	0.6761	0.5803	-0.473
Mof_N 	N 	0.3603	0.6677	0.5784	-0.244
Mof_N 	N 	0.5773	0.6087	0.6709	-0.246
Mof_C 	C 	0.3658	0.6833	0.5338	0.068
Mof_C 	C 	0.3219	0.6816	0.5043	-0.124
Mof_C 	C 	0.2732	0.666	0.5156	0.06
Mof_C 	C 	0.2694	0.6483	0.5632	-0.146
Mof_C 	C 	0.3122	0.6505	0.5906	0.099
Mof_C 	C 	0.5665	0.5583	0.6564	0.083
Mof_C 	C 	0.5633	0.5164	0.6844	-0.133
Mof_C 	C 	0.5727	0.523	0.7329	0.057
Mof_C 	C 	0.5828	0.5758	0.7463	-0.138
Mof_C 	C 	0.5864	0.6154	0.7152	0.092
Mof_H 	H 	0.3997	0.6969	0.5238	-0.008
Mof_H 	H 	0.328	0.6924	0.4727	0.068
Mof_H 	H 	0.2357	0.6353	0.5743	0.085
Mof_H 	H 	0.3077	0.6397	0.6225	-0.018
Mof_H 	H 	0.5614	0.553	0.6236	-0.011
Mof_H 	H 	0.5547	0.4816	0.6725	0.077
Mof_H 	H 	0.5879	0.5832	0.7788	0.068
Mof_H 	H 	0.5953	0.6506	0.726	-0.016
Mof_S 	S 	0.0002	0.1761	0.0803	-0.481
Mof_N 	N 	0.8603	0.1677	0.0784	-0.244
Mof_N 	N 	0.0773	0.1087	0.1709	-0.246
Mof_C 	C 	0.8658	0.1833	0.0338	0.068
Mof_C 	C 	0.8219	0.1816	0.0043	-0.124
Mof_C 	C 	0.7732	0.166	0.0156	0.06
Mof_C 	C 	0.7694	0.1483	0.0632	-0.145
Mof_C 	C 	0.8122	0.1505	0.0906	0.099
Mof_C 	C 	0.0665	0.0583	0.1564	0.082
Mof_C 	C 	0.0633	0.0164	0.1844	-0.134
Mof_C 	C 	0.0727	0.023	0.2329	0.056
Mof_C 	C 	0.0828	0.0758	0.2463	-0.138
Mof_C 	C 	0.0864	0.1154	0.2152	0.091
Mof_H 	H 	0.8997	0.1969	0.0238	-0.006
Mof_H 	H 	0.828	0.1924	0.9727	0.068
Mof_H 	H 	0.7357	0.1353	0.0743	0.085
Mof_H 	H 	0.8077	0.1397	0.1225	-0.018
Mof_H 	H 	0.0614	0.053	0.1236	-0.013
Mof_H 	H 	0.0547	0.9816	0.1725	0.075
Mof_H 	H 	0.0879	0.0832	0.2788	0.067
Mof_H 	H 	0.0953	0.1506	0.226	-0.016
Mof_S 	S 	0.9261	0.7498	0.3303	-0.464
Mof_N 	N 	0.9177	0.8897	0.3284	-0.243
Mof_N 	N 	0.8587	0.6727	0.4209	-0.246
Mof_C 	C 	0.9333	0.8842	0.2838	0.07
Mof_C 	C 	0.9316	0.9281	0.2543	-0.124
Mof_C 	C 	0.916	0.9768	0.2656	0.061
Mof_C 	C 	0.8983	0.9806	0.3132	-0.145
Mof_C 	C 	0.9005	0.9378	0.3406	0.1
Mof_C 	C 	0.8083	0.6835	0.4064	0.083
Mof_C 	C 	0.7664	0.6867	0.4344	-0.133
Mof_C 	C 	0.773	0.6773	0.4829	0.057
Mof_C 	C 	0.8258	0.6672	0.4963	-0.138
Mof_C 	C 	0.8654	0.6636	0.4652	0.092
Mof_H 	H 	0.9469	0.8503	0.2738	-0.005
Mof_H 	H 	0.9424	0.922	0.2227	0.071
Mof_H 	H 	0.8853	0.0143	0.3243	0.085
Mof_H 	H 	0.8897	0.9423	0.3725	-0.018
Mof_H 	H 	0.803	0.6886	0.3736	-0.011
Mof_H 	H 	0.7316	0.6953	0.4225	0.077
Mof_H 	H 	0.8332	0.6621	0.5288	0.068
Mof_H 	H 	0.9006	0.6547	0.476	-0.015
Mof_S 	S 	0.4261	0.2498	0.8303	-0.473
Mof_N 	N 	0.4177	0.3897	0.8284	-0.244
Mof_N 	N 	0.3587	0.1727	0.9209	-0.246
Mof_C 	C 	0.4333	0.3842	0.7838	0.068
Mof_C 	C 	0.4316	0.4281	0.7543	-0.124
Mof_C 	C 	0.416	0.4768	0.7656	0.06
Mof_C 	C 	0.3983	0.4806	0.8132	-0.146
Mof_C 	C 	0.4005	0.4378	0.8406	0.099
Mof_C 	C 	0.3083	0.1835	0.9064	0.083
Mof_C 	C 	0.2664	0.1867	0.9344	-0.133
Mof_C 	C 	0.273	0.1773	0.9829	0.057
Mof_C 	C 	0.3258	0.1672	0.9963	-0.138
Mof_C 	C 	0.3654	0.1636	0.9652	0.092
Mof_H 	H 	0.4469	0.3503	0.7738	-0.008
Mof_H 	H 	0.4424	0.422	0.7227	0.068
Mof_H 	H 	0.3853	0.5143	0.8243	0.085
Mof_H 	H 	0.3897	0.4423	0.8725	-0.018
Mof_H 	H 	0.303	0.1886	0.8736	-0.011
Mof_H 	H 	0.2316	0.1953	0.9225	0.077
Mof_H 	H 	0.3332	0.1621	0.0288	0.068
Mof_H 	H 	0.4006	0.1547	0.976	-0.016
Mof_S 	S 	0.5739	0.2502	0.8303	-0.473
Mof_N 	N 	0.5823	0.1103	0.8284	-0.244
Mof_N 	N 	0.6413	0.3273	0.9209	-0.246
Mof_C 	C 	0.5667	0.1158	0.7838	0.068
Mof_C 	C 	0.5684	0.0719	0.7543	-0.124
Mof_C 	C 	0.584	0.0232	0.7656	0.06
Mof_C 	C 	0.6017	0.0194	0.8132	-0.146
Mof_C 	C 	0.5995	0.0622	0.8406	0.099
Mof_C 	C 	0.6917	0.3165	0.9064	0.083
Mof_C 	C 	0.7336	0.3133	0.9344	-0.133
Mof_C 	C 	0.727	0.3227	0.9829	0.057
Mof_C 	C 	0.6742	0.3328	0.9963	-0.138
Mof_C 	C 	0.6346	0.3364	0.9652	0.092
Mof_H 	H 	0.5531	0.1497	0.7738	-0.008
Mof_H 	H 	0.5576	0.078	0.7227	0.068
Mof_H 	H 	0.6147	0.9857	0.8243	0.085
Mof_H 	H 	0.6103	0.0577	0.8725	-0.018
Mof_H 	H 	0.697	0.3114	0.8736	-0.011
Mof_H 	H 	0.7684	0.3047	0.9225	0.077
Mof_H 	H 	0.6668	0.3379	0.0288	0.068
Mof_H 	H 	0.5994	0.3453	0.976	-0.016
Mof_S 	S 	0.0739	0.7502	0.3303	-0.473
Mof_N 	N 	0.0823	0.6103	0.3284	-0.245
Mof_N 	N 	0.1413	0.8273	0.4209	-0.246
Mof_C 	C 	0.0667	0.6158	0.2838	0.067
Mof_C 	C 	0.0684	0.5719	0.2543	-0.125
Mof_C 	C 	0.084	0.5232	0.2656	0.059
Mof_C 	C 	0.1017	0.5194	0.3132	-0.146
Mof_C 	C 	0.0995	0.5622	0.3406	0.098
Mof_C 	C 	0.1917	0.8165	0.4064	0.083
Mof_C 	C 	0.2336	0.8133	0.4344	-0.133
Mof_C 	C 	0.227	0.8227	0.4829	0.057
Mof_C 	C 	0.1742	0.8328	0.4963	-0.138
Mof_C 	C 	0.1346	0.8364	0.4652	0.092
Mof_H 	H 	0.0531	0.6497	0.2738	-0.01
Mof_H 	H 	0.0576	0.578	0.2227	0.066
Mof_H 	H 	0.1147	0.4857	0.3243	0.085
Mof_H 	H 	0.1103	0.5577	0.3725	-0.019
Mof_H 	H 	0.197	0.8114	0.3736	-0.011
Mof_H 	H 	0.2684	0.8047	0.4225	0.077
Mof_H 	H 	0.1668	0.8379	0.5288	0.068
Mof_H 	H 	0.0994	0.8453	0.476	-0.016
Mof_S 	S 	0.5002	0.3239	0.9197	-0.473
Mof_N 	N 	0.3603	0.3323	0.9216	-0.244
Mof_N 	N 	0.5773	0.3913	0.8291	-0.246
Mof_C 	C 	0.3658	0.3167	0.9662	0.068
Mof_C 	C 	0.3219	0.3184	0.9957	-0.124
Mof_C 	C 	0.2732	0.334	0.9844	0.06
Mof_C 	C 	0.2694	0.3517	0.9368	-0.146
Mof_C 	C 	0.3122	0.3495	0.9094	0.099
Mof_C 	C 	0.5665	0.4417	0.8436	0.083
Mof_C 	C 	0.5633	0.4836	0.8156	-0.133
Mof_C 	C 	0.5727	0.477	0.7671	0.057
Mof_C 	C 	0.5828	0.4242	0.7537	-0.138
Mof_C 	C 	0.5864	0.3846	0.7848	0.092
Mof_H 	H 	0.3997	0.3031	0.9762	-0.008
Mof_H 	H 	0.328	0.3076	0.0273	0.068
Mof_H 	H 	0.2357	0.3647	0.9257	0.085
Mof_H 	H 	0.3077	0.3603	0.8775	-0.018
Mof_H 	H 	0.5614	0.447	0.8764	-0.011
Mof_H 	H 	0.5547	0.5184	0.8275	0.077
Mof_H 	H 	0.5879	0.4168	0.7212	0.068
Mof_H 	H 	0.5953	0.3494	0.774	-0.016
Mof_S 	S 	0.0002	0.8239	0.4197	-0.481
Mof_N 	N 	0.8603	0.8323	0.4216	-0.244
Mof_N 	N 	0.0773	0.8913	0.3291	-0.246
Mof_C 	C 	0.8658	0.8167	0.4662	0.068
Mof_C 	C 	0.8219	0.8184	0.4957	-0.124
Mof_C 	C 	0.7732	0.834	0.4844	0.06
Mof_C 	C 	0.7694	0.8517	0.4368	-0.145
Mof_C 	C 	0.8122	0.8495	0.4094	0.099
Mof_C 	C 	0.0665	0.9417	0.3436	0.082
Mof_C 	C 	0.0633	0.9836	0.3156	-0.134
Mof_C 	C 	0.0727	0.977	0.2671	0.056
Mof_C 	C 	0.0828	0.9242	0.2537	-0.138
Mof_C 	C 	0.0864	0.8846	0.2848	0.091
Mof_H 	H 	0.8997	0.8031	0.4762	-0.006
Mof_H 	H 	0.828	0.8076	0.5273	0.068
Mof_H 	H 	0.7357	0.8647	0.4257	0.085
Mof_H 	H 	0.8077	0.8603	0.3775	-0.018
Mof_H 	H 	0.0614	0.947	0.3764	-0.013
Mof_H 	H 	0.0547	0.0184	0.3275	0.075
Mof_H 	H 	0.0879	0.9168	0.2212	0.067
Mof_H 	H 	0.0953	0.8494	0.274	-0.016
Mof_S 	S 	0.9998	0.6761	0.4197	-0.456
Mof_N 	N 	0.1397	0.6677	0.4216	-0.245
Mof_N 	N 	0.9227	0.6087	0.3291	-0.245
Mof_C 	C 	0.1342	0.6833	0.4662	0.069
Mof_C 	C 	0.1781	0.6816	0.4957	-0.125
Mof_C 	C 	0.2268	0.666	0.4844	0.061
Mof_C 	C 	0.2306	0.6483	0.4368	-0.146
Mof_C 	C 	0.1878	0.6505	0.4094	0.099
Mof_C 	C 	0.9335	0.5583	0.3436	0.084
Mof_C 	C 	0.9367	0.5164	0.3156	-0.132
Mof_C 	C 	0.9273	0.523	0.2671	0.058
Mof_C 	C 	0.9172	0.5758	0.2537	-0.137
Mof_C 	C 	0.9136	0.6154	0.2848	0.093
Mof_H 	H 	0.1003	0.6969	0.4762	-0.009
Mof_H 	H 	0.172	0.6924	0.5273	0.068
Mof_H 	H 	0.2643	0.6353	0.4257	0.085
Mof_H 	H 	0.1923	0.6397	0.3775	-0.018
Mof_H 	H 	0.9386	0.553	0.3764	-0.01
Mof_H 	H 	0.9453	0.4816	0.3275	0.078
Mof_H 	H 	0.9121	0.5832	0.2212	0.068
Mof_H 	H 	0.9047	0.6506	0.274	-0.016
Mof_S 	S 	0.4998	0.1761	0.9197	-0.473
Mof_N 	N 	0.6397	0.1677	0.9216	-0.244
Mof_N 	N 	0.4227	0.1087	0.8291	-0.246
Mof_C 	C 	0.6342	0.1833	0.9662	0.068
Mof_C 	C 	0.6781	0.1816	0.9957	-0.125
Mof_C 	C 	0.7268	0.166	0.9844	0.06
Mof_C 	C 	0.7306	0.1483	0.9368	-0.146
Mof_C 	C 	0.6878	0.1505	0.9094	0.099
Mof_C 	C 	0.4335	0.0583	0.8436	0.083
Mof_C 	C 	0.4367	0.0164	0.8156	-0.133
Mof_C 	C 	0.4273	0.023	0.7671	0.057
Mof_C 	C 	0.4172	0.0758	0.7537	-0.138
Mof_C 	C 	0.4136	0.1154	0.7848	0.092
Mof_H 	H 	0.6003	0.1969	0.9762	-0.008
Mof_H 	H 	0.672	0.1924	0.0273	0.069
Mof_H 	H 	0.7643	0.1353	0.9257	0.085
Mof_H 	H 	0.6923	0.1397	0.8775	-0.018
Mof_H 	H 	0.4386	0.053	0.8764	-0.011
Mof_H 	H 	0.4453	0.9816	0.8275	0.077
Mof_H 	H 	0.4121	0.0832	0.7212	0.068
Mof_H 	H 	0.4047	0.1506	0.774	-0.016
Mof_S 	S 	0.5739	0.7498	0.6697	-0.473
Mof_N 	N 	0.5823	0.8897	0.6716	-0.244
Mof_N 	N 	0.6413	0.6727	0.5791	-0.246
Mof_C 	C 	0.5667	0.8842	0.7162	0.068
Mof_C 	C 	0.5684	0.9281	0.7457	-0.124
Mof_C 	C 	0.584	0.9768	0.7344	0.06
Mof_C 	C 	0.6017	0.9806	0.6868	-0.146
Mof_C 	C 	0.5995	0.9378	0.6594	0.099
Mof_C 	C 	0.6917	0.6835	0.5936	0.083
Mof_C 	C 	0.7336	0.6867	0.5656	-0.133
Mof_C 	C 	0.727	0.6773	0.5171	0.057
Mof_C 	C 	0.6742	0.6672	0.5037	-0.138
Mof_C 	C 	0.6346	0.6636	0.5348	0.092
Mof_H 	H 	0.5531	0.8503	0.7262	-0.008
Mof_H 	H 	0.5576	0.922	0.7773	0.068
Mof_H 	H 	0.6147	0.0143	0.6757	0.085
Mof_H 	H 	0.6103	0.9423	0.6275	-0.018
Mof_H 	H 	0.697	0.6886	0.6264	-0.011
Mof_H 	H 	0.7684	0.6953	0.5775	0.077
Mof_H 	H 	0.6668	0.6621	0.4712	0.068
Mof_H 	H 	0.5994	0.6547	0.524	-0.016
Mof_S 	S 	0.0739	0.2498	0.1697	-0.473
Mof_N 	N 	0.0823	0.3897	0.1716	-0.245
Mof_N 	N 	0.1413	0.1727	0.0791	-0.246
Mof_C 	C 	0.0667	0.3842	0.2162	0.067
Mof_C 	C 	0.0684	0.4281	0.2457	-0.125
Mof_C 	C 	0.084	0.4768	0.2344	0.059
Mof_C 	C 	0.1017	0.4806	0.1868	-0.146
Mof_C 	C 	0.0995	0.4378	0.1594	0.098
Mof_C 	C 	0.1917	0.1835	0.0936	0.083
Mof_C 	C 	0.2336	0.1867	0.0656	-0.133
Mof_C 	C 	0.227	0.1773	0.0171	0.057
Mof_C 	C 	0.1742	0.1672	0.0037	-0.138
Mof_C 	C 	0.1346	0.1636	0.0348	0.092
Mof_H 	H 	0.0531	0.3503	0.2262	-0.01
Mof_H 	H 	0.0576	0.422	0.2773	0.066
Mof_H 	H 	0.1147	0.5143	0.1757	0.085
Mof_H 	H 	0.1103	0.4423	0.1275	-0.019
Mof_H 	H 	0.197	0.1886	0.1264	-0.011
Mof_H 	H 	0.2684	0.1953	0.0775	0.077
Mof_H 	H 	0.1668	0.1621	0.9712	0.068
Mof_H 	H 	0.0994	0.1547	0.024	-0.016
Mof_S 	S 	0.9261	0.2502	0.1697	-0.464
Mof_N 	N 	0.9177	0.1103	0.1716	-0.243
Mof_N 	N 	0.8587	0.3273	0.0791	-0.246
Mof_C 	C 	0.9333	0.1158	0.2162	0.07
Mof_C 	C 	0.9316	0.0719	0.2457	-0.124
Mof_C 	C 	0.916	0.0232	0.2344	0.061
Mof_C 	C 	0.8983	0.0194	0.1868	-0.145
Mof_C 	C 	0.9005	0.0622	0.1594	0.1
Mof_C 	C 	0.8083	0.3165	0.0936	0.083
Mof_C 	C 	0.7664	0.3133	0.0656	-0.133
Mof_C 	C 	0.773	0.3227	0.0171	0.057
Mof_C 	C 	0.8258	0.3328	0.0037	-0.138
Mof_C 	C 	0.8654	0.3364	0.0348	0.092
Mof_H 	H 	0.9469	0.1497	0.2262	-0.005
Mof_H 	H 	0.9424	0.078	0.2773	0.071
Mof_H 	H 	0.8853	0.9857	0.1757	0.085
Mof_H 	H 	0.8897	0.0577	0.1275	-0.018
Mof_H 	H 	0.803	0.3114	0.1264	-0.011
Mof_H 	H 	0.7316	0.3047	0.0775	0.077
Mof_H 	H 	0.8332	0.3379	0.9712	0.068
Mof_H 	H 	0.9006	0.3453	0.024	-0.016
Mof_S 	S 	0.4261	0.7502	0.6697	-0.473
Mof_N 	N 	0.4177	0.6103	0.6716	-0.244
Mof_N 	N 	0.3587	0.8273	0.5791	-0.246
Mof_C 	C 	0.4333	0.6158	0.7162	0.068
Mof_C 	C 	0.4316	0.5719	0.7457	-0.124
Mof_C 	C 	0.416	0.5232	0.7344	0.06
Mof_C 	C 	0.3983	0.5194	0.6868	-0.146
Mof_C 	C 	0.4005	0.5622	0.6594	0.099
Mof_C 	C 	0.3083	0.8165	0.5936	0.083
Mof_C 	C 	0.2664	0.8133	0.5656	-0.133
Mof_C 	C 	0.273	0.8227	0.5171	0.057
Mof_C 	C 	0.3258	0.8328	0.5037	-0.138
Mof_C 	C 	0.3654	0.8364	0.5348	0.092
Mof_H 	H 	0.4469	0.6497	0.7262	-0.008
Mof_H 	H 	0.4424	0.578	0.7773	0.068
Mof_H 	H 	0.3853	0.4857	0.6757	0.085
Mof_H 	H 	0.3897	0.5577	0.6275	-0.018
Mof_H 	H 	0.303	0.8114	0.6264	-0.011
Mof_H 	H 	0.2316	0.8047	0.5775	0.077
Mof_H 	H 	0.3332	0.8379	0.4712	0.068
Mof_H 	H 	0.4006	0.8453	0.524	-0.016
Mof_W 	W 	5.3687e-34	0.25	0.125	0.247
Mof_W 	W 	0.5	0.75	0.625	0.265
Mof_W 	W 	1.31646e-32	0.75	0.375	0.246
Mof_W 	W 	0.5	0.25	0.875	0.265
Mof_Cu	Cu	0.07677	0.32677	0.125	0.833
Mof_Cu	Cu	0.57677	0.82677	0.625	0.835
Mof_Cu	Cu	0.42323	0.67323	0.625	0.835
Mof_Cu	Cu	0.92323	0.82677	0.375	0.838
Mof_Cu	Cu	0.57677	0.17323	0.875	0.835
Mof_Cu	Cu	0.42323	0.32677	0.875	0.835
Mof_Cu	Cu	0.07677	0.67323	0.375	0.833
Mof_Cu	Cu	0.92323	0.17323	0.125	0.838
Mof_Cu	Cu	0.92322	0.32678	0.125	0.835
Mof_Cu	Cu	0.42322	0.82678	0.625	0.835
Mof_Cu	Cu	0.57678	0.67322	0.625	0.834
Mof_Cu	Cu	0.07678	0.17322	0.125	0.835
Mof_Cu	Cu	0.92322	0.67322	0.375	0.835
Mof_Cu	Cu	0.42322	0.17322	0.875	0.835
Mof_Cu	Cu	0.57678	0.32678	0.875	0.834
Mof_Cu	Cu	0.07678	0.82678	0.375	0.835
Mof_S 	S 	0.0002	0.6761	0.9197	-0.481
Mof_N 	N 	0.8603	0.6677	0.9216	-0.244
Mof_N 	N 	0.0773	0.6087	0.8291	-0.246
Mof_C 	C 	0.8658	0.6833	0.9662	0.068
Mof_C 	C 	0.8219	0.6816	0.9957	-0.124
Mof_C 	C 	0.7732	0.666	0.9844	0.06
Mof_C 	C 	0.7694	0.6483	0.9368	-0.145
Mof_C 	C 	0.8122	0.6505	0.9094	0.099
Mof_C 	C 	0.0665	0.5583	0.8436	0.082
Mof_C 	C 	0.0633	0.5164	0.8156	-0.134
Mof_C 	C 	0.0727	0.523	0.7671	0.056
Mof_C 	C 	0.0828	0.5758	0.7537	-0.138
Mof_C 	C 	0.0864	0.6154	0.7848	0.091
Mof_H 	H 	0.8997	0.6969	0.9762	-0.006
Mof_H 	H 	0.828	0.6924	0.0273	0.068
Mof_H 	H 	0.7357	0.6353	0.9257	0.085
Mof_H 	H 	0.8077	0.6397	0.8775	-0.018
Mof_H 	H 	0.0614	0.553	0.8764	-0.013
Mof_H 	H 	0.0547	0.4816	0.8275	0.075
Mof_H 	H 	0.0879	0.5832	0.7212	0.067
Mof_H 	H 	0.0953	0.6506	0.774	-0.016
Mof_S 	S 	0.5002	0.1761	0.4197	-0.473
Mof_N 	N 	0.3603	0.1677	0.4216	-0.244
Mof_N 	N 	0.5773	0.1087	0.3291	-0.246
Mof_C 	C 	0.3658	0.1833	0.4662	0.068
Mof_C 	C 	0.3219	0.1816	0.4957	-0.124
Mof_C 	C 	0.2732	0.166	0.4844	0.06
Mof_C 	C 	0.2694	0.1483	0.4368	-0.146
Mof_C 	C 	0.3122	0.1505	0.4094	0.099
Mof_C 	C 	0.5665	0.0583	0.3436	0.083
Mof_C 	C 	0.5633	0.0164	0.3156	-0.133
Mof_C 	C 	0.5727	0.023	0.2671	0.057
Mof_C 	C 	0.5828	0.0758	0.2537	-0.138
Mof_C 	C 	0.5864	0.1154	0.2848	0.092
Mof_H 	H 	0.3997	0.1969	0.4762	-0.008
Mof_H 	H 	0.328	0.1924	0.5273	0.068
Mof_H 	H 	0.2357	0.1353	0.4257	0.085
Mof_H 	H 	0.3077	0.1397	0.3775	-0.018
Mof_H 	H 	0.5614	0.053	0.3764	-0.011
Mof_H 	H 	0.5547	0.9816	0.3275	0.077
Mof_H 	H 	0.5879	0.0832	0.2212	0.068
Mof_H 	H 	0.5953	0.1506	0.274	-0.016
Mof_S 	S 	0.4998	0.3239	0.4197	-0.473
Mof_N 	N 	0.6397	0.3323	0.4216	-0.244
Mof_N 	N 	0.4227	0.3913	0.3291	-0.246
Mof_C 	C 	0.6342	0.3167	0.4662	0.068
Mof_C 	C 	0.6781	0.3184	0.4957	-0.124
Mof_C 	C 	0.7268	0.334	0.4844	0.06
Mof_C 	C 	0.7306	0.3517	0.4368	-0.146
Mof_C 	C 	0.6878	0.3495	0.4094	0.099
Mof_C 	C 	0.4335	0.4417	0.3436	0.083
Mof_C 	C 	0.4367	0.4836	0.3156	-0.133
Mof_C 	C 	0.4273	0.477	0.2671	0.057
Mof_C 	C 	0.4172	0.4242	0.2537	-0.138
Mof_C 	C 	0.4136	0.3846	0.2848	0.092
Mof_H 	H 	0.6003	0.3031	0.4762	-0.008
Mof_H 	H 	0.672	0.3076	0.5273	0.068
Mof_H 	H 	0.7643	0.3647	0.4257	0.085
Mof_H 	H 	0.6923	0.3603	0.3775	-0.018
Mof_H 	H 	0.4386	0.447	0.3764	-0.011
Mof_H 	H 	0.4453	0.5184	0.3275	0.077
Mof_H 	H 	0.4121	0.4168	0.2212	0.068
Mof_H 	H 	0.4047	0.3494	0.274	-0.016
Mof_S 	S 	0.9998	0.8239	0.9197	-0.457
Mof_N 	N 	0.1397	0.8323	0.9216	-0.245
Mof_N 	N 	0.9227	0.8913	0.8291	-0.245
Mof_C 	C 	0.1342	0.8167	0.9662	0.069
Mof_C 	C 	0.1781	0.8184	0.9957	-0.125
Mof_C 	C 	0.2268	0.834	0.9844	0.06
Mof_C 	C 	0.2306	0.8517	0.9368	-0.146
Mof_C 	C 	0.1878	0.8495	0.9094	0.099
Mof_C 	C 	0.9335	0.9417	0.8436	0.084
Mof_C 	C 	0.9367	0.9836	0.8156	-0.132
Mof_C 	C 	0.9273	0.977	0.7671	0.058
Mof_C 	C 	0.9172	0.9242	0.7537	-0.137
Mof_C 	C 	0.9136	0.8846	0.7848	0.093
Mof_H 	H 	0.1003	0.8031	0.9762	-0.009
Mof_H 	H 	0.172	0.8076	0.0273	0.069
Mof_H 	H 	0.2643	0.8647	0.9257	0.085
Mof_H 	H 	0.1923	0.8603	0.8775	-0.018
Mof_H 	H 	0.9386	0.947	0.8764	-0.01
Mof_H 	H 	0.9453	0.0184	0.8275	0.078
Mof_H 	H 	0.9121	0.9168	0.7212	0.068
Mof_H 	H 	0.9047	0.8494	0.774	-0.016
Mof_S 	S 	0.0739	0.2502	0.6697	-0.473
Mof_N 	N 	0.0823	0.1103	0.6716	-0.245
Mof_N 	N 	0.1413	0.3273	0.5791	-0.246
Mof_C 	C 	0.0667	0.1158	0.7162	0.067
Mof_C 	C 	0.0684	0.0719	0.7457	-0.125
Mof_C 	C 	0.084	0.0232	0.7344	0.059
Mof_C 	C 	0.1017	0.0194	0.6868	-0.146
Mof_C 	C 	0.0995	0.0622	0.6594	0.098
Mof_C 	C 	0.1917	0.3165	0.5936	0.083
Mof_C 	C 	0.2336	0.3133	0.5656	-0.133
Mof_C 	C 	0.227	0.3227	0.5171	0.057
Mof_C 	C 	0.1742	0.3328	0.5037	-0.138
Mof_C 	C 	0.1346	0.3364	0.5348	0.092
Mof_H 	H 	0.0531	0.1497	0.7262	-0.01
Mof_H 	H 	0.0576	0.078	0.7773	0.066
Mof_H 	H 	0.1147	0.9857	0.6757	0.085
Mof_H 	H 	0.1103	0.0577	0.6275	-0.019
Mof_H 	H 	0.197	0.3114	0.6264	-0.011
Mof_H 	H 	0.2684	0.3047	0.5775	0.077
Mof_H 	H 	0.1668	0.3379	0.4712	0.068
Mof_H 	H 	0.0994	0.3453	0.524	-0.016
Mof_S 	S 	0.5739	0.7502	0.1697	-0.473
Mof_N 	N 	0.5823	0.6103	0.1716	-0.244
Mof_N 	N 	0.6413	0.8273	0.0791	-0.246
Mof_C 	C 	0.5667	0.6158	0.2162	0.068
Mof_C 	C 	0.5684	0.5719	0.2457	-0.124
Mof_C 	C 	0.584	0.5232	0.2344	0.06
Mof_C 	C 	0.6017	0.5194	0.1868	-0.146
Mof_C 	C 	0.5995	0.5622	0.1594	0.099
Mof_C 	C 	0.6917	0.8165	0.0936	0.083
Mof_C 	C 	0.7336	0.8133	0.0656	-0.133
Mof_C 	C 	0.727	0.8227	0.0171	0.057
Mof_C 	C 	0.6742	0.8328	0.0037	-0.138
Mof_C 	C 	0.6346	0.8364	0.0348	0.092
Mof_H 	H 	0.5531	0.6497	0.2262	-0.008
Mof_H 	H 	0.5576	0.578	0.2773	0.068
Mof_H 	H 	0.6147	0.4857	0.1757	0.085
Mof_H 	H 	0.6103	0.5577	0.1275	-0.018
Mof_H 	H 	0.697	0.8114	0.1264	-0.011
Mof_H 	H 	0.7684	0.8047	0.0775	0.077
Mof_H 	H 	0.6668	0.8379	0.9712	0.068
Mof_H 	H 	0.5994	0.8453	0.024	-0.016
Mof_S 	S 	0.4261	0.7498	0.1697	-0.473
Mof_N 	N 	0.4177	0.8897	0.1716	-0.244
Mof_N 	N 	0.3587	0.6727	0.0791	-0.246
Mof_C 	C 	0.4333	0.8842	0.2162	0.068
Mof_C 	C 	0.4316	0.9281	0.2457	-0.124
Mof_C 	C 	0.416	0.9768	0.2344	0.06
Mof_C 	C 	0.3983	0.9806	0.1868	-0.146
Mof_C 	C 	0.4005	0.9378	0.1594	0.099
Mof_C 	C 	0.3083	0.6835	0.0936	0.083
Mof_C 	C 	0.2664	0.6867	0.0656	-0.133
Mof_C 	C 	0.273	0.6773	0.0171	0.057
Mof_C 	C 	0.3258	0.6672	0.0037	-0.138
Mof_C 	C 	0.3654	0.6636	0.0348	0.092
Mof_H 	H 	0.4469	0.8503	0.2262	-0.008
Mof_H 	H 	0.4424	0.922	0.2773	0.068
Mof_H 	H 	0.3853	0.0143	0.1757	0.085
Mof_H 	H 	0.3897	0.9423	0.1275	-0.018
Mof_H 	H 	0.303	0.6886	0.1264	-0.011
Mof_H 	H 	0.2316	0.6953	0.0775	0.077
Mof_H 	H 	0.3332	0.6621	0.9712	0.068
Mof_H 	H 	0.4006	0.6547	0.024	-0.016
Mof_S 	S 	0.9261	0.2498	0.6697	-0.464
Mof_N 	N 	0.9177	0.3897	0.6716	-0.243
Mof_N 	N 	0.8587	0.1727	0.5791	-0.246
Mof_C 	C 	0.9333	0.3842	0.7162	0.07
Mof_C 	C 	0.9316	0.4281	0.7457	-0.124
Mof_C 	C 	0.916	0.4768	0.7344	0.061
Mof_C 	C 	0.8983	0.4806	0.6868	-0.145
Mof_C 	C 	0.9005	0.4378	0.6594	0.1
Mof_C 	C 	0.8083	0.1835	0.5936	0.083
Mof_C 	C 	0.7664	0.1867	0.5656	-0.133
Mof_C 	C 	0.773	0.1773	0.5171	0.057
Mof_C 	C 	0.8258	0.1672	0.5037	-0.138
Mof_C 	C 	0.8654	0.1636	0.5348	0.092
Mof_H 	H 	0.9469	0.3503	0.7262	-0.005
Mof_H 	H 	0.9424	0.422	0.7773	0.071
Mof_H 	H 	0.8853	0.5143	0.6757	0.085
Mof_H 	H 	0.8897	0.4423	0.6275	-0.018
Mof_H 	H 	0.803	0.1886	0.6264	-0.011
Mof_H 	H 	0.7316	0.1953	0.5775	0.077
Mof_H 	H 	0.8332	0.1621	0.4712	0.068
Mof_H 	H 	0.9006	0.1547	0.524	-0.015
Mof_S 	S 	0.4998	0.6761	0.0803	-0.473
Mof_N 	N 	0.6397	0.6677	0.0784	-0.244
Mof_N 	N 	0.4227	0.6087	0.1709	-0.246
Mof_C 	C 	0.6342	0.6833	0.0338	0.068
Mof_C 	C 	0.6781	0.6816	0.0043	-0.125
Mof_C 	C 	0.7268	0.666	0.0156	0.06
Mof_C 	C 	0.7306	0.6483	0.0632	-0.146
Mof_C 	C 	0.6878	0.6505	0.0906	0.099
Mof_C 	C 	0.4335	0.5583	0.1564	0.083
Mof_C 	C 	0.4367	0.5164	0.1844	-0.133
Mof_C 	C 	0.4273	0.523	0.2329	0.057
Mof_C 	C 	0.4172	0.5758	0.2463	-0.138
Mof_C 	C 	0.4136	0.6154	0.2152	0.092
Mof_H 	H 	0.6003	0.6969	0.0238	-0.008
Mof_H 	H 	0.672	0.6924	0.9727	0.069
Mof_H 	H 	0.7643	0.6353	0.0743	0.085
Mof_H 	H 	0.6923	0.6397	0.1225	-0.018
Mof_H 	H 	0.4386	0.553	0.1236	-0.011
Mof_H 	H 	0.4453	0.4816	0.1725	0.077
Mof_H 	H 	0.4121	0.5832	0.2788	0.068
Mof_H 	H 	0.4047	0.6506	0.226	-0.016
Mof_S 	S 	0.9998	0.1761	0.5803	-0.456
Mof_N 	N 	0.1397	0.1677	0.5784	-0.245
Mof_N 	N 	0.9227	0.1087	0.6709	-0.245
Mof_C 	C 	0.1342	0.1833	0.5338	0.069
Mof_C 	C 	0.1781	0.1816	0.5043	-0.125
Mof_C 	C 	0.2268	0.166	0.5156	0.06
Mof_C 	C 	0.2306	0.1483	0.5632	-0.146
Mof_C 	C 	0.1878	0.1505	0.5906	0.099
Mof_C 	C 	0.9335	0.0583	0.6564	0.084
Mof_C 	C 	0.9367	0.0164	0.6844	-0.132
Mof_C 	C 	0.9273	0.023	0.7329	0.058
Mof_C 	C 	0.9172	0.0758	0.7463	-0.137
Mof_C 	C 	0.9136	0.1154	0.7152	0.093
Mof_H 	H 	0.1003	0.1969	0.5238	-0.009
Mof_H 	H 	0.172	0.1924	0.4727	0.068
Mof_H 	H 	0.2643	0.1353	0.5743	0.085
Mof_H 	H 	0.1923	0.1397	0.6225	-0.018
Mof_H 	H 	0.9386	0.053	0.6236	-0.01
Mof_H 	H 	0.9453	0.9816	0.6725	0.078
Mof_H 	H 	0.9121	0.0832	0.7788	0.068
Mof_H 	H 	0.9047	0.1506	0.726	-0.016
Mof_S 	S 	0.0002	0.3239	0.5803	-0.481
Mof_N 	N 	0.8603	0.3323	0.5784	-0.244
Mof_N 	N 	0.0773	0.3913	0.6709	-0.246
Mof_C 	C 	0.8658	0.3167	0.5338	0.068
Mof_C 	C 	0.8219	0.3184	0.5043	-0.124
Mof_C 	C 	0.7732	0.334	0.5156	0.06
Mof_C 	C 	0.7694	0.3517	0.5632	-0.145
Mof_C 	C 	0.8122	0.3495	0.5906	0.099
Mof_C 	C 	0.0665	0.4417	0.6564	0.082
Mof_C 	C 	0.0633	0.4836	0.6844	-0.134
Mof_C 	C 	0.0727	0.477	0.7329	0.056
Mof_C 	C 	0.0828	0.4242	0.7463	-0.138
Mof_C 	C 	0.0864	0.3846	0.7152	0.091
Mof_H 	H 	0.8997	0.3031	0.5238	-0.006
Mof_H 	H 	0.828	0.3076	0.4727	0.068
Mof_H 	H 	0.7357	0.3647	0.5743	0.085
Mof_H 	H 	0.8077	0.3603	0.6225	-0.018
Mof_H 	H 	0.0614	0.447	0.6236	-0.013
Mof_H 	H 	0.0547	0.5184	0.6725	0.075
Mof_H 	H 	0.0879	0.4168	0.7788	0.067
Mof_H 	H 	0.0953	0.3494	0.726	-0.016
Mof_S 	S 	0.5002	0.8239	0.0803	-0.473
Mof_N 	N 	0.3603	0.8323	0.0784	-0.244
Mof_N 	N 	0.5773	0.8913	0.1709	-0.246
Mof_C 	C 	0.3658	0.8167	0.0338	0.068
Mof_C 	C 	0.3219	0.8184	0.0043	-0.124
Mof_C 	C 	0.2732	0.834	0.0156	0.06
Mof_C 	C 	0.2694	0.8517	0.0632	-0.146
Mof_C 	C 	0.3122	0.8495	0.0906	0.099
Mof_C 	C 	0.5665	0.9417	0.1564	0.083
Mof_C 	C 	0.5633	0.9836	0.1844	-0.133
Mof_C 	C 	0.5727	0.977	0.2329	0.057
Mof_C 	C 	0.5828	0.9242	0.2463	-0.138
Mof_C 	C 	0.5864	0.8846	0.2152	0.092
Mof_H 	H 	0.3997	0.8031	0.0238	-0.008
Mof_H 	H 	0.328	0.8076	0.9727	0.068
Mof_H 	H 	0.2357	0.8647	0.0743	0.085
Mof_H 	H 	0.3077	0.8603	0.1225	-0.018
Mof_H 	H 	0.5614	0.947	0.1236	-0.011
Mof_H 	H 	0.5547	0.0184	0.1725	0.077
Mof_H 	H 	0.5879	0.9168	0.2788	0.068
Mof_H 	H 	0.5953	0.8494	0.226	-0.016
Mof_S 	S 	0.4261	0.2502	0.3303	-0.473
Mof_N 	N 	0.4177	0.1103	0.3284	-0.244
Mof_N 	N 	0.3587	0.3273	0.4209	-0.246
Mof_C 	C 	0.4333	0.1158	0.2838	0.068
Mof_C 	C 	0.4316	0.0719	0.2543	-0.124
Mof_C 	C 	0.416	0.0232	0.2656	0.06
Mof_C 	C 	0.3983	0.0194	0.3132	-0.146
Mof_C 	C 	0.4005	0.0622	0.3406	0.099
Mof_C 	C 	0.3083	0.3165	0.4064	0.083
Mof_C 	C 	0.2664	0.3133	0.4344	-0.133
Mof_C 	C 	0.273	0.3227	0.4829	0.057
Mof_C 	C 	0.3258	0.3328	0.4963	-0.138
Mof_C 	C 	0.3654	0.3364	0.4652	0.092
Mof_H 	H 	0.4469	0.1497	0.2738	-0.008
Mof_H 	H 	0.4424	0.078	0.2227	0.068
Mof_H 	H 	0.3853	0.9857	0.3243	0.085
Mof_H 	H 	0.3897	0.0577	0.3725	-0.018
Mof_H 	H 	0.303	0.3114	0.3736	-0.011
Mof_H 	H 	0.2316	0.3047	0.4225	0.077
Mof_H 	H 	0.3332	0.3379	0.5288	0.068
Mof_H 	H 	0.4006	0.3453	0.476	-0.016
Mof_S 	S 	0.9261	0.7502	0.8303	-0.464
Mof_N 	N 	0.9177	0.6103	0.8284	-0.243
Mof_N 	N 	0.8587	0.8273	0.9209	-0.246
Mof_C 	C 	0.9333	0.6158	0.7838	0.07
Mof_C 	C 	0.9316	0.5719	0.7543	-0.124
Mof_C 	C 	0.916	0.5232	0.7656	0.061
Mof_C 	C 	0.8983	0.5194	0.8132	-0.145
Mof_C 	C 	0.9005	0.5622	0.8406	0.1
Mof_C 	C 	0.8083	0.8165	0.9064	0.083
Mof_C 	C 	0.7664	0.8133	0.9344	-0.133
Mof_C 	C 	0.773	0.8227	0.9829	0.057
Mof_C 	C 	0.8258	0.8328	0.9963	-0.138
Mof_C 	C 	0.8654	0.8364	0.9652	0.092
Mof_H 	H 	0.9469	0.6497	0.7738	-0.005
Mof_H 	H 	0.9424	0.578	0.7227	0.071
Mof_H 	H 	0.8853	0.4857	0.8243	0.085
Mof_H 	H 	0.8897	0.5577	0.8725	-0.018
Mof_H 	H 	0.803	0.8114	0.8736	-0.011
Mof_H 	H 	0.7316	0.8047	0.9225	0.077
Mof_H 	H 	0.8332	0.8379	0.0288	0.068
Mof_H 	H 	0.9006	0.8453	0.976	-0.016
Mof_S 	S 	0.0739	0.7498	0.8303	-0.473
Mof_N 	N 	0.0823	0.8897	0.8284	-0.245
Mof_N 	N 	0.1413	0.6727	0.9209	-0.246
Mof_C 	C 	0.0667	0.8842	0.7838	0.067
Mof_C 	C 	0.0684	0.9281	0.7543	-0.125
Mof_C 	C 	0.084	0.9768	0.7656	0.059
Mof_C 	C 	0.1017	0.9806	0.8132	-0.146
Mof_C 	C 	0.0995	0.9378	0.8406	0.098
Mof_C 	C 	0.1917	0.6835	0.9064	0.083
Mof_C 	C 	0.2336	0.6867	0.9344	-0.133
Mof_C 	C 	0.227	0.6773	0.9829	0.057
Mof_C 	C 	0.1742	0.6672	0.9963	-0.138
Mof_C 	C 	0.1346	0.6636	0.9652	0.092
Mof_H 	H 	0.0531	0.8503	0.7738	-0.01
Mof_H 	H 	0.0576	0.922	0.7227	0.066
Mof_H 	H 	0.1147	0.0143	0.8243	0.085
Mof_H 	H 	0.1103	0.9423	0.8725	-0.019
Mof_H 	H 	0.197	0.6886	0.8736	-0.011
Mof_H 	H 	0.2684	0.6953	0.9225	0.077
Mof_H 	H 	0.1668	0.6621	0.0288	0.068
Mof_H 	H 	0.0994	0.6547	0.976	-0.016
Mof_S 	S 	0.5739	0.2498	0.3303	-0.473
Mof_N 	N 	0.5823	0.3897	0.3284	-0.244
Mof_N 	N 	0.6413	0.1727	0.4209	-0.246
Mof_C 	C 	0.5667	0.3842	0.2838	0.068
Mof_C 	C 	0.5684	0.4281	0.2543	-0.124
Mof_C 	C 	0.584	0.4768	0.2656	0.06
Mof_C 	C 	0.6017	0.4806	0.3132	-0.146
Mof_C 	C 	0.5995	0.4378	0.3406	0.099
Mof_C 	C 	0.6917	0.1835	0.4064	0.083
Mof_C 	C 	0.7336	0.1867	0.4344	-0.133
Mof_C 	C 	0.727	0.1773	0.4829	0.057
Mof_C 	C 	0.6742	0.1672	0.4963	-0.138
Mof_C 	C 	0.6346	0.1636	0.4652	0.092
Mof_H 	H 	0.5531	0.3503	0.2738	-0.008
Mof_H 	H 	0.5576	0.422	0.2227	0.068
Mof_H 	H 	0.6147	0.5143	0.3243	0.085
Mof_H 	H 	0.6103	0.4423	0.3725	-0.018
Mof_H 	H 	0.697	0.1886	0.3736	-0.011
Mof_H 	H 	0.7684	0.1953	0.4225	0.077
Mof_H 	H 	0.6668	0.1621	0.5288	0.068
Mof_H 	H 	0.5994	0.1547	0.476	-0.016
Mof_W 	W 	3.75809e-33	0.75	0.875	0.247
Mof_W 	W 	0.5	0.25	0.375	0.265
Mof_W 	W 	2.68435e-33	0.25	0.625	0.246
Mof_W 	W 	0.5	0.75	0.125	0.265
Mof_Cu	Cu	0.92323	0.67323	0.875	0.838
Mof_Cu	Cu	0.42323	0.17323	0.375	0.835
Mof_Cu	Cu	0.57677	0.32677	0.375	0.835
Mof_Cu	Cu	0.07677	0.82677	0.875	0.833
Mof_Cu	Cu	0.07677	0.17323	0.625	0.833
Mof_Cu	Cu	0.42323	0.82677	0.125	0.835
Mof_Cu	Cu	0.57677	0.67323	0.125	0.835
Mof_Cu	Cu	0.92323	0.32677	0.625	0.838
Mof_Cu	Cu	0.07678	0.67322	0.875	0.835
Mof_Cu	Cu	0.57678	0.17322	0.375	0.834
Mof_Cu	Cu	0.42322	0.32678	0.375	0.835
Mof_Cu	Cu	0.92322	0.82678	0.875	0.835
Mof_Cu	Cu	0.07678	0.32678	0.625	0.835
Mof_Cu	Cu	0.57678	0.82678	0.125	0.834
Mof_Cu	Cu	0.42322	0.67322	0.125	0.835
Mof_Cu	Cu	0.92322	0.17322	0.625	0.835
Mof_I 	I 	0.33892	0.13411	0.15176	-0.31
Mof_Cu	Cu	0.42986	0.167	0.11801	0.827
Mof_S 	S 	0.4269	0.2489	0.0791	-0.469
Mof_N 	N 	0.4517	0.1054	0.0718	-0.219
Mof_C 	C 	0.4862	0.1159	0.0366	0.01
Mof_C 	C 	0.5053	0.074	0.0086	-0.015
Mof_C 	C 	0.491	0.0214	0.0145	0.011
Mof_C 	C 	0.473	0.009	0.066	-0.014
Mof_C 	C 	0.457	0.057	0.091	-0.017
Mof_C 	C 	0.436	0.02	0.032	-0.02
Mof_C 	C 	0.425	0.06	0.066	0.049
Mof_I 	I 	0.83892	0.63411	0.65176	-0.309
Mof_Cu	Cu	0.92986	0.667	0.61801	0.83
Mof_S 	S 	0.9269	0.7489	0.5791	-0.46
Mof_N 	N 	0.9517	0.6054	0.5718	-0.223
Mof_C 	C 	0.9862	0.6159	0.5366	0.031
Mof_C 	C 	0.0053	0.574	0.5086	-0.05
Mof_C 	C 	0.991	0.5214	0.5145	0.052
Mof_C 	C 	0.973	0.509	0.566	-0.017
Mof_C 	C 	0.957	0.557	0.591	-0.013
Mof_C 	C 	0.936	0.52	0.532	-0.028
Mof_C 	C 	0.925	0.56	0.566	0.052
Mof_I 	I 	0.16108	0.86589	0.65176	-0.311
Mof_Cu	Cu	0.07014	0.833	0.61801	0.825
Mof_S 	S 	0.0731	0.7511	0.5791	-0.469
Mof_N 	N 	0.0483	0.8946	0.5718	-0.216
Mof_C 	C 	0.0138	0.8841	0.5366	-0.011
Mof_C 	C 	0.9947	0.926	0.5086	0.019
Mof_C 	C 	0.009	0.9786	0.5145	-0.029
Mof_C 	C 	0.027	0.991	0.566	-0.012
Mof_C 	C 	0.043	0.943	0.591	-0.022
Mof_C 	C 	0.064	0.98	0.532	-0.012
Mof_C 	C 	0.075	0.94	0.566	0.047
Mof_I 	I 	0.66108	0.36589	0.15176	-0.31
Mof_Cu	Cu	0.57014	0.333	0.11801	0.827
Mof_S 	S 	0.5731	0.2511	0.0791	-0.469
Mof_N 	N 	0.5483	0.3946	0.0718	-0.219
Mof_C 	C 	0.5138	0.3841	0.0366	0.01
Mof_C 	C 	0.4947	0.426	0.0086	-0.015
Mof_C 	C 	0.509	0.4786	0.0145	0.011
Mof_C 	C 	0.527	0.491	0.066	-0.014
Mof_C 	C 	0.543	0.443	0.091	-0.017
Mof_C 	C 	0.564	0.48	0.032	-0.02
Mof_C 	C 	0.575	0.44	0.066	0.05
Mof_I 	I 	0.11589	0.08892	0.40176	-0.313
Mof_Cu	Cu	0.083	0.17986	0.36801	0.827
Mof_S 	S 	0.0011	0.1769	0.3291	-0.477
Mof_N 	N 	0.1446	0.2017	0.3218	-0.219
Mof_C 	C 	0.1341	0.2362	0.2866	0.009
Mof_C 	C 	0.176	0.2553	0.2586	-0.015
Mof_C 	C 	0.2286	0.241	0.2645	0.011
Mof_C 	C 	0.241	0.223	0.316	-0.014
Mof_C 	C 	0.193	0.207	0.341	-0.018
Mof_C 	C 	0.23	0.186	0.282	-0.02
Mof_C 	C 	0.19	0.175	0.316	0.05
Mof_I 	I 	0.61589	0.58892	0.90176	-0.31
Mof_Cu	Cu	0.583	0.67986	0.86801	0.827
Mof_S 	S 	0.5011	0.6769	0.8291	-0.469
Mof_N 	N 	0.6446	0.7017	0.8218	-0.219
Mof_C 	C 	0.6341	0.7362	0.7866	0.01
Mof_C 	C 	0.676	0.7553	0.7586	-0.015
Mof_C 	C 	0.7286	0.741	0.7645	0.011
Mof_C 	C 	0.741	0.723	0.816	-0.014
Mof_C 	C 	0.693	0.707	0.841	-0.017
Mof_C 	C 	0.73	0.686	0.782	-0.02
Mof_C 	C 	0.69	0.675	0.816	0.05
Mof_I 	I 	0.38411	0.91108	0.90176	-0.31
Mof_Cu	Cu	0.417	0.82014	0.86801	0.827
Mof_S 	S 	0.4989	0.8231	0.8291	-0.469
Mof_N 	N 	0.3554	0.7983	0.8218	-0.219
Mof_C 	C 	0.3659	0.7638	0.7866	0.01
Mof_C 	C 	0.324	0.7447	0.7586	-0.015
Mof_C 	C 	0.2714	0.759	0.7645	0.011
Mof_C 	C 	0.259	0.777	0.816	-0.014
Mof_C 	C 	0.307	0.793	0.841	-0.017
Mof_C 	C 	0.27	0.814	0.782	-0.02
Mof_C 	C 	0.31	0.825	0.816	0.05
Mof_I 	I 	0.88411	0.41108	0.40176	-0.307
Mof_Cu	Cu	0.917	0.32014	0.36801	0.828
Mof_S 	S 	0.9989	0.3231	0.3291	-0.452
Mof_N 	N 	0.8554	0.2983	0.3218	-0.22
Mof_C 	C 	0.8659	0.2638	0.2866	0.011
Mof_C 	C 	0.824	0.2447	0.2586	-0.015
Mof_C 	C 	0.7714	0.259	0.2645	0.012
Mof_C 	C 	0.759	0.277	0.316	-0.014
Mof_C 	C 	0.807	0.293	0.341	-0.018
Mof_C 	C 	0.77	0.314	0.282	-0.02
Mof_C 	C 	0.81	0.325	0.316	0.049
Mof_I 	I 	0.66108	0.86589	0.84824	-0.31
Mof_Cu	Cu	0.57014	0.833	0.88199	0.827
Mof_S 	S 	0.5731	0.7511	0.9209	-0.469
Mof_N 	N 	0.5483	0.8946	0.9282	-0.219
Mof_C 	C 	0.5138	0.8841	0.9634	0.01
Mof_C 	C 	0.4947	0.926	0.9914	-0.015
Mof_C 	C 	0.509	0.9786	0.9855	0.011
Mof_C 	C 	0.527	0.991	0.934	-0.014
Mof_C 	C 	0.543	0.943	0.909	-0.017
Mof_C 	C 	0.564	0.98	0.968	-0.02
Mof_C 	C 	0.575	0.94	0.934	0.049
Mof_I 	I 	0.16108	0.36589	0.34824	-0.311
Mof_Cu	Cu	0.07014	0.333	0.38199	0.825
Mof_S 	S 	0.0731	0.2511	0.4209	-0.469
Mof_N 	N 	0.0483	0.3946	0.4282	-0.216
Mof_C 	C 	0.0138	0.3841	0.4634	-0.011
Mof_C 	C 	0.9947	0.426	0.4914	0.019
Mof_C 	C 	0.009	0.4786	0.4855	-0.029
Mof_C 	C 	0.027	0.491	0.434	-0.012
Mof_C 	C 	0.043	0.443	0.409	-0.022
Mof_C 	C 	0.064	0.48	0.468	-0.012
Mof_C 	C 	0.075	0.44	0.434	0.047
Mof_I 	I 	0.83892	0.13411	0.34824	-0.309
Mof_Cu	Cu	0.92986	0.167	0.38199	0.83
Mof_S 	S 	0.9269	0.2489	0.4209	-0.46
Mof_N 	N 	0.9517	0.1054	0.4282	-0.223
Mof_C 	C 	0.9862	0.1159	0.4634	0.031
Mof_C 	C 	0.0053	0.074	0.4914	-0.05
Mof_C 	C 	0.991	0.0214	0.4855	0.051
Mof_C 	C 	0.973	0.009	0.434	-0.017
Mof_C 	C 	0.957	0.057	0.409	-0.013
Mof_C 	C 	0.936	0.02	0.468	-0.028
Mof_C 	C 	0.925	0.06	0.434	0.052
Mof_I 	I 	0.33892	0.63411	0.84824	-0.31
Mof_Cu	Cu	0.42986	0.667	0.88199	0.827
Mof_S 	S 	0.4269	0.7489	0.9209	-0.469
Mof_N 	N 	0.4517	0.6054	0.9282	-0.219
Mof_C 	C 	0.4862	0.6159	0.9634	0.01
Mof_C 	C 	0.5053	0.574	0.9914	-0.015
Mof_C 	C 	0.491	0.5214	0.9855	0.011
Mof_C 	C 	0.473	0.509	0.934	-0.014
Mof_C 	C 	0.457	0.557	0.909	-0.017
Mof_C 	C 	0.436	0.52	0.968	-0.02
Mof_C 	C 	0.425	0.56	0.934	0.05
Mof_I 	I 	0.88411	0.91108	0.59824	-0.307
Mof_Cu	Cu	0.917	0.82014	0.63199	0.828
Mof_S 	S 	0.9989	0.8231	0.6709	-0.452
Mof_N 	N 	0.8554	0.7983	0.6782	-0.22
Mof_C 	C 	0.8659	0.7638	0.7134	0.011
Mof_C 	C 	0.824	0.7447	0.7414	-0.015
Mof_C 	C 	0.7714	0.759	0.7355	0.012
Mof_C 	C 	0.759	0.777	0.684	-0.014
Mof_C 	C 	0.807	0.793	0.659	-0.017
Mof_C 	C 	0.77	0.814	0.718	-0.02
Mof_C 	C 	0.81	0.825	0.684	0.049
Mof_I 	I 	0.38411	0.41108	0.09824	-0.31
Mof_Cu	Cu	0.417	0.32014	0.13199	0.827
Mof_S 	S 	0.4989	0.3231	0.1709	-0.469
Mof_N 	N 	0.3554	0.2983	0.1782	-0.219
Mof_C 	C 	0.3659	0.2638	0.2134	0.01
Mof_C 	C 	0.324	0.2447	0.2414	-0.015
Mof_C 	C 	0.2714	0.259	0.2355	0.011
Mof_C 	C 	0.259	0.277	0.184	-0.014
Mof_C 	C 	0.307	0.293	0.159	-0.017
Mof_C 	C 	0.27	0.314	0.218	-0.02
Mof_C 	C 	0.31	0.325	0.184	0.05
Mof_I 	I 	0.61589	0.08892	0.09824	-0.31
Mof_Cu	Cu	0.583	0.17986	0.13199	0.827
Mof_S 	S 	0.5011	0.1769	0.1709	-0.469
Mof_N 	N 	0.6446	0.2017	0.1782	-0.219
Mof_C 	C 	0.6341	0.2362	0.2134	0.01
Mof_C 	C 	0.676	0.2553	0.2414	-0.015
Mof_C 	C 	0.7286	0.241	0.2355	0.011
Mof_C 	C 	0.741	0.223	0.184	-0.014
Mof_C 	C 	0.693	0.207	0.159	-0.017
Mof_C 	C 	0.73	0.186	0.218	-0.02
Mof_C 	C 	0.69	0.175	0.184	0.049
Mof_I 	I 	0.11589	0.58892	0.59824	-0.313
Mof_Cu	Cu	0.083	0.67986	0.63199	0.827
Mof_S 	S 	0.0011	0.6769	0.6709	-0.477
Mof_N 	N 	0.1446	0.7017	0.6782	-0.219
Mof_C 	C 	0.1341	0.7362	0.7134	0.009
Mof_C 	C 	0.176	0.7553	0.7414	-0.015
Mof_C 	C 	0.2286	0.741	0.7355	0.011
Mof_C 	C 	0.241	0.723	0.684	-0.014
Mof_C 	C 	0.193	0.707	0.659	-0.018
Mof_C 	C 	0.23	0.686	0.718	-0.02
Mof_C 	C 	0.19	0.675	0.684	0.05
Mof_W 	W 	0.5	0.25	0.125	0.262
Mof_W 	W 	1.42383e-32	0.75	0.625	0.243
Mof_W 	W 	1.61061e-33	0.25	0.375	0.243
Mof_W 	W 	0.5	0.75	0.875	0.262
Mof_I 	I 	0.16108	0.13411	0.84824	-0.311
Mof_Cu	Cu	0.07014	0.167	0.88199	0.825
Mof_S 	S 	0.0731	0.2489	0.9209	-0.469
Mof_N 	N 	0.0483	0.1054	0.9282	-0.216
Mof_C 	C 	0.0138	0.1159	0.9634	-0.011
Mof_C 	C 	0.9947	0.074	0.9914	0.018
Mof_C 	C 	0.009	0.0214	0.9855	-0.028
Mof_C 	C 	0.027	0.009	0.934	-0.012
Mof_C 	C 	0.043	0.057	0.909	-0.022
Mof_C 	C 	0.064	0.02	0.968	-0.012
Mof_C 	C 	0.075	0.06	0.934	0.047
Mof_I 	I 	0.66108	0.63411	0.34824	-0.31
Mof_Cu	Cu	0.57014	0.667	0.38199	0.827
Mof_S 	S 	0.5731	0.7489	0.4209	-0.469
Mof_N 	N 	0.5483	0.6054	0.4282	-0.219
Mof_C 	C 	0.5138	0.6159	0.4634	0.01
Mof_C 	C 	0.4947	0.574	0.4914	-0.015
Mof_C 	C 	0.509	0.5214	0.4855	0.011
Mof_C 	C 	0.527	0.509	0.434	-0.014
Mof_C 	C 	0.543	0.557	0.409	-0.017
Mof_C 	C 	0.564	0.52	0.468	-0.02
Mof_C 	C 	0.575	0.56	0.434	0.05
Mof_I 	I 	0.33892	0.86589	0.34824	-0.31
Mof_Cu	Cu	0.42986	0.833	0.38199	0.827
Mof_S 	S 	0.4269	0.7511	0.4209	-0.469
Mof_N 	N 	0.4517	0.8946	0.4282	-0.219
Mof_C 	C 	0.4862	0.8841	0.4634	0.01
Mof_C 	C 	0.5053	0.926	0.4914	-0.015
Mof_C 	C 	0.491	0.9786	0.4855	0.011
Mof_C 	C 	0.473	0.991	0.434	-0.014
Mof_C 	C 	0.457	0.943	0.409	-0.017
Mof_C 	C 	0.436	0.98	0.468	-0.02
Mof_C 	C 	0.425	0.94	0.434	0.05
Mof_I 	I 	0.83892	0.36589	0.84824	-0.309
Mof_Cu	Cu	0.92986	0.333	0.88199	0.83
Mof_S 	S 	0.9269	0.2511	0.9209	-0.46
Mof_N 	N 	0.9517	0.3946	0.9282	-0.223
Mof_C 	C 	0.9862	0.3841	0.9634	0.031
Mof_C 	C 	0.0053	0.426	0.9914	-0.05
Mof_C 	C 	0.991	0.4786	0.9855	0.051
Mof_C 	C 	0.973	0.491	0.934	-0.016
Mof_C 	C 	0.957	0.443	0.909	-0.013
Mof_C 	C 	0.936	0.48	0.968	-0.028
Mof_C 	C 	0.925	0.44	0.934	0.052
Mof_I 	I 	0.38411	0.08892	0.59824	-0.31
Mof_Cu	Cu	0.417	0.17986	0.63199	0.827
Mof_S 	S 	0.4989	0.1769	0.6709	-0.469
Mof_N 	N 	0.3554	0.2017	0.6782	-0.219
Mof_C 	C 	0.3659	0.2362	0.7134	0.01
Mof_C 	C 	0.324	0.2553	0.7414	-0.015
Mof_C 	C 	0.2714	0.241	0.7355	0.011
Mof_C 	C 	0.259	0.223	0.684	-0.014
Mof_C 	C 	0.307	0.207	0.659	-0.017
Mof_C 	C 	0.27	0.186	0.718	-0.02
Mof_C 	C 	0.31	0.175	0.684	0.05
Mof_I 	I 	0.88411	0.58892	0.09824	-0.307
Mof_Cu	Cu	0.917	0.67986	0.13199	0.828
Mof_S 	S 	0.9989	0.6769	0.1709	-0.452
Mof_N 	N 	0.8554	0.7017	0.1782	-0.22
Mof_C 	C 	0.8659	0.7362	0.2134	0.011
Mof_C 	C 	0.824	0.7553	0.2414	-0.015
Mof_C 	C 	0.7714	0.741	0.2355	0.012
Mof_C 	C 	0.759	0.723	0.184	-0.014
Mof_C 	C 	0.807	0.707	0.159	-0.018
Mof_C 	C 	0.77	0.686	0.218	-0.02
Mof_C 	C 	0.81	0.675	0.184	0.049
Mof_I 	I 	0.11589	0.91108	0.09824	-0.313
Mof_Cu	Cu	0.083	0.82014	0.13199	0.827
Mof_S 	S 	0.0011	0.8231	0.1709	-0.477
Mof_N 	N 	0.1446	0.7983	0.1782	-0.219
Mof_C 	C 	0.1341	0.7638	0.2134	0.009
Mof_C 	C 	0.176	0.7447	0.2414	-0.015
Mof_C 	C 	0.2286	0.759	0.2355	0.011
Mof_C 	C 	0.241	0.777	0.184	-0.014
Mof_C 	C 	0.193	0.793	0.159	-0.018
Mof_C 	C 	0.23	0.814	0.218	-0.02
Mof_C 	C 	0.19	0.825	0.184	0.05
Mof_I 	I 	0.61589	0.41108	0.59824	-0.31
Mof_Cu	Cu	0.583	0.32014	0.63199	0.827
Mof_S 	S 	0.5011	0.3231	0.6709	-0.469
Mof_N 	N 	0.6446	0.2983	0.6782	-0.219
Mof_C 	C 	0.6341	0.2638	0.7134	0.01
Mof_C 	C 	0.676	0.2447	0.7414	-0.015
Mof_C 	C 	0.7286	0.259	0.7355	0.011
Mof_C 	C 	0.741	0.277	0.684	-0.014
Mof_C 	C 	0.693	0.293	0.659	-0.017
Mof_C 	C 	0.73	0.314	0.718	-0.02
Mof_C 	C 	0.69	0.325	0.684	0.05
Mof_I 	I 	0.83892	0.86589	0.15176	-0.309
Mof_Cu	Cu	0.92986	0.833	0.11801	0.83
Mof_S 	S 	0.9269	0.7511	0.0791	-0.46
Mof_N 	N 	0.9517	0.8946	0.0718	-0.223
Mof_C 	C 	0.9862	0.8841	0.0366	0.03
Mof_C 	C 	0.0053	0.926	0.0086	-0.049
Mof_C 	C 	0.991	0.9786	0.0145	0.051
Mof_C 	C 	0.973	0.991	0.066	-0.017
Mof_C 	C 	0.957	0.943	0.091	-0.013
Mof_C 	C 	0.936	0.98	0.032	-0.028
Mof_C 	C 	0.925	0.94	0.066	0.052
Mof_I 	I 	0.33892	0.36589	0.65176	-0.31
Mof_Cu	Cu	0.42986	0.333	0.61801	0.827
Mof_S 	S 	0.4269	0.2511	0.5791	-0.469
Mof_N 	N 	0.4517	0.3946	0.5718	-0.219
Mof_C 	C 	0.4862	0.3841	0.5366	0.01
Mof_C 	C 	0.5053	0.426	0.5086	-0.015
Mof_C 	C 	0.491	0.4786	0.5145	0.011
Mof_C 	C 	0.473	0.491	0.566	-0.014
Mof_C 	C 	0.457	0.443	0.591	-0.017
Mof_C 	C 	0.436	0.48	0.532	-0.02
Mof_C 	C 	0.425	0.44	0.566	0.05
Mof_I 	I 	0.66108	0.13411	0.65176	-0.31
Mof_Cu	Cu	0.57014	0.167	0.61801	0.827
Mof_S 	S 	0.5731	0.2489	0.5791	-0.469
Mof_N 	N 	0.5483	0.1054	0.5718	-0.219
Mof_C 	C 	0.5138	0.1159	0.5366	0.01
Mof_C 	C 	0.4947	0.074	0.5086	-0.015
Mof_C 	C 	0.509	0.0214	0.5145	0.011
Mof_C 	C 	0.527	0.009	0.566	-0.014
Mof_C 	C 	0.543	0.057	0.591	-0.017
Mof_C 	C 	0.564	0.02	0.532	-0.02
Mof_C 	C 	0.575	0.06	0.566	0.05
Mof_I 	I 	0.16108	0.63411	0.15176	-0.311
Mof_Cu	Cu	0.07014	0.667	0.11801	0.825
Mof_S 	S 	0.0731	0.7489	0.0791	-0.469
Mof_N 	N 	0.0483	0.6054	0.0718	-0.216
Mof_C 	C 	0.0138	0.6159	0.0366	-0.011
Mof_C 	C 	0.9947	0.574	0.0086	0.019
Mof_C 	C 	0.009	0.5214	0.0145	-0.029
Mof_C 	C 	0.027	0.509	0.066	-0.012
Mof_C 	C 	0.043	0.557	0.091	-0.022
Mof_C 	C 	0.064	0.52	0.032	-0.012
Mof_C 	C 	0.075	0.56	0.066	0.047
Mof_I 	I 	0.61589	0.91108	0.40176	-0.31
Mof_Cu	Cu	0.583	0.82014	0.36801	0.827
Mof_S 	S 	0.5011	0.8231	0.3291	-0.469
Mof_N 	N 	0.6446	0.7983	0.3218	-0.219
Mof_C 	C 	0.6341	0.7638	0.2866	0.01
Mof_C 	C 	0.676	0.7447	0.2586	-0.015
Mof_C 	C 	0.7286	0.759	0.2645	0.011
Mof_C 	C 	0.741	0.777	0.316	-0.014
Mof_C 	C 	0.693	0.793	0.341	-0.017
Mof_C 	C 	0.73	0.814	0.282	-0.02
Mof_C 	C 	0.69	0.825	0.316	0.049
Mof_I 	I 	0.11589	0.41108	0.90176	-0.313
Mof_Cu	Cu	0.083	0.32014	0.86801	0.827
Mof_S 	S 	0.0011	0.3231	0.8291	-0.477
Mof_N 	N 	0.1446	0.2983	0.8218	-0.219
Mof_C 	C 	0.1341	0.2638	0.7866	0.009
Mof_C 	C 	0.176	0.2447	0.7586	-0.015
Mof_C 	C 	0.2286	0.259	0.7645	0.011
Mof_C 	C 	0.241	0.277	0.816	-0.014
Mof_C 	C 	0.193	0.293	0.841	-0.018
Mof_C 	C 	0.23	0.314	0.782	-0.02
Mof_C 	C 	0.19	0.325	0.816	0.05
Mof_I 	I 	0.88411	0.08892	0.90176	-0.307
Mof_Cu	Cu	0.917	0.17986	0.86801	0.828
Mof_S 	S 	0.9989	0.1769	0.8291	-0.452
Mof_N 	N 	0.8554	0.2017	0.8218	-0.22
Mof_C 	C 	0.8659	0.2362	0.7866	0.011
Mof_C 	C 	0.824	0.2553	0.7586	-0.015
Mof_C 	C 	0.7714	0.241	0.7645	0.012
Mof_C 	C 	0.759	0.223	0.816	-0.014
Mof_C 	C 	0.807	0.207	0.841	-0.017
Mof_C 	C 	0.77	0.186	0.782	-0.02
Mof_C 	C 	0.81	0.175	0.816	0.049
Mof_I 	I 	0.38411	0.58892	0.40176	-0.31
Mof_Cu	Cu	0.417	0.67986	0.36801	0.827
Mof_S 	S 	0.4989	0.6769	0.3291	-0.469
Mof_N 	N 	0.3554	0.7017	0.3218	-0.219
Mof_C 	C 	0.3659	0.7362	0.2866	0.01
Mof_C 	C 	0.324	0.7553	0.2586	-0.015
Mof_C 	C 	0.2714	0.741	0.2645	0.011
Mof_C 	C 	0.259	0.723	0.316	-0.014
Mof_C 	C 	0.307	0.707	0.341	-0.017
Mof_C 	C 	0.27	0.686	0.282	-0.02
Mof_C 	C 	0.31	0.675	0.316	0.05
Mof_W 	W 	1.5312e-32	0.25	0.875	0.243
Mof_W 	W 	0.5	0.75	0.375	0.262
Mof_W 	W 	0.5	0.25	0.625	0.262
Mof_W 	W 	1.49793e-32	0.75	0.125	0.243
_end
