# CIF file generated by openbabel 3.1.0, see https://openbabel.org
data_I
_chemical_name_common 'REHJIZ_charged'
_cell_length_a 10.0372
_cell_length_b 10.0372
_cell_length_c 17.607
_cell_angle_alpha 90
_cell_angle_beta 90
_cell_angle_gamma 90
_space_group_name_H-M_alt 'P 1'
_space_group_name_Hall 'P 1'
loop_
    _symmetry_equiv_pos_as_xyz
    x,y,z
loop_
    _atom_site_label
    _atom_site_type_symbol
    _atom_site_fract_x
    _atom_site_fract_y
    _atom_site_fract_z
    _atom_site_occupancy
    Ag1      Ag       0.70214    0.00000    0.25000    1.000
    Ag2      Ag       0.29786    0.00000    0.25000    1.000
    Ag3      Ag       0.00000    0.29786    0.75000    1.000
    Ag4      Ag       0.00000    0.70214    0.75000    1.000
    H1       H        0.65420    0.91690    0.92310    1.000
    H2       H        0.61020    0.60020    0.08090    1.000
    H3       H        0.45890    0.64220    0.08150    1.000
    H4       H        0.74430    0.11410    0.97150    1.000
    H5       H        0.59840    0.80140    0.13770    1.000
    H6       H        0.75980    0.14470    0.09870    1.000
    H7       H        0.34580    0.08310    0.92310    1.000
    H8       H        0.38980    0.39980    0.08090    1.000
    H9       H        0.54110    0.35780    0.08150    1.000
    H10      H        0.25570    0.88590    0.97150    1.000
    H11      H        0.40160    0.19860    0.13770    1.000
    H12      H        0.24020    0.85530    0.09870    1.000
    H13      H        0.91690    0.34580    0.07690    1.000
    H14      H        0.60020    0.38980    0.91910    1.000
    H15      H        0.64220    0.54110    0.91850    1.000
    H16      H        0.11410    0.25570    0.02850    1.000
    H17      H        0.80140    0.40160    0.86230    1.000
    H18      H        0.14470    0.24020    0.90130    1.000
    H19      H        0.08310    0.65420    0.07690    1.000
    H20      H        0.39980    0.61020    0.91910    1.000
    H21      H        0.35780    0.45890    0.91850    1.000
    H22      H        0.88590    0.74430    0.02850    1.000
    H23      H        0.19860    0.59840    0.86230    1.000
    H24      H        0.85530    0.75980    0.90130    1.000
    H25      H        0.34580    0.91690    0.57690    1.000
    H26      H        0.38980    0.60020    0.41910    1.000
    H27      H        0.54110    0.64220    0.41850    1.000
    H28      H        0.25570    0.11410    0.52850    1.000
    H29      H        0.40160    0.80140    0.36230    1.000
    H30      H        0.24020    0.14470    0.40130    1.000
    H31      H        0.65420    0.08310    0.57690    1.000
    H32      H        0.61020    0.39980    0.41910    1.000
    H33      H        0.45890    0.35780    0.41850    1.000
    H34      H        0.74430    0.88590    0.52850    1.000
    H35      H        0.59840    0.19860    0.36230    1.000
    H36      H        0.75980    0.85530    0.40130    1.000
    H37      H        0.08310    0.34580    0.42310    1.000
    H38      H        0.39980    0.38980    0.58090    1.000
    H39      H        0.35780    0.54110    0.58150    1.000
    H40      H        0.88590    0.25570    0.47150    1.000
    H41      H        0.19860    0.40160    0.63770    1.000
    H42      H        0.85530    0.24020    0.59870    1.000
    H43      H        0.91690    0.65420    0.42310    1.000
    H44      H        0.60020    0.61020    0.58090    1.000
    H45      H        0.64220    0.45890    0.58150    1.000
    H46      H        0.11410    0.74430    0.47150    1.000
    H47      H        0.80140    0.59840    0.63770    1.000
    H48      H        0.14470    0.75980    0.59870    1.000
    C1       C        0.61500    0.84070    0.02760    1.000
    C2       C        0.66010    0.93210    0.97510    1.000
    C3       C        0.53360    0.61930    0.04910    1.000
    C4       C        0.71440    0.04780    0.00430    1.000
    C5       C        0.62950    0.86450    0.10330    1.000
    C6       C        0.72450    0.06500    0.08080    1.000
    C7       C        0.38500    0.15930    0.02760    1.000
    C8       C        0.33990    0.06790    0.97510    1.000
    C9       C        0.46640    0.38070    0.04910    1.000
    C10      C        0.28560    0.95220    0.00430    1.000
    C11      C        0.37050    0.13550    0.10330    1.000
    C12      C        0.27550    0.93500    0.08080    1.000
    C13      C        0.84070    0.38500    0.97240    1.000
    C14      C        0.93210    0.33990    0.02490    1.000
    C15      C        0.61930    0.46640    0.95090    1.000
    C16      C        0.04780    0.28560    0.99570    1.000
    C17      C        0.86450    0.37050    0.89670    1.000
    C18      C        0.06500    0.27550    0.91920    1.000
    C19      C        0.15930    0.61500    0.97240    1.000
    C20      C        0.06790    0.66010    0.02490    1.000
    C21      C        0.38070    0.53360    0.95090    1.000
    C22      C        0.95220    0.71440    0.99570    1.000
    C23      C        0.13550    0.62950    0.89670    1.000
    C24      C        0.93500    0.72450    0.91920    1.000
    C25      C        0.38500    0.84070    0.47240    1.000
    C26      C        0.33990    0.93210    0.52490    1.000
    C27      C        0.46640    0.61930    0.45090    1.000
    C28      C        0.28560    0.04780    0.49570    1.000
    C29      C        0.37050    0.86450    0.39670    1.000
    C30      C        0.27550    0.06500    0.41920    1.000
    C31      C        0.61500    0.15930    0.47240    1.000
    C32      C        0.66010    0.06790    0.52490    1.000
    C33      C        0.53360    0.38070    0.45090    1.000
    C34      C        0.71440    0.95220    0.49570    1.000
    C35      C        0.62950    0.13550    0.39670    1.000
    C36      C        0.72450    0.93500    0.41920    1.000
    C37      C        0.15930    0.38500    0.52760    1.000
    C38      C        0.06790    0.33990    0.47510    1.000
    C39      C        0.38070    0.46640    0.54910    1.000
    C40      C        0.95220    0.28560    0.50430    1.000
    C41      C        0.13550    0.37050    0.60330    1.000
    C42      C        0.93500    0.27550    0.58080    1.000
    C43      C        0.84070    0.61500    0.52760    1.000
    C44      C        0.93210    0.66010    0.47510    1.000
    C45      C        0.61930    0.53360    0.54910    1.000
    C46      C        0.04780    0.71440    0.50430    1.000
    C47      C        0.86450    0.62950    0.60330    1.000
    C48      C        0.06500    0.72450    0.58080    1.000
    C49      C        0.50000    0.50000    0.00000    1.000
    C50      C        0.50000    0.50000    0.50000    1.000
    N1       N        0.68720    0.97600    0.13030    1.000
    N2       N        0.31280    0.02400    0.13030    1.000
    N3       N        0.97600    0.31280    0.86970    1.000
    N4       N        0.02400    0.68720    0.86970    1.000
    N5       N        0.31280    0.97600    0.36970    1.000
    N6       N        0.68720    0.02400    0.36970    1.000
    N7       N        0.02400    0.31280    0.63030    1.000
    N8       N        0.97600    0.68720    0.63030    1.000
    O1       O        0.56250    0.72540    0.99820    1.000
    O2       O        0.43750    0.27460    0.99820    1.000
    O3       O        0.72540    0.43750    0.00180    1.000
    O4       O        0.27460    0.56250    0.00180    1.000
    O5       O        0.43750    0.72540    0.50180    1.000
    O6       O        0.56250    0.27460    0.50180    1.000
    O7       O        0.27460    0.43750    0.49820    1.000
    O8       O        0.72540    0.56250    0.49820    1.000
    N9       N        0.00000    0.87610    0.25000    1.000
    N10      N        0.00000    0.12390    0.25000    1.000
    O9       O        0.90800    0.79400    0.25600    1.000
    O10      O        0.09200    0.20600    0.25600    1.000
    O11      O        0.09200    0.79400    0.24400    1.000
    O12      O        0.90800    0.20600    0.24400    1.000
    O13      O        0.00000    0.00000    0.25000    1.000
    N11      N        0.87610    0.00000    0.75000    1.000
    N12      N        0.12390    0.00000    0.75000    1.000
    O14      O        0.79400    0.09200    0.74400    1.000
    O15      O        0.20600    0.90800    0.74400    1.000
    O16      O        0.20600    0.09200    0.75600    1.000
    O17      O        0.79400    0.90800    0.75600    1.000
    O18      O        0.00000    0.00000    0.75000    1.000
