data_functionalizedCrystal
_audit_creation_method	'EQeq! by Chris Wilmer'
_symmetry_space_group_name_H-M	'P1'
_symmetry_Int_Tables_number	1
_symmetry_cell_setting	triclinic
loop_
_symmetry_equiv_pos_as_xyz
  x,y,z
_cell_length_a	10.5197
_cell_length_b	10.5197
_cell_length_c	66.084
_cell_angle_alpha	90
_cell_angle_beta	90
_cell_angle_gamma	120
loop_
_atom_site_label
_atom_site_type_symbol
_atom_site_fract_x
_atom_site_fract_y
_atom_site_fract_z
_atom_site_charge
Mof_C 	C 	0.855	0.8835	0.50011	0.005
Mof_C 	C 	0.6986	0.7596	0.50113	-0.106
Mof_H 	H 	0.6956	0.6789	0.5086	0.076
Mof_H 	H 	0.6406	0.7926	0.5085	0.074
Mof_C 	C 	0.4699	0.5755	0.46047	0.09
Mof_H 	H 	0.3812	0.5052	0.4549	-0.027
Mof_C 	C 	0.684	0.7411	0.46299	0.096
Mof_H 	H 	0.7787	0.8161	0.4601	-0.021
Mof_N 	N 	0.6318	0.7061	0.48119	-0.091
Mof_N 	N 	0.4882	0.6	0.48004	-0.096
Mof_N 	N 	0.5894	0.66	0.44911	-0.221
Mof_C 	C 	0.52167	0.21683	0.83344	-0.004
Mof_C 	C 	0.36527	0.09293	0.83446	-0.101
Mof_H 	H 	0.36227	0.01223	0.84193	0.072
Mof_H 	H 	0.30727	0.12593	0.84183	0.071
Mof_C 	C 	0.13657	0.90883	0.7938	0.093
Mof_H 	H 	0.04787	0.83853	0.78823	-0.027
Mof_C 	C 	0.35067	0.07443	0.79632	0.086
Mof_H 	H 	0.44537	0.14943	0.79343	-0.019
Mof_N 	N 	0.29847	0.03943	0.81452	-0.093
Mof_N 	N 	0.15487	0.93333	0.81337	-0.092
Mof_N 	N 	0.25607	0.99333	0.78244	-0.211
Mof_C 	C 	0.18833	0.55017	0.16678	0.009
Mof_C 	C 	0.03193	0.42627	0.1678	-0.133
Mof_H 	H 	0.02893	0.34557	0.17527	0.083
Mof_H 	H 	0.97393	0.45927	0.17517	0.089
Mof_C 	C 	0.80323	0.24217	0.12714	0.092
Mof_H 	H 	0.71453	0.17187	0.12157	-0.027
Mof_C 	C 	0.01733	0.40777	0.12966	0.076
Mof_H 	H 	0.11203	0.48277	0.12677	-0.016
Mof_N 	N 	0.96513	0.37277	0.14786	-0.077
Mof_N 	N 	0.82153	0.26667	0.14671	-0.096
Mof_N 	N 	0.92273	0.32667	0.11578	-0.213
Mof_C 	C 	0.1165	0.9715	0.50011	-0.001
Mof_C 	C 	0.2404	0.939	0.50113	-0.09
Mof_H 	H 	0.3211	0.0167	0.5086	0.069
Mof_H 	H 	0.2074	0.848	0.5085	0.069
Mof_C 	C 	0.4245	0.8944	0.46047	0.092
Mof_H 	H 	0.4948	0.876	0.4549	-0.025
Mof_C 	C 	0.2589	0.9429	0.46299	0.099
Mof_H 	H 	0.1839	0.9626	0.4601	-0.022
Mof_N 	N 	0.2939	0.9257	0.48119	-0.092
Mof_N 	N 	0.4	0.8882	0.48004	-0.094
Mof_N 	N 	0.34	0.9294	0.44911	-0.22
Mof_C 	C 	0.78317	0.30483	0.83344	0
Mof_C 	C 	0.90707	0.27233	0.83446	-0.102
Mof_H 	H 	0.98777	0.35003	0.84193	0.079
Mof_H 	H 	0.87407	0.18133	0.84183	0.073
Mof_C 	C 	0.09117	0.22773	0.7938	0.088
Mof_H 	H 	0.16147	0.20933	0.78823	-0.026
Mof_C 	C 	0.92557	0.27623	0.79632	0.105
Mof_H 	H 	0.85057	0.29593	0.79343	-0.024
Mof_N 	N 	0.96057	0.25903	0.81452	-0.089
Mof_N 	N 	0.06667	0.22153	0.81337	-0.099
Mof_N 	N 	0.00667	0.26273	0.78244	-0.223
Mof_C 	C 	0.44983	0.63817	0.16678	0.002
Mof_C 	C 	0.57373	0.60567	0.1678	-0.103
Mof_H 	H 	0.65443	0.68337	0.17527	0.078
Mof_H 	H 	0.54073	0.51467	0.17517	0.074
Mof_C 	C 	0.75783	0.56107	0.12714	0.092
Mof_H 	H 	0.82813	0.54267	0.12157	-0.024
Mof_C 	C 	0.59223	0.60957	0.12966	0.098
Mof_H 	H 	0.51723	0.62927	0.12677	-0.023
Mof_N 	N 	0.62723	0.59237	0.14786	-0.09
Mof_N 	N 	0.73333	0.55487	0.14671	-0.094
Mof_N 	N 	0.67333	0.59607	0.11578	-0.219
Mof_C 	C 	0.0285	0.145	0.50011	-0.002
Mof_C 	C 	0.061	0.3014	0.50113	-0.114
Mof_H 	H 	0.9833	0.3044	0.5086	0.084
Mof_H 	H 	0.152	0.3594	0.5085	0.076
Mof_C 	C 	0.1056	0.5301	0.46047	0.091
Mof_H 	H 	0.124	0.6188	0.4549	-0.026
Mof_C 	C 	0.0571	0.316	0.46299	0.095
Mof_H 	H 	0.0374	0.2213	0.4601	-0.024
Mof_N 	N 	0.0743	0.3682	0.48119	-0.09
Mof_N 	N 	0.1118	0.5118	0.48004	-0.096
Mof_N 	N 	0.0706	0.4106	0.44911	-0.22
Mof_C 	C 	0.69517	0.47833	0.83344	0.003
Mof_C 	C 	0.72767	0.63473	0.83446	-0.104
Mof_H 	H 	0.64997	0.63773	0.84193	0.078
Mof_H 	H 	0.81867	0.69273	0.84183	0.075
Mof_C 	C 	0.77227	0.86343	0.7938	0.093
Mof_H 	H 	0.79067	0.95213	0.78823	-0.022
Mof_C 	C 	0.72377	0.64933	0.79632	0.098
Mof_H 	H 	0.70407	0.55463	0.79343	-0.022
Mof_N 	N 	0.74097	0.70153	0.81452	-0.09
Mof_N 	N 	0.77847	0.84513	0.81337	-0.093
Mof_N 	N 	0.73727	0.74393	0.78244	-0.219
Mof_C 	C 	0.36183	0.81167	0.16678	-0.003
Mof_C 	C 	0.39433	0.96807	0.1678	-0.083
Mof_H 	H 	0.31663	0.97107	0.17527	0.073
Mof_H 	H 	0.48533	0.02607	0.17517	0.063
Mof_C 	C 	0.43893	0.19677	0.12714	0.09
Mof_H 	H 	0.45733	0.28547	0.12157	-0.026
Mof_C 	C 	0.39043	0.98267	0.12966	0.111
Mof_H 	H 	0.37073	0.88797	0.12677	-0.027
Mof_N 	N 	0.40763	0.03487	0.14786	-0.1
Mof_N 	N 	0.44513	0.17847	0.14671	-0.095
Mof_N 	N 	0.40393	0.07727	0.11578	-0.224
Mof_C 	C 	0.8835	0.855	0.99989	0.006
Mof_C 	C 	0.7596	0.6986	0.99887	-0.105
Mof_H 	H 	0.6789	0.6956	0.9914	0.077
Mof_H 	H 	0.7926	0.6406	0.9915	0.075
Mof_C 	C 	0.5755	0.4699	0.03953	0.091
Mof_H 	H 	0.5052	0.3812	0.0451	-0.026
Mof_C 	C 	0.7411	0.684	0.03701	0.097
Mof_H 	H 	0.8161	0.7787	0.0399	-0.02
Mof_N 	N 	0.7061	0.6318	0.01881	-0.09
Mof_N 	N 	0.6	0.4882	0.01996	-0.095
Mof_N 	N 	0.66	0.5894	0.05089	-0.22
Mof_C 	C 	0.55017	0.18833	0.33322	0.009
Mof_C 	C 	0.42627	0.03193	0.3322	-0.133
Mof_H 	H 	0.34557	0.02893	0.32473	0.083
Mof_H 	H 	0.45927	0.97393	0.32483	0.089
Mof_C 	C 	0.24217	0.80323	0.37286	0.092
Mof_H 	H 	0.17187	0.71453	0.37843	-0.027
Mof_C 	C 	0.40777	0.01733	0.37034	0.076
Mof_H 	H 	0.48277	0.11203	0.37323	-0.016
Mof_N 	N 	0.37277	0.96513	0.35214	-0.077
Mof_N 	N 	0.26667	0.82153	0.35329	-0.096
Mof_N 	N 	0.32667	0.92273	0.38422	-0.213
Mof_C 	C 	0.21683	0.52167	0.66656	-0.003
Mof_C 	C 	0.09293	0.36527	0.66554	-0.1
Mof_H 	H 	0.01223	0.36227	0.65807	0.072
Mof_H 	H 	0.12593	0.30727	0.65817	0.071
Mof_C 	C 	0.90883	0.13657	0.7062	0.093
Mof_H 	H 	0.83853	0.04787	0.71177	-0.027
Mof_C 	C 	0.07443	0.35067	0.70368	0.086
Mof_H 	H 	0.14943	0.44537	0.70657	-0.019
Mof_N 	N 	0.03943	0.29847	0.68548	-0.093
Mof_N 	N 	0.93333	0.15487	0.68663	-0.092
Mof_N 	N 	0.99333	0.25607	0.71756	-0.211
Mof_C 	C 	0.9715	0.1165	0.99989	-0.001
Mof_C 	C 	0.939	0.2404	0.99887	-0.09
Mof_H 	H 	0.0167	0.3211	0.9914	0.069
Mof_H 	H 	0.848	0.2074	0.9915	0.069
Mof_C 	C 	0.8944	0.4245	0.03953	0.092
Mof_H 	H 	0.876	0.4948	0.0451	-0.025
Mof_C 	C 	0.9429	0.2589	0.03701	0.099
Mof_H 	H 	0.9626	0.1839	0.0399	-0.022
Mof_N 	N 	0.9257	0.2939	0.01881	-0.092
Mof_N 	N 	0.8882	0.4	0.01996	-0.094
Mof_N 	N 	0.9294	0.34	0.05089	-0.22
Mof_C 	C 	0.63817	0.44983	0.33322	0.002
Mof_C 	C 	0.60567	0.57373	0.3322	-0.103
Mof_H 	H 	0.68337	0.65443	0.32473	0.078
Mof_H 	H 	0.51467	0.54073	0.32483	0.074
Mof_C 	C 	0.56107	0.75783	0.37286	0.092
Mof_H 	H 	0.54267	0.82813	0.37843	-0.024
Mof_C 	C 	0.60957	0.59223	0.37034	0.098
Mof_H 	H 	0.62927	0.51723	0.37323	-0.023
Mof_N 	N 	0.59237	0.62723	0.35214	-0.09
Mof_N 	N 	0.55487	0.73333	0.35329	-0.094
Mof_N 	N 	0.59607	0.67333	0.38422	-0.219
Mof_C 	C 	0.30483	0.78317	0.66656	0
Mof_C 	C 	0.27233	0.90707	0.66554	-0.102
Mof_H 	H 	0.35003	0.98777	0.65807	0.079
Mof_H 	H 	0.18133	0.87407	0.65817	0.073
Mof_C 	C 	0.22773	0.09117	0.7062	0.088
Mof_H 	H 	0.20933	0.16147	0.71177	-0.026
Mof_C 	C 	0.27623	0.92557	0.70368	0.105
Mof_H 	H 	0.29593	0.85057	0.70657	-0.024
Mof_N 	N 	0.25903	0.96057	0.68548	-0.089
Mof_N 	N 	0.22153	0.06667	0.68663	-0.099
Mof_N 	N 	0.26273	0.00667	0.71756	-0.223
Mof_C 	C 	0.145	0.0285	0.99989	-0.002
Mof_C 	C 	0.3014	0.061	0.99887	-0.114
Mof_H 	H 	0.3044	0.9833	0.9914	0.084
Mof_H 	H 	0.3594	0.152	0.9915	0.076
Mof_C 	C 	0.5301	0.1056	0.03953	0.091
Mof_H 	H 	0.6188	0.124	0.0451	-0.026
Mof_C 	C 	0.316	0.0571	0.03701	0.095
Mof_H 	H 	0.2213	0.0374	0.0399	-0.024
Mof_N 	N 	0.3682	0.0743	0.01881	-0.09
Mof_N 	N 	0.5118	0.1118	0.01996	-0.096
Mof_N 	N 	0.4106	0.0706	0.05089	-0.22
Mof_C 	C 	0.81167	0.36183	0.33322	-0.003
Mof_C 	C 	0.96807	0.39433	0.3322	-0.083
Mof_H 	H 	0.97107	0.31663	0.32473	0.073
Mof_H 	H 	0.02607	0.48533	0.32483	0.063
Mof_C 	C 	0.19677	0.43893	0.37286	0.09
Mof_H 	H 	0.28547	0.45733	0.37843	-0.026
Mof_C 	C 	0.98267	0.39043	0.37034	0.111
Mof_H 	H 	0.88797	0.37073	0.37323	-0.027
Mof_N 	N 	0.03487	0.40763	0.35214	-0.1
Mof_N 	N 	0.17847	0.44513	0.35329	-0.095
Mof_N 	N 	0.07727	0.40393	0.38422	-0.224
Mof_C 	C 	0.47833	0.69517	0.66656	0.003
Mof_C 	C 	0.63473	0.72767	0.66554	-0.104
Mof_H 	H 	0.63773	0.64997	0.65807	0.078
Mof_H 	H 	0.69273	0.81867	0.65817	0.075
Mof_C 	C 	0.86343	0.77227	0.7062	0.093
Mof_H 	H 	0.95213	0.79067	0.71177	-0.022
Mof_C 	C 	0.64933	0.72377	0.70368	0.098
Mof_H 	H 	0.55463	0.70407	0.70657	-0.022
Mof_N 	N 	0.70153	0.74097	0.68548	-0.09
Mof_N 	N 	0.84513	0.77847	0.68663	-0.093
Mof_N 	N 	0.74393	0.73727	0.71756	-0.219
Mof_C 	C 	0.145	0.1165	0.49989	-0.003
Mof_C 	C 	0.3014	0.2404	0.49887	-0.101
Mof_H 	H 	0.3044	0.3211	0.4914	0.076
Mof_H 	H 	0.3594	0.2074	0.4915	0.072
Mof_C 	C 	0.5301	0.4245	0.53953	0.091
Mof_H 	H 	0.6188	0.4948	0.5451	-0.026
Mof_C 	C 	0.316	0.2589	0.53701	0.097
Mof_H 	H 	0.2213	0.1839	0.5399	-0.024
Mof_N 	N 	0.3682	0.2939	0.51881	-0.091
Mof_N 	N 	0.5118	0.4	0.51996	-0.095
Mof_N 	N 	0.4106	0.34	0.55089	-0.22
Mof_C 	C 	0.81167	0.44983	0.83322	-0.003
Mof_C 	C 	0.96807	0.57373	0.8322	-0.083
Mof_H 	H 	0.97107	0.65443	0.82473	0.074
Mof_H 	H 	0.02607	0.54073	0.82483	0.063
Mof_C 	C 	0.19677	0.75783	0.87286	0.091
Mof_H 	H 	0.28547	0.82813	0.87843	-0.024
Mof_C 	C 	0.98267	0.59223	0.87034	0.111
Mof_H 	H 	0.88797	0.51723	0.87323	-0.026
Mof_N 	N 	0.03487	0.62723	0.85214	-0.1
Mof_N 	N 	0.17847	0.73333	0.85329	-0.094
Mof_N 	N 	0.07727	0.67333	0.88422	-0.224
Mof_C 	C 	0.47833	0.78317	0.16656	0.003
Mof_C 	C 	0.63473	0.90707	0.16554	-0.104
Mof_H 	H 	0.63773	0.98777	0.15807	0.08
Mof_H 	H 	0.69273	0.87407	0.15817	0.076
Mof_C 	C 	0.86343	0.09117	0.2062	0.09
Mof_H 	H 	0.95213	0.16147	0.21177	-0.022
Mof_C 	C 	0.64933	0.92557	0.20368	0.107
Mof_H 	H 	0.55463	0.85057	0.20657	-0.024
Mof_N 	N 	0.70153	0.96057	0.18548	-0.089
Mof_N 	N 	0.84513	0.06667	0.18663	-0.096
Mof_N 	N 	0.74393	0.00667	0.21756	-0.223
Mof_C 	C 	0.8835	0.0285	0.49989	0.003
Mof_C 	C 	0.7596	0.061	0.49887	-0.116
Mof_H 	H 	0.6789	0.9833	0.4914	0.085
Mof_H 	H 	0.7926	0.152	0.4915	0.078
Mof_C 	C 	0.5755	0.1056	0.53953	0.091
Mof_H 	H 	0.5052	0.124	0.5451	-0.026
Mof_C 	C 	0.7411	0.0571	0.53701	0.096
Mof_H 	H 	0.8161	0.0374	0.5399	-0.022
Mof_N 	N 	0.7061	0.0743	0.51881	-0.09
Mof_N 	N 	0.6	0.1118	0.51996	-0.096
Mof_N 	N 	0.66	0.0706	0.55089	-0.22
Mof_C 	C 	0.55017	0.36183	0.83322	0.002
Mof_C 	C 	0.42627	0.39433	0.8322	-0.104
Mof_H 	H 	0.34557	0.31663	0.82473	0.077
Mof_H 	H 	0.45927	0.48533	0.82483	0.074
Mof_C 	C 	0.24217	0.43893	0.87286	0.091
Mof_H 	H 	0.17187	0.45733	0.87843	-0.027
Mof_C 	C 	0.40777	0.39043	0.87034	0.096
Mof_H 	H 	0.48277	0.37073	0.87323	-0.023
Mof_N 	N 	0.37277	0.40763	0.85214	-0.091
Mof_N 	N 	0.26667	0.44513	0.85329	-0.096
Mof_N 	N 	0.32667	0.40393	0.88422	-0.22
Mof_C 	C 	0.21683	0.69517	0.16656	-0.001
Mof_C 	C 	0.09293	0.72767	0.16554	-0.101
Mof_H 	H 	0.01223	0.64997	0.15807	0.073
Mof_H 	H 	0.12593	0.81867	0.15817	0.073
Mof_C 	C 	0.90883	0.77227	0.2062	0.095
Mof_H 	H 	0.83853	0.79067	0.21177	-0.024
Mof_C 	C 	0.07443	0.72377	0.20368	0.087
Mof_H 	H 	0.14943	0.70407	0.20657	-0.019
Mof_N 	N 	0.03943	0.74097	0.18548	-0.093
Mof_N 	N 	0.93333	0.77847	0.18663	-0.09
Mof_N 	N 	0.99333	0.73727	0.21756	-0.211
Mof_C 	C 	0.9715	0.855	0.49989	0.004
Mof_C 	C 	0.939	0.6986	0.49887	-0.092
Mof_H 	H 	0.0167	0.6956	0.4914	0.07
Mof_H 	H 	0.848	0.6406	0.4915	0.071
Mof_C 	C 	0.8944	0.4699	0.53953	0.092
Mof_H 	H 	0.876	0.3812	0.5451	-0.025
Mof_C 	C 	0.9429	0.684	0.53701	0.099
Mof_H 	H 	0.9626	0.7787	0.5399	-0.021
Mof_N 	N 	0.9257	0.6318	0.51881	-0.091
Mof_N 	N 	0.8882	0.4882	0.51996	-0.094
Mof_N 	N 	0.9294	0.5894	0.55089	-0.22
Mof_C 	C 	0.63817	0.18833	0.83322	0.009
Mof_C 	C 	0.60567	0.03193	0.8322	-0.133
Mof_H 	H 	0.68337	0.02893	0.82473	0.083
Mof_H 	H 	0.51467	0.97393	0.82483	0.089
Mof_C 	C 	0.56107	0.80323	0.87286	0.093
Mof_H 	H 	0.54267	0.71453	0.87843	-0.026
Mof_C 	C 	0.60957	0.01733	0.87034	0.076
Mof_H 	H 	0.62927	0.11203	0.87323	-0.016
Mof_N 	N 	0.59237	0.96513	0.85214	-0.077
Mof_N 	N 	0.55487	0.82153	0.85329	-0.095
Mof_N 	N 	0.59607	0.92273	0.88422	-0.213
Mof_C 	C 	0.30483	0.52167	0.16656	-0.003
Mof_C 	C 	0.27233	0.36527	0.16554	-0.101
Mof_H 	H 	0.35003	0.36227	0.15807	0.076
Mof_H 	H 	0.18133	0.30727	0.15817	0.071
Mof_C 	C 	0.22773	0.13657	0.2062	0.09
Mof_H 	H 	0.20933	0.04787	0.21177	-0.029
Mof_C 	C 	0.27623	0.35067	0.20368	0.096
Mof_H 	H 	0.29593	0.44537	0.20657	-0.022
Mof_N 	N 	0.25903	0.29847	0.18548	-0.091
Mof_N 	N 	0.22153	0.15487	0.18663	-0.097
Mof_N 	N 	0.26273	0.25607	0.21756	-0.22
Mof_C 	C 	0.1165	0.145	0.00011	-0.003
Mof_C 	C 	0.2404	0.3014	0.00113	-0.101
Mof_H 	H 	0.3211	0.3044	0.0086	0.076
Mof_H 	H 	0.2074	0.3594	0.0085	0.072
Mof_C 	C 	0.4245	0.5301	0.96047	0.091
Mof_H 	H 	0.4948	0.6188	0.9549	-0.026
Mof_C 	C 	0.2589	0.316	0.96299	0.097
Mof_H 	H 	0.1839	0.2213	0.9601	-0.024
Mof_N 	N 	0.2939	0.3682	0.98119	-0.091
Mof_N 	N 	0.4	0.5118	0.98004	-0.095
Mof_N 	N 	0.34	0.4106	0.94911	-0.22
Mof_C 	C 	0.78317	0.47833	0.33344	0.003
Mof_C 	C 	0.90707	0.63473	0.33446	-0.104
Mof_H 	H 	0.98777	0.63773	0.34193	0.08
Mof_H 	H 	0.87407	0.69273	0.34183	0.076
Mof_C 	C 	0.09117	0.86343	0.2938	0.09
Mof_H 	H 	0.16147	0.95213	0.28823	-0.022
Mof_C 	C 	0.92557	0.64933	0.29632	0.107
Mof_H 	H 	0.85057	0.55463	0.29343	-0.024
Mof_N 	N 	0.96057	0.70153	0.31452	-0.089
Mof_N 	N 	0.06667	0.84513	0.31337	-0.096
Mof_N 	N 	0.00667	0.74393	0.28244	-0.223
Mof_C 	C 	0.44983	0.81167	0.66678	-0.003
Mof_C 	C 	0.57373	0.96807	0.6678	-0.083
Mof_H 	H 	0.65443	0.97107	0.67527	0.074
Mof_H 	H 	0.54073	0.02607	0.67517	0.063
Mof_C 	C 	0.75783	0.19677	0.62714	0.091
Mof_H 	H 	0.82813	0.28547	0.62157	-0.024
Mof_C 	C 	0.59223	0.98267	0.62966	0.111
Mof_H 	H 	0.51723	0.88797	0.62677	-0.026
Mof_N 	N 	0.62723	0.03487	0.64786	-0.1
Mof_N 	N 	0.73333	0.17847	0.64671	-0.094
Mof_N 	N 	0.67333	0.07727	0.61578	-0.224
Mof_C 	C 	0.0285	0.8835	0.00011	0.003
Mof_C 	C 	0.061	0.7596	0.00113	-0.116
Mof_H 	H 	0.9833	0.6789	0.0086	0.085
Mof_H 	H 	0.152	0.7926	0.0085	0.078
Mof_C 	C 	0.1056	0.5755	0.96047	0.091
Mof_H 	H 	0.124	0.5052	0.9549	-0.026
Mof_C 	C 	0.0571	0.7411	0.96299	0.096
Mof_H 	H 	0.0374	0.8161	0.9601	-0.022
Mof_N 	N 	0.0743	0.7061	0.98119	-0.09
Mof_N 	N 	0.1118	0.6	0.98004	-0.096
Mof_N 	N 	0.0706	0.66	0.94911	-0.22
Mof_C 	C 	0.69517	0.21683	0.33344	-0.001
Mof_C 	C 	0.72767	0.09293	0.33446	-0.101
Mof_H 	H 	0.64997	0.01223	0.34193	0.073
Mof_H 	H 	0.81867	0.12593	0.34183	0.073
Mof_C 	C 	0.77227	0.90883	0.2938	0.095
Mof_H 	H 	0.79067	0.83853	0.28823	-0.024
Mof_C 	C 	0.72377	0.07443	0.29632	0.087
Mof_H 	H 	0.70407	0.14943	0.29343	-0.019
Mof_N 	N 	0.74097	0.03943	0.31452	-0.093
Mof_N 	N 	0.77847	0.93333	0.31337	-0.09
Mof_N 	N 	0.73727	0.99333	0.28244	-0.211
Mof_C 	C 	0.36183	0.55017	0.66678	0.002
Mof_C 	C 	0.39433	0.42627	0.6678	-0.104
Mof_H 	H 	0.31663	0.34557	0.67527	0.077
Mof_H 	H 	0.48533	0.45927	0.67517	0.074
Mof_C 	C 	0.43893	0.24217	0.62714	0.091
Mof_H 	H 	0.45733	0.17187	0.62157	-0.027
Mof_C 	C 	0.39043	0.40777	0.62966	0.096
Mof_H 	H 	0.37073	0.48277	0.62677	-0.023
Mof_N 	N 	0.40763	0.37277	0.64786	-0.091
Mof_N 	N 	0.44513	0.26667	0.64671	-0.096
Mof_N 	N 	0.40393	0.32667	0.61578	-0.22
Mof_C 	C 	0.855	0.9715	0.00011	0.004
Mof_C 	C 	0.6986	0.939	0.00113	-0.092
Mof_H 	H 	0.6956	0.0167	0.0086	0.07
Mof_H 	H 	0.6406	0.848	0.0085	0.071
Mof_C 	C 	0.4699	0.8944	0.96047	0.092
Mof_H 	H 	0.3812	0.876	0.9549	-0.025
Mof_C 	C 	0.684	0.9429	0.96299	0.099
Mof_H 	H 	0.7787	0.9626	0.9601	-0.021
Mof_N 	N 	0.6318	0.9257	0.98119	-0.091
Mof_N 	N 	0.4882	0.8882	0.98004	-0.094
Mof_N 	N 	0.5894	0.9294	0.94911	-0.22
Mof_C 	C 	0.52167	0.30483	0.33344	-0.003
Mof_C 	C 	0.36527	0.27233	0.33446	-0.101
Mof_H 	H 	0.36227	0.35003	0.34193	0.076
Mof_H 	H 	0.30727	0.18133	0.34183	0.071
Mof_C 	C 	0.13657	0.22773	0.2938	0.09
Mof_H 	H 	0.04787	0.20933	0.28823	-0.029
Mof_C 	C 	0.35067	0.27623	0.29632	0.096
Mof_H 	H 	0.44537	0.29593	0.29343	-0.022
Mof_N 	N 	0.29847	0.25903	0.31452	-0.091
Mof_N 	N 	0.15487	0.22153	0.31337	-0.097
Mof_N 	N 	0.25607	0.26273	0.28244	-0.22
Mof_C 	C 	0.18833	0.63817	0.66678	0.009
Mof_C 	C 	0.03193	0.60567	0.6678	-0.133
Mof_H 	H 	0.02893	0.68337	0.67527	0.083
Mof_H 	H 	0.97393	0.51467	0.67517	0.089
Mof_C 	C 	0.80323	0.56107	0.62714	0.093
Mof_H 	H 	0.71453	0.54267	0.62157	-0.026
Mof_C 	C 	0.01733	0.60957	0.62966	0.076
Mof_H 	H 	0.11203	0.62927	0.62677	-0.016
Mof_N 	N 	0.96513	0.59237	0.64786	-0.077
Mof_N 	N 	0.82153	0.55487	0.64671	-0.095
Mof_N 	N 	0.92273	0.59607	0.61578	-0.213
Mof_Ag	Ag	0.59414	0.66667	0.41667	0.436
Mof_Ag	Ag	0.26081	-1.27546e-31	0.75	0.418
Mof_Ag	Ag	0.33333	0.92748	0.41667	0.438
Mof_Ag	Ag	-2.56978e-18	0.26081	0.75	0.418
Mof_Ag	Ag	0.07252	0.40586	0.41667	0.427
Mof_Ag	Ag	0.73919	0.73919	0.75	0.443
Mof_Ag	Ag	0.66667	0.59414	0.08333	0.436
Mof_Ag	Ag	0.92748	0.33333	0.08333	0.438
Mof_Ag	Ag	0.40586	0.07252	0.08333	0.427
Mof_Ag	Ag	0.40586	0.33333	0.58333	0.43
Mof_Ag	Ag	0.66667	0.07252	0.58333	0.431
Mof_Ag	Ag	0.92748	0.59414	0.58333	0.44
Mof_Ag	Ag	0.33333	0.40586	0.91667	0.43
Mof_Ag	Ag	2.30774e-17	0.73919	0.25	0.426
Mof_Ag	Ag	0.07252	0.66667	0.91667	0.431
Mof_Ag	Ag	0.73919	0	0.25	0.426
Mof_Ag	Ag	0.59414	0.92748	0.91667	0.44
Mof_Ag	Ag	0.26081	0.26081	0.25	0.428
_end
