# CIF file generated by openbabel 3.1.0, see https://openbabel.org
data_I
_chemical_name_common 'image0'
_cell_length_a 15.395
_cell_length_b 15.3073
_cell_length_c 18.426
_cell_angle_alpha 90
_cell_angle_beta 90
_cell_angle_gamma 90
_space_group_name_H-M_alt 'P 1'
_space_group_name_Hall 'P 1'
loop_
    _symmetry_equiv_pos_as_xyz
    x,y,z
loop_
    _atom_site_label
    _atom_site_type_symbol
    _atom_site_fract_x
    _atom_site_fract_y
    _atom_site_fract_z
    _atom_site_occupancy
    C1       C        0.85769    0.73390    0.86019    1.000
    H1       H        0.82190    0.78010    0.84480    1.000
    C2       C        0.89910    0.61320    0.90571    1.000
    H2       H        0.89930    0.55800    0.92800    1.000
    C3       C        0.97080    0.65820    0.88370    1.000
    H3       H        0.02870    0.63950    0.88810    1.000
    C4       C        0.69110    0.51370    0.78300    1.000
    H4       H        0.73910    0.53740    0.75830    1.000
    C5       C        0.61980    0.82240    0.89068    1.000
    H5       H        0.63720    0.84540    0.93570    1.000
    C6       C        0.59815    0.73721    0.80184    1.000
    H6       H        0.59770    0.68700    0.77240    1.000
    C7       C        0.60590    0.65399    0.04640    1.000
    H7       H        0.56400    0.68920    0.02360    1.000
    C8       C        0.57600    0.86590    0.83906    1.000
    H8       H        0.55780    0.92450    0.84210    1.000
    C9       C        0.59469    0.48711    0.86161    1.000
    H9       H        0.56190    0.49000    0.90460    1.000
    C10      C        0.63720    0.44990    0.75710    1.000
    H10      H        0.64210    0.42230    0.71170    1.000
    C11      C        0.66510    0.56770    0.12120    1.000
    H11      H        0.67640    0.53380    0.16270    1.000
    C12      C        0.70800    0.56190    0.05700    1.000
    H12      H        0.75320    0.52280    0.04600    1.000
    N1       N        0.82702    0.66148    0.89010    1.000
    N2       N        0.94376    0.73514    0.85396    1.000
    N3       N        0.67417    0.62256    0.01153    1.000
    N4       N        0.66370    0.53685    0.85008    1.000
    N5       N        0.63490    0.73928    0.86682    1.000
    N6       N        0.60088    0.63242    0.11532    1.000
    N7       N        0.56206    0.81197    0.78192    1.000
    N8       N        0.57555    0.43287    0.80772    1.000
    Zn1      Zn       0.70215    0.63949    0.90830    1.000
    Zn2      Zn       0.00963    0.83602    0.81374    1.000
    C13      C        0.72750    0.59510    0.07030    1.000
    H13      H        0.78500    0.57500    0.06610    1.000
    C14      C        0.18300    0.89760    0.86750    1.000
    H14      H        0.20380    0.91060    0.82080    1.000
    C15      C        0.64231    0.26610    0.36019    1.000
    H15      H        0.67810    0.21990    0.34480    1.000
    C16      C        0.60090    0.38680    0.40571    1.000
    H16      H        0.60070    0.44200    0.42800    1.000
    C17      C        0.52920    0.34180    0.38370    1.000
    H17      H        0.47130    0.36050    0.38810    1.000
    C18      C        0.80890    0.48630    0.28300    1.000
    H18      H        0.76090    0.46260    0.25830    1.000
    C19      C        0.88020    0.17760    0.39068    1.000
    H19      H        0.86280    0.15460    0.43570    1.000
    C20      C        0.90185    0.26279    0.30184    1.000
    H20      H        0.90230    0.31300    0.27240    1.000
    C21      C        0.89410    0.34601    0.54640    1.000
    H21      H        0.93600    0.31080    0.52360    1.000
    C22      C        0.92400    0.13410    0.33906    1.000
    H22      H        0.94220    0.07550    0.34210    1.000
    C23      C        0.90531    0.51289    0.36161    1.000
    H23      H        0.93810    0.51000    0.40460    1.000
    C24      C        0.86280    0.55010    0.25710    1.000
    H24      H        0.85790    0.57770    0.21170    1.000
    C25      C        0.83490    0.43230    0.62120    1.000
    H25      H        0.82360    0.46620    0.66270    1.000
    C26      C        0.79200    0.43810    0.55700    1.000
    H26      H        0.74680    0.47720    0.54600    1.000
    N9       N        0.67298    0.33852    0.39010    1.000
    N10      N        0.55624    0.26486    0.35396    1.000
    N11      N        0.82583    0.37744    0.51153    1.000
    N12      N        0.83630    0.46315    0.35008    1.000
    N13      N        0.86510    0.26072    0.36682    1.000
    N14      N        0.89912    0.36758    0.61532    1.000
    N15      N        0.93794    0.18803    0.28192    1.000
    N16      N        0.92445    0.56713    0.30772    1.000
    Zn3      Zn       0.79785    0.36051    0.40830    1.000
    Zn4      Zn       0.49037    0.16398    0.31374    1.000
    C27      C        0.77250    0.40490    0.57030    1.000
    H27      H        0.71500    0.42500    0.56610    1.000
    C28      C        0.31700    0.10240    0.36750    1.000
    H28      H        0.29620    0.08940    0.32080    1.000
    C29      C        0.14231    0.23390    0.63981    1.000
    H29      H        0.17810    0.28010    0.65520    1.000
    C30      C        0.10090    0.11320    0.59429    1.000
    H30      H        0.10070    0.05800    0.57200    1.000
    C31      C        0.02920    0.15820    0.61630    1.000
    H31      H        0.97130    0.13950    0.61190    1.000
    C32      C        0.30890    0.01370    0.71700    1.000
    H32      H        0.26090    0.03740    0.74170    1.000
    C33      C        0.38020    0.32240    0.60932    1.000
    H33      H        0.36280    0.34540    0.56430    1.000
    C34      C        0.40185    0.23721    0.69816    1.000
    H34      H        0.40230    0.18700    0.72760    1.000
    C35      C        0.39410    0.15399    0.45360    1.000
    H35      H        0.43600    0.18920    0.47640    1.000
    C36      C        0.42400    0.36590    0.66094    1.000
    H36      H        0.44220    0.42450    0.65790    1.000
    C37      C        0.40531    0.98711    0.63839    1.000
    H37      H        0.43810    0.99000    0.59540    1.000
    C38      C        0.36280    0.94990    0.74290    1.000
    H38      H        0.35790    0.92230    0.78830    1.000
    C39      C        0.33490    0.06770    0.37880    1.000
    H39      H        0.32360    0.03380    0.33730    1.000
    C40      C        0.29200    0.06190    0.44300    1.000
    H40      H        0.24680    0.02280    0.45400    1.000
    N17      N        0.17298    0.16148    0.60990    1.000
    N18      N        0.05624    0.23514    0.64604    1.000
    N19      N        0.32583    0.12256    0.48847    1.000
    N20      N        0.33630    0.03685    0.64992    1.000
    N21      N        0.36510    0.23928    0.63318    1.000
    N22      N        0.39912    0.13242    0.38468    1.000
    N23      N        0.43794    0.31197    0.71808    1.000
    N24      N        0.42445    0.93287    0.69228    1.000
    Zn5      Zn       0.29785    0.13949    0.59170    1.000
    Zn6      Zn       0.99037    0.33602    0.68626    1.000
    C41      C        0.27250    0.09510    0.42970    1.000
    H41      H        0.21500    0.07500    0.43390    1.000
    C42      C        0.81700    0.39760    0.63250    1.000
    H42      H        0.79620    0.41060    0.67920    1.000
    C43      C        0.35769    0.76610    0.13981    1.000
    H43      H        0.32190    0.71990    0.15520    1.000
    C44      C        0.39910    0.88680    0.09429    1.000
    H44      H        0.39930    0.94200    0.07200    1.000
    C45      C        0.47080    0.84180    0.11630    1.000
    H45      H        0.52870    0.86050    0.11190    1.000
    C46      C        0.19110    0.98630    0.21700    1.000
    H46      H        0.23910    0.96260    0.24170    1.000
    C47      C        0.11980    0.67760    0.10932    1.000
    H47      H        0.13720    0.65460    0.06430    1.000
    C48      C        0.09815    0.76279    0.19816    1.000
    H48      H        0.09770    0.81300    0.22760    1.000
    C49      C        0.10590    0.84601    0.95360    1.000
    H49      H        0.06400    0.81080    0.97640    1.000
    C50      C        0.07600    0.63410    0.16094    1.000
    H50      H        0.05780    0.57550    0.15790    1.000
    C51      C        0.09469    0.01289    0.13839    1.000
    H51      H        0.06190    0.01000    0.09540    1.000
    C52      C        0.13720    0.05010    0.24290    1.000
    H52      H        0.14210    0.07770    0.28830    1.000
    C53      C        0.16510    0.93230    0.87880    1.000
    H53      H        0.17640    0.96620    0.83730    1.000
    C54      C        0.20800    0.93810    0.94300    1.000
    H54      H        0.25320    0.97720    0.95400    1.000
    N25      N        0.32702    0.83852    0.10990    1.000
    N26      N        0.44376    0.76486    0.14604    1.000
    N27      N        0.17417    0.87744    0.98847    1.000
    N28      N        0.16370    0.96315    0.14992    1.000
    N29      N        0.13490    0.76072    0.13318    1.000
    N30      N        0.10088    0.86758    0.88468    1.000
    N31      N        0.06206    0.68803    0.21808    1.000
    N32      N        0.07555    0.06713    0.19228    1.000
    Zn7      Zn       0.20215    0.86051    0.09170    1.000
    Zn8      Zn       0.50963    0.66398    0.18626    1.000
    C55      C        0.22750    0.90490    0.92970    1.000
    H55      H        0.28500    0.92500    0.93390    1.000
    C56      C        0.68300    0.60240    0.13250    1.000
    H56      H        0.70380    0.58940    0.17920    1.000
    C57      C        0.14231    0.26610    0.13981    1.000
    H57      H        0.17810    0.21990    0.15520    1.000
    C58      C        0.10090    0.38680    0.09429    1.000
    H58      H        0.10070    0.44200    0.07200    1.000
    C59      C        0.02920    0.34180    0.11630    1.000
    H59      H        0.97130    0.36050    0.11190    1.000
    C60      C        0.30890    0.48630    0.21700    1.000
    H60      H        0.26090    0.46260    0.24170    1.000
    C61      C        0.38020    0.17760    0.10932    1.000
    H61      H        0.36280    0.15460    0.06430    1.000
    C62      C        0.40185    0.26279    0.19816    1.000
    H62      H        0.40230    0.31300    0.22760    1.000
    C63      C        0.39410    0.34601    0.95360    1.000
    H63      H        0.43600    0.31080    0.97640    1.000
    C64      C        0.42400    0.13410    0.16094    1.000
    H64      H        0.44220    0.07550    0.15790    1.000
    C65      C        0.40531    0.51289    0.13839    1.000
    H65      H        0.43810    0.51000    0.09540    1.000
    C66      C        0.36280    0.55010    0.24290    1.000
    H66      H        0.35790    0.57770    0.28830    1.000
    C67      C        0.33490    0.43230    0.87880    1.000
    H67      H        0.32360    0.46620    0.83730    1.000
    C68      C        0.29200    0.43810    0.94300    1.000
    H68      H        0.24680    0.47720    0.95400    1.000
    N33      N        0.17298    0.33852    0.10990    1.000
    N34      N        0.05624    0.26486    0.14604    1.000
    N35      N        0.32583    0.37744    0.98847    1.000
    N36      N        0.33630    0.46315    0.14992    1.000
    N37      N        0.36510    0.26072    0.13318    1.000
    N38      N        0.39912    0.36758    0.88468    1.000
    N39      N        0.43794    0.18803    0.21808    1.000
    N40      N        0.42445    0.56713    0.19228    1.000
    Zn9      Zn       0.29785    0.36051    0.09170    1.000
    Zn10     Zn       0.99037    0.16398    0.18626    1.000
    C69      C        0.27250    0.40490    0.92970    1.000
    H69      H        0.21500    0.42500    0.93390    1.000
    C70      C        0.81700    0.10240    0.13250    1.000
    H70      H        0.79620    0.08940    0.17920    1.000
    C71      C        0.35769    0.73390    0.63981    1.000
    H71      H        0.32190    0.78010    0.65520    1.000
    C72      C        0.39910    0.61320    0.59429    1.000
    H72      H        0.39930    0.55800    0.57200    1.000
    C73      C        0.47080    0.65820    0.61630    1.000
    H73      H        0.52870    0.63950    0.61190    1.000
    C74      C        0.19110    0.51370    0.71700    1.000
    H74      H        0.23910    0.53740    0.74170    1.000
    C75      C        0.11980    0.82240    0.60932    1.000
    H75      H        0.13720    0.84540    0.56430    1.000
    C76      C        0.09815    0.73721    0.69816    1.000
    H76      H        0.09770    0.68700    0.72760    1.000
    C77      C        0.10590    0.65399    0.45360    1.000
    H77      H        0.06400    0.68920    0.47640    1.000
    C78      C        0.07600    0.86590    0.66094    1.000
    H78      H        0.05780    0.92450    0.65790    1.000
    C79      C        0.09469    0.48711    0.63839    1.000
    H79      H        0.06190    0.49000    0.59540    1.000
    C80      C        0.13720    0.44990    0.74290    1.000
    H80      H        0.14210    0.42230    0.78830    1.000
    C81      C        0.16510    0.56770    0.37880    1.000
    H81      H        0.17640    0.53380    0.33730    1.000
    C82      C        0.20800    0.56190    0.44300    1.000
    H82      H        0.25320    0.52280    0.45400    1.000
    N41      N        0.32702    0.66148    0.60990    1.000
    N42      N        0.44376    0.73514    0.64604    1.000
    N43      N        0.17417    0.62256    0.48847    1.000
    N44      N        0.16370    0.53685    0.64992    1.000
    N45      N        0.13490    0.73928    0.63318    1.000
    N46      N        0.10088    0.63242    0.38468    1.000
    N47      N        0.06206    0.81197    0.71808    1.000
    N48      N        0.07555    0.43287    0.69228    1.000
    Zn11     Zn       0.20215    0.63949    0.59170    1.000
    Zn12     Zn       0.50963    0.83602    0.68626    1.000
    C83      C        0.22750    0.59510    0.42970    1.000
    H83      H        0.28500    0.57500    0.43390    1.000
    C84      C        0.68300    0.89760    0.63250    1.000
    H84      H        0.70380    0.91060    0.67920    1.000
    C85      C        0.85769    0.76610    0.36019    1.000
    H85      H        0.82190    0.71990    0.34480    1.000
    C86      C        0.89910    0.88680    0.40571    1.000
    H86      H        0.89930    0.94200    0.42800    1.000
    C87      C        0.97080    0.84180    0.38370    1.000
    H87      H        0.02870    0.86050    0.38810    1.000
    C88      C        0.69110    0.98630    0.28300    1.000
    H88      H        0.73910    0.96260    0.25830    1.000
    C89      C        0.61980    0.67760    0.39068    1.000
    H89      H        0.63720    0.65460    0.43570    1.000
    C90      C        0.59815    0.76279    0.30184    1.000
    H90      H        0.59770    0.81300    0.27240    1.000
    C91      C        0.60590    0.84601    0.54640    1.000
    H91      H        0.56400    0.81080    0.52360    1.000
    C92      C        0.57600    0.63410    0.33906    1.000
    H92      H        0.55780    0.57550    0.34210    1.000
    C93      C        0.59469    0.01289    0.36161    1.000
    H93      H        0.56190    0.01000    0.40460    1.000
    C94      C        0.63720    0.05010    0.25710    1.000
    H94      H        0.64210    0.07770    0.21170    1.000
    C95      C        0.66510    0.93230    0.62120    1.000
    H95      H        0.67640    0.96620    0.66270    1.000
    C96      C        0.70800    0.93810    0.55700    1.000
    H96      H        0.75320    0.97720    0.54600    1.000
    N49      N        0.82702    0.83852    0.39010    1.000
    N50      N        0.94376    0.76486    0.35396    1.000
    N51      N        0.67417    0.87744    0.51153    1.000
    N52      N        0.66370    0.96315    0.35008    1.000
    N53      N        0.63490    0.76072    0.36682    1.000
    N54      N        0.60088    0.86758    0.61532    1.000
    N55      N        0.56206    0.68803    0.28192    1.000
    N56      N        0.57555    0.06713    0.30772    1.000
    Zn13     Zn       0.70215    0.86051    0.40830    1.000
    Zn14     Zn       0.00963    0.66398    0.31374    1.000
    C97      C        0.72750    0.90490    0.57030    1.000
    H97      H        0.78500    0.92500    0.56610    1.000
    C98      C        0.18300    0.60240    0.36750    1.000
    H98      H        0.20380    0.58940    0.32080    1.000
    C99      C        0.64231    0.23390    0.86019    1.000
    H99      H        0.67810    0.28010    0.84480    1.000
    C100     C        0.60090    0.11320    0.90571    1.000
    H100     H        0.60070    0.05800    0.92800    1.000
    C101     C        0.52920    0.15820    0.88370    1.000
    H101     H        0.47130    0.13950    0.88810    1.000
    C102     C        0.80890    0.01370    0.78300    1.000
    H102     H        0.76090    0.03740    0.75830    1.000
    C103     C        0.88020    0.32240    0.89068    1.000
    H103     H        0.86280    0.34540    0.93570    1.000
    C104     C        0.90185    0.23721    0.80184    1.000
    H104     H        0.90230    0.18700    0.77240    1.000
    C105     C        0.89410    0.15399    0.04640    1.000
    H105     H        0.93600    0.18920    0.02360    1.000
    C106     C        0.92400    0.36590    0.83906    1.000
    H106     H        0.94220    0.42450    0.84210    1.000
    C107     C        0.90531    0.98711    0.86161    1.000
    H107     H        0.93810    0.99000    0.90460    1.000
    C108     C        0.86280    0.94990    0.75710    1.000
    H108     H        0.85790    0.92230    0.71170    1.000
    C109     C        0.83490    0.06770    0.12120    1.000
    H109     H        0.82360    0.03380    0.16270    1.000
    C110     C        0.79200    0.06190    0.05700    1.000
    H110     H        0.74680    0.02280    0.04600    1.000
    N57      N        0.67298    0.16148    0.89010    1.000
    N58      N        0.55624    0.23514    0.85396    1.000
    N59      N        0.82583    0.12256    0.01153    1.000
    N60      N        0.83630    0.03685    0.85008    1.000
    N61      N        0.86510    0.23928    0.86682    1.000
    N62      N        0.89912    0.13242    0.11532    1.000
    N63      N        0.93794    0.31197    0.78192    1.000
    N64      N        0.92445    0.93287    0.80772    1.000
    Zn15     Zn       0.79785    0.13949    0.90830    1.000
    Zn16     Zn       0.49037    0.33602    0.81374    1.000
    C111     C        0.77250    0.09510    0.07030    1.000
    H111     H        0.71500    0.07500    0.06610    1.000
    C112     C        0.31700    0.39760    0.86750    1.000
    H112     H        0.29620    0.41060    0.82080    1.000
