data_functionalizedCrystal
_audit_creation_method	'EQeq! by Chris Wilmer'
_symmetry_space_group_name_H-M	'P1'
_symmetry_Int_Tables_number	1
_symmetry_cell_setting	triclinic
loop_
_symmetry_equiv_pos_as_xyz
  x,y,z
_cell_length_a	6.7474
_cell_length_b	15.0551
_cell_length_c	15.0551
_cell_angle_alpha	62.1912
_cell_angle_beta	81.4082
_cell_angle_gamma	98.5918
loop_
_atom_site_label
_atom_site_type_symbol
_atom_site_fract_x
_atom_site_fract_y
_atom_site_fract_z
_atom_site_charge
Mof_Ni	Ni	0.38325	0.67936	0.58891	1.106
Mof_Ni	Ni	0.97216	0.58891	0.73173	1.105
Mof_Ni	Ni	0.70389	0.73173	0.67936	1.106
Mof_Ni	Ni	0.61675	0.32064	0.41109	1.106
Mof_Ni	Ni	0.02784	0.41109	0.26827	1.105
Mof_Ni	Ni	0.29611	0.26827	0.32064	1.106
Mof_H 	H 	0.69819	0.53715	0.44283	0.069
Mof_H 	H 	0.14102	0.44283	0.02002	0.068
Mof_H 	H 	0.16104	0.02002	0.53715	0.069
Mof_H 	H 	0.30181	0.46285	0.55717	0.069
Mof_H 	H 	0.85898	0.55717	0.97998	0.068
Mof_H 	H 	0.83896	0.97998	0.46285	0.069
Mof_C 	C 	0.7554	0.6058	0.5743	0.416
Mof_C 	C 	0.8874	0.5559	0.5331	-0.183
Mof_C 	C 	0.0762	0.5399	0.5636	0.174
Mof_C 	C 	0.822	0.5235	0.4665	-0.064
Mof_C 	C 	0.3297	0.5743	0.8199	0.415
Mof_C 	C 	0.4205	0.5331	0.911	-0.181
Mof_C 	C 	0.6398	0.5636	0.8965	0.173
Mof_C 	C 	0.2885	0.4665	0.01	-0.064
Mof_C 	C 	0.1496	0.8199	0.6058	0.417
Mof_C 	C 	0.3315	0.911	0.5559	-0.183
Mof_C 	C 	0.5363	0.8965	0.5399	0.174
Mof_C 	C 	0.2985	0.01	0.5235	-0.064
Mof_C 	C 	0.2446	0.3942	0.4257	0.416
Mof_C 	C 	0.1126	0.4441	0.4669	-0.183
Mof_C 	C 	0.9238	0.4601	0.4364	0.174
Mof_C 	C 	0.178	0.4765	0.5335	-0.064
Mof_C 	C 	0.6703	0.4257	0.1801	0.415
Mof_C 	C 	0.5795	0.4669	0.089	-0.181
Mof_C 	C 	0.3602	0.4364	0.1035	0.173
Mof_C 	C 	0.7115	0.5335	0.99	-0.064
Mof_C 	C 	0.8504	0.1801	0.3942	0.417
Mof_C 	C 	0.6685	0.089	0.4441	-0.183
Mof_C 	C 	0.4637	0.1035	0.4601	0.174
Mof_C 	C 	0.7015	0.99	0.4765	-0.064
Mof_O 	O 	0.5961	0.6275	0.5327	-0.427
Mof_O 	O 	0.7862	0.6405	0.6303	-0.597
Mof_O 	O 	0.1345	0.5547	0.6381	-0.494
Mof_O 	O 	0.1288	0.5327	0.8398	-0.426
Mof_O 	O 	0.4165	0.6303	0.7292	-0.596
Mof_O 	O 	0.7726	0.6381	0.8072	-0.495
Mof_O 	O 	0.9686	0.8398	0.6275	-0.428
Mof_O 	O 	0.1457	0.7292	0.6405	-0.596
Mof_O 	O 	0.5798	0.8072	0.5547	-0.494
Mof_O 	O 	0.4039	0.3725	0.4673	-0.427
Mof_O 	O 	0.2138	0.3595	0.3697	-0.597
Mof_O 	O 	0.8655	0.4453	0.3619	-0.494
Mof_O 	O 	0.8712	0.4673	0.1602	-0.426
Mof_O 	O 	0.5835	0.3697	0.2708	-0.596
Mof_O 	O 	0.2274	0.3619	0.1928	-0.495
Mof_O 	O 	0.0314	0.1602	0.3725	-0.428
Mof_O 	O 	0.8543	0.2708	0.3595	-0.596
Mof_O 	O 	0.4202	0.1928	0.4453	-0.494
_end
