data_functionalizedCrystal
_audit_creation_method	'EQeq! by Chris Wilmer'
_symmetry_space_group_name_H-M	'P1'
_symmetry_Int_Tables_number	1
_symmetry_cell_setting	triclinic
loop_
_symmetry_equiv_pos_as_xyz
  x,y,z
_cell_length_a	6.7681
_cell_length_b	30.984
_cell_length_c	30.984
_cell_angle_alpha	90
_cell_angle_beta	90
_cell_angle_gamma	90
loop_
_atom_site_label
_atom_site_type_symbol
_atom_site_fract_x
_atom_site_fract_y
_atom_site_fract_z
_atom_site_charge
Mof_Ag	Ag	0.07533	0.55872	0.52025	0.537
Mof_Ag	Ag	0.63725	0.54329	0.49046	0.551
Mof_Ag	Ag	0.07533	0.94128	0.97975	0.536
Mof_Ag	Ag	0.63725	0.95671	0.00954	0.552
Mof_Ag	Ag	0.42467	0.52025	0.94128	0.535
Mof_Ag	Ag	0.86275	0.49046	0.95671	0.553
Mof_Ag	Ag	0.42467	0.97975	0.55872	0.535
Mof_Ag	Ag	0.86275	0.00954	0.54329	0.552
Mof_H 	H 	0.0503	0.7008	0.4498	-0.022
Mof_H 	H 	0.9524	0.7661	0.4197	0.243
Mof_H 	H 	0.4365	0.7133	0.3844	0.283
Mof_H 	H 	0.5336	0.6488	0.4137	-0.029
Mof_H 	H 	0.6276	0.795	0.4664	0.166
Mof_H 	H 	0.6543	0.8525	0.5132	-0.038
Mof_H 	H 	0.7832	0.9304	0.4138	-0.055
Mof_H 	H 	0.7362	0.8746	0.3665	0.226
Mof_H 	H 	0.0503	0.7992	0.0502	-0.022
Mof_H 	H 	0.9524	0.7339	0.0803	0.243
Mof_H 	H 	0.4365	0.7867	0.1156	0.283
Mof_H 	H 	0.5336	0.8512	0.0863	-0.029
Mof_H 	H 	0.6276	0.705	0.0336	0.166
Mof_H 	H 	0.6543	0.6475	0.9868	-0.038
Mof_H 	H 	0.7832	0.5696	0.0862	-0.055
Mof_H 	H 	0.7362	0.6254	0.1335	0.226
Mof_H 	H 	0.4497	0.4498	0.7992	-0.026
Mof_H 	H 	0.5476	0.4197	0.7339	0.243
Mof_H 	H 	0.0635	0.3844	0.7867	0.274
Mof_H 	H 	0.9664	0.4137	0.8512	-0.024
Mof_H 	H 	0.8724	0.4664	0.705	0.166
Mof_H 	H 	0.8457	0.5132	0.6475	-0.038
Mof_H 	H 	0.7168	0.4138	0.5696	-0.053
Mof_H 	H 	0.7638	0.3665	0.6254	0.227
Mof_H 	H 	0.4497	0.0502	0.7008	-0.026
Mof_H 	H 	0.5476	0.0803	0.7661	0.243
Mof_H 	H 	0.0635	0.1156	0.7133	0.274
Mof_H 	H 	0.9664	0.0863	0.6488	-0.024
Mof_H 	H 	0.8724	0.0336	0.795	0.166
Mof_H 	H 	0.8457	0.9868	0.8525	-0.037
Mof_H 	H 	0.7168	0.0862	0.9304	-0.053
Mof_H 	H 	0.7638	0.1335	0.8746	0.227
Mof_C 	C 	0.8488	0.62519	0.455	0.403
Mof_C 	C 	0.8009	0.66783	0.43506	-0.238
Mof_C 	C 	0.927	0.70324	0.4368	0.262
Mof_C 	C 	0.8674	0.74251	0.41888	-0.345
Mof_C 	C 	0.6816	0.74684	0.39968	0.451
Mof_C 	C 	0.5594	0.71112	0.39769	-0.356
Mof_C 	C 	0.618	0.67239	0.41519	0.298
Mof_C 	C 	0.627	0.79091	0.38021	-0.53
Mof_C 	C 	0.4043	0.7948	0.37076	0.985
Mof_C 	C 	0.7397	0.79409	0.33653	0.974
Mof_C 	C 	0.6768	0.82837	0.41099	0.402
Mof_C 	C 	0.6546	0.82242	0.45563	-0.328
Mof_C 	C 	0.6725	0.85676	0.48379	0.223
Mof_C 	C 	0.7178	0.89781	0.46816	-0.265
Mof_C 	C 	0.7223	0.93535	0.49807	0.373
Mof_C 	C 	0.7467	0.9034	0.42427	0.248
Mof_C 	C 	0.7223	0.8698	0.39596	-0.326
Mof_C 	C 	0.8488	0.87481	0.045	0.403
Mof_C 	C 	0.8009	0.83217	0.06494	-0.237
Mof_C 	C 	0.927	0.79676	0.0632	0.261
Mof_C 	C 	0.8674	0.75749	0.08112	-0.345
Mof_C 	C 	0.6816	0.75316	0.10032	0.451
Mof_C 	C 	0.5594	0.78888	0.10231	-0.355
Mof_C 	C 	0.618	0.82761	0.08481	0.297
Mof_C 	C 	0.627	0.70909	0.11979	-0.53
Mof_C 	C 	0.4043	0.7052	0.12924	0.985
Mof_C 	C 	0.7397	0.70591	0.16347	0.974
Mof_C 	C 	0.6768	0.67163	0.08901	0.402
Mof_C 	C 	0.6546	0.67758	0.04437	-0.328
Mof_C 	C 	0.6725	0.64324	0.01621	0.223
Mof_C 	C 	0.7178	0.60219	0.03184	-0.265
Mof_C 	C 	0.7223	0.56465	0.00193	0.374
Mof_C 	C 	0.7467	0.5966	0.07573	0.248
Mof_C 	C 	0.7223	0.6302	0.10404	-0.326
Mof_C 	C 	0.6512	0.455	0.87481	0.402
Mof_C 	C 	0.6991	0.43506	0.83217	-0.235
Mof_C 	C 	0.573	0.4368	0.79676	0.265
Mof_C 	C 	0.6326	0.41888	0.75749	-0.343
Mof_C 	C 	0.8184	0.39968	0.75316	0.445
Mof_C 	C 	0.9406	0.39769	0.78888	-0.339
Mof_C 	C 	0.882	0.41519	0.82761	0.289
Mof_C 	C 	0.873	0.38021	0.70909	-0.524
Mof_C 	C 	0.0957	0.37076	0.7052	0.979
Mof_C 	C 	0.7603	0.33653	0.70591	0.973
Mof_C 	C 	0.8232	0.41099	0.67163	0.401
Mof_C 	C 	0.8454	0.45563	0.67758	-0.326
Mof_C 	C 	0.8275	0.48379	0.64324	0.222
Mof_C 	C 	0.7822	0.46816	0.60219	-0.263
Mof_C 	C 	0.7777	0.49807	0.56465	0.373
Mof_C 	C 	0.7533	0.42427	0.5966	0.247
Mof_C 	C 	0.7777	0.39596	0.6302	-0.323
Mof_C 	C 	0.6512	0.045	0.62519	0.402
Mof_C 	C 	0.6991	0.06494	0.66783	-0.235
Mof_C 	C 	0.573	0.0632	0.70324	0.265
Mof_C 	C 	0.6326	0.08112	0.74251	-0.343
Mof_C 	C 	0.8184	0.10032	0.74684	0.445
Mof_C 	C 	0.9406	0.10231	0.71112	-0.34
Mof_C 	C 	0.882	0.08481	0.67239	0.29
Mof_C 	C 	0.873	0.11979	0.79091	-0.524
Mof_C 	C 	0.0957	0.12924	0.7948	0.979
Mof_C 	C 	0.7603	0.16347	0.79409	0.973
Mof_C 	C 	0.8232	0.08901	0.82837	0.401
Mof_C 	C 	0.8454	0.04437	0.82242	-0.325
Mof_C 	C 	0.8275	0.01621	0.85676	0.222
Mof_C 	C 	0.7822	0.03184	0.89781	-0.263
Mof_C 	C 	0.7777	0.00193	0.93535	0.373
Mof_C 	C 	0.7533	0.07573	0.9034	0.247
Mof_C 	C 	0.7777	0.10404	0.8698	-0.323
Mof_O 	O 	0.738	0.59388	0.445	-0.361
Mof_O 	O 	0.9905	0.62195	0.48104	-0.364
Mof_O 	O 	0.6651	0.93077	0.53607	-0.404
Mof_O 	O 	0.785	0.97173	0.48256	-0.479
Mof_O 	O 	0.738	0.90612	0.055	-0.361
Mof_O 	O 	0.9905	0.87805	0.01896	-0.364
Mof_O 	O 	0.6651	0.56923	0.96393	-0.404
Mof_O 	O 	0.785	0.52827	0.01744	-0.479
Mof_O 	O 	0.762	0.445	0.90612	-0.36
Mof_O 	O 	0.5095	0.48104	0.87805	-0.363
Mof_O 	O 	0.8349	0.53607	0.56923	-0.404
Mof_O 	O 	0.715	0.48256	0.52827	-0.478
Mof_O 	O 	0.762	0.055	0.59388	-0.36
Mof_O 	O 	0.5095	0.01896	0.62195	-0.363
Mof_O 	O 	0.8349	0.96393	0.93077	-0.404
Mof_O 	O 	0.715	0.01744	0.97173	-0.478
Mof_F 	F 	0.3438	0.76977	0.33836	-0.363
Mof_F 	F 	0.2988	0.78386	0.40572	-0.513
Mof_F 	F 	0.3514	0.83504	0.36056	-0.449
Mof_F 	F 	0.7283	0.75751	0.31445	-0.343
Mof_F 	F 	0.9303	0.80296	0.34286	-0.422
Mof_F 	F 	0.6671	0.82549	0.31085	-0.401
Mof_F 	F 	0.3438	0.73023	0.16164	-0.363
Mof_F 	F 	0.2988	0.71614	0.09428	-0.513
Mof_F 	F 	0.3514	0.66496	0.13944	-0.449
Mof_F 	F 	0.7283	0.74249	0.18555	-0.343
Mof_F 	F 	0.9303	0.69704	0.15714	-0.422
Mof_F 	F 	0.6671	0.67451	0.18915	-0.401
Mof_F 	F 	0.1562	0.33836	0.73023	-0.364
Mof_F 	F 	0.2012	0.40572	0.71614	-0.514
Mof_F 	F 	0.1486	0.36056	0.66496	-0.45
Mof_F 	F 	0.7717	0.31445	0.74249	-0.341
Mof_F 	F 	0.5697	0.34286	0.69704	-0.42
Mof_F 	F 	0.8329	0.31085	0.67451	-0.4
Mof_F 	F 	0.1562	0.16164	0.76977	-0.364
Mof_F 	F 	0.2012	0.09428	0.78386	-0.514
Mof_F 	F 	0.1486	0.13944	0.83504	-0.45
Mof_F 	F 	0.7717	0.18555	0.75751	-0.341
Mof_F 	F 	0.5697	0.15714	0.80296	-0.42
Mof_F 	F 	0.8329	0.18915	0.82549	-0.4
Mof_Ag	Ag	0.57533	0.47975	0.05872	0.535
Mof_Ag	Ag	0.13725	0.50954	0.04328	0.553
Mof_Ag	Ag	0.57533	0.02025	0.44128	0.535
Mof_Ag	Ag	0.13725	0.99046	0.45671	0.552
Mof_Ag	Ag	0.92467	0.44128	0.47975	0.536
Mof_Ag	Ag	0.36275	0.45671	0.50954	0.55
Mof_Ag	Ag	0.92467	0.05872	0.02025	0.535
Mof_Ag	Ag	0.36275	0.04328	0.99046	0.551
Mof_H 	H 	0.5503	0.5502	0.2008	-0.026
Mof_H 	H 	0.4524	0.5803	0.2661	0.243
Mof_H 	H 	0.9365	0.6156	0.2133	0.274
Mof_H 	H 	0.0336	0.5863	0.1488	-0.024
Mof_H 	H 	0.1276	0.5336	0.295	0.166
Mof_H 	H 	0.1543	0.4868	0.3525	-0.038
Mof_H 	H 	0.2832	0.5862	0.4304	-0.053
Mof_H 	H 	0.2362	0.6335	0.3746	0.227
Mof_H 	H 	0.5503	0.9498	0.2992	-0.026
Mof_H 	H 	0.4524	0.9197	0.2339	0.243
Mof_H 	H 	0.9365	0.8844	0.2867	0.274
Mof_H 	H 	0.0336	0.9137	0.3512	-0.024
Mof_H 	H 	0.1276	0.9664	0.205	0.166
Mof_H 	H 	0.1543	0.0132	0.1475	-0.037
Mof_H 	H 	0.2832	0.9138	0.0696	-0.053
Mof_H 	H 	0.2362	0.8665	0.1254	0.227
Mof_H 	H 	0.9497	0.2992	0.5502	-0.022
Mof_H 	H 	0.0476	0.2339	0.5803	0.243
Mof_H 	H 	0.5635	0.2867	0.6156	0.283
Mof_H 	H 	0.4664	0.3512	0.5863	-0.029
Mof_H 	H 	0.3724	0.205	0.5336	0.166
Mof_H 	H 	0.3457	0.1475	0.4868	-0.038
Mof_H 	H 	0.2168	0.0696	0.5862	-0.055
Mof_H 	H 	0.2638	0.1254	0.6335	0.226
Mof_H 	H 	0.9497	0.2008	0.9498	-0.022
Mof_H 	H 	0.0476	0.2661	0.9197	0.243
Mof_H 	H 	0.5635	0.2133	0.8844	0.283
Mof_H 	H 	0.4664	0.1488	0.9137	-0.029
Mof_H 	H 	0.3724	0.295	0.9664	0.166
Mof_H 	H 	0.3457	0.3525	0.0132	-0.038
Mof_H 	H 	0.2168	0.4304	0.9138	-0.055
Mof_H 	H 	0.2638	0.3746	0.8665	0.226
Mof_C 	C 	0.3488	0.545	0.12519	0.402
Mof_C 	C 	0.3009	0.56494	0.16783	-0.235
Mof_C 	C 	0.427	0.5632	0.20324	0.265
Mof_C 	C 	0.3674	0.58112	0.24251	-0.343
Mof_C 	C 	0.1816	0.60032	0.24684	0.445
Mof_C 	C 	0.0594	0.60231	0.21112	-0.339
Mof_C 	C 	0.118	0.58481	0.17239	0.289
Mof_C 	C 	0.127	0.61979	0.29091	-0.524
Mof_C 	C 	0.9043	0.62924	0.2948	0.979
Mof_C 	C 	0.2397	0.66347	0.29409	0.973
Mof_C 	C 	0.1768	0.58901	0.32837	0.401
Mof_C 	C 	0.1546	0.54437	0.32242	-0.326
Mof_C 	C 	0.1725	0.51621	0.35676	0.222
Mof_C 	C 	0.2178	0.53184	0.39781	-0.263
Mof_C 	C 	0.2223	0.50193	0.43535	0.373
Mof_C 	C 	0.2467	0.57573	0.4034	0.247
Mof_C 	C 	0.2223	0.60404	0.3698	-0.323
Mof_C 	C 	0.3488	0.955	0.37481	0.402
Mof_C 	C 	0.3009	0.93506	0.33217	-0.235
Mof_C 	C 	0.427	0.9368	0.29676	0.265
Mof_C 	C 	0.3674	0.91888	0.25749	-0.343
Mof_C 	C 	0.1816	0.89968	0.25316	0.445
Mof_C 	C 	0.0594	0.89769	0.28888	-0.34
Mof_C 	C 	0.118	0.91519	0.32761	0.29
Mof_C 	C 	0.127	0.88021	0.20909	-0.524
Mof_C 	C 	0.9043	0.87076	0.2052	0.979
Mof_C 	C 	0.2397	0.83653	0.20591	0.973
Mof_C 	C 	0.1768	0.91099	0.17163	0.401
Mof_C 	C 	0.1546	0.95563	0.17758	-0.325
Mof_C 	C 	0.1725	0.98379	0.14324	0.222
Mof_C 	C 	0.2178	0.96816	0.10219	-0.263
Mof_C 	C 	0.2223	0.99807	0.06465	0.373
Mof_C 	C 	0.2467	0.92427	0.0966	0.247
Mof_C 	C 	0.2223	0.89596	0.1302	-0.323
Mof_C 	C 	0.1512	0.37481	0.545	0.403
Mof_C 	C 	0.1991	0.33217	0.56494	-0.238
Mof_C 	C 	0.073	0.29676	0.5632	0.262
Mof_C 	C 	0.1326	0.25749	0.58112	-0.345
Mof_C 	C 	0.3184	0.25316	0.60032	0.451
Mof_C 	C 	0.4406	0.28888	0.60231	-0.356
Mof_C 	C 	0.382	0.32761	0.58481	0.298
Mof_C 	C 	0.373	0.20909	0.61979	-0.53
Mof_C 	C 	0.5957	0.2052	0.62924	0.985
Mof_C 	C 	0.2603	0.20591	0.66347	0.974
Mof_C 	C 	0.3232	0.17163	0.58901	0.402
Mof_C 	C 	0.3454	0.17758	0.54437	-0.328
Mof_C 	C 	0.3275	0.14324	0.51621	0.223
Mof_C 	C 	0.2822	0.10219	0.53184	-0.265
Mof_C 	C 	0.2777	0.06465	0.50193	0.373
Mof_C 	C 	0.2533	0.0966	0.57573	0.248
Mof_C 	C 	0.2777	0.1302	0.60404	-0.326
Mof_C 	C 	0.1512	0.12519	0.955	0.403
Mof_C 	C 	0.1991	0.16783	0.93506	-0.237
Mof_C 	C 	0.073	0.20324	0.9368	0.261
Mof_C 	C 	0.1326	0.24251	0.91888	-0.345
Mof_C 	C 	0.3184	0.24684	0.89968	0.451
Mof_C 	C 	0.4406	0.21112	0.89769	-0.355
Mof_C 	C 	0.382	0.17239	0.91519	0.297
Mof_C 	C 	0.373	0.29091	0.88021	-0.53
Mof_C 	C 	0.5957	0.2948	0.87076	0.985
Mof_C 	C 	0.2603	0.29409	0.83653	0.974
Mof_C 	C 	0.3232	0.32837	0.91099	0.402
Mof_C 	C 	0.3454	0.32242	0.95563	-0.328
Mof_C 	C 	0.3275	0.35676	0.98379	0.223
Mof_C 	C 	0.2822	0.39781	0.96816	-0.265
Mof_C 	C 	0.2777	0.43535	0.99807	0.374
Mof_C 	C 	0.2533	0.4034	0.92427	0.248
Mof_C 	C 	0.2777	0.3698	0.89596	-0.326
Mof_O 	O 	0.238	0.555	0.09388	-0.36
Mof_O 	O 	0.4905	0.51896	0.12195	-0.363
Mof_O 	O 	0.1651	0.46393	0.43077	-0.404
Mof_O 	O 	0.285	0.51744	0.47173	-0.478
Mof_O 	O 	0.238	0.945	0.40612	-0.36
Mof_O 	O 	0.4905	0.98104	0.37805	-0.363
Mof_O 	O 	0.1651	0.03607	0.06923	-0.404
Mof_O 	O 	0.285	0.98256	0.02827	-0.478
Mof_O 	O 	0.262	0.40612	0.555	-0.361
Mof_O 	O 	0.0095	0.37805	0.51896	-0.364
Mof_O 	O 	0.3349	0.06923	0.46393	-0.404
Mof_O 	O 	0.215	0.02827	0.51744	-0.479
Mof_O 	O 	0.262	0.09388	0.945	-0.361
Mof_O 	O 	0.0095	0.12195	0.98104	-0.364
Mof_O 	O 	0.3349	0.43077	0.03607	-0.404
Mof_O 	O 	0.215	0.47173	0.98256	-0.479
Mof_F 	F 	0.8438	0.66164	0.26977	-0.364
Mof_F 	F 	0.7988	0.59428	0.28386	-0.514
Mof_F 	F 	0.8514	0.63944	0.33504	-0.45
Mof_F 	F 	0.2283	0.68555	0.25751	-0.341
Mof_F 	F 	0.4303	0.65714	0.30296	-0.42
Mof_F 	F 	0.1671	0.68915	0.32549	-0.4
Mof_F 	F 	0.8438	0.83836	0.23023	-0.364
Mof_F 	F 	0.7988	0.90572	0.21614	-0.514
Mof_F 	F 	0.8514	0.86056	0.16496	-0.45
Mof_F 	F 	0.2283	0.81445	0.24249	-0.341
Mof_F 	F 	0.4303	0.84286	0.19704	-0.42
Mof_F 	F 	0.1671	0.81085	0.17451	-0.4
Mof_F 	F 	0.6562	0.23023	0.66164	-0.363
Mof_F 	F 	0.7012	0.21614	0.59428	-0.513
Mof_F 	F 	0.6486	0.16496	0.63944	-0.449
Mof_F 	F 	0.2717	0.24249	0.68555	-0.343
Mof_F 	F 	0.0697	0.19704	0.65714	-0.422
Mof_F 	F 	0.3329	0.17451	0.68915	-0.401
Mof_F 	F 	0.6562	0.26977	0.83836	-0.363
Mof_F 	F 	0.7012	0.28386	0.90572	-0.513
Mof_F 	F 	0.6486	0.33504	0.86056	-0.449
Mof_F 	F 	0.2717	0.25751	0.81445	-0.343
Mof_F 	F 	0.0697	0.30296	0.84286	-0.422
Mof_F 	F 	0.3329	0.32549	0.81085	-0.401
_end
