# CIF file generated by openbabel 3.1.0, see https://openbabel.org
data_I
_chemical_name_common 'IYIHUU_manual'
_cell_length_a 22.212
_cell_length_b 31.832
_cell_length_c 32.448
_cell_angle_alpha 90
_cell_angle_beta 101.594
_cell_angle_gamma 90
_space_group_name_H-M_alt 'P 1'
_space_group_name_Hall 'P 1'
loop_
    _symmetry_equiv_pos_as_xyz
    x,y,z
loop_
    _atom_site_label
    _atom_site_type_symbol
    _atom_site_fract_x
    _atom_site_fract_y
    _atom_site_fract_z
    _atom_site_occupancy
    Zn1      Zn       0.01348    0.25000    0.29630    1.000
    Zn2      Zn       0.48652    0.25000    0.20370    1.000
    H3       H        0.13863    0.35267    0.32006    1.000
    H4       H        0.20404    0.41697    0.31981    1.000
    H5       H        0.16366    0.41475    0.18245    1.000
    H6       H        0.10196    0.35086    0.18254    1.000
    H7       H        0.36137    0.35267    0.17994    1.000
    H8       H        0.29596    0.41697    0.18019    1.000
    H9       H        0.33634    0.41475    0.31755    1.000
    H10      H        0.39826    0.35055    0.31725    1.000
    H11      H        0.36137    0.14733    0.17994    1.000
    H12      H        0.29596    0.08303    0.18019    1.000
    H13      H        0.33634    0.08525    0.31755    1.000
    H14      H        0.39826    0.14945    0.31725    1.000
    H15      H        0.13863    0.14733    0.32006    1.000
    H16      H        0.20404    0.08303    0.31981    1.000
    H17      H        0.16366    0.08525    0.18245    1.000
    H18      H        0.10196    0.14914    0.18254    1.000
    H19      H        0.42693    0.25000    0.35025    1.000
    H20      H        0.42783    0.25000    0.42938    1.000
    H21      H        0.12133    0.25000    0.37507    1.000
    H22      H        0.08152    0.25000    0.01286    1.000
    H23      H        0.07307    0.25000    0.14975    1.000
    H24      H        0.07217    0.25000    0.07062    1.000
    H25      H        0.37867    0.25000    0.12493    1.000
    H26      H        0.41848    0.25000    0.48714    1.000
    C27      C        0.07760    0.30835    0.25215    1.000
    C28      C        0.11970    0.34725    0.25195    1.000
    C29      C        0.14545    0.36645    0.28890    1.000
    C30      C        0.17970    0.40245    0.28880    1.000
    C31      C        0.18440    0.42095    0.25070    1.000
    C32      C        0.15800    0.40115    0.21395    1.000
    C33      C        0.12510    0.36565    0.21370    1.000
    C34      C        0.22005    0.46125    0.25155    1.000
    C35      C        0.42240    0.30835    0.24785    1.000
    C36      C        0.38030    0.34725    0.24805    1.000
    C37      C        0.35455    0.36645    0.21110    1.000
    C38      C        0.32030    0.40245    0.21120    1.000
    C39      C        0.31560    0.42095    0.24930    1.000
    C40      C        0.34200    0.40115    0.28605    1.000
    C41      C        0.37490    0.36565    0.28630    1.000
    C42      C        0.27995    0.46125    0.24845    1.000
    C43      C        0.42240    0.19165    0.24785    1.000
    C44      C        0.38030    0.15275    0.24805    1.000
    C45      C        0.35455    0.13355    0.21110    1.000
    C46      C        0.32030    0.09755    0.21120    1.000
    C47      C        0.31560    0.07905    0.24930    1.000
    C48      C        0.34200    0.09885    0.28605    1.000
    C49      C        0.37490    0.13435    0.28630    1.000
    C50      C        0.27995    0.03875    0.24845    1.000
    C51      C        0.07760    0.19165    0.25215    1.000
    C52      C        0.11970    0.15275    0.25195    1.000
    C53      C        0.14545    0.13355    0.28890    1.000
    C54      C        0.17970    0.09755    0.28880    1.000
    C55      C        0.18440    0.07905    0.25070    1.000
    C56      C        0.15800    0.09885    0.21395    1.000
    C57      C        0.12510    0.13435    0.21370    1.000
    C58      C        0.22005    0.03875    0.25155    1.000
    C59      C        0.18905    0.00000    0.25160    1.000
    C60      C        0.31095    0.00000    0.24840    1.000
    C61      C        0.47250    0.25000    0.37385    1.000
    C62      C        0.47300    0.25000    0.41780    1.000
    C63      C        0.02630    0.25000    0.44830    1.000
    C64      C        0.07950    0.25000    0.43150    1.000
    C65      C        0.07700    0.25000    0.38770    1.000
    C66      C        0.03350    0.25000    0.49220    1.000
    C67      C        0.13700    0.25000    0.45850    1.000
    C68      C        0.19000    0.25000    0.47700    1.000
    C69      C        0.02750    0.25000    0.12615    1.000
    C70      C        0.02700    0.25000    0.08220    1.000
    C71      C        0.47370    0.25000    0.05170    1.000
    C72      C        0.42050    0.25000    0.06850    1.000
    C73      C        0.42300    0.25000    0.11230    1.000
    C74      C        0.46650    0.25000    0.00780    1.000
    C75      C        0.36300    0.25000    0.04150    1.000
    C76      C        0.31000    0.25000    0.02300    1.000
    Br77     Br       0.10355    0.00000    0.25180    1.000
    Br78     Br       0.39645    0.00000    0.24820    1.000
    N79      N        0.02610    0.25000    0.35605    1.000
    N80      N        0.47390    0.25000    0.14395    1.000
    O81      O        0.07385    0.29520    0.28695    1.000
    O82      O        0.05345    0.29490    0.21755    1.000
    O83      O        0.42615    0.29520    0.21305    1.000
    O84      O        0.44655    0.29490    0.28245    1.000
    O85      O        0.42615    0.20480    0.21305    1.000
    O86      O        0.44655    0.20510    0.28245    1.000
    O87      O        0.07385    0.20480    0.28695    1.000
    O88      O        0.05345    0.20510    0.21755    1.000
    Zn89     Zn       0.51348    0.25000    0.29630    1.000
    Zn90     Zn       0.98652    0.25000    0.20370    1.000
    H91      H        0.63863    0.35267    0.32006    1.000
    H92      H        0.70404    0.41697    0.31981    1.000
    H93      H        0.66366    0.41475    0.18245    1.000
    H94      H        0.60196    0.35086    0.18254    1.000
    H95      H        0.86137    0.35267    0.17994    1.000
    H96      H        0.79596    0.41697    0.18019    1.000
    H97      H        0.83634    0.41475    0.31755    1.000
    H98      H        0.89826    0.35055    0.31725    1.000
    H99      H        0.86137    0.14733    0.17994    1.000
    H100     H        0.79596    0.08303    0.18019    1.000
    H101     H        0.83634    0.08525    0.31755    1.000
    H102     H        0.89826    0.14945    0.31725    1.000
    H103     H        0.63863    0.14733    0.32006    1.000
    H104     H        0.70404    0.08303    0.31981    1.000
    H105     H        0.66366    0.08525    0.18245    1.000
    H106     H        0.60196    0.14914    0.18254    1.000
    H107     H        0.92693    0.25000    0.35025    1.000
    H108     H        0.92783    0.25000    0.42938    1.000
    H109     H        0.62133    0.25000    0.37507    1.000
    H110     H        0.58152    0.25000    0.01286    1.000
    H111     H        0.57307    0.25000    0.14975    1.000
    H112     H        0.57217    0.25000    0.07062    1.000
    H113     H        0.87867    0.25000    0.12493    1.000
    H114     H        0.91848    0.25000    0.48714    1.000
    C115     C        0.57760    0.30835    0.25215    1.000
    C116     C        0.61970    0.34725    0.25195    1.000
    C117     C        0.64545    0.36645    0.28890    1.000
    C118     C        0.67970    0.40245    0.28880    1.000
    C119     C        0.68440    0.42095    0.25070    1.000
    C120     C        0.65800    0.40115    0.21395    1.000
    C121     C        0.62510    0.36565    0.21370    1.000
    C122     C        0.72005    0.46125    0.25155    1.000
    C123     C        0.92240    0.30835    0.24785    1.000
    C124     C        0.88030    0.34725    0.24805    1.000
    C125     C        0.85455    0.36645    0.21110    1.000
    C126     C        0.82030    0.40245    0.21120    1.000
    C127     C        0.81560    0.42095    0.24930    1.000
    C128     C        0.84200    0.40115    0.28605    1.000
    C129     C        0.87490    0.36565    0.28630    1.000
    C130     C        0.77995    0.46125    0.24845    1.000
    C131     C        0.92240    0.19165    0.24785    1.000
    C132     C        0.88030    0.15275    0.24805    1.000
    C133     C        0.85455    0.13355    0.21110    1.000
    C134     C        0.82030    0.09755    0.21120    1.000
    C135     C        0.81560    0.07905    0.24930    1.000
    C136     C        0.84200    0.09885    0.28605    1.000
    C137     C        0.87490    0.13435    0.28630    1.000
    C138     C        0.77995    0.03875    0.24845    1.000
    C139     C        0.57760    0.19165    0.25215    1.000
    C140     C        0.61970    0.15275    0.25195    1.000
    C141     C        0.64545    0.13355    0.28890    1.000
    C142     C        0.67970    0.09755    0.28880    1.000
    C143     C        0.68440    0.07905    0.25070    1.000
    C144     C        0.65800    0.09885    0.21395    1.000
    C145     C        0.62510    0.13435    0.21370    1.000
    C146     C        0.72005    0.03875    0.25155    1.000
    C147     C        0.68905    0.00000    0.25160    1.000
    C148     C        0.81095    0.00000    0.24840    1.000
    C149     C        0.97250    0.25000    0.37385    1.000
    C150     C        0.97300    0.25000    0.41780    1.000
    C151     C        0.52630    0.25000    0.44830    1.000
    C152     C        0.57950    0.25000    0.43150    1.000
    C153     C        0.57700    0.25000    0.38770    1.000
    C154     C        0.53350    0.25000    0.49220    1.000
    C155     C        0.63700    0.25000    0.45850    1.000
    C156     C        0.69000    0.25000    0.47700    1.000
    C157     C        0.52750    0.25000    0.12615    1.000
    C158     C        0.52700    0.25000    0.08220    1.000
    C159     C        0.97370    0.25000    0.05170    1.000
    C160     C        0.92050    0.25000    0.06850    1.000
    C161     C        0.92300    0.25000    0.11230    1.000
    C162     C        0.96650    0.25000    0.00780    1.000
    C163     C        0.86300    0.25000    0.04150    1.000
    C164     C        0.81000    0.25000    0.02300    1.000
    Br165    Br       0.60355    0.00000    0.25180    1.000
    Br166    Br       0.89645    0.00000    0.24820    1.000
    N167     N        0.52610    0.25000    0.35605    1.000
    N168     N        0.97390    0.25000    0.14395    1.000
    O169     O        0.57385    0.29520    0.28695    1.000
    O170     O        0.55345    0.29490    0.21755    1.000
    O171     O        0.92615    0.29520    0.21305    1.000
    O172     O        0.94655    0.29490    0.28245    1.000
    O173     O        0.92615    0.20480    0.21305    1.000
    O174     O        0.94655    0.20510    0.28245    1.000
    O175     O        0.57385    0.20480    0.28695    1.000
    O176     O        0.55345    0.20510    0.21755    1.000
    Zn177    Zn       0.01348    0.75000    0.29630    1.000
    Zn178    Zn       0.48652    0.75000    0.20370    1.000
    H179     H        0.13863    0.85267    0.32006    1.000
    H180     H        0.20404    0.91697    0.31981    1.000
    H181     H        0.16366    0.91475    0.18245    1.000
    H182     H        0.10196    0.85086    0.18254    1.000
    H183     H        0.36137    0.85267    0.17994    1.000
    H184     H        0.29596    0.91697    0.18019    1.000
    H185     H        0.33634    0.91475    0.31755    1.000
    H186     H        0.39826    0.85055    0.31725    1.000
    H187     H        0.36137    0.64733    0.17994    1.000
    H188     H        0.29596    0.58303    0.18019    1.000
    H189     H        0.33634    0.58525    0.31755    1.000
    H190     H        0.39826    0.64945    0.31725    1.000
    H191     H        0.13863    0.64733    0.32006    1.000
    H192     H        0.20404    0.58303    0.31981    1.000
    H193     H        0.16366    0.58525    0.18245    1.000
    H194     H        0.10196    0.64914    0.18254    1.000
    H195     H        0.42693    0.75000    0.35025    1.000
    H196     H        0.42783    0.75000    0.42938    1.000
    H197     H        0.12133    0.75000    0.37507    1.000
    H198     H        0.08152    0.75000    0.01286    1.000
    H199     H        0.07307    0.75000    0.14975    1.000
    H200     H        0.07217    0.75000    0.07062    1.000
    H201     H        0.37867    0.75000    0.12493    1.000
    H202     H        0.41848    0.75000    0.48714    1.000
    C203     C        0.07760    0.80835    0.25215    1.000
    C204     C        0.11970    0.84725    0.25195    1.000
    C205     C        0.14545    0.86645    0.28890    1.000
    C206     C        0.17970    0.90245    0.28880    1.000
    C207     C        0.18440    0.92095    0.25070    1.000
    C208     C        0.15800    0.90115    0.21395    1.000
    C209     C        0.12510    0.86565    0.21370    1.000
    C210     C        0.22005    0.96125    0.25155    1.000
    C211     C        0.42240    0.80835    0.24785    1.000
    C212     C        0.38030    0.84725    0.24805    1.000
    C213     C        0.35455    0.86645    0.21110    1.000
    C214     C        0.32030    0.90245    0.21120    1.000
    C215     C        0.31560    0.92095    0.24930    1.000
    C216     C        0.34200    0.90115    0.28605    1.000
    C217     C        0.37490    0.86565    0.28630    1.000
    C218     C        0.27995    0.96125    0.24845    1.000
    C219     C        0.42240    0.69165    0.24785    1.000
    C220     C        0.38030    0.65275    0.24805    1.000
    C221     C        0.35455    0.63355    0.21110    1.000
    C222     C        0.32030    0.59755    0.21120    1.000
    C223     C        0.31560    0.57905    0.24930    1.000
    C224     C        0.34200    0.59885    0.28605    1.000
    C225     C        0.37490    0.63435    0.28630    1.000
    C226     C        0.27995    0.53875    0.24845    1.000
    C227     C        0.07760    0.69165    0.25215    1.000
    C228     C        0.11970    0.65275    0.25195    1.000
    C229     C        0.14545    0.63355    0.28890    1.000
    C230     C        0.17970    0.59755    0.28880    1.000
    C231     C        0.18440    0.57905    0.25070    1.000
    C232     C        0.15800    0.59885    0.21395    1.000
    C233     C        0.12510    0.63435    0.21370    1.000
    C234     C        0.22005    0.53875    0.25155    1.000
    C235     C        0.18905    0.50000    0.25160    1.000
    C236     C        0.31095    0.50000    0.24840    1.000
    C237     C        0.47250    0.75000    0.37385    1.000
    C238     C        0.47300    0.75000    0.41780    1.000
    C239     C        0.02630    0.75000    0.44830    1.000
    C240     C        0.07950    0.75000    0.43150    1.000
    C241     C        0.07700    0.75000    0.38770    1.000
    C242     C        0.03350    0.75000    0.49220    1.000
    C243     C        0.13700    0.75000    0.45850    1.000
    C244     C        0.19000    0.75000    0.47700    1.000
    C245     C        0.02750    0.75000    0.12615    1.000
    C246     C        0.02700    0.75000    0.08220    1.000
    C247     C        0.47370    0.75000    0.05170    1.000
    C248     C        0.42050    0.75000    0.06850    1.000
    C249     C        0.42300    0.75000    0.11230    1.000
    C250     C        0.46650    0.75000    0.00780    1.000
    C251     C        0.36300    0.75000    0.04150    1.000
    C252     C        0.31000    0.75000    0.02300    1.000
    Br253    Br       0.10355    0.50000    0.25180    1.000
    Br254    Br       0.39645    0.50000    0.24820    1.000
    N255     N        0.02610    0.75000    0.35605    1.000
    N256     N        0.47390    0.75000    0.14395    1.000
    O257     O        0.07385    0.79520    0.28695    1.000
    O258     O        0.05345    0.79490    0.21755    1.000
    O259     O        0.42615    0.79520    0.21305    1.000
    O260     O        0.44655    0.79490    0.28245    1.000
    O261     O        0.42615    0.70480    0.21305    1.000
    O262     O        0.44655    0.70510    0.28245    1.000
    O263     O        0.07385    0.70480    0.28695    1.000
    O264     O        0.05345    0.70510    0.21755    1.000
    Zn265    Zn       0.51348    0.75000    0.29630    1.000
    Zn266    Zn       0.98652    0.75000    0.20370    1.000
    H267     H        0.63863    0.85267    0.32006    1.000
    H268     H        0.70404    0.91697    0.31981    1.000
    H269     H        0.66366    0.91475    0.18245    1.000
    H270     H        0.60196    0.85086    0.18254    1.000
    H271     H        0.86137    0.85267    0.17994    1.000
    H272     H        0.79596    0.91697    0.18019    1.000
    H273     H        0.83634    0.91475    0.31755    1.000
    H274     H        0.89826    0.85055    0.31725    1.000
    H275     H        0.86137    0.64733    0.17994    1.000
    H276     H        0.79596    0.58303    0.18019    1.000
    H277     H        0.83634    0.58525    0.31755    1.000
    H278     H        0.89826    0.64945    0.31725    1.000
    H279     H        0.63863    0.64733    0.32006    1.000
    H280     H        0.70404    0.58303    0.31981    1.000
    H281     H        0.66366    0.58525    0.18245    1.000
    H282     H        0.60196    0.64914    0.18254    1.000
    H283     H        0.92693    0.75000    0.35025    1.000
    H284     H        0.92783    0.75000    0.42938    1.000
    H285     H        0.62133    0.75000    0.37507    1.000
    H286     H        0.58152    0.75000    0.01286    1.000
    H287     H        0.57307    0.75000    0.14975    1.000
    H288     H        0.57217    0.75000    0.07062    1.000
    H289     H        0.87867    0.75000    0.12493    1.000
    H290     H        0.91848    0.75000    0.48714    1.000
    C291     C        0.57760    0.80835    0.25215    1.000
    C292     C        0.61970    0.84725    0.25195    1.000
    C293     C        0.64545    0.86645    0.28890    1.000
    C294     C        0.67970    0.90245    0.28880    1.000
    C295     C        0.68440    0.92095    0.25070    1.000
    C296     C        0.65800    0.90115    0.21395    1.000
    C297     C        0.62510    0.86565    0.21370    1.000
    C298     C        0.72005    0.96125    0.25155    1.000
    C299     C        0.92240    0.80835    0.24785    1.000
    C300     C        0.88030    0.84725    0.24805    1.000
    C301     C        0.85455    0.86645    0.21110    1.000
    C302     C        0.82030    0.90245    0.21120    1.000
    C303     C        0.81560    0.92095    0.24930    1.000
    C304     C        0.84200    0.90115    0.28605    1.000
    C305     C        0.87490    0.86565    0.28630    1.000
    C306     C        0.77995    0.96125    0.24845    1.000
    C307     C        0.92240    0.69165    0.24785    1.000
    C308     C        0.88030    0.65275    0.24805    1.000
    C309     C        0.85455    0.63355    0.21110    1.000
    C310     C        0.82030    0.59755    0.21120    1.000
    C311     C        0.81560    0.57905    0.24930    1.000
    C312     C        0.84200    0.59885    0.28605    1.000
    C313     C        0.87490    0.63435    0.28630    1.000
    C314     C        0.77995    0.53875    0.24845    1.000
    C315     C        0.57760    0.69165    0.25215    1.000
    C316     C        0.61970    0.65275    0.25195    1.000
    C317     C        0.64545    0.63355    0.28890    1.000
    C318     C        0.67970    0.59755    0.28880    1.000
    C319     C        0.68440    0.57905    0.25070    1.000
    C320     C        0.65800    0.59885    0.21395    1.000
    C321     C        0.62510    0.63435    0.21370    1.000
    C322     C        0.72005    0.53875    0.25155    1.000
    C323     C        0.68905    0.50000    0.25160    1.000
    C324     C        0.81095    0.50000    0.24840    1.000
    C325     C        0.97250    0.75000    0.37385    1.000
    C326     C        0.97300    0.75000    0.41780    1.000
    C327     C        0.52630    0.75000    0.44830    1.000
    C328     C        0.57950    0.75000    0.43150    1.000
    C329     C        0.57700    0.75000    0.38770    1.000
    C330     C        0.53350    0.75000    0.49220    1.000
    C331     C        0.63700    0.75000    0.45850    1.000
    C332     C        0.69000    0.75000    0.47700    1.000
    C333     C        0.52750    0.75000    0.12615    1.000
    C334     C        0.52700    0.75000    0.08220    1.000
    C335     C        0.97370    0.75000    0.05170    1.000
    C336     C        0.92050    0.75000    0.06850    1.000
    C337     C        0.92300    0.75000    0.11230    1.000
    C338     C        0.96650    0.75000    0.00780    1.000
    C339     C        0.86300    0.75000    0.04150    1.000
    C340     C        0.81000    0.75000    0.02300    1.000
    Br341    Br       0.60355    0.50000    0.25180    1.000
    Br342    Br       0.89645    0.50000    0.24820    1.000
    N343     N        0.52610    0.75000    0.35605    1.000
    N344     N        0.97390    0.75000    0.14395    1.000
    O345     O        0.57385    0.79520    0.28695    1.000
    O346     O        0.55345    0.79490    0.21755    1.000
    O347     O        0.92615    0.79520    0.21305    1.000
    O348     O        0.94655    0.79490    0.28245    1.000
    O349     O        0.92615    0.70480    0.21305    1.000
    O350     O        0.94655    0.70510    0.28245    1.000
    O351     O        0.57385    0.70480    0.28695    1.000
    O352     O        0.55345    0.70510    0.21755    1.000
    Zn353    Zn       0.01348    0.25000    0.79630    1.000
    Zn354    Zn       0.48652    0.25000    0.70370    1.000
    H355     H        0.13863    0.35267    0.82006    1.000
    H356     H        0.20404    0.41697    0.81981    1.000
    H357     H        0.16366    0.41475    0.68245    1.000
    H358     H        0.10196    0.35086    0.68254    1.000
    H359     H        0.36137    0.35267    0.67994    1.000
    H360     H        0.29596    0.41697    0.68019    1.000
    H361     H        0.33634    0.41475    0.81755    1.000
    H362     H        0.39826    0.35055    0.81725    1.000
    H363     H        0.36137    0.14733    0.67994    1.000
    H364     H        0.29596    0.08303    0.68019    1.000
    H365     H        0.33634    0.08525    0.81755    1.000
    H366     H        0.39826    0.14945    0.81725    1.000
    H367     H        0.13863    0.14733    0.82006    1.000
    H368     H        0.20404    0.08303    0.81981    1.000
    H369     H        0.16366    0.08525    0.68245    1.000
    H370     H        0.10196    0.14914    0.68254    1.000
    H371     H        0.42693    0.25000    0.85025    1.000
    H372     H        0.42783    0.25000    0.92938    1.000
    H373     H        0.12133    0.25000    0.87507    1.000
    H374     H        0.08152    0.25000    0.51286    1.000
    H375     H        0.07307    0.25000    0.64975    1.000
    H376     H        0.07217    0.25000    0.57062    1.000
    H377     H        0.37867    0.25000    0.62493    1.000
    H378     H        0.41848    0.25000    0.98714    1.000
    C379     C        0.07760    0.30835    0.75215    1.000
    C380     C        0.11970    0.34725    0.75195    1.000
    C381     C        0.14545    0.36645    0.78890    1.000
    C382     C        0.17970    0.40245    0.78880    1.000
    C383     C        0.18440    0.42095    0.75070    1.000
    C384     C        0.15800    0.40115    0.71395    1.000
    C385     C        0.12510    0.36565    0.71370    1.000
    C386     C        0.22005    0.46125    0.75155    1.000
    C387     C        0.42240    0.30835    0.74785    1.000
    C388     C        0.38030    0.34725    0.74805    1.000
    C389     C        0.35455    0.36645    0.71110    1.000
    C390     C        0.32030    0.40245    0.71120    1.000
    C391     C        0.31560    0.42095    0.74930    1.000
    C392     C        0.34200    0.40115    0.78605    1.000
    C393     C        0.37490    0.36565    0.78630    1.000
    C394     C        0.27995    0.46125    0.74845    1.000
    C395     C        0.42240    0.19165    0.74785    1.000
    C396     C        0.38030    0.15275    0.74805    1.000
    C397     C        0.35455    0.13355    0.71110    1.000
    C398     C        0.32030    0.09755    0.71120    1.000
    C399     C        0.31560    0.07905    0.74930    1.000
    C400     C        0.34200    0.09885    0.78605    1.000
    C401     C        0.37490    0.13435    0.78630    1.000
    C402     C        0.27995    0.03875    0.74845    1.000
    C403     C        0.07760    0.19165    0.75215    1.000
    C404     C        0.11970    0.15275    0.75195    1.000
    C405     C        0.14545    0.13355    0.78890    1.000
    C406     C        0.17970    0.09755    0.78880    1.000
    C407     C        0.18440    0.07905    0.75070    1.000
    C408     C        0.15800    0.09885    0.71395    1.000
    C409     C        0.12510    0.13435    0.71370    1.000
    C410     C        0.22005    0.03875    0.75155    1.000
    C411     C        0.18905    0.00000    0.75160    1.000
    C412     C        0.31095    0.00000    0.74840    1.000
    C413     C        0.47250    0.25000    0.87385    1.000
    C414     C        0.47300    0.25000    0.91780    1.000
    C415     C        0.02630    0.25000    0.94830    1.000
    C416     C        0.07950    0.25000    0.93150    1.000
    C417     C        0.07700    0.25000    0.88770    1.000
    C418     C        0.03350    0.25000    0.99220    1.000
    C419     C        0.13700    0.25000    0.95850    1.000
    C420     C        0.19000    0.25000    0.97700    1.000
    C421     C        0.02750    0.25000    0.62615    1.000
    C422     C        0.02700    0.25000    0.58220    1.000
    C423     C        0.47370    0.25000    0.55170    1.000
    C424     C        0.42050    0.25000    0.56850    1.000
    C425     C        0.42300    0.25000    0.61230    1.000
    C426     C        0.46650    0.25000    0.50780    1.000
    C427     C        0.36300    0.25000    0.54150    1.000
    C428     C        0.31000    0.25000    0.52300    1.000
    Br429    Br       0.10355    0.00000    0.75180    1.000
    Br430    Br       0.39645    0.00000    0.74820    1.000
    N431     N        0.02610    0.25000    0.85605    1.000
    N432     N        0.47390    0.25000    0.64395    1.000
    O433     O        0.07385    0.29520    0.78695    1.000
    O434     O        0.05345    0.29490    0.71755    1.000
    O435     O        0.42615    0.29520    0.71305    1.000
    O436     O        0.44655    0.29490    0.78245    1.000
    O437     O        0.42615    0.20480    0.71305    1.000
    O438     O        0.44655    0.20510    0.78245    1.000
    O439     O        0.07385    0.20480    0.78695    1.000
    O440     O        0.05345    0.20510    0.71755    1.000
    Zn441    Zn       0.51348    0.25000    0.79630    1.000
    Zn442    Zn       0.98652    0.25000    0.70370    1.000
    H443     H        0.63863    0.35267    0.82006    1.000
    H444     H        0.70404    0.41697    0.81981    1.000
    H445     H        0.66366    0.41475    0.68245    1.000
    H446     H        0.60196    0.35086    0.68254    1.000
    H447     H        0.86137    0.35267    0.67994    1.000
    H448     H        0.79596    0.41697    0.68019    1.000
    H449     H        0.83634    0.41475    0.81755    1.000
    H450     H        0.89826    0.35055    0.81725    1.000
    H451     H        0.86137    0.14733    0.67994    1.000
    H452     H        0.79596    0.08303    0.68019    1.000
    H453     H        0.83634    0.08525    0.81755    1.000
    H454     H        0.89826    0.14945    0.81725    1.000
    H455     H        0.63863    0.14733    0.82006    1.000
    H456     H        0.70404    0.08303    0.81981    1.000
    H457     H        0.66366    0.08525    0.68245    1.000
    H458     H        0.60196    0.14914    0.68254    1.000
    H459     H        0.92693    0.25000    0.85025    1.000
    H460     H        0.92783    0.25000    0.92938    1.000
    H461     H        0.62133    0.25000    0.87507    1.000
    H462     H        0.58152    0.25000    0.51286    1.000
    H463     H        0.57307    0.25000    0.64975    1.000
    H464     H        0.57217    0.25000    0.57062    1.000
    H465     H        0.87867    0.25000    0.62493    1.000
    H466     H        0.91848    0.25000    0.98714    1.000
    C467     C        0.57760    0.30835    0.75215    1.000
    C468     C        0.61970    0.34725    0.75195    1.000
    C469     C        0.64545    0.36645    0.78890    1.000
    C470     C        0.67970    0.40245    0.78880    1.000
    C471     C        0.68440    0.42095    0.75070    1.000
    C472     C        0.65800    0.40115    0.71395    1.000
    C473     C        0.62510    0.36565    0.71370    1.000
    C474     C        0.72005    0.46125    0.75155    1.000
    C475     C        0.92240    0.30835    0.74785    1.000
    C476     C        0.88030    0.34725    0.74805    1.000
    C477     C        0.85455    0.36645    0.71110    1.000
    C478     C        0.82030    0.40245    0.71120    1.000
    C479     C        0.81560    0.42095    0.74930    1.000
    C480     C        0.84200    0.40115    0.78605    1.000
    C481     C        0.87490    0.36565    0.78630    1.000
    C482     C        0.77995    0.46125    0.74845    1.000
    C483     C        0.92240    0.19165    0.74785    1.000
    C484     C        0.88030    0.15275    0.74805    1.000
    C485     C        0.85455    0.13355    0.71110    1.000
    C486     C        0.82030    0.09755    0.71120    1.000
    C487     C        0.81560    0.07905    0.74930    1.000
    C488     C        0.84200    0.09885    0.78605    1.000
    C489     C        0.87490    0.13435    0.78630    1.000
    C490     C        0.77995    0.03875    0.74845    1.000
    C491     C        0.57760    0.19165    0.75215    1.000
    C492     C        0.61970    0.15275    0.75195    1.000
    C493     C        0.64545    0.13355    0.78890    1.000
    C494     C        0.67970    0.09755    0.78880    1.000
    C495     C        0.68440    0.07905    0.75070    1.000
    C496     C        0.65800    0.09885    0.71395    1.000
    C497     C        0.62510    0.13435    0.71370    1.000
    C498     C        0.72005    0.03875    0.75155    1.000
    C499     C        0.68905    0.00000    0.75160    1.000
    C500     C        0.81095    0.00000    0.74840    1.000
    C501     C        0.97250    0.25000    0.87385    1.000
    C502     C        0.97300    0.25000    0.91780    1.000
    C503     C        0.52630    0.25000    0.94830    1.000
    C504     C        0.57950    0.25000    0.93150    1.000
    C505     C        0.57700    0.25000    0.88770    1.000
    C506     C        0.53350    0.25000    0.99220    1.000
    C507     C        0.63700    0.25000    0.95850    1.000
    C508     C        0.69000    0.25000    0.97700    1.000
    C509     C        0.52750    0.25000    0.62615    1.000
    C510     C        0.52700    0.25000    0.58220    1.000
    C511     C        0.97370    0.25000    0.55170    1.000
    C512     C        0.92050    0.25000    0.56850    1.000
    C513     C        0.92300    0.25000    0.61230    1.000
    C514     C        0.96650    0.25000    0.50780    1.000
    C515     C        0.86300    0.25000    0.54150    1.000
    C516     C        0.81000    0.25000    0.52300    1.000
    Br517    Br       0.60355    0.00000    0.75180    1.000
    Br518    Br       0.89645    0.00000    0.74820    1.000
    N519     N        0.52610    0.25000    0.85605    1.000
    N520     N        0.97390    0.25000    0.64395    1.000
    O521     O        0.57385    0.29520    0.78695    1.000
    O522     O        0.55345    0.29490    0.71755    1.000
    O523     O        0.92615    0.29520    0.71305    1.000
    O524     O        0.94655    0.29490    0.78245    1.000
    O525     O        0.92615    0.20480    0.71305    1.000
    O526     O        0.94655    0.20510    0.78245    1.000
    O527     O        0.57385    0.20480    0.78695    1.000
    O528     O        0.55345    0.20510    0.71755    1.000
    Zn529    Zn       0.01348    0.75000    0.79630    1.000
    Zn530    Zn       0.48652    0.75000    0.70370    1.000
    H531     H        0.13863    0.85267    0.82006    1.000
    H532     H        0.20404    0.91697    0.81981    1.000
    H533     H        0.16366    0.91475    0.68245    1.000
    H534     H        0.10196    0.85086    0.68254    1.000
    H535     H        0.36137    0.85267    0.67994    1.000
    H536     H        0.29596    0.91697    0.68019    1.000
    H537     H        0.33634    0.91475    0.81755    1.000
    H538     H        0.39826    0.85055    0.81725    1.000
    H539     H        0.36137    0.64733    0.67994    1.000
    H540     H        0.29596    0.58303    0.68019    1.000
    H541     H        0.33634    0.58525    0.81755    1.000
    H542     H        0.39826    0.64945    0.81725    1.000
    H543     H        0.13863    0.64733    0.82006    1.000
    H544     H        0.20404    0.58303    0.81981    1.000
    H545     H        0.16366    0.58525    0.68245    1.000
    H546     H        0.10196    0.64914    0.68254    1.000
    H547     H        0.42693    0.75000    0.85025    1.000
    H548     H        0.42783    0.75000    0.92938    1.000
    H549     H        0.12133    0.75000    0.87507    1.000
    H550     H        0.08152    0.75000    0.51286    1.000
    H551     H        0.07307    0.75000    0.64975    1.000
    H552     H        0.07217    0.75000    0.57062    1.000
    H553     H        0.37867    0.75000    0.62493    1.000
    H554     H        0.41848    0.75000    0.98714    1.000
    C555     C        0.07760    0.80835    0.75215    1.000
    C556     C        0.11970    0.84725    0.75195    1.000
    C557     C        0.14545    0.86645    0.78890    1.000
    C558     C        0.17970    0.90245    0.78880    1.000
    C559     C        0.18440    0.92095    0.75070    1.000
    C560     C        0.15800    0.90115    0.71395    1.000
    C561     C        0.12510    0.86565    0.71370    1.000
    C562     C        0.22005    0.96125    0.75155    1.000
    C563     C        0.42240    0.80835    0.74785    1.000
    C564     C        0.38030    0.84725    0.74805    1.000
    C565     C        0.35455    0.86645    0.71110    1.000
    C566     C        0.32030    0.90245    0.71120    1.000
    C567     C        0.31560    0.92095    0.74930    1.000
    C568     C        0.34200    0.90115    0.78605    1.000
    C569     C        0.37490    0.86565    0.78630    1.000
    C570     C        0.27995    0.96125    0.74845    1.000
    C571     C        0.42240    0.69165    0.74785    1.000
    C572     C        0.38030    0.65275    0.74805    1.000
    C573     C        0.35455    0.63355    0.71110    1.000
    C574     C        0.32030    0.59755    0.71120    1.000
    C575     C        0.31560    0.57905    0.74930    1.000
    C576     C        0.34200    0.59885    0.78605    1.000
    C577     C        0.37490    0.63435    0.78630    1.000
    C578     C        0.27995    0.53875    0.74845    1.000
    C579     C        0.07760    0.69165    0.75215    1.000
    C580     C        0.11970    0.65275    0.75195    1.000
    C581     C        0.14545    0.63355    0.78890    1.000
    C582     C        0.17970    0.59755    0.78880    1.000
    C583     C        0.18440    0.57905    0.75070    1.000
    C584     C        0.15800    0.59885    0.71395    1.000
    C585     C        0.12510    0.63435    0.71370    1.000
    C586     C        0.22005    0.53875    0.75155    1.000
    C587     C        0.18905    0.50000    0.75160    1.000
    C588     C        0.31095    0.50000    0.74840    1.000
    C589     C        0.47250    0.75000    0.87385    1.000
    C590     C        0.47300    0.75000    0.91780    1.000
    C591     C        0.02630    0.75000    0.94830    1.000
    C592     C        0.07950    0.75000    0.93150    1.000
    C593     C        0.07700    0.75000    0.88770    1.000
    C594     C        0.03350    0.75000    0.99220    1.000
    C595     C        0.13700    0.75000    0.95850    1.000
    C596     C        0.19000    0.75000    0.97700    1.000
    C597     C        0.02750    0.75000    0.62615    1.000
    C598     C        0.02700    0.75000    0.58220    1.000
    C599     C        0.47370    0.75000    0.55170    1.000
    C600     C        0.42050    0.75000    0.56850    1.000
    C601     C        0.42300    0.75000    0.61230    1.000
    C602     C        0.46650    0.75000    0.50780    1.000
    C603     C        0.36300    0.75000    0.54150    1.000
    C604     C        0.31000    0.75000    0.52300    1.000
    Br605    Br       0.10355    0.50000    0.75180    1.000
    Br606    Br       0.39645    0.50000    0.74820    1.000
    N607     N        0.02610    0.75000    0.85605    1.000
    N608     N        0.47390    0.75000    0.64395    1.000
    O609     O        0.07385    0.79520    0.78695    1.000
    O610     O        0.05345    0.79490    0.71755    1.000
    O611     O        0.42615    0.79520    0.71305    1.000
    O612     O        0.44655    0.79490    0.78245    1.000
    O613     O        0.42615    0.70480    0.71305    1.000
    O614     O        0.44655    0.70510    0.78245    1.000
    O615     O        0.07385    0.70480    0.78695    1.000
    O616     O        0.05345    0.70510    0.71755    1.000
    Zn617    Zn       0.51348    0.75000    0.79630    1.000
    Zn618    Zn       0.98652    0.75000    0.70370    1.000
    H619     H        0.63863    0.85267    0.82006    1.000
    H620     H        0.70404    0.91697    0.81981    1.000
    H621     H        0.66366    0.91475    0.68245    1.000
    H622     H        0.60196    0.85086    0.68254    1.000
    H623     H        0.86137    0.85267    0.67994    1.000
    H624     H        0.79596    0.91697    0.68019    1.000
    H625     H        0.83634    0.91475    0.81755    1.000
    H626     H        0.89826    0.85055    0.81725    1.000
    H627     H        0.86137    0.64733    0.67994    1.000
    H628     H        0.79596    0.58303    0.68019    1.000
    H629     H        0.83634    0.58525    0.81755    1.000
    H630     H        0.89826    0.64945    0.81725    1.000
    H631     H        0.63863    0.64733    0.82006    1.000
    H632     H        0.70404    0.58303    0.81981    1.000
    H633     H        0.66366    0.58525    0.68245    1.000
    H634     H        0.60196    0.64914    0.68254    1.000
    H635     H        0.92693    0.75000    0.85025    1.000
    H636     H        0.92783    0.75000    0.92938    1.000
    H637     H        0.62133    0.75000    0.87507    1.000
    H638     H        0.58152    0.75000    0.51286    1.000
    H639     H        0.57307    0.75000    0.64975    1.000
    H640     H        0.57217    0.75000    0.57062    1.000
    H641     H        0.87867    0.75000    0.62493    1.000
    H642     H        0.91848    0.75000    0.98714    1.000
    C643     C        0.57760    0.80835    0.75215    1.000
    C644     C        0.61970    0.84725    0.75195    1.000
    C645     C        0.64545    0.86645    0.78890    1.000
    C646     C        0.67970    0.90245    0.78880    1.000
    C647     C        0.68440    0.92095    0.75070    1.000
    C648     C        0.65800    0.90115    0.71395    1.000
    C649     C        0.62510    0.86565    0.71370    1.000
    C650     C        0.72005    0.96125    0.75155    1.000
    C651     C        0.92240    0.80835    0.74785    1.000
    C652     C        0.88030    0.84725    0.74805    1.000
    C653     C        0.85455    0.86645    0.71110    1.000
    C654     C        0.82030    0.90245    0.71120    1.000
    C655     C        0.81560    0.92095    0.74930    1.000
    C656     C        0.84200    0.90115    0.78605    1.000
    C657     C        0.87490    0.86565    0.78630    1.000
    C658     C        0.77995    0.96125    0.74845    1.000
    C659     C        0.92240    0.69165    0.74785    1.000
    C660     C        0.88030    0.65275    0.74805    1.000
    C661     C        0.85455    0.63355    0.71110    1.000
    C662     C        0.82030    0.59755    0.71120    1.000
    C663     C        0.81560    0.57905    0.74930    1.000
    C664     C        0.84200    0.59885    0.78605    1.000
    C665     C        0.87490    0.63435    0.78630    1.000
    C666     C        0.77995    0.53875    0.74845    1.000
    C667     C        0.57760    0.69165    0.75215    1.000
    C668     C        0.61970    0.65275    0.75195    1.000
    C669     C        0.64545    0.63355    0.78890    1.000
    C670     C        0.67970    0.59755    0.78880    1.000
    C671     C        0.68440    0.57905    0.75070    1.000
    C672     C        0.65800    0.59885    0.71395    1.000
    C673     C        0.62510    0.63435    0.71370    1.000
    C674     C        0.72005    0.53875    0.75155    1.000
    C675     C        0.68905    0.50000    0.75160    1.000
    C676     C        0.81095    0.50000    0.74840    1.000
    C677     C        0.97250    0.75000    0.87385    1.000
    C678     C        0.97300    0.75000    0.91780    1.000
    C679     C        0.52630    0.75000    0.94830    1.000
    C680     C        0.57950    0.75000    0.93150    1.000
    C681     C        0.57700    0.75000    0.88770    1.000
    C682     C        0.53350    0.75000    0.99220    1.000
    C683     C        0.63700    0.75000    0.95850    1.000
    C684     C        0.69000    0.75000    0.97700    1.000
    C685     C        0.52750    0.75000    0.62615    1.000
    C686     C        0.52700    0.75000    0.58220    1.000
    C687     C        0.97370    0.75000    0.55170    1.000
    C688     C        0.92050    0.75000    0.56850    1.000
    C689     C        0.92300    0.75000    0.61230    1.000
    C690     C        0.96650    0.75000    0.50780    1.000
    C691     C        0.86300    0.75000    0.54150    1.000
    C692     C        0.81000    0.75000    0.52300    1.000
    Br693    Br       0.60355    0.50000    0.75180    1.000
    Br694    Br       0.89645    0.50000    0.74820    1.000
    N695     N        0.52610    0.75000    0.85605    1.000
    N696     N        0.97390    0.75000    0.64395    1.000
    O697     O        0.57385    0.79520    0.78695    1.000
    O698     O        0.55345    0.79490    0.71755    1.000
    O699     O        0.92615    0.79520    0.71305    1.000
    O700     O        0.94655    0.79490    0.78245    1.000
    O701     O        0.92615    0.70480    0.71305    1.000
    O702     O        0.94655    0.70510    0.78245    1.000
    O703     O        0.57385    0.70480    0.78695    1.000
    O704     O        0.55345    0.70510    0.71755    1.000
    H705     H        0.23997    0.25000    0.49444    1.000
    H706     H        0.26003    0.25000    0.00556    1.000
    H707     H        0.73997    0.25000    0.49444    1.000
    H708     H        0.76003    0.25000    0.00556    1.000
    H709     H        0.23997    0.75000    0.49444    1.000
    H710     H        0.26003    0.75000    0.00556    1.000
    H711     H        0.73997    0.75000    0.49444    1.000
    H712     H        0.76003    0.75000    0.00556    1.000
    H713     H        0.23997    0.25000    0.99444    1.000
    H714     H        0.26003    0.25000    0.50556    1.000
    H715     H        0.73997    0.25000    0.99444    1.000
    H716     H        0.76003    0.25000    0.50556    1.000
    H717     H        0.23997    0.75000    0.99444    1.000
    H718     H        0.26003    0.75000    0.50556    1.000
    H719     H        0.73997    0.75000    0.99444    1.000
    H720     H        0.76003    0.75000    0.50556    1.000
