# CIF file generated by openbabel 3.1.0, see https://openbabel.org
data_I
_chemical_name_common 'image0'
_cell_length_a 15.5244
_cell_length_b 16.3987
_cell_length_c 12.6433
_cell_angle_alpha 90
_cell_angle_beta 93.075
_cell_angle_gamma 90
_space_group_name_H-M_alt 'P 1'
_space_group_name_Hall 'P 1'
loop_
    _symmetry_equiv_pos_as_xyz
    x,y,z
loop_
    _atom_site_label
    _atom_site_type_symbol
    _atom_site_fract_x
    _atom_site_fract_y
    _atom_site_fract_z
    _atom_site_occupancy
    Eu1      Eu       0.12197    0.18899    0.91147    1.000
    S1       S        0.10725    0.21920    0.66703    1.000
    S2       S        0.18365    0.34951    0.07570    1.000
    O1       O        0.05450    0.06220    0.90110    1.000
    O2       O        0.10310    0.14140    0.72790    1.000
    O3       O        0.08630    0.14320    0.07660    1.000
    O4       O        0.02420    0.23380    0.60850    1.000
    O5       O        0.12670    0.32110    0.98880    1.000
    O6       O        0.12200    0.28240    0.74950    1.000
    O7       O        0.07490    0.04120    0.18420    1.000
    O8       O        0.17670    0.21820    0.59620    1.000
    O9       O        0.25480    0.40010    0.04080    1.000
    C1       C        0.06480    0.07340    0.09520    1.000
    O10      O        0.13150    0.38890    0.15260    1.000
    O11      O        0.22780    0.27740    0.12280    1.000
    C2       C        0.03680    0.02200    0.99690    1.000
    H1       H        0.08060    0.97890    0.99970    1.000
    Eu2      Eu       0.62197    0.68899    0.91147    1.000
    S3       S        0.60725    0.71920    0.66703    1.000
    S4       S        0.68365    0.84951    0.07570    1.000
    O12      O        0.55450    0.56220    0.90110    1.000
    O13      O        0.60310    0.64140    0.72790    1.000
    O14      O        0.58630    0.64320    0.07660    1.000
    O15      O        0.52420    0.73380    0.60850    1.000
    O16      O        0.62670    0.82110    0.98880    1.000
    O17      O        0.62200    0.78240    0.74950    1.000
    O18      O        0.57490    0.54120    0.18420    1.000
    O19      O        0.67670    0.71820    0.59620    1.000
    O20      O        0.75480    0.90010    0.04080    1.000
    C3       C        0.56480    0.57340    0.09520    1.000
    O21      O        0.63150    0.88890    0.15260    1.000
    O22      O        0.72780    0.77740    0.12280    1.000
    C4       C        0.53680    0.52200    0.99690    1.000
    H2       H        0.58060    0.47890    0.99970    1.000
    Eu3      Eu       0.87803    0.18899    0.58853    1.000
    S5       S        0.89275    0.21920    0.83297    1.000
    S6       S        0.81635    0.34951    0.42430    1.000
    O23      O        0.94550    0.06220    0.59890    1.000
    O24      O        0.89690    0.14140    0.77210    1.000
    O25      O        0.91370    0.14320    0.42340    1.000
    O26      O        0.97580    0.23380    0.89150    1.000
    O27      O        0.87330    0.32110    0.51120    1.000
    O28      O        0.87800    0.28240    0.75050    1.000
    O29      O        0.92510    0.04120    0.31580    1.000
    O30      O        0.82330    0.21820    0.90380    1.000
    O31      O        0.74520    0.40010    0.45920    1.000
    C5       C        0.93520    0.07340    0.40480    1.000
    O32      O        0.86850    0.38890    0.34740    1.000
    O33      O        0.77220    0.27740    0.37720    1.000
    C6       C        0.96320    0.02200    0.50310    1.000
    H3       H        0.91940    0.97890    0.50030    1.000
    Eu4      Eu       0.37803    0.68899    0.58853    1.000
    S7       S        0.39275    0.71920    0.83297    1.000
    S8       S        0.31635    0.84951    0.42430    1.000
    O34      O        0.44550    0.56220    0.59890    1.000
    O35      O        0.39690    0.64140    0.77210    1.000
    O36      O        0.41370    0.64320    0.42340    1.000
    O37      O        0.47580    0.73380    0.89150    1.000
    O38      O        0.37330    0.82110    0.51120    1.000
    O39      O        0.37800    0.78240    0.75050    1.000
    O40      O        0.42510    0.54120    0.31580    1.000
    O41      O        0.32330    0.71820    0.90380    1.000
    O42      O        0.24520    0.90010    0.45920    1.000
    C7       C        0.43520    0.57340    0.40480    1.000
    O43      O        0.36850    0.88890    0.34740    1.000
    O44      O        0.27220    0.77740    0.37720    1.000
    C8       C        0.46320    0.52200    0.50310    1.000
    H4       H        0.41940    0.47890    0.50030    1.000
    Eu5      Eu       0.87803    0.81101    0.08853    1.000
    S9       S        0.89275    0.78080    0.33297    1.000
    S10      S        0.81635    0.65049    0.92430    1.000
    O45      O        0.94550    0.93780    0.09890    1.000
    O46      O        0.89690    0.85860    0.27210    1.000
    O47      O        0.91370    0.85680    0.92340    1.000
    O48      O        0.97580    0.76620    0.39150    1.000
    O49      O        0.87330    0.67890    0.01120    1.000
    O50      O        0.87800    0.71760    0.25050    1.000
    O51      O        0.92510    0.95880    0.81580    1.000
    O52      O        0.82330    0.78180    0.40380    1.000
    O53      O        0.74520    0.59990    0.95920    1.000
    C9       C        0.93520    0.92660    0.90480    1.000
    O54      O        0.86850    0.61110    0.84740    1.000
    O55      O        0.77220    0.72260    0.87720    1.000
    C10      C        0.96320    0.97800    0.00310    1.000
    H5       H        0.91940    0.02110    0.00030    1.000
    Eu6      Eu       0.37803    0.31101    0.08853    1.000
    S11      S        0.39275    0.28080    0.33297    1.000
    S12      S        0.31635    0.15049    0.92430    1.000
    O56      O        0.44550    0.43780    0.09890    1.000
    O57      O        0.39690    0.35860    0.27210    1.000
    O58      O        0.41370    0.35680    0.92340    1.000
    O59      O        0.47580    0.26620    0.39150    1.000
    O60      O        0.37330    0.17890    0.01120    1.000
    O61      O        0.37800    0.21760    0.25050    1.000
    O62      O        0.42510    0.45880    0.81580    1.000
    O63      O        0.32330    0.28180    0.40380    1.000
    O64      O        0.24520    0.09990    0.95920    1.000
    C11      C        0.43520    0.42660    0.90480    1.000
    O65      O        0.36850    0.11110    0.84740    1.000
    O66      O        0.27220    0.22260    0.87720    1.000
    C12      C        0.46320    0.47800    0.00310    1.000
    H6       H        0.41940    0.52110    0.00030    1.000
    Eu7      Eu       0.12197    0.81101    0.41147    1.000
    S13      S        0.10725    0.78080    0.16703    1.000
    S14      S        0.18365    0.65049    0.57570    1.000
    O67      O        0.05450    0.93780    0.40110    1.000
    O68      O        0.10310    0.85860    0.22790    1.000
    O69      O        0.08630    0.85680    0.57660    1.000
    O70      O        0.02420    0.76620    0.10850    1.000
    O71      O        0.12670    0.67890    0.48880    1.000
    O72      O        0.12200    0.71760    0.24950    1.000
    O73      O        0.07490    0.95880    0.68420    1.000
    O74      O        0.17670    0.78180    0.09620    1.000
    O75      O        0.25480    0.59990    0.54080    1.000
    C13      C        0.06480    0.92660    0.59520    1.000
    O76      O        0.13150    0.61110    0.65260    1.000
    O77      O        0.22780    0.72260    0.62280    1.000
    C14      C        0.03680    0.97800    0.49690    1.000
    H7       H        0.08060    0.02110    0.49970    1.000
    Eu8      Eu       0.62197    0.31101    0.41147    1.000
    S15      S        0.60725    0.28080    0.16703    1.000
    S16      S        0.68365    0.15049    0.57570    1.000
    O78      O        0.55450    0.43780    0.40110    1.000
    O79      O        0.60310    0.35860    0.22790    1.000
    O80      O        0.58630    0.35680    0.57660    1.000
    O81      O        0.52420    0.26620    0.10850    1.000
    O82      O        0.62670    0.17890    0.48880    1.000
    O83      O        0.62200    0.21760    0.24950    1.000
    O84      O        0.57490    0.45880    0.68420    1.000
    O85      O        0.67670    0.28180    0.09620    1.000
    O86      O        0.75480    0.09990    0.54080    1.000
    C15      C        0.56480    0.42660    0.59520    1.000
    O87      O        0.63150    0.11110    0.65260    1.000
    O88      O        0.72780    0.22260    0.62280    1.000
    C16      C        0.53680    0.47800    0.49690    1.000
    H8       H        0.58060    0.52110    0.49970    1.000
    Fe1      Fe       0.00000    0.04959    0.75000    1.000
    Fe2      Fe       0.50000    0.54959    0.75000    1.000
    Fe3      Fe       0.00000    0.95041    0.25000    1.000
    Fe4      Fe       0.50000    0.45041    0.25000    1.000
