data_functionalizedCrystal
_audit_creation_method	'EQeq! by Chris Wilmer'
_symmetry_space_group_name_H-M	'P1'
_symmetry_Int_Tables_number	1
_symmetry_cell_setting	triclinic
loop_
_symmetry_equiv_pos_as_xyz
  x,y,z
_cell_length_a	9.848
_cell_length_b	12.47
_cell_length_c	12.603
_cell_angle_alpha	63.47
_cell_angle_beta	74.56
_cell_angle_gamma	76.03
loop_
_atom_site_label
_atom_site_type_symbol
_atom_site_fract_x
_atom_site_fract_y
_atom_site_fract_z
_atom_site_charge
Mof_Ga	Ga	0.2002	0.88246	0.51811	3.608
Mof_Ga	Ga	0.0973	0.40144	0.16234	3.586
Mof_Ga	Ga	0.3669	0.1619	0.506	3.482
Mof_Co	Co	0.3921	0.6602	0.9031	1.194
Mof_Co	Co	0.5314	0.5353	0.31	1.215
Mof_P 	P 	0.1157	0.1694	0.4004	1.065
Mof_P 	P 	0.3616	0.8967	0.6851	0.965
Mof_P 	P 	0.3387	0.5087	0.1706	0.661
Mof_P 	P 	0.4518	0.6979	0.4512	0.837
Mof_P 	P 	0.2102	0.4894	0.8831	0.821
Mof_O 	O 	0.3449	0.8111	0.4332	-1.101
Mof_O 	O 	0.2367	0.8668	0.6602	-1.16
Mof_O 	O 	0.1828	0.0447	0.4144	-1.197
Mof_O 	O 	0.9608	0.1783	0.4638	-1.137
Mof_O 	O 	0.1569	0.4008	0.0107	-1.064
Mof_O 	O 	0.0909	0.5331	0.811	-1.041
Mof_O 	O 	0.1271	0.2421	0.2645	-1.1
Mof_O 	O 	0.1814	0.4965	0.1994	-0.965
Mof_O 	O 	0.1928	0.2232	0.4526	-1.045
Mof_O 	O 	0.3419	0.0293	0.6552	-1.062
Mof_O 	O 	0.4976	0.8579	0.6154	-1.236
Mof_O 	O 	0.5909	0.7194	0.4621	-1.018
Mof_O 	O 	0.3654	0.8278	0.821	-0.505
Mof_O 	O 	0.2564	0.5947	0.8841	-0.635
Mof_O 	O 	0.4216	0.4062	0.137	-0.615
Mof_O 	O 	0.3656	0.63	0.066	-0.494
Mof_O 	O 	0.4692	0.6693	0.3423	-0.484
Mof_O 	O 	0.3316	0.418	0.8276	-0.497
Mof_O 	O 	0.394	0.5942	0.5629	-0.578
Mof_O 	O 	0.3737	0.5072	0.2812	-0.499
Mof_Ga	Ga	0.7998	0.11754	0.48189	3.607
Mof_Ga	Ga	0.9027	0.59856	0.83766	3.585
Mof_Ga	Ga	0.6331	0.8381	0.494	3.482
Mof_Co	Co	0.6079	0.3398	0.0969	1.194
Mof_Co	Co	0.4686	0.4647	0.69	1.215
Mof_P 	P 	0.8843	0.8306	0.5996	1.065
Mof_P 	P 	0.6384	0.1033	0.3149	0.965
Mof_P 	P 	0.6613	0.4913	0.8294	0.661
Mof_P 	P 	0.5482	0.3021	0.5488	0.837
Mof_P 	P 	0.7898	0.5106	0.1169	0.821
Mof_O 	O 	0.6551	0.1889	0.5668	-1.101
Mof_O 	O 	0.7633	0.1332	0.3398	-1.16
Mof_O 	O 	0.8172	0.9553	0.5856	-1.197
Mof_O 	O 	0.0392	0.8217	0.5362	-1.137
Mof_O 	O 	0.8431	0.5992	0.9893	-1.064
Mof_O 	O 	0.9091	0.4669	0.189	-1.041
Mof_O 	O 	0.8729	0.7579	0.7355	-1.1
Mof_O 	O 	0.8186	0.5035	0.8006	-0.965
Mof_O 	O 	0.8072	0.7768	0.5474	-1.045
Mof_O 	O 	0.6581	0.9707	0.3448	-1.062
Mof_O 	O 	0.5024	0.1421	0.3846	-1.236
Mof_O 	O 	0.4091	0.2806	0.5379	-1.018
Mof_O 	O 	0.6346	0.1722	0.179	-0.505
Mof_O 	O 	0.7436	0.4053	0.1159	-0.635
Mof_O 	O 	0.5784	0.5938	0.863	-0.615
Mof_O 	O 	0.6344	0.37	0.934	-0.494
Mof_O 	O 	0.5308	0.3307	0.6577	-0.484
Mof_O 	O 	0.6684	0.582	0.1724	-0.497
Mof_O 	O 	0.606	0.4058	0.4371	-0.578
Mof_O 	O 	0.6263	0.4928	0.7188	-0.499
_end
