# CIF file generated by openbabel 3.1.0, see https://openbabel.org
data_I
_chemical_name_common 'image0'
_cell_length_a 22.515
_cell_length_b 22.515
_cell_length_c 22.515
_cell_angle_alpha 90
_cell_angle_beta 90
_cell_angle_gamma 90
_space_group_name_H-M_alt 'P 1'
_space_group_name_Hall 'P 1'
loop_
    _symmetry_equiv_pos_as_xyz
    x,y,z
loop_
    _atom_site_label
    _atom_site_type_symbol
    _atom_site_fract_x
    _atom_site_fract_y
    _atom_site_fract_z
    _atom_site_occupancy
    C1       C        0.67495    0.31792    0.04867    1.000
    C2       C        0.66724    0.37896    0.03356    1.000
    H1       H        0.67080    0.40800    0.06280    1.000
    C3       C        0.65461    0.39520    0.97593    1.000
    H2       H        0.65060    0.43510    0.96620    1.000
    C4       C        0.64794    0.35266    0.93302    1.000
    C5       C        0.65417    0.29338    0.94687    1.000
    H3       H        0.64910    0.26460    0.91770    1.000
    C6       C        0.66802    0.27697    0.00457    1.000
    H4       H        0.67270    0.23690    0.01350    1.000
    C7       C        0.69570    0.29860    0.10903    1.000
    O1       O        0.70520    0.24760    0.11500    1.000
    O2       O        0.69876    0.33515    0.15002    1.000
    Zn1      Zn       0.67741    0.23739    0.20381    1.000
    C8       C        0.82505    0.68208    0.54867    1.000
    C9       C        0.83276    0.62104    0.53356    1.000
    H5       H        0.82920    0.59200    0.56280    1.000
    C10      C        0.84539    0.60480    0.47593    1.000
    H6       H        0.84940    0.56490    0.46620    1.000
    C11      C        0.85206    0.64734    0.43302    1.000
    C12      C        0.84583    0.70662    0.44687    1.000
    H7       H        0.85090    0.73540    0.41770    1.000
    C13      C        0.83198    0.72303    0.50457    1.000
    H8       H        0.82730    0.76310    0.51350    1.000
    C14      C        0.80430    0.70140    0.60903    1.000
    O3       O        0.79480    0.75240    0.61500    1.000
    O4       O        0.80124    0.66485    0.65002    1.000
    Zn2      Zn       0.82259    0.76261    0.70381    1.000
    C15      C        0.32505    0.81792    0.45133    1.000
    C16      C        0.33276    0.87896    0.46644    1.000
    H9       H        0.32920    0.90800    0.43720    1.000
    C17      C        0.34539    0.89520    0.52407    1.000
    H10      H        0.34940    0.93510    0.53380    1.000
    C18      C        0.35206    0.85266    0.56698    1.000
    C19      C        0.34583    0.79338    0.55313    1.000
    H11      H        0.35090    0.76460    0.58230    1.000
    C20      C        0.33198    0.77697    0.49543    1.000
    H12      H        0.32730    0.73690    0.48650    1.000
    C21      C        0.30430    0.79860    0.39097    1.000
    O5       O        0.29480    0.74760    0.38500    1.000
    O6       O        0.30124    0.83515    0.34998    1.000
    Zn3      Zn       0.32259    0.73739    0.29619    1.000
    C22      C        0.17495    0.18208    0.95133    1.000
    C23      C        0.16724    0.12104    0.96644    1.000
    H13      H        0.17080    0.09200    0.93720    1.000
    C24      C        0.15461    0.10480    0.02407    1.000
    H14      H        0.15060    0.06490    0.03380    1.000
    C25      C        0.14794    0.14734    0.06698    1.000
    C26      C        0.15417    0.20662    0.05313    1.000
    H15      H        0.14910    0.23540    0.08230    1.000
    C27      C        0.16802    0.22303    0.99543    1.000
    H16      H        0.17270    0.26310    0.98650    1.000
    C28      C        0.19570    0.20140    0.89097    1.000
    O7       O        0.20520    0.25240    0.88500    1.000
    O8       O        0.19876    0.16485    0.84998    1.000
    Zn4      Zn       0.17741    0.26261    0.79619    1.000
    C29      C        0.04867    0.67495    0.31792    1.000
    C30      C        0.03356    0.66724    0.37896    1.000
    H17      H        0.06280    0.67080    0.40800    1.000
    C31      C        0.97593    0.65461    0.39520    1.000
    H18      H        0.96620    0.65060    0.43510    1.000
    C32      C        0.93302    0.64794    0.35266    1.000
    C33      C        0.94687    0.65417    0.29338    1.000
    H19      H        0.91770    0.64910    0.26460    1.000
    C34      C        0.00457    0.66802    0.27697    1.000
    H20      H        0.01350    0.67270    0.23690    1.000
    C35      C        0.10903    0.69570    0.29860    1.000
    O9       O        0.11500    0.70520    0.24760    1.000
    O10      O        0.15002    0.69876    0.33515    1.000
    Zn5      Zn       0.20381    0.67741    0.23739    1.000
    C36      C        0.54867    0.82505    0.68208    1.000
    C37      C        0.53356    0.83276    0.62104    1.000
    H21      H        0.56280    0.82920    0.59200    1.000
    C38      C        0.47593    0.84539    0.60480    1.000
    H22      H        0.46620    0.84940    0.56490    1.000
    C39      C        0.43302    0.85206    0.64734    1.000
    C40      C        0.44687    0.84583    0.70662    1.000
    H23      H        0.41770    0.85090    0.73540    1.000
    C41      C        0.50457    0.83198    0.72303    1.000
    H24      H        0.51350    0.82730    0.76310    1.000
    C42      C        0.60903    0.80430    0.70140    1.000
    O11      O        0.61500    0.79480    0.75240    1.000
    O12      O        0.65002    0.80124    0.66485    1.000
    Zn6      Zn       0.70381    0.82259    0.76261    1.000
    C43      C        0.45133    0.32505    0.81792    1.000
    C44      C        0.46644    0.33276    0.87896    1.000
    H25      H        0.43720    0.32920    0.90800    1.000
    C45      C        0.52407    0.34539    0.89520    1.000
    H26      H        0.53380    0.34940    0.93510    1.000
    C46      C        0.56698    0.35206    0.85266    1.000
    C47      C        0.55313    0.34583    0.79338    1.000
    H27      H        0.58230    0.35090    0.76460    1.000
    C48      C        0.49543    0.33198    0.77697    1.000
    H28      H        0.48650    0.32730    0.73690    1.000
    C49      C        0.39097    0.30430    0.79860    1.000
    O13      O        0.38500    0.29480    0.74760    1.000
    O14      O        0.34998    0.30124    0.83515    1.000
    Zn7      Zn       0.29619    0.32259    0.73739    1.000
    C50      C        0.95133    0.17495    0.18208    1.000
    C51      C        0.96644    0.16724    0.12104    1.000
    H29      H        0.93720    0.17080    0.09200    1.000
    C52      C        0.02407    0.15461    0.10480    1.000
    H30      H        0.03380    0.15060    0.06490    1.000
    C53      C        0.06698    0.14794    0.14734    1.000
    C54      C        0.05313    0.15417    0.20662    1.000
    H31      H        0.08230    0.14910    0.23540    1.000
    C55      C        0.99543    0.16802    0.22303    1.000
    H32      H        0.98650    0.17270    0.26310    1.000
    C56      C        0.89097    0.19570    0.20140    1.000
    O15      O        0.88500    0.20520    0.25240    1.000
    O16      O        0.84998    0.19876    0.16485    1.000
    Zn8      Zn       0.79619    0.17741    0.26261    1.000
    C57      C        0.31792    0.04867    0.67495    1.000
    C58      C        0.37896    0.03356    0.66724    1.000
    H33      H        0.40800    0.06280    0.67080    1.000
    C59      C        0.39520    0.97593    0.65461    1.000
    H34      H        0.43510    0.96620    0.65060    1.000
    C60      C        0.35266    0.93302    0.64794    1.000
    C61      C        0.29338    0.94687    0.65417    1.000
    H35      H        0.26460    0.91770    0.64910    1.000
    C62      C        0.27697    0.00457    0.66802    1.000
    H36      H        0.23690    0.01350    0.67270    1.000
    C63      C        0.29860    0.10903    0.69570    1.000
    O17      O        0.24760    0.11500    0.70520    1.000
    O18      O        0.33515    0.15002    0.69876    1.000
    Zn9      Zn       0.23739    0.20381    0.67741    1.000
    C64      C        0.68208    0.54867    0.82505    1.000
    C65      C        0.62104    0.53356    0.83276    1.000
    H37      H        0.59200    0.56280    0.82920    1.000
    C66      C        0.60480    0.47593    0.84539    1.000
    H38      H        0.56490    0.46620    0.84940    1.000
    C67      C        0.64734    0.43302    0.85206    1.000
    C68      C        0.70662    0.44687    0.84583    1.000
    H39      H        0.73540    0.41770    0.85090    1.000
    C69      C        0.72303    0.50457    0.83198    1.000
    H40      H        0.76310    0.51350    0.82730    1.000
    C70      C        0.70140    0.60903    0.80430    1.000
    O19      O        0.75240    0.61500    0.79480    1.000
    O20      O        0.66485    0.65002    0.80124    1.000
    Zn10     Zn       0.76261    0.70381    0.82259    1.000
    C71      C        0.81792    0.45133    0.32505    1.000
    C72      C        0.87896    0.46644    0.33276    1.000
    H41      H        0.90800    0.43720    0.32920    1.000
    C73      C        0.89520    0.52407    0.34539    1.000
    H42      H        0.93510    0.53380    0.34940    1.000
    C74      C        0.85266    0.56698    0.35206    1.000
    C75      C        0.79338    0.55313    0.34583    1.000
    H43      H        0.76460    0.58230    0.35090    1.000
    C76      C        0.77697    0.49543    0.33198    1.000
    H44      H        0.73690    0.48650    0.32730    1.000
    C77      C        0.79860    0.39097    0.30430    1.000
    O21      O        0.74760    0.38500    0.29480    1.000
    O22      O        0.83515    0.34998    0.30124    1.000
    Zn11     Zn       0.73739    0.29619    0.32259    1.000
    C78      C        0.18208    0.95133    0.17495    1.000
    C79      C        0.12104    0.96644    0.16724    1.000
    H45      H        0.09200    0.93720    0.17080    1.000
    C80      C        0.10480    0.02407    0.15461    1.000
    H46      H        0.06490    0.03380    0.15060    1.000
    C81      C        0.14734    0.06698    0.14794    1.000
    C82      C        0.20662    0.05313    0.15417    1.000
    H47      H        0.23540    0.08230    0.14910    1.000
    C83      C        0.22303    0.99543    0.16802    1.000
    H48      H        0.26310    0.98650    0.17270    1.000
    C84      C        0.20140    0.89097    0.19570    1.000
    O23      O        0.25240    0.88500    0.20520    1.000
    O24      O        0.16485    0.84998    0.19876    1.000
    Zn12     Zn       0.26261    0.79619    0.17741    1.000
    C85      C        0.82505    0.18208    0.45133    1.000
    C86      C        0.83276    0.12104    0.46644    1.000
    H49      H        0.82920    0.09200    0.43720    1.000
    C87      C        0.84539    0.10480    0.52407    1.000
    H50      H        0.84940    0.06490    0.53380    1.000
    C88      C        0.85206    0.14734    0.56698    1.000
    C89      C        0.84583    0.20662    0.55313    1.000
    H51      H        0.85090    0.23540    0.58230    1.000
    C90      C        0.83198    0.22303    0.49543    1.000
    H52      H        0.82730    0.26310    0.48650    1.000
    C91      C        0.80430    0.20140    0.39097    1.000
    O25      O        0.79480    0.25240    0.38500    1.000
    O26      O        0.80124    0.16485    0.34998    1.000
    Zn13     Zn       0.82259    0.26261    0.29619    1.000
    C92      C        0.67495    0.81792    0.95133    1.000
    C93      C        0.66724    0.87896    0.96644    1.000
    H53      H        0.67080    0.90800    0.93720    1.000
    C94      C        0.65461    0.89520    0.02407    1.000
    H54      H        0.65060    0.93510    0.03380    1.000
    C95      C        0.64794    0.85266    0.06698    1.000
    C96      C        0.65417    0.79338    0.05313    1.000
    H55      H        0.64910    0.76460    0.08230    1.000
    C97      C        0.66802    0.77697    0.99543    1.000
    H56      H        0.67270    0.73690    0.98650    1.000
    C98      C        0.69570    0.79860    0.89097    1.000
    O27      O        0.70520    0.74760    0.88500    1.000
    O28      O        0.69876    0.83515    0.84998    1.000
    Zn14     Zn       0.67741    0.73739    0.79619    1.000
    C99      C        0.17495    0.68208    0.04867    1.000
    C100     C        0.16724    0.62104    0.03356    1.000
    H57      H        0.17080    0.59200    0.06280    1.000
    C101     C        0.15461    0.60480    0.97593    1.000
    H58      H        0.15060    0.56490    0.96620    1.000
    C102     C        0.14794    0.64734    0.93302    1.000
    C103     C        0.15417    0.70662    0.94687    1.000
    H59      H        0.14910    0.73540    0.91770    1.000
    C104     C        0.16802    0.72303    0.00457    1.000
    H60      H        0.17270    0.76310    0.01350    1.000
    C105     C        0.19570    0.70140    0.10903    1.000
    O29      O        0.20520    0.75240    0.11500    1.000
    O30      O        0.19876    0.66485    0.15002    1.000
    Zn15     Zn       0.17741    0.76261    0.20381    1.000
    C106     C        0.32505    0.31792    0.54867    1.000
    C107     C        0.33276    0.37896    0.53356    1.000
    H61      H        0.32920    0.40800    0.56280    1.000
    C108     C        0.34539    0.39520    0.47593    1.000
    H62      H        0.34940    0.43510    0.46620    1.000
    C109     C        0.35206    0.35266    0.43302    1.000
    C110     C        0.34583    0.29338    0.44687    1.000
    H63      H        0.35090    0.26460    0.41770    1.000
    C111     C        0.33198    0.27697    0.50457    1.000
    H64      H        0.32730    0.23690    0.51350    1.000
    C112     C        0.30430    0.29860    0.60903    1.000
    O31      O        0.29480    0.24760    0.61500    1.000
    O32      O        0.30124    0.33515    0.65002    1.000
    Zn16     Zn       0.32259    0.23739    0.70381    1.000
    C113     C        0.45133    0.82505    0.18208    1.000
    C114     C        0.46644    0.83276    0.12104    1.000
    H65      H        0.43720    0.82920    0.09200    1.000
    C115     C        0.52407    0.84539    0.10480    1.000
    H66      H        0.53380    0.84940    0.06490    1.000
    C116     C        0.56698    0.85206    0.14734    1.000
    C117     C        0.55313    0.84583    0.20662    1.000
    H67      H        0.58230    0.85090    0.23540    1.000
    C118     C        0.49543    0.83198    0.22303    1.000
    H68      H        0.48650    0.82730    0.26310    1.000
    C119     C        0.39097    0.80430    0.20140    1.000
    O33      O        0.38500    0.79480    0.25240    1.000
    O34      O        0.34998    0.80124    0.16485    1.000
    Zn17     Zn       0.29619    0.82259    0.26261    1.000
    C120     C        0.95133    0.67495    0.81792    1.000
    C121     C        0.96644    0.66724    0.87896    1.000
    H69      H        0.93720    0.67080    0.90800    1.000
    C122     C        0.02407    0.65461    0.89520    1.000
    H70      H        0.03380    0.65060    0.93510    1.000
    C123     C        0.06698    0.64794    0.85266    1.000
    C124     C        0.05313    0.65417    0.79338    1.000
    H71      H        0.08230    0.64910    0.76460    1.000
    C125     C        0.99543    0.66802    0.77697    1.000
    H72      H        0.98650    0.67270    0.73690    1.000
    C126     C        0.89097    0.69570    0.79860    1.000
    O35      O        0.88500    0.70520    0.74760    1.000
    O36      O        0.84998    0.69876    0.83515    1.000
    Zn18     Zn       0.79619    0.67741    0.73739    1.000
    C127     C        0.04867    0.17495    0.68208    1.000
    C128     C        0.03356    0.16724    0.62104    1.000
    H73      H        0.06280    0.17080    0.59200    1.000
    C129     C        0.97593    0.15461    0.60480    1.000
    H74      H        0.96620    0.15060    0.56490    1.000
    C130     C        0.93302    0.14794    0.64734    1.000
    C131     C        0.94687    0.15417    0.70662    1.000
    H75      H        0.91770    0.14910    0.73540    1.000
    C132     C        0.00457    0.16802    0.72303    1.000
    H76      H        0.01350    0.17270    0.76310    1.000
    C133     C        0.10903    0.19570    0.70140    1.000
    O37      O        0.11500    0.20520    0.75240    1.000
    O38      O        0.15002    0.19876    0.66485    1.000
    Zn19     Zn       0.20381    0.17741    0.76261    1.000
    C134     C        0.54867    0.32505    0.31792    1.000
    C135     C        0.53356    0.33276    0.37896    1.000
    H77      H        0.56280    0.32920    0.40800    1.000
    C136     C        0.47593    0.34539    0.39520    1.000
    H78      H        0.46620    0.34940    0.43510    1.000
    C137     C        0.43302    0.35206    0.35266    1.000
    C138     C        0.44687    0.34583    0.29338    1.000
    H79      H        0.41770    0.35090    0.26460    1.000
    C139     C        0.50457    0.33198    0.27697    1.000
    H80      H        0.51350    0.32730    0.23690    1.000
    C140     C        0.60903    0.30430    0.29860    1.000
    O39      O        0.61500    0.29480    0.24760    1.000
    O40      O        0.65002    0.30124    0.33515    1.000
    Zn20     Zn       0.70381    0.32259    0.23739    1.000
    C141     C        0.18208    0.45133    0.82505    1.000
    C142     C        0.12104    0.46644    0.83276    1.000
    H81      H        0.09200    0.43720    0.82920    1.000
    C143     C        0.10480    0.52407    0.84539    1.000
    H82      H        0.06490    0.53380    0.84940    1.000
    C144     C        0.14734    0.56698    0.85206    1.000
    C145     C        0.20662    0.55313    0.84583    1.000
    H83      H        0.23540    0.58230    0.85090    1.000
    C146     C        0.22303    0.49543    0.83198    1.000
    H84      H        0.26310    0.48650    0.82730    1.000
    C147     C        0.20140    0.39097    0.80430    1.000
    O41      O        0.25240    0.38500    0.79480    1.000
    O42      O        0.16485    0.34998    0.80124    1.000
    Zn21     Zn       0.26261    0.29619    0.82259    1.000
    C148     C        0.81792    0.95133    0.67495    1.000
    C149     C        0.87896    0.96644    0.66724    1.000
    H85      H        0.90800    0.93720    0.67080    1.000
    C150     C        0.89520    0.02407    0.65461    1.000
    H86      H        0.93510    0.03380    0.65060    1.000
    C151     C        0.85266    0.06698    0.64794    1.000
    C152     C        0.79338    0.05313    0.65417    1.000
    H87      H        0.76460    0.08230    0.64910    1.000
    C153     C        0.77697    0.99543    0.66802    1.000
    H88      H        0.73690    0.98650    0.67270    1.000
    C154     C        0.79860    0.89097    0.69570    1.000
    O43      O        0.74760    0.88500    0.70520    1.000
    O44      O        0.83515    0.84998    0.69876    1.000
    Zn22     Zn       0.73739    0.79619    0.67741    1.000
    C155     C        0.68208    0.04867    0.17495    1.000
    C156     C        0.62104    0.03356    0.16724    1.000
    H89      H        0.59200    0.06280    0.17080    1.000
    C157     C        0.60480    0.97593    0.15461    1.000
    H90      H        0.56490    0.96620    0.15060    1.000
    C158     C        0.64734    0.93302    0.14794    1.000
    C159     C        0.70662    0.94687    0.15417    1.000
    H91      H        0.73540    0.91770    0.14910    1.000
    C160     C        0.72303    0.00457    0.16802    1.000
    H92      H        0.76310    0.01350    0.17270    1.000
    C161     C        0.70140    0.10903    0.19570    1.000
    O45      O        0.75240    0.11500    0.20520    1.000
    O46      O        0.66485    0.15002    0.19876    1.000
    Zn23     Zn       0.76261    0.20381    0.17741    1.000
    C162     C        0.31792    0.54867    0.32505    1.000
    C163     C        0.37896    0.53356    0.33276    1.000
    H93      H        0.40800    0.56280    0.32920    1.000
    C164     C        0.39520    0.47593    0.34539    1.000
    H94      H        0.43510    0.46620    0.34940    1.000
    C165     C        0.35266    0.43302    0.35206    1.000
    C166     C        0.29338    0.44687    0.34583    1.000
    H95      H        0.26460    0.41770    0.35090    1.000
    C167     C        0.27697    0.50457    0.33198    1.000
    H96      H        0.23690    0.51350    0.32730    1.000
    C168     C        0.29860    0.60903    0.30430    1.000
    O47      O        0.24760    0.61500    0.29480    1.000
    O48      O        0.33515    0.65002    0.30124    1.000
    Zn24     Zn       0.23739    0.70381    0.32259    1.000
    C169     C        0.63546    0.36454    0.86454    1.000
    H97      H        0.66060    0.33940    0.83940    1.000
    C170     C        0.86454    0.63546    0.36454    1.000
    H98      H        0.83940    0.66060    0.33940    1.000
    C171     C        0.36454    0.86454    0.63546    1.000
    H99      H        0.33940    0.83940    0.66060    1.000
    C172     C        0.13546    0.13546    0.13546    1.000
    H100     H        0.16060    0.16060    0.16060    1.000
    C173     C        0.86454    0.13546    0.63546    1.000
    H101     H        0.83940    0.16060    0.66060    1.000
    C174     C        0.63546    0.86454    0.13546    1.000
    H102     H        0.66060    0.83940    0.16060    1.000
    C175     C        0.13546    0.63546    0.86454    1.000
    H103     H        0.16060    0.66060    0.83940    1.000
    C176     C        0.36454    0.36454    0.36454    1.000
    H104     H        0.33940    0.33940    0.33940    1.000
    O49      O        0.75000    0.25000    0.25000    1.000
    O50      O        0.75000    0.75000    0.75000    1.000
    O51      O        0.25000    0.75000    0.25000    1.000
    O52      O        0.25000    0.25000    0.75000    1.000
    C177     C        0.17495    0.81792    0.54867    1.000
    C178     C        0.16724    0.87896    0.53356    1.000
    H105     H        0.17080    0.90800    0.56280    1.000
    C179     C        0.15461    0.89520    0.47593    1.000
    H106     H        0.15060    0.93510    0.46620    1.000
    C180     C        0.14794    0.85266    0.43302    1.000
    C181     C        0.15417    0.79338    0.44687    1.000
    H107     H        0.14910    0.76460    0.41770    1.000
    C182     C        0.16802    0.77697    0.50457    1.000
    H108     H        0.17270    0.73690    0.51350    1.000
    C183     C        0.19570    0.79860    0.60903    1.000
    O53      O        0.20520    0.74760    0.61500    1.000
    O54      O        0.19876    0.83515    0.65002    1.000
    Zn25     Zn       0.17741    0.73739    0.70381    1.000
    C184     C        0.32505    0.18208    0.04867    1.000
    C185     C        0.33276    0.12104    0.03356    1.000
    H109     H        0.32920    0.09200    0.06280    1.000
    C186     C        0.34539    0.10480    0.97593    1.000
    H110     H        0.34940    0.06490    0.96620    1.000
    C187     C        0.35206    0.14734    0.93302    1.000
    C188     C        0.34583    0.20662    0.94687    1.000
    H111     H        0.35090    0.23540    0.91770    1.000
    C189     C        0.33198    0.22303    0.00457    1.000
    H112     H        0.32730    0.26310    0.01350    1.000
    C190     C        0.30430    0.20140    0.10903    1.000
    O55      O        0.29480    0.25240    0.11500    1.000
    O56      O        0.30124    0.16485    0.15002    1.000
    Zn26     Zn       0.32259    0.26261    0.20381    1.000
    C191     C        0.82505    0.31792    0.95133    1.000
    C192     C        0.83276    0.37896    0.96644    1.000
    H113     H        0.82920    0.40800    0.93720    1.000
    C193     C        0.84539    0.39520    0.02407    1.000
    H114     H        0.84940    0.43510    0.03380    1.000
    C194     C        0.85206    0.35266    0.06698    1.000
    C195     C        0.84583    0.29338    0.05313    1.000
    H115     H        0.85090    0.26460    0.08230    1.000
    C196     C        0.83198    0.27697    0.99543    1.000
    H116     H        0.82730    0.23690    0.98650    1.000
    C197     C        0.80430    0.29860    0.89097    1.000
    O57      O        0.79480    0.24760    0.88500    1.000
    O58      O        0.80124    0.33515    0.84998    1.000
    Zn27     Zn       0.82259    0.23739    0.79619    1.000
    C198     C        0.67495    0.68208    0.45133    1.000
    C199     C        0.66724    0.62104    0.46644    1.000
    H117     H        0.67080    0.59200    0.43720    1.000
    C200     C        0.65461    0.60480    0.52407    1.000
    H118     H        0.65060    0.56490    0.53380    1.000
    C201     C        0.64794    0.64734    0.56698    1.000
    C202     C        0.65417    0.70662    0.55313    1.000
    H119     H        0.64910    0.73540    0.58230    1.000
    C203     C        0.66802    0.72303    0.49543    1.000
    H120     H        0.67270    0.76310    0.48650    1.000
    C204     C        0.69570    0.70140    0.39097    1.000
    O59      O        0.70520    0.75240    0.38500    1.000
    O60      O        0.69876    0.66485    0.34998    1.000
    Zn28     Zn       0.67741    0.76261    0.29619    1.000
    C205     C        0.54867    0.17495    0.81792    1.000
    C206     C        0.53356    0.16724    0.87896    1.000
    H121     H        0.56280    0.17080    0.90800    1.000
    C207     C        0.47593    0.15461    0.89520    1.000
    H122     H        0.46620    0.15060    0.93510    1.000
    C208     C        0.43302    0.14794    0.85266    1.000
    C209     C        0.44687    0.15417    0.79338    1.000
    H123     H        0.41770    0.14910    0.76460    1.000
    C210     C        0.50457    0.16802    0.77697    1.000
    H124     H        0.51350    0.17270    0.73690    1.000
    C211     C        0.60903    0.19570    0.79860    1.000
    O61      O        0.61500    0.20520    0.74760    1.000
    O62      O        0.65002    0.19876    0.83515    1.000
    Zn29     Zn       0.70381    0.17741    0.73739    1.000
    C212     C        0.04867    0.32505    0.18208    1.000
    C213     C        0.03356    0.33276    0.12104    1.000
    H125     H        0.06280    0.32920    0.09200    1.000
    C214     C        0.97593    0.34539    0.10480    1.000
    H126     H        0.96620    0.34940    0.06490    1.000
    C215     C        0.93302    0.35206    0.14734    1.000
    C216     C        0.94687    0.34583    0.20662    1.000
    H127     H        0.91770    0.35090    0.23540    1.000
    C217     C        0.00457    0.33198    0.22303    1.000
    H128     H        0.01350    0.32730    0.26310    1.000
    C218     C        0.10903    0.30430    0.20140    1.000
    O63      O        0.11500    0.29480    0.25240    1.000
    O64      O        0.15002    0.30124    0.16485    1.000
    Zn30     Zn       0.20381    0.32259    0.26261    1.000
    C219     C        0.95133    0.82505    0.31792    1.000
    C220     C        0.96644    0.83276    0.37896    1.000
    H129     H        0.93720    0.82920    0.40800    1.000
    C221     C        0.02407    0.84539    0.39520    1.000
    H130     H        0.03380    0.84940    0.43510    1.000
    C222     C        0.06698    0.85206    0.35266    1.000
    C223     C        0.05313    0.84583    0.29338    1.000
    H131     H        0.08230    0.85090    0.26460    1.000
    C224     C        0.99543    0.83198    0.27697    1.000
    H132     H        0.98650    0.82730    0.23690    1.000
    C225     C        0.89097    0.80430    0.29860    1.000
    O65      O        0.88500    0.79480    0.24760    1.000
    O66      O        0.84998    0.80124    0.33515    1.000
    Zn31     Zn       0.79619    0.82259    0.23739    1.000
    C226     C        0.45133    0.67495    0.68208    1.000
    C227     C        0.46644    0.66724    0.62104    1.000
    H133     H        0.43720    0.67080    0.59200    1.000
    C228     C        0.52407    0.65461    0.60480    1.000
    H134     H        0.53380    0.65060    0.56490    1.000
    C229     C        0.56698    0.64794    0.64734    1.000
    C230     C        0.55313    0.65417    0.70662    1.000
    H135     H        0.58230    0.64910    0.73540    1.000
    C231     C        0.49543    0.66802    0.72303    1.000
    H136     H        0.48650    0.67270    0.76310    1.000
    C232     C        0.39097    0.69570    0.70140    1.000
    O67      O        0.38500    0.70520    0.75240    1.000
    O68      O        0.34998    0.69876    0.66485    1.000
    Zn32     Zn       0.29619    0.67741    0.76261    1.000
    C233     C        0.81792    0.54867    0.17495    1.000
    C234     C        0.87896    0.53356    0.16724    1.000
    H137     H        0.90800    0.56280    0.17080    1.000
    C235     C        0.89520    0.47593    0.15461    1.000
    H138     H        0.93510    0.46620    0.15060    1.000
    C236     C        0.85266    0.43302    0.14794    1.000
    C237     C        0.79338    0.44687    0.15417    1.000
    H139     H        0.76460    0.41770    0.14910    1.000
    C238     C        0.77697    0.50457    0.16802    1.000
    H140     H        0.73690    0.51350    0.17270    1.000
    C239     C        0.79860    0.60903    0.19570    1.000
    O69      O        0.74760    0.61500    0.20520    1.000
    O70      O        0.83515    0.65002    0.19876    1.000
    Zn33     Zn       0.73739    0.70381    0.17741    1.000
    C240     C        0.18208    0.04867    0.32505    1.000
    C241     C        0.12104    0.03356    0.33276    1.000
    H141     H        0.09200    0.06280    0.32920    1.000
    C242     C        0.10480    0.97593    0.34539    1.000
    H142     H        0.06490    0.96620    0.34940    1.000
    C243     C        0.14734    0.93302    0.35206    1.000
    C244     C        0.20662    0.94687    0.34583    1.000
    H143     H        0.23540    0.91770    0.35090    1.000
    C245     C        0.22303    0.00457    0.33198    1.000
    H144     H        0.26310    0.01350    0.32730    1.000
    C246     C        0.20140    0.10903    0.30430    1.000
    O71      O        0.25240    0.11500    0.29480    1.000
    O72      O        0.16485    0.15002    0.30124    1.000
    Zn34     Zn       0.26261    0.20381    0.32259    1.000
    C247     C        0.31792    0.95133    0.82505    1.000
    C248     C        0.37896    0.96644    0.83276    1.000
    H145     H        0.40800    0.93720    0.82920    1.000
    C249     C        0.39520    0.02407    0.84539    1.000
    H146     H        0.43510    0.03380    0.84940    1.000
    C250     C        0.35266    0.06698    0.85206    1.000
    C251     C        0.29338    0.05313    0.84583    1.000
    H147     H        0.26460    0.08230    0.85090    1.000
    C252     C        0.27697    0.99543    0.83198    1.000
    H148     H        0.23690    0.98650    0.82730    1.000
    C253     C        0.29860    0.89097    0.80430    1.000
    O73      O        0.24760    0.88500    0.79480    1.000
    O74      O        0.33515    0.84998    0.80124    1.000
    Zn35     Zn       0.23739    0.79619    0.82259    1.000
    C254     C        0.68208    0.45133    0.67495    1.000
    C255     C        0.62104    0.46644    0.66724    1.000
    H149     H        0.59200    0.43720    0.67080    1.000
    C256     C        0.60480    0.52407    0.65461    1.000
    H150     H        0.56490    0.53380    0.65060    1.000
    C257     C        0.64734    0.56698    0.64794    1.000
    C258     C        0.70662    0.55313    0.65417    1.000
    H151     H        0.73540    0.58230    0.64910    1.000
    C259     C        0.72303    0.49543    0.66802    1.000
    H152     H        0.76310    0.48650    0.67270    1.000
    C260     C        0.70140    0.39097    0.69570    1.000
    O75      O        0.75240    0.38500    0.70520    1.000
    O76      O        0.66485    0.34998    0.69876    1.000
    Zn36     Zn       0.76261    0.29619    0.67741    1.000
    C261     C        0.32505    0.68208    0.95133    1.000
    C262     C        0.33276    0.62104    0.96644    1.000
    H153     H        0.32920    0.59200    0.93720    1.000
    C263     C        0.34539    0.60480    0.02407    1.000
    H154     H        0.34940    0.56490    0.03380    1.000
    C264     C        0.35206    0.64734    0.06698    1.000
    C265     C        0.34583    0.70662    0.05313    1.000
    H155     H        0.35090    0.73540    0.08230    1.000
    C266     C        0.33198    0.72303    0.99543    1.000
    H156     H        0.32730    0.76310    0.98650    1.000
    C267     C        0.30430    0.70140    0.89097    1.000
    O77      O        0.29480    0.75240    0.88500    1.000
    O78      O        0.30124    0.66485    0.84998    1.000
    Zn37     Zn       0.32259    0.76261    0.79619    1.000
    C268     C        0.17495    0.31792    0.45133    1.000
    C269     C        0.16724    0.37896    0.46644    1.000
    H157     H        0.17080    0.40800    0.43720    1.000
    C270     C        0.15461    0.39520    0.52407    1.000
    H158     H        0.15060    0.43510    0.53380    1.000
    C271     C        0.14794    0.35266    0.56698    1.000
    C272     C        0.15417    0.29338    0.55313    1.000
    H159     H        0.14910    0.26460    0.58230    1.000
    C273     C        0.16802    0.27697    0.49543    1.000
    H160     H        0.17270    0.23690    0.48650    1.000
    C274     C        0.19570    0.29860    0.39097    1.000
    O79      O        0.20520    0.24760    0.38500    1.000
    O80      O        0.19876    0.33515    0.34998    1.000
    Zn38     Zn       0.17741    0.23739    0.29619    1.000
    C275     C        0.67495    0.18208    0.54867    1.000
    C276     C        0.66724    0.12104    0.53356    1.000
    H161     H        0.67080    0.09200    0.56280    1.000
    C277     C        0.65461    0.10480    0.47593    1.000
    H162     H        0.65060    0.06490    0.46620    1.000
    C278     C        0.64794    0.14734    0.43302    1.000
    C279     C        0.65417    0.20662    0.44687    1.000
    H163     H        0.64910    0.23540    0.41770    1.000
    C280     C        0.66802    0.22303    0.50457    1.000
    H164     H        0.67270    0.26310    0.51350    1.000
    C281     C        0.69570    0.20140    0.60903    1.000
    O81      O        0.70520    0.25240    0.61500    1.000
    O82      O        0.69876    0.16485    0.65002    1.000
    Zn39     Zn       0.67741    0.26261    0.70381    1.000
    C282     C        0.82505    0.81792    0.04867    1.000
    C283     C        0.83276    0.87896    0.03356    1.000
    H165     H        0.82920    0.90800    0.06280    1.000
    C284     C        0.84539    0.89520    0.97593    1.000
    H166     H        0.84940    0.93510    0.96620    1.000
    C285     C        0.85206    0.85266    0.93302    1.000
    C286     C        0.84583    0.79338    0.94687    1.000
    H167     H        0.85090    0.76460    0.91770    1.000
    C287     C        0.83198    0.77697    0.00457    1.000
    H168     H        0.82730    0.73690    0.01350    1.000
    C288     C        0.80430    0.79860    0.10903    1.000
    O83      O        0.79480    0.74760    0.11500    1.000
    O84      O        0.80124    0.83515    0.15002    1.000
    Zn40     Zn       0.82259    0.73739    0.20381    1.000
    C289     C        0.95133    0.32505    0.68208    1.000
    C290     C        0.96644    0.33276    0.62104    1.000
    H169     H        0.93720    0.32920    0.59200    1.000
    C291     C        0.02407    0.34539    0.60480    1.000
    H170     H        0.03380    0.34940    0.56490    1.000
    C292     C        0.06698    0.35206    0.64734    1.000
    C293     C        0.05313    0.34583    0.70662    1.000
    H171     H        0.08230    0.35090    0.73540    1.000
    C294     C        0.99543    0.33198    0.72303    1.000
    H172     H        0.98650    0.32730    0.76310    1.000
    C295     C        0.89097    0.30430    0.70140    1.000
    O85      O        0.88500    0.29480    0.75240    1.000
    O86      O        0.84998    0.30124    0.66485    1.000
    Zn41     Zn       0.79619    0.32259    0.76261    1.000
    C296     C        0.45133    0.17495    0.31792    1.000
    C297     C        0.46644    0.16724    0.37896    1.000
    H173     H        0.43720    0.17080    0.40800    1.000
    C298     C        0.52407    0.15461    0.39520    1.000
    H174     H        0.53380    0.15060    0.43510    1.000
    C299     C        0.56698    0.14794    0.35266    1.000
    C300     C        0.55313    0.15417    0.29338    1.000
    H175     H        0.58230    0.14910    0.26460    1.000
    C301     C        0.49543    0.16802    0.27697    1.000
    H176     H        0.48650    0.17270    0.23690    1.000
    C302     C        0.39097    0.19570    0.29860    1.000
    O87      O        0.38500    0.20520    0.24760    1.000
    O88      O        0.34998    0.19876    0.33515    1.000
    Zn42     Zn       0.29619    0.17741    0.23739    1.000
    C303     C        0.54867    0.67495    0.18208    1.000
    C304     C        0.53356    0.66724    0.12104    1.000
    H177     H        0.56280    0.67080    0.09200    1.000
    C305     C        0.47593    0.65461    0.10480    1.000
    H178     H        0.46620    0.65060    0.06490    1.000
    C306     C        0.43302    0.64794    0.14734    1.000
    C307     C        0.44687    0.65417    0.20662    1.000
    H179     H        0.41770    0.64910    0.23540    1.000
    C308     C        0.50457    0.66802    0.22303    1.000
    H180     H        0.51350    0.67270    0.26310    1.000
    C309     C        0.60903    0.69570    0.20140    1.000
    O89      O        0.61500    0.70520    0.25240    1.000
    O90      O        0.65002    0.69876    0.16485    1.000
    Zn43     Zn       0.70381    0.67741    0.26261    1.000
    C310     C        0.04867    0.82505    0.81792    1.000
    C311     C        0.03356    0.83276    0.87896    1.000
    H181     H        0.06280    0.82920    0.90800    1.000
    C312     C        0.97593    0.84539    0.89520    1.000
    H182     H        0.96620    0.84940    0.93510    1.000
    C313     C        0.93302    0.85206    0.85266    1.000
    C314     C        0.94687    0.84583    0.79338    1.000
    H183     H        0.91770    0.85090    0.76460    1.000
    C315     C        0.00457    0.83198    0.77697    1.000
    H184     H        0.01350    0.82730    0.73690    1.000
    C316     C        0.10903    0.80430    0.79860    1.000
    O91      O        0.11500    0.79480    0.74760    1.000
    O92      O        0.15002    0.80124    0.83515    1.000
    Zn44     Zn       0.20381    0.82259    0.73739    1.000
    C317     C        0.68208    0.95133    0.32505    1.000
    C318     C        0.62104    0.96644    0.33276    1.000
    H185     H        0.59200    0.93720    0.32920    1.000
    C319     C        0.60480    0.02407    0.34539    1.000
    H186     H        0.56490    0.03380    0.34940    1.000
    C320     C        0.64734    0.06698    0.35206    1.000
    C321     C        0.70662    0.05313    0.34583    1.000
    H187     H        0.73540    0.08230    0.35090    1.000
    C322     C        0.72303    0.99543    0.33198    1.000
    H188     H        0.76310    0.98650    0.32730    1.000
    C323     C        0.70140    0.89097    0.30430    1.000
    O93      O        0.75240    0.88500    0.29480    1.000
    O94      O        0.66485    0.84998    0.30124    1.000
    Zn45     Zn       0.76261    0.79619    0.32259    1.000
    C324     C        0.31792    0.45133    0.17495    1.000
    C325     C        0.37896    0.46644    0.16724    1.000
    H189     H        0.40800    0.43720    0.17080    1.000
    C326     C        0.39520    0.52407    0.15461    1.000
    H190     H        0.43510    0.53380    0.15060    1.000
    C327     C        0.35266    0.56698    0.14794    1.000
    C328     C        0.29338    0.55313    0.15417    1.000
    H191     H        0.26460    0.58230    0.14910    1.000
    C329     C        0.27697    0.49543    0.16802    1.000
    H192     H        0.23690    0.48650    0.17270    1.000
    C330     C        0.29860    0.39097    0.19570    1.000
    O95      O        0.24760    0.38500    0.20520    1.000
    O96      O        0.33515    0.34998    0.19876    1.000
    Zn46     Zn       0.23739    0.29619    0.17741    1.000
    C331     C        0.18208    0.54867    0.67495    1.000
    C332     C        0.12104    0.53356    0.66724    1.000
    H193     H        0.09200    0.56280    0.67080    1.000
    C333     C        0.10480    0.47593    0.65461    1.000
    H194     H        0.06490    0.46620    0.65060    1.000
    C334     C        0.14734    0.43302    0.64794    1.000
    C335     C        0.20662    0.44687    0.65417    1.000
    H195     H        0.23540    0.41770    0.64910    1.000
    C336     C        0.22303    0.50457    0.66802    1.000
    H196     H        0.26310    0.51350    0.67270    1.000
    C337     C        0.20140    0.60903    0.69570    1.000
    O97      O        0.25240    0.61500    0.70520    1.000
    O98      O        0.16485    0.65002    0.69876    1.000
    Zn47     Zn       0.26261    0.70381    0.67741    1.000
    C338     C        0.81792    0.04867    0.82505    1.000
    C339     C        0.87896    0.03356    0.83276    1.000
    H197     H        0.90800    0.06280    0.82920    1.000
    C340     C        0.89520    0.97593    0.84539    1.000
    H198     H        0.93510    0.96620    0.84940    1.000
    C341     C        0.85266    0.93302    0.85206    1.000
    C342     C        0.79338    0.94687    0.84583    1.000
    H199     H        0.76460    0.91770    0.85090    1.000
    C343     C        0.77697    0.00457    0.83198    1.000
    H200     H        0.73690    0.01350    0.82730    1.000
    C344     C        0.79860    0.10903    0.80430    1.000
    O99      O        0.74760    0.11500    0.79480    1.000
    O100     O        0.83515    0.15002    0.80124    1.000
    Zn48     Zn       0.73739    0.20381    0.82259    1.000
    C345     C        0.13546    0.86454    0.36454    1.000
    H201     H        0.16060    0.83940    0.33940    1.000
    C346     C        0.36454    0.13546    0.86454    1.000
    H202     H        0.33940    0.16060    0.83940    1.000
    C347     C        0.86454    0.36454    0.13546    1.000
    H203     H        0.83940    0.33940    0.16060    1.000
    C348     C        0.63546    0.63546    0.63546    1.000
    H204     H        0.66060    0.66060    0.66060    1.000
    C349     C        0.36454    0.63546    0.13546    1.000
    H205     H        0.33940    0.66060    0.16060    1.000
    C350     C        0.13546    0.36454    0.63546    1.000
    H206     H        0.16060    0.33940    0.66060    1.000
    C351     C        0.63546    0.13546    0.36454    1.000
    H207     H        0.66060    0.16060    0.33940    1.000
    C352     C        0.86454    0.86454    0.86454    1.000
    H208     H        0.83940    0.83940    0.83940    1.000
    O101     O        0.25000    0.25000    0.25000    1.000
    O102     O        0.25000    0.75000    0.75000    1.000
    O103     O        0.75000    0.25000    0.75000    1.000
    O104     O        0.75000    0.75000    0.25000    1.000
