# CIF file generated by openbabel 3.1.0, see https://openbabel.org
data_I
_chemical_name_common 'image0'
_cell_length_a 11.6005
_cell_length_b 16.4488
_cell_length_c 12.0828
_cell_angle_alpha 90
_cell_angle_beta 112.295
_cell_angle_gamma 90
_space_group_name_H-M_alt 'P 1'
_space_group_name_Hall 'P 1'
loop_
    _symmetry_equiv_pos_as_xyz
    x,y,z
loop_
    _atom_site_label
    _atom_site_type_symbol
    _atom_site_fract_x
    _atom_site_fract_y
    _atom_site_fract_z
    _atom_site_occupancy
    Nd1      Nd       0.19376    0.02640    0.57694    1.000
    S1       S        0.05450    0.21759    0.21010    1.000
    S2       S        0.48990    0.28146    0.75360    1.000
    O1       O        0.13730    0.07940    0.37410    1.000
    O2       O        0.95020    0.03190    0.34990    1.000
    O3       O        0.05480    0.36120    0.06800    1.000
    O4       O        0.85510    0.39750    0.02430    1.000
    O5       O        0.27520    0.10420    0.78130    1.000
    O6       O        0.34580    0.13840    0.64150    1.000
    O7       O        0.64460    0.43200    0.79080    1.000
    O8       O        0.61960    0.47330    0.95600    1.000
    C1       C        0.96130    0.15240    0.24960    1.000
    C2       C        0.84040    0.17610    0.20460    1.000
    H1       H        0.77730    0.14860    0.21870    1.000
    C3       C        0.82070    0.24650    0.13470    1.000
    H2       H        0.74300    0.27050    0.09620    1.000
    C4       C        0.92890    0.27600    0.12940    1.000
    C5       C        0.02090    0.08330    0.32970    1.000
    C6       C        0.94810    0.35090    0.07000    1.000
    C7       C        0.39520    0.22570    0.80520    1.000
    C8       C        0.38370    0.26310    0.90320    1.000
    H3       H        0.33510    0.24280    0.94290    1.000
    C9       C        0.45390    0.33550    0.93620    1.000
    H4       H        0.45770    0.36760    0.00100    1.000
    C10      C        0.51570    0.35350    0.86300    1.000
    C11      C        0.33500    0.15100    0.73960    1.000
    C12      C        0.59890    0.42390    0.86990    1.000
    Nd2      Nd       0.80624    0.52640    0.92306    1.000
    S3       S        0.94550    0.71759    0.28990    1.000
    S4       S        0.51010    0.78146    0.74640    1.000
    O9       O        0.86270    0.57940    0.12590    1.000
    O10      O        0.04980    0.53190    0.15010    1.000
    O11      O        0.94520    0.86120    0.43200    1.000
    O12      O        0.14490    0.89750    0.47570    1.000
    O13      O        0.72480    0.60420    0.71870    1.000
    O14      O        0.65420    0.63840    0.85850    1.000
    O15      O        0.35540    0.93200    0.70920    1.000
    O16      O        0.38040    0.97330    0.54400    1.000
    C13      C        0.03870    0.65240    0.25040    1.000
    C14      C        0.15960    0.67610    0.29540    1.000
    H5       H        0.22270    0.64860    0.28130    1.000
    C15      C        0.17930    0.74650    0.36530    1.000
    H6       H        0.25700    0.77050    0.40380    1.000
    C16      C        0.07110    0.77600    0.37060    1.000
    C17      C        0.97910    0.58330    0.17030    1.000
    C18      C        0.05190    0.85090    0.43000    1.000
    C19      C        0.60480    0.72570    0.69480    1.000
    C20      C        0.61630    0.76310    0.59680    1.000
    H7       H        0.66490    0.74280    0.55710    1.000
    C21      C        0.54610    0.83550    0.56380    1.000
    H8       H        0.54230    0.86760    0.49900    1.000
    C22      C        0.48430    0.85350    0.63700    1.000
    C23      C        0.66500    0.65100    0.76040    1.000
    C24      C        0.40110    0.92390    0.63010    1.000
    Nd3      Nd       0.80624    0.97360    0.42306    1.000
    S5       S        0.94550    0.78241    0.78990    1.000
    S6       S        0.51010    0.71854    0.24640    1.000
    O17      O        0.86270    0.92060    0.62590    1.000
    O18      O        0.04980    0.96810    0.65010    1.000
    O19      O        0.94520    0.63880    0.93200    1.000
    O20      O        0.14490    0.60250    0.97570    1.000
    O21      O        0.72480    0.89580    0.21870    1.000
    O22      O        0.65420    0.86160    0.35850    1.000
    O23      O        0.35540    0.56800    0.20920    1.000
    O24      O        0.38040    0.52670    0.04400    1.000
    C25      C        0.03870    0.84760    0.75040    1.000
    C26      C        0.15960    0.82390    0.79540    1.000
    H9       H        0.22270    0.85140    0.78130    1.000
    C27      C        0.17930    0.75350    0.86530    1.000
    H10      H        0.25700    0.72950    0.90380    1.000
    C28      C        0.07110    0.72400    0.87060    1.000
    C29      C        0.97910    0.91670    0.67030    1.000
    C30      C        0.05190    0.64910    0.93000    1.000
    C31      C        0.60480    0.77430    0.19480    1.000
    C32      C        0.61630    0.73690    0.09680    1.000
    H11      H        0.66490    0.75720    0.05710    1.000
    C33      C        0.54610    0.66450    0.06380    1.000
    H12      H        0.54230    0.63240    0.99900    1.000
    C34      C        0.48430    0.64650    0.13700    1.000
    C35      C        0.66500    0.84900    0.26040    1.000
    C36      C        0.40110    0.57610    0.13010    1.000
    Nd4      Nd       0.19376    0.47360    0.07694    1.000
    S7       S        0.05450    0.28241    0.71010    1.000
    S8       S        0.48990    0.21854    0.25360    1.000
    O25      O        0.13730    0.42060    0.87410    1.000
    O26      O        0.95020    0.46810    0.84990    1.000
    O27      O        0.05480    0.13880    0.56800    1.000
    O28      O        0.85510    0.10250    0.52430    1.000
    O29      O        0.27520    0.39580    0.28130    1.000
    O30      O        0.34580    0.36160    0.14150    1.000
    O31      O        0.64460    0.06800    0.29080    1.000
    O32      O        0.61960    0.02670    0.45600    1.000
    C37      C        0.96130    0.34760    0.74960    1.000
    C38      C        0.84040    0.32390    0.70460    1.000
    H13      H        0.77730    0.35140    0.71870    1.000
    C39      C        0.82070    0.25350    0.63470    1.000
    H14      H        0.74300    0.22950    0.59620    1.000
    C40      C        0.92890    0.22400    0.62940    1.000
    C41      C        0.02090    0.41670    0.82970    1.000
    C42      C        0.94810    0.14910    0.57000    1.000
    C43      C        0.39520    0.27430    0.30520    1.000
    C44      C        0.38370    0.23690    0.40320    1.000
    H15      H        0.33510    0.25720    0.44290    1.000
    C45      C        0.45390    0.16450    0.43620    1.000
    H16      H        0.45770    0.13240    0.50100    1.000
    C46      C        0.51570    0.14650    0.36300    1.000
    C47      C        0.33500    0.34900    0.23960    1.000
    C48      C        0.59890    0.07610    0.36990    1.000
