data_functionalizedCrystal
_audit_creation_method	'EQeq! by Chris Wilmer'
_symmetry_space_group_name_H-M	'P1'
_symmetry_Int_Tables_number	1
_symmetry_cell_setting	triclinic
loop_
_symmetry_equiv_pos_as_xyz
  x,y,z
_cell_length_a	18.6265
_cell_length_b	23.5793
_cell_length_c	30.1227
_cell_angle_alpha	93.223
_cell_angle_beta	90
_cell_angle_gamma	90
loop_
_atom_site_label
_atom_site_type_symbol
_atom_site_fract_x
_atom_site_fract_y
_atom_site_fract_z
_atom_site_charge
Mof_Zn	Zn	0.57939	0.64994	0.61986	1.216
Mof_Zn	Zn	0.42	0.65749	0.20094	1.212
Mof_Zn	Zn	0.50587	0.58959	0.69867	1.208
Mof_Zn	Zn	0.50557	0.72193	0.6976	1.211
Mof_Zn	Zn	0.00794	0.21959	0.61889	1.211
Mof_Zn	Zn	0.00607	0.08472	0.62413	1.211
Mof_Zn	Zn	0.58686	0.65769	0.1921	1.21
Mof_Zn	Zn	0.40242	0.65	0.63042	1.18
Mof_Zn	Zn	0.92061	0.14994	0.11986	1.216
Mof_Zn	Zn	0.08	0.15749	0.70094	1.212
Mof_Zn	Zn	0.99413	0.08959	0.19867	1.207
Mof_Zn	Zn	0.99443	0.22193	0.1976	1.21
Mof_Zn	Zn	0.49206	0.71959	0.11889	1.21
Mof_Zn	Zn	0.49393	0.58472	0.12413	1.21
Mof_Zn	Zn	0.91314	0.15769	0.6921	1.209
Mof_Zn	Zn	0.09758	0.15	0.13042	1.179
Mof_H 	H 	0.5213	0.584	0.8378	0.07
Mof_H 	H 	0.8805	0.9361	0.6264	0.063
Mof_H 	H 	0.5851	0.6696	0.4804	0.058
Mof_H 	H 	0.6541	0.4591	0.7033	0.059
Mof_H 	H 	0.363	0.6279	0.4156	0.069
Mof_H 	H 	0.1097	0.3813	0.1971	0.051
Mof_H 	H 	0.4183	0.64	0.3404	0.057
Mof_H 	H 	0.6389	0.6844	0.4065	0.065
Mof_H 	H 	0.6453	0.8558	0.6967	0.052
Mof_H 	H 	0.7721	0.292	0.7218	0.052
Mof_H 	H 	0.7004	0.3688	0.7302	0.061
Mof_H 	H 	0.3431	0.4542	0.1209	0.058
Mof_H 	H 	0.2123	0.876	0.2532	0.065
Mof_H 	H 	0.8585	0.3515	0.6115	0.062
Mof_H 	H 	0.2911	0.7994	0.2456	0.038
Mof_H 	H 	0.5285	0.5365	0.9096	0.086
Mof_H 	H 	0.1529	0.4786	0.2197	0.063
Mof_H 	H 	0.2368	0.5479	0.2154	0.037
Mof_H 	H 	0.7311	0.5152	0.589	0.031
Mof_H 	H 	0.6764	0.9568	0.7137	0.059
Mof_H 	H 	0.3747	0.634	0.491	0.03
Mof_H 	H 	0.7533	0.0319	0.7074	0.038
Mof_H 	H 	0.7681	0.7605	0.612	0.033
Mof_H 	H 	0.4985	0.711	0.9861	0.029
Mof_H 	H 	0.8484	0.8331	0.6073	0.069
Mof_H 	H 	0.3024	0.3561	0.0996	0.07
Mof_H 	H 	0.8047	0.4385	0.5801	0.065
Mof_H 	H 	0.3309	0.8369	0.1196	0.038
Mof_H 	H 	0.494	0.7595	0.9133	0.05
Mof_H 	H 	0.1457	0.9537	0.2203	0.06
Mof_H 	H 	0.6259	0.683	0.3307	0.038
Mof_H 	H 	0.4908	0.7527	0.8385	0.04
Mof_H 	H 	0.194	0.9936	0.096	0.028
Mof_H 	H 	0.2722	0.9206	0.0891	0.059
Mof_H 	H 	0.219	0.2867	0.1044	0.019
Mof_H 	H 	0.9787	0.084	0.3378	0.07
Mof_H 	H 	0.6195	0.4361	0.1264	0.063
Mof_H 	H 	0.9149	0.1696	0.9804	0.058
Mof_H 	H 	0.8459	0.9591	0.2033	0.059
Mof_H 	H 	0.137	0.1279	0.9156	0.069
Mof_H 	H 	0.3903	0.8813	0.6971	0.051
Mof_H 	H 	0.0817	0.14	0.8404	0.057
Mof_H 	H 	0.8611	0.1844	0.9065	0.065
Mof_H 	H 	0.8547	0.3558	0.1967	0.052
Mof_H 	H 	0.7279	0.792	0.2218	0.052
Mof_H 	H 	0.7996	0.8688	0.2302	0.061
Mof_H 	H 	0.1569	0.9542	0.6209	0.058
Mof_H 	H 	0.2877	0.376	0.7532	0.065
Mof_H 	H 	0.6415	0.8515	0.1115	0.062
Mof_H 	H 	0.2089	0.2994	0.7456	0.038
Mof_H 	H 	0.9715	0.0365	0.4096	0.085
Mof_H 	H 	0.3471	0.9786	0.7197	0.062
Mof_H 	H 	0.2632	0.0479	0.7154	0.037
Mof_H 	H 	0.7689	0.0152	0.089	0.031
Mof_H 	H 	0.8236	0.4568	0.2137	0.059
Mof_H 	H 	0.1253	0.134	0.991	0.03
Mof_H 	H 	0.7467	0.5319	0.2074	0.038
Mof_H 	H 	0.7319	0.2605	0.112	0.033
Mof_H 	H 	0.0015	0.211	0.4861	0.029
Mof_H 	H 	0.6516	0.3331	0.1073	0.069
Mof_H 	H 	0.1976	0.8561	0.5996	0.07
Mof_H 	H 	0.6953	0.9385	0.0801	0.065
Mof_H 	H 	0.1691	0.3369	0.6196	0.039
Mof_H 	H 	0.006	0.2595	0.4133	0.051
Mof_H 	H 	0.3543	0.4537	0.7203	0.06
Mof_H 	H 	0.8741	0.183	0.8307	0.038
Mof_H 	H 	0.0092	0.2527	0.3385	0.04
Mof_H 	H 	0.306	0.4936	0.596	0.028
Mof_H 	H 	0.2278	0.4206	0.5891	0.059
Mof_H 	H 	0.281	0.7867	0.6044	0.019
Mof_C 	C 	0.5135	0.6575	0.2791	0.418
Mof_C 	C 	0.5156	0.622	0.9001	0.057
Mof_C 	C 	0.5165	0.6191	0.8532	-0.058
Mof_C 	C 	0.4669	0.6503	0.4002	0.024
Mof_C 	C 	0.5197	0.6607	0.3278	-0.112
Mof_C 	C 	0.7949	0.8927	0.6474	0.03
Mof_C 	C 	0.8403	0.9395	0.6446	-0.04
Mof_C 	C 	0.4819	0.651	0.4936	-0.095
Mof_C 	C 	0.1946	0.4224	0.1724	0.016
Mof_C 	C 	0.6974	0.8017	0.6549	-0.105
Mof_C 	C 	0.6846	0.4948	0.6463	-0.102
Mof_C 	C 	0.5406	0.6624	0.4672	-0.032
Mof_C 	C 	0.7313	0.4076	0.6745	0.012
Mof_C 	C 	0.5333	0.663	0.4206	0.027
Mof_C 	C 	0.6846	0.4547	0.6789	-0.028
Mof_C 	C 	0.4071	0.6376	0.4283	-0.096
Mof_C 	C 	0.147	0.3772	0.1766	-0.016
Mof_C 	C 	0.462	0.649	0.3539	-0.022
Mof_C 	C 	0.778	0.4018	0.6374	0.039
Mof_C 	C 	0.5947	0.6757	0.3934	-0.095
Mof_C 	C 	0.6848	0.8523	0.6778	-0.028
Mof_C 	C 	0.8789	0.0384	0.6636	0.386
Mof_C 	C 	0.7735	0.3194	0.7009	-0.01
Mof_C 	C 	0.5185	0.5758	0.9693	0.097
Mof_C 	C 	0.7309	0.365	0.7058	-0.072
Mof_C 	C 	0.7305	0.8998	0.6734	0.016
Mof_C 	C 	0.3053	0.4586	0.141	-0.034
Mof_C 	C 	0.2361	0.8681	0.2264	-0.095
Mof_C 	C 	0.1533	0.3274	0.1518	-0.118
Mof_C 	C 	0.3193	0.8127	0.1809	-0.115
Mof_C 	C 	0.8247	0.3544	0.6343	-0.061
Mof_C 	C 	0.8281	0.9889	0.6672	-0.085
Mof_C 	C 	0.2832	0.8226	0.2222	0.025
Mof_C 	C 	0.3007	0.507	0.1679	-0.095
Mof_C 	C 	0.522	0.5717	0.9245	-0.145
Mof_C 	C 	0.2538	0.4153	0.143	0.033
Mof_C 	C 	0.224	0.9024	0.1902	0.031
Mof_C 	C 	0.5103	0.6674	0.8298	-0.08
Mof_C 	C 	0.1033	0.2789	0.1561	0.41
Mof_C 	C 	0.1908	0.4734	0.1998	-0.088
Mof_C 	C 	0.241	0.5146	0.1976	0.019
Mof_C 	C 	0.7308	0.488	0.6102	0.032
Mof_C 	C 	0.2602	0.8924	0.1513	0.013
Mof_C 	C 	0.7173	0.9523	0.6961	-0.088
Mof_C 	C 	0.4146	0.6399	0.4733	0.026
Mof_C 	C 	0.1076	0.0277	0.163	0.379
Mof_C 	C 	0.7634	0.9969	0.693	0.008
Mof_C 	C 	0.7597	0.7949	0.6278	0.025
Mof_C 	C 	0.5038	0.6762	0.9703	0.013
Mof_C 	C 	0.8073	0.8386	0.6246	-0.102
Mof_C 	C 	0.1606	0.9801	0.1584	-0.099
Mof_C 	C 	0.2628	0.3619	0.1181	-0.105
Mof_C 	C 	0.5073	0.6748	0.9237	-0.015
Mof_C 	C 	0.3716	0.7641	0.1774	0.424
Mof_C 	C 	0.7755	0.4427	0.6051	-0.111
Mof_C 	C 	0.3078	0.8452	0.1466	-0.016
Mof_C 	C 	0.4991	0.7241	0.8984	-0.072
Mof_C 	C 	0.1716	0.9471	0.1942	-0.035
Mof_C 	C 	0.5868	0.6746	0.3484	0.031
Mof_C 	C 	0.4987	0.7203	0.8539	-0.001
Mof_C 	C 	0.508	0.6288	0.9924	-0.15
Mof_C 	C 	0.2003	0.9702	0.1195	0.022
Mof_C 	C 	0.8211	0.3124	0.664	-0.051
Mof_C 	C 	0.2475	0.9274	0.1156	-0.095
Mof_C 	C 	0.8709	0.2636	0.6607	0.292
Mof_C 	C 	0.5043	0.6313	0.0422	0.43
Mof_C 	C 	0.3567	0.5519	0.1656	0.396
Mof_C 	C 	0.6449	0.7541	0.6581	0.403
Mof_C 	C 	0.5107	0.6634	0.7804	0.374
Mof_C 	C 	0.4905	0.6499	0.5433	0.403
Mof_C 	C 	0.6346	0.5445	0.6517	0.393
Mof_C 	C 	0.2139	0.3204	0.1216	0.032
Mof_C 	C 	0.9865	0.1575	0.7791	0.418
Mof_C 	C 	0.9844	0.122	0.4001	0.057
Mof_C 	C 	0.9835	0.1191	0.3532	-0.058
Mof_C 	C 	0.0331	0.1503	0.9002	0.024
Mof_C 	C 	0.9803	0.1607	0.8278	-0.111
Mof_C 	C 	0.7051	0.3927	0.1474	0.03
Mof_C 	C 	0.6597	0.4395	0.1446	-0.04
Mof_C 	C 	0.0181	0.151	0.9936	-0.095
Mof_C 	C 	0.3054	0.9224	0.6724	0.016
Mof_C 	C 	0.8026	0.3017	0.1549	-0.105
Mof_C 	C 	0.8154	0.9948	0.1463	-0.102
Mof_C 	C 	0.9594	0.1624	0.9672	-0.032
Mof_C 	C 	0.7687	0.9076	0.1745	0.012
Mof_C 	C 	0.9667	0.163	0.9206	0.027
Mof_C 	C 	0.8154	0.9547	0.1789	-0.028
Mof_C 	C 	0.0929	0.1376	0.9283	-0.096
Mof_C 	C 	0.353	0.8772	0.6766	-0.016
Mof_C 	C 	0.038	0.149	0.8539	-0.022
Mof_C 	C 	0.722	0.9018	0.1374	0.039
Mof_C 	C 	0.9053	0.1757	0.8934	-0.094
Mof_C 	C 	0.8152	0.3523	0.1778	-0.028
Mof_C 	C 	0.6211	0.5384	0.1636	0.386
Mof_C 	C 	0.7265	0.8194	0.2009	-0.01
Mof_C 	C 	0.9815	0.0758	0.4693	0.096
Mof_C 	C 	0.7691	0.865	0.2058	-0.072
Mof_C 	C 	0.7695	0.3998	0.1734	0.016
Mof_C 	C 	0.1947	0.9586	0.641	-0.034
Mof_C 	C 	0.2639	0.3681	0.7264	-0.095
Mof_C 	C 	0.3467	0.8274	0.6518	-0.118
Mof_C 	C 	0.1807	0.3127	0.6809	-0.115
Mof_C 	C 	0.6753	0.8544	0.1343	-0.061
Mof_C 	C 	0.6719	0.4889	0.1672	-0.085
Mof_C 	C 	0.2168	0.3226	0.7222	0.025
Mof_C 	C 	0.1993	0.007	0.6679	-0.095
Mof_C 	C 	0.978	0.0717	0.4245	-0.144
Mof_C 	C 	0.2462	0.9153	0.643	0.033
Mof_C 	C 	0.276	0.4024	0.6902	0.031
Mof_C 	C 	0.9897	0.1674	0.3298	-0.08
Mof_C 	C 	0.3967	0.7789	0.6561	0.41
Mof_C 	C 	0.3092	0.9734	0.6998	-0.088
Mof_C 	C 	0.259	0.0146	0.6976	0.019
Mof_C 	C 	0.7692	0.988	0.1102	0.032
Mof_C 	C 	0.2398	0.3924	0.6513	0.013
Mof_C 	C 	0.7827	0.4523	0.1961	-0.089
Mof_C 	C 	0.0854	0.1399	0.9733	0.026
Mof_C 	C 	0.3924	0.5277	0.663	0.379
Mof_C 	C 	0.7366	0.4969	0.193	0.008
Mof_C 	C 	0.7403	0.2949	0.1278	0.025
Mof_C 	C 	0.9962	0.1762	0.4703	0.013
Mof_C 	C 	0.6927	0.3386	0.1246	-0.102
Mof_C 	C 	0.3394	0.4801	0.6584	-0.099
Mof_C 	C 	0.2372	0.8619	0.6181	-0.106
Mof_C 	C 	0.9927	0.1748	0.4237	-0.015
Mof_C 	C 	0.1284	0.2641	0.6774	0.424
Mof_C 	C 	0.7245	0.9427	0.1051	-0.112
Mof_C 	C 	0.1922	0.3452	0.6466	-0.016
Mof_C 	C 	0.0009	0.2241	0.3984	-0.072
Mof_C 	C 	0.3284	0.4471	0.6942	-0.035
Mof_C 	C 	0.9132	0.1746	0.8484	0.031
Mof_C 	C 	0.0013	0.2203	0.3539	-0.001
Mof_C 	C 	0.992	0.1288	0.4924	-0.149
Mof_C 	C 	0.2997	0.4702	0.6195	0.022
Mof_C 	C 	0.6789	0.8124	0.164	-0.051
Mof_C 	C 	0.2525	0.4274	0.6156	-0.095
Mof_C 	C 	0.6291	0.7636	0.1607	0.291
Mof_C 	C 	0.9957	0.1313	0.5422	0.429
Mof_C 	C 	0.1433	0.0519	0.6656	0.396
Mof_C 	C 	0.8551	0.2541	0.1581	0.403
Mof_C 	C 	0.9893	0.1634	0.2804	0.374
Mof_C 	C 	0.0095	0.1499	0.0433	0.403
Mof_C 	C 	0.8654	0.0445	0.1517	0.393
Mof_C 	C 	0.2861	0.8204	0.6216	0.032
Mof_O 	O 	0.4362	0.6423	0.5646	-0.493
Mof_O 	O 	0.5682	0.6644	0.2569	-0.51
Mof_O 	O 	0.3518	0.5946	0.192	-0.504
Mof_O 	O 	0.5094	0.7099	0.7611	-0.502
Mof_O 	O 	0.598	0.76	0.6874	-0.503
Mof_O 	O 	0.9317	0.0302	0.6396	-0.506
Mof_O 	O 	0.364	0.7263	0.2054	-0.505
Mof_O 	O 	0.4526	0.6484	0.2623	-0.504
Mof_O 	O 	0.4952	0.5848	0.0602	-0.505
Mof_O 	O 	0.0608	0.2825	0.1882	-0.51
Mof_O 	O 	0.0658	0.0303	0.1961	-0.495
Mof_O 	O 	0.9191	0.2643	0.6298	-0.471
Mof_O 	O 	0.8505	0.22	0.6846	-0.465
Mof_O 	O 	0.862	0.085	0.6849	-0.504
Mof_O 	O 	0.5101	0.6777	0.0625	-0.559
Mof_O 	O 	0.5959	0.5481	0.6857	-0.5
Mof_O 	O 	0.4136	0.7614	0.1463	-0.565
Mof_O 	O 	0.5002	0.6532	0.6605	-0.953
Mof_O 	O 	0.4979	0.6559	0.1588	-0.959
Mof_O 	O 	0.5135	0.6147	0.7615	-0.505
Mof_O 	O 	0.6359	0.5799	0.622	-0.495
Mof_O 	O 	0.6504	0.7119	0.6313	-0.492
Mof_O 	O 	0.4055	0.5431	0.1374	-0.507
Mof_O 	O 	0.5542	0.6574	0.558	-0.488
Mof_O 	O 	0.1069	0.2379	0.1291	-0.526
Mof_O 	O 	0.1091	0.0623	0.1335	-0.517
Mof_O 	O 	0.0638	0.1423	0.0646	-0.493
Mof_O 	O 	0.9318	0.1644	0.7569	-0.51
Mof_O 	O 	0.1482	0.0946	0.692	-0.504
Mof_O 	O 	0.9906	0.2099	0.2611	-0.502
Mof_O 	O 	0.902	0.26	0.1874	-0.503
Mof_O 	O 	0.5683	0.5302	0.1396	-0.506
Mof_O 	O 	0.136	0.2263	0.7054	-0.505
Mof_O 	O 	0.0474	0.1484	0.7623	-0.504
Mof_O 	O 	0.0048	0.0848	0.5602	-0.505
Mof_O 	O 	0.4392	0.7825	0.6882	-0.51
Mof_O 	O 	0.4342	0.5303	0.6961	-0.496
Mof_O 	O 	0.5809	0.7643	0.1298	-0.471
Mof_O 	O 	0.6495	0.72	0.1846	-0.465
Mof_O 	O 	0.638	0.585	0.1849	-0.504
Mof_O 	O 	0.9899	0.1777	0.5625	-0.559
Mof_O 	O 	0.9041	0.0481	0.1857	-0.5
Mof_O 	O 	0.0864	0.2614	0.6463	-0.564
Mof_O 	O 	0.9998	0.1532	0.1605	-0.953
Mof_O 	O 	0.0021	0.1559	0.6588	-0.959
Mof_O 	O 	0.9865	0.1147	0.2615	-0.505
Mof_O 	O 	0.8641	0.0799	0.122	-0.495
Mof_O 	O 	0.8496	0.2119	0.1313	-0.492
Mof_O 	O 	0.0945	0.0431	0.6374	-0.507
Mof_O 	O 	0.9458	0.1574	0.058	-0.488
Mof_O 	O 	0.3931	0.7379	0.6291	-0.527
Mof_O 	O 	0.3909	0.5623	0.6335	-0.517
Mof_Zn	Zn	0.07939	0.85006	0.88014	1.215
Mof_Zn	Zn	0.92	0.84251	0.29906	1.211
Mof_Zn	Zn	0.00587	0.91041	0.80133	1.207
Mof_Zn	Zn	0.00557	0.77807	0.8024	1.21
Mof_Zn	Zn	0.50794	0.28041	0.88111	1.21
Mof_Zn	Zn	0.50607	0.41528	0.87587	1.21
Mof_Zn	Zn	0.08686	0.84231	0.3079	1.209
Mof_Zn	Zn	0.90242	0.85	0.86958	1.179
Mof_Zn	Zn	0.42061	0.35006	0.38014	1.215
Mof_Zn	Zn	0.58	0.34251	0.79906	1.211
Mof_Zn	Zn	0.49413	0.41041	0.30133	1.207
Mof_Zn	Zn	0.49443	0.27807	0.3024	1.21
Mof_Zn	Zn	0.99206	0.78041	0.38111	1.21
Mof_Zn	Zn	0.99393	0.91528	0.37587	1.21
Mof_Zn	Zn	0.41314	0.34231	0.8079	1.209
Mof_Zn	Zn	0.59758	0.35	0.36958	1.179
Mof_H 	H 	0.0213	0.916	0.6622	0.07
Mof_H 	H 	0.3805	0.5639	0.8736	0.063
Mof_H 	H 	0.0851	0.8304	0.0196	0.058
Mof_H 	H 	0.1541	0.0409	0.7967	0.059
Mof_H 	H 	0.863	0.8721	0.0844	0.069
Mof_H 	H 	0.6097	0.1187	0.3029	0.051
Mof_H 	H 	0.9183	0.86	0.1596	0.057
Mof_H 	H 	0.1389	0.8156	0.0935	0.065
Mof_H 	H 	0.1453	0.6442	0.8033	0.052
Mof_H 	H 	0.2721	0.208	0.7782	0.052
Mof_H 	H 	0.2004	0.1312	0.7698	0.061
Mof_H 	H 	0.8431	0.0458	0.3791	0.058
Mof_H 	H 	0.7123	0.624	0.2468	0.065
Mof_H 	H 	0.3585	0.1485	0.8885	0.062
Mof_H 	H 	0.7911	0.7006	0.2544	0.038
Mof_H 	H 	0.0285	0.9635	0.5904	0.085
Mof_H 	H 	0.6529	0.0214	0.2803	0.062
Mof_H 	H 	0.7368	0.9521	0.2846	0.037
Mof_H 	H 	0.2311	0.9848	0.911	0.031
Mof_H 	H 	0.1764	0.5432	0.7863	0.059
Mof_H 	H 	0.8747	0.866	0.009	0.03
Mof_H 	H 	0.2533	0.4681	0.7926	0.038
Mof_H 	H 	0.2681	0.7395	0.888	0.033
Mof_H 	H 	0.9985	0.789	0.5139	0.029
Mof_H 	H 	0.3484	0.6669	0.8927	0.069
Mof_H 	H 	0.8024	0.1439	0.4004	0.07
Mof_H 	H 	0.3047	0.0615	0.9199	0.065
Mof_H 	H 	0.8309	0.6631	0.3804	0.039
Mof_H 	H 	0.994	0.7405	0.5867	0.051
Mof_H 	H 	0.6457	0.5463	0.2797	0.06
Mof_H 	H 	0.1259	0.817	0.1693	0.038
Mof_H 	H 	0.9908	0.7473	0.6615	0.04
Mof_H 	H 	0.694	0.5064	0.404	0.028
Mof_H 	H 	0.7722	0.5794	0.4109	0.059
Mof_H 	H 	0.719	0.2133	0.3956	0.019
Mof_H 	H 	0.4787	0.416	0.1622	0.07
Mof_H 	H 	0.1195	0.0639	0.3736	0.063
Mof_H 	H 	0.4149	0.3304	0.5196	0.058
Mof_H 	H 	0.3459	0.5409	0.2967	0.059
Mof_H 	H 	0.637	0.3721	0.5844	0.069
Mof_H 	H 	0.8903	0.6187	0.8029	0.051
Mof_H 	H 	0.5817	0.36	0.6596	0.057
Mof_H 	H 	0.3611	0.3156	0.5935	0.065
Mof_H 	H 	0.3547	0.1442	0.3033	0.052
Mof_H 	H 	0.2279	0.708	0.2782	0.052
Mof_H 	H 	0.2996	0.6312	0.2698	0.061
Mof_H 	H 	0.6569	0.5458	0.8791	0.058
Mof_H 	H 	0.7877	0.124	0.7468	0.065
Mof_H 	H 	0.1415	0.6485	0.3885	0.062
Mof_H 	H 	0.7089	0.2006	0.7544	0.038
Mof_H 	H 	0.4715	0.4635	0.0904	0.086
Mof_H 	H 	0.8471	0.5214	0.7803	0.063
Mof_H 	H 	0.7632	0.4521	0.7846	0.037
Mof_H 	H 	0.2689	0.4848	0.411	0.031
Mof_H 	H 	0.3236	0.0432	0.2863	0.059
Mof_H 	H 	0.6253	0.366	0.509	0.03
Mof_H 	H 	0.2467	0.9681	0.2926	0.038
Mof_H 	H 	0.2319	0.2395	0.388	0.033
Mof_H 	H 	0.5015	0.289	0.0139	0.029
Mof_H 	H 	0.1516	0.1669	0.3927	0.069
Mof_H 	H 	0.6976	0.6439	0.9004	0.07
Mof_H 	H 	0.1953	0.5615	0.4199	0.065
Mof_H 	H 	0.6691	0.1631	0.8804	0.038
Mof_H 	H 	0.506	0.2405	0.0867	0.05
Mof_H 	H 	0.8543	0.0463	0.7797	0.06
Mof_H 	H 	0.3741	0.317	0.6693	0.038
Mof_H 	H 	0.5092	0.2473	0.1615	0.04
Mof_H 	H 	0.806	0.0064	0.904	0.028
Mof_H 	H 	0.7278	0.0794	0.9109	0.059
Mof_H 	H 	0.781	0.7133	0.8956	0.019
Mof_C 	C 	0.0135	0.8425	0.2209	0.418
Mof_C 	C 	0.0156	0.878	0.5999	0.057
Mof_C 	C 	0.0165	0.8809	0.6468	-0.058
Mof_C 	C 	0.9669	0.8497	0.0998	0.024
Mof_C 	C 	0.0197	0.8393	0.1722	-0.111
Mof_C 	C 	0.2949	0.6073	0.8526	0.03
Mof_C 	C 	0.3403	0.5605	0.8554	-0.04
Mof_C 	C 	0.9819	0.849	0.0064	-0.095
Mof_C 	C 	0.6946	0.0776	0.3276	0.016
Mof_C 	C 	0.1974	0.6983	0.8451	-0.105
Mof_C 	C 	0.1846	0.0052	0.8537	-0.102
Mof_C 	C 	0.0406	0.8376	0.0328	-0.032
Mof_C 	C 	0.2313	0.0924	0.8255	0.012
Mof_C 	C 	0.0333	0.837	0.0794	0.027
Mof_C 	C 	0.1846	0.0453	0.8211	-0.028
Mof_C 	C 	0.9071	0.8624	0.0717	-0.096
Mof_C 	C 	0.647	0.1228	0.3234	-0.016
Mof_C 	C 	0.962	0.851	0.1461	-0.022
Mof_C 	C 	0.278	0.0982	0.8626	0.039
Mof_C 	C 	0.0947	0.8243	0.1066	-0.094
Mof_C 	C 	0.1848	0.6477	0.8222	-0.028
Mof_C 	C 	0.3789	0.4616	0.8364	0.386
Mof_C 	C 	0.2735	0.1806	0.7991	-0.01
Mof_C 	C 	0.0185	0.9242	0.5307	0.096
Mof_C 	C 	0.2309	0.135	0.7942	-0.072
Mof_C 	C 	0.2305	0.6002	0.8266	0.016
Mof_C 	C 	0.8053	0.0414	0.359	-0.034
Mof_C 	C 	0.7361	0.6319	0.2736	-0.095
Mof_C 	C 	0.6533	0.1726	0.3482	-0.118
Mof_C 	C 	0.8193	0.6873	0.3191	-0.115
Mof_C 	C 	0.3247	0.1456	0.8657	-0.061
Mof_C 	C 	0.3281	0.5111	0.8328	-0.085
Mof_C 	C 	0.7832	0.6774	0.2778	0.025
Mof_C 	C 	0.8007	0.993	0.3321	-0.095
Mof_C 	C 	0.022	0.9283	0.5755	-0.144
Mof_C 	C 	0.7538	0.0847	0.357	0.033
Mof_C 	C 	0.724	0.5976	0.3098	0.031
Mof_C 	C 	0.0103	0.8326	0.6702	-0.08
Mof_C 	C 	0.6033	0.2211	0.3439	0.41
Mof_C 	C 	0.6908	0.0266	0.3002	-0.088
Mof_C 	C 	0.741	0.9854	0.3024	0.019
Mof_C 	C 	0.2308	0.012	0.8898	0.032
Mof_C 	C 	0.7602	0.6076	0.3487	0.013
Mof_C 	C 	0.2173	0.5477	0.8039	-0.089
Mof_C 	C 	0.9146	0.8601	0.0267	0.026
Mof_C 	C 	0.6076	0.4723	0.337	0.379
Mof_C 	C 	0.2634	0.5031	0.807	0.008
Mof_C 	C 	0.2597	0.7051	0.8722	0.025
Mof_C 	C 	0.0038	0.8238	0.5297	0.013
Mof_C 	C 	0.3073	0.6614	0.8754	-0.102
Mof_C 	C 	0.6606	0.5199	0.3416	-0.099
Mof_C 	C 	0.7628	0.1381	0.3819	-0.106
Mof_C 	C 	0.0073	0.8252	0.5763	-0.015
Mof_C 	C 	0.8716	0.7359	0.3226	0.424
Mof_C 	C 	0.2755	0.0573	0.8949	-0.112
Mof_C 	C 	0.8078	0.6548	0.3534	-0.016
Mof_C 	C 	0.9991	0.7759	0.6016	-0.072
Mof_C 	C 	0.6716	0.5529	0.3058	-0.035
Mof_C 	C 	0.0868	0.8254	0.1516	0.031
Mof_C 	C 	0.9987	0.7797	0.6461	-0.001
Mof_C 	C 	0.008	0.8712	0.5076	-0.149
Mof_C 	C 	0.7003	0.5298	0.3805	0.022
Mof_C 	C 	0.3211	0.1876	0.836	-0.051
Mof_C 	C 	0.7475	0.5726	0.3844	-0.095
Mof_C 	C 	0.3709	0.2364	0.8393	0.291
Mof_C 	C 	0.0043	0.8687	0.4578	0.429
Mof_C 	C 	0.8567	0.9481	0.3344	0.396
Mof_C 	C 	0.1449	0.7459	0.8419	0.403
Mof_C 	C 	0.0107	0.8366	0.7196	0.374
Mof_C 	C 	0.9905	0.8501	0.9567	0.403
Mof_C 	C 	0.1346	0.9555	0.8483	0.393
Mof_C 	C 	0.7139	0.1796	0.3784	0.032
Mof_C 	C 	0.4865	0.3425	0.7209	0.418
Mof_C 	C 	0.4844	0.378	0.0999	0.057
Mof_C 	C 	0.4835	0.3809	0.1468	-0.058
Mof_C 	C 	0.5331	0.3497	0.5998	0.024
Mof_C 	C 	0.4803	0.3393	0.6722	-0.112
Mof_C 	C 	0.2051	0.1073	0.3526	0.03
Mof_C 	C 	0.1597	0.0605	0.3554	-0.04
Mof_C 	C 	0.5181	0.349	0.5064	-0.095
Mof_C 	C 	0.8054	0.5776	0.8276	0.016
Mof_C 	C 	0.3026	0.1983	0.3451	-0.105
Mof_C 	C 	0.3154	0.5052	0.3537	-0.102
Mof_C 	C 	0.4594	0.3376	0.5328	-0.032
Mof_C 	C 	0.2687	0.5924	0.3255	0.012
Mof_C 	C 	0.4667	0.337	0.5794	0.027
Mof_C 	C 	0.3154	0.5453	0.3211	-0.028
Mof_C 	C 	0.5929	0.3624	0.5717	-0.096
Mof_C 	C 	0.853	0.6228	0.8234	-0.016
Mof_C 	C 	0.538	0.351	0.6461	-0.022
Mof_C 	C 	0.222	0.5982	0.3626	0.039
Mof_C 	C 	0.4053	0.3243	0.6066	-0.095
Mof_C 	C 	0.3152	0.1477	0.3222	-0.028
Mof_C 	C 	0.1211	0.9616	0.3364	0.386
Mof_C 	C 	0.2265	0.6806	0.2991	-0.01
Mof_C 	C 	0.4815	0.4242	0.0307	0.097
Mof_C 	C 	0.2691	0.635	0.2942	-0.072
Mof_C 	C 	0.2695	0.1002	0.3266	0.016
Mof_C 	C 	0.6947	0.5414	0.859	-0.034
Mof_C 	C 	0.7639	0.1319	0.7736	-0.095
Mof_C 	C 	0.8467	0.6726	0.8482	-0.118
Mof_C 	C 	0.6807	0.1873	0.8191	-0.115
Mof_C 	C 	0.1753	0.6456	0.3657	-0.061
Mof_C 	C 	0.1719	0.0111	0.3328	-0.085
Mof_C 	C 	0.7168	0.1774	0.7778	0.025
Mof_C 	C 	0.6993	0.493	0.8321	-0.095
Mof_C 	C 	0.478	0.4283	0.0755	-0.145
Mof_C 	C 	0.7462	0.5847	0.857	0.033
Mof_C 	C 	0.776	0.0976	0.8098	0.031
Mof_C 	C 	0.4897	0.3326	0.1702	-0.08
Mof_C 	C 	0.8967	0.7211	0.8439	0.41
Mof_C 	C 	0.8092	0.5266	0.8002	-0.088
Mof_C 	C 	0.759	0.4854	0.8024	0.019
Mof_C 	C 	0.2692	0.512	0.3898	0.032
Mof_C 	C 	0.7398	0.1076	0.8487	0.013
Mof_C 	C 	0.2827	0.0477	0.3039	-0.088
Mof_C 	C 	0.5854	0.3601	0.5267	0.026
Mof_C 	C 	0.8924	0.9723	0.837	0.379
Mof_C 	C 	0.2366	0.0031	0.307	0.008
Mof_C 	C 	0.2403	0.2051	0.3722	0.025
Mof_C 	C 	0.4962	0.3238	0.0297	0.013
Mof_C 	C 	0.1927	0.1614	0.3754	-0.102
Mof_C 	C 	0.8394	0.0199	0.8416	-0.099
Mof_C 	C 	0.7372	0.6381	0.8819	-0.105
Mof_C 	C 	0.4927	0.3252	0.0763	-0.015
Mof_C 	C 	0.6284	0.2359	0.8226	0.424
Mof_C 	C 	0.2245	0.5573	0.3949	-0.111
Mof_C 	C 	0.6922	0.1548	0.8534	-0.016
Mof_C 	C 	0.5009	0.2759	0.1016	-0.072
Mof_C 	C 	0.8284	0.0529	0.8058	-0.035
Mof_C 	C 	0.4132	0.3254	0.6516	0.031
Mof_C 	C 	0.5013	0.2797	0.1461	-0.001
Mof_C 	C 	0.492	0.3712	0.0076	-0.15
Mof_C 	C 	0.7997	0.0298	0.8805	0.022
Mof_C 	C 	0.1789	0.6876	0.336	-0.051
Mof_C 	C 	0.7525	0.0726	0.8844	-0.095
Mof_C 	C 	0.1291	0.7364	0.3393	0.292
Mof_C 	C 	0.4957	0.3687	0.9578	0.43
Mof_C 	C 	0.6433	0.4481	0.8344	0.396
Mof_C 	C 	0.3551	0.2459	0.3419	0.403
Mof_C 	C 	0.4893	0.3366	0.2196	0.374
Mof_C 	C 	0.5095	0.3501	0.4567	0.403
Mof_C 	C 	0.3654	0.4555	0.3483	0.393
Mof_C 	C 	0.7861	0.6796	0.8784	0.032
Mof_O 	O 	0.9362	0.8577	0.9354	-0.493
Mof_O 	O 	0.0682	0.8356	0.2431	-0.51
Mof_O 	O 	0.8518	0.9054	0.308	-0.504
Mof_O 	O 	0.0094	0.7901	0.7389	-0.502
Mof_O 	O 	0.098	0.74	0.8126	-0.503
Mof_O 	O 	0.4317	0.4698	0.8604	-0.506
Mof_O 	O 	0.864	0.7737	0.2946	-0.505
Mof_O 	O 	0.9526	0.8516	0.2377	-0.504
Mof_O 	O 	0.9952	0.9152	0.4398	-0.505
Mof_O 	O 	0.5608	0.2175	0.3118	-0.51
Mof_O 	O 	0.5658	0.4697	0.3039	-0.496
Mof_O 	O 	0.4191	0.2357	0.8702	-0.471
Mof_O 	O 	0.3505	0.28	0.8154	-0.465
Mof_O 	O 	0.362	0.415	0.8151	-0.504
Mof_O 	O 	0.0101	0.8223	0.4375	-0.559
Mof_O 	O 	0.0959	0.9519	0.8143	-0.5
Mof_O 	O 	0.9136	0.7386	0.3537	-0.564
Mof_O 	O 	0.0002	0.8468	0.8395	-0.953
Mof_O 	O 	0.9979	0.8441	0.3412	-0.959
Mof_O 	O 	0.0135	0.8853	0.7385	-0.505
Mof_O 	O 	0.1359	0.9201	0.878	-0.495
Mof_O 	O 	0.1504	0.7881	0.8687	-0.492
Mof_O 	O 	0.9055	0.9569	0.3626	-0.507
Mof_O 	O 	0.0542	0.8426	0.942	-0.488
Mof_O 	O 	0.6069	0.2621	0.3709	-0.527
Mof_O 	O 	0.6091	0.4377	0.3665	-0.517
Mof_O 	O 	0.5638	0.3577	0.4354	-0.493
Mof_O 	O 	0.4318	0.3356	0.7431	-0.51
Mof_O 	O 	0.6482	0.4054	0.808	-0.504
Mof_O 	O 	0.4906	0.2901	0.2389	-0.502
Mof_O 	O 	0.402	0.24	0.3126	-0.503
Mof_O 	O 	0.0683	0.9698	0.3604	-0.506
Mof_O 	O 	0.636	0.2737	0.7946	-0.505
Mof_O 	O 	0.5474	0.3516	0.7377	-0.504
Mof_O 	O 	0.5048	0.4152	0.9398	-0.505
Mof_O 	O 	0.9392	0.7175	0.8118	-0.51
Mof_O 	O 	0.9342	0.9697	0.8039	-0.495
Mof_O 	O 	0.0809	0.7357	0.3702	-0.471
Mof_O 	O 	0.1495	0.78	0.3154	-0.465
Mof_O 	O 	0.138	0.915	0.3151	-0.504
Mof_O 	O 	0.4899	0.3223	0.9375	-0.559
Mof_O 	O 	0.4041	0.4519	0.3143	-0.5
Mof_O 	O 	0.5864	0.2386	0.8537	-0.565
Mof_O 	O 	0.4998	0.3468	0.3395	-0.953
Mof_O 	O 	0.5021	0.3441	0.8412	-0.959
Mof_O 	O 	0.4865	0.3853	0.2385	-0.505
Mof_O 	O 	0.3641	0.4201	0.378	-0.495
Mof_O 	O 	0.3496	0.2881	0.3687	-0.492
Mof_O 	O 	0.5945	0.4569	0.8626	-0.507
Mof_O 	O 	0.4458	0.3426	0.442	-0.488
Mof_O 	O 	0.8931	0.7621	0.8709	-0.526
Mof_O 	O 	0.8909	0.9377	0.8665	-0.517
_end
