# CIF file generated by openbabel 3.1.0, see https://openbabel.org
data_I
_chemical_name_common 'ICIVAS_clean'
_cell_length_a 16.441
_cell_length_b 16.539
_cell_length_c 17.3292
_cell_angle_alpha 118.503
_cell_angle_beta 118.319
_cell_angle_gamma 90
_space_group_name_H-M_alt 'P 1'
_space_group_name_Hall 'P 1'
loop_
    _symmetry_equiv_pos_as_xyz
    x,y,z
loop_
    _atom_site_label
    _atom_site_type_symbol
    _atom_site_fract_x
    _atom_site_fract_y
    _atom_site_fract_z
    _atom_site_occupancy
    Na1      Na       0.37779    0.68759    0.38558    1.000
    Na2      Na       0.49155    0.47465    0.38370    1.000
    Na3      Na       0.59720    0.67480    0.38020    1.000
    Na4      Na       0.88146    0.48676    0.37372    1.000
    Na5      Na       0.00779    0.69799    0.38558    1.000
    Na6      Na       0.89215    0.90905    0.38370    1.000
    Na7      Na       0.78300    0.70540    0.38020    1.000
    Na8      Na       0.49226    0.88696    0.37372    1.000
    Na9      Na       0.62221    0.30201    0.61442    1.000
    Na10     Na       0.50845    0.09095    0.61630    1.000
    Na11     Na       0.40280    0.29460    0.61980    1.000
    Na12     Na       0.11854    0.11304    0.62628    1.000
    Na13     Na       0.99221    0.31241    0.61442    1.000
    Na14     Na       0.10785    0.52535    0.61630    1.000
    Na15     Na       0.21700    0.32520    0.61980    1.000
    Na16     Na       0.50774    0.51324    0.62628    1.000
    Ni1      Ni       0.93034    0.31543    0.24316    1.000
    Ni2      Ni       0.31004    0.30493    0.24524    1.000
    Ni3      Ni       0.31282    0.92773    0.24316    1.000
    Ni4      Ni       0.93520    0.94031    0.24524    1.000
    Ni5      Ni       0.06966    0.07227    0.75684    1.000
    Ni6      Ni       0.68996    0.05969    0.75476    1.000
    Ni7      Ni       0.68718    0.68457    0.75684    1.000
    Ni8      Ni       0.06480    0.69507    0.75476    1.000
    H1       H        0.11440    0.22120    0.24160    1.000
    H2       H        0.10000    0.17850    0.00080    1.000
    H3       H        0.74900    0.92970    0.86900    1.000
    H4       H        0.12720    0.02040    0.24160    1.000
    H5       H        0.90080    0.82230    0.00080    1.000
    H6       H        0.12000    0.93930    0.86900    1.000
    H7       H        0.88560    0.97960    0.75840    1.000
    H8       H        0.90000    0.17770    0.99920    1.000
    H9       H        0.25100    0.06070    0.13100    1.000
    H10      H        0.87280    0.77880    0.75840    1.000
    H11      H        0.09920    0.82150    0.99920    1.000
    H12      H        0.88000    0.07030    0.13100    1.000
    C1       C        0.17880    0.41260    0.27280    1.000
    C2       C        0.09560    0.41630    0.27440    1.000
    C3       C        0.12140    0.28180    0.25140    1.000
    C4       C        0.24910    0.47690    0.27900    1.000
    C5       C        0.03730    0.48420    0.28500    1.000
    C6       C        0.25220    0.18860    0.95080    1.000
    C7       C        0.15620    0.18900    0.00180    1.000
    C8       C        0.27230    0.16410    0.86740    1.000
    C9       C        0.60990    0.77300    0.64020    1.000
    C10      C        0.61350    0.85640    0.64040    1.000
    C11      C        0.70610    0.89340    0.79700    1.000
    C12      C        0.56200    0.66670    0.56060    1.000
    C13      C        0.56520    0.87890    0.55760    1.000
    C14      C        0.30630    0.23530    0.05740    1.000
    C15      C        0.41060    0.27530    0.13880    1.000
    C16      C        0.09400    0.86020    0.27280    1.000
    C17      C        0.17880    0.85810    0.27440    1.000
    C18      C        0.13000    0.96960    0.25140    1.000
    C19      C        0.02990    0.80210    0.27900    1.000
    C20      C        0.24770    0.80080    0.28500    1.000
    C21      C        0.69860    0.76220    0.95080    1.000
    C22      C        0.84560    0.81280    0.00180    1.000
    C23      C        0.59510    0.70330    0.86740    1.000
    C24      C        0.03030    0.86720    0.64020    1.000
    C25      C        0.02690    0.78400    0.64040    1.000
    C26      C        0.09090    0.90360    0.79700    1.000
    C27      C        0.99860    0.89390    0.56060    1.000
    C28      C        0.99240    0.67870    0.55760    1.000
    C29      C        0.75110    0.82210    0.05740    1.000
    C30      C        0.72820    0.86350    0.13880    1.000
    C31      C        0.82120    0.13980    0.72720    1.000
    C32      C        0.90440    0.14190    0.72560    1.000
    C33      C        0.87860    0.03040    0.74860    1.000
    C34      C        0.75090    0.19790    0.72100    1.000
    C35      C        0.96270    0.19920    0.71500    1.000
    C36      C        0.74780    0.23780    0.04920    1.000
    C37      C        0.84380    0.18720    0.99820    1.000
    C38      C        0.72770    0.29670    0.13260    1.000
    C39      C        0.39010    0.13280    0.35980    1.000
    C40      C        0.38650    0.21600    0.35960    1.000
    C41      C        0.29390    0.09640    0.20300    1.000
    C42      C        0.43800    0.10610    0.43940    1.000
    C43      C        0.43480    0.32130    0.44240    1.000
    C44      C        0.69370    0.17790    0.94260    1.000
    C45      C        0.58940    0.13650    0.86120    1.000
    C46      C        0.90600    0.58740    0.72720    1.000
    C47      C        0.82120    0.58370    0.72560    1.000
    C48      C        0.87000    0.71820    0.74860    1.000
    C49      C        0.97010    0.52310    0.72100    1.000
    C50      C        0.75230    0.51580    0.71500    1.000
    C51      C        0.30140    0.81140    0.04920    1.000
    C52      C        0.15440    0.81100    0.99820    1.000
    C53      C        0.40490    0.83590    0.13260    1.000
    C54      C        0.96970    0.22700    0.35980    1.000
    C55      C        0.97310    0.14360    0.35960    1.000
    C56      C        0.90910    0.10660    0.20300    1.000
    C57      C        0.00140    0.33330    0.43940    1.000
    C58      C        0.00760    0.12110    0.44240    1.000
    C59      C        0.24890    0.76470    0.94260    1.000
    C60      C        0.27180    0.72470    0.86120    1.000
    N1       N        0.19550    0.32710    0.25800    1.000
    N2       N        0.06030    0.33160    0.25980    1.000
    N3       N        0.15730    0.15820    0.91360    1.000
    N4       N        0.67040    0.79790    0.74160    1.000
    N5       N        0.67480    0.93110    0.74040    1.000
    N6       N        0.24220    0.23470    0.08760    1.000
    N7       N        0.06250    0.93090    0.25800    1.000
    N8       N        0.19950    0.92820    0.25980    1.000
    N9       N        0.75630    0.75540    0.91360    1.000
    N10      N        0.07120    0.94370    0.74160    1.000
    N11      N        0.06560    0.80930    0.74040    1.000
    N12      N        0.84540    0.85290    0.08760    1.000
    N13      N        0.80450    0.06910    0.74200    1.000
    N14      N        0.93970    0.07180    0.74020    1.000
    N15      N        0.84270    0.24460    0.08640    1.000
    N16      N        0.32960    0.05630    0.25840    1.000
    N17      N        0.32520    0.19070    0.25960    1.000
    N18      N        0.75780    0.14710    0.91240    1.000
    N19      N        0.93750    0.67290    0.74200    1.000
    N20      N        0.80050    0.66840    0.74020    1.000
    N21      N        0.24370    0.84180    0.08640    1.000
    N22      N        0.92880    0.20210    0.25840    1.000
    N23      N        0.93440    0.06890    0.25960    1.000
    N24      N        0.15460    0.76530    0.91240    1.000
    O1       O        0.31519    0.44269    0.26758    1.000
    O2       O        0.24100    0.55410    0.29060    1.000
    O3       O        0.95590    0.45300    0.26740    1.000
    O4       O        0.06840    0.57010    0.31400    1.000
    O5       O        0.20370    0.10440    0.77440    1.000
    O6       O        0.35350    0.19650    0.89020    1.000
    O7       O        0.58290    0.61310    0.59400    1.000
    O8       O        0.50570    0.63740    0.46580    1.000
    O9       O        0.42870    0.31350    0.23000    1.000
    O10      O        0.47140    0.27100    0.11840    1.000
    O11      O        0.58859    0.96759    0.59098    1.000
    O12      O        0.51020    0.81530    0.46380    1.000
    O13      O        0.59390    0.49840    0.32840    1.000
    O14      O        0.52160    0.73550    0.25640    1.000
    O15      O        0.95239    0.82489    0.26758    1.000
    O16      O        0.04960    0.73650    0.29060    1.000
    O17      O        0.31150    0.81440    0.26740    1.000
    O18      O        0.24560    0.74390    0.31400    1.000
    O19      O        0.57070    0.67000    0.77440    1.000
    O20      O        0.53670    0.69370    0.89020    1.000
    O21      O        0.01110    0.98090    0.59400    1.000
    O22      O        0.96010    0.82840    0.46580    1.000
    O23      O        0.80130    0.91650    0.23000    1.000
    O24      O        0.64700    0.84740    0.11840    1.000
    O25      O        0.00239    0.62339    0.59098    1.000
    O26      O        0.95360    0.64850    0.46380    1.000
    O27      O        0.73450    0.83000    0.32840    1.000
    O28      O        0.73480    0.52090    0.25640    1.000
    O29      O        0.68481    0.17511    0.73242    1.000
    O30      O        0.75900    0.26350    0.70940    1.000
    O31      O        0.04410    0.18560    0.73260    1.000
    O32      O        0.93160    0.25610    0.68600    1.000
    O33      O        0.79630    0.33000    0.22560    1.000
    O34      O        0.64650    0.30630    0.10980    1.000
    O35      O        0.41710    0.01910    0.40600    1.000
    O36      O        0.49430    0.17160    0.53420    1.000
    O37      O        0.57130    0.08350    0.77000    1.000
    O38      O        0.52860    0.15260    0.88160    1.000
    O39      O        0.41141    0.37661    0.40902    1.000
    O40      O        0.48980    0.35150    0.53620    1.000
    O41      O        0.40610    0.17000    0.67160    1.000
    O42      O        0.47840    0.47910    0.74360    1.000
    O43      O        0.04761    0.55731    0.73242    1.000
    O44      O        0.95040    0.44590    0.70940    1.000
    O45      O        0.68850    0.54700    0.73260    1.000
    O46      O        0.75440    0.42990    0.68600    1.000
    O47      O        0.42930    0.89560    0.22560    1.000
    O48      O        0.46330    0.80350    0.10980    1.000
    O49      O        0.98890    0.38690    0.40600    1.000
    O50      O        0.03990    0.36260    0.53420    1.000
    O51      O        0.19870    0.68650    0.77000    1.000
    O52      O        0.35300    0.72900    0.88160    1.000
    O53      O        0.99761    0.03241    0.40902    1.000
    O54      O        0.04640    0.18470    0.53620    1.000
    O55      O        0.26550    0.50160    0.67160    1.000
    O56      O        0.26520    0.26450    0.74360    1.000
