data_functionalizedCrystal
_audit_creation_method	'EQeq! by Chris Wilmer'
_symmetry_space_group_name_H-M	'P1'
_symmetry_Int_Tables_number	1
_symmetry_cell_setting	triclinic
loop_
_symmetry_equiv_pos_as_xyz
  x,y,z
_cell_length_a	22.9056
_cell_length_b	24.2276
_cell_length_c	24.8145
_cell_angle_alpha	61.777
_cell_angle_beta	63.599
_cell_angle_gamma	77.407
loop_
_atom_site_label
_atom_site_type_symbol
_atom_site_fract_x
_atom_site_fract_y
_atom_site_fract_z
_atom_site_charge
Mof_Cu	Cu	0.04632	0.89042	0.94921	0.899
Mof_Cu	Cu	0.03222	0.91565	0.8406	0.901
Mof_Cu	Cu	0.06949	0.35986	0.58604	0.926
Mof_Cu	Cu	0.98586	0.64772	0.77386	0.903
Mof_Cu	Cu	0.98452	0.52895	0.85619	0.926
Mof_Cu	Cu	0.3368	0.18944	0.27492	0.902
Mof_Cu	Cu	0.62023	0.11653	0.87658	0.915
Mof_Cu	Cu	0.05591	0.26645	0.56661	0.903
Mof_Cu	Cu	0.44737	0.24918	0.20482	0.904
Mof_Cu	Cu	0.7129	0.08636	0.78495	0.902
Mof_Cu	Cu	0.42672	0.77659	0.57067	0.9
Mof_Cu	Cu	0.31999	0.83051	0.55415	0.901
Mof_O 	O 	0.3142	0.4728	0.7694	-0.392
Mof_H 	H 	0.3062	0.4611	0.8089	0.246
Mof_O 	O 	0.9754	0.66034	0.84907	-0.402
Mof_O 	O 	0.0619	0.99879	0.81233	-0.388
Mof_O 	O 	0.0984	0.28949	0.65478	-0.374
Mof_O 	O 	0.0328	0.80341	0.97283	-0.397
Mof_O 	O 	0.9834	0.56014	0.91675	-0.389
Mof_O 	O 	0.6554	0.4807	0.0077	-0.427
Mof_H 	H 	0.658	0.4775	0.0409	0.257
Mof_O 	O 	0.4201	0.2805	0.7093	-0.396
Mof_H 	H 	0.397	0.2729	0.6962	0.249
Mof_O 	O 	0.0332	0.409	0.5174	-0.395
Mof_O 	O 	0.0047	0.82753	0.88799	-0.393
Mof_O 	O 	0.0177	0.5717	0.09764	-0.28
Mof_O 	O 	0.0778	0.21168	0.64243	-0.404
Mof_O 	O 	0.0334	0.33058	0.49377	-0.401
Mof_O 	O 	0.585	0.1637	0.808	-0.387
Mof_O 	O 	0.1387	0.88188	0.894	-0.388
Mof_O 	O 	0.0576	0.97981	0.91184	-0.398
Mof_O 	O 	0.3571	0.4716	0.3212	-0.321
Mof_H 	H 	0.3278	0.4966	0.3142	0.211
Mof_O 	O 	0.4681	0.2035	0.1508	-0.382
Mof_O 	O 	0.7586	0.1599	0.7602	-0.391
Mof_O 	O 	0.9437	0.9404	0.88633	-0.395
Mof_O 	O 	0.9087	0.576	0.3894	-0.284
Mof_O 	O 	0.0802	0.6355	0.7532	-0.394
Mof_O 	O 	0.0011	0.37702	0.29455	-0.385
Mof_O 	O 	0.94876	0.90131	0.9859	-0.406
Mof_O 	O 	0.0111	0.47947	0.22124	-0.364
Mof_O 	O 	0.3174	0.2368	0.3267	-0.399
Mof_O 	O 	0.9661	0.2707	0.6301	-0.404
Mof_O 	O 	0.8916	0.6357	0.81	-0.398
Mof_O 	O 	0.6927	0.737	0.7872	-0.391
Mof_O 	O 	0.6432	0.1862	0.5248	-0.396
Mof_O 	O 	0.3801	0.12436	0.3295	-0.403
Mof_O 	O 	0.5514	0.2316	0.5118	-0.396
Mof_O 	O 	0.5972	0.6856	0.8501	-0.38
Mof_O 	O 	0.1225	0.88748	0.80884	-0.393
Mof_O 	O 	0.8912	0.53701	0.8865	-0.374
Mof_O 	O 	0.0884	0.19322	0.8842	-0.429
Mof_H 	H 	0.0748	0.1673	0.9233	0.269
Mof_O 	O 	0.7469	0.0384	0.8546	-0.402
Mof_O 	O 	0.6647	0.1377	0.7298	-0.397
Mof_O 	O 	0.4258	0.9572	0.0948	-0.372
Mof_O 	O 	0.6664	0.0635	0.9337	-0.388
Mof_O 	O 	0.2991	0.83897	0.6355	-0.391
Mof_O 	O 	0.08	0.5324	0.8163	-0.376
Mof_O 	O 	0.981	0.3437	0.6527	-0.387
Mof_O 	O 	0.45909	0.86262	0.5166	-0.397
Mof_O 	O 	0.4098	0.29054	0.2642	-0.401
Mof_O 	O 	0.4737	0.1762	0.2718	-0.396
Mof_O 	O 	0.1494	0.28247	0.50613	-0.406
Mof_O 	O 	0.3683	0.90897	0.5	-0.389
Mof_O 	O 	0.3453	0.9831	0.175	-0.395
Mof_O 	O 	0.1559	0.36804	0.51581	-0.378
Mof_O 	O 	0.3902	0.791	0.6516	-0.396
Mof_O 	O 	0.3729	0.1526	0.2107	-0.401
Mof_O 	O 	0.3764	0.6975	0.6238	-0.391
Mof_O 	O 	0.679	0.185	0.8388	-0.383
Mof_O 	O 	0.362	0.7891	0.8649	-0.426
Mof_H 	H 	0.3655	0.8168	0.8734	0.259
Mof_O 	O 	0.5544	0.1557	0.9461	-0.357
Mof_O 	O 	0.2855	0.7446	0.6103	-0.399
Mof_O 	O 	0.6146	0.0397	0.3933	-0.443
Mof_H 	H 	0.6195	0.0768	0.3813	0.266
Mof_O 	O 	0.7644	0.3639	0.8258	-0.416
Mof_H 	H 	0.7706	0.4008	0.7989	0.255
Mof_O 	O 	0.7194	0.9295	0.1365	-0.409
Mof_H 	H 	0.6848	0.9135	0.1495	0.252
Mof_C 	C 	0.6886	0.5333	0.9543	0.313
Mof_C 	C 	0.5152	0.2237	0.7291	-0.162
Mof_H 	H 	0.4982	0.223	0.7711	0.128
Mof_C 	C 	0.4815	0.2539	0.6867	0.241
Mof_C 	C 	0.2785	0.5289	0.7479	0.245
Mof_C 	C 	0.9485	0.3033	0.6606	0.329
Mof_C 	C 	0.9835	0.6176	0.9	0.329
Mof_C 	C 	0.0633	0.0152	0.8537	0.311
Mof_C 	C 	0.3542	0.2792	0.3085	0.332
Mof_C 	C 	0.0157	0.79	0.9392	0.326
Mof_C 	C 	0.5994	0.1915	0.6455	-0.051
Mof_H 	H 	0.6395	0.172	0.6317	0.08
Mof_C 	C 	0.9944	0.7028	0.9245	-0.055
Mof_H 	H 	0.9895	0.7322	0.8856	0.081
Mof_C 	C 	0.1755	0.3286	0.4903	0.326
Mof_C 	C 	0.7338	0.1922	0.7929	0.317
Mof_C 	C 	0.3989	0.9931	0.1266	0.299
Mof_C 	C 	0.8637	0.5869	0.8559	0.313
Mof_C 	C 	0.0061	0.7215	0.9634	0.008
Mof_C 	C 	0.0865	0.1682	0.8454	0.294
Mof_C 	C 	0.9969	0.5942	0.0033	-0.165
Mof_H 	H 	0.9943	0.5516	0.0165	0.116
Mof_C 	C 	0.0893	0.2336	0.6728	0.332
Mof_C 	C 	0.9899	0.6377	0.9452	0.004
Mof_C 	C 	0.588	0.2117	0.5425	0.332
Mof_C 	C 	0.4267	0.1658	0.164	0.32
Mof_C 	C 	0.0141	0.6777	0.0213	-0.158
Mof_H 	H 	0.0236	0.6909	0.0461	0.127
Mof_C 	C 	0.0944	0.2094	0.7808	-0.195
Mof_H 	H 	0.1021	0.2514	0.7652	0.144
Mof_C 	C 	0.1571	0.8759	0.8409	0.322
Mof_C 	C 	0.4271	0.9089	0.4908	0.307
Mof_C 	C 	0.0005	0.4355	0.2784	0.303
Mof_C 	C 	0.9676	0.4849	0.4339	-0.168
Mof_H 	H 	0.9633	0.496	0.4666	0.119
Mof_C 	C 	0.1085	0.584	0.775	0.315
Mof_C 	C 	0.9994	0.429	0.4327	0.009
Mof_C 	C 	0.2687	0.3057	0.3998	-0.084
Mof_H 	H 	0.2462	0.2701	0.415	0.092
Mof_C 	C 	0.0777	0.1053	0.8686	-0.228
Mof_H 	H 	0.0735	0.0776	0.9118	0.129
Mof_C 	C 	0.081	0.1243	0.7623	-0.076
Mof_H 	H 	0.0786	0.1091	0.7352	0.09
Mof_C 	C 	0.2487	0.8487	0.7537	-0.058
Mof_H 	H 	0.2237	0.8623	0.7286	0.084
Mof_C 	C 	0.7198	0.0371	0.9106	0.321
Mof_C 	C 	0.0908	0.1888	0.7386	0.021
Mof_C 	C 	0.9858	0.4537	0.334	0.016
Mof_C 	C 	0.008	0.6145	0.0422	0.232
Mof_C 	C 	0.0233	0.3864	0.4869	0.332
Mof_C 	C 	0.3493	0.8022	0.7687	-0.179
Mof_H 	H 	0.3896	0.7832	0.7546	0.123
Mof_C 	C 	0.4163	0.0808	0.14	-0.064
Mof_H 	H 	0.382	0.0657	0.1817	0.084
Mof_C 	C 	0.7576	0.6366	0.8501	-0.095
Mof_H 	H 	0.7801	0.6727	0.8153	0.095
Mof_C 	C 	0.0751	0.0839	0.8278	0.04
Mof_C 	C 	0.0065	0.4123	0.3843	-0.062
Mof_H 	H 	0.0249	0.3738	0.3852	0.083
Mof_C 	C 	0.3362	0.8172	0.6676	0.303
Mof_C 	C 	0.4614	0.9707	0.4461	0.047
Mof_C 	C 	0.3266	0.3196	0.3458	0.023
Mof_C 	C 	0.4379	0.1299	0.3155	0.324
Mof_C 	C 	0.8481	0.9446	0.9771	0.031
Mof_C 	C 	0.2432	0.3442	0.4325	0.04
Mof_C 	C 	0.8166	0.9787	0.9339	-0.083
Mof_H 	H 	0.8381	0.9879	0.8888	0.09
Mof_C 	C 	0.7912	0.5858	0.8807	0.037
Mof_C 	C 	0.4686	0.0769	0.3613	0.049
Mof_C 	C 	0.8781	0.2976	0.7114	0.038
Mof_C 	C 	0.2246	0.8535	0.8138	0.01
Mof_C 	C 	0.2629	0.8356	0.8513	-0.181
Mof_H 	H 	0.2471	0.8403	0.8905	0.122
Mof_C 	C 	0.6914	0.6346	0.8703	0.054
Mof_C 	C 	0.3173	0.6979	0.635	0.337
Mof_C 	C 	0.9187	0.927	0.9479	0.315
Mof_C 	C 	0.9538	0.509	0.3323	-0.149
Mof_H 	H 	0.9401	0.5357	0.2982	0.12
Mof_C 	C 	0.3258	0.8105	0.8276	0.272
Mof_C 	C 	0.4344	0.0211	0.4071	-0.093
Mof_H 	H 	0.3927	0.0179	0.4113	0.095
Mof_C 	C 	0.6104	0.1629	0.753	0.328
Mof_C 	C 	0.4487	0.1337	0.1187	0.009
Mof_C 	C 	0.4338	0.05	0.101	0.016
Mof_C 	C 	0.3105	0.8233	0.7317	0.007
Mof_C 	C 	0.5569	0.0325	0.396	0.326
Mof_C 	C 	0.7529	0.2803	0.8059	-0.209
Mof_H 	H 	0.7102	0.2755	0.8374	0.145
Mof_C 	C 	0.2146	0.6379	0.7033	-0.055
Mof_H 	H 	0.1918	0.6743	0.6869	0.081
Mof_C 	C 	0.5646	0.2169	0.6055	-0.002
Mof_C 	C 	0.839	0.2514	0.7269	-0.087
Mof_H 	H 	0.8556	0.2256	0.705	0.091
Mof_C 	C 	0.511	0.1297	0.0126	0.254
Mof_C 	C 	0.9426	0.5238	0.3862	0.225
Mof_C 	C 	0.4959	0.1613	0.0531	-0.165
Mof_H 	H 	0.5163	0.1984	0.037	0.123
Mof_C 	C 	0.6567	0.6902	0.8335	0.301
Mof_C 	C 	0.7761	0.2431	0.7742	0.039
Mof_C 	C 	0.1811	0.5826	0.7495	0.016
Mof_C 	C 	0.2814	0.6401	0.681	-0.008
Mof_C 	C 	0.4833	0.0753	0.0351	-0.193
Mof_H 	H 	0.4962	0.0545	0.0082	0.127
Mof_C 	C 	0.3602	0.3744	0.3233	-0.207
Mof_H 	H 	0.3998	0.3847	0.2865	0.137
Mof_C 	C 	0.7543	0.9984	0.9582	0.031
Mof_C 	C 	0.7916	0.3257	0.7925	0.292
Mof_C 	C 	0.5224	0.9763	0.44	-0.22
Mof_H 	H 	0.5414	0.9423	0.4654	0.144
Mof_C 	C 	0.5286	0.0819	0.3587	-0.241
Mof_H 	H 	0.5504	0.1199	0.3307	0.134
Mof_C 	C 	0.5748	0.1948	0.7061	0.007
Mof_C 	C 	0.8536	0.3351	0.7441	-0.219
Mof_H 	H 	0.8789	0.3669	0.7335	0.134
Mof_C 	C 	0.6571	0.5829	0.9227	-0.239
Mof_H 	H 	0.6122	0.5818	0.9365	0.151
Mof_C 	C 	0.7195	0.9825	0.0262	-0.199
Mof_H 	H 	0.6766	0.9956	0.043	0.125
Mof_C 	C 	0.2763	0.3971	0.4105	-0.228
Mof_H 	H 	0.2595	0.4227	0.4327	0.134
Mof_C 	C 	0.7527	0.9458	0.0676	0.276
Mof_C 	C 	0.2108	0.528	0.7723	-0.182
Mof_H 	H 	0.1875	0.4911	0.803	0.127
Mof_C 	C 	0.8157	0.9278	0.0427	-0.205
Mof_H 	H 	0.8366	0.9036	0.0714	0.133
Mof_C 	C 	0.334	0.4114	0.356	0.289
Mof_C 	C 	0.756	0.532	0.9334	-0.218
Mof_H 	H 	0.7773	0.4963	0.9538	0.139
Mof_C 	C 	0.3149	0.584	0.7012	-0.156
Mof_H 	H 	0.3602	0.5828	0.6844	0.122
Mof_C 	C 	0.5063	0.2468	0.6259	-0.161
Mof_H 	H 	0.4823	0.2628	0.5997	0.109
Mof_O 	O 	0.3807	0.4537	0.3456	-0.142
Mof_H 	H 	0.3835	0.4435	0.381	0.137
Mof_H 	H 	0.5862	0.1305	0.9399	0.103
Mof_Cu	Cu	0.95368	0.10958	0.05079	0.9
Mof_Cu	Cu	0.96778	0.08435	0.1594	0.902
Mof_Cu	Cu	0.93051	0.64014	0.41396	0.927
Mof_Cu	Cu	0.01414	0.35228	0.22614	0.904
Mof_Cu	Cu	0.01548	0.47105	0.14381	0.927
Mof_Cu	Cu	0.6632	0.81056	0.72508	0.903
Mof_Cu	Cu	0.37977	0.88347	0.12342	0.916
Mof_Cu	Cu	0.94409	0.73355	0.43339	0.904
Mof_Cu	Cu	0.55263	0.75082	0.79518	0.905
Mof_Cu	Cu	0.2871	0.91364	0.21505	0.903
Mof_Cu	Cu	0.57328	0.22341	0.42933	0.9
Mof_Cu	Cu	0.68001	0.16949	0.44585	0.901
Mof_O 	O 	0.6858	0.5272	0.2306	-0.392
Mof_H 	H 	0.6938	0.5389	0.1911	0.246
Mof_O 	O 	0.0246	0.33966	0.15093	-0.402
Mof_O 	O 	0.9381	0.00121	0.18767	-0.388
Mof_O 	O 	0.9016	0.71051	0.34522	-0.374
Mof_O 	O 	0.9672	0.19659	0.02717	-0.397
Mof_O 	O 	0.0166	0.43986	0.08325	-0.389
Mof_O 	O 	0.3446	0.5193	0.9923	-0.427
Mof_H 	H 	0.342	0.5225	0.9591	0.257
Mof_O 	O 	0.5799	0.7195	0.2907	-0.396
Mof_H 	H 	0.603	0.7271	0.3038	0.249
Mof_O 	O 	0.9668	0.591	0.4826	-0.395
Mof_O 	O 	0.9953	0.17247	0.11201	-0.393
Mof_O 	O 	0.9823	0.4283	0.90236	-0.28
Mof_O 	O 	0.9222	0.78832	0.35757	-0.404
Mof_O 	O 	0.9666	0.66942	0.50623	-0.401
Mof_O 	O 	0.415	0.8363	0.192	-0.387
Mof_O 	O 	0.8613	0.11812	0.106	-0.388
Mof_O 	O 	0.9424	0.02019	0.08816	-0.398
Mof_O 	O 	0.6429	0.5284	0.6788	-0.321
Mof_H 	H 	0.6722	0.5034	0.6858	0.211
Mof_O 	O 	0.5319	0.7965	0.8492	-0.382
Mof_O 	O 	0.2414	0.8401	0.2398	-0.391
Mof_O 	O 	0.0563	0.0596	0.11367	-0.395
Mof_O 	O 	0.0913	0.424	0.6106	-0.284
Mof_O 	O 	0.9198	0.3645	0.2468	-0.394
Mof_O 	O 	0.9989	0.62298	0.70545	-0.385
Mof_O 	O 	0.05124	0.09869	0.0141	-0.406
Mof_O 	O 	0.9889	0.52053	0.77876	-0.364
Mof_O 	O 	0.6826	0.7632	0.6733	-0.399
Mof_O 	O 	0.0339	0.7293	0.3699	-0.404
Mof_O 	O 	0.1084	0.3643	0.19	-0.398
Mof_O 	O 	0.3073	0.263	0.2128	-0.391
Mof_O 	O 	0.3568	0.8138	0.4752	-0.396
Mof_O 	O 	0.6199	0.87564	0.6705	-0.403
Mof_O 	O 	0.4486	0.7684	0.4882	-0.396
Mof_O 	O 	0.4028	0.3144	0.1499	-0.38
Mof_O 	O 	0.8775	0.11252	0.19116	-0.393
Mof_O 	O 	0.1088	0.46299	0.1135	-0.374
Mof_O 	O 	0.9116	0.80678	0.1158	-0.429
Mof_H 	H 	0.9252	0.8327	0.0767	0.269
Mof_O 	O 	0.2531	0.9616	0.1454	-0.402
Mof_O 	O 	0.3353	0.8623	0.2702	-0.397
Mof_O 	O 	0.5742	0.0428	0.9052	-0.372
Mof_O 	O 	0.3336	0.9365	0.0663	-0.388
Mof_O 	O 	0.7009	0.16103	0.3645	-0.391
Mof_O 	O 	0.92	0.4676	0.1837	-0.376
Mof_O 	O 	0.019	0.6563	0.3473	-0.387
Mof_O 	O 	0.54091	0.13738	0.4834	-0.397
Mof_O 	O 	0.5902	0.70946	0.7358	-0.401
Mof_O 	O 	0.5263	0.8238	0.7282	-0.396
Mof_O 	O 	0.8506	0.71753	0.49387	-0.406
Mof_O 	O 	0.6317	0.09103	0.5	-0.389
Mof_O 	O 	0.6547	0.0169	0.825	-0.395
Mof_O 	O 	0.8441	0.63196	0.48419	-0.378
Mof_O 	O 	0.6098	0.209	0.3484	-0.396
Mof_O 	O 	0.6271	0.8474	0.7893	-0.401
Mof_O 	O 	0.6236	0.3025	0.3762	-0.391
Mof_O 	O 	0.321	0.815	0.1612	-0.383
Mof_O 	O 	0.638	0.2109	0.1351	-0.426
Mof_H 	H 	0.6345	0.1832	0.1266	0.259
Mof_O 	O 	0.4456	0.8443	0.0539	-0.357
Mof_O 	O 	0.7145	0.2554	0.3897	-0.399
Mof_O 	O 	0.3854	0.9603	0.6067	-0.443
Mof_H 	H 	0.3805	0.9232	0.6187	0.266
Mof_O 	O 	0.2356	0.6361	0.1742	-0.416
Mof_H 	H 	0.2294	0.5992	0.2011	0.255
Mof_O 	O 	0.2806	0.0705	0.8635	-0.409
Mof_H 	H 	0.3152	0.0865	0.8505	0.252
Mof_C 	C 	0.3114	0.4667	0.0457	0.313
Mof_C 	C 	0.4848	0.7763	0.2709	-0.162
Mof_H 	H 	0.5018	0.777	0.2289	0.128
Mof_C 	C 	0.5185	0.7461	0.3133	0.241
Mof_C 	C 	0.7215	0.4711	0.2521	0.245
Mof_C 	C 	0.0515	0.6967	0.3394	0.329
Mof_C 	C 	0.0165	0.3824	0.1	0.329
Mof_C 	C 	0.9367	0.9848	0.1463	0.311
Mof_C 	C 	0.6458	0.7208	0.6915	0.332
Mof_C 	C 	0.9843	0.21	0.0608	0.326
Mof_C 	C 	0.4006	0.8085	0.3545	-0.051
Mof_H 	H 	0.3605	0.828	0.3683	0.08
Mof_C 	C 	0.0056	0.2972	0.0755	-0.055
Mof_H 	H 	0.0105	0.2678	0.1144	0.081
Mof_C 	C 	0.8245	0.6714	0.5097	0.326
Mof_C 	C 	0.2662	0.8078	0.2071	0.317
Mof_C 	C 	0.6011	0.0069	0.8734	0.299
Mof_C 	C 	0.1363	0.4131	0.1441	0.313
Mof_C 	C 	0.9939	0.2785	0.0366	0.008
Mof_C 	C 	0.9135	0.8318	0.1546	0.294
Mof_C 	C 	0.0031	0.4058	0.9967	-0.165
Mof_H 	H 	0.0057	0.4484	0.9835	0.116
Mof_C 	C 	0.9107	0.7664	0.3272	0.332
Mof_C 	C 	0.0101	0.3623	0.0548	0.004
Mof_C 	C 	0.412	0.7883	0.4575	0.332
Mof_C 	C 	0.5733	0.8342	0.836	0.32
Mof_C 	C 	0.9859	0.3223	0.9787	-0.158
Mof_H 	H 	0.9764	0.3091	0.9539	0.127
Mof_C 	C 	0.9056	0.7906	0.2192	-0.195
Mof_H 	H 	0.8979	0.7486	0.2348	0.144
Mof_C 	C 	0.8429	0.1241	0.1591	0.322
Mof_C 	C 	0.5729	0.0911	0.5092	0.307
Mof_C 	C 	0.9995	0.5645	0.7216	0.303
Mof_C 	C 	0.0324	0.5151	0.5661	-0.168
Mof_H 	H 	0.0367	0.504	0.5334	0.119
Mof_C 	C 	0.8915	0.416	0.225	0.315
Mof_C 	C 	0.0006	0.571	0.5673	0.009
Mof_C 	C 	0.7313	0.6943	0.6002	-0.084
Mof_H 	H 	0.7538	0.7299	0.585	0.092
Mof_C 	C 	0.9223	0.8947	0.1314	-0.228
Mof_H 	H 	0.9265	0.9224	0.0882	0.129
Mof_C 	C 	0.919	0.8757	0.2377	-0.076
Mof_H 	H 	0.9214	0.8909	0.2648	0.09
Mof_C 	C 	0.7513	0.1513	0.2463	-0.058
Mof_H 	H 	0.7763	0.1377	0.2714	0.084
Mof_C 	C 	0.2802	0.9629	0.0894	0.321
Mof_C 	C 	0.9092	0.8112	0.2614	0.021
Mof_C 	C 	0.0142	0.5463	0.666	0.016
Mof_C 	C 	0.992	0.3855	0.9578	0.232
Mof_C 	C 	0.9767	0.6136	0.5131	0.332
Mof_C 	C 	0.6507	0.1978	0.2313	-0.179
Mof_H 	H 	0.6104	0.2168	0.2454	0.123
Mof_C 	C 	0.5837	0.9192	0.86	-0.064
Mof_H 	H 	0.618	0.9343	0.8183	0.084
Mof_C 	C 	0.2424	0.3634	0.1499	-0.095
Mof_H 	H 	0.2199	0.3273	0.1847	0.095
Mof_C 	C 	0.9249	0.9161	0.1722	0.04
Mof_C 	C 	0.9935	0.5877	0.6157	-0.062
Mof_H 	H 	0.9751	0.6262	0.6148	0.083
Mof_C 	C 	0.6638	0.1828	0.3324	0.303
Mof_C 	C 	0.5386	0.0293	0.5539	0.047
Mof_C 	C 	0.6734	0.6804	0.6542	0.023
Mof_C 	C 	0.5621	0.8701	0.6845	0.324
Mof_C 	C 	0.1519	0.0554	0.0229	0.031
Mof_C 	C 	0.7568	0.6558	0.5675	0.04
Mof_C 	C 	0.1834	0.0213	0.0661	-0.083
Mof_H 	H 	0.1619	0.0121	0.1112	0.09
Mof_C 	C 	0.2088	0.4142	0.1193	0.037
Mof_C 	C 	0.5314	0.9231	0.6387	0.049
Mof_C 	C 	0.1219	0.7024	0.2886	0.038
Mof_C 	C 	0.7754	0.1465	0.1862	0.01
Mof_C 	C 	0.7371	0.1644	0.1487	-0.181
Mof_H 	H 	0.7529	0.1597	0.1095	0.122
Mof_C 	C 	0.3086	0.3654	0.1297	0.054
Mof_C 	C 	0.6827	0.3021	0.365	0.337
Mof_C 	C 	0.0813	0.073	0.0521	0.315
Mof_C 	C 	0.0462	0.491	0.6677	-0.149
Mof_H 	H 	0.0599	0.4643	0.7018	0.12
Mof_C 	C 	0.6742	0.1895	0.1724	0.272
Mof_C 	C 	0.5656	0.9789	0.5929	-0.093
Mof_H 	H 	0.6073	0.9821	0.5887	0.095
Mof_C 	C 	0.3896	0.8371	0.247	0.328
Mof_C 	C 	0.5513	0.8663	0.8813	0.009
Mof_C 	C 	0.5662	0.95	0.899	0.016
Mof_C 	C 	0.6895	0.1767	0.2683	0.007
Mof_C 	C 	0.4431	0.9675	0.604	0.326
Mof_C 	C 	0.2471	0.7197	0.1941	-0.209
Mof_H 	H 	0.2898	0.7245	0.1626	0.145
Mof_C 	C 	0.7854	0.3621	0.2967	-0.055
Mof_H 	H 	0.8082	0.3257	0.3131	0.081
Mof_C 	C 	0.4354	0.7831	0.3945	-0.002
Mof_C 	C 	0.161	0.7486	0.2731	-0.087
Mof_H 	H 	0.1444	0.7744	0.295	0.091
Mof_C 	C 	0.489	0.8703	0.9874	0.254
Mof_C 	C 	0.0574	0.4762	0.6138	0.225
Mof_C 	C 	0.5041	0.8387	0.9469	-0.165
Mof_H 	H 	0.4837	0.8016	0.963	0.123
Mof_C 	C 	0.3433	0.3098	0.1665	0.301
Mof_C 	C 	0.2239	0.7569	0.2258	0.039
Mof_C 	C 	0.8189	0.4174	0.2505	0.016
Mof_C 	C 	0.7186	0.3599	0.319	-0.008
Mof_C 	C 	0.5167	0.9247	0.9649	-0.193
Mof_H 	H 	0.5038	0.9455	0.9918	0.127
Mof_C 	C 	0.6398	0.6256	0.6767	-0.207
Mof_H 	H 	0.6002	0.6153	0.7135	0.137
Mof_C 	C 	0.2457	0.0016	0.0418	0.031
Mof_C 	C 	0.2084	0.6743	0.2075	0.292
Mof_C 	C 	0.4776	0.0237	0.56	-0.22
Mof_H 	H 	0.4586	0.0577	0.5346	0.144
Mof_C 	C 	0.4714	0.9181	0.6413	-0.241
Mof_H 	H 	0.4496	0.8801	0.6693	0.134
Mof_C 	C 	0.4252	0.8052	0.2939	0.007
Mof_C 	C 	0.1464	0.6649	0.2559	-0.219
Mof_H 	H 	0.1211	0.6331	0.2665	0.134
Mof_C 	C 	0.3429	0.4171	0.0773	-0.239
Mof_H 	H 	0.3878	0.4182	0.0635	0.151
Mof_C 	C 	0.2805	0.0175	0.9738	-0.199
Mof_H 	H 	0.3234	0.0044	0.957	0.125
Mof_C 	C 	0.7237	0.6029	0.5895	-0.228
Mof_H 	H 	0.7405	0.5773	0.5673	0.134
Mof_C 	C 	0.2473	0.0542	0.9324	0.276
Mof_C 	C 	0.7892	0.472	0.2277	-0.182
Mof_H 	H 	0.8125	0.5089	0.197	0.127
Mof_C 	C 	0.1843	0.0722	0.9573	-0.205
Mof_H 	H 	0.1634	0.0964	0.9286	0.133
Mof_C 	C 	0.666	0.5886	0.644	0.289
Mof_C 	C 	0.244	0.468	0.0666	-0.218
Mof_H 	H 	0.2227	0.5037	0.0462	0.139
Mof_C 	C 	0.6851	0.416	0.2988	-0.156
Mof_H 	H 	0.6398	0.4172	0.3156	0.122
Mof_C 	C 	0.4937	0.7532	0.3741	-0.161
Mof_H 	H 	0.5177	0.7372	0.4003	0.109
Mof_O 	O 	0.6193	0.5463	0.6544	-0.142
Mof_H 	H 	0.6165	0.5565	0.619	0.137
Mof_H 	H 	0.4138	0.8695	0.0601	0.103
_end
