data_functionalizedCrystal
_audit_creation_method	'EQeq! by Chris Wilmer'
_symmetry_space_group_name_H-M	'P1'
_symmetry_Int_Tables_number	1
_symmetry_cell_setting	triclinic
loop_
_symmetry_equiv_pos_as_xyz
  x,y,z
_cell_length_a	9.4801
_cell_length_b	11.551
_cell_length_c	16.3027
_cell_angle_alpha	90
_cell_angle_beta	90
_cell_angle_gamma	97.138
loop_
_atom_site_label
_atom_site_type_symbol
_atom_site_fract_x
_atom_site_fract_y
_atom_site_fract_z
_atom_site_charge
Mof_Zn	Zn	0.36373	0.54709	0.92028	1.237
Mof_Zn	Zn	0.13627	0.95291	0.42028	1.235
Mof_Zn	Zn	0.63627	0.45291	0.07972	1.237
Mof_Zn	Zn	0.86373	0.04709	0.57972	1.235
Mof_H 	H 	0.0635	0.8317	0.7518	0.018
Mof_H 	H 	0.654	0.779	0.8194	0.026
Mof_H 	H 	0.9413	0.6103	0.935	0.02
Mof_H 	H 	0.4365	0.6683	0.2518	0.029
Mof_H 	H 	0.846	0.721	0.3194	0.029
Mof_H 	H 	0.5587	0.8897	0.435	0.025
Mof_H 	H 	0.9365	0.1683	0.2482	0.018
Mof_H 	H 	0.346	0.221	0.1806	0.026
Mof_H 	H 	0.0587	0.3897	0.065	0.02
Mof_H 	H 	0.5635	0.3317	0.7482	0.029
Mof_H 	H 	0.154	0.279	0.6806	0.029
Mof_H 	H 	0.4413	0.1103	0.565	0.025
Mof_C 	C 	0.1759	0.687	0.8527	0.367
Mof_C 	C 	0.8156	0.8977	0.70777	0.357
Mof_C 	C 	0.6639	0.6216	0.93724	0.421
Mof_C 	C 	0.0265	0.7171	0.84499	-0.153
Mof_C 	C 	0.9923	0.7948	0.78534	0.09
Mof_C 	C 	0.8536	0.8179	0.77512	-0.146
Mof_C 	C 	0.7473	0.7632	0.82562	0.08
Mof_C 	C 	0.78	0.6849	0.88544	-0.162
Mof_C 	C 	0.9193	0.6624	0.89493	0.09
Mof_C 	C 	0.3241	0.813	0.3527	0.36
Mof_C 	C 	0.6844	0.6023	0.20777	0.353
Mof_C 	C 	0.8361	0.8784	0.43724	0.418
Mof_C 	C 	0.4735	0.7829	0.34499	-0.134
Mof_C 	C 	0.5077	0.7052	0.28534	0.066
Mof_C 	C 	0.6464	0.6821	0.27512	-0.135
Mof_C 	C 	0.7527	0.7368	0.32562	0.07
Mof_C 	C 	0.72	0.8151	0.38544	-0.153
Mof_C 	C 	0.5807	0.8376	0.39493	0.075
Mof_C 	C 	0.8241	0.313	0.1473	0.367
Mof_C 	C 	0.1844	0.1023	0.29223	0.357
Mof_C 	C 	0.3361	0.3784	0.06276	0.421
Mof_C 	C 	0.9735	0.2829	0.15501	-0.153
Mof_C 	C 	0.0077	0.2052	0.21466	0.09
Mof_C 	C 	0.1464	0.1821	0.22488	-0.146
Mof_C 	C 	0.2527	0.2368	0.17438	0.08
Mof_C 	C 	0.22	0.3151	0.11456	-0.162
Mof_C 	C 	0.0807	0.3376	0.10507	0.09
Mof_C 	C 	0.6759	0.187	0.6473	0.36
Mof_C 	C 	0.3156	0.3977	0.79223	0.353
Mof_C 	C 	0.1639	0.1216	0.56276	0.418
Mof_C 	C 	0.5265	0.2171	0.65501	-0.134
Mof_C 	C 	0.4923	0.2948	0.71466	0.066
Mof_C 	C 	0.3536	0.3179	0.72488	-0.135
Mof_C 	C 	0.2473	0.2632	0.67438	0.07
Mof_C 	C 	0.28	0.1849	0.61456	-0.153
Mof_C 	C 	0.4193	0.1624	0.60507	0.075
Mof_O 	O 	0.20355	0.63628	0.91866	-0.455
Mof_O 	O 	0.26279	0.71278	0.79715	-0.316
Mof_O 	O 	0.9192	0.94944	0.6674	-0.46
Mof_O 	O 	0.6907	0.9064	0.69297	-0.324
Mof_O 	O 	0.542	0.65317	0.93264	-0.482
Mof_O 	O 	0.69834	0.54002	0.98024	-0.498
Mof_O 	O 	0.29645	0.86372	0.41866	-0.454
Mof_O 	O 	0.23721	0.78722	0.29715	-0.315
Mof_O 	O 	0.5808	0.55056	0.1674	-0.462
Mof_O 	O 	0.8093	0.5936	0.19297	-0.324
Mof_O 	O 	0.958	0.84683	0.43264	-0.479
Mof_O 	O 	0.80166	0.95998	0.48024	-0.496
Mof_O 	O 	0.79645	0.36372	0.08134	-0.455
Mof_O 	O 	0.73721	0.28722	0.20285	-0.316
Mof_O 	O 	0.0808	0.05056	0.3326	-0.46
Mof_O 	O 	0.3093	0.0936	0.30703	-0.324
Mof_O 	O 	0.458	0.34683	0.06736	-0.482
Mof_O 	O 	0.30166	0.45998	0.01976	-0.498
Mof_O 	O 	0.70355	0.13628	0.58134	-0.454
Mof_O 	O 	0.76279	0.21278	0.70285	-0.315
Mof_O 	O 	0.4192	0.44944	0.8326	-0.462
Mof_O 	O 	0.1907	0.4064	0.80703	-0.324
Mof_O 	O 	0.042	0.15317	0.56736	-0.479
Mof_O 	O 	0.19834	0.04002	0.51976	-0.496
Mof_H 	H 	0.2821	0.6617	0.6054	0.099
Mof_H 	H 	0.3073	0.6978	0.69	0.133
Mof_H 	H 	0.5145	0.6505	0.5845	0.148
Mof_H 	H 	0.459	0.5714	0.6587	0.148
Mof_H 	H 	0.545	0.6943	0.6745	0.161
Mof_H 	H 	0.4223	0.8696	0.6508	0.177
Mof_H 	H 	0.2677	0.8514	0.6148	0.159
Mof_H 	H 	0.3973	0.8305	0.5593	0.17
Mof_C 	C 	0.4771	0.6503	0.6392	-0.374
Mof_C 	C 	0.3591	0.8238	0.6139	-0.399
Mof_N 	N 	0.3443	0.7032	0.6391	-0.132
Mof_H 	H 	0.2179	0.8383	0.1054	0.098
Mof_H 	H 	0.1927	0.8022	0.19	0.132
Mof_H 	H 	0.9855	0.8495	0.0845	0.157
Mof_H 	H 	0.041	0.9286	0.1587	0.153
Mof_H 	H 	0.955	0.8057	0.1745	0.17
Mof_H 	H 	0.0777	0.6304	0.1508	0.178
Mof_H 	H 	0.2323	0.6486	0.1148	0.161
Mof_H 	H 	0.1027	0.6695	0.0593	0.171
Mof_C 	C 	0.0229	0.8497	0.1392	-0.397
Mof_C 	C 	0.1409	0.6762	0.1139	-0.403
Mof_N 	N 	0.1557	0.7968	0.1391	-0.128
Mof_H 	H 	0.7179	0.3383	0.3946	0.099
Mof_H 	H 	0.6927	0.3022	0.31	0.133
Mof_H 	H 	0.4855	0.3495	0.4155	0.148
Mof_H 	H 	0.541	0.4286	0.3413	0.148
Mof_H 	H 	0.455	0.3057	0.3255	0.161
Mof_H 	H 	0.5777	0.1304	0.3492	0.177
Mof_H 	H 	0.7323	0.1486	0.3852	0.159
Mof_H 	H 	0.6027	0.1695	0.4407	0.17
Mof_C 	C 	0.5229	0.3497	0.3608	-0.374
Mof_C 	C 	0.6409	0.1762	0.3861	-0.399
Mof_N 	N 	0.6557	0.2968	0.3609	-0.132
Mof_H 	H 	0.7821	0.1617	0.8946	0.098
Mof_H 	H 	0.8073	0.1978	0.81	0.132
Mof_H 	H 	0.0145	0.1505	0.9155	0.157
Mof_H 	H 	0.959	0.0714	0.8413	0.153
Mof_H 	H 	0.045	0.1943	0.8255	0.17
Mof_H 	H 	0.9223	0.3696	0.8492	0.178
Mof_H 	H 	0.7677	0.3514	0.8852	0.161
Mof_H 	H 	0.8973	0.3305	0.9407	0.171
Mof_C 	C 	0.9771	0.1503	0.8608	-0.397
Mof_C 	C 	0.8591	0.3238	0.8861	-0.403
Mof_N 	N 	0.8443	0.2032	0.8609	-0.128
_end
