data_functionalizedCrystal
_audit_creation_method	'EQeq! by Chris Wilmer'
_symmetry_space_group_name_H-M	'P1'
_symmetry_Int_Tables_number	1
_symmetry_cell_setting	triclinic
loop_
_symmetry_equiv_pos_as_xyz
  x,y,z
_cell_length_a	23.4092
_cell_length_b	13.3865
_cell_length_c	25.2954
_cell_angle_alpha	90
_cell_angle_beta	114.823
_cell_angle_gamma	90
loop_
_atom_site_label
_atom_site_type_symbol
_atom_site_fract_x
_atom_site_fract_y
_atom_site_fract_z
_atom_site_charge
Mof_Ni	Ni	0.87948	0.35182	0.45001	1.078
Mof_N 	N 	0.98518	0.911	0.80193	-0.208
Mof_N 	N 	0.94208	0.0416	0.82405	-0.169
Mof_N 	N 	0.66513	0.19551	0.63608	-0.239
Mof_N 	N 	0.73734	0.2014	0.72337	-0.158
Mof_N 	N 	0.90927	0.51507	0.92363	-0.22
Mof_N 	N 	0.9058	0.377	0.87763	-0.162
Mof_O 	O 	0.90215	0.78762	0.69544	-0.366
Mof_O 	O 	0.97176	0.69353	0.68322	-0.35
Mof_O 	O 	0.46366	0.78968	0.46587	-0.419
Mof_O 	O 	0.45564	0.64261	0.50309	-0.301
Mof_O 	O 	0.8059	0.43873	0.4596	-0.373
Mof_O 	O 	0.89846	0.41631	0.53182	-0.38
Mof_C 	C 	0.92319	0.2082	0.8518	-0.285
Mof_H 	H 	0.9647	0.2108	0.8794	0.151
Mof_C 	C 	0.90083	0.1242	0.81716	0.234
Mof_C 	C 	0.83882	0.1188	0.77543	-0.279
Mof_H 	H 	0.8238	0.0621	0.7524	0.134
Mof_C 	C 	0.8001	0.201	0.7693	0.228
Mof_C 	C 	0.82099	0.2845	0.80338	-0.284
Mof_H 	H 	0.7941	0.3381	0.7989	0.137
Mof_C 	C 	0.88333	0.2879	0.84497	0.237
Mof_C 	C 	0.94102	0.979	0.78207	0.11
Mof_H 	H 	0.9122	0.9835	0.7433	-0.01
Mof_C 	C 	0.01669	0.9307	0.86076	-0.07
Mof_H 	H 	0.0504	0.8938	0.8868	0.058
Mof_C 	C 	0.99166	0.0105	0.87485	0.09
Mof_H 	H 	0.0049	0.0394	0.9115	0.005
Mof_C 	C 	0.7223	0.1718	0.66857	0.108
Mof_H 	H 	0.7493	0.139	0.6559	-0.017
Mof_C 	C 	0.63854	0.2325	0.67	0.015
Mof_H 	H 	0.5963	0.2488	0.6579	0.028
Mof_C 	C 	0.68424	0.2415	0.72455	0.002
Mof_H 	H 	0.6803	0.2694	0.7565	0.041
Mof_C 	C 	0.87213	0.4444	0.89227	0.11
Mof_H 	H 	0.829	0.4411	0.8816	-0.012
Mof_C 	C 	0.96762	0.4973	0.92735	0.037
Mof_H 	H 	0.0025	0.5383	0.9457	0.02
Mof_C 	C 	0.96709	0.4117	0.90049	0.03
Mof_H 	H 	0.0013	0.3811	0.8976	0.027
Mof_C 	C 	0.91566	0.7166	0.66916	0.289
Mof_C 	C 	0.86339	0.6611	0.62091	-0.054
Mof_C 	C 	0.7999	0.6853	0.60543	-0.032
Mof_H 	H 	0.7899	0.737	0.6246	0.057
Mof_C 	C 	0.87775	0.584	0.5922	-0.004
Mof_H 	H 	0.9195	0.5657	0.6034	0.061
Mof_C 	C 	0.75163	0.6322	0.56144	-0.012
Mof_C 	C 	0.83045	0.5334	0.5468	-0.063
Mof_C 	C 	0.76764	0.5576	0.53206	-0.033
Mof_H 	H 	0.736	0.5232	0.502	0.055
Mof_C 	C 	0.68379	0.6538	0.54444	0.073
Mof_C 	C 	0.65938	0.7499	0.52953	-0.13
Mof_H 	H 	0.6862	0.8032	0.533	0.085
Mof_C 	C 	0.64252	0.5766	0.53973	-0.122
Mof_H 	H 	0.6581	0.5119	0.5487	0.079
Mof_C 	C 	0.57938	0.5928	0.52222	0.045
Mof_H 	H 	0.553	0.5398	0.5205	0.038
Mof_C 	C 	0.59536	0.7661	0.50957	0.058
Mof_H 	H 	0.5794	0.8299	0.4977	0.027
Mof_C 	C 	0.55451	0.6895	0.50679	-0.118
Mof_C 	C 	0.48581	0.7077	0.49007	0.347
Mof_C 	C 	0.84567	0.4582	0.51139	0.285
Mof_Ni	Ni	0.37948	0.85182	0.45001	1.076
Mof_N 	N 	0.48518	0.411	0.80193	-0.233
Mof_N 	N 	0.44208	0.5416	0.82405	-0.157
Mof_N 	N 	0.16513	0.69551	0.63608	-0.24
Mof_N 	N 	0.23734	0.7014	0.72337	-0.158
Mof_N 	N 	0.40927	0.01507	0.92363	-0.217
Mof_N 	N 	0.4058	0.877	0.87763	-0.159
Mof_O 	O 	0.40215	0.28762	0.69544	-0.372
Mof_O 	O 	0.47176	0.19353	0.68322	-0.362
Mof_O 	O 	0.96366	0.28968	0.46587	-0.419
Mof_O 	O 	0.95564	0.14261	0.50309	-0.304
Mof_O 	O 	0.3059	0.93873	0.4596	-0.375
Mof_O 	O 	0.39846	0.91631	0.53182	-0.384
Mof_C 	C 	0.42319	0.7082	0.8518	-0.28
Mof_H 	H 	0.4647	0.7108	0.8794	0.142
Mof_C 	C 	0.40083	0.6242	0.81716	0.225
Mof_C 	C 	0.33882	0.6188	0.77543	-0.274
Mof_H 	H 	0.3238	0.5621	0.7524	0.132
Mof_C 	C 	0.3001	0.701	0.7693	0.224
Mof_C 	C 	0.32099	0.7845	0.80338	-0.279
Mof_H 	H 	0.2941	0.8381	0.7989	0.135
Mof_C 	C 	0.38333	0.7879	0.84497	0.23
Mof_C 	C 	0.44102	0.479	0.78207	0.107
Mof_H 	H 	0.4122	0.4835	0.7433	-0.011
Mof_C 	C 	0.51669	0.4307	0.86076	0.015
Mof_H 	H 	0.5504	0.3938	0.8868	0.031
Mof_C 	C 	0.49166	0.5105	0.87485	-0.003
Mof_H 	H 	0.5049	0.5394	0.9115	0.051
Mof_C 	C 	0.2223	0.6718	0.66857	0.107
Mof_H 	H 	0.2493	0.639	0.6559	-0.017
Mof_C 	C 	0.13854	0.7325	0.67	0.016
Mof_H 	H 	0.0963	0.7488	0.6579	0.024
Mof_C 	C 	0.18424	0.7415	0.72455	0
Mof_H 	H 	0.1803	0.7694	0.7565	0.041
Mof_C 	C 	0.37213	0.9444	0.89227	0.108
Mof_H 	H 	0.329	0.9411	0.8816	-0.012
Mof_C 	C 	0.46762	0.9973	0.92735	0.012
Mof_H 	H 	0.5025	0.0383	0.9457	0.04
Mof_C 	C 	0.46709	0.9117	0.90049	0.007
Mof_H 	H 	0.5013	0.8811	0.8976	0.047
Mof_C 	C 	0.41566	0.2166	0.66916	0.291
Mof_C 	C 	0.36339	0.1611	0.62091	-0.059
Mof_C 	C 	0.2999	0.1853	0.60543	-0.027
Mof_H 	H 	0.2899	0.237	0.6246	0.055
Mof_C 	C 	0.37775	0.084	0.5922	-0.001
Mof_H 	H 	0.4195	0.0657	0.6034	0.058
Mof_C 	C 	0.25163	0.1322	0.56144	-0.019
Mof_C 	C 	0.33045	0.0334	0.5468	-0.067
Mof_C 	C 	0.26764	0.0576	0.53206	-0.028
Mof_H 	H 	0.236	0.0232	0.502	0.052
Mof_C 	C 	0.18379	0.1538	0.54444	0.086
Mof_C 	C 	0.15938	0.2499	0.52953	-0.146
Mof_H 	H 	0.1862	0.3032	0.533	0.091
Mof_C 	C 	0.14252	0.0766	0.53973	-0.139
Mof_H 	H 	0.1581	0.0119	0.5487	0.084
Mof_C 	C 	0.07938	0.0928	0.52222	0.066
Mof_H 	H 	0.053	0.0398	0.5205	0.025
Mof_C 	C 	0.09536	0.2661	0.50957	0.079
Mof_H 	H 	0.0794	0.3299	0.4977	0.017
Mof_C 	C 	0.05451	0.1895	0.50679	-0.151
Mof_C 	C 	0.98581	0.2077	0.49007	0.374
Mof_C 	C 	0.34567	0.9582	0.51139	0.286
Mof_Ni	Ni	0.12052	0.35182	0.04999	1.075
Mof_N 	N 	0.01482	0.911	0.69807	-0.255
Mof_N 	N 	0.05792	0.0416	0.67595	-0.142
Mof_N 	N 	0.33487	0.19551	0.86392	-0.24
Mof_N 	N 	0.26266	0.2014	0.77663	-0.158
Mof_N 	N 	0.09073	0.51507	0.57637	-0.215
Mof_N 	N 	0.0942	0.377	0.62237	-0.155
Mof_O 	O 	0.09785	0.78762	0.80456	-0.374
Mof_O 	O 	0.02824	0.69353	0.81678	-0.37
Mof_O 	O 	0.53634	0.78968	0.03413	-0.421
Mof_O 	O 	0.54436	0.64261	0.99691	-0.304
Mof_O 	O 	0.1941	0.43873	0.0404	-0.375
Mof_O 	O 	0.10154	0.41631	0.96818	-0.386
Mof_C 	C 	0.07681	0.2082	0.6482	-0.273
Mof_H 	H 	0.0353	0.2108	0.6206	0.134
Mof_C 	C 	0.09917	0.1242	0.68284	0.216
Mof_C 	C 	0.16118	0.1188	0.72457	-0.27
Mof_H 	H 	0.1762	0.0621	0.7476	0.13
Mof_C 	C 	0.1999	0.201	0.7307	0.221
Mof_C 	C 	0.17901	0.2845	0.69662	-0.275
Mof_H 	H 	0.2059	0.3381	0.7011	0.133
Mof_C 	C 	0.11667	0.2879	0.65503	0.223
Mof_C 	C 	0.05898	0.979	0.71793	0.103
Mof_H 	H 	0.0878	0.9835	0.7567	-0.012
Mof_C 	C 	0.98331	0.9307	0.63924	0.102
Mof_H 	H 	0.9496	0.8938	0.6132	0.004
Mof_C 	C 	0.00834	0.0105	0.62515	-0.099
Mof_H 	H 	0.9951	0.0394	0.5885	0.099
Mof_C 	C 	0.2777	0.1718	0.83143	0.107
Mof_H 	H 	0.2507	0.139	0.8441	-0.017
Mof_C 	C 	0.36146	0.2325	0.83	0.015
Mof_H 	H 	0.4037	0.2488	0.8421	0.028
Mof_C 	C 	0.31576	0.2415	0.77545	0.002
Mof_H 	H 	0.3197	0.2694	0.7435	0.041
Mof_C 	C 	0.12787	0.4444	0.60773	0.109
Mof_H 	H 	0.171	0.4411	0.6184	-0.012
Mof_C 	C 	0.03238	0.4973	0.57265	-0.009
Mof_H 	H 	0.9975	0.5383	0.5543	0.06
Mof_C 	C 	0.03291	0.4117	0.59951	-0.02
Mof_H 	H 	0.9987	0.3811	0.6024	0.07
Mof_C 	C 	0.08434	0.7166	0.83084	0.292
Mof_C 	C 	0.13661	0.6611	0.87909	-0.06
Mof_C 	C 	0.2001	0.6853	0.89457	-0.029
Mof_H 	H 	0.2101	0.737	0.8754	0.056
Mof_C 	C 	0.12225	0.584	0.9078	-0.001
Mof_H 	H 	0.0805	0.5657	0.8966	0.055
Mof_C 	C 	0.24837	0.6322	0.93856	-0.014
Mof_C 	C 	0.16955	0.5334	0.9532	-0.067
Mof_C 	C 	0.23236	0.5576	0.96794	-0.031
Mof_H 	H 	0.264	0.5232	0.998	0.054
Mof_C 	C 	0.31621	0.6538	0.95556	0.073
Mof_C 	C 	0.34062	0.7499	0.97047	-0.129
Mof_H 	H 	0.3138	0.8032	0.967	0.084
Mof_C 	C 	0.35748	0.5766	0.96027	-0.122
Mof_H 	H 	0.3419	0.5119	0.9513	0.078
Mof_C 	C 	0.42062	0.5928	0.97778	0.046
Mof_H 	H 	0.447	0.5398	0.9795	0.037
Mof_C 	C 	0.40464	0.7661	0.99043	0.055
Mof_H 	H 	0.4206	0.8299	0.0023	0.029
Mof_C 	C 	0.44549	0.6895	0.99321	-0.119
Mof_C 	C 	0.51419	0.7077	0.00993	0.351
Mof_C 	C 	0.15433	0.4582	0.98861	0.286
Mof_Ni	Ni	0.62052	0.85182	0.04999	1.077
Mof_N 	N 	0.51482	0.411	0.69807	-0.233
Mof_N 	N 	0.55792	0.5416	0.67595	-0.157
Mof_N 	N 	0.83487	0.69551	0.86392	-0.239
Mof_N 	N 	0.76266	0.7014	0.77663	-0.159
Mof_N 	N 	0.59073	0.01507	0.57637	-0.217
Mof_N 	N 	0.5942	0.877	0.62237	-0.159
Mof_O 	O 	0.59785	0.28762	0.80456	-0.372
Mof_O 	O 	0.52824	0.19353	0.81678	-0.361
Mof_O 	O 	0.03634	0.28968	0.03413	-0.422
Mof_O 	O 	0.04436	0.14261	0.99691	-0.299
Mof_O 	O 	0.6941	0.93873	0.0404	-0.372
Mof_O 	O 	0.60154	0.91631	0.96818	-0.384
Mof_C 	C 	0.57681	0.7082	0.6482	-0.28
Mof_H 	H 	0.5353	0.7108	0.6206	0.142
Mof_C 	C 	0.59917	0.6242	0.68284	0.225
Mof_C 	C 	0.66118	0.6188	0.72457	-0.275
Mof_H 	H 	0.6762	0.5621	0.7476	0.132
Mof_C 	C 	0.6999	0.701	0.7307	0.224
Mof_C 	C 	0.67901	0.7845	0.69662	-0.28
Mof_H 	H 	0.7059	0.8381	0.7011	0.135
Mof_C 	C 	0.61667	0.7879	0.65503	0.23
Mof_C 	C 	0.55898	0.479	0.71793	0.107
Mof_H 	H 	0.5878	0.4835	0.7567	-0.011
Mof_C 	C 	0.48331	0.4307	0.63924	0.015
Mof_H 	H 	0.4496	0.3938	0.6132	0.031
Mof_C 	C 	0.50834	0.5105	0.62515	-0.003
Mof_H 	H 	0.4951	0.5394	0.5885	0.051
Mof_C 	C 	0.7777	0.6718	0.83143	0.108
Mof_H 	H 	0.7507	0.639	0.8441	-0.017
Mof_C 	C 	0.86146	0.7325	0.83	0.014
Mof_H 	H 	0.9037	0.7488	0.8421	0.032
Mof_C 	C 	0.81576	0.7415	0.77545	0.003
Mof_H 	H 	0.8197	0.7694	0.7435	0.041
Mof_C 	C 	0.62787	0.9444	0.60773	0.109
Mof_H 	H 	0.671	0.9411	0.6184	-0.012
Mof_C 	C 	0.53238	0.9973	0.57265	0.014
Mof_H 	H 	0.4975	0.0383	0.5543	0.039
Mof_C 	C 	0.53291	0.9117	0.59951	0.006
Mof_H 	H 	0.4987	0.8811	0.6024	0.048
Mof_C 	C 	0.58434	0.2166	0.83084	0.289
Mof_C 	C 	0.63661	0.1611	0.87909	-0.054
Mof_C 	C 	0.7001	0.1853	0.89457	-0.035
Mof_H 	H 	0.7101	0.237	0.8754	0.058
Mof_C 	C 	0.62225	0.084	0.9078	-0.006
Mof_H 	H 	0.5805	0.0657	0.8966	0.059
Mof_C 	C 	0.74837	0.1322	0.93856	-0.006
Mof_C 	C 	0.66955	0.0334	0.9532	-0.06
Mof_C 	C 	0.73236	0.0576	0.96794	-0.037
Mof_H 	H 	0.764	0.0232	0.998	0.056
Mof_C 	C 	0.81621	0.1538	0.95556	0.06
Mof_C 	C 	0.84062	0.2499	0.97047	-0.111
Mof_H 	H 	0.8138	0.3032	0.967	0.078
Mof_C 	C 	0.85748	0.0766	0.96027	-0.104
Mof_H 	H 	0.8419	0.0119	0.9513	0.072
Mof_C 	C 	0.92062	0.0928	0.97778	0.023
Mof_H 	H 	0.947	0.0398	0.9795	0.05
Mof_C 	C 	0.90464	0.2661	0.99043	0.031
Mof_H 	H 	0.9206	0.3299	0.0023	0.04
Mof_C 	C 	0.94549	0.1895	0.99321	-0.084
Mof_C 	C 	0.01419	0.2077	0.00993	0.321
Mof_C 	C 	0.65433	0.9582	0.98861	0.28
Mof_Ni	Ni	0.12052	0.64818	0.54999	1.075
Mof_N 	N 	0.01482	0.089	0.19807	-0.256
Mof_N 	N 	0.05792	0.9584	0.17595	-0.142
Mof_N 	N 	0.33487	0.80449	0.36392	-0.24
Mof_N 	N 	0.26266	0.7986	0.27663	-0.158
Mof_N 	N 	0.09073	0.48493	0.07637	-0.214
Mof_N 	N 	0.0942	0.623	0.12237	-0.154
Mof_O 	O 	0.09785	0.21238	0.30456	-0.374
Mof_O 	O 	0.02824	0.30647	0.31678	-0.37
Mof_O 	O 	0.53634	0.21032	0.53413	-0.42
Mof_O 	O 	0.54436	0.35739	0.49691	-0.301
Mof_O 	O 	0.1941	0.56127	0.5404	-0.375
Mof_O 	O 	0.10154	0.58369	0.46818	-0.387
Mof_C 	C 	0.07681	0.7918	0.1482	-0.273
Mof_H 	H 	0.0353	0.7892	0.1206	0.134
Mof_C 	C 	0.09917	0.8758	0.18284	0.216
Mof_C 	C 	0.16118	0.8812	0.22457	-0.269
Mof_H 	H 	0.1762	0.9379	0.2476	0.13
Mof_C 	C 	0.1999	0.799	0.2307	0.221
Mof_C 	C 	0.17901	0.7155	0.19662	-0.275
Mof_H 	H 	0.2059	0.6619	0.2011	0.133
Mof_C 	C 	0.11667	0.7121	0.15503	0.223
Mof_C 	C 	0.05898	0.021	0.21793	0.103
Mof_H 	H 	0.0878	0.0165	0.2567	-0.011
Mof_C 	C 	0.98331	0.0693	0.13924	0.105
Mof_H 	H 	0.9496	0.1062	0.1132	0.003
Mof_C 	C 	0.00834	0.9895	0.12515	-0.103
Mof_H 	H 	0.9951	0.9606	0.0885	0.102
Mof_C 	C 	0.2777	0.8282	0.33143	0.107
Mof_H 	H 	0.2507	0.861	0.3441	-0.017
Mof_C 	C 	0.36146	0.7675	0.33	0.015
Mof_H 	H 	0.4037	0.7512	0.3421	0.028
Mof_C 	C 	0.31576	0.7585	0.27545	0.002
Mof_H 	H 	0.3197	0.7306	0.2435	0.041
Mof_C 	C 	0.12787	0.5556	0.10773	0.109
Mof_H 	H 	0.171	0.5589	0.1184	-0.011
Mof_C 	C 	0.03238	0.5027	0.07265	-0.009
Mof_H 	H 	0.9975	0.4617	0.0543	0.061
Mof_C 	C 	0.03291	0.5883	0.09951	-0.021
Mof_H 	H 	0.9987	0.6189	0.1024	0.071
Mof_C 	C 	0.08434	0.2834	0.33084	0.292
Mof_C 	C 	0.13661	0.3389	0.37909	-0.06
Mof_C 	C 	0.2001	0.3147	0.39457	-0.029
Mof_H 	H 	0.2101	0.263	0.3754	0.055
Mof_C 	C 	0.12225	0.416	0.4078	-0
Mof_H 	H 	0.0805	0.4343	0.3966	0.055
Mof_C 	C 	0.24837	0.3678	0.43856	-0.015
Mof_C 	C 	0.16955	0.4666	0.4532	-0.067
Mof_C 	C 	0.23236	0.4424	0.46794	-0.031
Mof_H 	H 	0.264	0.4768	0.498	0.054
Mof_C 	C 	0.31621	0.3462	0.45556	0.074
Mof_C 	C 	0.34062	0.2501	0.47047	-0.131
Mof_H 	H 	0.3138	0.1968	0.467	0.085
Mof_C 	C 	0.35748	0.4234	0.46027	-0.123
Mof_H 	H 	0.3419	0.4881	0.4513	0.079
Mof_C 	C 	0.42062	0.4072	0.47778	0.045
Mof_H 	H 	0.447	0.4602	0.4795	0.037
Mof_C 	C 	0.40464	0.2339	0.49043	0.058
Mof_H 	H 	0.4206	0.1701	0.5023	0.027
Mof_C 	C 	0.44549	0.3105	0.49321	-0.118
Mof_C 	C 	0.51419	0.2923	0.50993	0.347
Mof_C 	C 	0.15433	0.5418	0.48861	0.287
Mof_Ni	Ni	0.62052	0.14818	0.54999	1.076
Mof_N 	N 	0.51482	0.589	0.19807	-0.233
Mof_N 	N 	0.55792	0.4584	0.17595	-0.157
Mof_N 	N 	0.83487	0.30449	0.36392	-0.239
Mof_N 	N 	0.76266	0.2986	0.27663	-0.159
Mof_N 	N 	0.59073	0.98493	0.07637	-0.216
Mof_N 	N 	0.5942	0.123	0.12237	-0.159
Mof_O 	O 	0.59785	0.71238	0.30456	-0.372
Mof_O 	O 	0.52824	0.80647	0.31678	-0.361
Mof_O 	O 	0.03634	0.71032	0.53413	-0.422
Mof_O 	O 	0.04436	0.85739	0.49691	-0.299
Mof_O 	O 	0.6941	0.06127	0.5404	-0.374
Mof_O 	O 	0.60154	0.08369	0.46818	-0.384
Mof_C 	C 	0.57681	0.2918	0.1482	-0.28
Mof_H 	H 	0.5353	0.2892	0.1206	0.142
Mof_C 	C 	0.59917	0.3758	0.18284	0.225
Mof_C 	C 	0.66118	0.3812	0.22457	-0.275
Mof_H 	H 	0.6762	0.4379	0.2476	0.132
Mof_C 	C 	0.6999	0.299	0.2307	0.225
Mof_C 	C 	0.67901	0.2155	0.19662	-0.28
Mof_H 	H 	0.7059	0.1619	0.2011	0.135
Mof_C 	C 	0.61667	0.2121	0.15503	0.23
Mof_C 	C 	0.55898	0.521	0.21793	0.107
Mof_H 	H 	0.5878	0.5165	0.2567	-0.011
Mof_C 	C 	0.48331	0.5693	0.13924	0.015
Mof_H 	H 	0.4496	0.6062	0.1132	0.031
Mof_C 	C 	0.50834	0.4895	0.12515	-0.003
Mof_H 	H 	0.4951	0.4606	0.0885	0.051
Mof_C 	C 	0.7777	0.3282	0.33143	0.108
Mof_H 	H 	0.7507	0.361	0.3441	-0.017
Mof_C 	C 	0.86146	0.2675	0.33	0.014
Mof_H 	H 	0.9037	0.2512	0.3421	0.032
Mof_C 	C 	0.81576	0.2585	0.27545	0.004
Mof_H 	H 	0.8197	0.2306	0.2435	0.041
Mof_C 	C 	0.62787	0.0556	0.10773	0.109
Mof_H 	H 	0.671	0.0589	0.1184	-0.012
Mof_C 	C 	0.53238	0.0027	0.07265	0.013
Mof_H 	H 	0.4975	0.9617	0.0543	0.041
Mof_C 	C 	0.53291	0.0883	0.09951	0.007
Mof_H 	H 	0.4987	0.1189	0.1024	0.047
Mof_C 	C 	0.58434	0.7834	0.33084	0.29
Mof_C 	C 	0.63661	0.8389	0.37909	-0.055
Mof_C 	C 	0.7001	0.8147	0.39457	-0.034
Mof_H 	H 	0.7101	0.763	0.3754	0.057
Mof_C 	C 	0.62225	0.916	0.4078	-0.004
Mof_H 	H 	0.5805	0.9343	0.3966	0.059
Mof_C 	C 	0.74837	0.8678	0.43856	-0.008
Mof_C 	C 	0.66955	0.9666	0.4532	-0.063
Mof_C 	C 	0.73236	0.9424	0.46794	-0.035
Mof_H 	H 	0.764	0.9768	0.498	0.056
Mof_C 	C 	0.81621	0.8462	0.45556	0.062
Mof_C 	C 	0.84062	0.7501	0.47047	-0.114
Mof_H 	H 	0.8138	0.6968	0.467	0.08
Mof_C 	C 	0.85748	0.9234	0.46027	-0.106
Mof_H 	H 	0.8419	0.9881	0.4513	0.073
Mof_C 	C 	0.92062	0.9072	0.47778	0.024
Mof_H 	H 	0.947	0.9602	0.4795	0.05
Mof_C 	C 	0.90464	0.7339	0.49043	0.038
Mof_H 	H 	0.9206	0.6701	0.5023	0.036
Mof_C 	C 	0.94549	0.8105	0.49321	-0.084
Mof_C 	C 	0.01419	0.7923	0.50993	0.32
Mof_C 	C 	0.65433	0.0418	0.48861	0.285
Mof_Ni	Ni	0.87948	0.64818	0.95001	1.076
Mof_N 	N 	0.98518	0.089	0.30193	-0.207
Mof_N 	N 	0.94208	0.9584	0.32405	-0.171
Mof_N 	N 	0.66513	0.80449	0.13608	-0.239
Mof_N 	N 	0.73734	0.7986	0.22337	-0.159
Mof_N 	N 	0.90927	0.48493	0.42363	-0.221
Mof_N 	N 	0.9058	0.623	0.37763	-0.163
Mof_O 	O 	0.90215	0.21238	0.19544	-0.367
Mof_O 	O 	0.97176	0.30647	0.18322	-0.35
Mof_O 	O 	0.46366	0.21032	0.96587	-0.42
Mof_O 	O 	0.45564	0.35739	0.00309	-0.3
Mof_O 	O 	0.8059	0.56127	0.9596	-0.377
Mof_O 	O 	0.89846	0.58369	0.03182	-0.381
Mof_C 	C 	0.92319	0.7918	0.3518	-0.287
Mof_H 	H 	0.9647	0.7892	0.3794	0.151
Mof_C 	C 	0.90083	0.8758	0.31716	0.235
Mof_C 	C 	0.83882	0.8812	0.27543	-0.28
Mof_H 	H 	0.8238	0.9379	0.2524	0.135
Mof_C 	C 	0.8001	0.799	0.2693	0.228
Mof_C 	C 	0.82099	0.7155	0.30338	-0.284
Mof_H 	H 	0.7941	0.6619	0.2989	0.137
Mof_C 	C 	0.88333	0.7121	0.34497	0.237
Mof_C 	C 	0.94102	0.021	0.28207	0.11
Mof_H 	H 	0.9122	0.0165	0.2433	-0.01
Mof_C 	C 	0.01669	0.0693	0.36076	-0.075
Mof_H 	H 	0.0504	0.1062	0.3868	0.06
Mof_C 	C 	0.99166	0.9895	0.37485	0.096
Mof_H 	H 	0.0049	0.9606	0.4115	0.001
Mof_C 	C 	0.7223	0.8282	0.16857	0.108
Mof_H 	H 	0.7493	0.861	0.1559	-0.016
Mof_C 	C 	0.63854	0.7675	0.17	0.015
Mof_H 	H 	0.5963	0.7512	0.1579	0.028
Mof_C 	C 	0.68424	0.7585	0.22455	0.002
Mof_H 	H 	0.6803	0.7306	0.2565	0.041
Mof_C 	C 	0.87213	0.5556	0.39227	0.11
Mof_H 	H 	0.829	0.5589	0.3816	-0.012
Mof_C 	C 	0.96762	0.5027	0.42735	0.039
Mof_H 	H 	0.0025	0.4617	0.4457	0.018
Mof_C 	C 	0.96709	0.5883	0.40049	0.032
Mof_H 	H 	0.0013	0.6189	0.3976	0.025
Mof_C 	C 	0.91566	0.2834	0.16916	0.289
Mof_C 	C 	0.86339	0.3389	0.12091	-0.054
Mof_C 	C 	0.7999	0.3147	0.10543	-0.031
Mof_H 	H 	0.7899	0.263	0.1246	0.057
Mof_C 	C 	0.87775	0.416	0.0922	-0.004
Mof_H 	H 	0.9195	0.4343	0.1034	0.061
Mof_C 	C 	0.75163	0.3678	0.06144	-0.012
Mof_C 	C 	0.83045	0.4666	0.0468	-0.063
Mof_C 	C 	0.76764	0.4424	0.03206	-0.032
Mof_H 	H 	0.736	0.4768	0.002	0.055
Mof_C 	C 	0.68379	0.3462	0.04444	0.074
Mof_C 	C 	0.65938	0.2501	0.02953	-0.131
Mof_H 	H 	0.6862	0.1968	0.033	0.086
Mof_C 	C 	0.64252	0.4234	0.03973	-0.122
Mof_H 	H 	0.6581	0.4881	0.0487	0.079
Mof_C 	C 	0.57938	0.4072	0.02222	0.045
Mof_H 	H 	0.553	0.4602	0.0205	0.038
Mof_C 	C 	0.59536	0.2339	0.00957	0.061
Mof_H 	H 	0.5794	0.1701	0.9977	0.025
Mof_C 	C 	0.55451	0.3105	0.00679	-0.117
Mof_C 	C 	0.48581	0.2923	0.99007	0.345
Mof_C 	C 	0.84567	0.5418	0.01139	0.288
Mof_Ni	Ni	0.37948	0.14818	0.95001	1.076
Mof_N 	N 	0.48518	0.589	0.30193	-0.233
Mof_N 	N 	0.44208	0.4584	0.32405	-0.157
Mof_N 	N 	0.16513	0.30449	0.13608	-0.24
Mof_N 	N 	0.23734	0.2986	0.22337	-0.158
Mof_N 	N 	0.40927	0.98493	0.42363	-0.218
Mof_N 	N 	0.4058	0.123	0.37763	-0.159
Mof_O 	O 	0.40215	0.71238	0.19544	-0.372
Mof_O 	O 	0.47176	0.80647	0.18322	-0.362
Mof_O 	O 	0.96366	0.71032	0.96587	-0.418
Mof_O 	O 	0.95564	0.85739	0.00309	-0.3
Mof_O 	O 	0.3059	0.06127	0.9596	-0.376
Mof_O 	O 	0.39846	0.08369	0.03182	-0.384
Mof_C 	C 	0.42319	0.2918	0.3518	-0.28
Mof_H 	H 	0.4647	0.2892	0.3794	0.142
Mof_C 	C 	0.40083	0.3758	0.31716	0.225
Mof_C 	C 	0.33882	0.3812	0.27543	-0.274
Mof_H 	H 	0.3238	0.4379	0.2524	0.132
Mof_C 	C 	0.3001	0.299	0.2693	0.224
Mof_C 	C 	0.32099	0.2155	0.30338	-0.28
Mof_H 	H 	0.2941	0.1619	0.2989	0.135
Mof_C 	C 	0.38333	0.2121	0.34497	0.23
Mof_C 	C 	0.44102	0.521	0.28207	0.107
Mof_H 	H 	0.4122	0.5165	0.2433	-0.011
Mof_C 	C 	0.51669	0.5693	0.36076	0.015
Mof_H 	H 	0.5504	0.6062	0.3868	0.031
Mof_C 	C 	0.49166	0.4895	0.37485	-0.003
Mof_H 	H 	0.5049	0.4606	0.4115	0.051
Mof_C 	C 	0.2223	0.3282	0.16857	0.107
Mof_H 	H 	0.2493	0.361	0.1559	-0.017
Mof_C 	C 	0.13854	0.2675	0.17	0.016
Mof_H 	H 	0.0963	0.2512	0.1579	0.024
Mof_C 	C 	0.18424	0.2585	0.22455	0
Mof_H 	H 	0.1803	0.2306	0.2565	0.041
Mof_C 	C 	0.37213	0.0556	0.39227	0.109
Mof_H 	H 	0.329	0.0589	0.3816	-0.012
Mof_C 	C 	0.46762	0.0027	0.42735	0.015
Mof_H 	H 	0.5025	0.9617	0.4457	0.039
Mof_C 	C 	0.46709	0.0883	0.40049	0.006
Mof_H 	H 	0.5013	0.1189	0.3976	0.048
Mof_C 	C 	0.41566	0.7834	0.16916	0.291
Mof_C 	C 	0.36339	0.8389	0.12091	-0.058
Mof_C 	C 	0.2999	0.8147	0.10543	-0.027
Mof_H 	H 	0.2899	0.763	0.1246	0.055
Mof_C 	C 	0.37775	0.916	0.0922	-0.001
Mof_H 	H 	0.4195	0.9343	0.1034	0.058
Mof_C 	C 	0.25163	0.8678	0.06144	-0.018
Mof_C 	C 	0.33045	0.9666	0.0468	-0.066
Mof_C 	C 	0.26764	0.9424	0.03206	-0.029
Mof_H 	H 	0.236	0.9768	0.002	0.053
Mof_C 	C 	0.18379	0.8462	0.04444	0.085
Mof_C 	C 	0.15938	0.7501	0.02953	-0.145
Mof_H 	H 	0.1862	0.6968	0.033	0.091
Mof_C 	C 	0.14252	0.9234	0.03973	-0.137
Mof_H 	H 	0.1581	0.9881	0.0487	0.084
Mof_C 	C 	0.07938	0.9072	0.02222	0.064
Mof_H 	H 	0.053	0.9602	0.0205	0.026
Mof_C 	C 	0.09536	0.7339	0.00957	0.078
Mof_H 	H 	0.0794	0.6701	0.9977	0.017
Mof_C 	C 	0.05451	0.8105	0.00679	-0.147
Mof_C 	C 	0.98581	0.7923	0.99007	0.367
Mof_C 	C 	0.34567	0.0418	0.01139	0.286
Mof_Ni	Ni	6.32086e-17	0.8065	0.75	1.085
Mof_Ni	Ni	0.5	0.3065	0.75	1.094
Mof_Ni	Ni	1.4381e-33	0.1935	0.25	1.085
Mof_Ni	Ni	0.5	0.6935	0.25	1.094
_end
