# CIF file generated by openbabel 3.1.0, see https://openbabel.org
data_I
_chemical_name_common 'image0'
_cell_length_a 14.1349
_cell_length_b 16.2961
_cell_length_c 16.524
_cell_angle_alpha 90
_cell_angle_beta 90
_cell_angle_gamma 90
_space_group_name_H-M_alt 'P 1'
_space_group_name_Hall 'P 1'
loop_
    _symmetry_equiv_pos_as_xyz
    x,y,z
loop_
    _atom_site_label
    _atom_site_type_symbol
    _atom_site_fract_x
    _atom_site_fract_y
    _atom_site_fract_z
    _atom_site_occupancy
    Ni1      Ni       0.97272    0.67263    0.11398    1.000
    C1       C        0.13894    0.49671    0.23520    1.000
    C2       C        0.11333    0.41695    0.25374    1.000
    H1       H        0.07000    0.38860    0.21980    1.000
    C3       C        0.15028    0.37775    0.32145    1.000
    C4       C        0.22011    0.41706    0.36651    1.000
    H2       H        0.24580    0.39080    0.41290    1.000
    C5       C        0.25244    0.49409    0.34428    1.000
    C6       C        0.20818    0.53592    0.28068    1.000
    H3       H        0.22540    0.59090    0.26870    1.000
    C7       C        0.08987    0.53910    0.16545    1.000
    C8       C        0.11163    0.29506    0.34502    1.000
    C9       C        0.33821    0.53209    0.38431    1.000
    O1       O        0.08198    0.61616    0.16901    1.000
    O2       O        0.05962    0.49238    0.11133    1.000
    O3       O        0.05129    0.26097    0.29906    1.000
    O4       O        0.13573    0.26241    0.41087    1.000
    O5       O        0.36667    0.49921    0.44907    1.000
    O6       O        0.37515    0.59115    0.34715    1.000
    C10      C        0.92299    0.30552    0.10718    1.000
    H4       H        0.85390    0.30130    0.11000    1.000
    H5       H        0.95150    0.25620    0.13070    1.000
    H6       H        0.94390    0.35390    0.13750    1.000
    C11      C        0.95300    0.31344    0.02050    1.000
    O7       O        0.93346    0.25958    0.96925    1.000
    O8       O        0.00589    0.37319    0.99895    1.000
    Ni2      Ni       0.52728    0.32737    0.61398    1.000
    C12      C        0.36106    0.50329    0.73520    1.000
    C13      C        0.38667    0.58305    0.75374    1.000
    H7       H        0.43000    0.61140    0.71980    1.000
    C14      C        0.34972    0.62225    0.82145    1.000
    C15      C        0.27989    0.58294    0.86651    1.000
    H8       H        0.25420    0.60920    0.91290    1.000
    C16      C        0.24756    0.50591    0.84428    1.000
    C17      C        0.29182    0.46408    0.78068    1.000
    H9       H        0.27460    0.40910    0.76870    1.000
    C18      C        0.41013    0.46090    0.66545    1.000
    C19      C        0.38837    0.70494    0.84502    1.000
    C20      C        0.16179    0.46791    0.88431    1.000
    O9       O        0.41802    0.38384    0.66901    1.000
    O10      O        0.44038    0.50762    0.61133    1.000
    O11      O        0.44871    0.73903    0.79906    1.000
    O12      O        0.36427    0.73759    0.91087    1.000
    O13      O        0.13333    0.50079    0.94907    1.000
    O14      O        0.12485    0.40885    0.84715    1.000
    C21      C        0.57701    0.69448    0.60718    1.000
    H10      H        0.64610    0.69870    0.61000    1.000
    H11      H        0.54850    0.74380    0.63070    1.000
    H12      H        0.55610    0.64610    0.63750    1.000
    C22      C        0.54700    0.68656    0.52050    1.000
    O15      O        0.56654    0.74042    0.46925    1.000
    O16      O        0.49411    0.62681    0.49895    1.000
    Ni3      Ni       0.02728    0.17263    0.38602    1.000
    C23      C        0.86106    0.99671    0.26480    1.000
    C24      C        0.88667    0.91695    0.24626    1.000
    H13      H        0.93000    0.88860    0.28020    1.000
    C25      C        0.84972    0.87775    0.17855    1.000
    C26      C        0.77989    0.91706    0.13349    1.000
    H14      H        0.75420    0.89080    0.08710    1.000
    C27      C        0.74756    0.99409    0.15572    1.000
    C28      C        0.79182    0.03592    0.21932    1.000
    H15      H        0.77460    0.09090    0.23130    1.000
    C29      C        0.91013    0.03910    0.33455    1.000
    C30      C        0.88837    0.79506    0.15498    1.000
    C31      C        0.66179    0.03209    0.11569    1.000
    O17      O        0.91802    0.11616    0.33099    1.000
    O18      O        0.94038    0.99238    0.38867    1.000
    O19      O        0.94871    0.76097    0.20094    1.000
    O20      O        0.86427    0.76241    0.08913    1.000
    O21      O        0.63333    0.99921    0.05093    1.000
    O22      O        0.62485    0.09115    0.15285    1.000
    C32      C        0.07701    0.80552    0.39282    1.000
    H16      H        0.14610    0.80130    0.39000    1.000
    H17      H        0.04850    0.75620    0.36930    1.000
    H18      H        0.05610    0.85390    0.36250    1.000
    C33      C        0.04700    0.81344    0.47950    1.000
    O23      O        0.06654    0.75958    0.53075    1.000
    O24      O        0.99411    0.87319    0.50105    1.000
    Ni4      Ni       0.47272    0.82737    0.88602    1.000
    C34      C        0.63894    0.00329    0.76480    1.000
    C35      C        0.61333    0.08305    0.74626    1.000
    H19      H        0.57000    0.11140    0.78020    1.000
    C36      C        0.65028    0.12225    0.67855    1.000
    C37      C        0.72011    0.08294    0.63349    1.000
    H20      H        0.74580    0.10920    0.58710    1.000
    C38      C        0.75244    0.00591    0.65572    1.000
    C39      C        0.70818    0.96408    0.71932    1.000
    H21      H        0.72540    0.90910    0.73130    1.000
    C40      C        0.58987    0.96090    0.83455    1.000
    C41      C        0.61163    0.20494    0.65498    1.000
    C42      C        0.83821    0.96791    0.61569    1.000
    O25      O        0.58198    0.88384    0.83099    1.000
    O26      O        0.55962    0.00762    0.88867    1.000
    O27      O        0.55129    0.23903    0.70094    1.000
    O28      O        0.63573    0.23759    0.58913    1.000
    O29      O        0.86667    0.00079    0.55093    1.000
    O30      O        0.87515    0.90885    0.65285    1.000
    C43      C        0.42299    0.19448    0.89282    1.000
    H22      H        0.35390    0.19870    0.89000    1.000
    H23      H        0.45150    0.24380    0.86930    1.000
    H24      H        0.44390    0.14610    0.86250    1.000
    C44      C        0.45300    0.18656    0.97950    1.000
    O31      O        0.43346    0.24042    0.03075    1.000
    O32      O        0.50589    0.12681    0.00105    1.000
    Ni5      Ni       0.02728    0.32737    0.88602    1.000
    C45      C        0.86106    0.50329    0.76480    1.000
    C46      C        0.88667    0.58305    0.74626    1.000
    H25      H        0.93000    0.61140    0.78020    1.000
    C47      C        0.84972    0.62225    0.67855    1.000
    C48      C        0.77989    0.58294    0.63349    1.000
    H26      H        0.75420    0.60920    0.58710    1.000
    C49      C        0.74756    0.50591    0.65572    1.000
    C50      C        0.79182    0.46408    0.71932    1.000
    H27      H        0.77460    0.40910    0.73130    1.000
    C51      C        0.91013    0.46090    0.83455    1.000
    C52      C        0.88837    0.70494    0.65498    1.000
    C53      C        0.66179    0.46791    0.61569    1.000
    O33      O        0.91802    0.38384    0.83099    1.000
    O34      O        0.94038    0.50762    0.88867    1.000
    O35      O        0.94871    0.73903    0.70094    1.000
    O36      O        0.86427    0.73759    0.58913    1.000
    O37      O        0.63333    0.50079    0.55093    1.000
    O38      O        0.62485    0.40885    0.65285    1.000
    C54      C        0.07701    0.69448    0.89282    1.000
    H28      H        0.14610    0.69870    0.89000    1.000
    H29      H        0.04850    0.74380    0.86930    1.000
    H30      H        0.05610    0.64610    0.86250    1.000
    C55      C        0.04700    0.68656    0.97950    1.000
    O39      O        0.06654    0.74042    0.03075    1.000
    O40      O        0.99411    0.62681    0.00105    1.000
    Ni6      Ni       0.47272    0.67263    0.38602    1.000
    C56      C        0.63894    0.49671    0.26480    1.000
    C57      C        0.61333    0.41695    0.24626    1.000
    H31      H        0.57000    0.38860    0.28020    1.000
    C58      C        0.65028    0.37775    0.17855    1.000
    C59      C        0.72011    0.41706    0.13349    1.000
    H32      H        0.74580    0.39080    0.08710    1.000
    C60      C        0.75244    0.49409    0.15572    1.000
    C61      C        0.70818    0.53592    0.21932    1.000
    H33      H        0.72540    0.59090    0.23130    1.000
    C62      C        0.58987    0.53910    0.33455    1.000
    C63      C        0.61163    0.29506    0.15498    1.000
    C64      C        0.83821    0.53209    0.11569    1.000
    O41      O        0.58198    0.61616    0.33099    1.000
    O42      O        0.55962    0.49238    0.38867    1.000
    O43      O        0.55129    0.26097    0.20094    1.000
    O44      O        0.63573    0.26241    0.08913    1.000
    O45      O        0.86667    0.49921    0.05093    1.000
    O46      O        0.87515    0.59115    0.15285    1.000
    C65      C        0.42299    0.30552    0.39282    1.000
    H34      H        0.35390    0.30130    0.39000    1.000
    H35      H        0.45150    0.25620    0.36930    1.000
    H36      H        0.44390    0.35390    0.36250    1.000
    C66      C        0.45300    0.31344    0.47950    1.000
    O47      O        0.43346    0.25958    0.53075    1.000
    O48      O        0.50589    0.37319    0.50105    1.000
    Ni7      Ni       0.97272    0.82737    0.61398    1.000
    C67      C        0.13894    0.00329    0.73520    1.000
    C68      C        0.11333    0.08305    0.75374    1.000
    H37      H        0.07000    0.11140    0.71980    1.000
    C69      C        0.15028    0.12225    0.82145    1.000
    C70      C        0.22011    0.08294    0.86651    1.000
    H38      H        0.24580    0.10920    0.91290    1.000
    C71      C        0.25244    0.00591    0.84428    1.000
    C72      C        0.20818    0.96408    0.78068    1.000
    H39      H        0.22540    0.90910    0.76870    1.000
    C73      C        0.08987    0.96090    0.66545    1.000
    C74      C        0.11163    0.20494    0.84502    1.000
    C75      C        0.33821    0.96791    0.88431    1.000
    O49      O        0.08198    0.88384    0.66901    1.000
    O50      O        0.05962    0.00762    0.61133    1.000
    O51      O        0.05129    0.23903    0.79906    1.000
    O52      O        0.13573    0.23759    0.91087    1.000
    O53      O        0.36667    0.00079    0.94907    1.000
    O54      O        0.37515    0.90885    0.84715    1.000
    C76      C        0.92299    0.19448    0.60718    1.000
    H40      H        0.85390    0.19870    0.61000    1.000
    H41      H        0.95150    0.24380    0.63070    1.000
    H42      H        0.94390    0.14610    0.63750    1.000
    C77      C        0.95300    0.18656    0.52050    1.000
    O55      O        0.93346    0.24042    0.46925    1.000
    O56      O        0.00589    0.12681    0.49895    1.000
    Ni8      Ni       0.52728    0.17263    0.11398    1.000
    C78      C        0.36106    0.99671    0.23520    1.000
    C79      C        0.38667    0.91695    0.25374    1.000
    H43      H        0.43000    0.88860    0.21980    1.000
    C80      C        0.34972    0.87775    0.32145    1.000
    C81      C        0.27989    0.91706    0.36651    1.000
    H44      H        0.25420    0.89080    0.41290    1.000
    C82      C        0.24756    0.99409    0.34428    1.000
    C83      C        0.29182    0.03592    0.28068    1.000
    H45      H        0.27460    0.09090    0.26870    1.000
    C84      C        0.41013    0.03910    0.16545    1.000
    C85      C        0.38837    0.79506    0.34502    1.000
    C86      C        0.16179    0.03209    0.38431    1.000
    O57      O        0.41802    0.11616    0.16901    1.000
    O58      O        0.44038    0.99238    0.11133    1.000
    O59      O        0.44871    0.76097    0.29906    1.000
    O60      O        0.36427    0.76241    0.41087    1.000
    O61      O        0.13333    0.99921    0.44907    1.000
    O62      O        0.12485    0.09115    0.34715    1.000
    C87      C        0.57701    0.80552    0.10718    1.000
    H46      H        0.64610    0.80130    0.11000    1.000
    H47      H        0.54850    0.75620    0.13070    1.000
    H48      H        0.55610    0.85390    0.13750    1.000
    C88      C        0.54700    0.81344    0.02050    1.000
    O63      O        0.56654    0.75958    0.96925    1.000
    O64      O        0.49411    0.87319    0.99895    1.000
    Ni9      Ni       0.00000    0.50000    0.00000    1.000
    Ni10     Ni       0.50000    0.50000    0.50000    1.000
    Ni11     Ni       0.00000    0.00000    0.50000    1.000
    Ni12     Ni       0.50000    0.00000    0.00000    1.000
