data_functionalizedCrystal
_audit_creation_method	'EQeq! by Chris Wilmer'
_symmetry_space_group_name_H-M	'P1'
_symmetry_Int_Tables_number	1
_symmetry_cell_setting	triclinic
loop_
_symmetry_equiv_pos_as_xyz
  x,y,z
_cell_length_a	15.477
_cell_length_b	25.656
_cell_length_c	8.289
_cell_angle_alpha	90
_cell_angle_beta	105.077
_cell_angle_gamma	90
loop_
_atom_site_label
_atom_site_type_symbol
_atom_site_fract_x
_atom_site_fract_y
_atom_site_fract_z
_atom_site_charge
Mof_Cd	Cd	0.45314	0.27892	0.17201	0.456
Mof_Cd	Cd	0.9584	0.47159	0.77039	0.48
Mof_O 	O 	0.57316	0.32748	0.331	-0.279
Mof_O 	O 	0.5976	0.30204	0.1004	-0.274
Mof_O 	O 	0.98127	0.45127	0.2771	-0.276
Mof_O 	O 	0.01199	0.43177	0.5483	-0.276
Mof_O 	O 	0.03661	0.40624	0.9174	-0.277
Mof_O 	O 	0.09414	0.47995	0.0323	-0.282
Mof_O 	O 	0.32388	0.27171	0.5825	-0.275
Mof_O 	O 	0.41535	0.28073	0.4218	-0.289
Mof_N 	N 	0.82452	0.41852	0.7527	-0.119
Mof_N 	N 	0.6644	0.36614	0.721	-0.094
Mof_N 	N 	0.69215	0.50411	0.4301	-0.137
Mof_N 	N 	0.8378	0.49932	0.5594	-0.099
Mof_N 	N 	0.82378	0.53934	0.453	-0.174
Mof_H 	H 	0.8643	0.56	0.436	0.153
Mof_N 	N 	0.61605	0.65643	0.0195	-0.148
Mof_C 	C 	0.6217	0.32395	0.2364	0.326
Mof_C 	C 	0.71293	0.34851	0.2846	-0.093
Mof_C 	C 	0.7267	0.39155	0.2005	-0.004
Mof_H 	H 	0.6798	0.4052	0.1172	0.041
Mof_C 	C 	0.8102	0.4158	0.2371	-0.025
Mof_H 	H 	0.8185	0.4451	0.1767	0.061
Mof_C 	C 	0.8798	0.39723	0.36	-0.076
Mof_C 	C 	0.96459	0.42893	0.3968	0.314
Mof_C 	C 	0.86956	0.35091	0.4488	0.035
Mof_C 	C 	0.941	0.32669	0.5676	-0.073
Mof_H 	H 	0.9978	0.3415	0.5928	0.075
Mof_C 	C 	0.927	0.28207	0.6447	-0.026
Mof_H 	H 	0.9747	0.2663	0.7209	0.043
Mof_C 	C 	0.8421	0.25934	0.6113	-0.019
Mof_H 	H 	0.8335	0.229	0.6665	0.044
Mof_C 	C 	0.7725	0.28149	0.4989	-0.085
Mof_H 	H 	0.7161	0.2663	0.4788	0.084
Mof_C 	C 	0.78354	0.32688	0.4119	0.051
Mof_C 	C 	0.0941	0.4311	0.0252	0.31
Mof_C 	C 	0.1625	0.39962	0.1489	-0.078
Mof_C 	C 	0.1345	0.35394	0.2045	-0.017
Mof_H 	H 	0.0745	0.3445	0.1695	0.052
Mof_C 	C 	0.1953	0.32126	0.3136	-0.013
Mof_H 	H 	0.1749	0.2909	0.3525	0.048
Mof_C 	C 	0.28346	0.33338	0.3631	-0.083
Mof_C 	C 	0.34548	0.29321	0.4641	0.309
Mof_C 	C 	0.31516	0.3811	0.3145	0.044
Mof_C 	C 	0.4054	0.39694	0.3715	-0.081
Mof_H 	H 	0.4457	0.3762	0.4477	0.083
Mof_C 	C 	0.4342	0.4419	0.3165	-0.017
Mof_H 	H 	0.494	0.4515	0.3548	0.042
Mof_C 	C 	0.3748	0.47412	0.2027	-0.024
Mof_H 	H 	0.3954	0.5046	0.1645	0.041
Mof_C 	C 	0.2865	0.46072	0.1479	-0.075
Mof_H 	H 	0.2476	0.4822	0.072	0.077
Mof_C 	C 	0.25363	0.41507	0.2042	0.045
Mof_C 	C 	0.8188	0.37722	0.8442	0.015
Mof_H 	H 	0.87	0.3651	0.9206	0.044
Mof_C 	C 	0.7389	0.35173	0.8294	0.005
Mof_H 	H 	0.7374	0.3233	0.8983	0.046
Mof_C 	C 	0.6697	0.40754	0.6266	0.004
Mof_H 	H 	0.6185	0.4191	0.5488	0.048
Mof_C 	C 	0.74896	0.4334	0.6422	0.026
Mof_C 	C 	0.75754	0.47912	0.5421	0.109
Mof_C 	C 	0.73657	0.54214	0.3776	0.11
Mof_C 	C 	0.69602	0.58229	0.2558	0.051
Mof_C 	C 	0.7455	0.62203	0.2124	-0.124
Mof_H 	H 	0.8067	0.6245	0.2612	0.085
Mof_C 	C 	0.7026	0.65812	0.095	0.088
Mof_H 	H 	0.7364	0.685	0.0675	0.02
Mof_C 	C 	0.5691	0.6181	0.0624	0.083
Mof_H 	H 	0.5083	0.6162	0.0101	0.016
Mof_C 	C 	0.6057	0.58091	0.1804	-0.126
Mof_H 	H 	0.5698	0.5552	0.2087	0.081
Mof_Cd	Cd	0.54686	0.77892	0.32799	0.455
Mof_Cd	Cd	0.0416	0.97159	0.72961	0.477
Mof_O 	O 	0.42684	0.82748	0.169	-0.28
Mof_O 	O 	0.4024	0.80204	0.3996	-0.276
Mof_O 	O 	0.01873	0.95127	0.2229	-0.278
Mof_O 	O 	0.98801	0.93177	0.9517	-0.275
Mof_O 	O 	0.96339	0.90624	0.5826	-0.277
Mof_O 	O 	0.90586	0.97995	0.4677	-0.281
Mof_O 	O 	0.67612	0.77171	0.9175	-0.275
Mof_O 	O 	0.58465	0.78073	0.0782	-0.289
Mof_N 	N 	0.17548	0.91852	0.7473	-0.119
Mof_N 	N 	0.3356	0.86614	0.779	-0.093
Mof_N 	N 	0.30785	0.00411	0.0699	-0.137
Mof_N 	N 	0.1622	0.99932	0.9406	-0.1
Mof_N 	N 	0.17622	0.03934	0.047	-0.174
Mof_H 	H 	0.1357	0.06	0.064	0.153
Mof_N 	N 	0.38395	0.15643	0.4805	-0.148
Mof_C 	C 	0.3783	0.82395	0.2636	0.327
Mof_C 	C 	0.28707	0.84851	0.2154	-0.094
Mof_C 	C 	0.2733	0.89155	0.2995	-0.003
Mof_H 	H 	0.3202	0.9052	0.3828	0.04
Mof_C 	C 	0.1898	0.9158	0.2629	-0.027
Mof_H 	H 	0.1815	0.9451	0.3233	0.061
Mof_C 	C 	0.1202	0.89723	0.14	-0.075
Mof_C 	C 	0.03541	0.92893	0.1032	0.311
Mof_C 	C 	0.13044	0.85091	0.0512	0.032
Mof_C 	C 	0.059	0.82669	0.9324	-0.07
Mof_H 	H 	0.0022	0.8415	0.9072	0.074
Mof_C 	C 	0.073	0.78207	0.8553	-0.029
Mof_H 	H 	0.0253	0.7663	0.7791	0.045
Mof_C 	C 	0.1579	0.75934	0.8887	-0.015
Mof_H 	H 	0.1665	0.729	0.8335	0.043
Mof_C 	C 	0.2275	0.78149	0.0011	-0.089
Mof_H 	H 	0.2839	0.7663	0.0212	0.085
Mof_C 	C 	0.21646	0.82688	0.0881	0.054
Mof_C 	C 	0.9059	0.9311	0.4748	0.31
Mof_C 	C 	0.8375	0.89962	0.3511	-0.078
Mof_C 	C 	0.8655	0.85394	0.2955	-0.017
Mof_H 	H 	0.9255	0.8445	0.3305	0.052
Mof_C 	C 	0.8047	0.82126	0.1864	-0.014
Mof_H 	H 	0.8251	0.7909	0.1475	0.048
Mof_C 	C 	0.71654	0.83338	0.1369	-0.083
Mof_C 	C 	0.65452	0.79321	0.0359	0.309
Mof_C 	C 	0.68484	0.8811	0.1855	0.044
Mof_C 	C 	0.5946	0.89694	0.1285	-0.08
Mof_H 	H 	0.5543	0.8762	0.0523	0.082
Mof_C 	C 	0.5658	0.9419	0.1835	-0.019
Mof_H 	H 	0.506	0.9515	0.1452	0.043
Mof_C 	C 	0.6252	0.97412	0.2973	-0.022
Mof_H 	H 	0.6046	0.0046	0.3355	0.04
Mof_C 	C 	0.7135	0.96072	0.3521	-0.077
Mof_H 	H 	0.7524	0.9822	0.428	0.077
Mof_C 	C 	0.74637	0.91507	0.2958	0.046
Mof_C 	C 	0.1812	0.87722	0.6558	0.015
Mof_H 	H 	0.13	0.8651	0.5794	0.044
Mof_C 	C 	0.2611	0.85173	0.6706	0.006
Mof_H 	H 	0.2626	0.8233	0.6017	0.046
Mof_C 	C 	0.3303	0.90754	0.8734	0.004
Mof_H 	H 	0.3815	0.9191	0.9512	0.048
Mof_C 	C 	0.25104	0.9334	0.8578	0.026
Mof_C 	C 	0.24246	0.97912	0.9579	0.108
Mof_C 	C 	0.26343	0.04214	0.1224	0.11
Mof_C 	C 	0.30398	0.08229	0.2442	0.051
Mof_C 	C 	0.2545	0.12203	0.2876	-0.124
Mof_H 	H 	0.1933	0.1245	0.2388	0.086
Mof_C 	C 	0.2974	0.15812	0.405	0.088
Mof_H 	H 	0.2636	0.185	0.4325	0.02
Mof_C 	C 	0.4309	0.1181	0.4376	0.083
Mof_H 	H 	0.4917	0.1162	0.4899	0.016
Mof_C 	C 	0.3943	0.08091	0.3196	-0.126
Mof_H 	H 	0.4302	0.0552	0.2913	0.081
Mof_Cd	Cd	0.54686	0.72108	0.82799	0.455
Mof_Cd	Cd	0.0416	0.52841	0.22961	0.479
Mof_O 	O 	0.42684	0.67252	0.669	-0.28
Mof_O 	O 	0.4024	0.69796	0.8996	-0.275
Mof_O 	O 	0.01873	0.54873	0.7229	-0.277
Mof_O 	O 	0.98801	0.56823	0.4517	-0.277
Mof_O 	O 	0.96339	0.59376	0.0826	-0.277
Mof_O 	O 	0.90586	0.52005	0.9677	-0.282
Mof_O 	O 	0.67612	0.72829	0.4175	-0.275
Mof_O 	O 	0.58465	0.71927	0.5782	-0.289
Mof_N 	N 	0.17548	0.58148	0.2473	-0.119
Mof_N 	N 	0.3356	0.63386	0.279	-0.094
Mof_N 	N 	0.30785	0.49589	0.5699	-0.137
Mof_N 	N 	0.1622	0.50068	0.4406	-0.099
Mof_N 	N 	0.17622	0.46066	0.547	-0.174
Mof_H 	H 	0.1357	0.44	0.564	0.153
Mof_N 	N 	0.38395	0.34357	0.9805	-0.148
Mof_C 	C 	0.3783	0.67605	0.7636	0.326
Mof_C 	C 	0.28707	0.65149	0.7154	-0.093
Mof_C 	C 	0.2733	0.60845	0.7995	-0.004
Mof_H 	H 	0.3202	0.5948	0.8828	0.041
Mof_C 	C 	0.1898	0.5842	0.7629	-0.025
Mof_H 	H 	0.1815	0.5549	0.8233	0.061
Mof_C 	C 	0.1202	0.60277	0.64	-0.076
Mof_C 	C 	0.03541	0.57107	0.6032	0.314
Mof_C 	C 	0.13044	0.64909	0.5512	0.035
Mof_C 	C 	0.059	0.67331	0.4324	-0.073
Mof_H 	H 	0.0022	0.6585	0.4072	0.075
Mof_C 	C 	0.073	0.71793	0.3553	-0.026
Mof_H 	H 	0.0253	0.7337	0.2791	0.043
Mof_C 	C 	0.1579	0.74066	0.3887	-0.019
Mof_H 	H 	0.1665	0.771	0.3335	0.044
Mof_C 	C 	0.2275	0.71851	0.5011	-0.085
Mof_H 	H 	0.2839	0.7337	0.5212	0.084
Mof_C 	C 	0.21646	0.67312	0.5881	0.051
Mof_C 	C 	0.9059	0.5689	0.9748	0.31
Mof_C 	C 	0.8375	0.60038	0.8511	-0.078
Mof_C 	C 	0.8655	0.64606	0.7955	-0.017
Mof_H 	H 	0.9255	0.6555	0.8305	0.052
Mof_C 	C 	0.8047	0.67874	0.6864	-0.013
Mof_H 	H 	0.8251	0.7091	0.6475	0.048
Mof_C 	C 	0.71654	0.66662	0.6369	-0.083
Mof_C 	C 	0.65452	0.70679	0.5359	0.309
Mof_C 	C 	0.68484	0.6189	0.6855	0.044
Mof_C 	C 	0.5946	0.60306	0.6285	-0.081
Mof_H 	H 	0.5543	0.6238	0.5523	0.083
Mof_C 	C 	0.5658	0.5581	0.6835	-0.017
Mof_H 	H 	0.506	0.5485	0.6452	0.042
Mof_C 	C 	0.6252	0.52588	0.7973	-0.024
Mof_H 	H 	0.6046	0.4954	0.8355	0.041
Mof_C 	C 	0.7135	0.53928	0.8521	-0.075
Mof_H 	H 	0.7524	0.5178	0.928	0.077
Mof_C 	C 	0.74637	0.58493	0.7958	0.045
Mof_C 	C 	0.1812	0.62278	0.1558	0.015
Mof_H 	H 	0.13	0.6349	0.0794	0.044
Mof_C 	C 	0.2611	0.64827	0.1706	0.005
Mof_H 	H 	0.2626	0.6767	0.1017	0.046
Mof_C 	C 	0.3303	0.59246	0.3734	0.004
Mof_H 	H 	0.3815	0.5809	0.4512	0.048
Mof_C 	C 	0.25104	0.5666	0.3578	0.026
Mof_C 	C 	0.24246	0.52088	0.4579	0.109
Mof_C 	C 	0.26343	0.45786	0.6224	0.11
Mof_C 	C 	0.30398	0.41771	0.7442	0.051
Mof_C 	C 	0.2545	0.37797	0.7876	-0.124
Mof_H 	H 	0.1933	0.3755	0.7388	0.085
Mof_C 	C 	0.2974	0.34188	0.905	0.088
Mof_H 	H 	0.2636	0.315	0.9325	0.02
Mof_C 	C 	0.4309	0.3819	0.9376	0.083
Mof_H 	H 	0.4917	0.3838	0.9899	0.016
Mof_C 	C 	0.3943	0.41909	0.8196	-0.126
Mof_H 	H 	0.4302	0.4448	0.7913	0.081
Mof_Cd	Cd	0.45314	0.22108	0.67201	0.455
Mof_Cd	Cd	0.9584	0.02841	0.27039	0.477
Mof_O 	O 	0.57316	0.17252	0.831	-0.28
Mof_O 	O 	0.5976	0.19796	0.6004	-0.276
Mof_O 	O 	0.98127	0.04873	0.7771	-0.278
Mof_O 	O 	0.01199	0.06823	0.0483	-0.275
Mof_O 	O 	0.03661	0.09376	0.4174	-0.277
Mof_O 	O 	0.09414	0.02005	0.5323	-0.281
Mof_O 	O 	0.32388	0.22829	0.0825	-0.275
Mof_O 	O 	0.41535	0.21927	0.9218	-0.289
Mof_N 	N 	0.82452	0.08148	0.2527	-0.119
Mof_N 	N 	0.6644	0.13386	0.221	-0.093
Mof_N 	N 	0.69215	0.99589	0.9301	-0.137
Mof_N 	N 	0.8378	0.00068	0.0594	-0.1
Mof_N 	N 	0.82378	0.96066	0.953	-0.174
Mof_H 	H 	0.8643	0.94	0.936	0.153
Mof_N 	N 	0.61605	0.84357	0.5195	-0.148
Mof_C 	C 	0.6217	0.17605	0.7364	0.327
Mof_C 	C 	0.71293	0.15149	0.7846	-0.094
Mof_C 	C 	0.7267	0.10845	0.7005	-0.003
Mof_H 	H 	0.6798	0.0948	0.6172	0.04
Mof_C 	C 	0.8102	0.0842	0.7371	-0.027
Mof_H 	H 	0.8185	0.0549	0.6767	0.061
Mof_C 	C 	0.8798	0.10277	0.86	-0.075
Mof_C 	C 	0.96459	0.07107	0.8968	0.311
Mof_C 	C 	0.86956	0.14909	0.9488	0.032
Mof_C 	C 	0.941	0.17331	0.0676	-0.07
Mof_H 	H 	0.9978	0.1585	0.0928	0.074
Mof_C 	C 	0.927	0.21793	0.1447	-0.029
Mof_H 	H 	0.9747	0.2337	0.2209	0.045
Mof_C 	C 	0.8421	0.24066	0.1113	-0.015
Mof_H 	H 	0.8335	0.271	0.1665	0.043
Mof_C 	C 	0.7725	0.21851	0.9989	-0.089
Mof_H 	H 	0.7161	0.2337	0.9788	0.085
Mof_C 	C 	0.78354	0.17312	0.9119	0.054
Mof_C 	C 	0.0941	0.0689	0.5252	0.31
Mof_C 	C 	0.1625	0.10038	0.6489	-0.078
Mof_C 	C 	0.1345	0.14606	0.7045	-0.017
Mof_H 	H 	0.0745	0.1555	0.6695	0.052
Mof_C 	C 	0.1953	0.17874	0.8136	-0.014
Mof_H 	H 	0.1749	0.2091	0.8525	0.048
Mof_C 	C 	0.28346	0.16662	0.8631	-0.083
Mof_C 	C 	0.34548	0.20679	0.9641	0.309
Mof_C 	C 	0.31516	0.1189	0.8145	0.044
Mof_C 	C 	0.4054	0.10306	0.8715	-0.08
Mof_H 	H 	0.4457	0.1238	0.9477	0.082
Mof_C 	C 	0.4342	0.0581	0.8165	-0.019
Mof_H 	H 	0.494	0.0485	0.8548	0.043
Mof_C 	C 	0.3748	0.02588	0.7027	-0.022
Mof_H 	H 	0.3954	0.9954	0.6645	0.04
Mof_C 	C 	0.2865	0.03928	0.6479	-0.077
Mof_H 	H 	0.2476	0.0178	0.572	0.077
Mof_C 	C 	0.25363	0.08493	0.7042	0.046
Mof_C 	C 	0.8188	0.12278	0.3442	0.015
Mof_H 	H 	0.87	0.1349	0.4206	0.044
Mof_C 	C 	0.7389	0.14827	0.3294	0.006
Mof_H 	H 	0.7374	0.1767	0.3983	0.046
Mof_C 	C 	0.6697	0.09246	0.1266	0.004
Mof_H 	H 	0.6185	0.0809	0.0488	0.048
Mof_C 	C 	0.74896	0.0666	0.1422	0.026
Mof_C 	C 	0.75754	0.02088	0.0421	0.108
Mof_C 	C 	0.73657	0.95786	0.8776	0.11
Mof_C 	C 	0.69602	0.91771	0.7558	0.051
Mof_C 	C 	0.7455	0.87797	0.7124	-0.124
Mof_H 	H 	0.8067	0.8755	0.7612	0.086
Mof_C 	C 	0.7026	0.84188	0.595	0.088
Mof_H 	H 	0.7364	0.815	0.5675	0.02
Mof_C 	C 	0.5691	0.8819	0.5624	0.083
Mof_H 	H 	0.5083	0.8838	0.5101	0.016
Mof_C 	C 	0.6057	0.91909	0.6804	-0.126
Mof_H 	H 	0.5698	0.9448	0.7087	0.081
_end
