data_functionalizedCrystal
_audit_creation_method	'EQeq! by Chris Wilmer'
_symmetry_space_group_name_H-M	'P1'
_symmetry_Int_Tables_number	1
_symmetry_cell_setting	triclinic
loop_
_symmetry_equiv_pos_as_xyz
  x,y,z
_cell_length_a	5.04
_cell_length_b	22.738
_cell_length_c	9.2968
_cell_angle_alpha	90
_cell_angle_beta	103.8
_cell_angle_gamma	90
loop_
_atom_site_label
_atom_site_type_symbol
_atom_site_fract_x
_atom_site_fract_y
_atom_site_fract_z
_atom_site_charge
Mof_Ga	Ga	0.8195	0.21119	0.74583	4.224
Mof_Ga	Ga	0.1796	0.06307	0.60166	4.695
Mof_Ga	Ga	0.9319	0.92714	0.01698	4.088
Mof_Ga	Ga	0.5713	0.07737	0.15127	4.614
Mof_P 	P 	0.35	0.155	0.8777	1.099
Mof_P 	P 	0.1161	0.0169	0.2691	1.142
Mof_P 	P 	0.4052	0.98278	0.877	1.114
Mof_P 	P 	0.317	0.83047	0.1362	0.736
Mof_P 	P 	0.6314	0.12765	0.4841	1.059
Mof_O 	O 	0.7649	0.1866	0.5561	-1.249
Mof_O 	O 	0.2821	0.789	0.2599	-1.125
Mof_O 	O 	0.1796	0.214	0.8515	-1.171
Mof_O 	O 	0.6346	0.1674	0.8537	-1.292
Mof_O 	O 	0.1892	0.1105	0.778	-1.321
Mof_O 	O 	0.8017	0.0751	0.5481	-1.351
Mof_O 	O 	0.3519	0.0009	0.7134	-1.23
Mof_O 	O 	0.1382	0.0098	0.4346	-1.086
Mof_O 	O 	0.346	0.1231	0.5147	-1.271
Mof_O 	O 	0.0346	0.8506	0.0439	-1.111
Mof_O 	O 	0.5886	0.9282	0.8972	-1.194
Mof_O 	O 	0.1292	0.9679	0.9073	-1.252
Mof_O 	O 	0.973	0.9617	0.1981	-1.276
Mof_O 	O 	0.3861	0.1415	0.0428	-1.168
Mof_O 	O 	0.5528	0.0321	0.9762	-1.289
Mof_O 	O 	0.6095	0.1367	0.3198	-0.962
Mof_O 	O 	0.4033	0.023	0.2435	-1.315
Mof_O 	O 	0.9527	0.0727	0.2046	-1.322
Mof_O 	O 	0.4251	0.7928	0.0192	-0.322
Mof_O 	O 	0.5043	0.8802	0.1972	-0.46
Mof_Ga	Ga	0.1805	0.71119	0.25417	4.215
Mof_Ga	Ga	0.8204	0.56307	0.39834	4.704
Mof_Ga	Ga	0.0681	0.42714	0.98302	4.096
Mof_Ga	Ga	0.4287	0.57737	0.84873	4.598
Mof_P 	P 	0.65	0.655	0.1223	1.102
Mof_P 	P 	0.8839	0.5169	0.7309	1.124
Mof_P 	P 	0.5948	0.48278	0.123	1.156
Mof_P 	P 	0.683	0.33047	0.8638	0.736
Mof_P 	P 	0.3686	0.62765	0.5159	1.059
Mof_O 	O 	0.2351	0.6866	0.4439	-1.249
Mof_O 	O 	0.7179	0.289	0.7401	-1.125
Mof_O 	O 	0.8204	0.714	0.1485	-1.167
Mof_O 	O 	0.3654	0.6674	0.1463	-1.291
Mof_O 	O 	0.8108	0.6105	0.222	-1.323
Mof_O 	O 	0.1983	0.5751	0.4519	-1.358
Mof_O 	O 	0.6481	0.5009	0.2866	-1.256
Mof_O 	O 	0.8618	0.5098	0.5654	-1.092
Mof_O 	O 	0.654	0.6231	0.4853	-1.271
Mof_O 	O 	0.9654	0.3506	0.9561	-1.111
Mof_O 	O 	0.4114	0.4282	0.1028	-1.193
Mof_O 	O 	0.8708	0.4679	0.0927	-1.244
Mof_O 	O 	0.027	0.4617	0.8019	-1.254
Mof_O 	O 	0.6139	0.6415	0.9572	-1.169
Mof_O 	O 	0.4472	0.5321	0.0238	-1.308
Mof_O 	O 	0.3905	0.6367	0.6802	-0.961
Mof_O 	O 	0.5967	0.523	0.7565	-1.321
Mof_O 	O 	0.0473	0.5727	0.7954	-1.324
Mof_O 	O 	0.5749	0.2928	0.9808	-0.322
Mof_O 	O 	0.4957	0.3802	0.8028	-0.455
_end
