data_functionalizedCrystal
_audit_creation_method	'EQeq! by Chris Wilmer'
_symmetry_space_group_name_H-M	'P1'
_symmetry_Int_Tables_number	1
_symmetry_cell_setting	triclinic
loop_
_symmetry_equiv_pos_as_xyz
  x,y,z
_cell_length_a	31.236
_cell_length_b	31.236
_cell_length_c	28.194
_cell_angle_alpha	90
_cell_angle_beta	90
_cell_angle_gamma	90
loop_
_atom_site_label
_atom_site_type_symbol
_atom_site_fract_x
_atom_site_fract_y
_atom_site_fract_z
_atom_site_charge
Mof_C 	C 	0.9023	0.2003	0.4356	0.381
Mof_C 	C 	0.9261	0.22082	0.396	-0.125
Mof_C 	C 	0.9129	0.2599	0.3781	0.069
Mof_H 	H 	0.8892	0.2733	0.3913	0.035
Mof_C 	C 	0.9343	0.2794	0.3409	-0.132
Mof_H 	H 	0.925	0.3057	0.3293	0.106
Mof_C 	C 	0.9834	0.2217	0.3389	-0.102
Mof_H 	H 	0.0073	0.2082	0.3262	0.06
Mof_C 	C 	0.9613	0.2026	0.3769	0.054
Mof_H 	H 	0.9711	0.1768	0.3891	0.034
Mof_C 	C 	0.9702	0.2593	0.3207	0.082
Mof_C 	C 	0.9963	0.3242	0.2779	0.044
Mof_H 	H 	0.9836	0.3407	0.3016	0.047
Mof_C 	C 	0.9927	0.27969	0.2804	-0.006
Mof_C 	C 	0.0122	0.2556	0.2446	-0.053
Mof_H 	H 	0.0107	0.2259	0.2455	0.047
Mof_C 	C 	0.0342	0.276	0.2074	-0.035
Mof_C 	C 	0.035	0.32044	0.2083	0.023
Mof_H 	H 	0.0487	0.3347	0.1837	0.044
Mof_C 	C 	0.0567	0.25171	0.1702	0.117
Mof_C 	C 	0.0407	0.2138	0.1553	-0.162
Mof_H 	H 	0.0159	0.2032	0.1692	0.087
Mof_C 	C 	0.061	0.1898	0.1189	0.082
Mof_H 	H 	0.0492	0.1642	0.1084	0.014
Mof_C 	C 	0.099	0.2052	0.0993	-0.157
Mof_C 	C 	0.114	0.2432	0.115	0.101
Mof_H 	H 	0.1389	0.2544	0.1017	0.016
Mof_C 	C 	0.0933	0.2659	0.1505	-0.172
Mof_H 	H 	0.105	0.2915	0.1611	0.101
Mof_C 	C 	0.1218	0.1802	0.0632	0.385
Mof_O 	O 	0.15695	0.1951	0.04884	-0.416
Mof_O 	O 	0.10478	0.14601	0.04909	-0.422
Mof_Cu	Cu	0.02158	0.40859	0.24561	0.911
Mof_N 	N 	0.01703	0.34408	0.24286	-0.192
Mof_O 	O 	0.86918	0.21796	0.45075	-0.408
Mof_O 	O 	0.91733	0.16539	0.45027	-0.41
Mof_O 	O 	0.03438	0.40016	0.31434	-0.436
Mof_O 	O 	0.02586	0.46813	0.35192	-0.398
Mof_O 	O 	0.0935	0.4476	0.31931	-0.429
Mof_O 	O 	0.06743	0.41386	0.38886	-0.258
Mof_O 	O 	0.95894	0.419	0.2208	-0.413
Mof_O 	O 	0.9186	0.38253	0.2818	-0.275
Mof_S 	S 	0.056	0.43211	0.34416	0.729
Mof_C 	C 	0.0977	0.7997	0.4356	0.399
Mof_C 	C 	0.0739	0.77918	0.396	-0.176
Mof_C 	C 	0.0871	0.7401	0.3781	0.12
Mof_H 	H 	0.1108	0.7267	0.3913	0.016
Mof_C 	C 	0.0657	0.7206	0.3409	-0.192
Mof_H 	H 	0.075	0.6943	0.3293	0.125
Mof_C 	C 	0.0166	0.7783	0.3389	-0.23
Mof_H 	H 	0.9927	0.7918	0.3262	0.129
Mof_C 	C 	0.0387	0.7974	0.3769	0.134
Mof_H 	H 	0.0289	0.8232	0.3891	0.002
Mof_C 	C 	0.0298	0.7407	0.3207	0.156
Mof_C 	C 	0.0037	0.6758	0.2779	0.04
Mof_H 	H 	0.0164	0.6593	0.3016	0.04
Mof_C 	C 	0.0073	0.72031	0.2804	-0.075
Mof_C 	C 	0.9878	0.7444	0.2446	0.015
Mof_H 	H 	0.9893	0.7741	0.2455	0.031
Mof_C 	C 	0.9658	0.724	0.2074	-0.059
Mof_C 	C 	0.965	0.67956	0.2083	0.043
Mof_H 	H 	0.9513	0.6653	0.1837	0.04
Mof_C 	C 	0.9433	0.74829	0.1702	0.136
Mof_C 	C 	0.9593	0.7862	0.1553	-0.172
Mof_H 	H 	0.9841	0.7968	0.1692	0.098
Mof_C 	C 	0.939	0.8102	0.1189	0.092
Mof_H 	H 	0.9508	0.8358	0.1084	0.017
Mof_C 	C 	0.901	0.7948	0.0993	-0.161
Mof_C 	C 	0.886	0.7568	0.115	0.111
Mof_H 	H 	0.8611	0.7456	0.1017	0.014
Mof_C 	C 	0.9067	0.7341	0.1505	-0.184
Mof_H 	H 	0.895	0.7085	0.1611	0.106
Mof_C 	C 	0.8782	0.8198	0.0632	0.387
Mof_O 	O 	0.84305	0.8049	0.04884	-0.416
Mof_O 	O 	0.89522	0.85399	0.04909	-0.418
Mof_Cu	Cu	0.97842	0.59141	0.24561	0.917
Mof_N 	N 	0.98297	0.65592	0.24286	-0.181
Mof_O 	O 	0.13082	0.78204	0.45075	-0.413
Mof_O 	O 	0.08267	0.83461	0.45027	-0.415
Mof_O 	O 	0.96562	0.59984	0.31434	-0.425
Mof_O 	O 	0.97414	0.53187	0.35192	-0.384
Mof_O 	O 	0.9065	0.5524	0.31931	-0.427
Mof_O 	O 	0.93257	0.58614	0.38886	-0.249
Mof_O 	O 	0.04106	0.581	0.2208	-0.429
Mof_O 	O 	0.0814	0.61747	0.2818	-0.281
Mof_S 	S 	0.944	0.56789	0.34416	0.725
Mof_C 	C 	0.7997	0.9023	0.9356	0.376
Mof_C 	C 	0.77918	0.9261	0.896	-0.113
Mof_C 	C 	0.7401	0.9129	0.8781	0.064
Mof_H 	H 	0.7267	0.8892	0.8913	0.042
Mof_C 	C 	0.7206	0.9343	0.8409	-0.124
Mof_H 	H 	0.6943	0.925	0.8293	0.105
Mof_C 	C 	0.7783	0.9834	0.8389	-0.093
Mof_H 	H 	0.7918	0.0073	0.8262	0.062
Mof_C 	C 	0.7974	0.9613	0.8769	0.049
Mof_H 	H 	0.8232	0.9711	0.8891	0.043
Mof_C 	C 	0.7407	0.9702	0.8207	0.079
Mof_C 	C 	0.6758	0.9963	0.7779	0.044
Mof_H 	H 	0.6593	0.9836	0.8016	0.049
Mof_C 	C 	0.72031	0.9927	0.7804	-0.001
Mof_C 	C 	0.7444	0.0122	0.7446	-0.056
Mof_H 	H 	0.7741	0.0107	0.7455	0.051
Mof_C 	C 	0.724	0.0342	0.7074	-0.03
Mof_C 	C 	0.67956	0.035	0.7083	0.023
Mof_H 	H 	0.6653	0.0487	0.6837	0.046
Mof_C 	C 	0.74829	0.0567	0.6702	0.114
Mof_C 	C 	0.7862	0.0407	0.6553	-0.154
Mof_H 	H 	0.7968	0.0159	0.6692	0.089
Mof_C 	C 	0.8102	0.061	0.6189	0.079
Mof_H 	H 	0.8358	0.0492	0.6084	0.022
Mof_C 	C 	0.7948	0.099	0.5993	-0.148
Mof_C 	C 	0.7568	0.114	0.615	0.097
Mof_H 	H 	0.7456	0.1389	0.6017	0.023
Mof_C 	C 	0.7341	0.0933	0.6505	-0.165
Mof_H 	H 	0.7085	0.105	0.6611	0.101
Mof_C 	C 	0.8198	0.1218	0.5632	0.383
Mof_O 	O 	0.8049	0.15695	0.54884	-0.405
Mof_O 	O 	0.85399	0.10478	0.54909	-0.409
Mof_Cu	Cu	0.59141	0.02158	0.74561	0.911
Mof_N 	N 	0.65592	0.01703	0.74286	-0.19
Mof_O 	O 	0.78204	0.86918	0.95075	-0.387
Mof_O 	O 	0.83461	0.91733	0.95027	-0.387
Mof_O 	O 	0.59984	0.03438	0.81434	-0.434
Mof_O 	O 	0.53187	0.02586	0.85192	-0.393
Mof_O 	O 	0.5524	0.0935	0.81931	-0.426
Mof_O 	O 	0.58614	0.06743	0.88886	-0.247
Mof_O 	O 	0.581	0.95894	0.7208	-0.411
Mof_O 	O 	0.61747	0.9186	0.7818	-0.271
Mof_S 	S 	0.56789	0.056	0.84416	0.727
Mof_C 	C 	0.2003	0.0977	0.9356	0.395
Mof_C 	C 	0.22082	0.0739	0.896	-0.167
Mof_C 	C 	0.2599	0.0871	0.8781	0.116
Mof_H 	H 	0.2733	0.1108	0.8913	0.023
Mof_C 	C 	0.2794	0.0657	0.8409	-0.185
Mof_H 	H 	0.3057	0.075	0.8293	0.125
Mof_C 	C 	0.2217	0.0166	0.8389	-0.224
Mof_H 	H 	0.2082	0.9927	0.8262	0.128
Mof_C 	C 	0.2026	0.0387	0.8769	0.129
Mof_H 	H 	0.1768	0.0289	0.8891	0.007
Mof_C 	C 	0.2593	0.0298	0.8207	0.153
Mof_C 	C 	0.3242	0.0037	0.7779	0.039
Mof_H 	H 	0.3407	0.0164	0.8016	0.042
Mof_C 	C 	0.27969	0.0073	0.7804	-0.072
Mof_C 	C 	0.2556	0.9878	0.7446	0.014
Mof_H 	H 	0.2259	0.9893	0.7455	0.032
Mof_C 	C 	0.276	0.9658	0.7074	-0.056
Mof_C 	C 	0.32044	0.965	0.7083	0.042
Mof_H 	H 	0.3347	0.9513	0.6837	0.042
Mof_C 	C 	0.25171	0.9433	0.6702	0.134
Mof_C 	C 	0.2138	0.9593	0.6553	-0.167
Mof_H 	H 	0.2032	0.9841	0.6692	0.098
Mof_C 	C 	0.1898	0.939	0.6189	0.09
Mof_H 	H 	0.1642	0.9508	0.6084	0.02
Mof_C 	C 	0.2052	0.901	0.5993	-0.155
Mof_C 	C 	0.2432	0.886	0.615	0.108
Mof_H 	H 	0.2544	0.8611	0.6017	0.02
Mof_C 	C 	0.2659	0.9067	0.6505	-0.179
Mof_H 	H 	0.2915	0.895	0.6611	0.107
Mof_C 	C 	0.1802	0.8782	0.5632	0.386
Mof_O 	O 	0.1951	0.84305	0.54884	-0.405
Mof_O 	O 	0.14601	0.89522	0.54909	-0.409
Mof_Cu	Cu	0.40859	0.97842	0.74561	0.918
Mof_N 	N 	0.34408	0.98297	0.74286	-0.18
Mof_O 	O 	0.21796	0.13082	0.95075	-0.393
Mof_O 	O 	0.16539	0.08267	0.95027	-0.397
Mof_O 	O 	0.40016	0.96562	0.81434	-0.423
Mof_O 	O 	0.46813	0.97414	0.85192	-0.38
Mof_O 	O 	0.4476	0.9065	0.81931	-0.424
Mof_O 	O 	0.41386	0.93257	0.88886	-0.239
Mof_O 	O 	0.419	0.04106	0.7208	-0.427
Mof_O 	O 	0.38253	0.0814	0.7818	-0.278
Mof_S 	S 	0.43211	0.944	0.84416	0.723
Mof_C 	C 	0.5977	0.7003	0.5644	0.39
Mof_C 	C 	0.5739	0.72082	0.604	-0.149
Mof_C 	C 	0.5871	0.7599	0.6219	0.094
Mof_H 	H 	0.6108	0.7733	0.6087	0.027
Mof_C 	C 	0.5657	0.7794	0.6591	-0.16
Mof_H 	H 	0.575	0.8057	0.6707	0.116
Mof_C 	C 	0.5166	0.7217	0.6611	-0.164
Mof_H 	H 	0.4927	0.7082	0.6738	0.095
Mof_C 	C 	0.5387	0.7026	0.6231	0.094
Mof_H 	H 	0.5289	0.6768	0.6109	0.019
Mof_C 	C 	0.5298	0.7593	0.6793	0.119
Mof_C 	C 	0.5037	0.8242	0.7221	0.042
Mof_H 	H 	0.5164	0.8407	0.6984	0.044
Mof_C 	C 	0.5073	0.77969	0.7196	-0.038
Mof_C 	C 	0.4878	0.7556	0.7554	-0.021
Mof_H 	H 	0.4893	0.7259	0.7545	0.041
Mof_C 	C 	0.4658	0.776	0.7926	-0.04
Mof_C 	C 	0.465	0.82044	0.7917	0.032
Mof_H 	H 	0.4513	0.8347	0.8163	0.047
Mof_C 	C 	0.4433	0.75171	0.8298	0.121
Mof_C 	C 	0.4593	0.7138	0.8447	-0.154
Mof_H 	H 	0.4841	0.7032	0.8308	0.094
Mof_C 	C 	0.439	0.6898	0.8811	0.08
Mof_H 	H 	0.4508	0.6642	0.8916	0.027
Mof_C 	C 	0.401	0.7052	0.9007	-0.141
Mof_C 	C 	0.386	0.7432	0.885	0.097
Mof_H 	H 	0.3611	0.7544	0.8983	0.028
Mof_C 	C 	0.4067	0.7659	0.8495	-0.164
Mof_H 	H 	0.395	0.7915	0.8389	0.103
Mof_C 	C 	0.3782	0.6802	0.9368	0.38
Mof_O 	O 	0.34305	0.6951	0.95116	-0.385
Mof_O 	O 	0.39522	0.64601	0.95091	-0.389
Mof_Cu	Cu	0.47842	0.90859	0.75439	0.914
Mof_N 	N 	0.48297	0.84408	0.75714	-0.185
Mof_O 	O 	0.63082	0.71796	0.54925	-0.41
Mof_O 	O 	0.58267	0.66539	0.54973	-0.412
Mof_O 	O 	0.46562	0.90016	0.68566	-0.43
Mof_O 	O 	0.47414	0.96813	0.64808	-0.385
Mof_O 	O 	0.4065	0.9476	0.68069	-0.425
Mof_O 	O 	0.43257	0.91386	0.61114	-0.251
Mof_O 	O 	0.54106	0.919	0.7792	-0.415
Mof_O 	O 	0.5814	0.88253	0.7182	-0.274
Mof_S 	S 	0.444	0.93211	0.65584	0.725
Mof_C 	C 	0.4023	0.2997	0.5644	0.391
Mof_C 	C 	0.4261	0.27918	0.604	-0.15
Mof_C 	C 	0.4129	0.2401	0.6219	0.095
Mof_H 	H 	0.3892	0.2267	0.6087	0.025
Mof_C 	C 	0.4343	0.2206	0.6591	-0.161
Mof_H 	H 	0.425	0.1943	0.6707	0.115
Mof_C 	C 	0.4834	0.2783	0.6611	-0.165
Mof_H 	H 	0.5073	0.2918	0.6738	0.095
Mof_C 	C 	0.4613	0.2974	0.6231	0.094
Mof_H 	H 	0.4711	0.3232	0.6109	0.019
Mof_C 	C 	0.4702	0.2407	0.6793	0.119
Mof_C 	C 	0.4963	0.1758	0.7221	0.042
Mof_H 	H 	0.4836	0.1593	0.6984	0.043
Mof_C 	C 	0.4927	0.22031	0.7196	-0.038
Mof_C 	C 	0.5122	0.2444	0.7554	-0.021
Mof_H 	H 	0.5107	0.2741	0.7545	0.041
Mof_C 	C 	0.5342	0.224	0.7926	-0.041
Mof_C 	C 	0.535	0.17956	0.7917	0.032
Mof_H 	H 	0.5487	0.1653	0.8163	0.046
Mof_C 	C 	0.5567	0.24829	0.8298	0.121
Mof_C 	C 	0.5407	0.2862	0.8447	-0.154
Mof_H 	H 	0.5159	0.2968	0.8308	0.094
Mof_C 	C 	0.561	0.3102	0.8811	0.08
Mof_H 	H 	0.5492	0.3358	0.8916	0.027
Mof_C 	C 	0.599	0.2948	0.9007	-0.141
Mof_C 	C 	0.614	0.2568	0.885	0.097
Mof_H 	H 	0.6389	0.2456	0.8983	0.028
Mof_C 	C 	0.5933	0.2341	0.8495	-0.165
Mof_H 	H 	0.605	0.2085	0.8389	0.103
Mof_C 	C 	0.6218	0.3198	0.9368	0.38
Mof_O 	O 	0.65695	0.3049	0.95116	-0.385
Mof_O 	O 	0.60478	0.35399	0.95091	-0.389
Mof_Cu	Cu	0.52158	0.09141	0.75439	0.914
Mof_N 	N 	0.51703	0.15592	0.75714	-0.185
Mof_O 	O 	0.36918	0.28204	0.54925	-0.411
Mof_O 	O 	0.41733	0.33461	0.54973	-0.412
Mof_O 	O 	0.53438	0.09984	0.68566	-0.431
Mof_O 	O 	0.52586	0.03187	0.64808	-0.398
Mof_O 	O 	0.5935	0.0524	0.68069	-0.43
Mof_O 	O 	0.56743	0.08614	0.61114	-0.256
Mof_O 	O 	0.45894	0.081	0.7792	-0.42
Mof_O 	O 	0.4186	0.11747	0.7182	-0.278
Mof_S 	S 	0.556	0.06789	0.65584	0.728
Mof_C 	C 	0.7003	0.4023	0.0644	0.392
Mof_C 	C 	0.72082	0.4261	0.104	-0.157
Mof_C 	C 	0.7599	0.4129	0.1219	0.097
Mof_H 	H 	0.7733	0.3892	0.1087	0.021
Mof_C 	C 	0.7794	0.4343	0.1591	-0.166
Mof_H 	H 	0.8057	0.425	0.1707	0.116
Mof_C 	C 	0.7217	0.4834	0.1611	-0.17
Mof_H 	H 	0.7082	0.5073	0.1738	0.094
Mof_C 	C 	0.7026	0.4613	0.1231	0.097
Mof_H 	H 	0.6768	0.4711	0.1109	0.013
Mof_C 	C 	0.7593	0.4702	0.1793	0.121
Mof_C 	C 	0.8242	0.4963	0.2221	0.042
Mof_H 	H 	0.8407	0.4836	0.1984	0.042
Mof_C 	C 	0.77969	0.4927	0.2196	-0.041
Mof_C 	C 	0.7556	0.5122	0.2554	-0.019
Mof_H 	H 	0.7259	0.5107	0.2545	0.039
Mof_C 	C 	0.776	0.5342	0.2926	-0.045
Mof_C 	C 	0.82044	0.535	0.2917	0.033
Mof_H 	H 	0.8347	0.5487	0.3163	0.044
Mof_C 	C 	0.75171	0.5567	0.3298	0.124
Mof_C 	C 	0.7138	0.5407	0.3447	-0.161
Mof_H 	H 	0.7032	0.5159	0.3308	0.093
Mof_C 	C 	0.6898	0.561	0.3811	0.084
Mof_H 	H 	0.6642	0.5492	0.3916	0.021
Mof_C 	C 	0.7052	0.599	0.4007	-0.151
Mof_C 	C 	0.7432	0.614	0.385	0.102
Mof_H 	H 	0.7544	0.6389	0.3983	0.022
Mof_C 	C 	0.7659	0.5933	0.3495	-0.172
Mof_H 	H 	0.7915	0.605	0.3389	0.104
Mof_C 	C 	0.6802	0.6218	0.4368	0.385
Mof_O 	O 	0.6951	0.65695	0.45116	-0.404
Mof_O 	O 	0.64601	0.60478	0.45091	-0.41
Mof_Cu	Cu	0.90859	0.52158	0.25439	0.914
Mof_N 	N 	0.84408	0.51703	0.25714	-0.186
Mof_O 	O 	0.71796	0.36918	0.04925	-0.421
Mof_O 	O 	0.66539	0.41733	0.04973	-0.423
Mof_O 	O 	0.90016	0.53438	0.18566	-0.432
Mof_O 	O 	0.96813	0.52586	0.14808	-0.39
Mof_O 	O 	0.9476	0.5935	0.18069	-0.427
Mof_O 	O 	0.91386	0.56743	0.11114	-0.261
Mof_O 	O 	0.919	0.45894	0.2792	-0.417
Mof_O 	O 	0.88253	0.4186	0.2182	-0.278
Mof_S 	S 	0.93211	0.556	0.15584	0.727
Mof_C 	C 	0.2997	0.5977	0.0644	0.392
Mof_C 	C 	0.27918	0.5739	0.104	-0.158
Mof_C 	C 	0.2401	0.5871	0.1219	0.097
Mof_H 	H 	0.2267	0.6108	0.1087	0.02
Mof_C 	C 	0.2206	0.5657	0.1591	-0.167
Mof_H 	H 	0.1943	0.575	0.1707	0.115
Mof_C 	C 	0.2783	0.5166	0.1611	-0.171
Mof_H 	H 	0.2918	0.4927	0.1738	0.094
Mof_C 	C 	0.2974	0.5387	0.1231	0.097
Mof_H 	H 	0.3232	0.5289	0.1109	0.013
Mof_C 	C 	0.2407	0.5298	0.1793	0.121
Mof_C 	C 	0.1758	0.5037	0.2221	0.043
Mof_H 	H 	0.1593	0.5164	0.1984	0.042
Mof_C 	C 	0.22031	0.5073	0.2196	-0.042
Mof_C 	C 	0.2444	0.4878	0.2554	-0.019
Mof_H 	H 	0.2741	0.4893	0.2545	0.039
Mof_C 	C 	0.224	0.4658	0.2926	-0.045
Mof_C 	C 	0.17956	0.465	0.2917	0.033
Mof_H 	H 	0.1653	0.4513	0.3163	0.044
Mof_C 	C 	0.24829	0.4433	0.3298	0.124
Mof_C 	C 	0.2862	0.4593	0.3447	-0.162
Mof_H 	H 	0.2968	0.4841	0.3308	0.093
Mof_C 	C 	0.3102	0.439	0.3811	0.085
Mof_H 	H 	0.3358	0.4508	0.3916	0.02
Mof_C 	C 	0.2948	0.401	0.4007	-0.152
Mof_C 	C 	0.2568	0.386	0.385	0.103
Mof_H 	H 	0.2456	0.3611	0.3983	0.02
Mof_C 	C 	0.2341	0.4067	0.3495	-0.173
Mof_H 	H 	0.2085	0.395	0.3389	0.103
Mof_C 	C 	0.3198	0.3782	0.4368	0.385
Mof_O 	O 	0.3049	0.34305	0.45116	-0.406
Mof_O 	O 	0.35399	0.39522	0.45091	-0.41
Mof_Cu	Cu	0.09141	0.47842	0.25439	0.914
Mof_N 	N 	0.15592	0.48297	0.25714	-0.186
Mof_O 	O 	0.28204	0.63082	0.04925	-0.422
Mof_O 	O 	0.33461	0.58267	0.04973	-0.423
Mof_O 	O 	0.09984	0.46562	0.18566	-0.434
Mof_O 	O 	0.03187	0.47414	0.14808	-0.403
Mof_O 	O 	0.0524	0.4065	0.18069	-0.432
Mof_O 	O 	0.08614	0.43257	0.11114	-0.266
Mof_O 	O 	0.081	0.54106	0.2792	-0.422
Mof_O 	O 	0.11747	0.5814	0.2182	-0.281
Mof_S 	S 	0.06789	0.444	0.15584	0.73
Mof_C 	C 	0.0977	0.7997	0.5644	0.4
Mof_C 	C 	0.0739	0.77918	0.604	-0.175
Mof_C 	C 	0.0871	0.7401	0.6219	0.12
Mof_H 	H 	0.1108	0.7267	0.6087	0.017
Mof_C 	C 	0.0657	0.7206	0.6591	-0.191
Mof_H 	H 	0.075	0.6943	0.6707	0.126
Mof_C 	C 	0.0166	0.7783	0.6611	-0.229
Mof_H 	H 	0.9927	0.7918	0.6738	0.129
Mof_C 	C 	0.0387	0.7974	0.6231	0.134
Mof_H 	H 	0.0289	0.8232	0.6109	0.003
Mof_C 	C 	0.0298	0.7407	0.6793	0.156
Mof_C 	C 	0.0037	0.6758	0.7221	0.04
Mof_H 	H 	0.0164	0.6593	0.6984	0.04
Mof_C 	C 	0.0073	0.72031	0.7196	-0.072
Mof_C 	C 	0.9878	0.7444	0.7554	0.013
Mof_H 	H 	0.9893	0.7741	0.7545	0.033
Mof_C 	C 	0.9658	0.724	0.7926	-0.053
Mof_C 	C 	0.965	0.67956	0.7917	0.042
Mof_H 	H 	0.9513	0.6653	0.8163	0.044
Mof_C 	C 	0.9433	0.74829	0.8298	0.131
Mof_C 	C 	0.9593	0.7862	0.8447	-0.16
Mof_H 	H 	0.9841	0.7968	0.8308	0.099
Mof_C 	C 	0.939	0.8102	0.8811	0.085
Mof_H 	H 	0.9508	0.8358	0.8916	0.029
Mof_C 	C 	0.901	0.7948	0.9007	-0.143
Mof_C 	C 	0.886	0.7568	0.885	0.102
Mof_H 	H 	0.8611	0.7456	0.8983	0.027
Mof_C 	C 	0.9067	0.7341	0.8495	-0.17
Mof_H 	H 	0.895	0.7085	0.8389	0.106
Mof_C 	C 	0.8782	0.8198	0.9368	0.381
Mof_O 	O 	0.84305	0.8049	0.95116	-0.385
Mof_O 	O 	0.89522	0.85399	0.95091	-0.387
Mof_Cu	Cu	0.97842	0.59141	0.75439	0.918
Mof_N 	N 	0.98297	0.65592	0.75714	-0.18
Mof_O 	O 	0.13082	0.78204	0.54925	-0.413
Mof_O 	O 	0.08267	0.83461	0.54973	-0.415
Mof_O 	O 	0.96562	0.59984	0.68566	-0.425
Mof_O 	O 	0.97414	0.53187	0.64808	-0.384
Mof_O 	O 	0.9065	0.5524	0.68069	-0.426
Mof_O 	O 	0.93257	0.58614	0.61114	-0.249
Mof_O 	O 	0.04106	0.581	0.7792	-0.425
Mof_O 	O 	0.0814	0.61747	0.7182	-0.279
Mof_S 	S 	0.944	0.56789	0.65584	0.725
Mof_C 	C 	0.9023	0.2003	0.5644	0.382
Mof_C 	C 	0.9261	0.22082	0.604	-0.124
Mof_C 	C 	0.9129	0.2599	0.6219	0.069
Mof_H 	H 	0.8892	0.2733	0.6087	0.035
Mof_C 	C 	0.9343	0.2794	0.6591	-0.131
Mof_H 	H 	0.925	0.3057	0.6707	0.106
Mof_C 	C 	0.9834	0.2217	0.6611	-0.101
Mof_H 	H 	0.0073	0.2082	0.6738	0.061
Mof_C 	C 	0.9613	0.2026	0.6231	0.054
Mof_H 	H 	0.9711	0.1768	0.6109	0.035
Mof_C 	C 	0.9702	0.2593	0.6793	0.082
Mof_C 	C 	0.9963	0.3242	0.7221	0.044
Mof_H 	H 	0.9836	0.3407	0.6984	0.047
Mof_C 	C 	0.9927	0.27969	0.7196	-0.004
Mof_C 	C 	0.0122	0.2556	0.7554	-0.055
Mof_H 	H 	0.0107	0.2259	0.7545	0.049
Mof_C 	C 	0.0342	0.276	0.7926	-0.028
Mof_C 	C 	0.035	0.32044	0.7917	0.022
Mof_H 	H 	0.0487	0.3347	0.8163	0.048
Mof_C 	C 	0.0567	0.25171	0.8298	0.111
Mof_C 	C 	0.0407	0.2138	0.8447	-0.149
Mof_H 	H 	0.0159	0.2032	0.8308	0.088
Mof_C 	C 	0.061	0.1898	0.8811	0.075
Mof_H 	H 	0.0492	0.1642	0.8916	0.026
Mof_C 	C 	0.099	0.2052	0.9007	-0.139
Mof_C 	C 	0.114	0.2432	0.885	0.092
Mof_H 	H 	0.1389	0.2544	0.8983	0.029
Mof_C 	C 	0.0933	0.2659	0.8495	-0.159
Mof_H 	H 	0.105	0.2915	0.8389	0.1
Mof_C 	C 	0.1218	0.1802	0.9368	0.379
Mof_O 	O 	0.15695	0.1951	0.95116	-0.385
Mof_O 	O 	0.10478	0.14601	0.95091	-0.391
Mof_Cu	Cu	0.02158	0.40859	0.75439	0.911
Mof_N 	N 	0.01703	0.34408	0.75714	-0.19
Mof_O 	O 	0.86918	0.21796	0.54925	-0.408
Mof_O 	O 	0.91733	0.16539	0.54973	-0.409
Mof_O 	O 	0.03438	0.40016	0.68566	-0.436
Mof_O 	O 	0.02586	0.46813	0.64808	-0.399
Mof_O 	O 	0.0935	0.4476	0.68069	-0.428
Mof_O 	O 	0.06743	0.41386	0.61114	-0.258
Mof_O 	O 	0.95894	0.419	0.7792	-0.409
Mof_O 	O 	0.9186	0.38253	0.7182	-0.273
Mof_S 	S 	0.056	0.43211	0.65584	0.729
Mof_C 	C 	0.2003	0.0977	0.0644	0.401
Mof_C 	C 	0.22082	0.0739	0.104	-0.184
Mof_C 	C 	0.2599	0.0871	0.1219	0.123
Mof_H 	H 	0.2733	0.1108	0.1087	0.011
Mof_C 	C 	0.2794	0.0657	0.1591	-0.197
Mof_H 	H 	0.3057	0.075	0.1707	0.125
Mof_C 	C 	0.2217	0.0166	0.1611	-0.236
Mof_H 	H 	0.2082	0.9927	0.1738	0.127
Mof_C 	C 	0.2026	0.0387	0.1231	0.137
Mof_H 	H 	0.1768	0.0289	0.1109	-0.005
Mof_C 	C 	0.2593	0.0298	0.1793	0.158
Mof_C 	C 	0.3242	0.0037	0.2221	0.04
Mof_H 	H 	0.3407	0.0164	0.1984	0.038
Mof_C 	C 	0.27969	0.0073	0.2196	-0.077
Mof_C 	C 	0.2556	0.9878	0.2554	0.015
Mof_H 	H 	0.2259	0.9893	0.2545	0.03
Mof_C 	C 	0.276	0.9658	0.2926	-0.058
Mof_C 	C 	0.32044	0.965	0.2917	0.042
Mof_H 	H 	0.3347	0.9513	0.3163	0.042
Mof_C 	C 	0.25171	0.9433	0.3298	0.134
Mof_C 	C 	0.2138	0.9593	0.3447	-0.168
Mof_H 	H 	0.2032	0.9841	0.3308	0.097
Mof_C 	C 	0.1898	0.939	0.3811	0.09
Mof_H 	H 	0.1642	0.9508	0.3916	0.02
Mof_C 	C 	0.2052	0.901	0.4007	-0.155
Mof_C 	C 	0.2432	0.886	0.385	0.108
Mof_H 	H 	0.2544	0.8611	0.3983	0.019
Mof_C 	C 	0.2659	0.9067	0.3495	-0.18
Mof_H 	H 	0.2915	0.895	0.3389	0.106
Mof_C 	C 	0.1802	0.8782	0.4368	0.386
Mof_O 	O 	0.1951	0.84305	0.45116	-0.405
Mof_O 	O 	0.14601	0.89522	0.45091	-0.41
Mof_Cu	Cu	0.40859	0.97842	0.25439	0.917
Mof_N 	N 	0.34408	0.98297	0.25714	-0.181
Mof_O 	O 	0.21796	0.13082	0.04925	-0.424
Mof_O 	O 	0.16539	0.08267	0.04973	-0.428
Mof_O 	O 	0.40016	0.96562	0.18566	-0.428
Mof_O 	O 	0.46813	0.97414	0.14808	-0.389
Mof_O 	O 	0.4476	0.9065	0.18069	-0.429
Mof_O 	O 	0.41386	0.93257	0.11114	-0.26
Mof_O 	O 	0.419	0.04106	0.2792	-0.427
Mof_O 	O 	0.38253	0.0814	0.2182	-0.282
Mof_S 	S 	0.43211	0.944	0.15584	0.726
Mof_C 	C 	0.7997	0.9023	0.0644	0.382
Mof_C 	C 	0.77918	0.9261	0.104	-0.131
Mof_C 	C 	0.7401	0.9129	0.1219	0.071
Mof_H 	H 	0.7267	0.8892	0.1087	0.03
Mof_C 	C 	0.7206	0.9343	0.1591	-0.135
Mof_H 	H 	0.6943	0.925	0.1707	0.106
Mof_C 	C 	0.7783	0.9834	0.1611	-0.105
Mof_H 	H 	0.7918	0.0073	0.1738	0.061
Mof_C 	C 	0.7974	0.9613	0.1231	0.057
Mof_H 	H 	0.8232	0.9711	0.1109	0.032
Mof_C 	C 	0.7407	0.9702	0.1793	0.084
Mof_C 	C 	0.6758	0.9963	0.2221	0.045
Mof_H 	H 	0.6593	0.9836	0.1984	0.046
Mof_C 	C 	0.72031	0.9927	0.2196	-0.006
Mof_C 	C 	0.7444	0.0122	0.2554	-0.054
Mof_H 	H 	0.7741	0.0107	0.2545	0.048
Mof_C 	C 	0.724	0.0342	0.2926	-0.032
Mof_C 	C 	0.67956	0.035	0.2917	0.023
Mof_H 	H 	0.6653	0.0487	0.3163	0.046
Mof_C 	C 	0.74829	0.0567	0.3298	0.114
Mof_C 	C 	0.7862	0.0407	0.3447	-0.155
Mof_H 	H 	0.7968	0.0159	0.3308	0.089
Mof_C 	C 	0.8102	0.061	0.3811	0.079
Mof_H 	H 	0.8358	0.0492	0.3916	0.021
Mof_C 	C 	0.7948	0.099	0.4007	-0.148
Mof_C 	C 	0.7568	0.114	0.385	0.097
Mof_H 	H 	0.7456	0.1389	0.3983	0.022
Mof_C 	C 	0.7341	0.0933	0.3495	-0.166
Mof_H 	H 	0.7085	0.105	0.3389	0.1
Mof_C 	C 	0.8198	0.1218	0.4368	0.383
Mof_O 	O 	0.8049	0.15695	0.45116	-0.405
Mof_O 	O 	0.85399	0.10478	0.45091	-0.41
Mof_Cu	Cu	0.59141	0.02158	0.25439	0.911
Mof_N 	N 	0.65592	0.01703	0.25714	-0.191
Mof_O 	O 	0.78204	0.86918	0.04925	-0.419
Mof_O 	O 	0.83461	0.91733	0.04973	-0.418
Mof_O 	O 	0.59984	0.03438	0.18566	-0.438
Mof_O 	O 	0.53187	0.02586	0.14808	-0.403
Mof_O 	O 	0.5524	0.0935	0.18069	-0.431
Mof_O 	O 	0.58614	0.06743	0.11114	-0.267
Mof_O 	O 	0.581	0.95894	0.2792	-0.411
Mof_O 	O 	0.61747	0.9186	0.2182	-0.276
Mof_S 	S 	0.56789	0.056	0.15584	0.73
Mof_C 	C 	0.4023	0.2997	0.4356	0.391
Mof_C 	C 	0.4261	0.27918	0.396	-0.151
Mof_C 	C 	0.4129	0.2401	0.3781	0.095
Mof_H 	H 	0.3892	0.2267	0.3913	0.024
Mof_C 	C 	0.4343	0.2206	0.3409	-0.162
Mof_H 	H 	0.425	0.1943	0.3293	0.115
Mof_C 	C 	0.4834	0.2783	0.3389	-0.166
Mof_H 	H 	0.5073	0.2918	0.3262	0.095
Mof_C 	C 	0.4613	0.2974	0.3769	0.094
Mof_H 	H 	0.4711	0.3232	0.3891	0.018
Mof_C 	C 	0.4702	0.2407	0.3207	0.119
Mof_C 	C 	0.4963	0.1758	0.2779	0.042
Mof_H 	H 	0.4836	0.1593	0.3016	0.043
Mof_C 	C 	0.4927	0.22031	0.2804	-0.041
Mof_C 	C 	0.5122	0.2444	0.2446	-0.019
Mof_H 	H 	0.5107	0.2741	0.2455	0.039
Mof_C 	C 	0.5342	0.224	0.2074	-0.047
Mof_C 	C 	0.535	0.17956	0.2083	0.033
Mof_H 	H 	0.5487	0.1653	0.1837	0.042
Mof_C 	C 	0.5567	0.24829	0.1702	0.126
Mof_C 	C 	0.5407	0.2862	0.1553	-0.167
Mof_H 	H 	0.5159	0.2968	0.1692	0.092
Mof_C 	C 	0.561	0.3102	0.1189	0.087
Mof_H 	H 	0.5492	0.3358	0.1084	0.015
Mof_C 	C 	0.599	0.2948	0.0993	-0.159
Mof_C 	C 	0.614	0.2568	0.115	0.106
Mof_H 	H 	0.6389	0.2456	0.1017	0.015
Mof_C 	C 	0.5933	0.2341	0.1505	-0.178
Mof_H 	H 	0.605	0.2085	0.1611	0.103
Mof_C 	C 	0.6218	0.3198	0.0632	0.386
Mof_O 	O 	0.65695	0.3049	0.04884	-0.416
Mof_O 	O 	0.60478	0.35399	0.04909	-0.42
Mof_Cu	Cu	0.52158	0.09141	0.24561	0.914
Mof_N 	N 	0.51703	0.15592	0.24286	-0.187
Mof_O 	O 	0.36918	0.28204	0.45075	-0.412
Mof_O 	O 	0.41733	0.33461	0.45027	-0.413
Mof_O 	O 	0.53438	0.09984	0.31434	-0.431
Mof_O 	O 	0.52586	0.03187	0.35192	-0.398
Mof_O 	O 	0.5935	0.0524	0.31931	-0.43
Mof_O 	O 	0.56743	0.08614	0.38886	-0.256
Mof_O 	O 	0.45894	0.081	0.2208	-0.423
Mof_O 	O 	0.4186	0.11747	0.2818	-0.279
Mof_S 	S 	0.556	0.06789	0.34416	0.728
Mof_C 	C 	0.5977	0.7003	0.4356	0.39
Mof_C 	C 	0.5739	0.72082	0.396	-0.15
Mof_C 	C 	0.5871	0.7599	0.3781	0.094
Mof_H 	H 	0.6108	0.7733	0.3913	0.026
Mof_C 	C 	0.5657	0.7794	0.3409	-0.161
Mof_H 	H 	0.575	0.8057	0.3293	0.116
Mof_C 	C 	0.5166	0.7217	0.3389	-0.165
Mof_H 	H 	0.4927	0.7082	0.3262	0.094
Mof_C 	C 	0.5387	0.7026	0.3769	0.094
Mof_H 	H 	0.5289	0.6768	0.3891	0.018
Mof_C 	C 	0.5298	0.7593	0.3207	0.119
Mof_C 	C 	0.5037	0.8242	0.2779	0.042
Mof_H 	H 	0.5164	0.8407	0.3016	0.044
Mof_C 	C 	0.5073	0.77969	0.2804	-0.04
Mof_C 	C 	0.4878	0.7556	0.2446	-0.019
Mof_H 	H 	0.4893	0.7259	0.2455	0.039
Mof_C 	C 	0.4658	0.776	0.2074	-0.047
Mof_C 	C 	0.465	0.82044	0.2083	0.033
Mof_H 	H 	0.4513	0.8347	0.1837	0.042
Mof_C 	C 	0.4433	0.75171	0.1702	0.126
Mof_C 	C 	0.4593	0.7138	0.1553	-0.167
Mof_H 	H 	0.4841	0.7032	0.1692	0.093
Mof_C 	C 	0.439	0.6898	0.1189	0.087
Mof_H 	H 	0.4508	0.6642	0.1084	0.015
Mof_C 	C 	0.401	0.7052	0.0993	-0.159
Mof_C 	C 	0.386	0.7432	0.115	0.106
Mof_H 	H 	0.3611	0.7544	0.1017	0.015
Mof_C 	C 	0.4067	0.7659	0.1505	-0.178
Mof_H 	H 	0.395	0.7915	0.1611	0.104
Mof_C 	C 	0.3782	0.6802	0.0632	0.386
Mof_O 	O 	0.34305	0.6951	0.04884	-0.416
Mof_O 	O 	0.39522	0.64601	0.04909	-0.42
Mof_Cu	Cu	0.47842	0.90859	0.24561	0.914
Mof_N 	N 	0.48297	0.84408	0.24286	-0.186
Mof_O 	O 	0.63082	0.71796	0.45075	-0.41
Mof_O 	O 	0.58267	0.66539	0.45027	-0.412
Mof_O 	O 	0.46562	0.90016	0.31434	-0.43
Mof_O 	O 	0.47414	0.96813	0.35192	-0.385
Mof_O 	O 	0.4065	0.9476	0.31931	-0.425
Mof_O 	O 	0.43257	0.91386	0.38886	-0.251
Mof_O 	O 	0.54106	0.919	0.2208	-0.418
Mof_O 	O 	0.5814	0.88253	0.2818	-0.276
Mof_S 	S 	0.444	0.93211	0.34416	0.725
Mof_C 	C 	0.2997	0.5977	0.9356	0.386
Mof_C 	C 	0.27918	0.5739	0.896	-0.14
Mof_C 	C 	0.2401	0.5871	0.8781	0.09
Mof_H 	H 	0.2267	0.6108	0.8913	0.032
Mof_C 	C 	0.2206	0.5657	0.8409	-0.155
Mof_H 	H 	0.1943	0.575	0.8293	0.115
Mof_C 	C 	0.2783	0.5166	0.8389	-0.159
Mof_H 	H 	0.2918	0.4927	0.8262	0.095
Mof_C 	C 	0.2974	0.5387	0.8769	0.089
Mof_H 	H 	0.3232	0.5289	0.8891	0.025
Mof_C 	C 	0.2407	0.5298	0.8207	0.116
Mof_C 	C 	0.1758	0.5037	0.7779	0.041
Mof_H 	H 	0.1593	0.5164	0.8016	0.045
Mof_C 	C 	0.22031	0.5073	0.7804	-0.037
Mof_C 	C 	0.2444	0.4878	0.7446	-0.021
Mof_H 	H 	0.2741	0.4893	0.7455	0.041
Mof_C 	C 	0.224	0.4658	0.7074	-0.043
Mof_C 	C 	0.17956	0.465	0.7083	0.033
Mof_H 	H 	0.1653	0.4513	0.6837	0.044
Mof_C 	C 	0.24829	0.4433	0.6702	0.124
Mof_C 	C 	0.2862	0.4593	0.6553	-0.161
Mof_H 	H 	0.2968	0.4841	0.6692	0.094
Mof_C 	C 	0.3102	0.439	0.6189	0.085
Mof_H 	H 	0.3358	0.4508	0.6084	0.021
Mof_C 	C 	0.2948	0.401	0.5993	-0.152
Mof_C 	C 	0.2568	0.386	0.615	0.103
Mof_H 	H 	0.2456	0.3611	0.6017	0.02
Mof_C 	C 	0.2341	0.4067	0.6505	-0.172
Mof_H 	H 	0.2085	0.395	0.6611	0.103
Mof_C 	C 	0.3198	0.3782	0.5632	0.385
Mof_O 	O 	0.3049	0.34305	0.54884	-0.406
Mof_O 	O 	0.35399	0.39522	0.54909	-0.409
Mof_Cu	Cu	0.09141	0.47842	0.74561	0.914
Mof_N 	N 	0.15592	0.48297	0.74286	-0.186
Mof_O 	O 	0.28204	0.63082	0.95075	-0.39
Mof_O 	O 	0.33461	0.58267	0.95027	-0.392
Mof_O 	O 	0.09984	0.46562	0.81434	-0.429
Mof_O 	O 	0.03187	0.47414	0.85192	-0.393
Mof_O 	O 	0.0524	0.4065	0.81931	-0.427
Mof_O 	O 	0.08614	0.43257	0.88886	-0.246
Mof_O 	O 	0.081	0.54106	0.7208	-0.421
Mof_O 	O 	0.11747	0.5814	0.7818	-0.276
Mof_S 	S 	0.06789	0.444	0.84416	0.726
Mof_C 	C 	0.7003	0.4023	0.9356	0.385
Mof_C 	C 	0.72082	0.4261	0.896	-0.14
Mof_C 	C 	0.7599	0.4129	0.8781	0.09
Mof_H 	H 	0.7733	0.3892	0.8913	0.033
Mof_C 	C 	0.7794	0.4343	0.8409	-0.154
Mof_H 	H 	0.8057	0.425	0.8293	0.116
Mof_C 	C 	0.7217	0.4834	0.8389	-0.158
Mof_H 	H 	0.7082	0.5073	0.8262	0.095
Mof_C 	C 	0.7026	0.4613	0.8769	0.089
Mof_H 	H 	0.6768	0.4711	0.8891	0.025
Mof_C 	C 	0.7593	0.4702	0.8207	0.116
Mof_C 	C 	0.8242	0.4963	0.7779	0.041
Mof_H 	H 	0.8407	0.4836	0.8016	0.046
Mof_C 	C 	0.77969	0.4927	0.7804	-0.036
Mof_C 	C 	0.7556	0.5122	0.7446	-0.021
Mof_H 	H 	0.7259	0.5107	0.7455	0.041
Mof_C 	C 	0.776	0.5342	0.7074	-0.043
Mof_C 	C 	0.82044	0.535	0.7083	0.033
Mof_H 	H 	0.8347	0.5487	0.6837	0.044
Mof_C 	C 	0.75171	0.5567	0.6702	0.124
Mof_C 	C 	0.7138	0.5407	0.6553	-0.161
Mof_H 	H 	0.7032	0.5159	0.6692	0.093
Mof_C 	C 	0.6898	0.561	0.6189	0.085
Mof_H 	H 	0.6642	0.5492	0.6084	0.021
Mof_C 	C 	0.7052	0.599	0.5993	-0.151
Mof_C 	C 	0.7432	0.614	0.615	0.102
Mof_H 	H 	0.7544	0.6389	0.6017	0.022
Mof_C 	C 	0.7659	0.5933	0.6505	-0.171
Mof_H 	H 	0.7915	0.605	0.6611	0.104
Mof_C 	C 	0.6802	0.6218	0.5632	0.385
Mof_O 	O 	0.6951	0.65695	0.54884	-0.404
Mof_O 	O 	0.64601	0.60478	0.54909	-0.409
Mof_Cu	Cu	0.90859	0.52158	0.74561	0.914
Mof_N 	N 	0.84408	0.51703	0.74286	-0.185
Mof_O 	O 	0.71796	0.36918	0.95075	-0.39
Mof_O 	O 	0.66539	0.41733	0.95027	-0.392
Mof_O 	O 	0.90016	0.53438	0.81434	-0.428
Mof_O 	O 	0.96813	0.52586	0.85192	-0.38
Mof_O 	O 	0.9476	0.5935	0.81931	-0.422
Mof_O 	O 	0.91386	0.56743	0.88886	-0.241
Mof_O 	O 	0.919	0.45894	0.7208	-0.417
Mof_O 	O 	0.88253	0.4186	0.7818	-0.273
Mof_S 	S 	0.93211	0.556	0.84416	0.724
Mof_Cu	Cu	0.83302	0.19247	0.5	0.906
Mof_Cu	Cu	0.89026	0.1306	0.5	0.905
Mof_Cu	Cu	0.16698	0.80753	0.5	0.906
Mof_Cu	Cu	0.10974	0.8694	0.5	0.905
Mof_Cu	Cu	0.80753	0.83302	-0	0.887
Mof_Cu	Cu	0.8694	0.89026	-0	0.887
Mof_Cu	Cu	0.19247	0.16698	-0	0.888
Mof_Cu	Cu	0.1306	0.10974	-0	0.885
Mof_Cu	Cu	0.66698	0.69247	0.5	0.906
Mof_Cu	Cu	0.60974	0.6306	0.5	0.905
Mof_Cu	Cu	0.33302	0.30753	0.5	0.906
Mof_Cu	Cu	0.39026	0.3694	0.5	0.905
Mof_Cu	Cu	0.69247	0.33302	-0	0.888
Mof_Cu	Cu	0.6306	0.39026	-0	0.886
Mof_Cu	Cu	0.30753	0.66698	-0	0.887
Mof_Cu	Cu	0.3694	0.60974	-0	0.886
Mof_Cu	Cu	-2.65659e-33	0.5	0.29964	0.906
Mof_Cu	Cu	0.5	7.3413e-33	0.79964	0.907
Mof_Cu	Cu	0.5	7.3413e-33	0.70036	0.906
Mof_Cu	Cu	6.78069e-34	0.5	0.20036	0.906
Mof_Cu	Cu	-4.9711e-33	0.5	0.70036	0.906
Mof_Cu	Cu	0.5	-1.83532e-33	0.20036	0.906
Mof_Cu	Cu	0.5	-3.67065e-33	0.29964	0.906
Mof_Cu	Cu	-4.63511e-33	0.5	0.79964	0.907
Mof_O 	O 	0.02991	0.47009	0.25	-0.675
Mof_O 	O 	0.97009	0.52991	0.25	-0.664
Mof_O 	O 	0.52991	0.02991	0.75	-0.675
Mof_O 	O 	0.47009	0.97009	0.75	-0.664
Mof_O 	O 	0.97009	0.52991	0.75	-0.664
Mof_O 	O 	0.02991	0.47009	0.75	-0.675
Mof_O 	O 	0.47009	0.97009	0.25	-0.664
Mof_O 	O 	0.52991	0.02991	0.25	-0.675
Mof_S 	S 	0.91945	0.41945	0.25	0.665
Mof_S 	S 	0.08055	0.58055	0.25	0.667
Mof_S 	S 	0.58055	0.91945	0.75	0.664
Mof_S 	S 	0.41945	0.08055	0.75	0.666
Mof_S 	S 	0.08055	0.58055	0.75	0.666
Mof_S 	S 	0.91945	0.41945	0.75	0.664
Mof_S 	S 	0.41945	0.08055	0.25	0.667
Mof_S 	S 	0.58055	0.91945	0.25	0.665
_end
