data_functionalizedCrystal
_audit_creation_method	'EQeq! by Chris Wilmer'
_symmetry_space_group_name_H-M	'P1'
_symmetry_Int_Tables_number	1
_symmetry_cell_setting	triclinic
loop_
_symmetry_equiv_pos_as_xyz
  x,y,z
_cell_length_a	15.052
_cell_length_b	8.147
_cell_length_c	16.164
_cell_angle_alpha	90
_cell_angle_beta	102.843
_cell_angle_gamma	90
loop_
_atom_site_label
_atom_site_type_symbol
_atom_site_fract_x
_atom_site_fract_y
_atom_site_fract_z
_atom_site_charge
Mof_U 	U 	0.20398	0.13198	0.25807	0.088
Mof_P 	P 	0.98413	0.985	0.29926	0.386
Mof_P 	P 	0.44147	0.9956	0.29744	0.392
Mof_F 	F 	0.2534	0.8707	0.2988	-0.296
Mof_O 	O 	0.08	0.9874	0.2849	-0.13
Mof_O 	O 	0.9328	0.1459	0.2602	-0.136
Mof_O 	O 	0.9263	0.8391	0.2648	-0.183
Mof_O 	O 	0.8675	0.8003	0.406	-0.358
Mof_H 	H 	0.8735	0.7931	0.3557	0.278
Mof_O 	O 	0.3649	0.1167	0.2667	-0.12
Mof_O 	O 	0.5288	0.0495	0.267	-0.139
Mof_O 	O 	0.4242	0.82	0.2687	-0.133
Mof_O 	O 	0.454	0.2973	0.418	-0.351
Mof_H 	H 	0.4245	0.2849	0.3678	0.28
Mof_C 	C 	0.9909	0.9935	0.4115	-0.068
Mof_C 	C 	0.9336	0.9033	0.4511	0.232
Mof_C 	C 	0.0576	0.0884	0.4627	-0.093
Mof_H 	H 	0.0984	0.1494	0.4374	0.132
Mof_C 	C 	0.471	0	0.4124	-0.048
Mof_C 	C 	0.4756	0.146	0.4549	0.227
Mof_C 	C 	0.4948	0.8536	0.4565	-0.092
Mof_H 	H 	0.491	0.753	0.4263	0.136
Mof_U 	U 	0.29602	0.63198	0.24193	0.087
Mof_P 	P 	0.51587	0.485	0.20074	0.39
Mof_P 	P 	0.05853	0.4956	0.20256	0.399
Mof_F 	F 	0.2466	0.3707	0.2012	-0.295
Mof_O 	O 	0.42	0.4874	0.2151	-0.131
Mof_O 	O 	0.5672	0.6459	0.2398	-0.142
Mof_O 	O 	0.5737	0.3391	0.2352	-0.182
Mof_O 	O 	0.6325	0.3003	0.094	-0.356
Mof_H 	H 	0.6265	0.2931	0.1443	0.278
Mof_O 	O 	0.1351	0.6167	0.2333	-0.123
Mof_O 	O 	0.9712	0.5495	0.233	-0.142
Mof_O 	O 	0.0758	0.32	0.2313	-0.133
Mof_O 	O 	0.046	0.7973	0.082	-0.352
Mof_H 	H 	0.0755	0.7849	0.1322	0.28
Mof_C 	C 	0.5091	0.4935	0.0885	-0.062
Mof_C 	C 	0.5664	0.4033	0.0489	0.229
Mof_C 	C 	0.4424	0.5884	0.0373	-0.099
Mof_H 	H 	0.4016	0.6494	0.0626	0.133
Mof_C 	C 	0.029	0.5	0.0876	-0.055
Mof_C 	C 	0.0244	0.646	0.0451	0.228
Mof_C 	C 	0.0052	0.3536	0.0435	-0.088
Mof_H 	H 	0.009	0.253	0.0737	0.135
Mof_U 	U 	0.79602	0.86802	0.74193	0.085
Mof_P 	P 	0.01587	0.015	0.70074	0.388
Mof_P 	P 	0.55853	0.0044	0.70256	0.403
Mof_F 	F 	0.7466	0.1293	0.7012	-0.294
Mof_O 	O 	0.92	0.0126	0.7151	-0.127
Mof_O 	O 	0.0672	0.8541	0.7398	-0.141
Mof_O 	O 	0.0737	0.1609	0.7352	-0.182
Mof_O 	O 	0.1325	0.1997	0.594	-0.356
Mof_H 	H 	0.1265	0.2069	0.6443	0.277
Mof_O 	O 	0.6351	0.8833	0.7333	-0.126
Mof_O 	O 	0.4712	0.9505	0.733	-0.146
Mof_O 	O 	0.5758	0.18	0.7313	-0.133
Mof_O 	O 	0.546	0.7027	0.582	-0.352
Mof_H 	H 	0.5755	0.7151	0.6322	0.28
Mof_C 	C 	0.0091	0.0065	0.5885	-0.057
Mof_C 	C 	0.0664	0.0967	0.5489	0.225
Mof_C 	C 	0.9424	0.9116	0.5373	-0.106
Mof_H 	H 	0.9016	0.8506	0.5626	0.135
Mof_C 	C 	0.529	1.30621e-32	0.5876	-0.053
Mof_C 	C 	0.5244	0.854	0.5451	0.227
Mof_C 	C 	0.5052	0.1464	0.5435	-0.085
Mof_H 	H 	0.509	0.247	0.5737	0.135
Mof_U 	U 	0.70398	0.36802	0.75807	0.087
Mof_P 	P 	0.48413	0.515	0.79926	0.39
Mof_P 	P 	0.94147	0.5044	0.79744	0.4
Mof_F 	F 	0.7534	0.6293	0.7988	-0.296
Mof_O 	O 	0.58	0.5126	0.7849	-0.131
Mof_O 	O 	0.4328	0.3541	0.7602	-0.141
Mof_O 	O 	0.4263	0.6609	0.7648	-0.183
Mof_O 	O 	0.3675	0.6997	0.906	-0.357
Mof_H 	H 	0.3735	0.7069	0.8557	0.278
Mof_O 	O 	0.8649	0.3833	0.7667	-0.123
Mof_O 	O 	0.0288	0.4505	0.767	-0.143
Mof_O 	O 	0.9242	0.68	0.7687	-0.134
Mof_O 	O 	0.954	0.2027	0.918	-0.351
Mof_H 	H 	0.9245	0.2151	0.8678	0.281
Mof_C 	C 	0.4909	0.5065	0.9115	-0.062
Mof_C 	C 	0.4336	0.5967	0.9511	0.229
Mof_C 	C 	0.5576	0.4116	0.9627	-0.1
Mof_H 	H 	0.5984	0.3506	0.9374	0.134
Mof_C 	C 	0.971	0.5	0.9124	-0.056
Mof_C 	C 	0.9756	0.354	0.9549	0.23
Mof_C 	C 	0.9948	0.6464	0.9565	-0.086
Mof_H 	H 	0.991	0.747	0.9263	0.134
_end
