# CIF file generated by openbabel 3.1.0, see https://openbabel.org
data_I
_chemical_name_common 'image0'
_cell_length_a 7.8928
_cell_length_b 13.7693
_cell_length_c 7.4007
_cell_angle_alpha 90
_cell_angle_beta 90
_cell_angle_gamma 90
_space_group_name_H-M_alt 'P 1'
_space_group_name_Hall 'P 1'
loop_
    _symmetry_equiv_pos_as_xyz
    x,y,z
loop_
    _atom_site_label
    _atom_site_type_symbol
    _atom_site_fract_x
    _atom_site_fract_y
    _atom_site_fract_z
    _atom_site_occupancy
    Mg1      Mg       0.22279    0.16466    0.25959    1.000
    O1       O        0.10437    0.26952    0.10876    1.000
    O2       O        0.92947    0.33374    0.90863    1.000
    O3       O        0.31092    0.28599    0.40248    1.000
    O4       O        0.50720    0.35290    0.57870    1.000
    O5       O        0.11838    0.04813    0.11935    1.000
    O6       O        0.13429    0.92851    0.91926    1.000
    C1       C        0.98960    0.26463    0.99560    1.000
    H1       H        0.94300    0.20220    0.97290    1.000
    C2       C        0.44520    0.28458    0.49380    1.000
    H2       H        0.50500    0.22470    0.49780    1.000
    C3       C        0.19400    0.99787    0.00370    1.000
    H3       H        0.30830    0.01470    0.97840    1.000
    Mg2      Mg       0.27721    0.83534    0.75959    1.000
    O7       O        0.39563    0.73048    0.60876    1.000
    O8       O        0.57053    0.66626    0.40863    1.000
    O9       O        0.18908    0.71401    0.90248    1.000
    O10      O        0.99280    0.64710    0.07870    1.000
    O11      O        0.38162    0.95187    0.61935    1.000
    O12      O        0.36571    0.07149    0.41926    1.000
    C4       C        0.51040    0.73537    0.49560    1.000
    H4       H        0.55700    0.79780    0.47290    1.000
    C5       C        0.05480    0.71542    0.99380    1.000
    H5       H        0.99500    0.77530    0.99780    1.000
    C6       C        0.30600    0.00213    0.50370    1.000
    H6       H        0.19170    0.98530    0.47840    1.000
    Mg3      Mg       0.77721    0.66466    0.24041    1.000
    O13      O        0.89563    0.76952    0.39124    1.000
    O14      O        0.07053    0.83374    0.59137    1.000
    O15      O        0.68908    0.78599    0.09752    1.000
    O16      O        0.49280    0.85290    0.92130    1.000
    O17      O        0.88162    0.54813    0.38065    1.000
    O18      O        0.86571    0.42851    0.58074    1.000
    C7       C        0.01040    0.76463    0.50440    1.000
    H7       H        0.05700    0.70220    0.52710    1.000
    C8       C        0.55480    0.78458    0.00620    1.000
    H8       H        0.49500    0.72470    0.00220    1.000
    C9       C        0.80600    0.49787    0.49630    1.000
    H9       H        0.69170    0.51470    0.52160    1.000
    Mg4      Mg       0.72279    0.33534    0.74041    1.000
    O19      O        0.60437    0.23048    0.89124    1.000
    O20      O        0.42947    0.16626    0.09137    1.000
    O21      O        0.81092    0.21401    0.59752    1.000
    O22      O        0.00720    0.14710    0.42130    1.000
    O23      O        0.61838    0.45187    0.88065    1.000
    O24      O        0.63429    0.57149    0.08074    1.000
    C10      C        0.48960    0.23537    0.00440    1.000
    H10      H        0.44300    0.29780    0.02710    1.000
    C11      C        0.94520    0.21542    0.50620    1.000
    H11      H        0.00500    0.27530    0.50220    1.000
    C12      C        0.69400    0.50213    0.99630    1.000
    H12      H        0.80830    0.48530    0.02160    1.000
