# CIF file generated by openbabel 3.1.0, see https://openbabel.org
data_I
_chemical_name_common 'image0'
_cell_length_a 10.464
_cell_length_b 17.142
_cell_length_c 8.4481
_cell_angle_alpha 90
_cell_angle_beta 90
_cell_angle_gamma 90
_space_group_name_H-M_alt 'P 1'
_space_group_name_Hall 'P 1'
loop_
    _symmetry_equiv_pos_as_xyz
    x,y,z
loop_
    _atom_site_label
    _atom_site_type_symbol
    _atom_site_fract_x
    _atom_site_fract_y
    _atom_site_fract_z
    _atom_site_occupancy
    V1       V        0.85891    0.43838    0.22045    1.000
    P1       P        0.62872    0.41284    0.47438    1.000
    O1       O        0.84236    0.32603    0.25430    1.000
    O2       O        0.66278    0.45293    0.63259    1.000
    O3       O        0.48260    0.41388    0.45157    1.000
    O4       O        0.67482    0.32784    0.49053    1.000
    O5       O        0.69461    0.45521    0.33579    1.000
    H1       H        0.90100    0.31000    0.21900    1.000
    V2       V        0.64109    0.56162    0.72045    1.000
    P2       P        0.87128    0.58716    0.97438    1.000
    O6       O        0.65764    0.67397    0.75430    1.000
    O7       O        0.83722    0.54707    0.13259    1.000
    O8       O        0.01740    0.58612    0.95157    1.000
    O9       O        0.82518    0.67216    0.99053    1.000
    O10      O        0.80539    0.54479    0.83579    1.000
    H2       H        0.59900    0.69000    0.71900    1.000
    V3       V        0.14109    0.93838    0.77955    1.000
    P3       P        0.37128    0.91284    0.52562    1.000
    O11      O        0.15764    0.82603    0.74570    1.000
    O12      O        0.33722    0.95293    0.36741    1.000
    O13      O        0.51740    0.91388    0.54843    1.000
    O14      O        0.32518    0.82784    0.50947    1.000
    O15      O        0.30539    0.95521    0.66421    1.000
    H3       H        0.09900    0.81000    0.78100    1.000
    V4       V        0.35891    0.06162    0.27955    1.000
    P4       P        0.12872    0.08716    0.02562    1.000
    O16      O        0.34236    0.17397    0.24570    1.000
    O17      O        0.16278    0.04707    0.86741    1.000
    O18      O        0.98260    0.08612    0.04843    1.000
    O19      O        0.17482    0.17216    0.00947    1.000
    O20      O        0.19461    0.04479    0.16421    1.000
    H4       H        0.40100    0.19000    0.28100    1.000
    V5       V        0.14109    0.56162    0.77955    1.000
    P5       P        0.37128    0.58716    0.52562    1.000
    O21      O        0.15764    0.67397    0.74570    1.000
    O22      O        0.33722    0.54707    0.36741    1.000
    O23      O        0.51740    0.58612    0.54843    1.000
    O24      O        0.32518    0.67216    0.50947    1.000
    O25      O        0.30539    0.54479    0.66421    1.000
    H5       H        0.09900    0.69000    0.78100    1.000
    V6       V        0.35891    0.43838    0.27955    1.000
    P6       P        0.12872    0.41284    0.02562    1.000
    O26      O        0.34236    0.32603    0.24570    1.000
    O27      O        0.16278    0.45293    0.86741    1.000
    O28      O        0.98260    0.41388    0.04843    1.000
    O29      O        0.17482    0.32784    0.00947    1.000
    O30      O        0.19461    0.45521    0.16421    1.000
    H6       H        0.40100    0.31000    0.28100    1.000
    V7       V        0.85891    0.06162    0.22045    1.000
    P7       P        0.62872    0.08716    0.47438    1.000
    O31      O        0.84236    0.17397    0.25430    1.000
    O32      O        0.66278    0.04707    0.63259    1.000
    O33      O        0.48260    0.08612    0.45157    1.000
    O34      O        0.67482    0.17216    0.49053    1.000
    O35      O        0.69461    0.04479    0.33579    1.000
    H7       H        0.90100    0.19000    0.21900    1.000
    V8       V        0.64109    0.93838    0.72045    1.000
    P8       P        0.87128    0.91284    0.97438    1.000
    O36      O        0.65764    0.82603    0.75430    1.000
    O37      O        0.83722    0.95293    0.13259    1.000
    O38      O        0.01740    0.91388    0.95157    1.000
    O39      O        0.82518    0.82784    0.99053    1.000
    O40      O        0.80539    0.95521    0.83579    1.000
    H8       H        0.59900    0.81000    0.71900    1.000
    V9       V        0.71662    0.25000    0.32863    1.000
    V10      V        0.78338    0.75000    0.82863    1.000
    V11      V        0.28338    0.75000    0.67137    1.000
    V12      V        0.21662    0.25000    0.17137    1.000
