data_functionalizedCrystal
_audit_creation_method	'EQeq! by Chris Wilmer'
_symmetry_space_group_name_H-M	'P1'
_symmetry_Int_Tables_number	1
_symmetry_cell_setting	triclinic
loop_
_symmetry_equiv_pos_as_xyz
  x,y,z
_cell_length_a	23.0538
_cell_length_b	23.0538
_cell_length_c	23.0538
_cell_angle_alpha	90
_cell_angle_beta	90
_cell_angle_gamma	90
loop_
_atom_site_label
_atom_site_type_symbol
_atom_site_fract_x
_atom_site_fract_y
_atom_site_fract_z
_atom_site_charge
Mof_N 	N 	0.223	0.8835	0.3658	-0.226
Mof_C 	C 	0.2515	0.8892	0.4186	0.037
Mof_C 	C 	0.3104	0.902	0.4198	-0.091
Mof_H 	H 	0.3299	0.9059	0.4559	0.051
Mof_C 	C 	0.3408	0.9092	0.3683	0.013
Mof_H 	H 	0.381	0.9179	0.3691	0.015
Mof_C 	C 	0.3123	0.9035	0.3154	-0.097
Mof_H 	H 	0.333	0.9084	0.2802	0.053
Mof_C 	C 	0.2534	0.8906	0.3142	0.033
Mof_H 	H 	0.2339	0.8867	0.2781	-0.006
Mof_N 	N 	0.1346	0.8766	0.5145	-0.082
Mof_N 	N 	0.1562	0.8791	0.4598	-0.199
Mof_C 	C 	0.2144	0.8864	0.469	0.043
Mof_C 	C 	0.2271	0.8896	0.5285	-0.107
Mof_H 	H 	0.2639	0.8936	0.5466	0.06
Mof_C 	C 	0.1741	0.8858	0.5539	0.048
Mof_H 	H 	0.1669	0.8892	0.5944	0.011
Mof_C 	C 	0.0741	0.8634	0.5249	-0.125
Mof_H 	H 	0.0512	0.8771	0.4912	0.057
Mof_H 	H 	0.0611	0.8857	0.5592	0.066
Mof_C 	C 	0.0606	0.8011	0.5347	0.064
Mof_C 	C 	0.1063	0.762	0.5378	-0.104
Mof_H 	H 	0.1452	0.7755	0.5359	0.072
Mof_C 	C 	0.0952	0.703	0.5438	0.006
Mof_H 	H 	0.1265	0.6763	0.5459	0.023
Mof_C 	C 	0.0383	0.6832	0.5466	-0.071
Mof_C 	C 	0.9926	0.7223	0.5435	0.057
Mof_C 	C 	0.0037	0.7813	0.5375	-0.041
Mof_C 	C 	0.936	0.7016	0.5462	-0.095
Mof_H 	H 	0.9291	0.6615	0.5523	0.054
Mof_C 	C 	0.8896	0.7396	0.5399	-0.008
Mof_H 	H 	0.851	0.7254	0.5377	0.027
Mof_C 	C 	0.9007	0.7988	0.5369	-0.06
Mof_H 	H 	0.8693	0.8252	0.5332	0.042
Mof_C 	C 	0.9576	0.8201	0.5392	-0.024
Mof_H 	H 	0.9645	0.8606	0.5419	0.035
Mof_C 	C 	0.0326	0.6202	0.5529	0.083
Mof_N 	N 	0.0283	0.5709	0.5578	-0.21
Mof_N 	N 	0.277	0.1165	0.8658	-0.225
Mof_C 	C 	0.2485	0.1108	0.9186	0.038
Mof_C 	C 	0.1896	0.098	0.9198	-0.09
Mof_H 	H 	0.1701	0.0941	0.9559	0.052
Mof_C 	C 	0.1592	0.0908	0.8683	0.014
Mof_H 	H 	0.119	0.0821	0.8691	0.016
Mof_C 	C 	0.1877	0.0965	0.8154	-0.096
Mof_H 	H 	0.167	0.0916	0.7802	0.054
Mof_C 	C 	0.2466	0.1094	0.8142	0.034
Mof_H 	H 	0.2661	0.1133	0.7781	-0.005
Mof_N 	N 	0.3654	0.1234	0.0145	-0.081
Mof_N 	N 	0.3438	0.1209	0.9598	-0.198
Mof_C 	C 	0.2856	0.1136	0.969	0.045
Mof_C 	C 	0.2729	0.1104	0.0285	-0.107
Mof_H 	H 	0.2361	0.1064	0.0466	0.061
Mof_C 	C 	0.3259	0.1142	0.0539	0.049
Mof_H 	H 	0.3331	0.1108	0.0944	0.012
Mof_C 	C 	0.4259	0.1366	0.0249	-0.124
Mof_H 	H 	0.4488	0.1229	0.9912	0.058
Mof_H 	H 	0.4389	0.1143	0.0592	0.067
Mof_C 	C 	0.4394	0.1989	0.0347	0.065
Mof_C 	C 	0.3937	0.238	0.0378	-0.103
Mof_H 	H 	0.3548	0.2245	0.0359	0.073
Mof_C 	C 	0.4048	0.297	0.0438	0.007
Mof_H 	H 	0.3735	0.3237	0.0459	0.024
Mof_C 	C 	0.4617	0.3168	0.0466	-0.07
Mof_C 	C 	0.5074	0.2777	0.0435	0.059
Mof_C 	C 	0.4963	0.2187	0.0375	-0.04
Mof_C 	C 	0.564	0.2984	0.0462	-0.094
Mof_H 	H 	0.5709	0.3385	0.0523	0.055
Mof_C 	C 	0.6104	0.2604	0.0399	-0.006
Mof_H 	H 	0.649	0.2746	0.0377	0.028
Mof_C 	C 	0.5993	0.2012	0.0369	-0.059
Mof_H 	H 	0.6307	0.1748	0.0332	0.042
Mof_C 	C 	0.5424	0.1799	0.0392	-0.024
Mof_H 	H 	0.5355	0.1394	0.0419	0.035
Mof_C 	C 	0.4674	0.3798	0.0529	0.083
Mof_N 	N 	0.4717	0.4291	0.0578	-0.211
Mof_N 	N 	0.777	0.3835	0.1342	-0.225
Mof_C 	C 	0.7485	0.3892	0.0814	0.038
Mof_C 	C 	0.6896	0.402	0.0802	-0.09
Mof_H 	H 	0.6701	0.4059	0.0441	0.052
Mof_C 	C 	0.6592	0.4092	0.1317	0.014
Mof_H 	H 	0.619	0.4179	0.1309	0.016
Mof_C 	C 	0.6877	0.4035	0.1846	-0.096
Mof_H 	H 	0.667	0.4084	0.2198	0.054
Mof_C 	C 	0.7466	0.3906	0.1858	0.034
Mof_H 	H 	0.7661	0.3867	0.2219	-0.005
Mof_N 	N 	0.8654	0.3766	0.9855	-0.081
Mof_N 	N 	0.8438	0.3791	0.0402	-0.198
Mof_C 	C 	0.7856	0.3864	0.031	0.044
Mof_C 	C 	0.7729	0.3896	0.9715	-0.106
Mof_H 	H 	0.7361	0.3936	0.9534	0.061
Mof_C 	C 	0.8259	0.3858	0.9461	0.049
Mof_H 	H 	0.8331	0.3892	0.9056	0.012
Mof_C 	C 	0.9259	0.3634	0.9751	-0.124
Mof_H 	H 	0.9488	0.3771	0.0088	0.058
Mof_H 	H 	0.9389	0.3857	0.9408	0.067
Mof_C 	C 	0.9394	0.3011	0.9653	0.065
Mof_C 	C 	0.8937	0.262	0.9622	-0.103
Mof_H 	H 	0.8548	0.2755	0.9641	0.073
Mof_C 	C 	0.9048	0.203	0.9562	0.007
Mof_H 	H 	0.8735	0.1763	0.9541	0.024
Mof_C 	C 	0.9617	0.1832	0.9534	-0.07
Mof_C 	C 	0.0074	0.2223	0.9565	0.058
Mof_C 	C 	0.9963	0.2813	0.9625	-0.04
Mof_C 	C 	0.064	0.2016	0.9538	-0.093
Mof_H 	H 	0.0709	0.1615	0.9477	0.055
Mof_C 	C 	0.1104	0.2396	0.9601	-0.007
Mof_H 	H 	0.149	0.2254	0.9623	0.028
Mof_C 	C 	0.0993	0.2988	0.9631	-0.059
Mof_H 	H 	0.1307	0.3252	0.9668	0.042
Mof_C 	C 	0.0424	0.3201	0.9608	-0.024
Mof_H 	H 	0.0355	0.3606	0.9581	0.035
Mof_C 	C 	0.9674	0.1202	0.9471	0.083
Mof_N 	N 	0.9717	0.0709	0.9422	-0.21
Mof_N 	N 	0.723	0.6165	0.6342	-0.225
Mof_C 	C 	0.7515	0.6108	0.5814	0.038
Mof_C 	C 	0.8104	0.598	0.5802	-0.09
Mof_H 	H 	0.8299	0.5941	0.5441	0.052
Mof_C 	C 	0.8408	0.5908	0.6317	0.014
Mof_H 	H 	0.881	0.5821	0.6309	0.016
Mof_C 	C 	0.8123	0.5965	0.6846	-0.096
Mof_H 	H 	0.833	0.5916	0.7198	0.054
Mof_C 	C 	0.7534	0.6094	0.6858	0.034
Mof_H 	H 	0.7339	0.6133	0.7219	-0.005
Mof_N 	N 	0.6346	0.6234	0.4855	-0.081
Mof_N 	N 	0.6562	0.6209	0.5402	-0.198
Mof_C 	C 	0.7144	0.6136	0.531	0.044
Mof_C 	C 	0.7271	0.6104	0.4715	-0.106
Mof_H 	H 	0.7639	0.6064	0.4534	0.061
Mof_C 	C 	0.6741	0.6142	0.4461	0.049
Mof_H 	H 	0.6669	0.6108	0.4056	0.012
Mof_C 	C 	0.5741	0.6366	0.4751	-0.124
Mof_H 	H 	0.5512	0.6229	0.5088	0.058
Mof_H 	H 	0.5611	0.6143	0.4408	0.067
Mof_C 	C 	0.5606	0.6989	0.4653	0.065
Mof_C 	C 	0.6063	0.738	0.4622	-0.103
Mof_H 	H 	0.6452	0.7245	0.4641	0.073
Mof_C 	C 	0.5952	0.797	0.4562	0.007
Mof_H 	H 	0.6265	0.8237	0.4541	0.024
Mof_C 	C 	0.5383	0.8168	0.4534	-0.07
Mof_C 	C 	0.4926	0.7777	0.4565	0.058
Mof_C 	C 	0.5037	0.7187	0.4625	-0.04
Mof_C 	C 	0.436	0.7984	0.4538	-0.094
Mof_H 	H 	0.4291	0.8385	0.4477	0.055
Mof_C 	C 	0.3896	0.7604	0.4601	-0.006
Mof_H 	H 	0.351	0.7746	0.4623	0.028
Mof_C 	C 	0.4007	0.7012	0.4631	-0.059
Mof_H 	H 	0.3693	0.6748	0.4668	0.042
Mof_C 	C 	0.4576	0.6799	0.4608	-0.024
Mof_H 	H 	0.4645	0.6394	0.4581	0.035
Mof_C 	C 	0.5326	0.8798	0.4471	0.083
Mof_N 	N 	0.5283	0.9291	0.4422	-0.21
Mof_N 	N 	0.3658	0.223	0.8835	-0.225
Mof_C 	C 	0.4186	0.2515	0.8892	0.038
Mof_C 	C 	0.4198	0.3104	0.902	-0.09
Mof_H 	H 	0.4559	0.3299	0.9059	0.052
Mof_C 	C 	0.3683	0.3408	0.9092	0.014
Mof_H 	H 	0.3691	0.381	0.9179	0.016
Mof_C 	C 	0.3154	0.3123	0.9035	-0.096
Mof_H 	H 	0.2802	0.333	0.9084	0.054
Mof_C 	C 	0.3142	0.2534	0.8906	0.034
Mof_H 	H 	0.2781	0.2339	0.8867	-0.005
Mof_N 	N 	0.5145	0.1346	0.8766	-0.081
Mof_N 	N 	0.4598	0.1562	0.8791	-0.198
Mof_C 	C 	0.469	0.2144	0.8864	0.044
Mof_C 	C 	0.5285	0.2271	0.8896	-0.106
Mof_H 	H 	0.5466	0.2639	0.8936	0.061
Mof_C 	C 	0.5539	0.1741	0.8858	0.049
Mof_H 	H 	0.5944	0.1669	0.8892	0.012
Mof_C 	C 	0.5249	0.0741	0.8634	-0.124
Mof_H 	H 	0.4912	0.0512	0.8771	0.058
Mof_H 	H 	0.5592	0.0611	0.8857	0.067
Mof_C 	C 	0.5347	0.0606	0.8011	0.065
Mof_C 	C 	0.5378	0.1063	0.762	-0.103
Mof_H 	H 	0.5359	0.1452	0.7755	0.073
Mof_C 	C 	0.5438	0.0952	0.703	0.007
Mof_H 	H 	0.5459	0.1265	0.6763	0.024
Mof_C 	C 	0.5466	0.0383	0.6832	-0.07
Mof_C 	C 	0.5435	0.9926	0.7223	0.058
Mof_C 	C 	0.5375	0.0037	0.7813	-0.04
Mof_C 	C 	0.5462	0.936	0.7016	-0.094
Mof_H 	H 	0.5523	0.9291	0.6615	0.055
Mof_C 	C 	0.5399	0.8896	0.7396	-0.007
Mof_H 	H 	0.5377	0.851	0.7254	0.028
Mof_C 	C 	0.5369	0.9007	0.7988	-0.059
Mof_H 	H 	0.5332	0.8693	0.8252	0.042
Mof_C 	C 	0.5392	0.9576	0.8201	-0.024
Mof_H 	H 	0.5419	0.9645	0.8606	0.035
Mof_C 	C 	0.5529	0.0326	0.6202	0.083
Mof_N 	N 	0.5578	0.0283	0.5709	-0.21
Mof_N 	N 	0.8658	0.277	0.1165	-0.225
Mof_C 	C 	0.9186	0.2485	0.1108	0.038
Mof_C 	C 	0.9198	0.1896	0.098	-0.09
Mof_H 	H 	0.9559	0.1701	0.0941	0.052
Mof_C 	C 	0.8683	0.1592	0.0908	0.014
Mof_H 	H 	0.8691	0.119	0.0821	0.016
Mof_C 	C 	0.8154	0.1877	0.0965	-0.096
Mof_H 	H 	0.7802	0.167	0.0916	0.054
Mof_C 	C 	0.8142	0.2466	0.1094	0.034
Mof_H 	H 	0.7781	0.2661	0.1133	-0.005
Mof_N 	N 	0.0145	0.3654	0.1234	-0.081
Mof_N 	N 	0.9598	0.3438	0.1209	-0.198
Mof_C 	C 	0.969	0.2856	0.1136	0.045
Mof_C 	C 	0.0285	0.2729	0.1104	-0.107
Mof_H 	H 	0.0466	0.2361	0.1064	0.061
Mof_C 	C 	0.0539	0.3259	0.1142	0.049
Mof_H 	H 	0.0944	0.3331	0.1108	0.012
Mof_C 	C 	0.0249	0.4259	0.1366	-0.124
Mof_H 	H 	0.9912	0.4488	0.1229	0.058
Mof_H 	H 	0.0592	0.4389	0.1143	0.067
Mof_C 	C 	0.0347	0.4394	0.1989	0.065
Mof_C 	C 	0.0378	0.3937	0.238	-0.103
Mof_H 	H 	0.0359	0.3548	0.2245	0.073
Mof_C 	C 	0.0438	0.4048	0.297	0.007
Mof_H 	H 	0.0459	0.3735	0.3237	0.024
Mof_C 	C 	0.0466	0.4617	0.3168	-0.07
Mof_C 	C 	0.0435	0.5074	0.2777	0.059
Mof_C 	C 	0.0375	0.4963	0.2187	-0.04
Mof_C 	C 	0.0462	0.564	0.2984	-0.094
Mof_H 	H 	0.0523	0.5709	0.3385	0.055
Mof_C 	C 	0.0399	0.6104	0.2604	-0.006
Mof_H 	H 	0.0377	0.649	0.2746	0.028
Mof_C 	C 	0.0369	0.5993	0.2012	-0.059
Mof_H 	H 	0.0332	0.6307	0.1748	0.042
Mof_C 	C 	0.0392	0.5424	0.1799	-0.024
Mof_H 	H 	0.0419	0.5355	0.1394	0.035
Mof_C 	C 	0.0529	0.4674	0.3798	0.083
Mof_N 	N 	0.0578	0.4717	0.4291	-0.211
Mof_N 	N 	0.1342	0.777	0.3835	-0.225
Mof_C 	C 	0.0814	0.7485	0.3892	0.038
Mof_C 	C 	0.0802	0.6896	0.402	-0.09
Mof_H 	H 	0.0441	0.6701	0.4059	0.052
Mof_C 	C 	0.1317	0.6592	0.4092	0.014
Mof_H 	H 	0.1309	0.619	0.4179	0.016
Mof_C 	C 	0.1846	0.6877	0.4035	-0.096
Mof_H 	H 	0.2198	0.667	0.4084	0.054
Mof_C 	C 	0.1858	0.7466	0.3906	0.034
Mof_H 	H 	0.2219	0.7661	0.3867	-0.005
Mof_N 	N 	0.9855	0.8654	0.3766	-0.081
Mof_N 	N 	0.0402	0.8438	0.3791	-0.198
Mof_C 	C 	0.031	0.7856	0.3864	0.044
Mof_C 	C 	0.9715	0.7729	0.3896	-0.106
Mof_H 	H 	0.9534	0.7361	0.3936	0.061
Mof_C 	C 	0.9461	0.8259	0.3858	0.049
Mof_H 	H 	0.9056	0.8331	0.3892	0.012
Mof_C 	C 	0.9751	0.9259	0.3634	-0.124
Mof_H 	H 	0.0088	0.9488	0.3771	0.058
Mof_H 	H 	0.9408	0.9389	0.3857	0.067
Mof_C 	C 	0.9653	0.9394	0.3011	0.065
Mof_C 	C 	0.9622	0.8937	0.262	-0.103
Mof_H 	H 	0.9641	0.8548	0.2755	0.073
Mof_C 	C 	0.9562	0.9048	0.203	0.007
Mof_H 	H 	0.9541	0.8735	0.1763	0.024
Mof_C 	C 	0.9534	0.9617	0.1832	-0.07
Mof_C 	C 	0.9565	0.0074	0.2223	0.058
Mof_C 	C 	0.9625	0.9963	0.2813	-0.04
Mof_C 	C 	0.9538	0.064	0.2016	-0.093
Mof_H 	H 	0.9477	0.0709	0.1615	0.055
Mof_C 	C 	0.9601	0.1104	0.2396	-0.007
Mof_H 	H 	0.9623	0.149	0.2254	0.028
Mof_C 	C 	0.9631	0.0993	0.2988	-0.059
Mof_H 	H 	0.9668	0.1307	0.3252	0.042
Mof_C 	C 	0.9608	0.0424	0.3201	-0.024
Mof_H 	H 	0.9581	0.0355	0.3606	0.035
Mof_C 	C 	0.9471	0.9674	0.1202	0.083
Mof_N 	N 	0.9422	0.9717	0.0709	-0.21
Mof_N 	N 	0.6342	0.723	0.6165	-0.225
Mof_C 	C 	0.5814	0.7515	0.6108	0.038
Mof_C 	C 	0.5802	0.8104	0.598	-0.09
Mof_H 	H 	0.5441	0.8299	0.5941	0.052
Mof_C 	C 	0.6317	0.8408	0.5908	0.014
Mof_H 	H 	0.6309	0.881	0.5821	0.016
Mof_C 	C 	0.6846	0.8123	0.5965	-0.096
Mof_H 	H 	0.7198	0.833	0.5916	0.054
Mof_C 	C 	0.6858	0.7534	0.6094	0.034
Mof_H 	H 	0.7219	0.7339	0.6133	-0.005
Mof_N 	N 	0.4855	0.6346	0.6234	-0.081
Mof_N 	N 	0.5402	0.6562	0.6209	-0.198
Mof_C 	C 	0.531	0.7144	0.6136	0.044
Mof_C 	C 	0.4715	0.7271	0.6104	-0.106
Mof_H 	H 	0.4534	0.7639	0.6064	0.061
Mof_C 	C 	0.4461	0.6741	0.6142	0.049
Mof_H 	H 	0.4056	0.6669	0.6108	0.012
Mof_C 	C 	0.4751	0.5741	0.6366	-0.124
Mof_H 	H 	0.5088	0.5512	0.6229	0.058
Mof_H 	H 	0.4408	0.5611	0.6143	0.067
Mof_C 	C 	0.4653	0.5606	0.6989	0.065
Mof_C 	C 	0.4622	0.6063	0.738	-0.103
Mof_H 	H 	0.4641	0.6452	0.7245	0.073
Mof_C 	C 	0.4562	0.5952	0.797	0.007
Mof_H 	H 	0.4541	0.6265	0.8237	0.024
Mof_C 	C 	0.4534	0.5383	0.8168	-0.07
Mof_C 	C 	0.4565	0.4926	0.7777	0.058
Mof_C 	C 	0.4625	0.5037	0.7187	-0.04
Mof_C 	C 	0.4538	0.436	0.7984	-0.094
Mof_H 	H 	0.4477	0.4291	0.8385	0.055
Mof_C 	C 	0.4601	0.3896	0.7604	-0.006
Mof_H 	H 	0.4623	0.351	0.7746	0.028
Mof_C 	C 	0.4631	0.4007	0.7012	-0.059
Mof_H 	H 	0.4668	0.3693	0.6748	0.042
Mof_C 	C 	0.4608	0.4576	0.6799	-0.024
Mof_H 	H 	0.4581	0.4645	0.6394	0.035
Mof_C 	C 	0.4471	0.5326	0.8798	0.083
Mof_N 	N 	0.4422	0.5283	0.9291	-0.21
Mof_N 	N 	0.8835	0.3658	0.223	-0.225
Mof_C 	C 	0.8892	0.4186	0.2515	0.038
Mof_C 	C 	0.902	0.4198	0.3104	-0.09
Mof_H 	H 	0.9059	0.4559	0.3299	0.052
Mof_C 	C 	0.9092	0.3683	0.3408	0.014
Mof_H 	H 	0.9179	0.3691	0.381	0.016
Mof_C 	C 	0.9035	0.3154	0.3123	-0.096
Mof_H 	H 	0.9084	0.2802	0.333	0.054
Mof_C 	C 	0.8906	0.3142	0.2534	0.034
Mof_H 	H 	0.8867	0.2781	0.2339	-0.005
Mof_N 	N 	0.8766	0.5145	0.1346	-0.081
Mof_N 	N 	0.8791	0.4598	0.1562	-0.198
Mof_C 	C 	0.8864	0.469	0.2144	0.044
Mof_C 	C 	0.8896	0.5285	0.2271	-0.106
Mof_H 	H 	0.8936	0.5466	0.2639	0.061
Mof_C 	C 	0.8858	0.5539	0.1741	0.049
Mof_H 	H 	0.8892	0.5944	0.1669	0.012
Mof_C 	C 	0.8634	0.5249	0.0741	-0.124
Mof_H 	H 	0.8771	0.4912	0.0512	0.058
Mof_H 	H 	0.8857	0.5592	0.0611	0.067
Mof_C 	C 	0.8011	0.5347	0.0606	0.065
Mof_C 	C 	0.762	0.5378	0.1063	-0.103
Mof_H 	H 	0.7755	0.5359	0.1452	0.073
Mof_C 	C 	0.703	0.5438	0.0952	0.007
Mof_H 	H 	0.6763	0.5459	0.1265	0.024
Mof_C 	C 	0.6832	0.5466	0.0383	-0.07
Mof_C 	C 	0.7223	0.5435	0.9926	0.058
Mof_C 	C 	0.7813	0.5375	0.0037	-0.04
Mof_C 	C 	0.7016	0.5462	0.936	-0.094
Mof_H 	H 	0.6615	0.5523	0.9291	0.055
Mof_C 	C 	0.7396	0.5399	0.8896	-0.007
Mof_H 	H 	0.7254	0.5377	0.851	0.028
Mof_C 	C 	0.7988	0.5369	0.9007	-0.059
Mof_H 	H 	0.8252	0.5332	0.8693	0.042
Mof_C 	C 	0.8201	0.5392	0.9576	-0.024
Mof_H 	H 	0.8606	0.5419	0.9645	0.035
Mof_C 	C 	0.6202	0.5529	0.0326	0.083
Mof_N 	N 	0.5709	0.5578	0.0283	-0.21
Mof_N 	N 	0.1165	0.8658	0.277	-0.225
Mof_C 	C 	0.1108	0.9186	0.2485	0.038
Mof_C 	C 	0.098	0.9198	0.1896	-0.09
Mof_H 	H 	0.0941	0.9559	0.1701	0.052
Mof_C 	C 	0.0908	0.8683	0.1592	0.014
Mof_H 	H 	0.0821	0.8691	0.119	0.016
Mof_C 	C 	0.0965	0.8154	0.1877	-0.096
Mof_H 	H 	0.0916	0.7802	0.167	0.054
Mof_C 	C 	0.1094	0.8142	0.2466	0.034
Mof_H 	H 	0.1133	0.7781	0.2661	-0.005
Mof_N 	N 	0.1234	0.0145	0.3654	-0.081
Mof_N 	N 	0.1209	0.9598	0.3438	-0.198
Mof_C 	C 	0.1136	0.969	0.2856	0.045
Mof_C 	C 	0.1104	0.0285	0.2729	-0.107
Mof_H 	H 	0.1064	0.0466	0.2361	0.061
Mof_C 	C 	0.1142	0.0539	0.3259	0.049
Mof_H 	H 	0.1108	0.0944	0.3331	0.012
Mof_C 	C 	0.1366	0.0249	0.4259	-0.124
Mof_H 	H 	0.1229	0.9912	0.4488	0.058
Mof_H 	H 	0.1143	0.0592	0.4389	0.067
Mof_C 	C 	0.1989	0.0347	0.4394	0.065
Mof_C 	C 	0.238	0.0378	0.3937	-0.103
Mof_H 	H 	0.2245	0.0359	0.3548	0.073
Mof_C 	C 	0.297	0.0438	0.4048	0.007
Mof_H 	H 	0.3237	0.0459	0.3735	0.024
Mof_C 	C 	0.3168	0.0466	0.4617	-0.07
Mof_C 	C 	0.2777	0.0435	0.5074	0.059
Mof_C 	C 	0.2187	0.0375	0.4963	-0.04
Mof_C 	C 	0.2984	0.0462	0.564	-0.094
Mof_H 	H 	0.3385	0.0523	0.5709	0.055
Mof_C 	C 	0.2604	0.0399	0.6104	-0.006
Mof_H 	H 	0.2746	0.0377	0.649	0.028
Mof_C 	C 	0.2012	0.0369	0.5993	-0.059
Mof_H 	H 	0.1748	0.0332	0.6307	0.042
Mof_C 	C 	0.1799	0.0392	0.5424	-0.024
Mof_H 	H 	0.1394	0.0419	0.5355	0.035
Mof_C 	C 	0.3798	0.0529	0.4674	0.083
Mof_N 	N 	0.4291	0.0578	0.4717	-0.211
Mof_N 	N 	0.3835	0.1342	0.777	-0.225
Mof_C 	C 	0.3892	0.0814	0.7485	0.038
Mof_C 	C 	0.402	0.0802	0.6896	-0.09
Mof_H 	H 	0.4059	0.0441	0.6701	0.052
Mof_C 	C 	0.4092	0.1317	0.6592	0.014
Mof_H 	H 	0.4179	0.1309	0.619	0.016
Mof_C 	C 	0.4035	0.1846	0.6877	-0.096
Mof_H 	H 	0.4084	0.2198	0.667	0.054
Mof_C 	C 	0.3906	0.1858	0.7466	0.034
Mof_H 	H 	0.3867	0.2219	0.7661	-0.005
Mof_N 	N 	0.3766	0.9855	0.8654	-0.081
Mof_N 	N 	0.3791	0.0402	0.8438	-0.198
Mof_C 	C 	0.3864	0.031	0.7856	0.044
Mof_C 	C 	0.3896	0.9715	0.7729	-0.106
Mof_H 	H 	0.3936	0.9534	0.7361	0.061
Mof_C 	C 	0.3858	0.9461	0.8259	0.049
Mof_H 	H 	0.3892	0.9056	0.8331	0.012
Mof_C 	C 	0.3634	0.9751	0.9259	-0.124
Mof_H 	H 	0.3771	0.0088	0.9488	0.058
Mof_H 	H 	0.3857	0.9408	0.9389	0.067
Mof_C 	C 	0.3011	0.9653	0.9394	0.065
Mof_C 	C 	0.262	0.9622	0.8937	-0.103
Mof_H 	H 	0.2755	0.9641	0.8548	0.073
Mof_C 	C 	0.203	0.9562	0.9048	0.007
Mof_H 	H 	0.1763	0.9541	0.8735	0.024
Mof_C 	C 	0.1832	0.9534	0.9617	-0.07
Mof_C 	C 	0.2223	0.9565	0.0074	0.058
Mof_C 	C 	0.2813	0.9625	0.9963	-0.04
Mof_C 	C 	0.2016	0.9538	0.064	-0.093
Mof_H 	H 	0.1615	0.9477	0.0709	0.055
Mof_C 	C 	0.2396	0.9601	0.1104	-0.007
Mof_H 	H 	0.2254	0.9623	0.149	0.028
Mof_C 	C 	0.2988	0.9631	0.0993	-0.059
Mof_H 	H 	0.3252	0.9668	0.1307	0.042
Mof_C 	C 	0.3201	0.9608	0.0424	-0.024
Mof_H 	H 	0.3606	0.9581	0.0355	0.035
Mof_C 	C 	0.1202	0.9471	0.9674	0.083
Mof_N 	N 	0.0709	0.9422	0.9717	-0.21
Mof_N 	N 	0.6165	0.6342	0.723	-0.225
Mof_C 	C 	0.6108	0.5814	0.7515	0.038
Mof_C 	C 	0.598	0.5802	0.8104	-0.09
Mof_H 	H 	0.5941	0.5441	0.8299	0.052
Mof_C 	C 	0.5908	0.6317	0.8408	0.014
Mof_H 	H 	0.5821	0.6309	0.881	0.016
Mof_C 	C 	0.5965	0.6846	0.8123	-0.096
Mof_H 	H 	0.5916	0.7198	0.833	0.054
Mof_C 	C 	0.6094	0.6858	0.7534	0.034
Mof_H 	H 	0.6133	0.7219	0.7339	-0.005
Mof_N 	N 	0.6234	0.4855	0.6346	-0.081
Mof_N 	N 	0.6209	0.5402	0.6562	-0.198
Mof_C 	C 	0.6136	0.531	0.7144	0.044
Mof_C 	C 	0.6104	0.4715	0.7271	-0.106
Mof_H 	H 	0.6064	0.4534	0.7639	0.061
Mof_C 	C 	0.6142	0.4461	0.6741	0.049
Mof_H 	H 	0.6108	0.4056	0.6669	0.012
Mof_C 	C 	0.6366	0.4751	0.5741	-0.124
Mof_H 	H 	0.6229	0.5088	0.5512	0.058
Mof_H 	H 	0.6143	0.4408	0.5611	0.067
Mof_C 	C 	0.6989	0.4653	0.5606	0.065
Mof_C 	C 	0.738	0.4622	0.6063	-0.103
Mof_H 	H 	0.7245	0.4641	0.6452	0.073
Mof_C 	C 	0.797	0.4562	0.5952	0.007
Mof_H 	H 	0.8237	0.4541	0.6265	0.024
Mof_C 	C 	0.8168	0.4534	0.5383	-0.07
Mof_C 	C 	0.7777	0.4565	0.4926	0.058
Mof_C 	C 	0.7187	0.4625	0.5037	-0.04
Mof_C 	C 	0.7984	0.4538	0.436	-0.094
Mof_H 	H 	0.8385	0.4477	0.4291	0.055
Mof_C 	C 	0.7604	0.4601	0.3896	-0.006
Mof_H 	H 	0.7746	0.4623	0.351	0.028
Mof_C 	C 	0.7012	0.4631	0.4007	-0.059
Mof_H 	H 	0.6748	0.4668	0.3693	0.042
Mof_C 	C 	0.6799	0.4608	0.4576	-0.024
Mof_H 	H 	0.6394	0.4581	0.4645	0.035
Mof_C 	C 	0.8798	0.4471	0.5326	0.083
Mof_N 	N 	0.9291	0.4422	0.5283	-0.21
Mof_Ag	Ag	0.00679	0.49321	0.50679	0.576
Mof_Ag	Ag	0.49321	0.50679	0.00679	0.576
Mof_Ag	Ag	0.99321	0.99321	0.99321	0.575
Mof_Ag	Ag	0.50679	0.00679	0.49321	0.576
Mof_Co	Co	0.12978	0.87022	0.37022	1.113
Mof_Co	Co	0.37022	0.12978	0.87022	1.113
Mof_Co	Co	0.87022	0.37022	0.12978	1.113
Mof_Co	Co	0.62978	0.62978	0.62978	1.113
Mof_N 	N 	0.8526	0.0465	0.6368	-0.226
Mof_C 	C 	0.8505	0.0193	0.6906	0.032
Mof_C 	C 	0.8439	0.9595	0.694	-0.088
Mof_H 	H 	0.8425	0.941	0.7307	0.049
Mof_C 	C 	0.8393	0.9268	0.6435	0.01
Mof_H 	H 	0.8347	0.8859	0.6458	0.015
Mof_C 	C 	0.8414	0.954	0.5897	-0.096
Mof_H 	H 	0.8383	0.9317	0.5552	0.054
Mof_C 	C 	0.848	0.0138	0.5864	0.037
Mof_H 	H 	0.8495	0.0324	0.5496	0.003
Mof_N 	N 	0.8527	0.1401	0.7833	-0.08
Mof_N 	N 	0.8548	0.115	0.7288	-0.201
Mof_C 	C 	0.8476	0.0586	0.7391	0.053
Mof_C 	C 	0.8429	0.0466	0.7978	-0.111
Mof_H 	H 	0.8395	0.0094	0.8152	0.06
Mof_C 	C 	0.844	0.0966	0.8244	0.045
Mof_H 	H 	0.8396	0.1023	0.865	0.014
Mof_C 	C 	0.8677	0.2023	0.7897	-0.12
Mof_H 	H 	0.8466	0.2184	0.8234	0.065
Mof_H 	H 	0.8546	0.2234	0.7547	0.059
Mof_C 	C 	0.9341	0.2128	0.7982	0.057
Mof_C 	C 	0.9719	0.1659	0.7959	-0.096
Mof_H 	H 	0.957	0.1277	0.7921	0.072
Mof_C 	C 	0.0314	0.175	0.7992	0.002
Mof_H 	H 	0.0572	0.1429	0.7976	0.027
Mof_C 	C 	0.0531	0.231	0.8047	-0.062
Mof_C 	C 	0.0153	0.2779	0.807	0.053
Mof_C 	C 	0.9558	0.2688	0.8038	-0.035
Mof_C 	C 	0.0381	0.3334	0.8125	-0.09
Mof_H 	H 	0.0789	0.3388	0.8154	0.056
Mof_C 	C 	0.0013	0.3812	0.8139	-0.013
Mof_H 	H 	0.0164	0.4195	0.8129	0.029
Mof_C 	C 	0.9419	0.3715	0.8168	-0.058
Mof_H 	H 	0.9165	0.4029	0.8251	0.042
Mof_C 	C 	0.9188	0.3163	0.8078	-0.028
Mof_H 	H 	0.8781	0.3112	0.8044	0.036
Mof_C 	C 	0.1138	0.2377	0.8007	0.071
Mof_N 	N 	0.1661	0.2426	0.7999	-0.197
Mof_N 	N 	0.6474	0.9535	0.1368	-0.226
Mof_C 	C 	0.6495	0.9807	0.1906	0.033
Mof_C 	C 	0.6561	0.0405	0.194	-0.089
Mof_H 	H 	0.6575	0.059	0.2307	0.049
Mof_C 	C 	0.6607	0.0732	0.1435	0.011
Mof_H 	H 	0.6653	0.1141	0.1458	0.015
Mof_C 	C 	0.6586	0.046	0.0897	-0.096
Mof_H 	H 	0.6617	0.0683	0.0552	0.054
Mof_C 	C 	0.652	0.9862	0.0864	0.038
Mof_H 	H 	0.6505	0.9676	0.0496	0.003
Mof_N 	N 	0.6473	0.8599	0.2833	-0.08
Mof_N 	N 	0.6452	0.885	0.2288	-0.201
Mof_C 	C 	0.6524	0.9414	0.2391	0.052
Mof_C 	C 	0.6571	0.9534	0.2978	-0.111
Mof_H 	H 	0.6605	0.9906	0.3152	0.06
Mof_C 	C 	0.656	0.9034	0.3244	0.045
Mof_H 	H 	0.6604	0.8977	0.365	0.014
Mof_C 	C 	0.6323	0.7977	0.2897	-0.12
Mof_H 	H 	0.6534	0.7816	0.3234	0.065
Mof_H 	H 	0.6454	0.7766	0.2547	0.059
Mof_C 	C 	0.5659	0.7872	0.2982	0.057
Mof_C 	C 	0.5281	0.8341	0.2959	-0.097
Mof_H 	H 	0.543	0.8723	0.2921	0.072
Mof_C 	C 	0.4686	0.825	0.2992	0.003
Mof_H 	H 	0.4428	0.8571	0.2976	0.027
Mof_C 	C 	0.4469	0.769	0.3047	-0.062
Mof_C 	C 	0.4847	0.7221	0.307	0.053
Mof_C 	C 	0.5442	0.7312	0.3038	-0.035
Mof_C 	C 	0.4619	0.6666	0.3125	-0.091
Mof_H 	H 	0.4211	0.6612	0.3154	0.056
Mof_C 	C 	0.4987	0.6188	0.3139	-0.013
Mof_H 	H 	0.4836	0.5805	0.3129	0.029
Mof_C 	C 	0.5581	0.6285	0.3168	-0.058
Mof_H 	H 	0.5835	0.5971	0.3251	0.042
Mof_C 	C 	0.5812	0.6837	0.3078	-0.028
Mof_H 	H 	0.6219	0.6888	0.3044	0.035
Mof_C 	C 	0.3862	0.7623	0.3007	0.071
Mof_N 	N 	0.3339	0.7574	0.2999	-0.197
Mof_N 	N 	0.1474	0.5465	0.8632	-0.226
Mof_C 	C 	0.1495	0.5193	0.8094	0.032
Mof_C 	C 	0.1561	0.4595	0.806	-0.088
Mof_H 	H 	0.1575	0.441	0.7693	0.049
Mof_C 	C 	0.1607	0.4268	0.8565	0.01
Mof_H 	H 	0.1653	0.3859	0.8542	0.015
Mof_C 	C 	0.1586	0.454	0.9103	-0.095
Mof_H 	H 	0.1617	0.4317	0.9448	0.054
Mof_C 	C 	0.152	0.5138	0.9136	0.037
Mof_H 	H 	0.1505	0.5324	0.9504	0.004
Mof_N 	N 	0.1473	0.6401	0.7167	-0.08
Mof_N 	N 	0.1452	0.615	0.7712	-0.201
Mof_C 	C 	0.1524	0.5586	0.7609	0.053
Mof_C 	C 	0.1571	0.5466	0.7022	-0.112
Mof_H 	H 	0.1605	0.5094	0.6848	0.06
Mof_C 	C 	0.156	0.5966	0.6756	0.045
Mof_H 	H 	0.1604	0.6023	0.635	0.013
Mof_C 	C 	0.1323	0.7023	0.7103	-0.12
Mof_H 	H 	0.1534	0.7184	0.6766	0.065
Mof_H 	H 	0.1454	0.7234	0.7453	0.059
Mof_C 	C 	0.0659	0.7128	0.7018	0.057
Mof_C 	C 	0.0281	0.6659	0.7041	-0.097
Mof_H 	H 	0.043	0.6277	0.7079	0.072
Mof_C 	C 	0.9686	0.675	0.7008	0.002
Mof_H 	H 	0.9428	0.6429	0.7024	0.027
Mof_C 	C 	0.9469	0.731	0.6953	-0.062
Mof_C 	C 	0.9847	0.7779	0.693	0.053
Mof_C 	C 	0.0442	0.7688	0.6962	-0.035
Mof_C 	C 	0.9619	0.8334	0.6875	-0.09
Mof_H 	H 	0.9211	0.8388	0.6846	0.056
Mof_C 	C 	0.9987	0.8812	0.6861	-0.013
Mof_H 	H 	0.9836	0.9195	0.6871	0.029
Mof_C 	C 	0.0581	0.8715	0.6832	-0.057
Mof_H 	H 	0.0835	0.9029	0.6749	0.042
Mof_C 	C 	0.0812	0.8163	0.6922	-0.028
Mof_H 	H 	0.1219	0.8112	0.6956	0.036
Mof_C 	C 	0.8862	0.7377	0.6993	0.071
Mof_N 	N 	0.8339	0.7426	0.7001	-0.197
Mof_N 	N 	0.3526	0.4535	0.3632	-0.226
Mof_C 	C 	0.3505	0.4807	0.3094	0.032
Mof_C 	C 	0.3439	0.5405	0.306	-0.088
Mof_H 	H 	0.3425	0.559	0.2693	0.049
Mof_C 	C 	0.3393	0.5732	0.3565	0.01
Mof_H 	H 	0.3347	0.6141	0.3542	0.015
Mof_C 	C 	0.3414	0.546	0.4103	-0.095
Mof_H 	H 	0.3383	0.5683	0.4448	0.054
Mof_C 	C 	0.348	0.4862	0.4136	0.037
Mof_H 	H 	0.3495	0.4676	0.4504	0.003
Mof_N 	N 	0.3527	0.3599	0.2167	-0.08
Mof_N 	N 	0.3548	0.385	0.2712	-0.201
Mof_C 	C 	0.3476	0.4414	0.2609	0.053
Mof_C 	C 	0.3429	0.4534	0.2022	-0.112
Mof_H 	H 	0.3395	0.4906	0.1848	0.06
Mof_C 	C 	0.344	0.4034	0.1756	0.045
Mof_H 	H 	0.3396	0.3977	0.135	0.013
Mof_C 	C 	0.3677	0.2977	0.2103	-0.12
Mof_H 	H 	0.3466	0.2816	0.1766	0.065
Mof_H 	H 	0.3546	0.2766	0.2453	0.059
Mof_C 	C 	0.4341	0.2872	0.2018	0.057
Mof_C 	C 	0.4719	0.3341	0.2041	-0.097
Mof_H 	H 	0.457	0.3723	0.2079	0.072
Mof_C 	C 	0.5314	0.325	0.2008	0.003
Mof_H 	H 	0.5572	0.3571	0.2024	0.027
Mof_C 	C 	0.5531	0.269	0.1953	-0.062
Mof_C 	C 	0.5153	0.2221	0.193	0.053
Mof_C 	C 	0.4558	0.2312	0.1962	-0.035
Mof_C 	C 	0.5381	0.1666	0.1875	-0.091
Mof_H 	H 	0.5789	0.1612	0.1846	0.056
Mof_C 	C 	0.5013	0.1188	0.1861	-0.013
Mof_H 	H 	0.5164	0.0805	0.1871	0.028
Mof_C 	C 	0.4419	0.1285	0.1832	-0.058
Mof_H 	H 	0.4165	0.0971	0.1749	0.042
Mof_C 	C 	0.4188	0.1837	0.1922	-0.028
Mof_H 	H 	0.3781	0.1888	0.1956	0.035
Mof_C 	C 	0.6138	0.2623	0.1993	0.071
Mof_N 	N 	0.6661	0.2574	0.2001	-0.197
Mof_N 	N 	0.6368	0.8526	0.0465	-0.226
Mof_C 	C 	0.6906	0.8505	0.0193	0.032
Mof_C 	C 	0.694	0.8439	0.9595	-0.088
Mof_H 	H 	0.7307	0.8425	0.941	0.049
Mof_C 	C 	0.6435	0.8393	0.9268	0.01
Mof_H 	H 	0.6458	0.8347	0.8859	0.015
Mof_C 	C 	0.5897	0.8414	0.954	-0.096
Mof_H 	H 	0.5552	0.8383	0.9317	0.054
Mof_C 	C 	0.5864	0.848	0.0138	0.037
Mof_H 	H 	0.5496	0.8495	0.0324	0.003
Mof_N 	N 	0.7833	0.8527	0.1401	-0.08
Mof_N 	N 	0.7288	0.8548	0.115	-0.201
Mof_C 	C 	0.7391	0.8476	0.0586	0.053
Mof_C 	C 	0.7978	0.8429	0.0466	-0.111
Mof_H 	H 	0.8152	0.8395	0.0094	0.06
Mof_C 	C 	0.8244	0.844	0.0966	0.045
Mof_H 	H 	0.865	0.8396	0.1023	0.014
Mof_C 	C 	0.7897	0.8677	0.2023	-0.12
Mof_H 	H 	0.8234	0.8466	0.2184	0.065
Mof_H 	H 	0.7547	0.8546	0.2234	0.059
Mof_C 	C 	0.7982	0.9341	0.2128	0.057
Mof_C 	C 	0.7959	0.9719	0.1659	-0.096
Mof_H 	H 	0.7921	0.957	0.1277	0.072
Mof_C 	C 	0.7992	0.0314	0.175	0.002
Mof_H 	H 	0.7976	0.0572	0.1429	0.027
Mof_C 	C 	0.8047	0.0531	0.231	-0.062
Mof_C 	C 	0.807	0.0153	0.2779	0.053
Mof_C 	C 	0.8038	0.9558	0.2688	-0.035
Mof_C 	C 	0.8125	0.0381	0.3334	-0.09
Mof_H 	H 	0.8154	0.0789	0.3388	0.056
Mof_C 	C 	0.8139	0.0013	0.3812	-0.013
Mof_H 	H 	0.8129	0.0164	0.4195	0.029
Mof_C 	C 	0.8168	0.9419	0.3715	-0.058
Mof_H 	H 	0.8251	0.9165	0.4029	0.042
Mof_C 	C 	0.8078	0.9188	0.3163	-0.028
Mof_H 	H 	0.8044	0.8781	0.3112	0.036
Mof_C 	C 	0.8007	0.1138	0.2377	0.071
Mof_N 	N 	0.7999	0.1661	0.2426	-0.197
Mof_N 	N 	0.1368	0.6474	0.9535	-0.226
Mof_C 	C 	0.1906	0.6495	0.9807	0.033
Mof_C 	C 	0.194	0.6561	0.0405	-0.089
Mof_H 	H 	0.2307	0.6575	0.059	0.049
Mof_C 	C 	0.1435	0.6607	0.0732	0.011
Mof_H 	H 	0.1458	0.6653	0.1141	0.015
Mof_C 	C 	0.0897	0.6586	0.046	-0.096
Mof_H 	H 	0.0552	0.6617	0.0683	0.054
Mof_C 	C 	0.0864	0.652	0.9862	0.038
Mof_H 	H 	0.0496	0.6505	0.9676	0.003
Mof_N 	N 	0.2833	0.6473	0.8599	-0.08
Mof_N 	N 	0.2288	0.6452	0.885	-0.201
Mof_C 	C 	0.2391	0.6524	0.9414	0.052
Mof_C 	C 	0.2978	0.6571	0.9534	-0.111
Mof_H 	H 	0.3152	0.6605	0.9906	0.06
Mof_C 	C 	0.3244	0.656	0.9034	0.045
Mof_H 	H 	0.365	0.6604	0.8977	0.014
Mof_C 	C 	0.2897	0.6323	0.7977	-0.12
Mof_H 	H 	0.3234	0.6534	0.7816	0.065
Mof_H 	H 	0.2547	0.6454	0.7766	0.059
Mof_C 	C 	0.2982	0.5659	0.7872	0.057
Mof_C 	C 	0.2959	0.5281	0.8341	-0.097
Mof_H 	H 	0.2921	0.543	0.8723	0.072
Mof_C 	C 	0.2992	0.4686	0.825	0.003
Mof_H 	H 	0.2976	0.4428	0.8571	0.027
Mof_C 	C 	0.3047	0.4469	0.769	-0.062
Mof_C 	C 	0.307	0.4847	0.7221	0.053
Mof_C 	C 	0.3038	0.5442	0.7312	-0.035
Mof_C 	C 	0.3125	0.4619	0.6666	-0.091
Mof_H 	H 	0.3154	0.4211	0.6612	0.056
Mof_C 	C 	0.3139	0.4987	0.6188	-0.013
Mof_H 	H 	0.3129	0.4836	0.5805	0.029
Mof_C 	C 	0.3168	0.5581	0.6285	-0.058
Mof_H 	H 	0.3251	0.5835	0.5971	0.042
Mof_C 	C 	0.3078	0.5812	0.6837	-0.028
Mof_H 	H 	0.3044	0.6219	0.6888	0.035
Mof_C 	C 	0.3007	0.3862	0.7623	0.071
Mof_N 	N 	0.2999	0.3339	0.7574	-0.197
Mof_N 	N 	0.8632	0.1474	0.5465	-0.226
Mof_C 	C 	0.8094	0.1495	0.5193	0.032
Mof_C 	C 	0.806	0.1561	0.4595	-0.088
Mof_H 	H 	0.7693	0.1575	0.441	0.049
Mof_C 	C 	0.8565	0.1607	0.4268	0.01
Mof_H 	H 	0.8542	0.1653	0.3859	0.015
Mof_C 	C 	0.9103	0.1586	0.454	-0.095
Mof_H 	H 	0.9448	0.1617	0.4317	0.054
Mof_C 	C 	0.9136	0.152	0.5138	0.037
Mof_H 	H 	0.9504	0.1505	0.5324	0.004
Mof_N 	N 	0.7167	0.1473	0.6401	-0.08
Mof_N 	N 	0.7712	0.1452	0.615	-0.201
Mof_C 	C 	0.7609	0.1524	0.5586	0.053
Mof_C 	C 	0.7022	0.1571	0.5466	-0.112
Mof_H 	H 	0.6848	0.1605	0.5094	0.06
Mof_C 	C 	0.6756	0.156	0.5966	0.045
Mof_H 	H 	0.635	0.1604	0.6023	0.013
Mof_C 	C 	0.7103	0.1323	0.7023	-0.12
Mof_H 	H 	0.6766	0.1534	0.7184	0.065
Mof_H 	H 	0.7453	0.1454	0.7234	0.059
Mof_C 	C 	0.7018	0.0659	0.7128	0.057
Mof_C 	C 	0.7041	0.0281	0.6659	-0.097
Mof_H 	H 	0.7079	0.043	0.6277	0.072
Mof_C 	C 	0.7008	0.9686	0.675	0.002
Mof_H 	H 	0.7024	0.9428	0.6429	0.027
Mof_C 	C 	0.6953	0.9469	0.731	-0.062
Mof_C 	C 	0.693	0.9847	0.7779	0.053
Mof_C 	C 	0.6962	0.0442	0.7688	-0.035
Mof_C 	C 	0.6875	0.9619	0.8334	-0.09
Mof_H 	H 	0.6846	0.9211	0.8388	0.056
Mof_C 	C 	0.6861	0.9987	0.8812	-0.013
Mof_H 	H 	0.6871	0.9836	0.9195	0.029
Mof_C 	C 	0.6832	0.0581	0.8715	-0.057
Mof_H 	H 	0.6749	0.0835	0.9029	0.042
Mof_C 	C 	0.6922	0.0812	0.8163	-0.028
Mof_H 	H 	0.6956	0.1219	0.8112	0.036
Mof_C 	C 	0.6993	0.8862	0.7377	0.071
Mof_N 	N 	0.7001	0.8339	0.7426	-0.197
Mof_N 	N 	0.3632	0.3526	0.4535	-0.226
Mof_C 	C 	0.3094	0.3505	0.4807	0.032
Mof_C 	C 	0.306	0.3439	0.5405	-0.088
Mof_H 	H 	0.2693	0.3425	0.559	0.049
Mof_C 	C 	0.3565	0.3393	0.5732	0.01
Mof_H 	H 	0.3542	0.3347	0.6141	0.015
Mof_C 	C 	0.4103	0.3414	0.546	-0.095
Mof_H 	H 	0.4448	0.3383	0.5683	0.054
Mof_C 	C 	0.4136	0.348	0.4862	0.037
Mof_H 	H 	0.4504	0.3495	0.4676	0.003
Mof_N 	N 	0.2167	0.3527	0.3599	-0.08
Mof_N 	N 	0.2712	0.3548	0.385	-0.201
Mof_C 	C 	0.2609	0.3476	0.4414	0.053
Mof_C 	C 	0.2022	0.3429	0.4534	-0.112
Mof_H 	H 	0.1848	0.3395	0.4906	0.06
Mof_C 	C 	0.1756	0.344	0.4034	0.045
Mof_H 	H 	0.135	0.3396	0.3977	0.013
Mof_C 	C 	0.2103	0.3677	0.2977	-0.12
Mof_H 	H 	0.1766	0.3466	0.2816	0.065
Mof_H 	H 	0.2453	0.3546	0.2766	0.059
Mof_C 	C 	0.2018	0.4341	0.2872	0.057
Mof_C 	C 	0.2041	0.4719	0.3341	-0.097
Mof_H 	H 	0.2079	0.457	0.3723	0.072
Mof_C 	C 	0.2008	0.5314	0.325	0.003
Mof_H 	H 	0.2024	0.5572	0.3571	0.027
Mof_C 	C 	0.1953	0.5531	0.269	-0.062
Mof_C 	C 	0.193	0.5153	0.2221	0.053
Mof_C 	C 	0.1962	0.4558	0.2312	-0.035
Mof_C 	C 	0.1875	0.5381	0.1666	-0.091
Mof_H 	H 	0.1846	0.5789	0.1612	0.056
Mof_C 	C 	0.1861	0.5013	0.1188	-0.013
Mof_H 	H 	0.1871	0.5164	0.0805	0.028
Mof_C 	C 	0.1832	0.4419	0.1285	-0.058
Mof_H 	H 	0.1749	0.4165	0.0971	0.042
Mof_C 	C 	0.1922	0.4188	0.1837	-0.028
Mof_H 	H 	0.1956	0.3781	0.1888	0.035
Mof_C 	C 	0.1993	0.6138	0.2623	0.071
Mof_N 	N 	0.2001	0.6661	0.2574	-0.197
Mof_N 	N 	0.0465	0.6368	0.8526	-0.226
Mof_C 	C 	0.0193	0.6906	0.8505	0.032
Mof_C 	C 	0.9595	0.694	0.8439	-0.088
Mof_H 	H 	0.941	0.7307	0.8425	0.049
Mof_C 	C 	0.9268	0.6435	0.8393	0.01
Mof_H 	H 	0.8859	0.6458	0.8347	0.015
Mof_C 	C 	0.954	0.5897	0.8414	-0.096
Mof_H 	H 	0.9317	0.5552	0.8383	0.054
Mof_C 	C 	0.0138	0.5864	0.848	0.037
Mof_H 	H 	0.0324	0.5496	0.8495	0.003
Mof_N 	N 	0.1401	0.7833	0.8527	-0.08
Mof_N 	N 	0.115	0.7288	0.8548	-0.201
Mof_C 	C 	0.0586	0.7391	0.8476	0.053
Mof_C 	C 	0.0466	0.7978	0.8429	-0.111
Mof_H 	H 	0.0094	0.8152	0.8395	0.06
Mof_C 	C 	0.0966	0.8244	0.844	0.045
Mof_H 	H 	0.1023	0.865	0.8396	0.014
Mof_C 	C 	0.2023	0.7897	0.8677	-0.12
Mof_H 	H 	0.2184	0.8234	0.8466	0.065
Mof_H 	H 	0.2234	0.7547	0.8546	0.059
Mof_C 	C 	0.2128	0.7982	0.9341	0.057
Mof_C 	C 	0.1659	0.7959	0.9719	-0.096
Mof_H 	H 	0.1277	0.7921	0.957	0.072
Mof_C 	C 	0.175	0.7992	0.0314	0.002
Mof_H 	H 	0.1429	0.7976	0.0572	0.027
Mof_C 	C 	0.231	0.8047	0.0531	-0.062
Mof_C 	C 	0.2779	0.807	0.0153	0.053
Mof_C 	C 	0.2688	0.8038	0.9558	-0.035
Mof_C 	C 	0.3334	0.8125	0.0381	-0.09
Mof_H 	H 	0.3388	0.8154	0.0789	0.056
Mof_C 	C 	0.3812	0.8139	0.0013	-0.013
Mof_H 	H 	0.4195	0.8129	0.0164	0.029
Mof_C 	C 	0.3715	0.8168	0.9419	-0.058
Mof_H 	H 	0.4029	0.8251	0.9165	0.042
Mof_C 	C 	0.3163	0.8078	0.9188	-0.028
Mof_H 	H 	0.3112	0.8044	0.8781	0.036
Mof_C 	C 	0.2377	0.8007	0.1138	0.071
Mof_N 	N 	0.2426	0.7999	0.1661	-0.197
Mof_N 	N 	0.9535	0.1368	0.6474	-0.226
Mof_C 	C 	0.9807	0.1906	0.6495	0.033
Mof_C 	C 	0.0405	0.194	0.6561	-0.089
Mof_H 	H 	0.059	0.2307	0.6575	0.049
Mof_C 	C 	0.0732	0.1435	0.6607	0.011
Mof_H 	H 	0.1141	0.1458	0.6653	0.015
Mof_C 	C 	0.046	0.0897	0.6586	-0.096
Mof_H 	H 	0.0683	0.0552	0.6617	0.054
Mof_C 	C 	0.9862	0.0864	0.652	0.038
Mof_H 	H 	0.9676	0.0496	0.6505	0.003
Mof_N 	N 	0.8599	0.2833	0.6473	-0.08
Mof_N 	N 	0.885	0.2288	0.6452	-0.201
Mof_C 	C 	0.9414	0.2391	0.6524	0.052
Mof_C 	C 	0.9534	0.2978	0.6571	-0.111
Mof_H 	H 	0.9906	0.3152	0.6605	0.06
Mof_C 	C 	0.9034	0.3244	0.656	0.045
Mof_H 	H 	0.8977	0.365	0.6604	0.014
Mof_C 	C 	0.7977	0.2897	0.6323	-0.12
Mof_H 	H 	0.7816	0.3234	0.6534	0.065
Mof_H 	H 	0.7766	0.2547	0.6454	0.059
Mof_C 	C 	0.7872	0.2982	0.5659	0.057
Mof_C 	C 	0.8341	0.2959	0.5281	-0.097
Mof_H 	H 	0.8723	0.2921	0.543	0.072
Mof_C 	C 	0.825	0.2992	0.4686	0.003
Mof_H 	H 	0.8571	0.2976	0.4428	0.027
Mof_C 	C 	0.769	0.3047	0.4469	-0.062
Mof_C 	C 	0.7221	0.307	0.4847	0.053
Mof_C 	C 	0.7312	0.3038	0.5442	-0.035
Mof_C 	C 	0.6666	0.3125	0.4619	-0.091
Mof_H 	H 	0.6612	0.3154	0.4211	0.056
Mof_C 	C 	0.6188	0.3139	0.4987	-0.013
Mof_H 	H 	0.5805	0.3129	0.4836	0.029
Mof_C 	C 	0.6285	0.3168	0.5581	-0.058
Mof_H 	H 	0.5971	0.3251	0.5835	0.042
Mof_C 	C 	0.6837	0.3078	0.5812	-0.028
Mof_H 	H 	0.6888	0.3044	0.6219	0.035
Mof_C 	C 	0.7623	0.3007	0.3862	0.071
Mof_N 	N 	0.7574	0.2999	0.3339	-0.197
Mof_N 	N 	0.5465	0.8632	0.1474	-0.226
Mof_C 	C 	0.5193	0.8094	0.1495	0.032
Mof_C 	C 	0.4595	0.806	0.1561	-0.088
Mof_H 	H 	0.441	0.7693	0.1575	0.049
Mof_C 	C 	0.4268	0.8565	0.1607	0.01
Mof_H 	H 	0.3859	0.8542	0.1653	0.015
Mof_C 	C 	0.454	0.9103	0.1586	-0.095
Mof_H 	H 	0.4317	0.9448	0.1617	0.054
Mof_C 	C 	0.5138	0.9136	0.152	0.037
Mof_H 	H 	0.5324	0.9504	0.1505	0.004
Mof_N 	N 	0.6401	0.7167	0.1473	-0.08
Mof_N 	N 	0.615	0.7712	0.1452	-0.201
Mof_C 	C 	0.5586	0.7609	0.1524	0.053
Mof_C 	C 	0.5466	0.7022	0.1571	-0.112
Mof_H 	H 	0.5094	0.6848	0.1605	0.06
Mof_C 	C 	0.5966	0.6756	0.156	0.045
Mof_H 	H 	0.6023	0.635	0.1604	0.013
Mof_C 	C 	0.7023	0.7103	0.1323	-0.12
Mof_H 	H 	0.7184	0.6766	0.1534	0.065
Mof_H 	H 	0.7234	0.7453	0.1454	0.059
Mof_C 	C 	0.7128	0.7018	0.0659	0.057
Mof_C 	C 	0.6659	0.7041	0.0281	-0.097
Mof_H 	H 	0.6277	0.7079	0.043	0.072
Mof_C 	C 	0.675	0.7008	0.9686	0.002
Mof_H 	H 	0.6429	0.7024	0.9428	0.027
Mof_C 	C 	0.731	0.6953	0.9469	-0.062
Mof_C 	C 	0.7779	0.693	0.9847	0.053
Mof_C 	C 	0.7688	0.6962	0.0442	-0.035
Mof_C 	C 	0.8334	0.6875	0.9619	-0.09
Mof_H 	H 	0.8388	0.6846	0.9211	0.056
Mof_C 	C 	0.8812	0.6861	0.9987	-0.013
Mof_H 	H 	0.9195	0.6871	0.9836	0.029
Mof_C 	C 	0.8715	0.6832	0.0581	-0.057
Mof_H 	H 	0.9029	0.6749	0.0835	0.042
Mof_C 	C 	0.8163	0.6922	0.0812	-0.028
Mof_H 	H 	0.8112	0.6956	0.1219	0.036
Mof_C 	C 	0.7377	0.6993	0.8862	0.071
Mof_N 	N 	0.7426	0.7001	0.8339	-0.197
Mof_N 	N 	0.4535	0.3632	0.3526	-0.226
Mof_C 	C 	0.4807	0.3094	0.3505	0.032
Mof_C 	C 	0.5405	0.306	0.3439	-0.088
Mof_H 	H 	0.559	0.2693	0.3425	0.049
Mof_C 	C 	0.5732	0.3565	0.3393	0.01
Mof_H 	H 	0.6141	0.3542	0.3347	0.015
Mof_C 	C 	0.546	0.4103	0.3414	-0.095
Mof_H 	H 	0.5683	0.4448	0.3383	0.054
Mof_C 	C 	0.4862	0.4136	0.348	0.037
Mof_H 	H 	0.4676	0.4504	0.3495	0.003
Mof_N 	N 	0.3599	0.2167	0.3527	-0.08
Mof_N 	N 	0.385	0.2712	0.3548	-0.201
Mof_C 	C 	0.4414	0.2609	0.3476	0.053
Mof_C 	C 	0.4534	0.2022	0.3429	-0.112
Mof_H 	H 	0.4906	0.1848	0.3395	0.06
Mof_C 	C 	0.4034	0.1756	0.344	0.045
Mof_H 	H 	0.3977	0.135	0.3396	0.013
Mof_C 	C 	0.2977	0.2103	0.3677	-0.12
Mof_H 	H 	0.2816	0.1766	0.3466	0.065
Mof_H 	H 	0.2766	0.2453	0.3546	0.059
Mof_C 	C 	0.2872	0.2018	0.4341	0.057
Mof_C 	C 	0.3341	0.2041	0.4719	-0.097
Mof_H 	H 	0.3723	0.2079	0.457	0.072
Mof_C 	C 	0.325	0.2008	0.5314	0.003
Mof_H 	H 	0.3571	0.2024	0.5572	0.027
Mof_C 	C 	0.269	0.1953	0.5531	-0.062
Mof_C 	C 	0.2221	0.193	0.5153	0.053
Mof_C 	C 	0.2312	0.1962	0.4558	-0.035
Mof_C 	C 	0.1666	0.1875	0.5381	-0.091
Mof_H 	H 	0.1612	0.1846	0.5789	0.056
Mof_C 	C 	0.1188	0.1861	0.5013	-0.013
Mof_H 	H 	0.0805	0.1871	0.5164	0.028
Mof_C 	C 	0.1285	0.1832	0.4419	-0.058
Mof_H 	H 	0.0971	0.1749	0.4165	0.042
Mof_C 	C 	0.1837	0.1922	0.4188	-0.028
Mof_H 	H 	0.1888	0.1956	0.3781	0.035
Mof_C 	C 	0.2623	0.1993	0.6138	0.071
Mof_N 	N 	0.2574	0.2001	0.6661	-0.197
Mof_Ag	Ag	0.24084	0.25916	0.74084	0.571
Mof_Ag	Ag	0.25916	0.74084	0.24084	0.571
Mof_Ag	Ag	0.75916	0.75916	0.75916	0.571
Mof_Ag	Ag	0.74084	0.24084	0.25916	0.571
Mof_Co	Co	0.86161	0.13839	0.63839	1.119
Mof_Co	Co	0.63839	0.86161	0.13839	1.119
Mof_Co	Co	0.13839	0.63839	0.86161	1.119
Mof_Co	Co	0.36161	0.36161	0.36161	1.119
_end
