data_functionalizedCrystal
_audit_creation_method	'EQeq! by Chris Wilmer'
_symmetry_space_group_name_H-M	'P1'
_symmetry_Int_Tables_number	1
_symmetry_cell_setting	triclinic
loop_
_symmetry_equiv_pos_as_xyz
  x,y,z
_cell_length_a	40.9064
_cell_length_b	40.9064
_cell_length_c	17.4574
_cell_angle_alpha	90
_cell_angle_beta	90
_cell_angle_gamma	90
loop_
_atom_site_label
_atom_site_type_symbol
_atom_site_fract_x
_atom_site_fract_y
_atom_site_fract_z
_atom_site_charge
Mof_Mn	Mn	0.07662	0.04019	0.18411	0.997
Mof_O 	O 	0.09454	0.01303	0.25969	-0.426
Mof_O 	O 	0.99453	0.02522	0.31964	-0.378
Mof_O 	O 	0.05125	0.06634	0.11309	-0.396
Mof_N 	N 	0.03399	0.03611	0.23084	-0.251
Mof_N 	N 	0.00835	0.05137	0.1889	-0.202
Mof_C 	C 	0.08075	0.00016	0.32213	0.301
Mof_C 	C 	0.10029	0.98021	0.3681	-0.282
Mof_H 	H 	0.1221	0.9756	0.3529	0.121
Mof_C 	C 	0.0884	0.96708	0.4355	0.138
Mof_H 	H 	0.1021	0.9534	0.4656	-0.029
Mof_C 	C 	0.05689	0.97343	0.4601	-0.204
Mof_H 	H 	0.0491	0.9651	0.5075	0.102
Mof_C 	C 	0.03685	0.99234	0.4134	0.119
Mof_H 	H 	0.015	0.9964	0.4289	0.001
Mof_C 	C 	0.04811	0.00557	0.34406	-0.246
Mof_C 	C 	0.0244	0.02321	0.29661	0.289
Mof_C 	C 	0.01991	0.06594	0.12827	0.274
Mof_C 	C 	0.99763	0.08313	0.07333	-0.323
Mof_H 	H 	0.9748	0.0806	0.091	0.113
Mof_H 	H 	0.9995	0.0727	0.0224	0.12
Mof_C 	C 	0.00533	0.11932	0.0655	0.092
Mof_H 	H 	0.9914	0.1288	0.0248	-0.004
Mof_H 	H 	0.0284	0.1219	0.0498	0.005
Mof_C 	C 	0.99962	0.13814	0.1404	-0.267
Mof_H 	H 	0.0143	0.1293	0.1804	0.103
Mof_H 	H 	0.9768	0.1346	0.1574	0.103
Mof_C 	C 	0.00571	0.17504	0.1324	0.143
Mof_H 	H 	0.9912	0.184	0.0921	-0.023
Mof_H 	H 	0.0286	0.1788	0.1164	-0.021
Mof_C 	C 	0.99921	0.19319	0.2087	-0.488
Mof_H 	H 	0.9776	0.1871	0.2283	0.163
Mof_H 	H 	-3.13657e-33	0.2168	0.2	0.154
Mof_H 	H 	0.016	0.1871	0.2463	0.159
Mof_Mn	Mn	0.96017	0.03785	0.24507	1.047
Mof_N 	N 	0.92616	0.04355	0.16866	-0.25
Mof_N 	N 	0.9217	0.01632	0.11937	-0.204
Mof_N 	N 	0.92618	0.01159	0.32875	-0.2
Mof_O 	O 	0.95153	0.07909	0.28429	-0.432
Mof_O 	O 	0.88506	0.06698	0.09968	-0.376
Mof_O 	O 	0.96312	0.99617	0.19315	-0.397
Mof_C 	C 	0.92774	0.10008	0.26819	0.313
Mof_C 	C 	0.92513	0.12811	0.3145	-0.281
Mof_H 	H 	0.9403	0.1315	0.3549	0.129
Mof_C 	C 	0.90074	0.15082	0.302	0.15
Mof_H 	H 	0.8994	0.1696	0.3339	-0.027
Mof_C 	C 	0.87843	0.14669	0.2442	-0.216
Mof_H 	H 	0.8614	0.1622	0.2367	0.108
Mof_C 	C 	0.88095	0.11986	0.19721	0.135
Mof_H 	H 	0.8658	0.1173	0.1565	0.003
Mof_C 	C 	0.90533	0.09616	0.20783	-0.245
Mof_C 	C 	0.90548	0.06771	0.15578	0.294
Mof_C 	C 	0.94181	0.99297	0.13822	0.285
Mof_C 	C 	0.93984	0.96032	0.0988	-0.33
Mof_H 	H 	0.962	0.9534	0.0829	0.126
Mof_H 	H 	0.9261	0.9623	0.0523	0.117
Mof_C 	C 	0.92504	0.93451	0.1528	0.109
Mof_H 	H 	0.9276	0.9127	0.1291	-0.004
Mof_H 	H 	0.9375	0.9345	0.2014	0.009
Mof_C 	C 	0.88929	0.94011	0.1703	-0.299
Mof_H 	H 	0.877	0.9405	0.1215	0.115
Mof_H 	H 	0.8868	0.9619	0.1945	0.116
Mof_C 	C 	0.87416	0.91455	0.2226	0.187
Mof_H 	H 	0.8866	0.9138	0.2712	-0.03
Mof_H 	H 	0.876	0.8928	0.198	-0.028
Mof_C 	C 	0.838	0.92152	0.2403	-0.538
Mof_H 	H 	0.8357	0.944	0.259	0.177
Mof_H 	H 	0.8303	0.9062	0.2795	0.175
Mof_H 	H 	0.825	0.9188	0.1936	0.18
Mof_C 	C 	0.89615	0.02134	0.3455	0.11
Mof_H 	H 	0.8894	0.0425	0.3294	-0.015
Mof_C 	C 	0.87425	0.00193	0.3854	-0.195
Mof_H 	H 	0.853	0.01	0.3967	0.084
Mof_C 	C 	0.8831	0.97109	0.4087	0.137
Mof_C 	C 	0.914	0.96137	0.3924	-0.193
Mof_H 	H 	0.9213	0.9404	0.4085	0.091
Mof_C 	C 	0.93483	0.98161	0.3527	0.114
Mof_H 	H 	0.9563	0.974	0.3417	-0.003
Mof_C 	C 	0.86023	0.94918	0.454	-0.147
Mof_H 	H 	0.8373	0.9553	0.4428	0.062
Mof_H 	H 	0.8635	0.9262	0.4381	0.061
Mof_Mn	Mn	0.11288	0.97001	0.97416	1.047
Mof_O 	O 	0.14867	0.99195	0.93405	-0.43
Mof_O 	O 	0.11813	0.04746	0.12779	-0.377
Mof_O 	O 	0.07537	0.95244	0.0272	-0.378
Mof_N 	N 	0.10629	0.00439	0.05004	-0.248
Mof_N 	N 	0.07849	0.99969	0.09708	-0.184
Mof_N 	N 	0.80875	0.895	0.692	-0.202
Mof_C 	C 	0.1657	0.01652	0.96427	0.306
Mof_C 	C 	0.19556	0.0242	0.92879	-0.276
Mof_H 	H 	0.2024	0.012	0.8853	0.128
Mof_C 	C 	0.21499	0.04911	0.9561	0.14
Mof_H 	H 	0.2351	0.0538	0.9312	-0.03
Mof_C 	C 	0.20575	0.06739	0.01943	-0.207
Mof_H 	H 	0.2193	0.0845	0.0382	0.104
Mof_C 	C 	0.17651	0.06012	0.05434	0.132
Mof_H 	H 	0.17	0.0726	0.0976	0.009
Mof_C 	C 	0.15592	0.03507	0.0288	-0.241
Mof_C 	C 	0.12541	0.0288	0.07019	0.293
Mof_C 	C 	0.06475	0.97192	0.08098	0.209
Mof_C 	C 	0.03628	0.96002	0.1278	-0.078
Mof_H 	H 	0.0279	0.9782	0.1597	0.046
Mof_H 	H 	0.0185	0.9529	0.0931	0.049
Mof_C 	C 	0.04635	0.93102	0.1804	-0.402
Mof_H 	H 	0.0628	0.9388	0.2177	0.135
Mof_H 	H 	0.0568	0.9139	0.1486	0.148
Mof_C 	C 	0.01803	0.9161	0.2235	0.584
Mof_H 	H 	0.0201	0.8921	0.2176	-0.134
Mof_H 	H 	0.9979	0.9226	0.1957	-0.124
Mof_C 	C 	0.013	0.921	0.2883	-0.728
Mof_H 	H 	0.0339	0.9177	0.3159	0.224
Mof_H 	H 	0.0074	0.9444	0.2936	0.239
Mof_C 	C 	0.98652	0.9012	0.3312	0.187
Mof_H 	H 	0.9813	0.8814	0.3022	-0.025
Mof_H 	H 	0.9946	0.8952	0.3821	-0.034
Mof_H 	H 	0.9668	0.9146	0.3366	-0.03
Mof_C 	C 	0.80683	0.89009	0.61681	0.109
Mof_H 	H 	0.7924	0.8736	0.5987	-0.008
Mof_C 	C 	0.82471	0.90764	0.5636	-0.189
Mof_H 	H 	0.8226	0.9031	0.5104	0.085
Mof_C 	C 	0.84563	0.93179	0.5889	0.137
Mof_C 	C 	0.84718	0.93741	0.6667	-0.2
Mof_H 	H 	0.8609	0.9542	0.6865	0.1
Mof_C 	C 	0.82864	0.9185	0.7156	0.117
Mof_H 	H 	0.8302	0.9225	0.7691	-0
Mof_C 	C 	0.8662	0.95219	0.5345	-0.159
Mof_H 	H 	0.8632	0.9755	0.5486	0.074
Mof_H 	H 	0.8894	0.9467	0.5438	0.073
Mof_Mn	Mn	0.57662	0.54019	0.68411	0.998
Mof_O 	O 	0.59454	0.51303	0.75969	-0.425
Mof_O 	O 	0.49453	0.52522	0.81964	-0.378
Mof_O 	O 	0.55125	0.56634	0.61309	-0.396
Mof_N 	N 	0.53399	0.53611	0.73084	-0.25
Mof_N 	N 	0.50835	0.55137	0.6889	-0.201
Mof_C 	C 	0.58075	0.50016	0.82213	0.302
Mof_C 	C 	0.60029	0.48021	0.8681	-0.281
Mof_H 	H 	0.6221	0.4756	0.8529	0.122
Mof_C 	C 	0.5884	0.46708	0.9355	0.139
Mof_H 	H 	0.6021	0.4534	0.9656	-0.027
Mof_C 	C 	0.55689	0.47343	0.9601	-0.202
Mof_H 	H 	0.5491	0.4651	0.0075	0.102
Mof_C 	C 	0.53685	0.49234	0.9134	0.12
Mof_H 	H 	0.515	0.4964	0.9289	0.002
Mof_C 	C 	0.54811	0.50557	0.84406	-0.245
Mof_C 	C 	0.5244	0.52321	0.79661	0.291
Mof_C 	C 	0.51991	0.56594	0.62827	0.277
Mof_C 	C 	0.49763	0.58313	0.57333	-0.327
Mof_H 	H 	0.4748	0.5806	0.591	0.115
Mof_H 	H 	0.4995	0.5727	0.5224	0.122
Mof_C 	C 	0.50533	0.61932	0.5655	0.101
Mof_H 	H 	0.4914	0.6288	0.5248	-0.006
Mof_H 	H 	0.5284	0.6219	0.5498	0.004
Mof_C 	C 	0.49962	0.63814	0.6404	-0.276
Mof_H 	H 	0.5143	0.6293	0.6804	0.107
Mof_H 	H 	0.4768	0.6346	0.6574	0.107
Mof_C 	C 	0.50571	0.67504	0.6324	0.155
Mof_H 	H 	0.4912	0.684	0.5921	-0.027
Mof_H 	H 	0.5286	0.6788	0.6164	-0.024
Mof_C 	C 	0.49921	0.69319	0.7087	-0.5
Mof_H 	H 	0.4776	0.6871	0.7283	0.166
Mof_H 	H 	0.5	0.7168	0.7	0.158
Mof_H 	H 	0.516	0.6871	0.7463	0.163
Mof_Mn	Mn	0.46017	0.53785	0.74507	1.047
Mof_N 	N 	0.42616	0.54355	0.66866	-0.25
Mof_N 	N 	0.4217	0.51632	0.61937	-0.204
Mof_N 	N 	0.42618	0.51159	0.82875	-0.2
Mof_O 	O 	0.45153	0.57909	0.78429	-0.432
Mof_O 	O 	0.38506	0.56698	0.59968	-0.376
Mof_O 	O 	0.46312	0.49617	0.69315	-0.397
Mof_C 	C 	0.42774	0.60008	0.76819	0.313
Mof_C 	C 	0.42513	0.62811	0.8145	-0.281
Mof_H 	H 	0.4403	0.6315	0.8549	0.128
Mof_C 	C 	0.40074	0.65082	0.802	0.15
Mof_H 	H 	0.3994	0.6696	0.8339	-0.027
Mof_C 	C 	0.37843	0.64669	0.7442	-0.216
Mof_H 	H 	0.3614	0.6622	0.7367	0.108
Mof_C 	C 	0.38095	0.61986	0.69721	0.135
Mof_H 	H 	0.3658	0.6173	0.6565	0.003
Mof_C 	C 	0.40533	0.59616	0.70783	-0.245
Mof_C 	C 	0.40548	0.56771	0.65578	0.294
Mof_C 	C 	0.44181	0.49297	0.63822	0.285
Mof_C 	C 	0.43984	0.46032	0.5988	-0.33
Mof_H 	H 	0.462	0.4534	0.5829	0.126
Mof_H 	H 	0.4261	0.4623	0.5523	0.117
Mof_C 	C 	0.42504	0.43451	0.6528	0.109
Mof_H 	H 	0.4276	0.4127	0.6291	-0.004
Mof_H 	H 	0.4375	0.4345	0.7014	0.009
Mof_C 	C 	0.38929	0.44011	0.6703	-0.299
Mof_H 	H 	0.377	0.4405	0.6215	0.115
Mof_H 	H 	0.3868	0.4619	0.6945	0.116
Mof_C 	C 	0.37416	0.41455	0.7226	0.187
Mof_H 	H 	0.3866	0.4138	0.7712	-0.03
Mof_H 	H 	0.376	0.3928	0.698	-0.028
Mof_C 	C 	0.338	0.42152	0.7403	-0.538
Mof_H 	H 	0.3357	0.444	0.759	0.177
Mof_H 	H 	0.3303	0.4062	0.7795	0.175
Mof_H 	H 	0.325	0.4188	0.6936	0.18
Mof_C 	C 	0.39615	0.52134	0.8455	0.11
Mof_H 	H 	0.3894	0.5425	0.8294	-0.015
Mof_C 	C 	0.37425	0.50193	0.8854	-0.195
Mof_H 	H 	0.353	0.51	0.8967	0.084
Mof_C 	C 	0.3831	0.47109	0.9087	0.137
Mof_C 	C 	0.414	0.46137	0.8924	-0.193
Mof_H 	H 	0.4213	0.4404	0.9085	0.091
Mof_C 	C 	0.43483	0.48161	0.8527	0.114
Mof_H 	H 	0.4563	0.474	0.8417	-0.003
Mof_C 	C 	0.36023	0.44918	0.954	-0.146
Mof_H 	H 	0.3373	0.4553	0.9428	0.062
Mof_H 	H 	0.3635	0.4262	0.9381	0.061
Mof_Mn	Mn	0.61288	0.47001	0.47416	1.047
Mof_O 	O 	0.64867	0.49195	0.43405	-0.43
Mof_O 	O 	0.61813	0.54746	0.62779	-0.377
Mof_O 	O 	0.57537	0.45244	0.5272	-0.378
Mof_N 	N 	0.60629	0.50439	0.55004	-0.248
Mof_N 	N 	0.57849	0.49969	0.59708	-0.184
Mof_N 	N 	0.30875	0.395	0.192	-0.202
Mof_C 	C 	0.6657	0.51652	0.46427	0.306
Mof_C 	C 	0.69556	0.5242	0.42879	-0.275
Mof_H 	H 	0.7024	0.512	0.3853	0.128
Mof_C 	C 	0.71499	0.54911	0.4561	0.139
Mof_H 	H 	0.7351	0.5538	0.4312	-0.03
Mof_C 	C 	0.70575	0.56739	0.51943	-0.206
Mof_H 	H 	0.7193	0.5845	0.5382	0.104
Mof_C 	C 	0.67651	0.56012	0.55434	0.132
Mof_H 	H 	0.67	0.5726	0.5976	0.009
Mof_C 	C 	0.65592	0.53507	0.5288	-0.241
Mof_C 	C 	0.62541	0.5288	0.57019	0.293
Mof_C 	C 	0.56475	0.47192	0.58098	0.21
Mof_C 	C 	0.53628	0.46002	0.6278	-0.078
Mof_H 	H 	0.5279	0.4782	0.6597	0.046
Mof_H 	H 	0.5185	0.4529	0.5931	0.05
Mof_C 	C 	0.54635	0.43102	0.6804	-0.402
Mof_H 	H 	0.5628	0.4388	0.7177	0.135
Mof_H 	H 	0.5568	0.4139	0.6486	0.148
Mof_C 	C 	0.51803	0.4161	0.7235	0.584
Mof_H 	H 	0.5201	0.3921	0.7176	-0.134
Mof_H 	H 	0.4979	0.4226	0.6957	-0.124
Mof_C 	C 	0.513	0.421	0.7883	-0.726
Mof_H 	H 	0.5339	0.4177	0.8159	0.223
Mof_H 	H 	0.5074	0.4444	0.7936	0.239
Mof_C 	C 	0.48652	0.4012	0.8312	0.185
Mof_H 	H 	0.4813	0.3814	0.8022	-0.025
Mof_H 	H 	0.4946	0.3952	0.8821	-0.033
Mof_H 	H 	0.4668	0.4146	0.8366	-0.03
Mof_C 	C 	0.30683	0.39009	0.11681	0.109
Mof_H 	H 	0.2924	0.3736	0.0987	-0.008
Mof_C 	C 	0.32471	0.40764	0.0636	-0.189
Mof_H 	H 	0.3226	0.4031	0.0104	0.085
Mof_C 	C 	0.34563	0.43179	0.0889	0.137
Mof_C 	C 	0.34718	0.43741	0.1667	-0.2
Mof_H 	H 	0.3609	0.4542	0.1865	0.1
Mof_C 	C 	0.32864	0.4185	0.2156	0.117
Mof_H 	H 	0.3302	0.4225	0.2691	-0
Mof_C 	C 	0.3662	0.45219	0.0345	-0.159
Mof_H 	H 	0.3632	0.4755	0.0486	0.074
Mof_H 	H 	0.3894	0.4467	0.0438	0.073
Mof_Mn	Mn	0.42338	0.95981	0.68411	0.998
Mof_O 	O 	0.40546	0.98697	0.75969	-0.425
Mof_O 	O 	0.50547	0.97478	0.81964	-0.378
Mof_O 	O 	0.44875	0.93366	0.61309	-0.396
Mof_N 	N 	0.46601	0.96389	0.73084	-0.25
Mof_N 	N 	0.49165	0.94863	0.6889	-0.201
Mof_C 	C 	0.41925	0.99984	0.82213	0.302
Mof_C 	C 	0.39971	0.01979	0.8681	-0.281
Mof_H 	H 	0.3779	0.0244	0.8529	0.122
Mof_C 	C 	0.4116	0.03292	0.9355	0.138
Mof_H 	H 	0.3979	0.0466	0.9656	-0.027
Mof_C 	C 	0.44311	0.02657	0.9601	-0.202
Mof_H 	H 	0.4509	0.0349	0.0075	0.102
Mof_C 	C 	0.46315	0.00766	0.9134	0.119
Mof_H 	H 	0.485	0.0036	0.9289	0.002
Mof_C 	C 	0.45189	0.99443	0.84406	-0.245
Mof_C 	C 	0.4756	0.97679	0.79661	0.291
Mof_C 	C 	0.48009	0.93406	0.62827	0.277
Mof_C 	C 	0.50237	0.91687	0.57333	-0.327
Mof_H 	H 	0.5252	0.9194	0.591	0.115
Mof_H 	H 	0.5005	0.9273	0.5224	0.122
Mof_C 	C 	0.49467	0.88068	0.5655	0.101
Mof_H 	H 	0.5086	0.8712	0.5248	-0.006
Mof_H 	H 	0.4716	0.8781	0.5498	0.004
Mof_C 	C 	0.50038	0.86186	0.6404	-0.276
Mof_H 	H 	0.4857	0.8707	0.6804	0.107
Mof_H 	H 	0.5232	0.8654	0.6574	0.107
Mof_C 	C 	0.49429	0.82496	0.6324	0.155
Mof_H 	H 	0.5088	0.816	0.5921	-0.027
Mof_H 	H 	0.4714	0.8212	0.6164	-0.024
Mof_C 	C 	0.50079	0.80681	0.7087	-0.5
Mof_H 	H 	0.5224	0.8129	0.7283	0.166
Mof_H 	H 	0.5	0.7832	0.7	0.158
Mof_H 	H 	0.484	0.8129	0.7463	0.163
Mof_Mn	Mn	0.53983	0.96215	0.74507	1.047
Mof_N 	N 	0.57384	0.95645	0.66866	-0.25
Mof_N 	N 	0.5783	0.98368	0.61937	-0.204
Mof_N 	N 	0.57382	0.98841	0.82875	-0.2
Mof_O 	O 	0.54847	0.92091	0.78429	-0.432
Mof_O 	O 	0.61494	0.93302	0.59968	-0.376
Mof_O 	O 	0.53688	0.00383	0.69315	-0.397
Mof_C 	C 	0.57226	0.89992	0.76819	0.313
Mof_C 	C 	0.57487	0.87189	0.8145	-0.281
Mof_H 	H 	0.5597	0.8685	0.8549	0.128
Mof_C 	C 	0.59926	0.84918	0.802	0.15
Mof_H 	H 	0.6006	0.8304	0.8339	-0.027
Mof_C 	C 	0.62157	0.85331	0.7442	-0.216
Mof_H 	H 	0.6386	0.8378	0.7367	0.108
Mof_C 	C 	0.61905	0.88014	0.69721	0.135
Mof_H 	H 	0.6342	0.8827	0.6565	0.003
Mof_C 	C 	0.59467	0.90384	0.70783	-0.245
Mof_C 	C 	0.59452	0.93229	0.65578	0.294
Mof_C 	C 	0.55819	0.00703	0.63822	0.285
Mof_C 	C 	0.56016	0.03968	0.5988	-0.33
Mof_H 	H 	0.538	0.0466	0.5829	0.126
Mof_H 	H 	0.5739	0.0377	0.5523	0.117
Mof_C 	C 	0.57496	0.06549	0.6528	0.109
Mof_H 	H 	0.5724	0.0873	0.6291	-0.004
Mof_H 	H 	0.5625	0.0655	0.7014	0.009
Mof_C 	C 	0.61071	0.05989	0.6703	-0.299
Mof_H 	H 	0.623	0.0595	0.6215	0.115
Mof_H 	H 	0.6132	0.0381	0.6945	0.116
Mof_C 	C 	0.62584	0.08545	0.7226	0.187
Mof_H 	H 	0.6134	0.0862	0.7712	-0.03
Mof_H 	H 	0.624	0.1072	0.698	-0.028
Mof_C 	C 	0.662	0.07848	0.7403	-0.538
Mof_H 	H 	0.6643	0.056	0.759	0.177
Mof_H 	H 	0.6697	0.0938	0.7795	0.175
Mof_H 	H 	0.675	0.0812	0.6936	0.18
Mof_C 	C 	0.60385	0.97866	0.8455	0.11
Mof_H 	H 	0.6106	0.9575	0.8294	-0.015
Mof_C 	C 	0.62575	0.99807	0.8854	-0.195
Mof_H 	H 	0.647	0.99	0.8967	0.084
Mof_C 	C 	0.6169	0.02891	0.9087	0.137
Mof_C 	C 	0.586	0.03863	0.8924	-0.193
Mof_H 	H 	0.5787	0.0596	0.9085	0.091
Mof_C 	C 	0.56517	0.01839	0.8527	0.114
Mof_H 	H 	0.5437	0.026	0.8417	-0.003
Mof_C 	C 	0.63977	0.05082	0.954	-0.146
Mof_H 	H 	0.6627	0.0447	0.9428	0.062
Mof_H 	H 	0.6365	0.0738	0.9381	0.061
Mof_Mn	Mn	0.38712	0.02999	0.47416	1.047
Mof_O 	O 	0.35133	0.00805	0.43405	-0.43
Mof_O 	O 	0.38187	0.95254	0.62779	-0.377
Mof_O 	O 	0.42463	0.04756	0.5272	-0.378
Mof_N 	N 	0.39371	0.99561	0.55004	-0.248
Mof_N 	N 	0.42151	0.00031	0.59708	-0.184
Mof_N 	N 	0.69125	0.105	0.192	-0.202
Mof_C 	C 	0.3343	0.98348	0.46427	0.306
Mof_C 	C 	0.30444	0.9758	0.42879	-0.275
Mof_H 	H 	0.2976	0.988	0.3853	0.128
Mof_C 	C 	0.28501	0.95089	0.4561	0.139
Mof_H 	H 	0.2649	0.9462	0.4312	-0.03
Mof_C 	C 	0.29425	0.93261	0.51943	-0.206
Mof_H 	H 	0.2807	0.9155	0.5382	0.104
Mof_C 	C 	0.32349	0.93988	0.55434	0.132
Mof_H 	H 	0.33	0.9274	0.5976	0.009
Mof_C 	C 	0.34408	0.96493	0.5288	-0.241
Mof_C 	C 	0.37459	0.9712	0.57019	0.293
Mof_C 	C 	0.43525	0.02808	0.58098	0.21
Mof_C 	C 	0.46372	0.03998	0.6278	-0.078
Mof_H 	H 	0.4721	0.0218	0.6597	0.046
Mof_H 	H 	0.4815	0.0471	0.5931	0.05
Mof_C 	C 	0.45365	0.06898	0.6804	-0.402
Mof_H 	H 	0.4372	0.0612	0.7177	0.135
Mof_H 	H 	0.4432	0.0861	0.6486	0.148
Mof_C 	C 	0.48197	0.0839	0.7235	0.584
Mof_H 	H 	0.4799	0.1079	0.7176	-0.134
Mof_H 	H 	0.5021	0.0774	0.6957	-0.124
Mof_C 	C 	0.487	0.079	0.7883	-0.726
Mof_H 	H 	0.4661	0.0823	0.8159	0.223
Mof_H 	H 	0.4926	0.0556	0.7936	0.239
Mof_C 	C 	0.51348	0.0988	0.8312	0.185
Mof_H 	H 	0.5187	0.1186	0.8022	-0.025
Mof_H 	H 	0.5054	0.1048	0.8821	-0.033
Mof_H 	H 	0.5332	0.0854	0.8366	-0.03
Mof_C 	C 	0.69317	0.10991	0.11681	0.109
Mof_H 	H 	0.7076	0.1264	0.0987	-0.008
Mof_C 	C 	0.67529	0.09236	0.0636	-0.189
Mof_H 	H 	0.6774	0.0969	0.0104	0.085
Mof_C 	C 	0.65437	0.06821	0.0889	0.137
Mof_C 	C 	0.65282	0.06259	0.1667	-0.2
Mof_H 	H 	0.6391	0.0458	0.1865	0.1
Mof_C 	C 	0.67136	0.0815	0.2156	0.117
Mof_H 	H 	0.6698	0.0775	0.2691	-0
Mof_C 	C 	0.6338	0.04781	0.0345	-0.159
Mof_H 	H 	0.6368	0.0245	0.0486	0.074
Mof_H 	H 	0.6106	0.0533	0.0438	0.073
Mof_Mn	Mn	0.92338	0.45981	0.18411	0.998
Mof_O 	O 	0.90546	0.48697	0.25969	-0.425
Mof_O 	O 	0.00547	0.47478	0.31964	-0.378
Mof_O 	O 	0.94875	0.43366	0.11309	-0.396
Mof_N 	N 	0.96601	0.46389	0.23084	-0.25
Mof_N 	N 	0.99165	0.44863	0.1889	-0.201
Mof_C 	C 	0.91925	0.49984	0.32213	0.302
Mof_C 	C 	0.89971	0.51979	0.3681	-0.281
Mof_H 	H 	0.8779	0.5244	0.3529	0.122
Mof_C 	C 	0.9116	0.53292	0.4355	0.139
Mof_H 	H 	0.8979	0.5466	0.4656	-0.028
Mof_C 	C 	0.94311	0.52657	0.4601	-0.203
Mof_H 	H 	0.9509	0.5349	0.5075	0.103
Mof_C 	C 	0.96315	0.50766	0.4134	0.12
Mof_H 	H 	0.985	0.5036	0.4289	0.002
Mof_C 	C 	0.95189	0.49443	0.34406	-0.245
Mof_C 	C 	0.9756	0.47679	0.29661	0.292
Mof_C 	C 	0.98009	0.43406	0.12827	0.279
Mof_C 	C 	0.00237	0.41687	0.07333	-0.332
Mof_H 	H 	0.0252	0.4194	0.091	0.117
Mof_H 	H 	0.0005	0.4273	0.0224	0.124
Mof_C 	C 	0.99467	0.38068	0.0655	0.109
Mof_H 	H 	0.0086	0.3712	0.0248	-0.008
Mof_H 	H 	0.9716	0.3781	0.0498	0.002
Mof_C 	C 	0.00038	0.36186	0.1404	-0.285
Mof_H 	H 	0.9857	0.3707	0.1804	0.11
Mof_H 	H 	0.0232	0.3654	0.1574	0.109
Mof_C 	C 	0.99429	0.32496	0.1324	0.164
Mof_H 	H 	0.0088	0.316	0.0921	-0.03
Mof_H 	H 	0.9714	0.3212	0.1164	-0.027
Mof_C 	C 	0.00079	0.30681	0.2087	-0.51
Mof_H 	H 	0.0224	0.3129	0.2283	0.169
Mof_H 	H 	3.20022e-34	0.2832	0.2	0.16
Mof_H 	H 	0.984	0.3129	0.2463	0.166
Mof_Mn	Mn	0.03983	0.46215	0.24507	1.047
Mof_N 	N 	0.07384	0.45645	0.16866	-0.25
Mof_N 	N 	0.0783	0.48368	0.11937	-0.204
Mof_N 	N 	0.07382	0.48841	0.32875	-0.2
Mof_O 	O 	0.04847	0.42091	0.28429	-0.432
Mof_O 	O 	0.11494	0.43302	0.09968	-0.376
Mof_O 	O 	0.03688	0.50383	0.19315	-0.397
Mof_C 	C 	0.07226	0.39992	0.26819	0.313
Mof_C 	C 	0.07487	0.37189	0.3145	-0.281
Mof_H 	H 	0.0597	0.3685	0.3549	0.128
Mof_C 	C 	0.09926	0.34918	0.302	0.15
Mof_H 	H 	0.1006	0.3304	0.3339	-0.027
Mof_C 	C 	0.12157	0.35331	0.2442	-0.216
Mof_H 	H 	0.1386	0.3378	0.2367	0.108
Mof_C 	C 	0.11905	0.38014	0.19721	0.135
Mof_H 	H 	0.1342	0.3827	0.1565	0.003
Mof_C 	C 	0.09467	0.40384	0.20783	-0.245
Mof_C 	C 	0.09452	0.43229	0.15578	0.294
Mof_C 	C 	0.05819	0.50703	0.13822	0.285
Mof_C 	C 	0.06016	0.53968	0.0988	-0.33
Mof_H 	H 	0.038	0.5466	0.0829	0.126
Mof_H 	H 	0.0739	0.5377	0.0523	0.117
Mof_C 	C 	0.07496	0.56549	0.1528	0.109
Mof_H 	H 	0.0724	0.5873	0.1291	-0.004
Mof_H 	H 	0.0625	0.5655	0.2014	0.009
Mof_C 	C 	0.11071	0.55989	0.1703	-0.299
Mof_H 	H 	0.123	0.5595	0.1215	0.115
Mof_H 	H 	0.1132	0.5381	0.1945	0.116
Mof_C 	C 	0.12584	0.58545	0.2226	0.187
Mof_H 	H 	0.1134	0.5862	0.2712	-0.03
Mof_H 	H 	0.124	0.6072	0.198	-0.028
Mof_C 	C 	0.162	0.57848	0.2403	-0.538
Mof_H 	H 	0.1643	0.556	0.259	0.177
Mof_H 	H 	0.1697	0.5938	0.2795	0.175
Mof_H 	H 	0.175	0.5812	0.1936	0.18
Mof_C 	C 	0.10385	0.47866	0.3455	0.11
Mof_H 	H 	0.1106	0.4575	0.3294	-0.015
Mof_C 	C 	0.12575	0.49807	0.3854	-0.195
Mof_H 	H 	0.147	0.49	0.3967	0.084
Mof_C 	C 	0.1169	0.52891	0.4087	0.137
Mof_C 	C 	0.086	0.53863	0.3924	-0.193
Mof_H 	H 	0.0787	0.5596	0.4085	0.091
Mof_C 	C 	0.06517	0.51839	0.3527	0.114
Mof_H 	H 	0.0437	0.526	0.3417	-0.003
Mof_C 	C 	0.13977	0.55082	0.454	-0.147
Mof_H 	H 	0.1627	0.5447	0.4428	0.062
Mof_H 	H 	0.1365	0.5738	0.4381	0.061
Mof_Mn	Mn	0.88712	0.52999	0.97416	1.047
Mof_O 	O 	0.85133	0.50805	0.93405	-0.43
Mof_O 	O 	0.88187	0.45254	0.12779	-0.377
Mof_O 	O 	0.92463	0.54756	0.0272	-0.378
Mof_N 	N 	0.89371	0.49561	0.05004	-0.248
Mof_N 	N 	0.92151	0.50031	0.09708	-0.184
Mof_N 	N 	0.19125	0.605	0.692	-0.202
Mof_C 	C 	0.8343	0.48348	0.96427	0.306
Mof_C 	C 	0.80444	0.4758	0.92879	-0.275
Mof_H 	H 	0.7976	0.488	0.8853	0.128
Mof_C 	C 	0.78501	0.45089	0.9561	0.139
Mof_H 	H 	0.7649	0.4462	0.9312	-0.03
Mof_C 	C 	0.79425	0.43261	0.01943	-0.207
Mof_H 	H 	0.7807	0.4155	0.0382	0.104
Mof_C 	C 	0.82349	0.43988	0.05434	0.132
Mof_H 	H 	0.83	0.4274	0.0976	0.009
Mof_C 	C 	0.84408	0.46493	0.0288	-0.241
Mof_C 	C 	0.87459	0.4712	0.07019	0.293
Mof_C 	C 	0.93525	0.52808	0.08098	0.21
Mof_C 	C 	0.96372	0.53998	0.1278	-0.079
Mof_H 	H 	0.9721	0.5218	0.1597	0.046
Mof_H 	H 	0.9815	0.5471	0.0931	0.05
Mof_C 	C 	0.95365	0.56898	0.1804	-0.401
Mof_H 	H 	0.9372	0.5612	0.2177	0.134
Mof_H 	H 	0.9432	0.5861	0.1486	0.148
Mof_C 	C 	0.98197	0.5839	0.2235	0.583
Mof_H 	H 	0.9799	0.6079	0.2176	-0.134
Mof_H 	H 	0.0021	0.5774	0.1957	-0.125
Mof_C 	C 	0.987	0.579	0.2883	-0.725
Mof_H 	H 	0.9661	0.5823	0.3159	0.223
Mof_H 	H 	0.9926	0.5556	0.2936	0.239
Mof_C 	C 	0.01348	0.5988	0.3312	0.184
Mof_H 	H 	0.0187	0.6186	0.3022	-0.024
Mof_H 	H 	0.0054	0.6048	0.3821	-0.033
Mof_H 	H 	0.0332	0.5854	0.3366	-0.03
Mof_C 	C 	0.19317	0.60991	0.61681	0.109
Mof_H 	H 	0.2076	0.6264	0.5987	-0.008
Mof_C 	C 	0.17529	0.59236	0.5636	-0.189
Mof_H 	H 	0.1774	0.5969	0.5104	0.085
Mof_C 	C 	0.15437	0.56821	0.5889	0.137
Mof_C 	C 	0.15282	0.56259	0.6667	-0.2
Mof_H 	H 	0.1391	0.5458	0.6865	0.1
Mof_C 	C 	0.17136	0.5815	0.7156	0.117
Mof_H 	H 	0.1698	0.5775	0.7691	-0
Mof_C 	C 	0.1338	0.54781	0.5345	-0.159
Mof_H 	H 	0.1368	0.5245	0.5486	0.074
Mof_H 	H 	0.1106	0.5533	0.5438	0.073
Mof_Mn	Mn	0.70981	0.32662	0.43411	0.998
Mof_O 	O 	0.73697	0.34454	0.50969	-0.425
Mof_O 	O 	0.72478	0.24453	0.56964	-0.378
Mof_O 	O 	0.68366	0.30125	0.36309	-0.396
Mof_N 	N 	0.71389	0.28399	0.48084	-0.25
Mof_N 	N 	0.69863	0.25835	0.4389	-0.201
Mof_C 	C 	0.74984	0.33075	0.57213	0.302
Mof_C 	C 	0.76979	0.35029	0.6181	-0.281
Mof_H 	H 	0.7744	0.3721	0.6029	0.122
Mof_C 	C 	0.78292	0.3384	0.6855	0.139
Mof_H 	H 	0.7966	0.3521	0.7156	-0.028
Mof_C 	C 	0.77657	0.30689	0.7101	-0.203
Mof_H 	H 	0.7849	0.2991	0.7575	0.103
Mof_C 	C 	0.75766	0.28685	0.6634	0.12
Mof_H 	H 	0.7536	0.265	0.6789	0.002
Mof_C 	C 	0.74443	0.29811	0.59406	-0.245
Mof_C 	C 	0.72679	0.2744	0.54661	0.291
Mof_C 	C 	0.68406	0.26991	0.37827	0.277
Mof_C 	C 	0.66687	0.24763	0.32333	-0.327
Mof_H 	H 	0.6694	0.2248	0.341	0.115
Mof_H 	H 	0.6773	0.2495	0.2724	0.122
Mof_C 	C 	0.63068	0.25533	0.3155	0.101
Mof_H 	H 	0.6212	0.2414	0.2748	-0.006
Mof_H 	H 	0.6281	0.2784	0.2998	0.004
Mof_C 	C 	0.61186	0.24962	0.3904	-0.276
Mof_H 	H 	0.6207	0.2643	0.4304	0.107
Mof_H 	H 	0.6154	0.2268	0.4074	0.107
Mof_C 	C 	0.57496	0.25571	0.3824	0.155
Mof_H 	H 	0.566	0.2412	0.3421	-0.027
Mof_H 	H 	0.5712	0.2786	0.3664	-0.024
Mof_C 	C 	0.55681	0.24921	0.4587	-0.5
Mof_H 	H 	0.5629	0.2276	0.4783	0.166
Mof_H 	H 	0.5332	0.25	0.45	0.158
Mof_H 	H 	0.5629	0.266	0.4963	0.163
Mof_Mn	Mn	0.71215	0.21017	0.49507	1.047
Mof_N 	N 	0.70645	0.17616	0.41866	-0.25
Mof_N 	N 	0.73368	0.1717	0.36937	-0.204
Mof_N 	N 	0.73841	0.17618	0.57875	-0.2
Mof_O 	O 	0.67091	0.20153	0.53429	-0.432
Mof_O 	O 	0.68302	0.13506	0.34968	-0.376
Mof_O 	O 	0.75383	0.21312	0.44315	-0.397
Mof_C 	C 	0.64992	0.17774	0.51819	0.313
Mof_C 	C 	0.62189	0.17513	0.5645	-0.281
Mof_H 	H 	0.6185	0.1903	0.6049	0.128
Mof_C 	C 	0.59918	0.15074	0.552	0.15
Mof_H 	H 	0.5804	0.1494	0.5839	-0.027
Mof_C 	C 	0.60331	0.12843	0.4942	-0.216
Mof_H 	H 	0.5878	0.1114	0.4867	0.108
Mof_C 	C 	0.63014	0.13095	0.44721	0.135
Mof_H 	H 	0.6327	0.1158	0.4065	0.003
Mof_C 	C 	0.65384	0.15533	0.45783	-0.245
Mof_C 	C 	0.68229	0.15548	0.40578	0.294
Mof_C 	C 	0.75703	0.19181	0.38822	0.285
Mof_C 	C 	0.78968	0.18984	0.3488	-0.33
Mof_H 	H 	0.7966	0.212	0.3329	0.126
Mof_H 	H 	0.7877	0.1761	0.3023	0.117
Mof_C 	C 	0.81549	0.17504	0.4028	0.109
Mof_H 	H 	0.8373	0.1776	0.3791	-0.004
Mof_H 	H 	0.8155	0.1875	0.4514	0.009
Mof_C 	C 	0.80989	0.13929	0.4203	-0.299
Mof_H 	H 	0.8095	0.127	0.3715	0.115
Mof_H 	H 	0.7881	0.1368	0.4445	0.116
Mof_C 	C 	0.83545	0.12416	0.4726	0.187
Mof_H 	H 	0.8362	0.1366	0.5212	-0.03
Mof_H 	H 	0.8572	0.126	0.448	-0.028
Mof_C 	C 	0.82848	0.088	0.4903	-0.538
Mof_H 	H 	0.806	0.0857	0.509	0.177
Mof_H 	H 	0.8438	0.0803	0.5295	0.175
Mof_H 	H 	0.8312	0.075	0.4436	0.18
Mof_C 	C 	0.72866	0.14615	0.5955	0.11
Mof_H 	H 	0.7075	0.1394	0.5794	-0.015
Mof_C 	C 	0.74807	0.12425	0.6354	-0.195
Mof_H 	H 	0.74	0.103	0.6467	0.084
Mof_C 	C 	0.77891	0.1331	0.6587	0.137
Mof_C 	C 	0.78863	0.164	0.6424	-0.193
Mof_H 	H 	0.8096	0.1713	0.6585	0.091
Mof_C 	C 	0.76839	0.18483	0.6027	0.114
Mof_H 	H 	0.776	0.2063	0.5917	-0.003
Mof_C 	C 	0.80082	0.11023	0.704	-0.146
Mof_H 	H 	0.7947	0.0873	0.6928	0.062
Mof_H 	H 	0.8238	0.1135	0.6881	0.061
Mof_Mn	Mn	0.77999	0.36288	0.22416	1.047
Mof_O 	O 	0.75805	0.39867	0.18405	-0.43
Mof_O 	O 	0.70254	0.36813	0.37779	-0.377
Mof_O 	O 	0.79756	0.32537	0.2772	-0.378
Mof_N 	N 	0.74561	0.35629	0.30004	-0.248
Mof_N 	N 	0.75031	0.32849	0.34708	-0.184
Mof_N 	N 	0.855	0.05875	0.942	-0.202
Mof_C 	C 	0.73348	0.4157	0.21427	0.306
Mof_C 	C 	0.7258	0.44556	0.17879	-0.275
Mof_H 	H 	0.738	0.4524	0.1353	0.128
Mof_C 	C 	0.70089	0.46499	0.2061	0.139
Mof_H 	H 	0.6962	0.4851	0.1812	-0.03
Mof_C 	C 	0.68261	0.45575	0.26943	-0.206
Mof_H 	H 	0.6655	0.4693	0.2882	0.104
Mof_C 	C 	0.68988	0.42651	0.30434	0.132
Mof_H 	H 	0.6774	0.42	0.3476	0.009
Mof_C 	C 	0.71493	0.40592	0.2788	-0.241
Mof_C 	C 	0.7212	0.37541	0.32019	0.293
Mof_C 	C 	0.77808	0.31475	0.33098	0.21
Mof_C 	C 	0.78998	0.28628	0.3778	-0.079
Mof_H 	H 	0.7718	0.2779	0.4097	0.046
Mof_H 	H 	0.7971	0.2685	0.3431	0.05
Mof_C 	C 	0.81898	0.29635	0.4304	-0.402
Mof_H 	H 	0.8112	0.3128	0.4677	0.135
Mof_H 	H 	0.8361	0.3068	0.3986	0.148
Mof_C 	C 	0.8339	0.26803	0.4735	0.584
Mof_H 	H 	0.8579	0.2701	0.4676	-0.134
Mof_H 	H 	0.8274	0.2479	0.4457	-0.124
Mof_C 	C 	0.829	0.263	0.5383	-0.726
Mof_H 	H 	0.8323	0.2839	0.5659	0.223
Mof_H 	H 	0.8056	0.2574	0.5436	0.239
Mof_C 	C 	0.8488	0.23652	0.5812	0.185
Mof_H 	H 	0.8686	0.2313	0.5522	-0.025
Mof_H 	H 	0.8548	0.2446	0.6321	-0.034
Mof_H 	H 	0.8354	0.2168	0.5866	-0.03
Mof_C 	C 	0.85991	0.05683	0.86681	0.109
Mof_H 	H 	0.8764	0.0424	0.8487	-0.008
Mof_C 	C 	0.84236	0.07471	0.8136	-0.19
Mof_H 	H 	0.8469	0.0726	0.7604	0.085
Mof_C 	C 	0.81821	0.09563	0.8389	0.138
Mof_C 	C 	0.81259	0.09718	0.9167	-0.201
Mof_H 	H 	0.7958	0.1109	0.9365	0.101
Mof_C 	C 	0.8315	0.07864	0.9656	0.118
Mof_H 	H 	0.8275	0.0802	0.0191	-0.001
Mof_C 	C 	0.79781	0.1162	0.7845	-0.159
Mof_H 	H 	0.7745	0.1132	0.7986	0.074
Mof_H 	H 	0.8033	0.1394	0.7938	0.073
Mof_Mn	Mn	0.20981	0.82662	0.93411	0.998
Mof_O 	O 	0.23697	0.84454	0.00969	-0.425
Mof_O 	O 	0.22478	0.74453	0.06964	-0.377
Mof_O 	O 	0.18366	0.80125	0.86309	-0.396
Mof_N 	N 	0.21389	0.78399	0.98084	-0.251
Mof_N 	N 	0.19863	0.75835	0.9389	-0.201
Mof_C 	C 	0.24984	0.83075	0.07213	0.302
Mof_C 	C 	0.26979	0.85029	0.1181	-0.281
Mof_H 	H 	0.2744	0.8721	0.1029	0.123
Mof_C 	C 	0.28292	0.8384	0.1855	0.139
Mof_H 	H 	0.2966	0.8521	0.2156	-0.028
Mof_C 	C 	0.27657	0.80689	0.2101	-0.203
Mof_H 	H 	0.2849	0.7991	0.2575	0.103
Mof_C 	C 	0.25766	0.78685	0.1634	0.12
Mof_H 	H 	0.2536	0.765	0.1789	0.002
Mof_C 	C 	0.24443	0.79811	0.09406	-0.245
Mof_C 	C 	0.22679	0.7744	0.04661	0.292
Mof_C 	C 	0.18406	0.76991	0.87827	0.277
Mof_C 	C 	0.16687	0.74763	0.82333	-0.327
Mof_H 	H 	0.1694	0.7248	0.841	0.115
Mof_H 	H 	0.1773	0.7495	0.7724	0.122
Mof_C 	C 	0.13068	0.75533	0.8155	0.101
Mof_H 	H 	0.1212	0.7414	0.7748	-0.005
Mof_H 	H 	0.1281	0.7784	0.7998	0.004
Mof_C 	C 	0.11186	0.74962	0.8904	-0.275
Mof_H 	H 	0.1207	0.7643	0.9304	0.107
Mof_H 	H 	0.1154	0.7268	0.9074	0.107
Mof_C 	C 	0.07496	0.75571	0.8824	0.154
Mof_H 	H 	0.066	0.7412	0.8421	-0.027
Mof_H 	H 	0.0712	0.7786	0.8664	-0.024
Mof_C 	C 	0.05681	0.74921	0.9587	-0.499
Mof_H 	H 	0.0629	0.7276	0.9783	0.165
Mof_H 	H 	0.0332	0.75	0.95	0.157
Mof_H 	H 	0.0629	0.766	0.9963	0.162
Mof_Mn	Mn	0.21215	0.71017	0.99507	1.046
Mof_N 	N 	0.20645	0.67616	0.91866	-0.25
Mof_N 	N 	0.23368	0.6717	0.86937	-0.204
Mof_N 	N 	0.23841	0.67618	0.07875	-0.2
Mof_O 	O 	0.17091	0.70153	0.03429	-0.432
Mof_O 	O 	0.18302	0.63506	0.84968	-0.376
Mof_O 	O 	0.25383	0.71312	0.94315	-0.397
Mof_C 	C 	0.14992	0.67774	0.01819	0.315
Mof_C 	C 	0.12189	0.67513	0.0645	-0.283
Mof_H 	H 	0.1185	0.6903	0.1049	0.129
Mof_C 	C 	0.09918	0.65074	0.052	0.153
Mof_H 	H 	0.0804	0.6494	0.0839	-0.028
Mof_C 	C 	0.10331	0.62843	0.9942	-0.218
Mof_H 	H 	0.0878	0.6114	0.9867	0.109
Mof_C 	C 	0.13014	0.63095	0.94721	0.137
Mof_H 	H 	0.1327	0.6158	0.9065	0.003
Mof_C 	C 	0.15384	0.65533	0.95783	-0.247
Mof_C 	C 	0.18229	0.65548	0.90578	0.294
Mof_C 	C 	0.25703	0.69181	0.88822	0.285
Mof_C 	C 	0.28968	0.68984	0.8488	-0.33
Mof_H 	H 	0.2966	0.712	0.8329	0.126
Mof_H 	H 	0.2877	0.6761	0.8023	0.117
Mof_C 	C 	0.31549	0.67504	0.9028	0.109
Mof_H 	H 	0.3373	0.6776	0.8791	-0.004
Mof_H 	H 	0.3155	0.6875	0.9514	0.009
Mof_C 	C 	0.30989	0.63929	0.9203	-0.299
Mof_H 	H 	0.3095	0.627	0.8715	0.115
Mof_H 	H 	0.2881	0.6368	0.9445	0.116
Mof_C 	C 	0.33545	0.62416	0.9726	0.187
Mof_H 	H 	0.3362	0.6366	0.0212	-0.03
Mof_H 	H 	0.3572	0.626	0.948	-0.028
Mof_C 	C 	0.32848	0.588	0.9903	-0.54
Mof_H 	H 	0.306	0.5857	0.009	0.178
Mof_H 	H 	0.3438	0.5803	0.0295	0.176
Mof_H 	H 	0.3312	0.575	0.9436	0.18
Mof_C 	C 	0.22866	0.64615	0.0955	0.11
Mof_H 	H 	0.2075	0.6394	0.0794	-0.015
Mof_C 	C 	0.24807	0.62425	0.1354	-0.195
Mof_H 	H 	0.24	0.603	0.1467	0.084
Mof_C 	C 	0.27891	0.6331	0.1587	0.137
Mof_C 	C 	0.28863	0.664	0.1424	-0.193
Mof_H 	H 	0.3096	0.6713	0.1585	0.091
Mof_C 	C 	0.26839	0.68483	0.1027	0.114
Mof_H 	H 	0.276	0.7063	0.0917	-0.003
Mof_C 	C 	0.30082	0.61023	0.204	-0.147
Mof_H 	H 	0.2947	0.5873	0.1928	0.062
Mof_H 	H 	0.3238	0.6135	0.1881	0.062
Mof_Mn	Mn	0.27999	0.86288	0.72416	1.047
Mof_O 	O 	0.25805	0.89867	0.68405	-0.43
Mof_O 	O 	0.20254	0.86813	0.87779	-0.377
Mof_O 	O 	0.29756	0.82537	0.7772	-0.378
Mof_N 	N 	0.24561	0.85629	0.80004	-0.248
Mof_N 	N 	0.25031	0.82849	0.84708	-0.184
Mof_N 	N 	0.355	0.55875	0.442	-0.202
Mof_C 	C 	0.23348	0.9157	0.71427	0.306
Mof_C 	C 	0.2258	0.94556	0.67879	-0.275
Mof_H 	H 	0.238	0.9524	0.6353	0.128
Mof_C 	C 	0.20089	0.96499	0.7061	0.139
Mof_H 	H 	0.1962	0.9851	0.6812	-0.03
Mof_C 	C 	0.18261	0.95575	0.76943	-0.206
Mof_H 	H 	0.1655	0.9693	0.7882	0.104
Mof_C 	C 	0.18988	0.92651	0.80434	0.132
Mof_H 	H 	0.1774	0.92	0.8476	0.009
Mof_C 	C 	0.21493	0.90592	0.7788	-0.241
Mof_C 	C 	0.2212	0.87541	0.82019	0.293
Mof_C 	C 	0.27808	0.81475	0.83098	0.209
Mof_C 	C 	0.28998	0.78628	0.8778	-0.076
Mof_H 	H 	0.2718	0.7779	0.9097	0.045
Mof_H 	H 	0.2971	0.7685	0.8431	0.049
Mof_C 	C 	0.31898	0.79635	0.9304	-0.407
Mof_H 	H 	0.3112	0.8128	0.9677	0.136
Mof_H 	H 	0.3361	0.8068	0.8986	0.15
Mof_C 	C 	0.3339	0.76803	0.9735	0.594
Mof_H 	H 	0.3579	0.7701	0.9676	-0.137
Mof_H 	H 	0.3274	0.7479	0.9457	-0.127
Mof_C 	C 	0.329	0.763	0.0383	-0.737
Mof_H 	H 	0.3323	0.7839	0.0659	0.226
Mof_H 	H 	0.3056	0.7574	0.0436	0.242
Mof_C 	C 	0.3488	0.73652	0.0812	0.193
Mof_H 	H 	0.3686	0.7313	0.0522	-0.026
Mof_H 	H 	0.3548	0.7446	0.1321	-0.036
Mof_H 	H 	0.3354	0.7168	0.0866	-0.032
Mof_C 	C 	0.35991	0.55683	0.36681	0.109
Mof_H 	H 	0.3764	0.5424	0.3487	-0.008
Mof_C 	C 	0.34236	0.57471	0.3136	-0.189
Mof_H 	H 	0.3469	0.5726	0.2604	0.085
Mof_C 	C 	0.31821	0.59563	0.3389	0.137
Mof_C 	C 	0.31259	0.59718	0.4167	-0.2
Mof_H 	H 	0.2958	0.6109	0.4365	0.1
Mof_C 	C 	0.3315	0.57864	0.4656	0.117
Mof_H 	H 	0.3275	0.5802	0.5191	-0
Mof_C 	C 	0.29781	0.6162	0.2845	-0.159
Mof_H 	H 	0.2745	0.6132	0.2986	0.074
Mof_H 	H 	0.3033	0.6394	0.2938	0.073
Mof_Mn	Mn	0.79019	0.67338	0.93411	0.998
Mof_O 	O 	0.76303	0.65546	0.00969	-0.425
Mof_O 	O 	0.77522	0.75547	0.06964	-0.377
Mof_O 	O 	0.81634	0.69875	0.86309	-0.396
Mof_N 	N 	0.78611	0.71601	0.98084	-0.251
Mof_N 	N 	0.80137	0.74165	0.9389	-0.201
Mof_C 	C 	0.75016	0.66925	0.07213	0.302
Mof_C 	C 	0.73021	0.64971	0.1181	-0.281
Mof_H 	H 	0.7256	0.6279	0.1029	0.123
Mof_C 	C 	0.71708	0.6616	0.1855	0.139
Mof_H 	H 	0.7034	0.6479	0.2156	-0.028
Mof_C 	C 	0.72343	0.69311	0.2101	-0.203
Mof_H 	H 	0.7151	0.7009	0.2575	0.103
Mof_C 	C 	0.74234	0.71315	0.1634	0.12
Mof_H 	H 	0.7464	0.735	0.1789	0.002
Mof_C 	C 	0.75557	0.70189	0.09406	-0.245
Mof_C 	C 	0.77321	0.7256	0.04661	0.292
Mof_C 	C 	0.81594	0.73009	0.87827	0.277
Mof_C 	C 	0.83313	0.75237	0.82333	-0.327
Mof_H 	H 	0.8306	0.7752	0.841	0.115
Mof_H 	H 	0.8227	0.7505	0.7724	0.122
Mof_C 	C 	0.86932	0.74467	0.8155	0.101
Mof_H 	H 	0.8788	0.7586	0.7748	-0.005
Mof_H 	H 	0.8719	0.7216	0.7998	0.004
Mof_C 	C 	0.88814	0.75038	0.8904	-0.276
Mof_H 	H 	0.8793	0.7357	0.9304	0.107
Mof_H 	H 	0.8846	0.7732	0.9074	0.107
Mof_C 	C 	0.92504	0.74429	0.8824	0.154
Mof_H 	H 	0.934	0.7588	0.8421	-0.026
Mof_H 	H 	0.9288	0.7214	0.8664	-0.024
Mof_C 	C 	0.94319	0.75079	0.9587	-0.5
Mof_H 	H 	0.9371	0.7724	0.9783	0.166
Mof_H 	H 	0.9668	0.75	0.95	0.158
Mof_H 	H 	0.9371	0.734	0.9963	0.162
Mof_Mn	Mn	0.78785	0.78983	0.99507	1.046
Mof_N 	N 	0.79355	0.82384	0.91866	-0.25
Mof_N 	N 	0.76632	0.8283	0.86937	-0.204
Mof_N 	N 	0.76159	0.82382	0.07875	-0.2
Mof_O 	O 	0.82909	0.79847	0.03429	-0.432
Mof_O 	O 	0.81698	0.86494	0.84968	-0.376
Mof_O 	O 	0.74617	0.78688	0.94315	-0.397
Mof_C 	C 	0.85008	0.82226	0.01819	0.315
Mof_C 	C 	0.87811	0.82487	0.0645	-0.283
Mof_H 	H 	0.8815	0.8097	0.1049	0.129
Mof_C 	C 	0.90082	0.84926	0.052	0.153
Mof_H 	H 	0.9196	0.8506	0.0839	-0.028
Mof_C 	C 	0.89669	0.87157	0.9942	-0.218
Mof_H 	H 	0.9122	0.8886	0.9867	0.109
Mof_C 	C 	0.86986	0.86905	0.94721	0.137
Mof_H 	H 	0.8673	0.8842	0.9065	0.003
Mof_C 	C 	0.84616	0.84467	0.95783	-0.247
Mof_C 	C 	0.81771	0.84452	0.90578	0.294
Mof_C 	C 	0.74297	0.80819	0.88822	0.285
Mof_C 	C 	0.71032	0.81016	0.8488	-0.33
Mof_H 	H 	0.7034	0.788	0.8329	0.126
Mof_H 	H 	0.7123	0.8239	0.8023	0.117
Mof_C 	C 	0.68451	0.82496	0.9028	0.109
Mof_H 	H 	0.6627	0.8224	0.8791	-0.005
Mof_H 	H 	0.6845	0.8125	0.9514	0.009
Mof_C 	C 	0.69011	0.86071	0.9203	-0.299
Mof_H 	H 	0.6905	0.873	0.8715	0.115
Mof_H 	H 	0.7119	0.8632	0.9445	0.116
Mof_C 	C 	0.66455	0.87584	0.9726	0.187
Mof_H 	H 	0.6638	0.8634	0.0212	-0.03
Mof_H 	H 	0.6428	0.874	0.948	-0.028
Mof_C 	C 	0.67152	0.912	0.9903	-0.541
Mof_H 	H 	0.694	0.9143	0.009	0.178
Mof_H 	H 	0.6562	0.9197	0.0295	0.176
Mof_H 	H 	0.6688	0.925	0.9436	0.18
Mof_C 	C 	0.77134	0.85385	0.0955	0.11
Mof_H 	H 	0.7925	0.8606	0.0794	-0.015
Mof_C 	C 	0.75193	0.87575	0.1354	-0.195
Mof_H 	H 	0.76	0.897	0.1467	0.084
Mof_C 	C 	0.72109	0.8669	0.1587	0.137
Mof_C 	C 	0.71137	0.836	0.1424	-0.193
Mof_H 	H 	0.6904	0.8287	0.1585	0.091
Mof_C 	C 	0.73161	0.81517	0.1027	0.114
Mof_H 	H 	0.724	0.7937	0.0917	-0.003
Mof_C 	C 	0.69918	0.88977	0.204	-0.147
Mof_H 	H 	0.7053	0.9127	0.1928	0.062
Mof_H 	H 	0.6762	0.8865	0.1881	0.062
Mof_Mn	Mn	0.72001	0.63712	0.72416	1.047
Mof_O 	O 	0.74195	0.60133	0.68405	-0.43
Mof_O 	O 	0.79746	0.63187	0.87779	-0.377
Mof_O 	O 	0.70244	0.67463	0.7772	-0.378
Mof_N 	N 	0.75439	0.64371	0.80004	-0.248
Mof_N 	N 	0.74969	0.67151	0.84708	-0.184
Mof_N 	N 	0.645	0.94125	0.442	-0.202
Mof_C 	C 	0.76652	0.5843	0.71427	0.306
Mof_C 	C 	0.7742	0.55444	0.67879	-0.275
Mof_H 	H 	0.762	0.5476	0.6353	0.128
Mof_C 	C 	0.79911	0.53501	0.7061	0.139
Mof_H 	H 	0.8038	0.5149	0.6812	-0.03
Mof_C 	C 	0.81739	0.54425	0.76943	-0.206
Mof_H 	H 	0.8345	0.5307	0.7882	0.104
Mof_C 	C 	0.81012	0.57349	0.80434	0.132
Mof_H 	H 	0.8226	0.58	0.8476	0.009
Mof_C 	C 	0.78507	0.59408	0.7788	-0.241
Mof_C 	C 	0.7788	0.62459	0.82019	0.293
Mof_C 	C 	0.72192	0.68525	0.83098	0.209
Mof_C 	C 	0.71002	0.71372	0.8778	-0.076
Mof_H 	H 	0.7282	0.7221	0.9097	0.045
Mof_H 	H 	0.7029	0.7315	0.8431	0.049
Mof_C 	C 	0.68102	0.70365	0.9304	-0.407
Mof_H 	H 	0.6888	0.6872	0.9677	0.136
Mof_H 	H 	0.6639	0.6932	0.8986	0.15
Mof_C 	C 	0.6661	0.73197	0.9735	0.594
Mof_H 	H 	0.6421	0.7299	0.9676	-0.137
Mof_H 	H 	0.6726	0.7521	0.9457	-0.127
Mof_C 	C 	0.671	0.737	0.0383	-0.737
Mof_H 	H 	0.6677	0.7161	0.0659	0.226
Mof_H 	H 	0.6944	0.7426	0.0436	0.242
Mof_C 	C 	0.6512	0.76348	0.0812	0.193
Mof_H 	H 	0.6314	0.7687	0.0522	-0.026
Mof_H 	H 	0.6452	0.7554	0.1321	-0.036
Mof_H 	H 	0.6646	0.7832	0.0866	-0.032
Mof_C 	C 	0.64009	0.94317	0.36681	0.109
Mof_H 	H 	0.6236	0.9576	0.3487	-0.008
Mof_C 	C 	0.65764	0.92529	0.3136	-0.189
Mof_H 	H 	0.6531	0.9274	0.2604	0.085
Mof_C 	C 	0.68179	0.90437	0.3389	0.137
Mof_C 	C 	0.68741	0.90282	0.4167	-0.2
Mof_H 	H 	0.7042	0.8891	0.4365	0.1
Mof_C 	C 	0.6685	0.92136	0.4656	0.117
Mof_H 	H 	0.6725	0.9198	0.5191	-0
Mof_C 	C 	0.70219	0.8838	0.2845	-0.159
Mof_H 	H 	0.7255	0.8868	0.2986	0.074
Mof_H 	H 	0.6967	0.8606	0.2938	0.073
Mof_Mn	Mn	0.29019	0.17338	0.43411	0.998
Mof_O 	O 	0.26303	0.15546	0.50969	-0.425
Mof_O 	O 	0.27522	0.25547	0.56964	-0.378
Mof_O 	O 	0.31634	0.19875	0.36309	-0.396
Mof_N 	N 	0.28611	0.21601	0.48084	-0.25
Mof_N 	N 	0.30137	0.24165	0.4389	-0.201
Mof_C 	C 	0.25016	0.16925	0.57213	0.302
Mof_C 	C 	0.23021	0.14971	0.6181	-0.281
Mof_H 	H 	0.2256	0.1279	0.6029	0.122
Mof_C 	C 	0.21708	0.1616	0.6855	0.139
Mof_H 	H 	0.2034	0.1479	0.7156	-0.028
Mof_C 	C 	0.22343	0.19311	0.7101	-0.203
Mof_H 	H 	0.2151	0.2009	0.7575	0.103
Mof_C 	C 	0.24234	0.21315	0.6634	0.12
Mof_H 	H 	0.2464	0.235	0.6789	0.002
Mof_C 	C 	0.25557	0.20189	0.59406	-0.245
Mof_C 	C 	0.27321	0.2256	0.54661	0.291
Mof_C 	C 	0.31594	0.23009	0.37827	0.277
Mof_C 	C 	0.33313	0.25237	0.32333	-0.327
Mof_H 	H 	0.3306	0.2752	0.341	0.115
Mof_H 	H 	0.3227	0.2505	0.2724	0.122
Mof_C 	C 	0.36932	0.24467	0.3155	0.101
Mof_H 	H 	0.3788	0.2586	0.2748	-0.006
Mof_H 	H 	0.3719	0.2216	0.2998	0.004
Mof_C 	C 	0.38814	0.25038	0.3904	-0.276
Mof_H 	H 	0.3793	0.2357	0.4304	0.107
Mof_H 	H 	0.3846	0.2732	0.4074	0.107
Mof_C 	C 	0.42504	0.24429	0.3824	0.155
Mof_H 	H 	0.434	0.2588	0.3421	-0.027
Mof_H 	H 	0.4288	0.2214	0.3664	-0.024
Mof_C 	C 	0.44319	0.25079	0.4587	-0.5
Mof_H 	H 	0.4371	0.2724	0.4783	0.166
Mof_H 	H 	0.4668	0.25	0.45	0.158
Mof_H 	H 	0.4371	0.234	0.4963	0.163
Mof_Mn	Mn	0.28785	0.28983	0.49507	1.047
Mof_N 	N 	0.29355	0.32384	0.41866	-0.25
Mof_N 	N 	0.26632	0.3283	0.36937	-0.204
Mof_N 	N 	0.26159	0.32382	0.57875	-0.2
Mof_O 	O 	0.32909	0.29847	0.53429	-0.432
Mof_O 	O 	0.31698	0.36494	0.34968	-0.376
Mof_O 	O 	0.24617	0.28688	0.44315	-0.397
Mof_C 	C 	0.35008	0.32226	0.51819	0.313
Mof_C 	C 	0.37811	0.32487	0.5645	-0.281
Mof_H 	H 	0.3815	0.3097	0.6049	0.128
Mof_C 	C 	0.40082	0.34926	0.552	0.15
Mof_H 	H 	0.4196	0.3506	0.5839	-0.027
Mof_C 	C 	0.39669	0.37157	0.4942	-0.216
Mof_H 	H 	0.4122	0.3886	0.4867	0.108
Mof_C 	C 	0.36986	0.36905	0.44721	0.135
Mof_H 	H 	0.3673	0.3842	0.4065	0.003
Mof_C 	C 	0.34616	0.34467	0.45783	-0.245
Mof_C 	C 	0.31771	0.34452	0.40578	0.294
Mof_C 	C 	0.24297	0.30819	0.38822	0.285
Mof_C 	C 	0.21032	0.31016	0.3488	-0.33
Mof_H 	H 	0.2034	0.288	0.3329	0.126
Mof_H 	H 	0.2123	0.3239	0.3023	0.117
Mof_C 	C 	0.18451	0.32496	0.4028	0.109
Mof_H 	H 	0.1627	0.3224	0.3791	-0.004
Mof_H 	H 	0.1845	0.3125	0.4514	0.009
Mof_C 	C 	0.19011	0.36071	0.4203	-0.299
Mof_H 	H 	0.1905	0.373	0.3715	0.115
Mof_H 	H 	0.2119	0.3632	0.4445	0.116
Mof_C 	C 	0.16455	0.37584	0.4726	0.187
Mof_H 	H 	0.1638	0.3634	0.5212	-0.03
Mof_H 	H 	0.1428	0.374	0.448	-0.028
Mof_C 	C 	0.17152	0.412	0.4903	-0.538
Mof_H 	H 	0.194	0.4143	0.509	0.177
Mof_H 	H 	0.1562	0.4197	0.5295	0.175
Mof_H 	H 	0.1688	0.425	0.4436	0.18
Mof_C 	C 	0.27134	0.35385	0.5955	0.11
Mof_H 	H 	0.2925	0.3606	0.5794	-0.015
Mof_C 	C 	0.25193	0.37575	0.6354	-0.195
Mof_H 	H 	0.26	0.397	0.6467	0.084
Mof_C 	C 	0.22109	0.3669	0.6587	0.137
Mof_C 	C 	0.21137	0.336	0.6424	-0.193
Mof_H 	H 	0.1904	0.3287	0.6585	0.091
Mof_C 	C 	0.23161	0.31517	0.6027	0.114
Mof_H 	H 	0.224	0.2937	0.5917	-0.003
Mof_C 	C 	0.19918	0.38977	0.704	-0.146
Mof_H 	H 	0.2053	0.4127	0.6928	0.062
Mof_H 	H 	0.1762	0.3865	0.6881	0.061
Mof_Mn	Mn	0.22001	0.13712	0.22416	1.047
Mof_O 	O 	0.24195	0.10133	0.18405	-0.43
Mof_O 	O 	0.29746	0.13187	0.37779	-0.377
Mof_O 	O 	0.20244	0.17463	0.2772	-0.378
Mof_N 	N 	0.25439	0.14371	0.30004	-0.248
Mof_N 	N 	0.24969	0.17151	0.34708	-0.184
Mof_N 	N 	0.145	0.44125	0.942	-0.202
Mof_C 	C 	0.26652	0.0843	0.21427	0.306
Mof_C 	C 	0.2742	0.05444	0.17879	-0.275
Mof_H 	H 	0.262	0.0476	0.1353	0.128
Mof_C 	C 	0.29911	0.03501	0.2061	0.139
Mof_H 	H 	0.3038	0.0149	0.1812	-0.03
Mof_C 	C 	0.31739	0.04425	0.26943	-0.206
Mof_H 	H 	0.3345	0.0307	0.2882	0.104
Mof_C 	C 	0.31012	0.07349	0.30434	0.132
Mof_H 	H 	0.3226	0.08	0.3476	0.009
Mof_C 	C 	0.28507	0.09408	0.2788	-0.241
Mof_C 	C 	0.2788	0.12459	0.32019	0.293
Mof_C 	C 	0.22192	0.18525	0.33098	0.21
Mof_C 	C 	0.21002	0.21372	0.3778	-0.079
Mof_H 	H 	0.2282	0.2221	0.4097	0.046
Mof_H 	H 	0.2029	0.2315	0.3431	0.05
Mof_C 	C 	0.18102	0.20365	0.4304	-0.401
Mof_H 	H 	0.1888	0.1872	0.4677	0.134
Mof_H 	H 	0.1639	0.1932	0.3986	0.148
Mof_C 	C 	0.1661	0.23197	0.4735	0.584
Mof_H 	H 	0.1421	0.2299	0.4676	-0.134
Mof_H 	H 	0.1726	0.2521	0.4457	-0.124
Mof_C 	C 	0.171	0.237	0.5383	-0.726
Mof_H 	H 	0.1677	0.2161	0.5659	0.223
Mof_H 	H 	0.1944	0.2426	0.5436	0.239
Mof_C 	C 	0.1512	0.26348	0.5812	0.185
Mof_H 	H 	0.1314	0.2687	0.5522	-0.025
Mof_H 	H 	0.1452	0.2554	0.6321	-0.034
Mof_H 	H 	0.1646	0.2832	0.5866	-0.03
Mof_C 	C 	0.14009	0.44317	0.86681	0.109
Mof_H 	H 	0.1236	0.4576	0.8487	-0.008
Mof_C 	C 	0.15764	0.42529	0.8136	-0.189
Mof_H 	H 	0.1531	0.4274	0.7604	0.085
Mof_C 	C 	0.18179	0.40437	0.8389	0.138
Mof_C 	C 	0.18741	0.40282	0.9167	-0.201
Mof_H 	H 	0.2042	0.3891	0.9365	0.101
Mof_C 	C 	0.1685	0.42136	0.9656	0.118
Mof_H 	H 	0.1725	0.4198	0.0191	-0.001
Mof_C 	C 	0.20219	0.3838	0.7845	-0.159
Mof_H 	H 	0.2255	0.3868	0.7986	0.074
Mof_H 	H 	0.1967	0.3606	0.7938	0.073
Mof_Mn	Mn	0.92338	0.95981	0.81589	0.998
Mof_O 	O 	0.90546	0.98697	0.74031	-0.425
Mof_O 	O 	0.00547	0.97478	0.68036	-0.378
Mof_O 	O 	0.94875	0.93366	0.88691	-0.396
Mof_N 	N 	0.96601	0.96389	0.76916	-0.25
Mof_N 	N 	0.99165	0.94863	0.8111	-0.201
Mof_C 	C 	0.91925	0.99984	0.67787	0.302
Mof_C 	C 	0.89971	0.01979	0.6319	-0.281
Mof_H 	H 	0.8779	0.0244	0.6471	0.122
Mof_C 	C 	0.9116	0.03292	0.5645	0.139
Mof_H 	H 	0.8979	0.0466	0.5344	-0.028
Mof_C 	C 	0.94311	0.02657	0.5399	-0.203
Mof_H 	H 	0.9509	0.0349	0.4925	0.103
Mof_C 	C 	0.96315	0.00766	0.5866	0.12
Mof_H 	H 	0.985	0.0036	0.5711	0.002
Mof_C 	C 	0.95189	0.99443	0.65594	-0.245
Mof_C 	C 	0.9756	0.97679	0.70339	0.291
Mof_C 	C 	0.98009	0.93406	0.87173	0.279
Mof_C 	C 	0.00237	0.91687	0.92667	-0.332
Mof_H 	H 	0.0252	0.9194	0.909	0.117
Mof_H 	H 	0.0005	0.9273	0.9776	0.124
Mof_C 	C 	0.99467	0.88068	0.9345	0.109
Mof_H 	H 	0.0086	0.8712	0.9752	-0.008
Mof_H 	H 	0.9716	0.8781	0.9502	0.002
Mof_C 	C 	0.00038	0.86186	0.8596	-0.285
Mof_H 	H 	0.9857	0.8707	0.8196	0.11
Mof_H 	H 	0.0232	0.8654	0.8426	0.109
Mof_C 	C 	0.99429	0.82496	0.8676	0.164
Mof_H 	H 	0.0088	0.816	0.9079	-0.03
Mof_H 	H 	0.9714	0.8212	0.8836	-0.027
Mof_C 	C 	0.00079	0.80681	0.7913	-0.51
Mof_H 	H 	0.0224	0.8129	0.7717	0.168
Mof_H 	H 	-5.6331e-33	0.7832	0.8	0.16
Mof_H 	H 	0.984	0.8129	0.7537	0.166
Mof_Mn	Mn	0.03983	0.96215	0.75493	1.047
Mof_N 	N 	0.07384	0.95645	0.83134	-0.25
Mof_N 	N 	0.0783	0.98368	0.88063	-0.204
Mof_N 	N 	0.07382	0.98841	0.67125	-0.2
Mof_O 	O 	0.04847	0.92091	0.71571	-0.432
Mof_O 	O 	0.11494	0.93302	0.90032	-0.376
Mof_O 	O 	0.03688	0.00383	0.80685	-0.397
Mof_C 	C 	0.07226	0.89992	0.73181	0.313
Mof_C 	C 	0.07487	0.87189	0.6855	-0.281
Mof_H 	H 	0.0597	0.8685	0.6451	0.128
Mof_C 	C 	0.09926	0.84918	0.698	0.15
Mof_H 	H 	0.1006	0.8304	0.6661	-0.027
Mof_C 	C 	0.12157	0.85331	0.7558	-0.216
Mof_H 	H 	0.1386	0.8378	0.7633	0.108
Mof_C 	C 	0.11905	0.88014	0.80279	0.135
Mof_H 	H 	0.1342	0.8827	0.8435	0.003
Mof_C 	C 	0.09467	0.90384	0.79217	-0.245
Mof_C 	C 	0.09452	0.93229	0.84422	0.294
Mof_C 	C 	0.05819	0.00703	0.86178	0.285
Mof_C 	C 	0.06016	0.03968	0.9012	-0.33
Mof_H 	H 	0.038	0.0466	0.9171	0.126
Mof_H 	H 	0.0739	0.0377	0.9477	0.117
Mof_C 	C 	0.07496	0.06549	0.8472	0.109
Mof_H 	H 	0.0724	0.0873	0.8709	-0.004
Mof_H 	H 	0.0625	0.0655	0.7986	0.009
Mof_C 	C 	0.11071	0.05989	0.8297	-0.299
Mof_H 	H 	0.123	0.0595	0.8785	0.115
Mof_H 	H 	0.1132	0.0381	0.8055	0.116
Mof_C 	C 	0.12584	0.08545	0.7774	0.187
Mof_H 	H 	0.1134	0.0862	0.7288	-0.03
Mof_H 	H 	0.124	0.1072	0.802	-0.028
Mof_C 	C 	0.162	0.07848	0.7597	-0.539
Mof_H 	H 	0.1643	0.056	0.741	0.177
Mof_H 	H 	0.1697	0.0938	0.7205	0.175
Mof_H 	H 	0.175	0.0812	0.8064	0.18
Mof_C 	C 	0.10385	0.97866	0.6545	0.11
Mof_H 	H 	0.1106	0.9575	0.6706	-0.015
Mof_C 	C 	0.12575	0.99807	0.6146	-0.195
Mof_H 	H 	0.147	0.99	0.6033	0.084
Mof_C 	C 	0.1169	0.02891	0.5913	0.137
Mof_C 	C 	0.086	0.03863	0.6076	-0.193
Mof_H 	H 	0.0787	0.0596	0.5915	0.091
Mof_C 	C 	0.06517	0.01839	0.6473	0.114
Mof_H 	H 	0.0437	0.026	0.6583	-0.003
Mof_C 	C 	0.13977	0.05082	0.546	-0.147
Mof_H 	H 	0.1627	0.0447	0.5572	0.062
Mof_H 	H 	0.1365	0.0738	0.5619	0.061
Mof_Mn	Mn	0.88712	0.02999	0.02584	1.047
Mof_O 	O 	0.85133	0.00805	0.06595	-0.43
Mof_O 	O 	0.88187	0.95254	0.87221	-0.377
Mof_O 	O 	0.92463	0.04756	0.9728	-0.378
Mof_N 	N 	0.89371	0.99561	0.94996	-0.248
Mof_N 	N 	0.92151	0.00031	0.90292	-0.184
Mof_N 	N 	0.19125	0.105	0.308	-0.202
Mof_C 	C 	0.8343	0.98348	0.03573	0.306
Mof_C 	C 	0.80444	0.9758	0.07121	-0.276
Mof_H 	H 	0.7976	0.988	0.1147	0.128
Mof_C 	C 	0.78501	0.95089	0.0439	0.14
Mof_H 	H 	0.7649	0.9462	0.0688	-0.03
Mof_C 	C 	0.79425	0.93261	0.98057	-0.207
Mof_H 	H 	0.7807	0.9155	0.9618	0.104
Mof_C 	C 	0.82349	0.93988	0.94566	0.132
Mof_H 	H 	0.83	0.9274	0.9024	0.009
Mof_C 	C 	0.84408	0.96493	0.9712	-0.242
Mof_C 	C 	0.87459	0.9712	0.92981	0.293
Mof_C 	C 	0.93525	0.02808	0.91902	0.21
Mof_C 	C 	0.96372	0.03998	0.8722	-0.079
Mof_H 	H 	0.9721	0.0218	0.8403	0.046
Mof_H 	H 	0.9815	0.0471	0.9069	0.05
Mof_C 	C 	0.95365	0.06898	0.8196	-0.401
Mof_H 	H 	0.9372	0.0612	0.7823	0.134
Mof_H 	H 	0.9432	0.0861	0.8514	0.148
Mof_C 	C 	0.98197	0.0839	0.7765	0.583
Mof_H 	H 	0.9799	0.1079	0.7824	-0.134
Mof_H 	H 	0.0021	0.0774	0.8043	-0.125
Mof_C 	C 	0.987	0.079	0.7117	-0.725
Mof_H 	H 	0.9661	0.0823	0.6841	0.223
Mof_H 	H 	0.9926	0.0556	0.7064	0.239
Mof_C 	C 	0.01348	0.0988	0.6688	0.184
Mof_H 	H 	0.0187	0.1186	0.6978	-0.024
Mof_H 	H 	0.0054	0.1048	0.6179	-0.033
Mof_H 	H 	0.0332	0.0854	0.6634	-0.03
Mof_C 	C 	0.19317	0.10991	0.38319	0.109
Mof_H 	H 	0.2076	0.1264	0.4013	-0.008
Mof_C 	C 	0.17529	0.09236	0.4364	-0.189
Mof_H 	H 	0.1774	0.0969	0.4896	0.085
Mof_C 	C 	0.15437	0.06821	0.4111	0.137
Mof_C 	C 	0.15282	0.06259	0.3333	-0.2
Mof_H 	H 	0.1391	0.0458	0.3135	0.1
Mof_C 	C 	0.17136	0.0815	0.2844	0.117
Mof_H 	H 	0.1698	0.0775	0.2309	-0
Mof_C 	C 	0.1338	0.04781	0.4655	-0.159
Mof_H 	H 	0.1368	0.0245	0.4514	0.074
Mof_H 	H 	0.1106	0.0533	0.4562	0.073
Mof_Mn	Mn	0.42338	0.45981	0.31589	0.998
Mof_O 	O 	0.40546	0.48697	0.24031	-0.425
Mof_O 	O 	0.50547	0.47478	0.18036	-0.378
Mof_O 	O 	0.44875	0.43366	0.38691	-0.396
Mof_N 	N 	0.46601	0.46389	0.26916	-0.25
Mof_N 	N 	0.49165	0.44863	0.3111	-0.201
Mof_C 	C 	0.41925	0.49984	0.17787	0.302
Mof_C 	C 	0.39971	0.51979	0.1319	-0.281
Mof_H 	H 	0.3779	0.5244	0.1471	0.122
Mof_C 	C 	0.4116	0.53292	0.0645	0.139
Mof_H 	H 	0.3979	0.5466	0.0344	-0.027
Mof_C 	C 	0.44311	0.52657	0.0399	-0.202
Mof_H 	H 	0.4509	0.5349	0.9925	0.102
Mof_C 	C 	0.46315	0.50766	0.0866	0.12
Mof_H 	H 	0.485	0.5036	0.0711	0.002
Mof_C 	C 	0.45189	0.49443	0.15594	-0.245
Mof_C 	C 	0.4756	0.47679	0.20339	0.291
Mof_C 	C 	0.48009	0.43406	0.37173	0.277
Mof_C 	C 	0.50237	0.41687	0.42667	-0.327
Mof_H 	H 	0.5252	0.4194	0.409	0.115
Mof_H 	H 	0.5005	0.4273	0.4776	0.122
Mof_C 	C 	0.49467	0.38068	0.4345	0.101
Mof_H 	H 	0.5086	0.3712	0.4752	-0.006
Mof_H 	H 	0.4716	0.3781	0.4502	0.004
Mof_C 	C 	0.50038	0.36186	0.3596	-0.276
Mof_H 	H 	0.4857	0.3707	0.3196	0.107
Mof_H 	H 	0.5232	0.3654	0.3426	0.107
Mof_C 	C 	0.49429	0.32496	0.3676	0.155
Mof_H 	H 	0.5088	0.316	0.4079	-0.027
Mof_H 	H 	0.4714	0.3212	0.3836	-0.024
Mof_C 	C 	0.50079	0.30681	0.2913	-0.5
Mof_H 	H 	0.5224	0.3129	0.2717	0.166
Mof_H 	H 	0.5	0.2832	0.3	0.158
Mof_H 	H 	0.484	0.3129	0.2537	0.163
Mof_Mn	Mn	0.53983	0.46215	0.25493	1.047
Mof_N 	N 	0.57384	0.45645	0.33134	-0.25
Mof_N 	N 	0.5783	0.48368	0.38063	-0.204
Mof_N 	N 	0.57382	0.48841	0.17125	-0.2
Mof_O 	O 	0.54847	0.42091	0.21571	-0.432
Mof_O 	O 	0.61494	0.43302	0.40032	-0.376
Mof_O 	O 	0.53688	0.50383	0.30685	-0.397
Mof_C 	C 	0.57226	0.39992	0.23181	0.313
Mof_C 	C 	0.57487	0.37189	0.1855	-0.281
Mof_H 	H 	0.5597	0.3685	0.1451	0.128
Mof_C 	C 	0.59926	0.34918	0.198	0.15
Mof_H 	H 	0.6006	0.3304	0.1661	-0.027
Mof_C 	C 	0.62157	0.35331	0.2558	-0.216
Mof_H 	H 	0.6386	0.3378	0.2633	0.108
Mof_C 	C 	0.61905	0.38014	0.30279	0.135
Mof_H 	H 	0.6342	0.3827	0.3435	0.003
Mof_C 	C 	0.59467	0.40384	0.29217	-0.245
Mof_C 	C 	0.59452	0.43229	0.34422	0.294
Mof_C 	C 	0.55819	0.50703	0.36178	0.285
Mof_C 	C 	0.56016	0.53968	0.4012	-0.33
Mof_H 	H 	0.538	0.5466	0.4171	0.126
Mof_H 	H 	0.5739	0.5377	0.4477	0.117
Mof_C 	C 	0.57496	0.56549	0.3472	0.109
Mof_H 	H 	0.5724	0.5873	0.3709	-0.004
Mof_H 	H 	0.5625	0.5655	0.2986	0.009
Mof_C 	C 	0.61071	0.55989	0.3297	-0.299
Mof_H 	H 	0.623	0.5595	0.3785	0.115
Mof_H 	H 	0.6132	0.5381	0.3055	0.116
Mof_C 	C 	0.62584	0.58545	0.2774	0.187
Mof_H 	H 	0.6134	0.5862	0.2288	-0.03
Mof_H 	H 	0.624	0.6072	0.302	-0.028
Mof_C 	C 	0.662	0.57848	0.2597	-0.538
Mof_H 	H 	0.6643	0.556	0.241	0.177
Mof_H 	H 	0.6697	0.5938	0.2205	0.175
Mof_H 	H 	0.675	0.5812	0.3064	0.18
Mof_C 	C 	0.60385	0.47866	0.1545	0.11
Mof_H 	H 	0.6106	0.4575	0.1706	-0.015
Mof_C 	C 	0.62575	0.49807	0.1146	-0.195
Mof_H 	H 	0.647	0.49	0.1033	0.084
Mof_C 	C 	0.6169	0.52891	0.0913	0.137
Mof_C 	C 	0.586	0.53863	0.1076	-0.193
Mof_H 	H 	0.5787	0.5596	0.0915	0.091
Mof_C 	C 	0.56517	0.51839	0.1473	0.114
Mof_H 	H 	0.5437	0.526	0.1583	-0.003
Mof_C 	C 	0.63977	0.55082	0.046	-0.146
Mof_H 	H 	0.6627	0.5447	0.0572	0.062
Mof_H 	H 	0.6365	0.5738	0.0619	0.061
Mof_Mn	Mn	0.38712	0.52999	0.52584	1.047
Mof_O 	O 	0.35133	0.50805	0.56595	-0.43
Mof_O 	O 	0.38187	0.45254	0.37221	-0.377
Mof_O 	O 	0.42463	0.54756	0.4728	-0.378
Mof_N 	N 	0.39371	0.49561	0.44996	-0.248
Mof_N 	N 	0.42151	0.50031	0.40292	-0.184
Mof_N 	N 	0.69125	0.605	0.808	-0.202
Mof_C 	C 	0.3343	0.48348	0.53573	0.306
Mof_C 	C 	0.30444	0.4758	0.57121	-0.275
Mof_H 	H 	0.2976	0.488	0.6147	0.128
Mof_C 	C 	0.28501	0.45089	0.5439	0.139
Mof_H 	H 	0.2649	0.4462	0.5688	-0.03
Mof_C 	C 	0.29425	0.43261	0.48057	-0.206
Mof_H 	H 	0.2807	0.4155	0.4618	0.104
Mof_C 	C 	0.32349	0.43988	0.44566	0.132
Mof_H 	H 	0.33	0.4274	0.4024	0.009
Mof_C 	C 	0.34408	0.46493	0.4712	-0.241
Mof_C 	C 	0.37459	0.4712	0.42981	0.293
Mof_C 	C 	0.43525	0.52808	0.41902	0.21
Mof_C 	C 	0.46372	0.53998	0.3722	-0.078
Mof_H 	H 	0.4721	0.5218	0.3403	0.046
Mof_H 	H 	0.4815	0.5471	0.4069	0.05
Mof_C 	C 	0.45365	0.56898	0.3196	-0.402
Mof_H 	H 	0.4372	0.5612	0.2823	0.135
Mof_H 	H 	0.4432	0.5861	0.3514	0.148
Mof_C 	C 	0.48197	0.5839	0.2765	0.584
Mof_H 	H 	0.4799	0.6079	0.2824	-0.134
Mof_H 	H 	0.5021	0.5774	0.3043	-0.124
Mof_C 	C 	0.487	0.579	0.2117	-0.726
Mof_H 	H 	0.4661	0.5823	0.1841	0.223
Mof_H 	H 	0.4926	0.5556	0.2064	0.239
Mof_C 	C 	0.51348	0.5988	0.1688	0.185
Mof_H 	H 	0.5187	0.6186	0.1978	-0.025
Mof_H 	H 	0.5054	0.6048	0.1179	-0.033
Mof_H 	H 	0.5332	0.5854	0.1634	-0.03
Mof_C 	C 	0.69317	0.60991	0.88319	0.109
Mof_H 	H 	0.7076	0.6264	0.9013	-0.008
Mof_C 	C 	0.67529	0.59236	0.9364	-0.189
Mof_H 	H 	0.6774	0.5969	0.9896	0.085
Mof_C 	C 	0.65437	0.56821	0.9111	0.137
Mof_C 	C 	0.65282	0.56259	0.8333	-0.2
Mof_H 	H 	0.6391	0.5458	0.8135	0.1
Mof_C 	C 	0.67136	0.5815	0.7844	0.117
Mof_H 	H 	0.6698	0.5775	0.7309	-0
Mof_C 	C 	0.6338	0.54781	0.9655	-0.159
Mof_H 	H 	0.6368	0.5245	0.9514	0.074
Mof_H 	H 	0.6106	0.5533	0.9562	0.073
Mof_Mn	Mn	0.57662	0.04019	0.31589	0.998
Mof_O 	O 	0.59454	0.01303	0.24031	-0.425
Mof_O 	O 	0.49453	0.02522	0.18036	-0.378
Mof_O 	O 	0.55125	0.06634	0.38691	-0.396
Mof_N 	N 	0.53399	0.03611	0.26916	-0.25
Mof_N 	N 	0.50835	0.05137	0.3111	-0.201
Mof_C 	C 	0.58075	0.00016	0.17787	0.302
Mof_C 	C 	0.60029	0.98021	0.1319	-0.281
Mof_H 	H 	0.6221	0.9756	0.1471	0.122
Mof_C 	C 	0.5884	0.96708	0.0645	0.138
Mof_H 	H 	0.6021	0.9534	0.0344	-0.027
Mof_C 	C 	0.55689	0.97343	0.0399	-0.202
Mof_H 	H 	0.5491	0.9651	0.9925	0.102
Mof_C 	C 	0.53685	0.99234	0.0866	0.119
Mof_H 	H 	0.515	0.9964	0.0711	0.002
Mof_C 	C 	0.54811	0.00557	0.15594	-0.245
Mof_C 	C 	0.5244	0.02321	0.20339	0.291
Mof_C 	C 	0.51991	0.06594	0.37173	0.277
Mof_C 	C 	0.49763	0.08313	0.42667	-0.327
Mof_H 	H 	0.4748	0.0806	0.409	0.115
Mof_H 	H 	0.4995	0.0727	0.4776	0.122
Mof_C 	C 	0.50533	0.11932	0.4345	0.101
Mof_H 	H 	0.4914	0.1288	0.4752	-0.006
Mof_H 	H 	0.5284	0.1219	0.4502	0.004
Mof_C 	C 	0.49962	0.13814	0.3596	-0.276
Mof_H 	H 	0.5143	0.1293	0.3196	0.107
Mof_H 	H 	0.4768	0.1346	0.3426	0.107
Mof_C 	C 	0.50571	0.17504	0.3676	0.155
Mof_H 	H 	0.4912	0.184	0.4079	-0.027
Mof_H 	H 	0.5286	0.1788	0.3836	-0.024
Mof_C 	C 	0.49921	0.19319	0.2913	-0.5
Mof_H 	H 	0.4776	0.1871	0.2717	0.166
Mof_H 	H 	0.5	0.2168	0.3	0.158
Mof_H 	H 	0.516	0.1871	0.2537	0.163
Mof_Mn	Mn	0.46017	0.03785	0.25493	1.047
Mof_N 	N 	0.42616	0.04355	0.33134	-0.25
Mof_N 	N 	0.4217	0.01632	0.38063	-0.204
Mof_N 	N 	0.42618	0.01159	0.17125	-0.2
Mof_O 	O 	0.45153	0.07909	0.21571	-0.432
Mof_O 	O 	0.38506	0.06698	0.40032	-0.376
Mof_O 	O 	0.46312	0.99617	0.30685	-0.397
Mof_C 	C 	0.42774	0.10008	0.23181	0.313
Mof_C 	C 	0.42513	0.12811	0.1855	-0.281
Mof_H 	H 	0.4403	0.1315	0.1451	0.128
Mof_C 	C 	0.40074	0.15082	0.198	0.15
Mof_H 	H 	0.3994	0.1696	0.1661	-0.027
Mof_C 	C 	0.37843	0.14669	0.2558	-0.216
Mof_H 	H 	0.3614	0.1622	0.2633	0.108
Mof_C 	C 	0.38095	0.11986	0.30279	0.135
Mof_H 	H 	0.3658	0.1173	0.3435	0.003
Mof_C 	C 	0.40533	0.09616	0.29217	-0.245
Mof_C 	C 	0.40548	0.06771	0.34422	0.294
Mof_C 	C 	0.44181	0.99297	0.36178	0.285
Mof_C 	C 	0.43984	0.96032	0.4012	-0.33
Mof_H 	H 	0.462	0.9534	0.4171	0.126
Mof_H 	H 	0.4261	0.9623	0.4477	0.117
Mof_C 	C 	0.42504	0.93451	0.3472	0.109
Mof_H 	H 	0.4276	0.9127	0.3709	-0.004
Mof_H 	H 	0.4375	0.9345	0.2986	0.009
Mof_C 	C 	0.38929	0.94011	0.3297	-0.299
Mof_H 	H 	0.377	0.9405	0.3785	0.115
Mof_H 	H 	0.3868	0.9619	0.3055	0.116
Mof_C 	C 	0.37416	0.91455	0.2774	0.187
Mof_H 	H 	0.3866	0.9138	0.2288	-0.03
Mof_H 	H 	0.376	0.8928	0.302	-0.028
Mof_C 	C 	0.338	0.92152	0.2597	-0.538
Mof_H 	H 	0.3357	0.944	0.241	0.177
Mof_H 	H 	0.3303	0.9062	0.2205	0.175
Mof_H 	H 	0.325	0.9188	0.3064	0.18
Mof_C 	C 	0.39615	0.02134	0.1545	0.11
Mof_H 	H 	0.3894	0.0425	0.1706	-0.015
Mof_C 	C 	0.37425	0.00193	0.1146	-0.195
Mof_H 	H 	0.353	0.01	0.1033	0.084
Mof_C 	C 	0.3831	0.97109	0.0913	0.137
Mof_C 	C 	0.414	0.96137	0.1076	-0.193
Mof_H 	H 	0.4213	0.9404	0.0915	0.091
Mof_C 	C 	0.43483	0.98161	0.1473	0.114
Mof_H 	H 	0.4563	0.974	0.1583	-0.003
Mof_C 	C 	0.36023	0.94918	0.046	-0.146
Mof_H 	H 	0.3373	0.9553	0.0572	0.062
Mof_H 	H 	0.3635	0.9262	0.0619	0.061
Mof_Mn	Mn	0.61288	0.97001	0.52584	1.047
Mof_O 	O 	0.64867	0.99195	0.56595	-0.43
Mof_O 	O 	0.61813	0.04746	0.37221	-0.377
Mof_O 	O 	0.57537	0.95244	0.4728	-0.378
Mof_N 	N 	0.60629	0.00439	0.44996	-0.248
Mof_N 	N 	0.57849	0.99969	0.40292	-0.184
Mof_N 	N 	0.30875	0.895	0.808	-0.202
Mof_C 	C 	0.6657	0.01652	0.53573	0.306
Mof_C 	C 	0.69556	0.0242	0.57121	-0.275
Mof_H 	H 	0.7024	0.012	0.6147	0.128
Mof_C 	C 	0.71499	0.04911	0.5439	0.139
Mof_H 	H 	0.7351	0.0538	0.5688	-0.03
Mof_C 	C 	0.70575	0.06739	0.48057	-0.206
Mof_H 	H 	0.7193	0.0845	0.4618	0.104
Mof_C 	C 	0.67651	0.06012	0.44566	0.132
Mof_H 	H 	0.67	0.0726	0.4024	0.009
Mof_C 	C 	0.65592	0.03507	0.4712	-0.241
Mof_C 	C 	0.62541	0.0288	0.42981	0.293
Mof_C 	C 	0.56475	0.97192	0.41902	0.21
Mof_C 	C 	0.53628	0.96002	0.3722	-0.078
Mof_H 	H 	0.5279	0.9782	0.3403	0.046
Mof_H 	H 	0.5185	0.9529	0.4069	0.05
Mof_C 	C 	0.54635	0.93102	0.3196	-0.402
Mof_H 	H 	0.5628	0.9388	0.2823	0.135
Mof_H 	H 	0.5568	0.9139	0.3514	0.148
Mof_C 	C 	0.51803	0.9161	0.2765	0.584
Mof_H 	H 	0.5201	0.8921	0.2824	-0.134
Mof_H 	H 	0.4979	0.9226	0.3043	-0.124
Mof_C 	C 	0.513	0.921	0.2117	-0.726
Mof_H 	H 	0.5339	0.9177	0.1841	0.223
Mof_H 	H 	0.5074	0.9444	0.2064	0.239
Mof_C 	C 	0.48652	0.9012	0.1688	0.185
Mof_H 	H 	0.4813	0.8814	0.1978	-0.025
Mof_H 	H 	0.4946	0.8952	0.1179	-0.033
Mof_H 	H 	0.4668	0.9146	0.1634	-0.03
Mof_C 	C 	0.30683	0.89009	0.88319	0.109
Mof_H 	H 	0.2924	0.8736	0.9013	-0.008
Mof_C 	C 	0.32471	0.90764	0.9364	-0.189
Mof_H 	H 	0.3226	0.9031	0.9896	0.085
Mof_C 	C 	0.34563	0.93179	0.9111	0.137
Mof_C 	C 	0.34718	0.93741	0.8333	-0.2
Mof_H 	H 	0.3609	0.9542	0.8135	0.1
Mof_C 	C 	0.32864	0.9185	0.7844	0.117
Mof_H 	H 	0.3302	0.9225	0.7309	-0
Mof_C 	C 	0.3662	0.95219	0.9655	-0.159
Mof_H 	H 	0.3632	0.9755	0.9514	0.074
Mof_H 	H 	0.3894	0.9467	0.9562	0.073
Mof_Mn	Mn	0.07662	0.54019	0.81589	0.998
Mof_O 	O 	0.09454	0.51303	0.74031	-0.425
Mof_O 	O 	0.99453	0.52522	0.68036	-0.377
Mof_O 	O 	0.05125	0.56634	0.88691	-0.395
Mof_N 	N 	0.03399	0.53611	0.76916	-0.25
Mof_N 	N 	0.00835	0.55137	0.8111	-0.201
Mof_C 	C 	0.08075	0.50016	0.67787	0.302
Mof_C 	C 	0.10029	0.48021	0.6319	-0.281
Mof_H 	H 	0.1221	0.4756	0.6471	0.122
Mof_C 	C 	0.0884	0.46708	0.5645	0.139
Mof_H 	H 	0.1021	0.4534	0.5344	-0.028
Mof_C 	C 	0.05689	0.47343	0.5399	-0.203
Mof_H 	H 	0.0491	0.4651	0.4925	0.103
Mof_C 	C 	0.03685	0.49234	0.5866	0.12
Mof_H 	H 	0.015	0.4964	0.5711	0.002
Mof_C 	C 	0.04811	0.50557	0.65594	-0.245
Mof_C 	C 	0.0244	0.52321	0.70339	0.29
Mof_C 	C 	0.01991	0.56594	0.87173	0.275
Mof_C 	C 	0.99763	0.58313	0.92667	-0.322
Mof_H 	H 	0.9748	0.5806	0.909	0.114
Mof_H 	H 	0.9995	0.5727	0.9776	0.121
Mof_C 	C 	0.00533	0.61932	0.9345	0.093
Mof_H 	H 	0.9914	0.6288	0.9752	-0.003
Mof_H 	H 	0.0284	0.6219	0.9502	0.006
Mof_C 	C 	0.99962	0.63814	0.8596	-0.266
Mof_H 	H 	0.0143	0.6293	0.8196	0.104
Mof_H 	H 	0.9768	0.6346	0.8426	0.104
Mof_C 	C 	0.00571	0.67504	0.8676	0.144
Mof_H 	H 	0.9912	0.684	0.9079	-0.023
Mof_H 	H 	0.0286	0.6788	0.8836	-0.021
Mof_C 	C 	0.99921	0.69319	0.7913	-0.488
Mof_H 	H 	0.9776	0.6871	0.7717	0.163
Mof_H 	H 	1.28009e-33	0.7168	0.8	0.154
Mof_H 	H 	0.016	0.6871	0.7537	0.159
Mof_Mn	Mn	0.96017	0.53785	0.75493	1.047
Mof_N 	N 	0.92616	0.54355	0.83134	-0.25
Mof_N 	N 	0.9217	0.51632	0.88063	-0.204
Mof_N 	N 	0.92618	0.51159	0.67125	-0.2
Mof_O 	O 	0.95153	0.57909	0.71571	-0.432
Mof_O 	O 	0.88506	0.56698	0.90032	-0.376
Mof_O 	O 	0.96312	0.49617	0.80685	-0.397
Mof_C 	C 	0.92774	0.60008	0.73181	0.313
Mof_C 	C 	0.92513	0.62811	0.6855	-0.281
Mof_H 	H 	0.9403	0.6315	0.6451	0.129
Mof_C 	C 	0.90074	0.65082	0.698	0.15
Mof_H 	H 	0.8994	0.6696	0.6661	-0.027
Mof_C 	C 	0.87843	0.64669	0.7558	-0.216
Mof_H 	H 	0.8614	0.6622	0.7633	0.108
Mof_C 	C 	0.88095	0.61986	0.80279	0.135
Mof_H 	H 	0.8658	0.6173	0.8435	0.003
Mof_C 	C 	0.90533	0.59616	0.79217	-0.245
Mof_C 	C 	0.90548	0.56771	0.84422	0.294
Mof_C 	C 	0.94181	0.49297	0.86178	0.285
Mof_C 	C 	0.93984	0.46032	0.9012	-0.33
Mof_H 	H 	0.962	0.4534	0.9171	0.126
Mof_H 	H 	0.9261	0.4623	0.9477	0.117
Mof_C 	C 	0.92504	0.43451	0.8472	0.109
Mof_H 	H 	0.9276	0.4127	0.8709	-0.004
Mof_H 	H 	0.9375	0.4345	0.7986	0.009
Mof_C 	C 	0.88929	0.44011	0.8297	-0.299
Mof_H 	H 	0.877	0.4405	0.8785	0.115
Mof_H 	H 	0.8868	0.4619	0.8055	0.116
Mof_C 	C 	0.87416	0.41455	0.7774	0.187
Mof_H 	H 	0.8866	0.4138	0.7288	-0.03
Mof_H 	H 	0.876	0.3928	0.802	-0.028
Mof_C 	C 	0.838	0.42152	0.7597	-0.538
Mof_H 	H 	0.8357	0.444	0.741	0.177
Mof_H 	H 	0.8303	0.4062	0.7205	0.175
Mof_H 	H 	0.825	0.4188	0.8064	0.18
Mof_C 	C 	0.89615	0.52134	0.6545	0.11
Mof_H 	H 	0.8894	0.5425	0.6706	-0.015
Mof_C 	C 	0.87425	0.50193	0.6146	-0.195
Mof_H 	H 	0.853	0.51	0.6033	0.084
Mof_C 	C 	0.8831	0.47109	0.5913	0.137
Mof_C 	C 	0.914	0.46137	0.6076	-0.193
Mof_H 	H 	0.9213	0.4404	0.5915	0.091
Mof_C 	C 	0.93483	0.48161	0.6473	0.114
Mof_H 	H 	0.9563	0.474	0.6583	-0.003
Mof_C 	C 	0.86023	0.44918	0.546	-0.147
Mof_H 	H 	0.8373	0.4553	0.5572	0.062
Mof_H 	H 	0.8635	0.4262	0.5619	0.061
Mof_Mn	Mn	0.11288	0.47001	0.02584	1.047
Mof_O 	O 	0.14867	0.49195	0.06595	-0.43
Mof_O 	O 	0.11813	0.54746	0.87221	-0.377
Mof_O 	O 	0.07537	0.45244	0.9728	-0.378
Mof_N 	N 	0.10629	0.50439	0.94996	-0.248
Mof_N 	N 	0.07849	0.49969	0.90292	-0.184
Mof_N 	N 	0.80875	0.395	0.308	-0.202
Mof_C 	C 	0.1657	0.51652	0.03573	0.306
Mof_C 	C 	0.19556	0.5242	0.07121	-0.275
Mof_H 	H 	0.2024	0.512	0.1147	0.128
Mof_C 	C 	0.21499	0.54911	0.0439	0.139
Mof_H 	H 	0.2351	0.5538	0.0688	-0.03
Mof_C 	C 	0.20575	0.56739	0.98057	-0.207
Mof_H 	H 	0.2193	0.5845	0.9618	0.104
Mof_C 	C 	0.17651	0.56012	0.94566	0.132
Mof_H 	H 	0.17	0.5726	0.9024	0.009
Mof_C 	C 	0.15592	0.53507	0.9712	-0.241
Mof_C 	C 	0.12541	0.5288	0.92981	0.293
Mof_C 	C 	0.06475	0.47192	0.91902	0.209
Mof_C 	C 	0.03628	0.46002	0.8722	-0.078
Mof_H 	H 	0.0279	0.4782	0.8403	0.046
Mof_H 	H 	0.0185	0.4529	0.9069	0.049
Mof_C 	C 	0.04635	0.43102	0.8196	-0.402
Mof_H 	H 	0.0628	0.4388	0.7823	0.135
Mof_H 	H 	0.0568	0.4139	0.8514	0.148
Mof_C 	C 	0.01803	0.4161	0.7765	0.584
Mof_H 	H 	0.0201	0.3921	0.7824	-0.134
Mof_H 	H 	0.9979	0.4226	0.8043	-0.124
Mof_C 	C 	0.013	0.421	0.7117	-0.728
Mof_H 	H 	0.0339	0.4177	0.6841	0.224
Mof_H 	H 	0.0074	0.4444	0.7064	0.239
Mof_C 	C 	0.98652	0.4012	0.6688	0.187
Mof_H 	H 	0.9813	0.3814	0.6978	-0.025
Mof_H 	H 	0.9946	0.3952	0.6179	-0.034
Mof_H 	H 	0.9668	0.4146	0.6634	-0.03
Mof_C 	C 	0.80683	0.39009	0.38319	0.109
Mof_H 	H 	0.7924	0.3736	0.4013	-0.008
Mof_C 	C 	0.82471	0.40764	0.4364	-0.189
Mof_H 	H 	0.8226	0.4031	0.4896	0.085
Mof_C 	C 	0.84563	0.43179	0.4111	0.137
Mof_C 	C 	0.84718	0.43741	0.3333	-0.2
Mof_H 	H 	0.8609	0.4542	0.3135	0.1
Mof_C 	C 	0.82864	0.4185	0.2844	0.117
Mof_H 	H 	0.8302	0.4225	0.2309	-0
Mof_C 	C 	0.8662	0.45219	0.4655	-0.159
Mof_H 	H 	0.8632	0.4755	0.4514	0.074
Mof_H 	H 	0.8894	0.4467	0.4562	0.073
Mof_Mn	Mn	0.29019	0.67338	0.56589	0.998
Mof_O 	O 	0.26303	0.65546	0.49031	-0.425
Mof_O 	O 	0.27522	0.75547	0.43036	-0.378
Mof_O 	O 	0.31634	0.69875	0.63691	-0.396
Mof_N 	N 	0.28611	0.71601	0.51916	-0.25
Mof_N 	N 	0.30137	0.74165	0.5611	-0.201
Mof_C 	C 	0.25016	0.66925	0.42787	0.302
Mof_C 	C 	0.23021	0.64971	0.3819	-0.281
Mof_H 	H 	0.2256	0.6279	0.3971	0.122
Mof_C 	C 	0.21708	0.6616	0.3145	0.139
Mof_H 	H 	0.2034	0.6479	0.2844	-0.028
Mof_C 	C 	0.22343	0.69311	0.2899	-0.203
Mof_H 	H 	0.2151	0.7009	0.2425	0.103
Mof_C 	C 	0.24234	0.71315	0.3366	0.12
Mof_H 	H 	0.2464	0.735	0.3211	0.002
Mof_C 	C 	0.25557	0.70189	0.40594	-0.245
Mof_C 	C 	0.27321	0.7256	0.45339	0.291
Mof_C 	C 	0.31594	0.73009	0.62173	0.277
Mof_C 	C 	0.33313	0.75237	0.67667	-0.327
Mof_H 	H 	0.3306	0.7752	0.659	0.115
Mof_H 	H 	0.3227	0.7505	0.7276	0.122
Mof_C 	C 	0.36932	0.74467	0.6845	0.101
Mof_H 	H 	0.3788	0.7586	0.7252	-0.006
Mof_H 	H 	0.3719	0.7216	0.7002	0.004
Mof_C 	C 	0.38814	0.75038	0.6096	-0.276
Mof_H 	H 	0.3793	0.7357	0.5696	0.107
Mof_H 	H 	0.3846	0.7732	0.5926	0.107
Mof_C 	C 	0.42504	0.74429	0.6176	0.155
Mof_H 	H 	0.434	0.7588	0.6579	-0.027
Mof_H 	H 	0.4288	0.7214	0.6336	-0.024
Mof_C 	C 	0.44319	0.75079	0.5413	-0.5
Mof_H 	H 	0.4371	0.7724	0.5217	0.166
Mof_H 	H 	0.4668	0.75	0.55	0.158
Mof_H 	H 	0.4371	0.734	0.5037	0.163
Mof_Mn	Mn	0.28785	0.78983	0.50493	1.047
Mof_N 	N 	0.29355	0.82384	0.58134	-0.25
Mof_N 	N 	0.26632	0.8283	0.63063	-0.204
Mof_N 	N 	0.26159	0.82382	0.42125	-0.2
Mof_O 	O 	0.32909	0.79847	0.46571	-0.432
Mof_O 	O 	0.31698	0.86494	0.65032	-0.376
Mof_O 	O 	0.24617	0.78688	0.55685	-0.397
Mof_C 	C 	0.35008	0.82226	0.48181	0.313
Mof_C 	C 	0.37811	0.82487	0.4355	-0.281
Mof_H 	H 	0.3815	0.8097	0.3951	0.128
Mof_C 	C 	0.40082	0.84926	0.448	0.15
Mof_H 	H 	0.4196	0.8506	0.4161	-0.027
Mof_C 	C 	0.39669	0.87157	0.5058	-0.216
Mof_H 	H 	0.4122	0.8886	0.5133	0.108
Mof_C 	C 	0.36986	0.86905	0.55279	0.135
Mof_H 	H 	0.3673	0.8842	0.5935	0.003
Mof_C 	C 	0.34616	0.84467	0.54217	-0.245
Mof_C 	C 	0.31771	0.84452	0.59422	0.294
Mof_C 	C 	0.24297	0.80819	0.61178	0.285
Mof_C 	C 	0.21032	0.81016	0.6512	-0.33
Mof_H 	H 	0.2034	0.788	0.6671	0.126
Mof_H 	H 	0.2123	0.8239	0.6977	0.117
Mof_C 	C 	0.18451	0.82496	0.5972	0.109
Mof_H 	H 	0.1627	0.8224	0.6209	-0.004
Mof_H 	H 	0.1845	0.8125	0.5486	0.009
Mof_C 	C 	0.19011	0.86071	0.5797	-0.299
Mof_H 	H 	0.1905	0.873	0.6285	0.115
Mof_H 	H 	0.2119	0.8632	0.5555	0.116
Mof_C 	C 	0.16455	0.87584	0.5274	0.187
Mof_H 	H 	0.1638	0.8634	0.4788	-0.03
Mof_H 	H 	0.1428	0.874	0.552	-0.028
Mof_C 	C 	0.17152	0.912	0.5097	-0.538
Mof_H 	H 	0.194	0.9143	0.491	0.177
Mof_H 	H 	0.1562	0.9197	0.4705	0.175
Mof_H 	H 	0.1688	0.925	0.5564	0.18
Mof_C 	C 	0.27134	0.85385	0.4045	0.11
Mof_H 	H 	0.2925	0.8606	0.4206	-0.015
Mof_C 	C 	0.25193	0.87575	0.3646	-0.195
Mof_H 	H 	0.26	0.897	0.3533	0.084
Mof_C 	C 	0.22109	0.8669	0.3413	0.137
Mof_C 	C 	0.21137	0.836	0.3576	-0.193
Mof_H 	H 	0.1904	0.8287	0.3415	0.091
Mof_C 	C 	0.23161	0.81517	0.3973	0.114
Mof_H 	H 	0.224	0.7937	0.4083	-0.003
Mof_C 	C 	0.19918	0.88977	0.296	-0.146
Mof_H 	H 	0.2053	0.9127	0.3072	0.062
Mof_H 	H 	0.1762	0.8865	0.3119	0.061
Mof_Mn	Mn	0.22001	0.63712	0.77584	1.047
Mof_O 	O 	0.24195	0.60133	0.81595	-0.43
Mof_O 	O 	0.29746	0.63187	0.62221	-0.377
Mof_O 	O 	0.20244	0.67463	0.7228	-0.378
Mof_N 	N 	0.25439	0.64371	0.69996	-0.248
Mof_N 	N 	0.24969	0.67151	0.65292	-0.184
Mof_N 	N 	0.145	0.94125	0.058	-0.202
Mof_C 	C 	0.26652	0.5843	0.78573	0.306
Mof_C 	C 	0.2742	0.55444	0.82121	-0.275
Mof_H 	H 	0.262	0.5476	0.8647	0.128
Mof_C 	C 	0.29911	0.53501	0.7939	0.139
Mof_H 	H 	0.3038	0.5149	0.8188	-0.03
Mof_C 	C 	0.31739	0.54425	0.73057	-0.206
Mof_H 	H 	0.3345	0.5307	0.7118	0.104
Mof_C 	C 	0.31012	0.57349	0.69566	0.132
Mof_H 	H 	0.3226	0.58	0.6524	0.009
Mof_C 	C 	0.28507	0.59408	0.7212	-0.241
Mof_C 	C 	0.2788	0.62459	0.67981	0.293
Mof_C 	C 	0.22192	0.68525	0.66902	0.21
Mof_C 	C 	0.21002	0.71372	0.6222	-0.079
Mof_H 	H 	0.2282	0.7221	0.5903	0.046
Mof_H 	H 	0.2029	0.7315	0.6569	0.05
Mof_C 	C 	0.18102	0.70365	0.5696	-0.401
Mof_H 	H 	0.1888	0.6872	0.5323	0.134
Mof_H 	H 	0.1639	0.6932	0.6014	0.148
Mof_C 	C 	0.1661	0.73197	0.5265	0.584
Mof_H 	H 	0.1421	0.7299	0.5324	-0.134
Mof_H 	H 	0.1726	0.7521	0.5543	-0.124
Mof_C 	C 	0.171	0.737	0.4617	-0.726
Mof_H 	H 	0.1677	0.7161	0.4341	0.223
Mof_H 	H 	0.1944	0.7426	0.4564	0.239
Mof_C 	C 	0.1512	0.76348	0.4188	0.185
Mof_H 	H 	0.1314	0.7687	0.4478	-0.025
Mof_H 	H 	0.1452	0.7554	0.3679	-0.034
Mof_H 	H 	0.1646	0.7832	0.4134	-0.03
Mof_C 	C 	0.14009	0.94317	0.13319	0.109
Mof_H 	H 	0.1236	0.9576	0.1513	-0.008
Mof_C 	C 	0.15764	0.92529	0.1864	-0.19
Mof_H 	H 	0.1531	0.9274	0.2396	0.085
Mof_C 	C 	0.18179	0.90437	0.1611	0.138
Mof_C 	C 	0.18741	0.90282	0.0833	-0.201
Mof_H 	H 	0.2042	0.8891	0.0635	0.101
Mof_C 	C 	0.1685	0.92136	0.0344	0.118
Mof_H 	H 	0.1725	0.9198	0.9809	-0.001
Mof_C 	C 	0.20219	0.8838	0.2155	-0.159
Mof_H 	H 	0.2255	0.8868	0.2014	0.074
Mof_H 	H 	0.1967	0.8606	0.2062	0.073
Mof_Mn	Mn	0.79019	0.17338	0.06589	0.998
Mof_O 	O 	0.76303	0.15546	0.99031	-0.425
Mof_O 	O 	0.77522	0.25547	0.93036	-0.377
Mof_O 	O 	0.81634	0.19875	0.13691	-0.396
Mof_N 	N 	0.78611	0.21601	0.01916	-0.251
Mof_N 	N 	0.80137	0.24165	0.0611	-0.201
Mof_C 	C 	0.75016	0.16925	0.92787	0.302
Mof_C 	C 	0.73021	0.14971	0.8819	-0.281
Mof_H 	H 	0.7256	0.1279	0.8971	0.123
Mof_C 	C 	0.71708	0.1616	0.8145	0.139
Mof_H 	H 	0.7034	0.1479	0.7844	-0.028
Mof_C 	C 	0.72343	0.19311	0.7899	-0.203
Mof_H 	H 	0.7151	0.2009	0.7425	0.103
Mof_C 	C 	0.74234	0.21315	0.8366	0.12
Mof_H 	H 	0.7464	0.235	0.8211	0.002
Mof_C 	C 	0.75557	0.20189	0.90594	-0.245
Mof_C 	C 	0.77321	0.2256	0.95339	0.292
Mof_C 	C 	0.81594	0.23009	0.12173	0.277
Mof_C 	C 	0.83313	0.25237	0.17667	-0.327
Mof_H 	H 	0.8306	0.2752	0.159	0.115
Mof_H 	H 	0.8227	0.2505	0.2276	0.122
Mof_C 	C 	0.86932	0.24467	0.1845	0.101
Mof_H 	H 	0.8788	0.2586	0.2252	-0.005
Mof_H 	H 	0.8719	0.2216	0.2002	0.004
Mof_C 	C 	0.88814	0.25038	0.1096	-0.276
Mof_H 	H 	0.8793	0.2357	0.0696	0.107
Mof_H 	H 	0.8846	0.2732	0.0926	0.107
Mof_C 	C 	0.92504	0.24429	0.1176	0.154
Mof_H 	H 	0.934	0.2588	0.1579	-0.026
Mof_H 	H 	0.9288	0.2214	0.1336	-0.024
Mof_C 	C 	0.94319	0.25079	0.0413	-0.5
Mof_H 	H 	0.9371	0.2724	0.0217	0.166
Mof_H 	H 	0.9668	0.25	0.05	0.158
Mof_H 	H 	0.9371	0.234	0.0037	0.162
Mof_Mn	Mn	0.78785	0.28983	0.00493	1.046
Mof_N 	N 	0.79355	0.32384	0.08134	-0.25
Mof_N 	N 	0.76632	0.3283	0.13063	-0.204
Mof_N 	N 	0.76159	0.32382	0.92125	-0.2
Mof_O 	O 	0.82909	0.29847	0.96571	-0.432
Mof_O 	O 	0.81698	0.36494	0.15032	-0.376
Mof_O 	O 	0.74617	0.28688	0.05685	-0.397
Mof_C 	C 	0.85008	0.32226	0.98181	0.315
Mof_C 	C 	0.87811	0.32487	0.9355	-0.283
Mof_H 	H 	0.8815	0.3097	0.8951	0.129
Mof_C 	C 	0.90082	0.34926	0.948	0.153
Mof_H 	H 	0.9196	0.3506	0.9161	-0.028
Mof_C 	C 	0.89669	0.37157	0.0058	-0.218
Mof_H 	H 	0.9122	0.3886	0.0133	0.109
Mof_C 	C 	0.86986	0.36905	0.05279	0.137
Mof_H 	H 	0.8673	0.3842	0.0935	0.003
Mof_C 	C 	0.84616	0.34467	0.04217	-0.247
Mof_C 	C 	0.81771	0.34452	0.09422	0.294
Mof_C 	C 	0.74297	0.30819	0.11178	0.285
Mof_C 	C 	0.71032	0.31016	0.1512	-0.33
Mof_H 	H 	0.7034	0.288	0.1671	0.126
Mof_H 	H 	0.7123	0.3239	0.1977	0.117
Mof_C 	C 	0.68451	0.32496	0.0972	0.109
Mof_H 	H 	0.6627	0.3224	0.1209	-0.004
Mof_H 	H 	0.6845	0.3125	0.0486	0.009
Mof_C 	C 	0.69011	0.36071	0.0797	-0.299
Mof_H 	H 	0.6905	0.373	0.1285	0.115
Mof_H 	H 	0.7119	0.3632	0.0555	0.116
Mof_C 	C 	0.66455	0.37584	0.0274	0.187
Mof_H 	H 	0.6638	0.3634	0.9788	-0.03
Mof_H 	H 	0.6428	0.374	0.052	-0.028
Mof_C 	C 	0.67152	0.412	0.0097	-0.54
Mof_H 	H 	0.694	0.4143	0.991	0.178
Mof_H 	H 	0.6562	0.4197	0.9705	0.176
Mof_H 	H 	0.6688	0.425	0.0564	0.18
Mof_C 	C 	0.77134	0.35385	0.9045	0.11
Mof_H 	H 	0.7925	0.3606	0.9206	-0.015
Mof_C 	C 	0.75193	0.37575	0.8646	-0.195
Mof_H 	H 	0.76	0.397	0.8533	0.084
Mof_C 	C 	0.72109	0.3669	0.8413	0.137
Mof_C 	C 	0.71137	0.336	0.8576	-0.193
Mof_H 	H 	0.6904	0.3287	0.8415	0.091
Mof_C 	C 	0.73161	0.31517	0.8973	0.114
Mof_H 	H 	0.724	0.2937	0.9083	-0.003
Mof_C 	C 	0.69918	0.38977	0.796	-0.147
Mof_H 	H 	0.7053	0.4127	0.8072	0.062
Mof_H 	H 	0.6762	0.3865	0.8119	0.062
Mof_Mn	Mn	0.72001	0.13712	0.27584	1.047
Mof_O 	O 	0.74195	0.10133	0.31595	-0.43
Mof_O 	O 	0.79746	0.13187	0.12221	-0.377
Mof_O 	O 	0.70244	0.17463	0.2228	-0.378
Mof_N 	N 	0.75439	0.14371	0.19996	-0.248
Mof_N 	N 	0.74969	0.17151	0.15292	-0.184
Mof_N 	N 	0.645	0.44125	0.558	-0.202
Mof_C 	C 	0.76652	0.0843	0.28573	0.306
Mof_C 	C 	0.7742	0.05444	0.32121	-0.275
Mof_H 	H 	0.762	0.0476	0.3647	0.128
Mof_C 	C 	0.79911	0.03501	0.2939	0.139
Mof_H 	H 	0.8038	0.0149	0.3188	-0.03
Mof_C 	C 	0.81739	0.04425	0.23057	-0.206
Mof_H 	H 	0.8345	0.0307	0.2118	0.104
Mof_C 	C 	0.81012	0.07349	0.19566	0.132
Mof_H 	H 	0.8226	0.08	0.1524	0.009
Mof_C 	C 	0.78507	0.09408	0.2212	-0.241
Mof_C 	C 	0.7788	0.12459	0.17981	0.293
Mof_C 	C 	0.72192	0.18525	0.16902	0.209
Mof_C 	C 	0.71002	0.21372	0.1222	-0.076
Mof_H 	H 	0.7282	0.2221	0.0903	0.045
Mof_H 	H 	0.7029	0.2315	0.1569	0.049
Mof_C 	C 	0.68102	0.20365	0.0696	-0.407
Mof_H 	H 	0.6888	0.1872	0.0323	0.136
Mof_H 	H 	0.6639	0.1932	0.1014	0.15
Mof_C 	C 	0.6661	0.23197	0.0265	0.594
Mof_H 	H 	0.6421	0.2299	0.0324	-0.137
Mof_H 	H 	0.6726	0.2521	0.0543	-0.127
Mof_C 	C 	0.671	0.237	0.9617	-0.737
Mof_H 	H 	0.6677	0.2161	0.9341	0.226
Mof_H 	H 	0.6944	0.2426	0.9564	0.242
Mof_C 	C 	0.6512	0.26348	0.9188	0.193
Mof_H 	H 	0.6314	0.2687	0.9478	-0.026
Mof_H 	H 	0.6452	0.2554	0.8679	-0.036
Mof_H 	H 	0.6646	0.2832	0.9134	-0.032
Mof_C 	C 	0.64009	0.44317	0.63319	0.109
Mof_H 	H 	0.6236	0.4576	0.6513	-0.008
Mof_C 	C 	0.65764	0.42529	0.6864	-0.189
Mof_H 	H 	0.6531	0.4274	0.7396	0.085
Mof_C 	C 	0.68179	0.40437	0.6611	0.137
Mof_C 	C 	0.68741	0.40282	0.5833	-0.2
Mof_H 	H 	0.7042	0.3891	0.5635	0.1
Mof_C 	C 	0.6685	0.42136	0.5344	0.117
Mof_H 	H 	0.6725	0.4198	0.4809	-0
Mof_C 	C 	0.70219	0.3838	0.7155	-0.159
Mof_H 	H 	0.7255	0.3868	0.7014	0.074
Mof_H 	H 	0.6967	0.3606	0.7062	0.073
Mof_Mn	Mn	0.20981	0.32662	0.06589	0.998
Mof_O 	O 	0.23697	0.34454	0.99031	-0.425
Mof_O 	O 	0.22478	0.24453	0.93036	-0.377
Mof_O 	O 	0.18366	0.30125	0.13691	-0.396
Mof_N 	N 	0.21389	0.28399	0.01916	-0.251
Mof_N 	N 	0.19863	0.25835	0.0611	-0.201
Mof_C 	C 	0.24984	0.33075	0.92787	0.302
Mof_C 	C 	0.26979	0.35029	0.8819	-0.281
Mof_H 	H 	0.2744	0.3721	0.8971	0.123
Mof_C 	C 	0.28292	0.3384	0.8145	0.139
Mof_H 	H 	0.2966	0.3521	0.7844	-0.028
Mof_C 	C 	0.27657	0.30689	0.7899	-0.203
Mof_H 	H 	0.2849	0.2991	0.7425	0.103
Mof_C 	C 	0.25766	0.28685	0.8366	0.12
Mof_H 	H 	0.2536	0.265	0.8211	0.002
Mof_C 	C 	0.24443	0.29811	0.90594	-0.245
Mof_C 	C 	0.22679	0.2744	0.95339	0.292
Mof_C 	C 	0.18406	0.26991	0.12173	0.277
Mof_C 	C 	0.16687	0.24763	0.17667	-0.327
Mof_H 	H 	0.1694	0.2248	0.159	0.115
Mof_H 	H 	0.1773	0.2495	0.2276	0.122
Mof_C 	C 	0.13068	0.25533	0.1845	0.101
Mof_H 	H 	0.1212	0.2414	0.2252	-0.005
Mof_H 	H 	0.1281	0.2784	0.2002	0.004
Mof_C 	C 	0.11186	0.24962	0.1096	-0.275
Mof_H 	H 	0.1207	0.2643	0.0696	0.107
Mof_H 	H 	0.1154	0.2268	0.0926	0.107
Mof_C 	C 	0.07496	0.25571	0.1176	0.154
Mof_H 	H 	0.066	0.2412	0.1579	-0.027
Mof_H 	H 	0.0712	0.2786	0.1336	-0.024
Mof_C 	C 	0.05681	0.24921	0.0413	-0.499
Mof_H 	H 	0.0629	0.2276	0.0217	0.165
Mof_H 	H 	0.0332	0.25	0.05	0.157
Mof_H 	H 	0.0629	0.266	0.0037	0.162
Mof_Mn	Mn	0.21215	0.21017	0.00493	1.046
Mof_N 	N 	0.20645	0.17616	0.08134	-0.25
Mof_N 	N 	0.23368	0.1717	0.13063	-0.204
Mof_N 	N 	0.23841	0.17618	0.92125	-0.2
Mof_O 	O 	0.17091	0.20153	0.96571	-0.432
Mof_O 	O 	0.18302	0.13506	0.15032	-0.376
Mof_O 	O 	0.25383	0.21312	0.05685	-0.397
Mof_C 	C 	0.14992	0.17774	0.98181	0.315
Mof_C 	C 	0.12189	0.17513	0.9355	-0.283
Mof_H 	H 	0.1185	0.1903	0.8951	0.129
Mof_C 	C 	0.09918	0.15074	0.948	0.153
Mof_H 	H 	0.0804	0.1494	0.9161	-0.028
Mof_C 	C 	0.10331	0.12843	0.0058	-0.218
Mof_H 	H 	0.0878	0.1114	0.0133	0.109
Mof_C 	C 	0.13014	0.13095	0.05279	0.137
Mof_H 	H 	0.1327	0.1158	0.0935	0.003
Mof_C 	C 	0.15384	0.15533	0.04217	-0.247
Mof_C 	C 	0.18229	0.15548	0.09422	0.294
Mof_C 	C 	0.25703	0.19181	0.11178	0.285
Mof_C 	C 	0.28968	0.18984	0.1512	-0.33
Mof_H 	H 	0.2966	0.212	0.1671	0.126
Mof_H 	H 	0.2877	0.1761	0.1977	0.117
Mof_C 	C 	0.31549	0.17504	0.0972	0.109
Mof_H 	H 	0.3373	0.1776	0.1209	-0.004
Mof_H 	H 	0.3155	0.1875	0.0486	0.009
Mof_C 	C 	0.30989	0.13929	0.0797	-0.299
Mof_H 	H 	0.3095	0.127	0.1285	0.115
Mof_H 	H 	0.2881	0.1368	0.0555	0.116
Mof_C 	C 	0.33545	0.12416	0.0274	0.187
Mof_H 	H 	0.3362	0.1366	0.9788	-0.03
Mof_H 	H 	0.3572	0.126	0.052	-0.028
Mof_C 	C 	0.32848	0.088	0.0097	-0.541
Mof_H 	H 	0.306	0.0857	0.991	0.178
Mof_H 	H 	0.3438	0.0803	0.9705	0.176
Mof_H 	H 	0.3312	0.075	0.0564	0.18
Mof_C 	C 	0.22866	0.14615	0.9045	0.11
Mof_H 	H 	0.2075	0.1394	0.9206	-0.015
Mof_C 	C 	0.24807	0.12425	0.8646	-0.195
Mof_H 	H 	0.24	0.103	0.8533	0.084
Mof_C 	C 	0.27891	0.1331	0.8413	0.137
Mof_C 	C 	0.28863	0.164	0.8576	-0.193
Mof_H 	H 	0.3096	0.1713	0.8415	0.091
Mof_C 	C 	0.26839	0.18483	0.8973	0.114
Mof_H 	H 	0.276	0.2063	0.9083	-0.003
Mof_C 	C 	0.30082	0.11023	0.796	-0.147
Mof_H 	H 	0.2947	0.0873	0.8072	0.062
Mof_H 	H 	0.3238	0.1135	0.8119	0.062
Mof_Mn	Mn	0.27999	0.36288	0.27584	1.047
Mof_O 	O 	0.25805	0.39867	0.31595	-0.43
Mof_O 	O 	0.20254	0.36813	0.12221	-0.377
Mof_O 	O 	0.29756	0.32537	0.2228	-0.378
Mof_N 	N 	0.24561	0.35629	0.19996	-0.248
Mof_N 	N 	0.25031	0.32849	0.15292	-0.184
Mof_N 	N 	0.355	0.05875	0.558	-0.202
Mof_C 	C 	0.23348	0.4157	0.28573	0.306
Mof_C 	C 	0.2258	0.44556	0.32121	-0.275
Mof_H 	H 	0.238	0.4524	0.3647	0.128
Mof_C 	C 	0.20089	0.46499	0.2939	0.139
Mof_H 	H 	0.1962	0.4851	0.3188	-0.03
Mof_C 	C 	0.18261	0.45575	0.23057	-0.206
Mof_H 	H 	0.1655	0.4693	0.2118	0.104
Mof_C 	C 	0.18988	0.42651	0.19566	0.132
Mof_H 	H 	0.1774	0.42	0.1524	0.009
Mof_C 	C 	0.21493	0.40592	0.2212	-0.241
Mof_C 	C 	0.2212	0.37541	0.17981	0.293
Mof_C 	C 	0.27808	0.31475	0.16902	0.209
Mof_C 	C 	0.28998	0.28628	0.1222	-0.076
Mof_H 	H 	0.2718	0.2779	0.0903	0.045
Mof_H 	H 	0.2971	0.2685	0.1569	0.049
Mof_C 	C 	0.31898	0.29635	0.0696	-0.407
Mof_H 	H 	0.3112	0.3128	0.0323	0.136
Mof_H 	H 	0.3361	0.3068	0.1014	0.15
Mof_C 	C 	0.3339	0.26803	0.0265	0.594
Mof_H 	H 	0.3579	0.2701	0.0324	-0.137
Mof_H 	H 	0.3274	0.2479	0.0543	-0.127
Mof_C 	C 	0.329	0.263	0.9617	-0.737
Mof_H 	H 	0.3323	0.2839	0.9341	0.226
Mof_H 	H 	0.3056	0.2574	0.9564	0.242
Mof_C 	C 	0.3488	0.23652	0.9188	0.193
Mof_H 	H 	0.3686	0.2313	0.9478	-0.026
Mof_H 	H 	0.3548	0.2446	0.8679	-0.036
Mof_H 	H 	0.3354	0.2168	0.9134	-0.032
Mof_C 	C 	0.35991	0.05683	0.63319	0.109
Mof_H 	H 	0.3764	0.0424	0.6513	-0.008
Mof_C 	C 	0.34236	0.07471	0.6864	-0.189
Mof_H 	H 	0.3469	0.0726	0.7396	0.085
Mof_C 	C 	0.31821	0.09563	0.6611	0.137
Mof_C 	C 	0.31259	0.09718	0.5833	-0.2
Mof_H 	H 	0.2958	0.1109	0.5635	0.1
Mof_C 	C 	0.3315	0.07864	0.5344	0.117
Mof_H 	H 	0.3275	0.0802	0.4809	-0
Mof_C 	C 	0.29781	0.1162	0.7155	-0.159
Mof_H 	H 	0.2745	0.1132	0.7014	0.074
Mof_H 	H 	0.3033	0.1394	0.7062	0.073
Mof_Mn	Mn	0.70981	0.82662	0.56589	0.998
Mof_O 	O 	0.73697	0.84454	0.49031	-0.425
Mof_O 	O 	0.72478	0.74453	0.43036	-0.378
Mof_O 	O 	0.68366	0.80125	0.63691	-0.396
Mof_N 	N 	0.71389	0.78399	0.51916	-0.25
Mof_N 	N 	0.69863	0.75835	0.5611	-0.201
Mof_C 	C 	0.74984	0.83075	0.42787	0.302
Mof_C 	C 	0.76979	0.85029	0.3819	-0.281
Mof_H 	H 	0.7744	0.8721	0.3971	0.122
Mof_C 	C 	0.78292	0.8384	0.3145	0.139
Mof_H 	H 	0.7966	0.8521	0.2844	-0.028
Mof_C 	C 	0.77657	0.80689	0.2899	-0.203
Mof_H 	H 	0.7849	0.7991	0.2425	0.103
Mof_C 	C 	0.75766	0.78685	0.3366	0.12
Mof_H 	H 	0.7536	0.765	0.3211	0.002
Mof_C 	C 	0.74443	0.79811	0.40594	-0.245
Mof_C 	C 	0.72679	0.7744	0.45339	0.291
Mof_C 	C 	0.68406	0.76991	0.62173	0.277
Mof_C 	C 	0.66687	0.74763	0.67667	-0.327
Mof_H 	H 	0.6694	0.7248	0.659	0.115
Mof_H 	H 	0.6773	0.7495	0.7276	0.122
Mof_C 	C 	0.63068	0.75533	0.6845	0.101
Mof_H 	H 	0.6212	0.7414	0.7252	-0.006
Mof_H 	H 	0.6281	0.7784	0.7002	0.004
Mof_C 	C 	0.61186	0.74962	0.6096	-0.276
Mof_H 	H 	0.6207	0.7643	0.5696	0.107
Mof_H 	H 	0.6154	0.7268	0.5926	0.107
Mof_C 	C 	0.57496	0.75571	0.6176	0.155
Mof_H 	H 	0.566	0.7412	0.6579	-0.027
Mof_H 	H 	0.5712	0.7786	0.6336	-0.024
Mof_C 	C 	0.55681	0.74921	0.5413	-0.5
Mof_H 	H 	0.5629	0.7276	0.5217	0.166
Mof_H 	H 	0.5332	0.75	0.55	0.158
Mof_H 	H 	0.5629	0.766	0.5037	0.163
Mof_Mn	Mn	0.71215	0.71017	0.50493	1.047
Mof_N 	N 	0.70645	0.67616	0.58134	-0.25
Mof_N 	N 	0.73368	0.6717	0.63063	-0.204
Mof_N 	N 	0.73841	0.67618	0.42125	-0.2
Mof_O 	O 	0.67091	0.70153	0.46571	-0.432
Mof_O 	O 	0.68302	0.63506	0.65032	-0.376
Mof_O 	O 	0.75383	0.71312	0.55685	-0.397
Mof_C 	C 	0.64992	0.67774	0.48181	0.313
Mof_C 	C 	0.62189	0.67513	0.4355	-0.281
Mof_H 	H 	0.6185	0.6903	0.3951	0.128
Mof_C 	C 	0.59918	0.65074	0.448	0.15
Mof_H 	H 	0.5804	0.6494	0.4161	-0.027
Mof_C 	C 	0.60331	0.62843	0.5058	-0.216
Mof_H 	H 	0.5878	0.6114	0.5133	0.108
Mof_C 	C 	0.63014	0.63095	0.55279	0.135
Mof_H 	H 	0.6327	0.6158	0.5935	0.003
Mof_C 	C 	0.65384	0.65533	0.54217	-0.245
Mof_C 	C 	0.68229	0.65548	0.59422	0.294
Mof_C 	C 	0.75703	0.69181	0.61178	0.285
Mof_C 	C 	0.78968	0.68984	0.6512	-0.33
Mof_H 	H 	0.7966	0.712	0.6671	0.126
Mof_H 	H 	0.7877	0.6761	0.6977	0.117
Mof_C 	C 	0.81549	0.67504	0.5972	0.109
Mof_H 	H 	0.8373	0.6776	0.6209	-0.004
Mof_H 	H 	0.8155	0.6875	0.5486	0.009
Mof_C 	C 	0.80989	0.63929	0.5797	-0.299
Mof_H 	H 	0.8095	0.627	0.6285	0.115
Mof_H 	H 	0.7881	0.6368	0.5555	0.116
Mof_C 	C 	0.83545	0.62416	0.5274	0.187
Mof_H 	H 	0.8362	0.6366	0.4788	-0.03
Mof_H 	H 	0.8572	0.626	0.552	-0.028
Mof_C 	C 	0.82848	0.588	0.5097	-0.538
Mof_H 	H 	0.806	0.5857	0.491	0.177
Mof_H 	H 	0.8438	0.5803	0.4705	0.175
Mof_H 	H 	0.8312	0.575	0.5564	0.18
Mof_C 	C 	0.72866	0.64615	0.4045	0.11
Mof_H 	H 	0.7075	0.6394	0.4206	-0.015
Mof_C 	C 	0.74807	0.62425	0.3646	-0.195
Mof_H 	H 	0.74	0.603	0.3533	0.084
Mof_C 	C 	0.77891	0.6331	0.3413	0.137
Mof_C 	C 	0.78863	0.664	0.3576	-0.193
Mof_H 	H 	0.8096	0.6713	0.3415	0.091
Mof_C 	C 	0.76839	0.68483	0.3973	0.114
Mof_H 	H 	0.776	0.7063	0.4083	-0.003
Mof_C 	C 	0.80082	0.61023	0.296	-0.147
Mof_H 	H 	0.7947	0.5873	0.3072	0.062
Mof_H 	H 	0.8238	0.6135	0.3119	0.061
Mof_Mn	Mn	0.77999	0.86288	0.77584	1.047
Mof_O 	O 	0.75805	0.89867	0.81595	-0.43
Mof_O 	O 	0.70254	0.86813	0.62221	-0.377
Mof_O 	O 	0.79756	0.82537	0.7228	-0.378
Mof_N 	N 	0.74561	0.85629	0.69996	-0.248
Mof_N 	N 	0.75031	0.82849	0.65292	-0.184
Mof_N 	N 	0.855	0.55875	0.058	-0.202
Mof_C 	C 	0.73348	0.9157	0.78573	0.306
Mof_C 	C 	0.7258	0.94556	0.82121	-0.275
Mof_H 	H 	0.738	0.9524	0.8647	0.128
Mof_C 	C 	0.70089	0.96499	0.7939	0.139
Mof_H 	H 	0.6962	0.9851	0.8188	-0.03
Mof_C 	C 	0.68261	0.95575	0.73057	-0.206
Mof_H 	H 	0.6655	0.9693	0.7118	0.104
Mof_C 	C 	0.68988	0.92651	0.69566	0.132
Mof_H 	H 	0.6774	0.92	0.6524	0.009
Mof_C 	C 	0.71493	0.90592	0.7212	-0.241
Mof_C 	C 	0.7212	0.87541	0.67981	0.293
Mof_C 	C 	0.77808	0.81475	0.66902	0.21
Mof_C 	C 	0.78998	0.78628	0.6222	-0.079
Mof_H 	H 	0.7718	0.7779	0.5903	0.046
Mof_H 	H 	0.7971	0.7685	0.6569	0.05
Mof_C 	C 	0.81898	0.79635	0.5696	-0.402
Mof_H 	H 	0.8112	0.8128	0.5323	0.135
Mof_H 	H 	0.8361	0.8068	0.6014	0.148
Mof_C 	C 	0.8339	0.76803	0.5265	0.584
Mof_H 	H 	0.8579	0.7701	0.5324	-0.134
Mof_H 	H 	0.8274	0.7479	0.5543	-0.124
Mof_C 	C 	0.829	0.763	0.4617	-0.726
Mof_H 	H 	0.8323	0.7839	0.4341	0.223
Mof_H 	H 	0.8056	0.7574	0.4564	0.239
Mof_C 	C 	0.8488	0.73652	0.4188	0.185
Mof_H 	H 	0.8686	0.7313	0.4478	-0.025
Mof_H 	H 	0.8548	0.7446	0.3679	-0.034
Mof_H 	H 	0.8354	0.7168	0.4134	-0.03
Mof_C 	C 	0.85991	0.55683	0.13319	0.109
Mof_H 	H 	0.8764	0.5424	0.1513	-0.008
Mof_C 	C 	0.84236	0.57471	0.1864	-0.189
Mof_H 	H 	0.8469	0.5726	0.2396	0.085
Mof_C 	C 	0.81821	0.59563	0.1611	0.138
Mof_C 	C 	0.81259	0.59718	0.0833	-0.201
Mof_H 	H 	0.7958	0.6109	0.0635	0.101
Mof_C 	C 	0.8315	0.57864	0.0344	0.118
Mof_H 	H 	0.8275	0.5802	0.9809	-0.001
Mof_C 	C 	0.79781	0.6162	0.2155	-0.159
Mof_H 	H 	0.7745	0.6132	0.2014	0.074
Mof_H 	H 	0.8033	0.6394	0.2062	0.073
_end
