# CIF file generated by openbabel 3.1.0, see https://openbabel.org
data_I
_chemical_name_common 'image0'
_cell_length_a 8.803
_cell_length_b 8.803
_cell_length_c 25.292
_cell_angle_alpha 90
_cell_angle_beta 90
_cell_angle_gamma 120
_space_group_name_H-M_alt 'P 1'
_space_group_name_Hall 'P 1'
loop_
    _symmetry_equiv_pos_as_xyz
    x,y,z
loop_
    _atom_site_label
    _atom_site_type_symbol
    _atom_site_fract_x
    _atom_site_fract_y
    _atom_site_fract_z
    _atom_site_occupancy
    P1       P        0.04553    0.48920    0.07029    1.000
    H1       H        0.05500    0.62600    0.06860    1.000
    O1       O        0.13220    0.48960    0.12272    1.000
    O2       O        0.85520    0.33880    0.06944    1.000
    O3       O        0.14730    0.47950    0.02279    1.000
    P2       P        0.71220    0.82253    0.40362    1.000
    H2       H        0.72167    0.95933    0.40193    1.000
    O4       O        0.79887    0.82293    0.45605    1.000
    O5       O        0.52187    0.67213    0.40277    1.000
    O6       O        0.81397    0.81283    0.35612    1.000
    P3       P        0.37886    0.15587    0.73696    1.000
    H3       H        0.38833    0.29267    0.73527    1.000
    O7       O        0.46553    0.15627    0.78939    1.000
    O8       O        0.18853    0.00547    0.73611    1.000
    O9       O        0.48063    0.14617    0.68946    1.000
    P4       P        0.51080    0.55633    0.07029    1.000
    H4       H        0.37400    0.42900    0.06860    1.000
    O10      O        0.51040    0.64260    0.12272    1.000
    O11      O        0.66120    0.51640    0.06944    1.000
    O12      O        0.52050    0.66780    0.02279    1.000
    P5       P        0.17747    0.88966    0.40362    1.000
    H5       H        0.04067    0.76233    0.40193    1.000
    O13      O        0.17707    0.97593    0.45605    1.000
    O14      O        0.32787    0.84973    0.40277    1.000
    O15      O        0.18717    0.00113    0.35612    1.000
    P6       P        0.84413    0.22300    0.73696    1.000
    H6       H        0.70733    0.09567    0.73527    1.000
    O16      O        0.84373    0.30927    0.78939    1.000
    O17      O        0.99453    0.18307    0.73611    1.000
    O18      O        0.85383    0.33447    0.68946    1.000
    P7       P        0.44367    0.95447    0.07029    1.000
    H7       H        0.57100    0.94500    0.06860    1.000
    O19      O        0.35740    0.86780    0.12272    1.000
    O20      O        0.48360    0.14480    0.06944    1.000
    O21      O        0.33220    0.85270    0.02279    1.000
    P8       P        0.11034    0.28780    0.40362    1.000
    H8       H        0.23767    0.27833    0.40193    1.000
    O22      O        0.02407    0.20113    0.45605    1.000
    O23      O        0.15027    0.47813    0.40277    1.000
    O24      O        0.99887    0.18603    0.35612    1.000
    P9       P        0.77700    0.62114    0.73696    1.000
    H9       H        0.90433    0.61167    0.73527    1.000
    O25      O        0.69073    0.53447    0.78939    1.000
    O26      O        0.81693    0.81147    0.73611    1.000
    O27      O        0.66553    0.51937    0.68946    1.000
    P10      P        0.95447    0.51080    0.92971    1.000
    H10      H        0.94500    0.37400    0.93140    1.000
    O28      O        0.86780    0.51040    0.87728    1.000
    O29      O        0.14480    0.66120    0.93056    1.000
    O30      O        0.85270    0.52050    0.97721    1.000
    P11      P        0.62114    0.84413    0.26304    1.000
    H11      H        0.61167    0.70733    0.26473    1.000
    O31      O        0.53447    0.84373    0.21061    1.000
    O32      O        0.81147    0.99453    0.26389    1.000
    O33      O        0.51937    0.85383    0.31054    1.000
    P12      P        0.28780    0.17747    0.59638    1.000
    H12      H        0.27833    0.04067    0.59807    1.000
    O34      O        0.20113    0.17707    0.54395    1.000
    O35      O        0.47813    0.32787    0.59723    1.000
    O36      O        0.18603    0.18717    0.64388    1.000
    P13      P        0.48920    0.44367    0.92971    1.000
    H13      H        0.62600    0.57100    0.93140    1.000
    O37      O        0.48960    0.35740    0.87728    1.000
    O38      O        0.33880    0.48360    0.93056    1.000
    O39      O        0.47950    0.33220    0.97721    1.000
    P14      P        0.15587    0.77700    0.26304    1.000
    H14      H        0.29267    0.90433    0.26473    1.000
    O40      O        0.15627    0.69073    0.21061    1.000
    O41      O        0.00547    0.81693    0.26389    1.000
    O42      O        0.14617    0.66553    0.31054    1.000
    P15      P        0.82253    0.11034    0.59638    1.000
    H15      H        0.95933    0.23767    0.59807    1.000
    O43      O        0.82293    0.02407    0.54395    1.000
    O44      O        0.67213    0.15027    0.59723    1.000
    O45      O        0.81283    0.99887    0.64388    1.000
    P16      P        0.55633    0.04553    0.92971    1.000
    H16      H        0.42900    0.05500    0.93140    1.000
    O46      O        0.64260    0.13220    0.87728    1.000
    O47      O        0.51640    0.85520    0.93056    1.000
    O48      O        0.66780    0.14730    0.97721    1.000
    P17      P        0.22300    0.37886    0.26304    1.000
    H17      H        0.09567    0.38833    0.26473    1.000
    O49      O        0.30927    0.46553    0.21061    1.000
    O50      O        0.18307    0.18853    0.26389    1.000
    O51      O        0.33447    0.48063    0.31054    1.000
    P18      P        0.88966    0.71220    0.59638    1.000
    H18      H        0.76233    0.72167    0.59807    1.000
    O52      O        0.97593    0.79887    0.54395    1.000
    O53      O        0.84973    0.52187    0.59723    1.000
    O54      O        0.00113    0.81397    0.64388    1.000
    Fe1      Fe       0.66667    0.33333    0.02227    1.000
    Fe2      Fe       0.33333    0.66667    0.35560    1.000
    Fe3      Fe       0.00000    0.00000    0.68894    1.000
    Fe4      Fe       0.33333    0.66667    0.97773    1.000
    Fe5      Fe       0.00000    0.00000    0.31106    1.000
    Fe6      Fe       0.66667    0.33333    0.64440    1.000
    Fe7      Fe       0.33333    0.66667    0.16667    1.000
    Fe8      Fe       0.00000    0.00000    0.50000    1.000
    Fe9      Fe       0.66667    0.33333    0.83333    1.000
