data_functionalizedCrystal
_audit_creation_method	'EQeq! by Chris Wilmer'
_symmetry_space_group_name_H-M	'P1'
_symmetry_Int_Tables_number	1
_symmetry_cell_setting	triclinic
loop_
_symmetry_equiv_pos_as_xyz
  x,y,z
_cell_length_a	8.5028
_cell_length_b	13.1108
_cell_length_c	9.5831
_cell_angle_alpha	90
_cell_angle_beta	96.038
_cell_angle_gamma	90
loop_
_atom_site_label
_atom_site_type_symbol
_atom_site_fract_x
_atom_site_fract_y
_atom_site_fract_z
_atom_site_charge
Mof_Eu	Eu	0.54926	0.26692	0.49571	1.716
Mof_C 	C 	0.5428	0.3898	0.7447	0.283
Mof_C 	C 	0.5256	0.4518	0.8762	-0.044
Mof_C 	C 	0.6212	0.4265	0.9993	-0.046
Mof_C 	C 	0.406	0.5269	0.873	-0.102
Mof_C 	C 	0.7611	0.3563	0.9936	0.293
Mof_C 	C 	0.3002	0.5514	0.74	0.401
Mof_O 	O 	0.5464	0.4331	0.6272	-0.405
Mof_O 	O 	0.5523	0.293	0.7565	-0.424
Mof_O 	O 	0.789	0.2867	0.0855	-0.408
Mof_O 	O 	0.854	0.3721	0.9003	-0.428
Mof_O 	O 	0.3481	0.615	0.6561	-0.504
Mof_O 	O 	0.1667	0.5077	0.7231	-0.314
Mof_Eu	Eu	0.95074	0.76692	0.00429	1.68
Mof_C 	C 	0.9572	0.8898	0.7553	0.283
Mof_C 	C 	0.9744	0.9518	0.6238	-0.04
Mof_C 	C 	0.8788	0.9265	0.5007	-0.049
Mof_C 	C 	0.094	0.0269	0.627	-0.107
Mof_C 	C 	0.7389	0.8563	0.5064	0.288
Mof_C 	C 	0.1998	0.0514	0.76	0.399
Mof_O 	O 	0.9536	0.9331	0.8728	-0.394
Mof_O 	O 	0.9477	0.793	0.7435	-0.417
Mof_O 	O 	0.711	0.7867	0.4145	-0.408
Mof_O 	O 	0.646	0.8721	0.5997	-0.434
Mof_O 	O 	0.1519	0.115	0.8439	-0.504
Mof_O 	O 	0.3333	0.0077	0.7769	-0.316
Mof_Eu	Eu	0.45074	0.73308	0.50429	1.717
Mof_C 	C 	0.4572	0.6102	0.2553	0.284
Mof_C 	C 	0.4744	0.5482	0.1238	-0.044
Mof_C 	C 	0.3788	0.5735	0.0007	-0.046
Mof_C 	C 	0.594	0.4731	0.127	-0.102
Mof_C 	C 	0.2389	0.6437	0.0064	0.293
Mof_C 	C 	0.6998	0.4486	0.26	0.401
Mof_O 	O 	0.4536	0.5669	0.3728	-0.405
Mof_O 	O 	0.4477	0.707	0.2435	-0.424
Mof_O 	O 	0.211	0.7133	0.9145	-0.408
Mof_O 	O 	0.146	0.6279	0.0997	-0.428
Mof_O 	O 	0.6519	0.385	0.3439	-0.504
Mof_O 	O 	0.8333	0.4923	0.2769	-0.314
Mof_Eu	Eu	0.04926	0.23308	0.99571	1.68
Mof_C 	C 	0.0428	0.1102	0.2447	0.283
Mof_C 	C 	0.0256	0.0482	0.3762	-0.04
Mof_C 	C 	0.1212	0.0735	0.4993	-0.049
Mof_C 	C 	0.906	0.9731	0.373	-0.107
Mof_C 	C 	0.2611	0.1437	0.4936	0.288
Mof_C 	C 	0.8002	0.9486	0.24	0.399
Mof_O 	O 	0.0464	0.0669	0.1272	-0.394
Mof_O 	O 	0.0523	0.207	0.2565	-0.417
Mof_O 	O 	0.289	0.2133	0.5855	-0.408
Mof_O 	O 	0.354	0.1279	0.4003	-0.434
Mof_O 	O 	0.8481	0.885	0.1561	-0.504
Mof_O 	O 	0.6667	0.9923	0.2231	-0.316
_end
