# CIF file generated by openbabel 3.1.0, see https://openbabel.org
data_I
_chemical_name_common 'PEVQIS_clean_h'
_cell_length_a 25.654
_cell_length_b 25.654
_cell_length_c 25.654
_cell_angle_alpha 90
_cell_angle_beta 90
_cell_angle_gamma 90
_space_group_name_H-M_alt 'P 1'
_space_group_name_Hall 'P 1'
loop_
    _symmetry_equiv_pos_as_xyz
    x,y,z
loop_
    _atom_site_label
    _atom_site_type_symbol
    _atom_site_fract_x
    _atom_site_fract_y
    _atom_site_fract_z
    _atom_site_occupancy
    O1       O        0.21460    0.13340    0.21460    1.000
    C2       C        0.21890    0.02300    0.21890    1.000
    O3       O        0.21460    0.63340    0.71460    1.000
    C4       C        0.21890    0.52300    0.71890    1.000
    O5       O        0.71460    0.13340    0.71460    1.000
    C6       C        0.71890    0.02300    0.71890    1.000
    O7       O        0.71460    0.63340    0.21460    1.000
    C8       C        0.71890    0.52300    0.21890    1.000
    O9       O        0.78540    0.86660    0.21460    1.000
    C10      C        0.78110    0.97700    0.21890    1.000
    O11      O        0.78540    0.36660    0.71460    1.000
    C12      C        0.78110    0.47700    0.71890    1.000
    O13      O        0.28540    0.86660    0.71460    1.000
    C14      C        0.28110    0.97700    0.71890    1.000
    O15      O        0.28540    0.36660    0.21460    1.000
    C16      C        0.28110    0.47700    0.21890    1.000
    O17      O        0.78540    0.13340    0.78540    1.000
    C18      C        0.78110    0.02300    0.78110    1.000
    O19      O        0.78540    0.63340    0.28540    1.000
    C20      C        0.78110    0.52300    0.28110    1.000
    O21      O        0.28540    0.13340    0.28540    1.000
    C22      C        0.28110    0.02300    0.28110    1.000
    O23      O        0.28540    0.63340    0.78540    1.000
    C24      C        0.28110    0.52300    0.78110    1.000
    O25      O        0.21460    0.86660    0.78540    1.000
    C26      C        0.21890    0.97700    0.78110    1.000
    O27      O        0.21460    0.36660    0.28540    1.000
    C28      C        0.21890    0.47700    0.28110    1.000
    O29      O        0.71460    0.86660    0.28540    1.000
    C30      C        0.71890    0.97700    0.28110    1.000
    O31      O        0.71460    0.36660    0.78540    1.000
    C32      C        0.71890    0.47700    0.78110    1.000
    O33      O        0.21460    0.21460    0.13340    1.000
    C34      C        0.21890    0.21890    0.02300    1.000
    O35      O        0.21460    0.71460    0.63340    1.000
    C36      C        0.21890    0.71890    0.52300    1.000
    O37      O        0.71460    0.21460    0.63340    1.000
    C38      C        0.71890    0.21890    0.52300    1.000
    O39      O        0.71460    0.71460    0.13340    1.000
    C40      C        0.71890    0.71890    0.02300    1.000
    O41      O        0.21460    0.78540    0.86660    1.000
    C42      C        0.21890    0.78110    0.97700    1.000
    O43      O        0.21460    0.28540    0.36660    1.000
    C44      C        0.21890    0.28110    0.47700    1.000
    O45      O        0.71460    0.78540    0.36660    1.000
    C46      C        0.71890    0.78110    0.47700    1.000
    O47      O        0.71460    0.28540    0.86660    1.000
    C48      C        0.71890    0.28110    0.97700    1.000
    O49      O        0.78540    0.78540    0.13340    1.000
    C50      C        0.78110    0.78110    0.02300    1.000
    O51      O        0.78540    0.28540    0.63340    1.000
    C52      C        0.78110    0.28110    0.52300    1.000
    O53      O        0.28540    0.78540    0.63340    1.000
    C54      C        0.28110    0.78110    0.52300    1.000
    O55      O        0.28540    0.28540    0.13340    1.000
    C56      C        0.28110    0.28110    0.02300    1.000
    O57      O        0.78540    0.21460    0.86660    1.000
    C58      C        0.78110    0.21890    0.97700    1.000
    O59      O        0.78540    0.71460    0.36660    1.000
    C60      C        0.78110    0.71890    0.47700    1.000
    O61      O        0.28540    0.21460    0.36660    1.000
    C62      C        0.28110    0.21890    0.47700    1.000
    O63      O        0.28540    0.71460    0.86660    1.000
    C64      C        0.28110    0.71890    0.97700    1.000
    O65      O        0.13340    0.21460    0.21460    1.000
    C66      C        0.02300    0.21890    0.21890    1.000
    O67      O        0.13340    0.71460    0.71460    1.000
    C68      C        0.02300    0.71890    0.71890    1.000
    O69      O        0.63340    0.21460    0.71460    1.000
    C70      C        0.52300    0.21890    0.71890    1.000
    O71      O        0.63340    0.71460    0.21460    1.000
    C72      C        0.52300    0.71890    0.21890    1.000
    O73      O        0.86660    0.21460    0.78540    1.000
    C74      C        0.97700    0.21890    0.78110    1.000
    O75      O        0.86660    0.71460    0.28540    1.000
    C76      C        0.97700    0.71890    0.28110    1.000
    O77      O        0.36660    0.21460    0.28540    1.000
    C78      C        0.47700    0.21890    0.28110    1.000
    O79      O        0.36660    0.71460    0.78540    1.000
    C80      C        0.47700    0.71890    0.78110    1.000
    O81      O        0.13340    0.78540    0.78540    1.000
    C82      C        0.02300    0.78110    0.78110    1.000
    O83      O        0.13340    0.28540    0.28540    1.000
    C84      C        0.02300    0.28110    0.28110    1.000
    O85      O        0.63340    0.78540    0.28540    1.000
    C86      C        0.52300    0.78110    0.28110    1.000
    O87      O        0.63340    0.28540    0.78540    1.000
    C88      C        0.52300    0.28110    0.78110    1.000
    O89      O        0.86660    0.78540    0.21460    1.000
    C90      C        0.97700    0.78110    0.21890    1.000
    O91      O        0.86660    0.28540    0.71460    1.000
    C92      C        0.97700    0.28110    0.71890    1.000
    O93      O        0.36660    0.78540    0.71460    1.000
    C94      C        0.47700    0.78110    0.71890    1.000
    O95      O        0.36660    0.28540    0.21460    1.000
    C96      C        0.47700    0.28110    0.21890    1.000
    O97      O        0.13340    0.21460    0.78540    1.000
    C98      C        0.02300    0.21890    0.78110    1.000
    O99      O        0.13340    0.71460    0.28540    1.000
    C100     C        0.02300    0.71890    0.28110    1.000
    O101     O        0.63340    0.21460    0.28540    1.000
    C102     C        0.52300    0.21890    0.28110    1.000
    O103     O        0.63340    0.71460    0.78540    1.000
    C104     C        0.52300    0.71890    0.78110    1.000
    O105     O        0.86660    0.78540    0.78540    1.000
    C106     C        0.97700    0.78110    0.78110    1.000
    O107     O        0.86660    0.28540    0.28540    1.000
    C108     C        0.97700    0.28110    0.28110    1.000
    O109     O        0.36660    0.78540    0.28540    1.000
    C110     C        0.47700    0.78110    0.28110    1.000
    O111     O        0.36660    0.28540    0.78540    1.000
    C112     C        0.47700    0.28110    0.78110    1.000
    O113     O        0.13340    0.78540    0.21460    1.000
    C114     C        0.02300    0.78110    0.21890    1.000
    O115     O        0.13340    0.28540    0.71460    1.000
    C116     C        0.02300    0.28110    0.71890    1.000
    O117     O        0.63340    0.78540    0.71460    1.000
    C118     C        0.52300    0.78110    0.71890    1.000
    O119     O        0.63340    0.28540    0.21460    1.000
    C120     C        0.52300    0.28110    0.21890    1.000
    O121     O        0.86660    0.21460    0.21460    1.000
    C122     C        0.97700    0.21890    0.21890    1.000
    O123     O        0.86660    0.71460    0.71460    1.000
    C124     C        0.97700    0.71890    0.71890    1.000
    O125     O        0.36660    0.21460    0.71460    1.000
    C126     C        0.47700    0.21890    0.71890    1.000
    O127     O        0.36660    0.71460    0.21460    1.000
    C128     C        0.47700    0.71890    0.21890    1.000
    O129     O        0.21460    0.21460    0.86660    1.000
    C130     C        0.21890    0.21890    0.97700    1.000
    O131     O        0.21460    0.71460    0.36660    1.000
    C132     C        0.21890    0.71890    0.47700    1.000
    O133     O        0.71460    0.21460    0.36660    1.000
    C134     C        0.71890    0.21890    0.47700    1.000
    O135     O        0.71460    0.71460    0.86660    1.000
    C136     C        0.71890    0.71890    0.97700    1.000
    O137     O        0.78540    0.21460    0.13340    1.000
    C138     C        0.78110    0.21890    0.02300    1.000
    O139     O        0.78540    0.71460    0.63340    1.000
    C140     C        0.78110    0.71890    0.52300    1.000
    O141     O        0.28540    0.21460    0.63340    1.000
    C142     C        0.28110    0.21890    0.52300    1.000
    O143     O        0.28540    0.71460    0.13340    1.000
    C144     C        0.28110    0.71890    0.02300    1.000
    O145     O        0.78540    0.78540    0.86660    1.000
    C146     C        0.78110    0.78110    0.97700    1.000
    O147     O        0.78540    0.28540    0.36660    1.000
    C148     C        0.78110    0.28110    0.47700    1.000
    O149     O        0.28540    0.78540    0.36660    1.000
    C150     C        0.28110    0.78110    0.47700    1.000
    O151     O        0.28540    0.28540    0.86660    1.000
    C152     C        0.28110    0.28110    0.97700    1.000
    O153     O        0.21460    0.78540    0.13340    1.000
    C154     C        0.21890    0.78110    0.02300    1.000
    O155     O        0.21460    0.28540    0.63340    1.000
    C156     C        0.21890    0.28110    0.52300    1.000
    O157     O        0.71460    0.78540    0.63340    1.000
    C158     C        0.71890    0.78110    0.52300    1.000
    O159     O        0.71460    0.28540    0.13340    1.000
    C160     C        0.71890    0.28110    0.02300    1.000
    O161     O        0.21460    0.13340    0.78540    1.000
    C162     C        0.21890    0.02300    0.78110    1.000
    O163     O        0.21460    0.63340    0.28540    1.000
    C164     C        0.21890    0.52300    0.28110    1.000
    O165     O        0.71460    0.13340    0.28540    1.000
    C166     C        0.71890    0.02300    0.28110    1.000
    O167     O        0.71460    0.63340    0.78540    1.000
    C168     C        0.71890    0.52300    0.78110    1.000
    O169     O        0.21460    0.86660    0.21460    1.000
    C170     C        0.21890    0.97700    0.21890    1.000
    O171     O        0.21460    0.36660    0.71460    1.000
    C172     C        0.21890    0.47700    0.71890    1.000
    O173     O        0.71460    0.86660    0.71460    1.000
    C174     C        0.71890    0.97700    0.71890    1.000
    O175     O        0.71460    0.36660    0.21460    1.000
    C176     C        0.71890    0.47700    0.21890    1.000
    O177     O        0.78540    0.13340    0.21460    1.000
    C178     C        0.78110    0.02300    0.21890    1.000
    O179     O        0.78540    0.63340    0.71460    1.000
    C180     C        0.78110    0.52300    0.71890    1.000
    O181     O        0.28540    0.13340    0.71460    1.000
    C182     C        0.28110    0.02300    0.71890    1.000
    O183     O        0.28540    0.63340    0.21460    1.000
    C184     C        0.28110    0.52300    0.21890    1.000
    O185     O        0.78540    0.86660    0.78540    1.000
    C186     C        0.78110    0.97700    0.78110    1.000
    O187     O        0.78540    0.36660    0.28540    1.000
    C188     C        0.78110    0.47700    0.28110    1.000
    O189     O        0.28540    0.86660    0.28540    1.000
    C190     C        0.28110    0.97700    0.28110    1.000
    O191     O        0.28540    0.36660    0.78540    1.000
    C192     C        0.28110    0.47700    0.78110    1.000
    O193     O        0.25000    0.25000    0.25000    1.000
    O194     O        0.75000    0.75000    0.25000    1.000
    O195     O        0.75000    0.25000    0.75000    1.000
    O196     O        0.25000    0.75000    0.75000    1.000
    O197     O        0.25000    0.25000    0.75000    1.000
    O198     O        0.75000    0.75000    0.75000    1.000
    O199     O        0.75000    0.25000    0.25000    1.000
    O200     O        0.25000    0.75000    0.25000    1.000
    C201     C        0.25000    0.11520    0.25000    1.000
    C202     C        0.25000    0.05620    0.25000    1.000
    C203     C        0.25000    0.61520    0.75000    1.000
    C204     C        0.25000    0.55620    0.75000    1.000
    C205     C        0.75000    0.88480    0.25000    1.000
    C206     C        0.75000    0.94380    0.25000    1.000
    C207     C        0.75000    0.38480    0.75000    1.000
    C208     C        0.75000    0.44380    0.75000    1.000
    C209     C        0.25000    0.38480    0.25000    1.000
    C210     C        0.25000    0.44380    0.25000    1.000
    C211     C        0.75000    0.11520    0.75000    1.000
    C212     C        0.75000    0.05620    0.75000    1.000
    C213     C        0.75000    0.61520    0.25000    1.000
    C214     C        0.75000    0.55620    0.25000    1.000
    C215     C        0.25000    0.88480    0.75000    1.000
    C216     C        0.25000    0.94380    0.75000    1.000
    C217     C        0.25000    0.25000    0.11520    1.000
    C218     C        0.25000    0.25000    0.05620    1.000
    C219     C        0.25000    0.75000    0.61520    1.000
    C220     C        0.25000    0.75000    0.55620    1.000
    C221     C        0.25000    0.75000    0.88480    1.000
    C222     C        0.25000    0.75000    0.94380    1.000
    C223     C        0.25000    0.25000    0.38480    1.000
    C224     C        0.25000    0.25000    0.44380    1.000
    C225     C        0.75000    0.75000    0.11520    1.000
    C226     C        0.75000    0.75000    0.05620    1.000
    C227     C        0.75000    0.25000    0.61520    1.000
    C228     C        0.75000    0.25000    0.55620    1.000
    C229     C        0.75000    0.25000    0.88480    1.000
    C230     C        0.75000    0.25000    0.94380    1.000
    C231     C        0.75000    0.75000    0.38480    1.000
    C232     C        0.75000    0.75000    0.44380    1.000
    C233     C        0.11520    0.25000    0.25000    1.000
    C234     C        0.05620    0.25000    0.25000    1.000
    C235     C        0.61520    0.25000    0.75000    1.000
    C236     C        0.55620    0.25000    0.75000    1.000
    C237     C        0.88480    0.25000    0.75000    1.000
    C238     C        0.94380    0.25000    0.75000    1.000
    C239     C        0.38480    0.25000    0.25000    1.000
    C240     C        0.44380    0.25000    0.25000    1.000
    C241     C        0.11520    0.75000    0.75000    1.000
    C242     C        0.05620    0.75000    0.75000    1.000
    C243     C        0.61520    0.75000    0.25000    1.000
    C244     C        0.55620    0.75000    0.25000    1.000
    C245     C        0.88480    0.75000    0.25000    1.000
    C246     C        0.94380    0.75000    0.25000    1.000
    C247     C        0.38480    0.75000    0.75000    1.000
    C248     C        0.44380    0.75000    0.75000    1.000
    C249     C        0.11520    0.25000    0.75000    1.000
    C250     C        0.05620    0.25000    0.75000    1.000
    C251     C        0.61520    0.25000    0.25000    1.000
    C252     C        0.55620    0.25000    0.25000    1.000
    C253     C        0.88480    0.75000    0.75000    1.000
    C254     C        0.94380    0.75000    0.75000    1.000
    C255     C        0.88480    0.25000    0.25000    1.000
    C256     C        0.94380    0.25000    0.25000    1.000
    C257     C        0.38480    0.75000    0.25000    1.000
    C258     C        0.44380    0.75000    0.25000    1.000
    C259     C        0.11520    0.75000    0.25000    1.000
    C260     C        0.05620    0.75000    0.25000    1.000
    C261     C        0.61520    0.75000    0.75000    1.000
    C262     C        0.55620    0.75000    0.75000    1.000
    C263     C        0.38480    0.25000    0.75000    1.000
    C264     C        0.44380    0.25000    0.75000    1.000
    C265     C        0.25000    0.25000    0.88480    1.000
    C266     C        0.25000    0.25000    0.94380    1.000
    C267     C        0.25000    0.75000    0.38480    1.000
    C268     C        0.25000    0.75000    0.44380    1.000
    C269     C        0.75000    0.25000    0.11520    1.000
    C270     C        0.75000    0.25000    0.05620    1.000
    C271     C        0.75000    0.75000    0.61520    1.000
    C272     C        0.75000    0.75000    0.55620    1.000
    C273     C        0.25000    0.25000    0.61520    1.000
    C274     C        0.25000    0.25000    0.55620    1.000
    C275     C        0.75000    0.75000    0.88480    1.000
    C276     C        0.75000    0.75000    0.94380    1.000
    C277     C        0.75000    0.25000    0.38480    1.000
    C278     C        0.75000    0.25000    0.44380    1.000
    C279     C        0.25000    0.75000    0.11520    1.000
    C280     C        0.25000    0.75000    0.05620    1.000
    C281     C        0.25000    0.11520    0.75000    1.000
    C282     C        0.25000    0.05620    0.75000    1.000
    C283     C        0.25000    0.61520    0.25000    1.000
    C284     C        0.25000    0.55620    0.25000    1.000
    C285     C        0.25000    0.88480    0.25000    1.000
    C286     C        0.25000    0.94380    0.25000    1.000
    C287     C        0.25000    0.38480    0.75000    1.000
    C288     C        0.25000    0.44380    0.75000    1.000
    C289     C        0.75000    0.11520    0.25000    1.000
    C290     C        0.75000    0.05620    0.25000    1.000
    C291     C        0.75000    0.61520    0.75000    1.000
    C292     C        0.75000    0.55620    0.75000    1.000
    C293     C        0.75000    0.88480    0.75000    1.000
    C294     C        0.75000    0.94380    0.75000    1.000
    C295     C        0.75000    0.38480    0.25000    1.000
    C296     C        0.75000    0.44380    0.25000    1.000
    Zn297    Zn       0.20639    0.20639    0.20639    1.000
    Zn298    Zn       0.20639    0.70639    0.70639    1.000
    Zn299    Zn       0.70639    0.20639    0.70639    1.000
    Zn300    Zn       0.70639    0.70639    0.20639    1.000
    Zn301    Zn       0.79361    0.79361    0.20639    1.000
    Zn302    Zn       0.79361    0.29361    0.70639    1.000
    Zn303    Zn       0.29361    0.79361    0.70639    1.000
    Zn304    Zn       0.29361    0.29361    0.20639    1.000
    Zn305    Zn       0.79361    0.20639    0.79361    1.000
    Zn306    Zn       0.79361    0.70639    0.29361    1.000
    Zn307    Zn       0.29361    0.20639    0.29361    1.000
    Zn308    Zn       0.29361    0.70639    0.79361    1.000
    Zn309    Zn       0.20639    0.79361    0.79361    1.000
    Zn310    Zn       0.20639    0.29361    0.29361    1.000
    Zn311    Zn       0.70639    0.79361    0.29361    1.000
    Zn312    Zn       0.70639    0.29361    0.79361    1.000
    Zn313    Zn       0.20639    0.20639    0.79361    1.000
    Zn314    Zn       0.20639    0.70639    0.29361    1.000
    Zn315    Zn       0.70639    0.20639    0.29361    1.000
    Zn316    Zn       0.70639    0.70639    0.79361    1.000
    Zn317    Zn       0.79361    0.79361    0.79361    1.000
    Zn318    Zn       0.79361    0.29361    0.29361    1.000
    Zn319    Zn       0.29361    0.79361    0.29361    1.000
    Zn320    Zn       0.29361    0.29361    0.79361    1.000
    Zn321    Zn       0.20639    0.79361    0.20639    1.000
    Zn322    Zn       0.20639    0.29361    0.70639    1.000
    Zn323    Zn       0.70639    0.79361    0.70639    1.000
    Zn324    Zn       0.70639    0.29361    0.20639    1.000
    Zn325    Zn       0.79361    0.20639    0.20639    1.000
    Zn326    Zn       0.79361    0.70639    0.70639    1.000
    Zn327    Zn       0.29361    0.20639    0.70639    1.000
    Zn328    Zn       0.29361    0.70639    0.20639    1.000
    H329     H        0.18997    0.04033    0.18997    1.000
    H330     H        0.18997    0.54033    0.68997    1.000
    H331     H        0.68997    0.04033    0.68997    1.000
    H332     H        0.68997    0.54033    0.18997    1.000
    H333     H        0.81003    0.95967    0.18997    1.000
    H334     H        0.81003    0.45967    0.68997    1.000
    H335     H        0.31003    0.95967    0.68997    1.000
    H336     H        0.31003    0.45967    0.18997    1.000
    H337     H        0.81003    0.04033    0.81003    1.000
    H338     H        0.81003    0.54033    0.31003    1.000
    H339     H        0.31003    0.04033    0.31003    1.000
    H340     H        0.31003    0.54033    0.81003    1.000
    H341     H        0.18997    0.95967    0.81003    1.000
    H342     H        0.18997    0.45967    0.31003    1.000
    H343     H        0.68997    0.95967    0.31003    1.000
    H344     H        0.68997    0.45967    0.81003    1.000
    H345     H        0.18997    0.18997    0.04033    1.000
    H346     H        0.18997    0.68997    0.54033    1.000
    H347     H        0.68997    0.18997    0.54033    1.000
    H348     H        0.68997    0.68997    0.04033    1.000
    H349     H        0.18997    0.81003    0.95967    1.000
    H350     H        0.18997    0.31003    0.45967    1.000
    H351     H        0.68997    0.81003    0.45967    1.000
    H352     H        0.68997    0.31003    0.95967    1.000
    H353     H        0.81003    0.81003    0.04033    1.000
    H354     H        0.81003    0.31003    0.54033    1.000
    H355     H        0.31003    0.81003    0.54033    1.000
    H356     H        0.31003    0.31003    0.04033    1.000
    H357     H        0.81003    0.18997    0.95967    1.000
    H358     H        0.81003    0.68997    0.45967    1.000
    H359     H        0.31003    0.18997    0.45967    1.000
    H360     H        0.31003    0.68997    0.95967    1.000
    H361     H        0.04033    0.18997    0.18997    1.000
    H362     H        0.04033    0.68997    0.68997    1.000
    H363     H        0.54033    0.18997    0.68997    1.000
    H364     H        0.54033    0.68997    0.18997    1.000
    H365     H        0.95967    0.18997    0.81003    1.000
    H366     H        0.95967    0.68997    0.31003    1.000
    H367     H        0.45967    0.18997    0.31003    1.000
    H368     H        0.45967    0.68997    0.81003    1.000
    H369     H        0.04033    0.81003    0.81003    1.000
    H370     H        0.04033    0.31003    0.31003    1.000
    H371     H        0.54033    0.81003    0.31003    1.000
    H372     H        0.54033    0.31003    0.81003    1.000
    H373     H        0.95967    0.81003    0.18997    1.000
    H374     H        0.95967    0.31003    0.68997    1.000
    H375     H        0.45967    0.81003    0.68997    1.000
    H376     H        0.45967    0.31003    0.18997    1.000
    H377     H        0.04033    0.18997    0.81003    1.000
    H378     H        0.04033    0.68997    0.31003    1.000
    H379     H        0.54033    0.18997    0.31003    1.000
    H380     H        0.54033    0.68997    0.81003    1.000
    H381     H        0.95967    0.81003    0.81003    1.000
    H382     H        0.95967    0.31003    0.31003    1.000
    H383     H        0.45967    0.81003    0.31003    1.000
    H384     H        0.45967    0.31003    0.81003    1.000
    H385     H        0.04033    0.81003    0.18997    1.000
    H386     H        0.04033    0.31003    0.68997    1.000
    H387     H        0.54033    0.81003    0.68997    1.000
    H388     H        0.54033    0.31003    0.18997    1.000
    H389     H        0.95967    0.18997    0.18997    1.000
    H390     H        0.95967    0.68997    0.68997    1.000
    H391     H        0.45967    0.18997    0.68997    1.000
    H392     H        0.45967    0.68997    0.18997    1.000
    H393     H        0.18997    0.18997    0.95967    1.000
    H394     H        0.18997    0.68997    0.45967    1.000
    H395     H        0.68997    0.18997    0.45967    1.000
    H396     H        0.68997    0.68997    0.95967    1.000
    H397     H        0.81003    0.18997    0.04033    1.000
    H398     H        0.81003    0.68997    0.54033    1.000
    H399     H        0.31003    0.18997    0.54033    1.000
    H400     H        0.31003    0.68997    0.04033    1.000
    H401     H        0.81003    0.81003    0.95967    1.000
    H402     H        0.81003    0.31003    0.45967    1.000
    H403     H        0.31003    0.81003    0.45967    1.000
    H404     H        0.31003    0.31003    0.95967    1.000
    H405     H        0.18997    0.81003    0.04033    1.000
    H406     H        0.18997    0.31003    0.54033    1.000
    H407     H        0.68997    0.81003    0.54033    1.000
    H408     H        0.68997    0.31003    0.04033    1.000
    H409     H        0.18997    0.04033    0.81003    1.000
    H410     H        0.18997    0.54033    0.31003    1.000
    H411     H        0.68997    0.04033    0.31003    1.000
    H412     H        0.68997    0.54033    0.81003    1.000
    H413     H        0.18997    0.95967    0.18997    1.000
    H414     H        0.18997    0.45967    0.68997    1.000
    H415     H        0.68997    0.95967    0.68997    1.000
    H416     H        0.68997    0.45967    0.18997    1.000
    H417     H        0.81003    0.04033    0.18997    1.000
    H418     H        0.81003    0.54033    0.68997    1.000
    H419     H        0.31003    0.04033    0.68997    1.000
    H420     H        0.31003    0.54033    0.18997    1.000
    H421     H        0.81003    0.95967    0.81003    1.000
    H422     H        0.81003    0.45967    0.31003    1.000
    H423     H        0.31003    0.95967    0.31003    1.000
    H424     H        0.31003    0.45967    0.81003    1.000
