# CIF file generated by openbabel 3.1.0, see https://openbabel.org
data_I
_chemical_name_common 'OGOWAJ_clean'
_cell_length_a 20.1319
_cell_length_b 20.1319
_cell_length_c 20.42
_cell_angle_alpha 61.4721
_cell_angle_beta 61.4721
_cell_angle_gamma 65.3388
_space_group_name_H-M_alt 'P 1'
_space_group_name_Hall 'P 1'
loop_
    _symmetry_equiv_pos_as_xyz
    x,y,z
loop_
    _atom_site_label
    _atom_site_type_symbol
    _atom_site_fract_x
    _atom_site_fract_y
    _atom_site_fract_z
    _atom_site_occupancy
    Zn1      Zn       0.82463    0.35333    0.01605    1.000
    Zn2      Zn       0.95604    0.42748    0.91856    1.000
    Zn3      Zn       0.35333    0.82463    0.51605    1.000
    Zn4      Zn       0.42748    0.95604    0.41856    1.000
    H1       H        0.68160    0.49400    0.85920    1.000
    H2       H        0.83840    0.61760    0.77000    1.000
    H3       H        0.77630    0.71570    0.68470    1.000
    H4       H        0.68590    0.81010    0.59390    1.000
    H5       H        0.59430    0.86950    0.53170    1.000
    H6       H        0.49460    0.68880    0.66940    1.000
    H7       H        0.56190    0.53570    0.72970    1.000
    H8       H        0.62000    0.48300    0.77620    1.000
    H9       H        0.65070    0.53470    0.68640    1.000
    H10      H        0.47650    0.60530    0.82790    1.000
    H11      H        0.51190    0.64870    0.84540    1.000
    H12      H        0.52960    0.55740    0.88020    1.000
    H13      H        0.29130    0.09130    0.25640    1.000
    H14      H        0.18040    0.92080    0.41320    1.000
    H15      H        0.08860    0.97720    0.35550    1.000
    H16      H        0.99320    0.07120    0.27020    1.000
    H17      H        0.93020    0.16420    0.18340    1.000
    H18      H        0.10300    0.27500    0.06790    1.000
    H19      H        0.23420    0.24140    0.18170    1.000
    H20      H        0.17460    0.29260    0.13690    1.000
    H21      H        0.14460    0.24840    0.22900    1.000
    H22      H        0.30740    0.16280    0.09450    1.000
    H23      H        0.26580    0.11820    0.08590    1.000
    H24      H        0.25150    0.20910    0.04530    1.000
    H25      H        0.56490    0.98870    0.40510    1.000
    H26      H        0.64750    0.06950    0.32170    1.000
    H27      H        0.51820    0.18140    0.18610    1.000
    H28      H        0.44220    0.09460    0.26950    1.000
    H29      H        0.67060    0.19060    0.27190    1.000
    H30      H        0.75290    0.27130    0.18580    1.000
    H31      H        0.71140    0.29920    0.00930    1.000
    H32      H        0.63510    0.21050    0.08800    1.000
    H33      H        0.49400    0.68160    0.35920    1.000
    H34      H        0.61760    0.83840    0.27000    1.000
    H35      H        0.71570    0.77630    0.18470    1.000
    H36      H        0.81010    0.68590    0.09390    1.000
    H37      H        0.86950    0.59430    0.03170    1.000
    H38      H        0.68880    0.49460    0.16940    1.000
    H39      H        0.53570    0.56190    0.22970    1.000
    H40      H        0.48300    0.62000    0.27620    1.000
    H41      H        0.53470    0.65070    0.18640    1.000
    H42      H        0.60530    0.47650    0.32790    1.000
    H43      H        0.64870    0.51190    0.34540    1.000
    H44      H        0.55740    0.52960    0.38020    1.000
    H45      H        0.09130    0.29130    0.75640    1.000
    H46      H        0.92080    0.18040    0.91320    1.000
    H47      H        0.97720    0.08860    0.85550    1.000
    H48      H        0.07120    0.99320    0.77020    1.000
    H49      H        0.16420    0.93020    0.68340    1.000
    H50      H        0.27500    0.10300    0.56790    1.000
    H51      H        0.24140    0.23420    0.68170    1.000
    H52      H        0.29260    0.17460    0.63690    1.000
    H53      H        0.24840    0.14460    0.72900    1.000
    H54      H        0.16280    0.30740    0.59450    1.000
    H55      H        0.11820    0.26580    0.58590    1.000
    H56      H        0.20910    0.25150    0.54530    1.000
    H57      H        0.98870    0.56490    0.90510    1.000
    H58      H        0.06950    0.64750    0.82170    1.000
    H59      H        0.18140    0.51820    0.68610    1.000
    H60      H        0.09460    0.44220    0.76950    1.000
    H61      H        0.19060    0.67060    0.77190    1.000
    H62      H        0.27130    0.75290    0.68580    1.000
    H63      H        0.29920    0.71140    0.50930    1.000
    H64      H        0.21050    0.63510    0.58800    1.000
    C1       C        0.70100    0.53780    0.82310    1.000
    C2       C        0.76790    0.54630    0.82190    1.000
    C3       C        0.79450    0.61250    0.76990    1.000
    C4       C        0.75820    0.67080    0.71850    1.000
    C5       C        0.64820    0.78560    0.60850    1.000
    C6       C        0.59310    0.82070    0.57160    1.000
    C7       C        0.53650    0.78490    0.59280    1.000
    C8       C        0.53310    0.71270    0.65390    1.000
    C9       C        0.59350    0.59910    0.76030    1.000
    C10      C        0.66520    0.59540    0.77020    1.000
    C11      C        0.69350    0.66270    0.71690    1.000
    C12      C        0.64530    0.71310    0.66740    1.000
    C13      C        0.58630    0.67750    0.69080    1.000
    C14      C        0.60790    0.53190    0.73590    1.000
    C15      C        0.52100    0.60300    0.83550    1.000
    C16      C        0.80860    0.48460    0.87830    1.000
    C17      C        0.47940    0.82380    0.55060    1.000
    C18      C        0.25100    0.06840    0.27490    1.000
    C19      C        0.24480    0.99920    0.34110    1.000
    C20      C        0.18400    0.96680    0.36940    1.000
    C21      C        0.12940    0.00000    0.33520    1.000
    C22      C        0.01460    0.11260    0.22980    1.000
    C23      C        0.97720    0.16780    0.17790    1.000
    C24      C        0.00930    0.23010    0.11630    1.000
    C25      C        0.08060    0.23440    0.10880    1.000
    C26      C        0.19230    0.17490    0.16540    1.000
    C27      C        0.19790    0.10170    0.23810    1.000
    C28      C        0.13450    0.06870    0.26910    1.000
    C29      C        0.08410    0.11790    0.22260    1.000
    C30      C        0.11700    0.17940    0.16150    1.000
    C31      C        0.18580    0.24600    0.17960    1.000
    C32      C        0.26060    0.16540    0.09090    1.000
    C33      C        0.30320    0.96240    0.38260    1.000
    C34      C        0.96740    0.29120    0.06060    1.000
    C35      C        0.55570    0.02770    0.35940    1.000
    C36      C        0.60540    0.07660    0.30970    1.000
    C37      C        0.59280    0.13500    0.24350    1.000
    C38      C        0.52990    0.14150    0.23010    1.000
    C39      C        0.48380    0.08960    0.28110    1.000
    C40      C        0.64460    0.18860    0.19070    1.000
    C41      C        0.67980    0.20940    0.21770    1.000
    C42      C        0.72930    0.25850    0.16530    1.000
    C43      C        0.70640    0.27360    0.06270    1.000
    C44      C        0.65810    0.22210    0.11030    1.000
    C45      C        0.53780    0.70100    0.32310    1.000
    C46      C        0.54630    0.76790    0.32190    1.000
    C47      C        0.61250    0.79450    0.26990    1.000
    C48      C        0.67080    0.75820    0.21850    1.000
    C49      C        0.78560    0.64820    0.10850    1.000
    C50      C        0.82070    0.59310    0.07160    1.000
    C51      C        0.78490    0.53650    0.09280    1.000
    C52      C        0.71270    0.53310    0.15390    1.000
    C53      C        0.59910    0.59350    0.26030    1.000
    C54      C        0.59540    0.66520    0.27020    1.000
    C55      C        0.66270    0.69350    0.21690    1.000
    C56      C        0.71310    0.64530    0.16740    1.000
    C57      C        0.67750    0.58630    0.19080    1.000
    C58      C        0.53190    0.60790    0.23590    1.000
    C59      C        0.60300    0.52100    0.33550    1.000
    C60      C        0.48460    0.80860    0.37830    1.000
    C61      C        0.82380    0.47940    0.05060    1.000
    C62      C        0.06840    0.25100    0.77490    1.000
    C63      C        0.99920    0.24480    0.84110    1.000
    C64      C        0.96680    0.18400    0.86940    1.000
    C65      C        0.00000    0.12940    0.83520    1.000
    C66      C        0.11260    0.01460    0.72980    1.000
    C67      C        0.16780    0.97720    0.67790    1.000
    C68      C        0.23010    0.00930    0.61630    1.000
    C69      C        0.23440    0.08060    0.60880    1.000
    C70      C        0.17490    0.19230    0.66540    1.000
    C71      C        0.10170    0.19790    0.73810    1.000
    C72      C        0.06870    0.13450    0.76910    1.000
    C73      C        0.11790    0.08410    0.72260    1.000
    C74      C        0.17940    0.11700    0.66150    1.000
    C75      C        0.24600    0.18580    0.67960    1.000
    C76      C        0.16540    0.26060    0.59090    1.000
    C77      C        0.96240    0.30320    0.88260    1.000
    C78      C        0.29120    0.96740    0.56060    1.000
    C79      C        0.02770    0.55570    0.85940    1.000
    C80      C        0.07660    0.60540    0.80970    1.000
    C81      C        0.13500    0.59280    0.74350    1.000
    C82      C        0.14150    0.52990    0.73010    1.000
    C83      C        0.08960    0.48380    0.78110    1.000
    C84      C        0.18860    0.64460    0.69070    1.000
    C85      C        0.20940    0.67980    0.71770    1.000
    C86      C        0.25850    0.72930    0.66530    1.000
    C87      C        0.27360    0.70640    0.56270    1.000
    C88      C        0.22210    0.65810    0.61030    1.000
    N1       N        0.49576    0.03336    0.34530    1.000
    N2       N        0.74472    0.28772    0.08900    1.000
    N3       N        0.03336    0.49576    0.84530    1.000
    N4       N        0.28772    0.74472    0.58900    1.000
    O1       O        0.77431    0.43211    0.93430    1.000
    O2       O        0.87271    0.48971    0.86730    1.000
    O3       O        0.48331    0.89031    0.49880    1.000
    O4       O        0.43242    0.78722    0.56920    1.000
    O5       O        0.35427    0.99587    0.35890    1.000
    O6       O        0.29615    0.89835    0.43810    1.000
    O7       O        0.00274    0.33974    0.00100    1.000
    O8       O        0.89899    0.28959    0.07930    1.000
    O9       O        0.43211    0.77431    0.43430    1.000
    O10      O        0.48971    0.87271    0.36730    1.000
    O11      O        0.89031    0.48331    0.99880    1.000
    O12      O        0.78722    0.43242    0.06920    1.000
    O13      O        0.99587    0.35427    0.85890    1.000
    O14      O        0.89835    0.29615    0.93810    1.000
    O15      O        0.33974    0.00274    0.50100    1.000
    O16      O        0.28959    0.89899    0.57930    1.000
    Zn5      Zn       0.64667    0.17537    0.48395    1.000
    Zn6      Zn       0.57252    0.04396    0.58144    1.000
    Zn7      Zn       0.17537    0.64667    0.98395    1.000
    Zn8      Zn       0.04396    0.57252    0.08144    1.000
    H65      H        0.50600    0.31840    0.64080    1.000
    H66      H        0.38240    0.16160    0.73000    1.000
    H67      H        0.28430    0.22370    0.81530    1.000
    H68      H        0.18990    0.31410    0.90610    1.000
    H69      H        0.13050    0.40570    0.96830    1.000
    H70      H        0.31120    0.50540    0.83060    1.000
    H71      H        0.46430    0.43810    0.77030    1.000
    H72      H        0.51700    0.38000    0.72380    1.000
    H73      H        0.46530    0.34930    0.81360    1.000
    H74      H        0.39470    0.52350    0.67210    1.000
    H75      H        0.35130    0.48810    0.65460    1.000
    H76      H        0.44260    0.47040    0.61980    1.000
    H77      H        0.90870    0.70870    0.24360    1.000
    H78      H        0.07920    0.81960    0.08680    1.000
    H79      H        0.02280    0.91140    0.14450    1.000
    H80      H        0.92880    0.00680    0.22980    1.000
    H81      H        0.83580    0.06980    0.31660    1.000
    H82      H        0.72500    0.89700    0.43210    1.000
    H83      H        0.75860    0.76580    0.31830    1.000
    H84      H        0.70740    0.82540    0.36310    1.000
    H85      H        0.75160    0.85540    0.27100    1.000
    H86      H        0.83720    0.69260    0.40550    1.000
    H87      H        0.88180    0.73420    0.41410    1.000
    H88      H        0.79090    0.74850    0.45470    1.000
    H89      H        0.01130    0.43510    0.09490    1.000
    H90      H        0.93050    0.35250    0.17830    1.000
    H91      H        0.81860    0.48180    0.31390    1.000
    H92      H        0.90540    0.55780    0.23050    1.000
    H93      H        0.80940    0.32940    0.22810    1.000
    H94      H        0.72870    0.24710    0.31420    1.000
    H95      H        0.70080    0.28860    0.49070    1.000
    H96      H        0.78950    0.36490    0.41200    1.000
    H97      H        0.31840    0.50600    0.14080    1.000
    H98      H        0.16160    0.38240    0.23000    1.000
    H99      H        0.22370    0.28430    0.31530    1.000
    H100     H        0.31410    0.18990    0.40610    1.000
    H101     H        0.40570    0.13050    0.46830    1.000
    H102     H        0.50540    0.31120    0.33060    1.000
    H103     H        0.43810    0.46430    0.27030    1.000
    H104     H        0.38000    0.51700    0.22380    1.000
    H105     H        0.34930    0.46530    0.31360    1.000
    H106     H        0.52350    0.39470    0.17210    1.000
    H107     H        0.48810    0.35130    0.15460    1.000
    H108     H        0.47040    0.44260    0.11980    1.000
    H109     H        0.70870    0.90870    0.74360    1.000
    H110     H        0.81960    0.07920    0.58680    1.000
    H111     H        0.91140    0.02280    0.64450    1.000
    H112     H        0.00680    0.92880    0.72980    1.000
    H113     H        0.06980    0.83580    0.81660    1.000
    H114     H        0.89700    0.72500    0.93210    1.000
    H115     H        0.76580    0.75860    0.81830    1.000
    H116     H        0.82540    0.70740    0.86310    1.000
    H117     H        0.85540    0.75160    0.77100    1.000
    H118     H        0.69260    0.83720    0.90550    1.000
    H119     H        0.73420    0.88180    0.91410    1.000
    H120     H        0.74850    0.79090    0.95470    1.000
    H121     H        0.43510    0.01130    0.59490    1.000
    H122     H        0.35250    0.93050    0.67830    1.000
    H123     H        0.48180    0.81860    0.81390    1.000
    H124     H        0.55780    0.90540    0.73050    1.000
    H125     H        0.32940    0.80940    0.72810    1.000
    H126     H        0.24710    0.72870    0.81420    1.000
    H127     H        0.28860    0.70080    0.99070    1.000
    H128     H        0.36490    0.78950    0.91200    1.000
    C89      C        0.46220    0.29900    0.67690    1.000
    C90      C        0.45370    0.23210    0.67810    1.000
    C91      C        0.38750    0.20550    0.73010    1.000
    C92      C        0.32920    0.24180    0.78150    1.000
    C93      C        0.21440    0.35180    0.89150    1.000
    C94      C        0.17930    0.40690    0.92840    1.000
    C95      C        0.21510    0.46350    0.90720    1.000
    C96      C        0.28730    0.46690    0.84610    1.000
    C97      C        0.40090    0.40650    0.73970    1.000
    C98      C        0.40460    0.33480    0.72980    1.000
    C99      C        0.33730    0.30650    0.78310    1.000
    C100     C        0.28690    0.35470    0.83260    1.000
    C101     C        0.32250    0.41370    0.80920    1.000
    C102     C        0.46810    0.39210    0.76410    1.000
    C103     C        0.39700    0.47900    0.66450    1.000
    C104     C        0.51540    0.19140    0.62170    1.000
    C105     C        0.17620    0.52060    0.94940    1.000
    C106     C        0.93160    0.74900    0.22510    1.000
    C107     C        0.00080    0.75520    0.15890    1.000
    C108     C        0.03320    0.81600    0.13060    1.000
    C109     C        0.00000    0.87060    0.16480    1.000
    C110     C        0.88740    0.98540    0.27020    1.000
    C111     C        0.83220    0.02280    0.32210    1.000
    C112     C        0.76990    0.99070    0.38370    1.000
    C113     C        0.76560    0.91940    0.39120    1.000
    C114     C        0.82510    0.80770    0.33460    1.000
    C115     C        0.89830    0.80210    0.26190    1.000
    C116     C        0.93130    0.86550    0.23090    1.000
    C117     C        0.88210    0.91590    0.27740    1.000
    C118     C        0.82060    0.88300    0.33850    1.000
    C119     C        0.75400    0.81420    0.32040    1.000
    C120     C        0.83460    0.73940    0.40910    1.000
    C121     C        0.03760    0.69680    0.11740    1.000
    C122     C        0.70880    0.03260    0.43940    1.000
    C123     C        0.97230    0.44430    0.14060    1.000
    C124     C        0.92340    0.39460    0.19030    1.000
    C125     C        0.86500    0.40720    0.25650    1.000
    C126     C        0.85850    0.47010    0.26990    1.000
    C127     C        0.91040    0.51620    0.21890    1.000
    C128     C        0.81140    0.35540    0.30930    1.000
    C129     C        0.79060    0.32020    0.28230    1.000
    C130     C        0.74150    0.27070    0.33470    1.000
    C131     C        0.72640    0.29360    0.43730    1.000
    C132     C        0.77790    0.34190    0.38970    1.000
    C133     C        0.29900    0.46220    0.17690    1.000
    C134     C        0.23210    0.45370    0.17810    1.000
    C135     C        0.20550    0.38750    0.23010    1.000
    C136     C        0.24180    0.32920    0.28150    1.000
    C137     C        0.35180    0.21440    0.39150    1.000
    C138     C        0.40690    0.17930    0.42840    1.000
    C139     C        0.46350    0.21510    0.40720    1.000
    C140     C        0.46690    0.28730    0.34610    1.000
    C141     C        0.40650    0.40090    0.23970    1.000
    C142     C        0.33480    0.40460    0.22980    1.000
    C143     C        0.30650    0.33730    0.28310    1.000
    C144     C        0.35470    0.28690    0.33260    1.000
    C145     C        0.41370    0.32250    0.30920    1.000
    C146     C        0.39210    0.46810    0.26410    1.000
    C147     C        0.47900    0.39700    0.16450    1.000
    C148     C        0.19140    0.51540    0.12170    1.000
    C149     C        0.52060    0.17620    0.44940    1.000
    C150     C        0.74900    0.93160    0.72510    1.000
    C151     C        0.75520    0.00080    0.65890    1.000
    C152     C        0.81600    0.03320    0.63060    1.000
    C153     C        0.87060    0.00000    0.66480    1.000
    C154     C        0.98540    0.88740    0.77020    1.000
    C155     C        0.02280    0.83220    0.82210    1.000
    C156     C        0.99070    0.76990    0.88370    1.000
    C157     C        0.91940    0.76560    0.89120    1.000
    C158     C        0.80770    0.82510    0.83460    1.000
    C159     C        0.80210    0.89830    0.76190    1.000
    C160     C        0.86550    0.93130    0.73090    1.000
    C161     C        0.91590    0.88210    0.77740    1.000
    C162     C        0.88300    0.82060    0.83850    1.000
    C163     C        0.81420    0.75400    0.82040    1.000
    C164     C        0.73940    0.83460    0.90910    1.000
    C165     C        0.69680    0.03760    0.61740    1.000
    C166     C        0.03260    0.70880    0.93940    1.000
    C167     C        0.44430    0.97230    0.64060    1.000
    C168     C        0.39460    0.92340    0.69030    1.000
    C169     C        0.40720    0.86500    0.75650    1.000
    C170     C        0.47010    0.85850    0.76990    1.000
    C171     C        0.51620    0.91040    0.71890    1.000
    C172     C        0.35540    0.81140    0.80930    1.000
    C173     C        0.32020    0.79060    0.78230    1.000
    C174     C        0.27070    0.74150    0.83470    1.000
    C175     C        0.29360    0.72640    0.93730    1.000
    C176     C        0.34190    0.77790    0.88970    1.000
    N5       N        0.96664    0.50424    0.15470    1.000
    N6       N        0.71228    0.25528    0.41100    1.000
    N7       N        0.50424    0.96664    0.65470    1.000
    N8       N        0.25528    0.71228    0.91100    1.000
    O17      O        0.56789    0.22569    0.56570    1.000
    O18      O        0.51029    0.12729    0.63270    1.000
    O19      O        0.10969    0.51669    0.00120    1.000
    O20      O        0.21278    0.56758    0.93080    1.000
    O21      O        0.00413    0.64573    0.14110    1.000
    O22      O        0.10165    0.70385    0.06190    1.000
    O23      O        0.66026    0.99726    0.49900    1.000
    O24      O        0.71041    0.10101    0.42070    1.000
    O25      O        0.22569    0.56789    0.06570    1.000
    O26      O        0.12729    0.51029    0.13270    1.000
    O27      O        0.51669    0.10969    0.50120    1.000
    O28      O        0.56758    0.21278    0.43080    1.000
    O29      O        0.64573    0.00413    0.64110    1.000
    O30      O        0.70385    0.10165    0.56190    1.000
    O31      O        0.99726    0.66026    0.99900    1.000
    O32      O        0.10101    0.71041    0.92070    1.000
