# CIF file generated by openbabel 3.1.0, see https://openbabel.org
data_I
_chemical_name_common 'image0'
_cell_length_a 28.457
_cell_length_b 28.457
_cell_length_c 28.457
_cell_angle_alpha 90
_cell_angle_beta 90
_cell_angle_gamma 90
_space_group_name_H-M_alt 'P 1'
_space_group_name_Hall 'P 1'
loop_
    _symmetry_equiv_pos_as_xyz
    x,y,z
loop_
    _atom_site_label
    _atom_site_type_symbol
    _atom_site_fract_x
    _atom_site_fract_y
    _atom_site_fract_z
    _atom_site_occupancy
    Ni1      Ni       0.34940    0.61960    0.89920    1.000
    Ni2      Ni       0.34040    0.62810    0.92340    1.000
    Ni3      Ni       0.34410    0.64290    0.92310    1.000
    Ni4      Ni       0.38010    0.63220    0.90340    1.000
    Ni5      Ni       0.36300    0.60270    0.92440    1.000
    Ni6      Ni       0.36230    0.62280    0.93000    1.000
    Ni7      Ni       0.35610    0.65340    0.88840    1.000
    O1       O        0.39450    0.58440    0.93980    1.000
    O2       O        0.38870    0.59230    0.95300    1.000
    O3       O        0.45420    0.63120    0.95250    1.000
    O4       O        0.45970    0.62690    0.94100    1.000
    C1       C        0.43110    0.59570    0.96310    1.000
    C2       C        0.44530    0.56900    0.00340    1.000
    C3       C        0.48260    0.58090    0.03030    1.000
    O5       O        0.36780    0.57940    0.84120    1.000
    O6       O        0.40830    0.65990    0.87490    1.000
    C4       C        0.41320    0.59100    0.82540    1.000
    C5       C        0.42050    0.60620    0.83120    1.000
    C6       C        0.41620    0.57440    0.77440    1.000
    C7       C        0.43100    0.59040    0.78100    1.000
    N1       N        0.33450    0.66810    0.95580    1.000
    C8       C        0.32830    0.65570    0.99950    1.000
    C9       C        0.31600    0.68530    0.03350    1.000
    C10      C        0.30910    0.73070    0.02590    1.000
    C11      C        0.31600    0.74340    0.98170    1.000
    C12      C        0.32800    0.71300    0.94830    1.000
    N2       N        0.33090    0.67940    0.95070    1.000
    C13      C        0.32400    0.67060    0.99520    1.000
    C14      C        0.31410    0.70320    0.02710    1.000
    C15      C        0.31030    0.74840    0.01620    1.000
    C16      C        0.31740    0.75740    0.97110    1.000
    C17      C        0.32670    0.72390    0.94000    1.000
    H1       H        0.50000    0.60900    0.02200    1.000
    H2       H        0.43600    0.57500    0.84400    1.000
    H3       H        0.44200    0.59100    0.85200    1.000
    H4       H        0.41200    0.54100    0.77300    1.000
    H5       H        0.44600    0.58300    0.76200    1.000
    H6       H        0.39200    0.58900    0.75600    1.000
    H7       H        0.42800    0.55700    0.77900    1.000
    H8       H        0.46200    0.60000    0.77300    1.000
    H9       H        0.40900    0.60500    0.76000    1.000
    H10      H        0.33300    0.62300    0.00800    1.000
    H11      H        0.31200    0.67300    0.06500    1.000
    H12      H        0.30000    0.75200    0.05000    1.000
    H13      H        0.31200    0.77600    0.97300    1.000
    H14      H        0.33200    0.72500    0.91700    1.000
    H15      H        0.32600    0.63800    0.00500    1.000
    H16      H        0.31000    0.69400    0.05900    1.000
    H17      H        0.30300    0.77200    0.03900    1.000
    H18      H        0.31600    0.78900    0.96000    1.000
    H19      H        0.33000    0.73300    0.90800    1.000
    Ni8      Ni       0.15060    0.38040    0.39920    1.000
    Ni9      Ni       0.15960    0.37190    0.42340    1.000
    Ni10     Ni       0.15590    0.35710    0.42310    1.000
    Ni11     Ni       0.11990    0.36780    0.40340    1.000
    Ni12     Ni       0.13700    0.39730    0.42440    1.000
    Ni13     Ni       0.13770    0.37720    0.43000    1.000
    Ni14     Ni       0.14390    0.34660    0.38840    1.000
    O7       O        0.10550    0.41560    0.43980    1.000
    O8       O        0.11130    0.40770    0.45300    1.000
    O9       O        0.04580    0.36880    0.45250    1.000
    O10      O        0.04030    0.37310    0.44100    1.000
    C18      C        0.06890    0.40430    0.46310    1.000
    C19      C        0.05470    0.43100    0.50340    1.000
    C20      C        0.01740    0.41910    0.53030    1.000
    O11      O        0.13220    0.42060    0.34120    1.000
    O12      O        0.09170    0.34010    0.37490    1.000
    C21      C        0.08680    0.40900    0.32540    1.000
    C22      C        0.07950    0.39380    0.33120    1.000
    C23      C        0.08380    0.42560    0.27440    1.000
    C24      C        0.06900    0.40960    0.28100    1.000
    N3       N        0.16550    0.33190    0.45580    1.000
    C25      C        0.17170    0.34430    0.49950    1.000
    C26      C        0.18400    0.31470    0.53350    1.000
    C27      C        0.19090    0.26930    0.52590    1.000
    C28      C        0.18400    0.25660    0.48170    1.000
    C29      C        0.17200    0.28700    0.44830    1.000
    N4       N        0.16910    0.32060    0.45070    1.000
    C30      C        0.17600    0.32940    0.49520    1.000
    C31      C        0.18590    0.29680    0.52710    1.000
    C32      C        0.18970    0.25160    0.51620    1.000
    C33      C        0.18260    0.24260    0.47110    1.000
    C34      C        0.17330    0.27610    0.44000    1.000
    H20      H        0.00000    0.39100    0.52200    1.000
    H21      H        0.06400    0.42500    0.34400    1.000
    H22      H        0.05800    0.40900    0.35200    1.000
    H23      H        0.08800    0.45900    0.27300    1.000
    H24      H        0.05400    0.41700    0.26200    1.000
    H25      H        0.10800    0.41100    0.25600    1.000
    H26      H        0.07200    0.44300    0.27900    1.000
    H27      H        0.03800    0.40000    0.27300    1.000
    H28      H        0.09100    0.39500    0.26000    1.000
    H29      H        0.16700    0.37700    0.50800    1.000
    H30      H        0.18800    0.32700    0.56500    1.000
    H31      H        0.20000    0.24800    0.55000    1.000
    H32      H        0.18800    0.22400    0.47300    1.000
    H33      H        0.16800    0.27500    0.41700    1.000
    H34      H        0.17400    0.36200    0.50500    1.000
    H35      H        0.19000    0.30600    0.55900    1.000
    H36      H        0.19700    0.22800    0.53900    1.000
    H37      H        0.18400    0.21100    0.46000    1.000
    H38      H        0.17000    0.26700    0.40800    1.000
    Ni15     Ni       0.65060    0.11960    0.60080    1.000
    Ni16     Ni       0.65960    0.12810    0.57660    1.000
    Ni17     Ni       0.65590    0.14290    0.57690    1.000
    Ni18     Ni       0.61990    0.13220    0.59660    1.000
    Ni19     Ni       0.63700    0.10270    0.57560    1.000
    Ni20     Ni       0.63770    0.12280    0.57000    1.000
    Ni21     Ni       0.64390    0.15340    0.61160    1.000
    O13      O        0.60550    0.08440    0.56020    1.000
    O14      O        0.61130    0.09230    0.54700    1.000
    O15      O        0.54580    0.13120    0.54750    1.000
    O16      O        0.54030    0.12690    0.55900    1.000
    C35      C        0.56890    0.09570    0.53690    1.000
    C36      C        0.55470    0.06900    0.49660    1.000
    C37      C        0.51740    0.08090    0.46970    1.000
    O17      O        0.63220    0.07940    0.65880    1.000
    O18      O        0.59170    0.15990    0.62510    1.000
    C38      C        0.58680    0.09100    0.67460    1.000
    C39      C        0.57950    0.10620    0.66880    1.000
    C40      C        0.58380    0.07440    0.72560    1.000
    C41      C        0.56900    0.09040    0.71900    1.000
    N5       N        0.66550    0.16810    0.54420    1.000
    C42      C        0.67170    0.15570    0.50050    1.000
    C43      C        0.68400    0.18530    0.46650    1.000
    C44      C        0.69090    0.23070    0.47410    1.000
    C45      C        0.68400    0.24340    0.51830    1.000
    C46      C        0.67200    0.21300    0.55170    1.000
    N6       N        0.66910    0.17940    0.54930    1.000
    C47      C        0.67600    0.17060    0.50480    1.000
    C48      C        0.68590    0.20320    0.47290    1.000
    C49      C        0.68970    0.24840    0.48380    1.000
    C50      C        0.68260    0.25740    0.52890    1.000
    C51      C        0.67330    0.22390    0.56000    1.000
    H39      H        0.50000    0.10900    0.47800    1.000
    H40      H        0.56400    0.07500    0.65600    1.000
    H41      H        0.55800    0.09100    0.64800    1.000
    H42      H        0.58800    0.04100    0.72700    1.000
    H43      H        0.55400    0.08300    0.73800    1.000
    H44      H        0.60800    0.08900    0.74400    1.000
    H45      H        0.57200    0.05700    0.72100    1.000
    H46      H        0.53800    0.10000    0.72700    1.000
    H47      H        0.59100    0.10500    0.74000    1.000
    H48      H        0.66700    0.12300    0.49200    1.000
    H49      H        0.68800    0.17300    0.43500    1.000
    H50      H        0.70000    0.25200    0.45000    1.000
    H51      H        0.68800    0.27600    0.52700    1.000
    H52      H        0.66800    0.22500    0.58300    1.000
    H53      H        0.67400    0.13800    0.49500    1.000
    H54      H        0.69000    0.19400    0.44100    1.000
    H55      H        0.69700    0.27200    0.46100    1.000
    H56      H        0.68400    0.28900    0.54000    1.000
    H57      H        0.67000    0.23300    0.59200    1.000
    Ni22     Ni       0.84940    0.88040    0.10080    1.000
    Ni23     Ni       0.84040    0.87190    0.07660    1.000
    Ni24     Ni       0.84410    0.85710    0.07690    1.000
    Ni25     Ni       0.88010    0.86780    0.09660    1.000
    Ni26     Ni       0.86300    0.89730    0.07560    1.000
    Ni27     Ni       0.86230    0.87720    0.07000    1.000
    Ni28     Ni       0.85610    0.84660    0.11160    1.000
    O19      O        0.89450    0.91560    0.06020    1.000
    O20      O        0.88870    0.90770    0.04700    1.000
    O21      O        0.95420    0.86880    0.04750    1.000
    O22      O        0.95970    0.87310    0.05900    1.000
    C52      C        0.93110    0.90430    0.03690    1.000
    C53      C        0.94530    0.93100    0.99660    1.000
    C54      C        0.98260    0.91910    0.96970    1.000
    O23      O        0.86780    0.92060    0.15880    1.000
    O24      O        0.90830    0.84010    0.12510    1.000
    C55      C        0.91320    0.90900    0.17460    1.000
    C56      C        0.92050    0.89380    0.16880    1.000
    C57      C        0.91620    0.92560    0.22560    1.000
    C58      C        0.93100    0.90960    0.21900    1.000
    N7       N        0.83450    0.83190    0.04420    1.000
    C59      C        0.82830    0.84430    0.00050    1.000
    C60      C        0.81600    0.81470    0.96650    1.000
    C61      C        0.80910    0.76930    0.97410    1.000
    C62      C        0.81600    0.75660    0.01830    1.000
    C63      C        0.82800    0.78700    0.05170    1.000
    N8       N        0.83090    0.82060    0.04930    1.000
    C64      C        0.82400    0.82940    0.00480    1.000
    C65      C        0.81410    0.79680    0.97290    1.000
    C66      C        0.81030    0.75160    0.98380    1.000
    C67      C        0.81740    0.74260    0.02890    1.000
    C68      C        0.82670    0.77610    0.06000    1.000
    H58      H        0.00000    0.89100    0.97800    1.000
    H59      H        0.93600    0.92500    0.15600    1.000
    H60      H        0.94200    0.90900    0.14800    1.000
    H61      H        0.91200    0.95900    0.22700    1.000
    H62      H        0.94600    0.91700    0.23800    1.000
    H63      H        0.89200    0.91100    0.24400    1.000
    H64      H        0.92800    0.94300    0.22100    1.000
    H65      H        0.96200    0.90000    0.22700    1.000
    H66      H        0.90900    0.89500    0.24000    1.000
    H67      H        0.83300    0.87700    0.99200    1.000
    H68      H        0.81200    0.82700    0.93500    1.000
    H69      H        0.80000    0.74800    0.95000    1.000
    H70      H        0.81200    0.72400    0.02700    1.000
    H71      H        0.83200    0.77500    0.08300    1.000
    H72      H        0.82600    0.86200    0.99500    1.000
    H73      H        0.81000    0.80600    0.94100    1.000
    H74      H        0.80300    0.72800    0.96100    1.000
    H75      H        0.81600    0.71100    0.04000    1.000
    H76      H        0.83000    0.76700    0.09200    1.000
    Ni29     Ni       0.89920    0.34940    0.61960    1.000
    Ni30     Ni       0.92340    0.34040    0.62810    1.000
    Ni31     Ni       0.92310    0.34410    0.64290    1.000
    Ni32     Ni       0.90340    0.38010    0.63220    1.000
    Ni33     Ni       0.92440    0.36300    0.60270    1.000
    Ni34     Ni       0.93000    0.36230    0.62280    1.000
    Ni35     Ni       0.88840    0.35610    0.65340    1.000
    O25      O        0.93980    0.39450    0.58440    1.000
    O26      O        0.95300    0.38870    0.59230    1.000
    O27      O        0.95250    0.45420    0.63120    1.000
    O28      O        0.94100    0.45970    0.62690    1.000
    C69      C        0.96310    0.43110    0.59570    1.000
    C70      C        0.00340    0.44530    0.56900    1.000
    C71      C        0.03030    0.48260    0.58090    1.000
    O29      O        0.84120    0.36780    0.57940    1.000
    O30      O        0.87490    0.40830    0.65990    1.000
    C72      C        0.82540    0.41320    0.59100    1.000
    C73      C        0.83120    0.42050    0.60620    1.000
    C74      C        0.77440    0.41620    0.57440    1.000
    C75      C        0.78100    0.43100    0.59040    1.000
    N9       N        0.95580    0.33450    0.66810    1.000
    C76      C        0.99950    0.32830    0.65570    1.000
    C77      C        0.03350    0.31600    0.68530    1.000
    C78      C        0.02590    0.30910    0.73070    1.000
    C79      C        0.98170    0.31600    0.74340    1.000
    C80      C        0.94830    0.32800    0.71300    1.000
    N10      N        0.95070    0.33090    0.67940    1.000
    C81      C        0.99520    0.32400    0.67060    1.000
    C82      C        0.02710    0.31410    0.70320    1.000
    C83      C        0.01620    0.31030    0.74840    1.000
    C84      C        0.97110    0.31740    0.75740    1.000
    C85      C        0.94000    0.32670    0.72390    1.000
    H77      H        0.02200    0.50000    0.60900    1.000
    H78      H        0.84400    0.43600    0.57500    1.000
    H79      H        0.85200    0.44200    0.59100    1.000
    H80      H        0.77300    0.41200    0.54100    1.000
    H81      H        0.76200    0.44600    0.58300    1.000
    H82      H        0.75600    0.39200    0.58900    1.000
    H83      H        0.77900    0.42800    0.55700    1.000
    H84      H        0.77300    0.46200    0.60000    1.000
    H85      H        0.76000    0.40900    0.60500    1.000
    H86      H        0.00800    0.33300    0.62300    1.000
    H87      H        0.06500    0.31200    0.67300    1.000
    H88      H        0.05000    0.30000    0.75200    1.000
    H89      H        0.97300    0.31200    0.77600    1.000
    H90      H        0.91700    0.33200    0.72500    1.000
    H91      H        0.00500    0.32600    0.63800    1.000
    H92      H        0.05900    0.31000    0.69400    1.000
    H93      H        0.03900    0.30300    0.77200    1.000
    H94      H        0.96000    0.31600    0.78900    1.000
    H95      H        0.90800    0.33000    0.73300    1.000
    Ni36     Ni       0.39920    0.15060    0.38040    1.000
    Ni37     Ni       0.42340    0.15960    0.37190    1.000
    Ni38     Ni       0.42310    0.15590    0.35710    1.000
    Ni39     Ni       0.40340    0.11990    0.36780    1.000
    Ni40     Ni       0.42440    0.13700    0.39730    1.000
    Ni41     Ni       0.43000    0.13770    0.37720    1.000
    Ni42     Ni       0.38840    0.14390    0.34660    1.000
    O31      O        0.43980    0.10550    0.41560    1.000
    O32      O        0.45300    0.11130    0.40770    1.000
    O33      O        0.45250    0.04580    0.36880    1.000
    O34      O        0.44100    0.04030    0.37310    1.000
    C86      C        0.46310    0.06890    0.40430    1.000
    C87      C        0.50340    0.05470    0.43100    1.000
    C88      C        0.53030    0.01740    0.41910    1.000
    O35      O        0.34120    0.13220    0.42060    1.000
    O36      O        0.37490    0.09170    0.34010    1.000
    C89      C        0.32540    0.08680    0.40900    1.000
    C90      C        0.33120    0.07950    0.39380    1.000
    C91      C        0.27440    0.08380    0.42560    1.000
    C92      C        0.28100    0.06900    0.40960    1.000
    N11      N        0.45580    0.16550    0.33190    1.000
    C93      C        0.49950    0.17170    0.34430    1.000
    C94      C        0.53350    0.18400    0.31470    1.000
    C95      C        0.52590    0.19090    0.26930    1.000
    C96      C        0.48170    0.18400    0.25660    1.000
    C97      C        0.44830    0.17200    0.28700    1.000
    N12      N        0.45070    0.16910    0.32060    1.000
    C98      C        0.49520    0.17600    0.32940    1.000
    C99      C        0.52710    0.18590    0.29680    1.000
    C100     C        0.51620    0.18970    0.25160    1.000
    C101     C        0.47110    0.18260    0.24260    1.000
    C102     C        0.44000    0.17330    0.27610    1.000
    H96      H        0.52200    0.00000    0.39100    1.000
    H97      H        0.34400    0.06400    0.42500    1.000
    H98      H        0.35200    0.05800    0.40900    1.000
    H99      H        0.27300    0.08800    0.45900    1.000
    H100     H        0.26200    0.05400    0.41700    1.000
    H101     H        0.25600    0.10800    0.41100    1.000
    H102     H        0.27900    0.07200    0.44300    1.000
    H103     H        0.27300    0.03800    0.40000    1.000
    H104     H        0.26000    0.09100    0.39500    1.000
    H105     H        0.50800    0.16700    0.37700    1.000
    H106     H        0.56500    0.18800    0.32700    1.000
    H107     H        0.55000    0.20000    0.24800    1.000
    H108     H        0.47300    0.18800    0.22400    1.000
    H109     H        0.41700    0.16800    0.27500    1.000
    H110     H        0.50500    0.17400    0.36200    1.000
    H111     H        0.55900    0.19000    0.30600    1.000
    H112     H        0.53900    0.19700    0.22800    1.000
    H113     H        0.46000    0.18400    0.21100    1.000
    H114     H        0.40800    0.17000    0.26700    1.000
    Ni43     Ni       0.60080    0.65060    0.11960    1.000
    Ni44     Ni       0.57660    0.65960    0.12810    1.000
    Ni45     Ni       0.57690    0.65590    0.14290    1.000
    Ni46     Ni       0.59660    0.61990    0.13220    1.000
    Ni47     Ni       0.57560    0.63700    0.10270    1.000
    Ni48     Ni       0.57000    0.63770    0.12280    1.000
    Ni49     Ni       0.61160    0.64390    0.15340    1.000
    O37      O        0.56020    0.60550    0.08440    1.000
    O38      O        0.54700    0.61130    0.09230    1.000
    O39      O        0.54750    0.54580    0.13120    1.000
    O40      O        0.55900    0.54030    0.12690    1.000
    C103     C        0.53690    0.56890    0.09570    1.000
    C104     C        0.49660    0.55470    0.06900    1.000
    C105     C        0.46970    0.51740    0.08090    1.000
    O41      O        0.65880    0.63220    0.07940    1.000
    O42      O        0.62510    0.59170    0.15990    1.000
    C106     C        0.67460    0.58680    0.09100    1.000
    C107     C        0.66880    0.57950    0.10620    1.000
    C108     C        0.72560    0.58380    0.07440    1.000
    C109     C        0.71900    0.56900    0.09040    1.000
    N13      N        0.54420    0.66550    0.16810    1.000
    C110     C        0.50050    0.67170    0.15570    1.000
    C111     C        0.46650    0.68400    0.18530    1.000
    C112     C        0.47410    0.69090    0.23070    1.000
    C113     C        0.51830    0.68400    0.24340    1.000
    C114     C        0.55170    0.67200    0.21300    1.000
    N14      N        0.54930    0.66910    0.17940    1.000
    C115     C        0.50480    0.67600    0.17060    1.000
    C116     C        0.47290    0.68590    0.20320    1.000
    C117     C        0.48380    0.68970    0.24840    1.000
    C118     C        0.52890    0.68260    0.25740    1.000
    C119     C        0.56000    0.67330    0.22390    1.000
    H115     H        0.47800    0.50000    0.10900    1.000
    H116     H        0.65600    0.56400    0.07500    1.000
    H117     H        0.64800    0.55800    0.09100    1.000
    H118     H        0.72700    0.58800    0.04100    1.000
    H119     H        0.73800    0.55400    0.08300    1.000
    H120     H        0.74400    0.60800    0.08900    1.000
    H121     H        0.72100    0.57200    0.05700    1.000
    H122     H        0.72700    0.53800    0.10000    1.000
    H123     H        0.74000    0.59100    0.10500    1.000
    H124     H        0.49200    0.66700    0.12300    1.000
    H125     H        0.43500    0.68800    0.17300    1.000
    H126     H        0.45000    0.70000    0.25200    1.000
    H127     H        0.52700    0.68800    0.27600    1.000
    H128     H        0.58300    0.66800    0.22500    1.000
    H129     H        0.49500    0.67400    0.13800    1.000
    H130     H        0.44100    0.69000    0.19400    1.000
    H131     H        0.46100    0.69700    0.27200    1.000
    H132     H        0.54000    0.68400    0.28900    1.000
    H133     H        0.59200    0.67000    0.23300    1.000
    Ni50     Ni       0.10080    0.84940    0.88040    1.000
    Ni51     Ni       0.07660    0.84040    0.87190    1.000
    Ni52     Ni       0.07690    0.84410    0.85710    1.000
    Ni53     Ni       0.09660    0.88010    0.86780    1.000
    Ni54     Ni       0.07560    0.86300    0.89730    1.000
    Ni55     Ni       0.07000    0.86230    0.87720    1.000
    Ni56     Ni       0.11160    0.85610    0.84660    1.000
    O43      O        0.06020    0.89450    0.91560    1.000
    O44      O        0.04700    0.88870    0.90770    1.000
    O45      O        0.04750    0.95420    0.86880    1.000
    O46      O        0.05900    0.95970    0.87310    1.000
    C120     C        0.03690    0.93110    0.90430    1.000
    C121     C        0.99660    0.94530    0.93100    1.000
    C122     C        0.96970    0.98260    0.91910    1.000
    O47      O        0.15880    0.86780    0.92060    1.000
    O48      O        0.12510    0.90830    0.84010    1.000
    C123     C        0.17460    0.91320    0.90900    1.000
    C124     C        0.16880    0.92050    0.89380    1.000
    C125     C        0.22560    0.91620    0.92560    1.000
    C126     C        0.21900    0.93100    0.90960    1.000
    N15      N        0.04420    0.83450    0.83190    1.000
    C127     C        0.00050    0.82830    0.84430    1.000
    C128     C        0.96650    0.81600    0.81470    1.000
    C129     C        0.97410    0.80910    0.76930    1.000
    C130     C        0.01830    0.81600    0.75660    1.000
    C131     C        0.05170    0.82800    0.78700    1.000
    N16      N        0.04930    0.83090    0.82060    1.000
    C132     C        0.00480    0.82400    0.82940    1.000
    C133     C        0.97290    0.81410    0.79680    1.000
    C134     C        0.98380    0.81030    0.75160    1.000
    C135     C        0.02890    0.81740    0.74260    1.000
    C136     C        0.06000    0.82670    0.77610    1.000
    H134     H        0.97800    0.00000    0.89100    1.000
    H135     H        0.15600    0.93600    0.92500    1.000
    H136     H        0.14800    0.94200    0.90900    1.000
    H137     H        0.22700    0.91200    0.95900    1.000
    H138     H        0.23800    0.94600    0.91700    1.000
    H139     H        0.24400    0.89200    0.91100    1.000
    H140     H        0.22100    0.92800    0.94300    1.000
    H141     H        0.22700    0.96200    0.90000    1.000
    H142     H        0.24000    0.90900    0.89500    1.000
    H143     H        0.99200    0.83300    0.87700    1.000
    H144     H        0.93500    0.81200    0.82700    1.000
    H145     H        0.95000    0.80000    0.74800    1.000
    H146     H        0.02700    0.81200    0.72400    1.000
    H147     H        0.08300    0.83200    0.77500    1.000
    H148     H        0.99500    0.82600    0.86200    1.000
    H149     H        0.94100    0.81000    0.80600    1.000
    H150     H        0.96100    0.80300    0.72800    1.000
    H151     H        0.04000    0.81600    0.71100    1.000
    H152     H        0.09200    0.83000    0.76700    1.000
    Ni57     Ni       0.61960    0.89920    0.34940    1.000
    Ni58     Ni       0.62810    0.92340    0.34040    1.000
    Ni59     Ni       0.64290    0.92310    0.34410    1.000
    Ni60     Ni       0.63220    0.90340    0.38010    1.000
    Ni61     Ni       0.60270    0.92440    0.36300    1.000
    Ni62     Ni       0.62280    0.93000    0.36230    1.000
    Ni63     Ni       0.65340    0.88840    0.35610    1.000
    O49      O        0.58440    0.93980    0.39450    1.000
    O50      O        0.59230    0.95300    0.38870    1.000
    O51      O        0.63120    0.95250    0.45420    1.000
    O52      O        0.62690    0.94100    0.45970    1.000
    C137     C        0.59570    0.96310    0.43110    1.000
    C138     C        0.56900    0.00340    0.44530    1.000
    C139     C        0.58090    0.03030    0.48260    1.000
    O53      O        0.57940    0.84120    0.36780    1.000
    O54      O        0.65990    0.87490    0.40830    1.000
    C140     C        0.59100    0.82540    0.41320    1.000
    C141     C        0.60620    0.83120    0.42050    1.000
    C142     C        0.57440    0.77440    0.41620    1.000
    C143     C        0.59040    0.78100    0.43100    1.000
    N17      N        0.66810    0.95580    0.33450    1.000
    C144     C        0.65570    0.99950    0.32830    1.000
    C145     C        0.68530    0.03350    0.31600    1.000
    C146     C        0.73070    0.02590    0.30910    1.000
    C147     C        0.74340    0.98170    0.31600    1.000
    C148     C        0.71300    0.94830    0.32800    1.000
    N18      N        0.67940    0.95070    0.33090    1.000
    C149     C        0.67060    0.99520    0.32400    1.000
    C150     C        0.70320    0.02710    0.31410    1.000
    C151     C        0.74840    0.01620    0.31030    1.000
    C152     C        0.75740    0.97110    0.31740    1.000
    C153     C        0.72390    0.94000    0.32670    1.000
    H153     H        0.60900    0.02200    0.50000    1.000
    H154     H        0.57500    0.84400    0.43600    1.000
    H155     H        0.59100    0.85200    0.44200    1.000
    H156     H        0.54100    0.77300    0.41200    1.000
    H157     H        0.58300    0.76200    0.44600    1.000
    H158     H        0.58900    0.75600    0.39200    1.000
    H159     H        0.55700    0.77900    0.42800    1.000
    H160     H        0.60000    0.77300    0.46200    1.000
    H161     H        0.60500    0.76000    0.40900    1.000
    H162     H        0.62300    0.00800    0.33300    1.000
    H163     H        0.67300    0.06500    0.31200    1.000
    H164     H        0.75200    0.05000    0.30000    1.000
    H165     H        0.77600    0.97300    0.31200    1.000
    H166     H        0.72500    0.91700    0.33200    1.000
    H167     H        0.63800    0.00500    0.32600    1.000
    H168     H        0.69400    0.05900    0.31000    1.000
    H169     H        0.77200    0.03900    0.30300    1.000
    H170     H        0.78900    0.96000    0.31600    1.000
    H171     H        0.73300    0.90800    0.33000    1.000
    Ni64     Ni       0.38040    0.39920    0.15060    1.000
    Ni65     Ni       0.37190    0.42340    0.15960    1.000
    Ni66     Ni       0.35710    0.42310    0.15590    1.000
    Ni67     Ni       0.36780    0.40340    0.11990    1.000
    Ni68     Ni       0.39730    0.42440    0.13700    1.000
    Ni69     Ni       0.37720    0.43000    0.13770    1.000
    Ni70     Ni       0.34660    0.38840    0.14390    1.000
    O55      O        0.41560    0.43980    0.10550    1.000
    O56      O        0.40770    0.45300    0.11130    1.000
    O57      O        0.36880    0.45250    0.04580    1.000
    O58      O        0.37310    0.44100    0.04030    1.000
    C154     C        0.40430    0.46310    0.06890    1.000
    C155     C        0.43100    0.50340    0.05470    1.000
    C156     C        0.41910    0.53030    0.01740    1.000
    O59      O        0.42060    0.34120    0.13220    1.000
    O60      O        0.34010    0.37490    0.09170    1.000
    C157     C        0.40900    0.32540    0.08680    1.000
    C158     C        0.39380    0.33120    0.07950    1.000
    C159     C        0.42560    0.27440    0.08380    1.000
    C160     C        0.40960    0.28100    0.06900    1.000
    N19      N        0.33190    0.45580    0.16550    1.000
    C161     C        0.34430    0.49950    0.17170    1.000
    C162     C        0.31470    0.53350    0.18400    1.000
    C163     C        0.26930    0.52590    0.19090    1.000
    C164     C        0.25660    0.48170    0.18400    1.000
    C165     C        0.28700    0.44830    0.17200    1.000
    N20      N        0.32060    0.45070    0.16910    1.000
    C166     C        0.32940    0.49520    0.17600    1.000
    C167     C        0.29680    0.52710    0.18590    1.000
    C168     C        0.25160    0.51620    0.18970    1.000
    C169     C        0.24260    0.47110    0.18260    1.000
    C170     C        0.27610    0.44000    0.17330    1.000
    H172     H        0.39100    0.52200    0.00000    1.000
    H173     H        0.42500    0.34400    0.06400    1.000
    H174     H        0.40900    0.35200    0.05800    1.000
    H175     H        0.45900    0.27300    0.08800    1.000
    H176     H        0.41700    0.26200    0.05400    1.000
    H177     H        0.41100    0.25600    0.10800    1.000
    H178     H        0.44300    0.27900    0.07200    1.000
    H179     H        0.40000    0.27300    0.03800    1.000
    H180     H        0.39500    0.26000    0.09100    1.000
    H181     H        0.37700    0.50800    0.16700    1.000
    H182     H        0.32700    0.56500    0.18800    1.000
    H183     H        0.24800    0.55000    0.20000    1.000
    H184     H        0.22400    0.47300    0.18800    1.000
    H185     H        0.27500    0.41700    0.16800    1.000
    H186     H        0.36200    0.50500    0.17400    1.000
    H187     H        0.30600    0.55900    0.19000    1.000
    H188     H        0.22800    0.53900    0.19700    1.000
    H189     H        0.21100    0.46000    0.18400    1.000
    H190     H        0.26700    0.40800    0.17000    1.000
    Ni71     Ni       0.11960    0.60080    0.65060    1.000
    Ni72     Ni       0.12810    0.57660    0.65960    1.000
    Ni73     Ni       0.14290    0.57690    0.65590    1.000
    Ni74     Ni       0.13220    0.59660    0.61990    1.000
    Ni75     Ni       0.10270    0.57560    0.63700    1.000
    Ni76     Ni       0.12280    0.57000    0.63770    1.000
    Ni77     Ni       0.15340    0.61160    0.64390    1.000
    O61      O        0.08440    0.56020    0.60550    1.000
    O62      O        0.09230    0.54700    0.61130    1.000
    O63      O        0.13120    0.54750    0.54580    1.000
    O64      O        0.12690    0.55900    0.54030    1.000
    C171     C        0.09570    0.53690    0.56890    1.000
    C172     C        0.06900    0.49660    0.55470    1.000
    C173     C        0.08090    0.46970    0.51740    1.000
    O65      O        0.07940    0.65880    0.63220    1.000
    O66      O        0.15990    0.62510    0.59170    1.000
    C174     C        0.09100    0.67460    0.58680    1.000
    C175     C        0.10620    0.66880    0.57950    1.000
    C176     C        0.07440    0.72560    0.58380    1.000
    C177     C        0.09040    0.71900    0.56900    1.000
    N21      N        0.16810    0.54420    0.66550    1.000
    C178     C        0.15570    0.50050    0.67170    1.000
    C179     C        0.18530    0.46650    0.68400    1.000
    C180     C        0.23070    0.47410    0.69090    1.000
    C181     C        0.24340    0.51830    0.68400    1.000
    C182     C        0.21300    0.55170    0.67200    1.000
    N22      N        0.17940    0.54930    0.66910    1.000
    C183     C        0.17060    0.50480    0.67600    1.000
    C184     C        0.20320    0.47290    0.68590    1.000
    C185     C        0.24840    0.48380    0.68970    1.000
    C186     C        0.25740    0.52890    0.68260    1.000
    C187     C        0.22390    0.56000    0.67330    1.000
    H191     H        0.10900    0.47800    0.50000    1.000
    H192     H        0.07500    0.65600    0.56400    1.000
    H193     H        0.09100    0.64800    0.55800    1.000
    H194     H        0.04100    0.72700    0.58800    1.000
    H195     H        0.08300    0.73800    0.55400    1.000
    H196     H        0.08900    0.74400    0.60800    1.000
    H197     H        0.05700    0.72100    0.57200    1.000
    H198     H        0.10000    0.72700    0.53800    1.000
    H199     H        0.10500    0.74000    0.59100    1.000
    H200     H        0.12300    0.49200    0.66700    1.000
    H201     H        0.17300    0.43500    0.68800    1.000
    H202     H        0.25200    0.45000    0.70000    1.000
    H203     H        0.27600    0.52700    0.68800    1.000
    H204     H        0.22500    0.58300    0.66800    1.000
    H205     H        0.13800    0.49500    0.67400    1.000
    H206     H        0.19400    0.44100    0.69000    1.000
    H207     H        0.27200    0.46100    0.69700    1.000
    H208     H        0.28900    0.54000    0.68400    1.000
    H209     H        0.23300    0.59200    0.67000    1.000
    Ni78     Ni       0.88040    0.10080    0.84940    1.000
    Ni79     Ni       0.87190    0.07660    0.84040    1.000
    Ni80     Ni       0.85710    0.07690    0.84410    1.000
    Ni81     Ni       0.86780    0.09660    0.88010    1.000
    Ni82     Ni       0.89730    0.07560    0.86300    1.000
    Ni83     Ni       0.87720    0.07000    0.86230    1.000
    Ni84     Ni       0.84660    0.11160    0.85610    1.000
    O67      O        0.91560    0.06020    0.89450    1.000
    O68      O        0.90770    0.04700    0.88870    1.000
    O69      O        0.86880    0.04750    0.95420    1.000
    O70      O        0.87310    0.05900    0.95970    1.000
    C188     C        0.90430    0.03690    0.93110    1.000
    C189     C        0.93100    0.99660    0.94530    1.000
    C190     C        0.91910    0.96970    0.98260    1.000
    O71      O        0.92060    0.15880    0.86780    1.000
    O72      O        0.84010    0.12510    0.90830    1.000
    C191     C        0.90900    0.17460    0.91320    1.000
    C192     C        0.89380    0.16880    0.92050    1.000
    C193     C        0.92560    0.22560    0.91620    1.000
    C194     C        0.90960    0.21900    0.93100    1.000
    N23      N        0.83190    0.04420    0.83450    1.000
    C195     C        0.84430    0.00050    0.82830    1.000
    C196     C        0.81470    0.96650    0.81600    1.000
    C197     C        0.76930    0.97410    0.80910    1.000
    C198     C        0.75660    0.01830    0.81600    1.000
    C199     C        0.78700    0.05170    0.82800    1.000
    N24      N        0.82060    0.04930    0.83090    1.000
    C200     C        0.82940    0.00480    0.82400    1.000
    C201     C        0.79680    0.97290    0.81410    1.000
    C202     C        0.75160    0.98380    0.81030    1.000
    C203     C        0.74260    0.02890    0.81740    1.000
    C204     C        0.77610    0.06000    0.82670    1.000
    H210     H        0.89100    0.97800    0.00000    1.000
    H211     H        0.92500    0.15600    0.93600    1.000
    H212     H        0.90900    0.14800    0.94200    1.000
    H213     H        0.95900    0.22700    0.91200    1.000
    H214     H        0.91700    0.23800    0.94600    1.000
    H215     H        0.91100    0.24400    0.89200    1.000
    H216     H        0.94300    0.22100    0.92800    1.000
    H217     H        0.90000    0.22700    0.96200    1.000
    H218     H        0.89500    0.24000    0.90900    1.000
    H219     H        0.87700    0.99200    0.83300    1.000
    H220     H        0.82700    0.93500    0.81200    1.000
    H221     H        0.74800    0.95000    0.80000    1.000
    H222     H        0.72400    0.02700    0.81200    1.000
    H223     H        0.77500    0.08300    0.83200    1.000
    H224     H        0.86200    0.99500    0.82600    1.000
    H225     H        0.80600    0.94100    0.81000    1.000
    H226     H        0.72800    0.96100    0.80300    1.000
    H227     H        0.71100    0.04000    0.81600    1.000
    H228     H        0.76700    0.09200    0.83000    1.000
    Ni85     Ni       0.86960    0.09940    0.85080    1.000
    Ni86     Ni       0.87810    0.09040    0.82660    1.000
    Ni87     Ni       0.89290    0.09410    0.82690    1.000
    Ni88     Ni       0.88220    0.13010    0.84660    1.000
    Ni89     Ni       0.85270    0.11300    0.82560    1.000
    Ni90     Ni       0.87280    0.11230    0.82000    1.000
    Ni91     Ni       0.90340    0.10610    0.86160    1.000
    O73      O        0.83440    0.14450    0.81020    1.000
    O74      O        0.84230    0.13870    0.79700    1.000
    O75      O        0.88120    0.20420    0.79750    1.000
    O76      O        0.87690    0.20970    0.80900    1.000
    C205     C        0.84570    0.18110    0.78690    1.000
    C206     C        0.81900    0.19530    0.74660    1.000
    C207     C        0.83090    0.23260    0.71970    1.000
    O77      O        0.82940    0.11780    0.90880    1.000
    O78      O        0.90990    0.15830    0.87510    1.000
    C208     C        0.84100    0.16320    0.92460    1.000
    C209     C        0.85620    0.17050    0.91880    1.000
    C210     C        0.82440    0.16620    0.97560    1.000
    C211     C        0.84040    0.18100    0.96900    1.000
    N25      N        0.91810    0.08450    0.79420    1.000
    C212     C        0.90570    0.07830    0.75050    1.000
    C213     C        0.93530    0.06600    0.71650    1.000
    C214     C        0.98070    0.05910    0.72410    1.000
    C215     C        0.99340    0.06600    0.76830    1.000
    C216     C        0.96300    0.07800    0.80170    1.000
    N26      N        0.92940    0.08090    0.79930    1.000
    C217     C        0.92060    0.07400    0.75480    1.000
    C218     C        0.95320    0.06410    0.72290    1.000
    C219     C        0.99840    0.06030    0.73380    1.000
    C220     C        0.00740    0.06740    0.77890    1.000
    C221     C        0.97390    0.07670    0.81000    1.000
    H229     H        0.85900    0.25000    0.72800    1.000
    H230     H        0.82500    0.18600    0.90600    1.000
    H231     H        0.84100    0.19200    0.89800    1.000
    H232     H        0.79100    0.16200    0.97700    1.000
    H233     H        0.83300    0.19600    0.98800    1.000
    H234     H        0.83900    0.14200    0.99400    1.000
    H235     H        0.80700    0.17800    0.97100    1.000
    H236     H        0.85000    0.21200    0.97700    1.000
    H237     H        0.85500    0.15900    0.99000    1.000
    H238     H        0.87300    0.08300    0.74200    1.000
    H239     H        0.92300    0.06200    0.68500    1.000
    H240     H        0.00200    0.05000    0.70000    1.000
    H241     H        0.02600    0.06200    0.77700    1.000
    H242     H        0.97500    0.08200    0.83300    1.000
    H243     H        0.88800    0.07600    0.74500    1.000
    H244     H        0.94400    0.06000    0.69100    1.000
    H245     H        0.02200    0.05300    0.71100    1.000
    H246     H        0.03900    0.06600    0.79000    1.000
    H247     H        0.98300    0.08000    0.84200    1.000
    Ni92     Ni       0.63040    0.90060    0.35080    1.000
    Ni93     Ni       0.62190    0.90960    0.32660    1.000
    Ni94     Ni       0.60710    0.90590    0.32690    1.000
    Ni95     Ni       0.61780    0.86990    0.34660    1.000
    Ni96     Ni       0.64730    0.88700    0.32560    1.000
    Ni97     Ni       0.62720    0.88770    0.32000    1.000
    Ni98     Ni       0.59660    0.89390    0.36160    1.000
    O79      O        0.66560    0.85550    0.31020    1.000
    O80      O        0.65770    0.86130    0.29700    1.000
    O81      O        0.61880    0.79580    0.29750    1.000
    O82      O        0.62310    0.79030    0.30900    1.000
    C222     C        0.65430    0.81890    0.28690    1.000
    C223     C        0.68100    0.80470    0.24660    1.000
    C224     C        0.66910    0.76740    0.21970    1.000
    O83      O        0.67060    0.88220    0.40880    1.000
    O84      O        0.59010    0.84170    0.37510    1.000
    C225     C        0.65900    0.83680    0.42460    1.000
    C226     C        0.64380    0.82950    0.41880    1.000
    C227     C        0.67560    0.83380    0.47560    1.000
    C228     C        0.65960    0.81900    0.46900    1.000
    N27      N        0.58190    0.91550    0.29420    1.000
    C229     C        0.59430    0.92170    0.25050    1.000
    C230     C        0.56470    0.93400    0.21650    1.000
    C231     C        0.51930    0.94090    0.22410    1.000
    C232     C        0.50660    0.93400    0.26830    1.000
    C233     C        0.53700    0.92200    0.30170    1.000
    N28      N        0.57060    0.91910    0.29930    1.000
    C234     C        0.57940    0.92600    0.25480    1.000
    C235     C        0.54680    0.93590    0.22290    1.000
    C236     C        0.50160    0.93970    0.23380    1.000
    C237     C        0.49260    0.93260    0.27890    1.000
    C238     C        0.52610    0.92330    0.31000    1.000
    H248     H        0.64100    0.75000    0.22800    1.000
    H249     H        0.67500    0.81400    0.40600    1.000
    H250     H        0.65900    0.80800    0.39800    1.000
    H251     H        0.70900    0.83800    0.47700    1.000
    H252     H        0.66700    0.80400    0.48800    1.000
    H253     H        0.66100    0.85800    0.49400    1.000
    H254     H        0.69300    0.82200    0.47100    1.000
    H255     H        0.65000    0.78800    0.47700    1.000
    H256     H        0.64500    0.84100    0.49000    1.000
    H257     H        0.62700    0.91700    0.24200    1.000
    H258     H        0.57700    0.93800    0.18500    1.000
    H259     H        0.49800    0.95000    0.20000    1.000
    H260     H        0.47400    0.93800    0.27700    1.000
    H261     H        0.52500    0.91800    0.33300    1.000
    H262     H        0.61200    0.92400    0.24500    1.000
    H263     H        0.55600    0.94000    0.19100    1.000
    H264     H        0.47800    0.94700    0.21100    1.000
    H265     H        0.46100    0.93400    0.29000    1.000
    H266     H        0.51700    0.92000    0.34200    1.000
    Ni99     Ni       0.36960    0.40060    0.14920    1.000
    Ni100    Ni       0.37810    0.40960    0.17340    1.000
    Ni101    Ni       0.39290    0.40590    0.17310    1.000
    Ni102    Ni       0.38220    0.36990    0.15340    1.000
    Ni103    Ni       0.35270    0.38700    0.17440    1.000
    Ni104    Ni       0.37280    0.38770    0.18000    1.000
    Ni105    Ni       0.40340    0.39390    0.13840    1.000
    O85      O        0.33440    0.35550    0.18980    1.000
    O86      O        0.34230    0.36130    0.20300    1.000
    O87      O        0.38120    0.29580    0.20250    1.000
    O88      O        0.37690    0.29030    0.19100    1.000
    C239     C        0.34570    0.31890    0.21310    1.000
    C240     C        0.31900    0.30470    0.25340    1.000
    C241     C        0.33090    0.26740    0.28030    1.000
    O89      O        0.32940    0.38220    0.09120    1.000
    O90      O        0.40990    0.34170    0.12490    1.000
    C242     C        0.34100    0.33680    0.07540    1.000
    C243     C        0.35620    0.32950    0.08120    1.000
    C244     C        0.32440    0.33380    0.02440    1.000
    C245     C        0.34040    0.31900    0.03100    1.000
    N29      N        0.41810    0.41550    0.20580    1.000
    C246     C        0.40570    0.42170    0.24950    1.000
    C247     C        0.43530    0.43400    0.28350    1.000
    C248     C        0.48070    0.44090    0.27590    1.000
    C249     C        0.49340    0.43400    0.23170    1.000
    C250     C        0.46300    0.42200    0.19830    1.000
    N30      N        0.42940    0.41910    0.20070    1.000
    C251     C        0.42060    0.42600    0.24520    1.000
    C252     C        0.45320    0.43590    0.27710    1.000
    C253     C        0.49840    0.43970    0.26620    1.000
    C254     C        0.50740    0.43260    0.22110    1.000
    C255     C        0.47390    0.42330    0.19000    1.000
    H267     H        0.35900    0.25000    0.27200    1.000
    H268     H        0.32500    0.31400    0.09400    1.000
    H269     H        0.34100    0.30800    0.10200    1.000
    H270     H        0.29100    0.33800    0.02300    1.000
    H271     H        0.33300    0.30400    0.01200    1.000
    H272     H        0.33900    0.35800    0.00600    1.000
    H273     H        0.30700    0.32200    0.02900    1.000
    H274     H        0.35000    0.28800    0.02300    1.000
    H275     H        0.35500    0.34100    0.01000    1.000
    H276     H        0.37300    0.41700    0.25800    1.000
    H277     H        0.42300    0.43800    0.31500    1.000
    H278     H        0.50200    0.45000    0.30000    1.000
    H279     H        0.52600    0.43800    0.22300    1.000
    H280     H        0.47500    0.41800    0.16700    1.000
    H281     H        0.38800    0.42400    0.25500    1.000
    H282     H        0.44400    0.44000    0.30900    1.000
    H283     H        0.52200    0.44700    0.28900    1.000
    H284     H        0.53900    0.43400    0.21000    1.000
    H285     H        0.48300    0.42000    0.15800    1.000
    Ni106    Ni       0.13040    0.59940    0.64920    1.000
    Ni107    Ni       0.12190    0.59040    0.67340    1.000
    Ni108    Ni       0.10710    0.59410    0.67310    1.000
    Ni109    Ni       0.11780    0.63010    0.65340    1.000
    Ni110    Ni       0.14730    0.61300    0.67440    1.000
    Ni111    Ni       0.12720    0.61230    0.68000    1.000
    Ni112    Ni       0.09660    0.60610    0.63840    1.000
    O91      O        0.16560    0.64450    0.68980    1.000
    O92      O        0.15770    0.63870    0.70300    1.000
    O93      O        0.11880    0.70420    0.70250    1.000
    O94      O        0.12310    0.70970    0.69100    1.000
    C256     C        0.15430    0.68110    0.71310    1.000
    C257     C        0.18100    0.69530    0.75340    1.000
    C258     C        0.16910    0.73260    0.78030    1.000
    O95      O        0.17060    0.61780    0.59120    1.000
    O96      O        0.09010    0.65830    0.62490    1.000
    C259     C        0.15900    0.66320    0.57540    1.000
    C260     C        0.14380    0.67050    0.58120    1.000
    C261     C        0.17560    0.66620    0.52440    1.000
    C262     C        0.15960    0.68100    0.53100    1.000
    N31      N        0.08190    0.58450    0.70580    1.000
    C263     C        0.09430    0.57830    0.74950    1.000
    C264     C        0.06470    0.56600    0.78350    1.000
    C265     C        0.01930    0.55910    0.77590    1.000
    C266     C        0.00660    0.56600    0.73170    1.000
    C267     C        0.03700    0.57800    0.69830    1.000
    N32      N        0.07060    0.58090    0.70070    1.000
    C268     C        0.07940    0.57400    0.74520    1.000
    C269     C        0.04680    0.56410    0.77710    1.000
    C270     C        0.00160    0.56030    0.76620    1.000
    C271     C        0.99260    0.56740    0.72110    1.000
    C272     C        0.02610    0.57670    0.69000    1.000
    H286     H        0.14100    0.75000    0.77200    1.000
    H287     H        0.17500    0.68600    0.59400    1.000
    H288     H        0.15900    0.69200    0.60200    1.000
    H289     H        0.20900    0.66200    0.52300    1.000
    H290     H        0.16700    0.69600    0.51200    1.000
    H291     H        0.16100    0.64200    0.50600    1.000
    H292     H        0.19300    0.67800    0.52900    1.000
    H293     H        0.15000    0.71200    0.52300    1.000
    H294     H        0.14500    0.65900    0.51000    1.000
    H295     H        0.12700    0.58300    0.75800    1.000
    H296     H        0.07700    0.56200    0.81500    1.000
    H297     H        0.99800    0.55000    0.80000    1.000
    H298     H        0.97400    0.56200    0.72300    1.000
    H299     H        0.02500    0.58200    0.66700    1.000
    H300     H        0.11200    0.57600    0.75500    1.000
    H301     H        0.05600    0.56000    0.80900    1.000
    H302     H        0.97800    0.55300    0.78900    1.000
    H303     H        0.96100    0.56600    0.71000    1.000
    H304     H        0.01700    0.58000    0.65800    1.000
    Ni113    Ni       0.59940    0.64920    0.13040    1.000
    Ni114    Ni       0.59040    0.67340    0.12190    1.000
    Ni115    Ni       0.59410    0.67310    0.10710    1.000
    Ni116    Ni       0.63010    0.65340    0.11780    1.000
    Ni117    Ni       0.61300    0.67440    0.14730    1.000
    Ni118    Ni       0.61230    0.68000    0.12720    1.000
    Ni119    Ni       0.60610    0.63840    0.09660    1.000
    O97      O        0.64450    0.68980    0.16560    1.000
    O98      O        0.63870    0.70300    0.15770    1.000
    O99      O        0.70420    0.70250    0.11880    1.000
    O100     O        0.70970    0.69100    0.12310    1.000
    C273     C        0.68110    0.71310    0.15430    1.000
    C274     C        0.69530    0.75340    0.18100    1.000
    C275     C        0.73260    0.78030    0.16910    1.000
    O101     O        0.61780    0.59120    0.17060    1.000
    O102     O        0.65830    0.62490    0.09010    1.000
    C276     C        0.66320    0.57540    0.15900    1.000
    C277     C        0.67050    0.58120    0.14380    1.000
    C278     C        0.66620    0.52440    0.17560    1.000
    C279     C        0.68100    0.53100    0.15960    1.000
    N33      N        0.58450    0.70580    0.08190    1.000
    C280     C        0.57830    0.74950    0.09430    1.000
    C281     C        0.56600    0.78350    0.06470    1.000
    C282     C        0.55910    0.77590    0.01930    1.000
    C283     C        0.56600    0.73170    0.00660    1.000
    C284     C        0.57800    0.69830    0.03700    1.000
    N34      N        0.58090    0.70070    0.07060    1.000
    C285     C        0.57400    0.74520    0.07940    1.000
    C286     C        0.56410    0.77710    0.04680    1.000
    C287     C        0.56030    0.76620    0.00160    1.000
    C288     C        0.56740    0.72110    0.99260    1.000
    C289     C        0.57670    0.69000    0.02610    1.000
    H305     H        0.75000    0.77200    0.14100    1.000
    H306     H        0.68600    0.59400    0.17500    1.000
    H307     H        0.69200    0.60200    0.15900    1.000
    H308     H        0.66200    0.52300    0.20900    1.000
    H309     H        0.69600    0.51200    0.16700    1.000
    H310     H        0.64200    0.50600    0.16100    1.000
    H311     H        0.67800    0.52900    0.19300    1.000
    H312     H        0.71200    0.52300    0.15000    1.000
    H313     H        0.65900    0.51000    0.14500    1.000
    H314     H        0.58300    0.75800    0.12700    1.000
    H315     H        0.56200    0.81500    0.07700    1.000
    H316     H        0.55000    0.80000    0.99800    1.000
    H317     H        0.56200    0.72300    0.97400    1.000
    H318     H        0.58200    0.66700    0.02500    1.000
    H319     H        0.57600    0.75500    0.11200    1.000
    H320     H        0.56000    0.80900    0.05600    1.000
    H321     H        0.55300    0.78900    0.97800    1.000
    H322     H        0.56600    0.71000    0.96100    1.000
    H323     H        0.58000    0.65800    0.01700    1.000
    Ni120    Ni       0.40060    0.14920    0.36960    1.000
    Ni121    Ni       0.40960    0.17340    0.37810    1.000
    Ni122    Ni       0.40590    0.17310    0.39290    1.000
    Ni123    Ni       0.36990    0.15340    0.38220    1.000
    Ni124    Ni       0.38700    0.17440    0.35270    1.000
    Ni125    Ni       0.38770    0.18000    0.37280    1.000
    Ni126    Ni       0.39390    0.13840    0.40340    1.000
    O103     O        0.35550    0.18980    0.33440    1.000
    O104     O        0.36130    0.20300    0.34230    1.000
    O105     O        0.29580    0.20250    0.38120    1.000
    O106     O        0.29030    0.19100    0.37690    1.000
    C290     C        0.31890    0.21310    0.34570    1.000
    C291     C        0.30470    0.25340    0.31900    1.000
    C292     C        0.26740    0.28030    0.33090    1.000
    O107     O        0.38220    0.09120    0.32940    1.000
    O108     O        0.34170    0.12490    0.40990    1.000
    C293     C        0.33680    0.07540    0.34100    1.000
    C294     C        0.32950    0.08120    0.35620    1.000
    C295     C        0.33380    0.02440    0.32440    1.000
    C296     C        0.31900    0.03100    0.34040    1.000
    N35      N        0.41550    0.20580    0.41810    1.000
    C297     C        0.42170    0.24950    0.40570    1.000
    C298     C        0.43400    0.28350    0.43530    1.000
    C299     C        0.44090    0.27590    0.48070    1.000
    C300     C        0.43400    0.23170    0.49340    1.000
    C301     C        0.42200    0.19830    0.46300    1.000
    N36      N        0.41910    0.20070    0.42940    1.000
    C302     C        0.42600    0.24520    0.42060    1.000
    C303     C        0.43590    0.27710    0.45320    1.000
    C304     C        0.43970    0.26620    0.49840    1.000
    C305     C        0.43260    0.22110    0.50740    1.000
    C306     C        0.42330    0.19000    0.47390    1.000
    H324     H        0.25000    0.27200    0.35900    1.000
    H325     H        0.31400    0.09400    0.32500    1.000
    H326     H        0.30800    0.10200    0.34100    1.000
    H327     H        0.33800    0.02300    0.29100    1.000
    H328     H        0.30400    0.01200    0.33300    1.000
    H329     H        0.35800    0.00600    0.33900    1.000
    H330     H        0.32200    0.02900    0.30700    1.000
    H331     H        0.28800    0.02300    0.35000    1.000
    H332     H        0.34100    0.01000    0.35500    1.000
    H333     H        0.41700    0.25800    0.37300    1.000
    H334     H        0.43800    0.31500    0.42300    1.000
    H335     H        0.45000    0.30000    0.50200    1.000
    H336     H        0.43800    0.22300    0.52600    1.000
    H337     H        0.41800    0.16700    0.47500    1.000
    H338     H        0.42400    0.25500    0.38800    1.000
    H339     H        0.44000    0.30900    0.44400    1.000
    H340     H        0.44700    0.28900    0.52200    1.000
    H341     H        0.43400    0.21000    0.53900    1.000
    H342     H        0.42000    0.15800    0.48300    1.000
    Ni127    Ni       0.90060    0.35080    0.63040    1.000
    Ni128    Ni       0.90960    0.32660    0.62190    1.000
    Ni129    Ni       0.90590    0.32690    0.60710    1.000
    Ni130    Ni       0.86990    0.34660    0.61780    1.000
    Ni131    Ni       0.88700    0.32560    0.64730    1.000
    Ni132    Ni       0.88770    0.32000    0.62720    1.000
    Ni133    Ni       0.89390    0.36160    0.59660    1.000
    O109     O        0.85550    0.31020    0.66560    1.000
    O110     O        0.86130    0.29700    0.65770    1.000
    O111     O        0.79580    0.29750    0.61880    1.000
    O112     O        0.79030    0.30900    0.62310    1.000
    C307     C        0.81890    0.28690    0.65430    1.000
    C308     C        0.80470    0.24660    0.68100    1.000
    C309     C        0.76740    0.21970    0.66910    1.000
    O113     O        0.88220    0.40880    0.67060    1.000
    O114     O        0.84170    0.37510    0.59010    1.000
    C310     C        0.83680    0.42460    0.65900    1.000
    C311     C        0.82950    0.41880    0.64380    1.000
    C312     C        0.83380    0.47560    0.67560    1.000
    C313     C        0.81900    0.46900    0.65960    1.000
    N37      N        0.91550    0.29420    0.58190    1.000
    C314     C        0.92170    0.25050    0.59430    1.000
    C315     C        0.93400    0.21650    0.56470    1.000
    C316     C        0.94090    0.22410    0.51930    1.000
    C317     C        0.93400    0.26830    0.50660    1.000
    C318     C        0.92200    0.30170    0.53700    1.000
    N38      N        0.91910    0.29930    0.57060    1.000
    C319     C        0.92600    0.25480    0.57940    1.000
    C320     C        0.93590    0.22290    0.54680    1.000
    C321     C        0.93970    0.23380    0.50160    1.000
    C322     C        0.93260    0.27890    0.49260    1.000
    C323     C        0.92330    0.31000    0.52610    1.000
    H343     H        0.75000    0.22800    0.64100    1.000
    H344     H        0.81400    0.40600    0.67500    1.000
    H345     H        0.80800    0.39800    0.65900    1.000
    H346     H        0.83800    0.47700    0.70900    1.000
    H347     H        0.80400    0.48800    0.66700    1.000
    H348     H        0.85800    0.49400    0.66100    1.000
    H349     H        0.82200    0.47100    0.69300    1.000
    H350     H        0.78800    0.47700    0.65000    1.000
    H351     H        0.84100    0.49000    0.64500    1.000
    H352     H        0.91700    0.24200    0.62700    1.000
    H353     H        0.93800    0.18500    0.57700    1.000
    H354     H        0.95000    0.20000    0.49800    1.000
    H355     H        0.93800    0.27700    0.47400    1.000
    H356     H        0.91800    0.33300    0.52500    1.000
    H357     H        0.92400    0.24500    0.61200    1.000
    H358     H        0.94000    0.19100    0.55600    1.000
    H359     H        0.94700    0.21100    0.47800    1.000
    H360     H        0.93400    0.29000    0.46100    1.000
    H361     H        0.92000    0.34200    0.51700    1.000
    Ni134    Ni       0.09940    0.85080    0.86960    1.000
    Ni135    Ni       0.09040    0.82660    0.87810    1.000
    Ni136    Ni       0.09410    0.82690    0.89290    1.000
    Ni137    Ni       0.13010    0.84660    0.88220    1.000
    Ni138    Ni       0.11300    0.82560    0.85270    1.000
    Ni139    Ni       0.11230    0.82000    0.87280    1.000
    Ni140    Ni       0.10610    0.86160    0.90340    1.000
    O115     O        0.14450    0.81020    0.83440    1.000
    O116     O        0.13870    0.79700    0.84230    1.000
    O117     O        0.20420    0.79750    0.88120    1.000
    O118     O        0.20970    0.80900    0.87690    1.000
    C324     C        0.18110    0.78690    0.84570    1.000
    C325     C        0.19530    0.74660    0.81900    1.000
    C326     C        0.23260    0.71970    0.83090    1.000
    O119     O        0.11780    0.90880    0.82940    1.000
    O120     O        0.15830    0.87510    0.90990    1.000
    C327     C        0.16320    0.92460    0.84100    1.000
    C328     C        0.17050    0.91880    0.85620    1.000
    C329     C        0.16620    0.97560    0.82440    1.000
    C330     C        0.18100    0.96900    0.84040    1.000
    N39      N        0.08450    0.79420    0.91810    1.000
    C331     C        0.07830    0.75050    0.90570    1.000
    C332     C        0.06600    0.71650    0.93530    1.000
    C333     C        0.05910    0.72410    0.98070    1.000
    C334     C        0.06600    0.76830    0.99340    1.000
    C335     C        0.07800    0.80170    0.96300    1.000
    N40      N        0.08090    0.79930    0.92940    1.000
    C336     C        0.07400    0.75480    0.92060    1.000
    C337     C        0.06410    0.72290    0.95320    1.000
    C338     C        0.06030    0.73380    0.99840    1.000
    C339     C        0.06740    0.77890    0.00740    1.000
    C340     C        0.07670    0.81000    0.97390    1.000
    H362     H        0.25000    0.72800    0.85900    1.000
    H363     H        0.18600    0.90600    0.82500    1.000
    H364     H        0.19200    0.89800    0.84100    1.000
    H365     H        0.16200    0.97700    0.79100    1.000
    H366     H        0.19600    0.98800    0.83300    1.000
    H367     H        0.14200    0.99400    0.83900    1.000
    H368     H        0.17800    0.97100    0.80700    1.000
    H369     H        0.21200    0.97700    0.85000    1.000
    H370     H        0.15900    0.99000    0.85500    1.000
    H371     H        0.08300    0.74200    0.87300    1.000
    H372     H        0.06200    0.68500    0.92300    1.000
    H373     H        0.05000    0.70000    0.00200    1.000
    H374     H        0.06200    0.77700    0.02600    1.000
    H375     H        0.08200    0.83300    0.97500    1.000
    H376     H        0.07600    0.74500    0.88800    1.000
    H377     H        0.06000    0.69100    0.94400    1.000
    H378     H        0.05300    0.71100    0.02200    1.000
    H379     H        0.06600    0.79000    0.03900    1.000
    H380     H        0.08000    0.84200    0.98300    1.000
    Ni141    Ni       0.14920    0.36960    0.40060    1.000
    Ni142    Ni       0.17340    0.37810    0.40960    1.000
    Ni143    Ni       0.17310    0.39290    0.40590    1.000
    Ni144    Ni       0.15340    0.38220    0.36990    1.000
    Ni145    Ni       0.17440    0.35270    0.38700    1.000
    Ni146    Ni       0.18000    0.37280    0.38770    1.000
    Ni147    Ni       0.13840    0.40340    0.39390    1.000
    O121     O        0.18980    0.33440    0.35550    1.000
    O122     O        0.20300    0.34230    0.36130    1.000
    O123     O        0.20250    0.38120    0.29580    1.000
    O124     O        0.19100    0.37690    0.29030    1.000
    C341     C        0.21310    0.34570    0.31890    1.000
    C342     C        0.25340    0.31900    0.30470    1.000
    C343     C        0.28030    0.33090    0.26740    1.000
    O125     O        0.09120    0.32940    0.38220    1.000
    O126     O        0.12490    0.40990    0.34170    1.000
    C344     C        0.07540    0.34100    0.33680    1.000
    C345     C        0.08120    0.35620    0.32950    1.000
    C346     C        0.02440    0.32440    0.33380    1.000
    C347     C        0.03100    0.34040    0.31900    1.000
    N41      N        0.20580    0.41810    0.41550    1.000
    C348     C        0.24950    0.40570    0.42170    1.000
    C349     C        0.28350    0.43530    0.43400    1.000
    C350     C        0.27590    0.48070    0.44090    1.000
    C351     C        0.23170    0.49340    0.43400    1.000
    C352     C        0.19830    0.46300    0.42200    1.000
    N42      N        0.20070    0.42940    0.41910    1.000
    C353     C        0.24520    0.42060    0.42600    1.000
    C354     C        0.27710    0.45320    0.43590    1.000
    C355     C        0.26620    0.49840    0.43970    1.000
    C356     C        0.22110    0.50740    0.43260    1.000
    C357     C        0.19000    0.47390    0.42330    1.000
    H381     H        0.27200    0.35900    0.25000    1.000
    H382     H        0.09400    0.32500    0.31400    1.000
    H383     H        0.10200    0.34100    0.30800    1.000
    H384     H        0.02300    0.29100    0.33800    1.000
    H385     H        0.01200    0.33300    0.30400    1.000
    H386     H        0.00600    0.33900    0.35800    1.000
    H387     H        0.02900    0.30700    0.32200    1.000
    H388     H        0.02300    0.35000    0.28800    1.000
    H389     H        0.01000    0.35500    0.34100    1.000
    H390     H        0.25800    0.37300    0.41700    1.000
    H391     H        0.31500    0.42300    0.43800    1.000
    H392     H        0.30000    0.50200    0.45000    1.000
    H393     H        0.22300    0.52600    0.43800    1.000
    H394     H        0.16700    0.47500    0.41800    1.000
    H395     H        0.25500    0.38800    0.42400    1.000
    H396     H        0.30900    0.44400    0.44000    1.000
    H397     H        0.28900    0.52200    0.44700    1.000
    H398     H        0.21000    0.53900    0.43400    1.000
    H399     H        0.15800    0.48300    0.42000    1.000
    Ni148    Ni       0.64920    0.13040    0.59940    1.000
    Ni149    Ni       0.67340    0.12190    0.59040    1.000
    Ni150    Ni       0.67310    0.10710    0.59410    1.000
    Ni151    Ni       0.65340    0.11780    0.63010    1.000
    Ni152    Ni       0.67440    0.14730    0.61300    1.000
    Ni153    Ni       0.68000    0.12720    0.61230    1.000
    Ni154    Ni       0.63840    0.09660    0.60610    1.000
    O127     O        0.68980    0.16560    0.64450    1.000
    O128     O        0.70300    0.15770    0.63870    1.000
    O129     O        0.70250    0.11880    0.70420    1.000
    O130     O        0.69100    0.12310    0.70970    1.000
    C358     C        0.71310    0.15430    0.68110    1.000
    C359     C        0.75340    0.18100    0.69530    1.000
    C360     C        0.78030    0.16910    0.73260    1.000
    O131     O        0.59120    0.17060    0.61780    1.000
    O132     O        0.62490    0.09010    0.65830    1.000
    C361     C        0.57540    0.15900    0.66320    1.000
    C362     C        0.58120    0.14380    0.67050    1.000
    C363     C        0.52440    0.17560    0.66620    1.000
    C364     C        0.53100    0.15960    0.68100    1.000
    N43      N        0.70580    0.08190    0.58450    1.000
    C365     C        0.74950    0.09430    0.57830    1.000
    C366     C        0.78350    0.06470    0.56600    1.000
    C367     C        0.77590    0.01930    0.55910    1.000
    C368     C        0.73170    0.00660    0.56600    1.000
    C369     C        0.69830    0.03700    0.57800    1.000
    N44      N        0.70070    0.07060    0.58090    1.000
    C370     C        0.74520    0.07940    0.57400    1.000
    C371     C        0.77710    0.04680    0.56410    1.000
    C372     C        0.76620    0.00160    0.56030    1.000
    C373     C        0.72110    0.99260    0.56740    1.000
    C374     C        0.69000    0.02610    0.57670    1.000
    H400     H        0.77200    0.14100    0.75000    1.000
    H401     H        0.59400    0.17500    0.68600    1.000
    H402     H        0.60200    0.15900    0.69200    1.000
    H403     H        0.52300    0.20900    0.66200    1.000
    H404     H        0.51200    0.16700    0.69600    1.000
    H405     H        0.50600    0.16100    0.64200    1.000
    H406     H        0.52900    0.19300    0.67800    1.000
    H407     H        0.52300    0.15000    0.71200    1.000
    H408     H        0.51000    0.14500    0.65900    1.000
    H409     H        0.75800    0.12700    0.58300    1.000
    H410     H        0.81500    0.07700    0.56200    1.000
    H411     H        0.80000    0.99800    0.55000    1.000
    H412     H        0.72300    0.97400    0.56200    1.000
    H413     H        0.66700    0.02500    0.58200    1.000
    H414     H        0.75500    0.11200    0.57600    1.000
    H415     H        0.80900    0.05600    0.56000    1.000
    H416     H        0.78900    0.97800    0.55300    1.000
    H417     H        0.71000    0.96100    0.56600    1.000
    H418     H        0.65800    0.01700    0.58000    1.000
    Ni155    Ni       0.85080    0.86960    0.09940    1.000
    Ni156    Ni       0.82660    0.87810    0.09040    1.000
    Ni157    Ni       0.82690    0.89290    0.09410    1.000
    Ni158    Ni       0.84660    0.88220    0.13010    1.000
    Ni159    Ni       0.82560    0.85270    0.11300    1.000
    Ni160    Ni       0.82000    0.87280    0.11230    1.000
    Ni161    Ni       0.86160    0.90340    0.10610    1.000
    O133     O        0.81020    0.83440    0.14450    1.000
    O134     O        0.79700    0.84230    0.13870    1.000
    O135     O        0.79750    0.88120    0.20420    1.000
    O136     O        0.80900    0.87690    0.20970    1.000
    C375     C        0.78690    0.84570    0.18110    1.000
    C376     C        0.74660    0.81900    0.19530    1.000
    C377     C        0.71970    0.83090    0.23260    1.000
    O137     O        0.90880    0.82940    0.11780    1.000
    O138     O        0.87510    0.90990    0.15830    1.000
    C378     C        0.92460    0.84100    0.16320    1.000
    C379     C        0.91880    0.85620    0.17050    1.000
    C380     C        0.97560    0.82440    0.16620    1.000
    C381     C        0.96900    0.84040    0.18100    1.000
    N45      N        0.79420    0.91810    0.08450    1.000
    C382     C        0.75050    0.90570    0.07830    1.000
    C383     C        0.71650    0.93530    0.06600    1.000
    C384     C        0.72410    0.98070    0.05910    1.000
    C385     C        0.76830    0.99340    0.06600    1.000
    C386     C        0.80170    0.96300    0.07800    1.000
    N46      N        0.79930    0.92940    0.08090    1.000
    C387     C        0.75480    0.92060    0.07400    1.000
    C388     C        0.72290    0.95320    0.06410    1.000
    C389     C        0.73380    0.99840    0.06030    1.000
    C390     C        0.77890    0.00740    0.06740    1.000
    C391     C        0.81000    0.97390    0.07670    1.000
    H419     H        0.72800    0.85900    0.25000    1.000
    H420     H        0.90600    0.82500    0.18600    1.000
    H421     H        0.89800    0.84100    0.19200    1.000
    H422     H        0.97700    0.79100    0.16200    1.000
    H423     H        0.98800    0.83300    0.19600    1.000
    H424     H        0.99400    0.83900    0.14200    1.000
    H425     H        0.97100    0.80700    0.17800    1.000
    H426     H        0.97700    0.85000    0.21200    1.000
    H427     H        0.99000    0.85500    0.15900    1.000
    H428     H        0.74200    0.87300    0.08300    1.000
    H429     H        0.68500    0.92300    0.06200    1.000
    H430     H        0.70000    0.00200    0.05000    1.000
    H431     H        0.77700    0.02600    0.06200    1.000
    H432     H        0.83300    0.97500    0.08200    1.000
    H433     H        0.74500    0.88800    0.07600    1.000
    H434     H        0.69100    0.94400    0.06000    1.000
    H435     H        0.71100    0.02200    0.05300    1.000
    H436     H        0.79000    0.03900    0.06600    1.000
    H437     H        0.84200    0.98300    0.08000    1.000
    Ni162    Ni       0.35080    0.63040    0.90060    1.000
    Ni163    Ni       0.32660    0.62190    0.90960    1.000
    Ni164    Ni       0.32690    0.60710    0.90590    1.000
    Ni165    Ni       0.34660    0.61780    0.86990    1.000
    Ni166    Ni       0.32560    0.64730    0.88700    1.000
    Ni167    Ni       0.32000    0.62720    0.88770    1.000
    Ni168    Ni       0.36160    0.59660    0.89390    1.000
    O139     O        0.31020    0.66560    0.85550    1.000
    O140     O        0.29700    0.65770    0.86130    1.000
    O141     O        0.29750    0.61880    0.79580    1.000
    O142     O        0.30900    0.62310    0.79030    1.000
    C392     C        0.28690    0.65430    0.81890    1.000
    C393     C        0.24660    0.68100    0.80470    1.000
    C394     C        0.21970    0.66910    0.76740    1.000
    O143     O        0.40880    0.67060    0.88220    1.000
    O144     O        0.37510    0.59010    0.84170    1.000
    C395     C        0.42460    0.65900    0.83680    1.000
    C396     C        0.41880    0.64380    0.82950    1.000
    C397     C        0.47560    0.67560    0.83380    1.000
    C398     C        0.46900    0.65960    0.81900    1.000
    N47      N        0.29420    0.58190    0.91550    1.000
    C399     C        0.25050    0.59430    0.92170    1.000
    C400     C        0.21650    0.56470    0.93400    1.000
    C401     C        0.22410    0.51930    0.94090    1.000
    C402     C        0.26830    0.50660    0.93400    1.000
    C403     C        0.30170    0.53700    0.92200    1.000
    N48      N        0.29930    0.57060    0.91910    1.000
    C404     C        0.25480    0.57940    0.92600    1.000
    C405     C        0.22290    0.54680    0.93590    1.000
    C406     C        0.23380    0.50160    0.93970    1.000
    C407     C        0.27890    0.49260    0.93260    1.000
    C408     C        0.31000    0.52610    0.92330    1.000
    H438     H        0.22800    0.64100    0.75000    1.000
    H439     H        0.40600    0.67500    0.81400    1.000
    H440     H        0.39800    0.65900    0.80800    1.000
    H441     H        0.47700    0.70900    0.83800    1.000
    H442     H        0.48800    0.66700    0.80400    1.000
    H443     H        0.49400    0.66100    0.85800    1.000
    H444     H        0.47100    0.69300    0.82200    1.000
    H445     H        0.47700    0.65000    0.78800    1.000
    H446     H        0.49000    0.64500    0.84100    1.000
    H447     H        0.24200    0.62700    0.91700    1.000
    H448     H        0.18500    0.57700    0.93800    1.000
    H449     H        0.20000    0.49800    0.95000    1.000
    H450     H        0.27700    0.47400    0.93800    1.000
    H451     H        0.33300    0.52500    0.91800    1.000
    H452     H        0.24500    0.61200    0.92400    1.000
    H453     H        0.19100    0.55600    0.94000    1.000
    H454     H        0.21100    0.47800    0.94700    1.000
    H455     H        0.29000    0.46100    0.93400    1.000
    H456     H        0.34200    0.51700    0.92000    1.000
    Ni169    Ni       0.84940    0.11960    0.39920    1.000
    Ni170    Ni       0.84040    0.12810    0.42340    1.000
    Ni171    Ni       0.84410    0.14290    0.42310    1.000
    Ni172    Ni       0.88010    0.13220    0.40340    1.000
    Ni173    Ni       0.86300    0.10270    0.42440    1.000
    Ni174    Ni       0.86230    0.12280    0.43000    1.000
    Ni175    Ni       0.85610    0.15340    0.38840    1.000
    O145     O        0.89450    0.08440    0.43980    1.000
    O146     O        0.88870    0.09230    0.45300    1.000
    O147     O        0.95420    0.13120    0.45250    1.000
    O148     O        0.95970    0.12690    0.44100    1.000
    C409     C        0.93110    0.09570    0.46310    1.000
    C410     C        0.94530    0.06900    0.50340    1.000
    C411     C        0.98260    0.08090    0.53030    1.000
    O149     O        0.86780    0.07940    0.34120    1.000
    O150     O        0.90830    0.15990    0.37490    1.000
    C412     C        0.91320    0.09100    0.32540    1.000
    C413     C        0.92050    0.10620    0.33120    1.000
    C414     C        0.91620    0.07440    0.27440    1.000
    C415     C        0.93100    0.09040    0.28100    1.000
    N49      N        0.83450    0.16810    0.45580    1.000
    C416     C        0.82830    0.15570    0.49950    1.000
    C417     C        0.81600    0.18530    0.53350    1.000
    C418     C        0.80910    0.23070    0.52590    1.000
    C419     C        0.81600    0.24340    0.48170    1.000
    C420     C        0.82800    0.21300    0.44830    1.000
    N50      N        0.83090    0.17940    0.45070    1.000
    C421     C        0.82400    0.17060    0.49520    1.000
    C422     C        0.81410    0.20320    0.52710    1.000
    C423     C        0.81030    0.24840    0.51620    1.000
    C424     C        0.81740    0.25740    0.47110    1.000
    C425     C        0.82670    0.22390    0.44000    1.000
    H457     H        0.00000    0.10900    0.52200    1.000
    H458     H        0.93600    0.07500    0.34400    1.000
    H459     H        0.94200    0.09100    0.35200    1.000
    H460     H        0.91200    0.04100    0.27300    1.000
    H461     H        0.94600    0.08300    0.26200    1.000
    H462     H        0.89200    0.08900    0.25600    1.000
    H463     H        0.92800    0.05700    0.27900    1.000
    H464     H        0.96200    0.10000    0.27300    1.000
    H465     H        0.90900    0.10500    0.26000    1.000
    H466     H        0.83300    0.12300    0.50800    1.000
    H467     H        0.81200    0.17300    0.56500    1.000
    H468     H        0.80000    0.25200    0.55000    1.000
    H469     H        0.81200    0.27600    0.47300    1.000
    H470     H        0.83200    0.22500    0.41700    1.000
    H471     H        0.82600    0.13800    0.50500    1.000
    H472     H        0.81000    0.19400    0.55900    1.000
    H473     H        0.80300    0.27200    0.53900    1.000
    H474     H        0.81600    0.28900    0.46000    1.000
    H475     H        0.83000    0.23300    0.40800    1.000
    Ni176    Ni       0.65060    0.88040    0.89920    1.000
    Ni177    Ni       0.65960    0.87190    0.92340    1.000
    Ni178    Ni       0.65590    0.85710    0.92310    1.000
    Ni179    Ni       0.61990    0.86780    0.90340    1.000
    Ni180    Ni       0.63700    0.89730    0.92440    1.000
    Ni181    Ni       0.63770    0.87720    0.93000    1.000
    Ni182    Ni       0.64390    0.84660    0.88840    1.000
    O151     O        0.60550    0.91560    0.93980    1.000
    O152     O        0.61130    0.90770    0.95300    1.000
    O153     O        0.54580    0.86880    0.95250    1.000
    O154     O        0.54030    0.87310    0.94100    1.000
    C426     C        0.56890    0.90430    0.96310    1.000
    C427     C        0.55470    0.93100    0.00340    1.000
    C428     C        0.51740    0.91910    0.03030    1.000
    O155     O        0.63220    0.92060    0.84120    1.000
    O156     O        0.59170    0.84010    0.87490    1.000
    C429     C        0.58680    0.90900    0.82540    1.000
    C430     C        0.57950    0.89380    0.83120    1.000
    C431     C        0.58380    0.92560    0.77440    1.000
    C432     C        0.56900    0.90960    0.78100    1.000
    N51      N        0.66550    0.83190    0.95580    1.000
    C433     C        0.67170    0.84430    0.99950    1.000
    C434     C        0.68400    0.81470    0.03350    1.000
    C435     C        0.69090    0.76930    0.02590    1.000
    C436     C        0.68400    0.75660    0.98170    1.000
    C437     C        0.67200    0.78700    0.94830    1.000
    N52      N        0.66910    0.82060    0.95070    1.000
    C438     C        0.67600    0.82940    0.99520    1.000
    C439     C        0.68590    0.79680    0.02710    1.000
    C440     C        0.68970    0.75160    0.01620    1.000
    C441     C        0.68260    0.74260    0.97110    1.000
    C442     C        0.67330    0.77610    0.94000    1.000
    H476     H        0.50000    0.89100    0.02200    1.000
    H477     H        0.56400    0.92500    0.84400    1.000
    H478     H        0.55800    0.90900    0.85200    1.000
    H479     H        0.58800    0.95900    0.77300    1.000
    H480     H        0.55400    0.91700    0.76200    1.000
    H481     H        0.60800    0.91100    0.75600    1.000
    H482     H        0.57200    0.94300    0.77900    1.000
    H483     H        0.53800    0.90000    0.77300    1.000
    H484     H        0.59100    0.89500    0.76000    1.000
    H485     H        0.66700    0.87700    0.00800    1.000
    H486     H        0.68800    0.82700    0.06500    1.000
    H487     H        0.70000    0.74800    0.05000    1.000
    H488     H        0.68800    0.72400    0.97300    1.000
    H489     H        0.66800    0.77500    0.91700    1.000
    H490     H        0.67400    0.86200    0.00500    1.000
    H491     H        0.69000    0.80600    0.05900    1.000
    H492     H        0.69700    0.72800    0.03900    1.000
    H493     H        0.68400    0.71100    0.96000    1.000
    H494     H        0.67000    0.76700    0.90800    1.000
    Ni183    Ni       0.15060    0.61960    0.10080    1.000
    Ni184    Ni       0.15960    0.62810    0.07660    1.000
    Ni185    Ni       0.15590    0.64290    0.07690    1.000
    Ni186    Ni       0.11990    0.63220    0.09660    1.000
    Ni187    Ni       0.13700    0.60270    0.07560    1.000
    Ni188    Ni       0.13770    0.62280    0.07000    1.000
    Ni189    Ni       0.14390    0.65340    0.11160    1.000
    O157     O        0.10550    0.58440    0.06020    1.000
    O158     O        0.11130    0.59230    0.04700    1.000
    O159     O        0.04580    0.63120    0.04750    1.000
    O160     O        0.04030    0.62690    0.05900    1.000
    C443     C        0.06890    0.59570    0.03690    1.000
    C444     C        0.05470    0.56900    0.99660    1.000
    C445     C        0.01740    0.58090    0.96970    1.000
    O161     O        0.13220    0.57940    0.15880    1.000
    O162     O        0.09170    0.65990    0.12510    1.000
    C446     C        0.08680    0.59100    0.17460    1.000
    C447     C        0.07950    0.60620    0.16880    1.000
    C448     C        0.08380    0.57440    0.22560    1.000
    C449     C        0.06900    0.59040    0.21900    1.000
    N53      N        0.16550    0.66810    0.04420    1.000
    C450     C        0.17170    0.65570    0.00050    1.000
    C451     C        0.18400    0.68530    0.96650    1.000
    C452     C        0.19090    0.73070    0.97410    1.000
    C453     C        0.18400    0.74340    0.01830    1.000
    C454     C        0.17200    0.71300    0.05170    1.000
    N54      N        0.16910    0.67940    0.04930    1.000
    C455     C        0.17600    0.67060    0.00480    1.000
    C456     C        0.18590    0.70320    0.97290    1.000
    C457     C        0.18970    0.74840    0.98380    1.000
    C458     C        0.18260    0.75740    0.02890    1.000
    C459     C        0.17330    0.72390    0.06000    1.000
    H495     H        0.00000    0.60900    0.97800    1.000
    H496     H        0.06400    0.57500    0.15600    1.000
    H497     H        0.05800    0.59100    0.14800    1.000
    H498     H        0.08800    0.54100    0.22700    1.000
    H499     H        0.05400    0.58300    0.23800    1.000
    H500     H        0.10800    0.58900    0.24400    1.000
    H501     H        0.07200    0.55700    0.22100    1.000
    H502     H        0.03800    0.60000    0.22700    1.000
    H503     H        0.09100    0.60500    0.24000    1.000
    H504     H        0.16700    0.62300    0.99200    1.000
    H505     H        0.18800    0.67300    0.93500    1.000
    H506     H        0.20000    0.75200    0.95000    1.000
    H507     H        0.18800    0.77600    0.02700    1.000
    H508     H        0.16800    0.72500    0.08300    1.000
    H509     H        0.17400    0.63800    0.99500    1.000
    H510     H        0.19000    0.69400    0.94100    1.000
    H511     H        0.19700    0.77200    0.96100    1.000
    H512     H        0.18400    0.78900    0.04000    1.000
    H513     H        0.17000    0.73300    0.09200    1.000
    Ni190    Ni       0.34940    0.38040    0.60080    1.000
    Ni191    Ni       0.34040    0.37190    0.57660    1.000
    Ni192    Ni       0.34410    0.35710    0.57690    1.000
    Ni193    Ni       0.38010    0.36780    0.59660    1.000
    Ni194    Ni       0.36300    0.39730    0.57560    1.000
    Ni195    Ni       0.36230    0.37720    0.57000    1.000
    Ni196    Ni       0.35610    0.34660    0.61160    1.000
    O163     O        0.39450    0.41560    0.56020    1.000
    O164     O        0.38870    0.40770    0.54700    1.000
    O165     O        0.45420    0.36880    0.54750    1.000
    O166     O        0.45970    0.37310    0.55900    1.000
    C460     C        0.43110    0.40430    0.53690    1.000
    C461     C        0.44530    0.43100    0.49660    1.000
    C462     C        0.48260    0.41910    0.46970    1.000
    O167     O        0.36780    0.42060    0.65880    1.000
    O168     O        0.40830    0.34010    0.62510    1.000
    C463     C        0.41320    0.40900    0.67460    1.000
    C464     C        0.42050    0.39380    0.66880    1.000
    C465     C        0.41620    0.42560    0.72560    1.000
    C466     C        0.43100    0.40960    0.71900    1.000
    N55      N        0.33450    0.33190    0.54420    1.000
    C467     C        0.32830    0.34430    0.50050    1.000
    C468     C        0.31600    0.31470    0.46650    1.000
    C469     C        0.30910    0.26930    0.47410    1.000
    C470     C        0.31600    0.25660    0.51830    1.000
    C471     C        0.32800    0.28700    0.55170    1.000
    N56      N        0.33090    0.32060    0.54930    1.000
    C472     C        0.32400    0.32940    0.50480    1.000
    C473     C        0.31410    0.29680    0.47290    1.000
    C474     C        0.31030    0.25160    0.48380    1.000
    C475     C        0.31740    0.24260    0.52890    1.000
    C476     C        0.32670    0.27610    0.56000    1.000
    H514     H        0.50000    0.39100    0.47800    1.000
    H515     H        0.43600    0.42500    0.65600    1.000
    H516     H        0.44200    0.40900    0.64800    1.000
    H517     H        0.41200    0.45900    0.72700    1.000
    H518     H        0.44600    0.41700    0.73800    1.000
    H519     H        0.39200    0.41100    0.74400    1.000
    H520     H        0.42800    0.44300    0.72100    1.000
    H521     H        0.46200    0.40000    0.72700    1.000
    H522     H        0.40900    0.39500    0.74000    1.000
    H523     H        0.33300    0.37700    0.49200    1.000
    H524     H        0.31200    0.32700    0.43500    1.000
    H525     H        0.30000    0.24800    0.45000    1.000
    H526     H        0.31200    0.22400    0.52700    1.000
    H527     H        0.33200    0.27500    0.58300    1.000
    H528     H        0.32600    0.36200    0.49500    1.000
    H529     H        0.31000    0.30600    0.44100    1.000
    H530     H        0.30300    0.22800    0.46100    1.000
    H531     H        0.31600    0.21100    0.54000    1.000
    H532     H        0.33000    0.26700    0.59200    1.000
    Ni197    Ni       0.39920    0.84940    0.11960    1.000
    Ni198    Ni       0.42340    0.84040    0.12810    1.000
    Ni199    Ni       0.42310    0.84410    0.14290    1.000
    Ni200    Ni       0.40340    0.88010    0.13220    1.000
    Ni201    Ni       0.42440    0.86300    0.10270    1.000
    Ni202    Ni       0.43000    0.86230    0.12280    1.000
    Ni203    Ni       0.38840    0.85610    0.15340    1.000
    O169     O        0.43980    0.89450    0.08440    1.000
    O170     O        0.45300    0.88870    0.09230    1.000
    O171     O        0.45250    0.95420    0.13120    1.000
    O172     O        0.44100    0.95970    0.12690    1.000
    C477     C        0.46310    0.93110    0.09570    1.000
    C478     C        0.50340    0.94530    0.06900    1.000
    C479     C        0.53030    0.98260    0.08090    1.000
    O173     O        0.34120    0.86780    0.07940    1.000
    O174     O        0.37490    0.90830    0.15990    1.000
    C480     C        0.32540    0.91320    0.09100    1.000
    C481     C        0.33120    0.92050    0.10620    1.000
    C482     C        0.27440    0.91620    0.07440    1.000
    C483     C        0.28100    0.93100    0.09040    1.000
    N57      N        0.45580    0.83450    0.16810    1.000
    C484     C        0.49950    0.82830    0.15570    1.000
    C485     C        0.53350    0.81600    0.18530    1.000
    C486     C        0.52590    0.80910    0.23070    1.000
    C487     C        0.48170    0.81600    0.24340    1.000
    C488     C        0.44830    0.82800    0.21300    1.000
    N58      N        0.45070    0.83090    0.17940    1.000
    C489     C        0.49520    0.82400    0.17060    1.000
    C490     C        0.52710    0.81410    0.20320    1.000
    C491     C        0.51620    0.81030    0.24840    1.000
    C492     C        0.47110    0.81740    0.25740    1.000
    C493     C        0.44000    0.82670    0.22390    1.000
    H533     H        0.52200    0.00000    0.10900    1.000
    H534     H        0.34400    0.93600    0.07500    1.000
    H535     H        0.35200    0.94200    0.09100    1.000
    H536     H        0.27300    0.91200    0.04100    1.000
    H537     H        0.26200    0.94600    0.08300    1.000
    H538     H        0.25600    0.89200    0.08900    1.000
    H539     H        0.27900    0.92800    0.05700    1.000
    H540     H        0.27300    0.96200    0.10000    1.000
    H541     H        0.26000    0.90900    0.10500    1.000
    H542     H        0.50800    0.83300    0.12300    1.000
    H543     H        0.56500    0.81200    0.17300    1.000
    H544     H        0.55000    0.80000    0.25200    1.000
    H545     H        0.47300    0.81200    0.27600    1.000
    H546     H        0.41700    0.83200    0.22500    1.000
    H547     H        0.50500    0.82600    0.13800    1.000
    H548     H        0.55900    0.81000    0.19400    1.000
    H549     H        0.53900    0.80300    0.27200    1.000
    H550     H        0.46000    0.81600    0.28900    1.000
    H551     H        0.40800    0.83000    0.23300    1.000
    Ni204    Ni       0.89920    0.65060    0.88040    1.000
    Ni205    Ni       0.92340    0.65960    0.87190    1.000
    Ni206    Ni       0.92310    0.65590    0.85710    1.000
    Ni207    Ni       0.90340    0.61990    0.86780    1.000
    Ni208    Ni       0.92440    0.63700    0.89730    1.000
    Ni209    Ni       0.93000    0.63770    0.87720    1.000
    Ni210    Ni       0.88840    0.64390    0.84660    1.000
    O175     O        0.93980    0.60550    0.91560    1.000
    O176     O        0.95300    0.61130    0.90770    1.000
    O177     O        0.95250    0.54580    0.86880    1.000
    O178     O        0.94100    0.54030    0.87310    1.000
    C494     C        0.96310    0.56890    0.90430    1.000
    C495     C        0.00340    0.55470    0.93100    1.000
    C496     C        0.03030    0.51740    0.91910    1.000
    O179     O        0.84120    0.63220    0.92060    1.000
    O180     O        0.87490    0.59170    0.84010    1.000
    C497     C        0.82540    0.58680    0.90900    1.000
    C498     C        0.83120    0.57950    0.89380    1.000
    C499     C        0.77440    0.58380    0.92560    1.000
    C500     C        0.78100    0.56900    0.90960    1.000
    N59      N        0.95580    0.66550    0.83190    1.000
    C501     C        0.99950    0.67170    0.84430    1.000
    C502     C        0.03350    0.68400    0.81470    1.000
    C503     C        0.02590    0.69090    0.76930    1.000
    C504     C        0.98170    0.68400    0.75660    1.000
    C505     C        0.94830    0.67200    0.78700    1.000
    N60      N        0.95070    0.66910    0.82060    1.000
    C506     C        0.99520    0.67600    0.82940    1.000
    C507     C        0.02710    0.68590    0.79680    1.000
    C508     C        0.01620    0.68970    0.75160    1.000
    C509     C        0.97110    0.68260    0.74260    1.000
    C510     C        0.94000    0.67330    0.77610    1.000
    H552     H        0.02200    0.50000    0.89100    1.000
    H553     H        0.84400    0.56400    0.92500    1.000
    H554     H        0.85200    0.55800    0.90900    1.000
    H555     H        0.77300    0.58800    0.95900    1.000
    H556     H        0.76200    0.55400    0.91700    1.000
    H557     H        0.75600    0.60800    0.91100    1.000
    H558     H        0.77900    0.57200    0.94300    1.000
    H559     H        0.77300    0.53800    0.90000    1.000
    H560     H        0.76000    0.59100    0.89500    1.000
    H561     H        0.00800    0.66700    0.87700    1.000
    H562     H        0.06500    0.68800    0.82700    1.000
    H563     H        0.05000    0.70000    0.74800    1.000
    H564     H        0.97300    0.68800    0.72400    1.000
    H565     H        0.91700    0.66800    0.77500    1.000
    H566     H        0.00500    0.67400    0.86200    1.000
    H567     H        0.05900    0.69000    0.80600    1.000
    H568     H        0.03900    0.69700    0.72800    1.000
    H569     H        0.96000    0.68400    0.71100    1.000
    H570     H        0.90800    0.67000    0.76700    1.000
    Ni211    Ni       0.10080    0.15060    0.61960    1.000
    Ni212    Ni       0.07660    0.15960    0.62810    1.000
    Ni213    Ni       0.07690    0.15590    0.64290    1.000
    Ni214    Ni       0.09660    0.11990    0.63220    1.000
    Ni215    Ni       0.07560    0.13700    0.60270    1.000
    Ni216    Ni       0.07000    0.13770    0.62280    1.000
    Ni217    Ni       0.11160    0.14390    0.65340    1.000
    O181     O        0.06020    0.10550    0.58440    1.000
    O182     O        0.04700    0.11130    0.59230    1.000
    O183     O        0.04750    0.04580    0.63120    1.000
    O184     O        0.05900    0.04030    0.62690    1.000
    C511     C        0.03690    0.06890    0.59570    1.000
    C512     C        0.99660    0.05470    0.56900    1.000
    C513     C        0.96970    0.01740    0.58090    1.000
    O185     O        0.15880    0.13220    0.57940    1.000
    O186     O        0.12510    0.09170    0.65990    1.000
    C514     C        0.17460    0.08680    0.59100    1.000
    C515     C        0.16880    0.07950    0.60620    1.000
    C516     C        0.22560    0.08380    0.57440    1.000
    C517     C        0.21900    0.06900    0.59040    1.000
    N61      N        0.04420    0.16550    0.66810    1.000
    C518     C        0.00050    0.17170    0.65570    1.000
    C519     C        0.96650    0.18400    0.68530    1.000
    C520     C        0.97410    0.19090    0.73070    1.000
    C521     C        0.01830    0.18400    0.74340    1.000
    C522     C        0.05170    0.17200    0.71300    1.000
    N62      N        0.04930    0.16910    0.67940    1.000
    C523     C        0.00480    0.17600    0.67060    1.000
    C524     C        0.97290    0.18590    0.70320    1.000
    C525     C        0.98380    0.18970    0.74840    1.000
    C526     C        0.02890    0.18260    0.75740    1.000
    C527     C        0.06000    0.17330    0.72390    1.000
    H571     H        0.97800    0.00000    0.60900    1.000
    H572     H        0.15600    0.06400    0.57500    1.000
    H573     H        0.14800    0.05800    0.59100    1.000
    H574     H        0.22700    0.08800    0.54100    1.000
    H575     H        0.23800    0.05400    0.58300    1.000
    H576     H        0.24400    0.10800    0.58900    1.000
    H577     H        0.22100    0.07200    0.55700    1.000
    H578     H        0.22700    0.03800    0.60000    1.000
    H579     H        0.24000    0.09100    0.60500    1.000
    H580     H        0.99200    0.16700    0.62300    1.000
    H581     H        0.93500    0.18800    0.67300    1.000
    H582     H        0.95000    0.20000    0.75200    1.000
    H583     H        0.02700    0.18800    0.77600    1.000
    H584     H        0.08300    0.16800    0.72500    1.000
    H585     H        0.99500    0.17400    0.63800    1.000
    H586     H        0.94100    0.19000    0.69400    1.000
    H587     H        0.96100    0.19700    0.77200    1.000
    H588     H        0.04000    0.18400    0.78900    1.000
    H589     H        0.09200    0.17000    0.73300    1.000
    Ni218    Ni       0.60080    0.34940    0.38040    1.000
    Ni219    Ni       0.57660    0.34040    0.37190    1.000
    Ni220    Ni       0.57690    0.34410    0.35710    1.000
    Ni221    Ni       0.59660    0.38010    0.36780    1.000
    Ni222    Ni       0.57560    0.36300    0.39730    1.000
    Ni223    Ni       0.57000    0.36230    0.37720    1.000
    Ni224    Ni       0.61160    0.35610    0.34660    1.000
    O187     O        0.56020    0.39450    0.41560    1.000
    O188     O        0.54700    0.38870    0.40770    1.000
    O189     O        0.54750    0.45420    0.36880    1.000
    O190     O        0.55900    0.45970    0.37310    1.000
    C528     C        0.53690    0.43110    0.40430    1.000
    C529     C        0.49660    0.44530    0.43100    1.000
    C530     C        0.46970    0.48260    0.41910    1.000
    O191     O        0.65880    0.36780    0.42060    1.000
    O192     O        0.62510    0.40830    0.34010    1.000
    C531     C        0.67460    0.41320    0.40900    1.000
    C532     C        0.66880    0.42050    0.39380    1.000
    C533     C        0.72560    0.41620    0.42560    1.000
    C534     C        0.71900    0.43100    0.40960    1.000
    N63      N        0.54420    0.33450    0.33190    1.000
    C535     C        0.50050    0.32830    0.34430    1.000
    C536     C        0.46650    0.31600    0.31470    1.000
    C537     C        0.47410    0.30910    0.26930    1.000
    C538     C        0.51830    0.31600    0.25660    1.000
    C539     C        0.55170    0.32800    0.28700    1.000
    N64      N        0.54930    0.33090    0.32060    1.000
    C540     C        0.50480    0.32400    0.32940    1.000
    C541     C        0.47290    0.31410    0.29680    1.000
    C542     C        0.48380    0.31030    0.25160    1.000
    C543     C        0.52890    0.31740    0.24260    1.000
    C544     C        0.56000    0.32670    0.27610    1.000
    H590     H        0.47800    0.50000    0.39100    1.000
    H591     H        0.65600    0.43600    0.42500    1.000
    H592     H        0.64800    0.44200    0.40900    1.000
    H593     H        0.72700    0.41200    0.45900    1.000
    H594     H        0.73800    0.44600    0.41700    1.000
    H595     H        0.74400    0.39200    0.41100    1.000
    H596     H        0.72100    0.42800    0.44300    1.000
    H597     H        0.72700    0.46200    0.40000    1.000
    H598     H        0.74000    0.40900    0.39500    1.000
    H599     H        0.49200    0.33300    0.37700    1.000
    H600     H        0.43500    0.31200    0.32700    1.000
    H601     H        0.45000    0.30000    0.24800    1.000
    H602     H        0.52700    0.31200    0.22400    1.000
    H603     H        0.58300    0.33200    0.27500    1.000
    H604     H        0.49500    0.32600    0.36200    1.000
    H605     H        0.44100    0.31000    0.30600    1.000
    H606     H        0.46100    0.30300    0.22800    1.000
    H607     H        0.54000    0.31600    0.21100    1.000
    H608     H        0.59200    0.33000    0.26700    1.000
    Ni225    Ni       0.11960    0.39920    0.84940    1.000
    Ni226    Ni       0.12810    0.42340    0.84040    1.000
    Ni227    Ni       0.14290    0.42310    0.84410    1.000
    Ni228    Ni       0.13220    0.40340    0.88010    1.000
    Ni229    Ni       0.10270    0.42440    0.86300    1.000
    Ni230    Ni       0.12280    0.43000    0.86230    1.000
    Ni231    Ni       0.15340    0.38840    0.85610    1.000
    O193     O        0.08440    0.43980    0.89450    1.000
    O194     O        0.09230    0.45300    0.88870    1.000
    O195     O        0.13120    0.45250    0.95420    1.000
    O196     O        0.12690    0.44100    0.95970    1.000
    C545     C        0.09570    0.46310    0.93110    1.000
    C546     C        0.06900    0.50340    0.94530    1.000
    C547     C        0.08090    0.53030    0.98260    1.000
    O197     O        0.07940    0.34120    0.86780    1.000
    O198     O        0.15990    0.37490    0.90830    1.000
    C548     C        0.09100    0.32540    0.91320    1.000
    C549     C        0.10620    0.33120    0.92050    1.000
    C550     C        0.07440    0.27440    0.91620    1.000
    C551     C        0.09040    0.28100    0.93100    1.000
    N65      N        0.16810    0.45580    0.83450    1.000
    C552     C        0.15570    0.49950    0.82830    1.000
    C553     C        0.18530    0.53350    0.81600    1.000
    C554     C        0.23070    0.52590    0.80910    1.000
    C555     C        0.24340    0.48170    0.81600    1.000
    C556     C        0.21300    0.44830    0.82800    1.000
    N66      N        0.17940    0.45070    0.83090    1.000
    C557     C        0.17060    0.49520    0.82400    1.000
    C558     C        0.20320    0.52710    0.81410    1.000
    C559     C        0.24840    0.51620    0.81030    1.000
    C560     C        0.25740    0.47110    0.81740    1.000
    C561     C        0.22390    0.44000    0.82670    1.000
    H609     H        0.10900    0.52200    0.00000    1.000
    H610     H        0.07500    0.34400    0.93600    1.000
    H611     H        0.09100    0.35200    0.94200    1.000
    H612     H        0.04100    0.27300    0.91200    1.000
    H613     H        0.08300    0.26200    0.94600    1.000
    H614     H        0.08900    0.25600    0.89200    1.000
    H615     H        0.05700    0.27900    0.92800    1.000
    H616     H        0.10000    0.27300    0.96200    1.000
    H617     H        0.10500    0.26000    0.90900    1.000
    H618     H        0.12300    0.50800    0.83300    1.000
    H619     H        0.17300    0.56500    0.81200    1.000
    H620     H        0.25200    0.55000    0.80000    1.000
    H621     H        0.27600    0.47300    0.81200    1.000
    H622     H        0.22500    0.41700    0.83200    1.000
    H623     H        0.13800    0.50500    0.82600    1.000
    H624     H        0.19400    0.55900    0.81000    1.000
    H625     H        0.27200    0.53900    0.80300    1.000
    H626     H        0.28900    0.46000    0.81600    1.000
    H627     H        0.23300    0.40800    0.83000    1.000
    Ni232    Ni       0.88040    0.89920    0.65060    1.000
    Ni233    Ni       0.87190    0.92340    0.65960    1.000
    Ni234    Ni       0.85710    0.92310    0.65590    1.000
    Ni235    Ni       0.86780    0.90340    0.61990    1.000
    Ni236    Ni       0.89730    0.92440    0.63700    1.000
    Ni237    Ni       0.87720    0.93000    0.63770    1.000
    Ni238    Ni       0.84660    0.88840    0.64390    1.000
    O199     O        0.91560    0.93980    0.60550    1.000
    O200     O        0.90770    0.95300    0.61130    1.000
    O201     O        0.86880    0.95250    0.54580    1.000
    O202     O        0.87310    0.94100    0.54030    1.000
    C562     C        0.90430    0.96310    0.56890    1.000
    C563     C        0.93100    0.00340    0.55470    1.000
    C564     C        0.91910    0.03030    0.51740    1.000
    O203     O        0.92060    0.84120    0.63220    1.000
    O204     O        0.84010    0.87490    0.59170    1.000
    C565     C        0.90900    0.82540    0.58680    1.000
    C566     C        0.89380    0.83120    0.57950    1.000
    C567     C        0.92560    0.77440    0.58380    1.000
    C568     C        0.90960    0.78100    0.56900    1.000
    N67      N        0.83190    0.95580    0.66550    1.000
    C569     C        0.84430    0.99950    0.67170    1.000
    C570     C        0.81470    0.03350    0.68400    1.000
    C571     C        0.76930    0.02590    0.69090    1.000
    C572     C        0.75660    0.98170    0.68400    1.000
    C573     C        0.78700    0.94830    0.67200    1.000
    N68      N        0.82060    0.95070    0.66910    1.000
    C574     C        0.82940    0.99520    0.67600    1.000
    C575     C        0.79680    0.02710    0.68590    1.000
    C576     C        0.75160    0.01620    0.68970    1.000
    C577     C        0.74260    0.97110    0.68260    1.000
    C578     C        0.77610    0.94000    0.67330    1.000
    H628     H        0.89100    0.02200    0.50000    1.000
    H629     H        0.92500    0.84400    0.56400    1.000
    H630     H        0.90900    0.85200    0.55800    1.000
    H631     H        0.95900    0.77300    0.58800    1.000
    H632     H        0.91700    0.76200    0.55400    1.000
    H633     H        0.91100    0.75600    0.60800    1.000
    H634     H        0.94300    0.77900    0.57200    1.000
    H635     H        0.90000    0.77300    0.53800    1.000
    H636     H        0.89500    0.76000    0.59100    1.000
    H637     H        0.87700    0.00800    0.66700    1.000
    H638     H        0.82700    0.06500    0.68800    1.000
    H639     H        0.74800    0.05000    0.70000    1.000
    H640     H        0.72400    0.97300    0.68800    1.000
    H641     H        0.77500    0.91700    0.66800    1.000
    H642     H        0.86200    0.00500    0.67400    1.000
    H643     H        0.80600    0.05900    0.69000    1.000
    H644     H        0.72800    0.03900    0.69700    1.000
    H645     H        0.71100    0.96000    0.68400    1.000
    H646     H        0.76700    0.90800    0.67000    1.000
    Ni239    Ni       0.61960    0.10080    0.15060    1.000
    Ni240    Ni       0.62810    0.07660    0.15960    1.000
    Ni241    Ni       0.64290    0.07690    0.15590    1.000
    Ni242    Ni       0.63220    0.09660    0.11990    1.000
    Ni243    Ni       0.60270    0.07560    0.13700    1.000
    Ni244    Ni       0.62280    0.07000    0.13770    1.000
    Ni245    Ni       0.65340    0.11160    0.14390    1.000
    O205     O        0.58440    0.06020    0.10550    1.000
    O206     O        0.59230    0.04700    0.11130    1.000
    O207     O        0.63120    0.04750    0.04580    1.000
    O208     O        0.62690    0.05900    0.04030    1.000
    C579     C        0.59570    0.03690    0.06890    1.000
    C580     C        0.56900    0.99660    0.05470    1.000
    C581     C        0.58090    0.96970    0.01740    1.000
    O209     O        0.57940    0.15880    0.13220    1.000
    O210     O        0.65990    0.12510    0.09170    1.000
    C582     C        0.59100    0.17460    0.08680    1.000
    C583     C        0.60620    0.16880    0.07950    1.000
    C584     C        0.57440    0.22560    0.08380    1.000
    C585     C        0.59040    0.21900    0.06900    1.000
    N69      N        0.66810    0.04420    0.16550    1.000
    C586     C        0.65570    0.00050    0.17170    1.000
    C587     C        0.68530    0.96650    0.18400    1.000
    C588     C        0.73070    0.97410    0.19090    1.000
    C589     C        0.74340    0.01830    0.18400    1.000
    C590     C        0.71300    0.05170    0.17200    1.000
    N70      N        0.67940    0.04930    0.16910    1.000
    C591     C        0.67060    0.00480    0.17600    1.000
    C592     C        0.70320    0.97290    0.18590    1.000
    C593     C        0.74840    0.98380    0.18970    1.000
    C594     C        0.75740    0.02890    0.18260    1.000
    C595     C        0.72390    0.06000    0.17330    1.000
    H647     H        0.60900    0.97800    0.00000    1.000
    H648     H        0.57500    0.15600    0.06400    1.000
    H649     H        0.59100    0.14800    0.05800    1.000
    H650     H        0.54100    0.22700    0.08800    1.000
    H651     H        0.58300    0.23800    0.05400    1.000
    H652     H        0.58900    0.24400    0.10800    1.000
    H653     H        0.55700    0.22100    0.07200    1.000
    H654     H        0.60000    0.22700    0.03800    1.000
    H655     H        0.60500    0.24000    0.09100    1.000
    H656     H        0.62300    0.99200    0.16700    1.000
    H657     H        0.67300    0.93500    0.18800    1.000
    H658     H        0.75200    0.95000    0.20000    1.000
    H659     H        0.77600    0.02700    0.18800    1.000
    H660     H        0.72500    0.08300    0.16800    1.000
    H661     H        0.63800    0.99500    0.17400    1.000
    H662     H        0.69400    0.94100    0.19000    1.000
    H663     H        0.77200    0.96100    0.19700    1.000
    H664     H        0.78900    0.04000    0.18400    1.000
    H665     H        0.73300    0.09200    0.17000    1.000
    Ni246    Ni       0.38040    0.60080    0.34940    1.000
    Ni247    Ni       0.37190    0.57660    0.34040    1.000
    Ni248    Ni       0.35710    0.57690    0.34410    1.000
    Ni249    Ni       0.36780    0.59660    0.38010    1.000
    Ni250    Ni       0.39730    0.57560    0.36300    1.000
    Ni251    Ni       0.37720    0.57000    0.36230    1.000
    Ni252    Ni       0.34660    0.61160    0.35610    1.000
    O211     O        0.41560    0.56020    0.39450    1.000
    O212     O        0.40770    0.54700    0.38870    1.000
    O213     O        0.36880    0.54750    0.45420    1.000
    O214     O        0.37310    0.55900    0.45970    1.000
    C596     C        0.40430    0.53690    0.43110    1.000
    C597     C        0.43100    0.49660    0.44530    1.000
    C598     C        0.41910    0.46970    0.48260    1.000
    O215     O        0.42060    0.65880    0.36780    1.000
    O216     O        0.34010    0.62510    0.40830    1.000
    C599     C        0.40900    0.67460    0.41320    1.000
    C600     C        0.39380    0.66880    0.42050    1.000
    C601     C        0.42560    0.72560    0.41620    1.000
    C602     C        0.40960    0.71900    0.43100    1.000
    N71      N        0.33190    0.54420    0.33450    1.000
    C603     C        0.34430    0.50050    0.32830    1.000
    C604     C        0.31470    0.46650    0.31600    1.000
    C605     C        0.26930    0.47410    0.30910    1.000
    C606     C        0.25660    0.51830    0.31600    1.000
    C607     C        0.28700    0.55170    0.32800    1.000
    N72      N        0.32060    0.54930    0.33090    1.000
    C608     C        0.32940    0.50480    0.32400    1.000
    C609     C        0.29680    0.47290    0.31410    1.000
    C610     C        0.25160    0.48380    0.31030    1.000
    C611     C        0.24260    0.52890    0.31740    1.000
    C612     C        0.27610    0.56000    0.32670    1.000
    H666     H        0.39100    0.47800    0.50000    1.000
    H667     H        0.42500    0.65600    0.43600    1.000
    H668     H        0.40900    0.64800    0.44200    1.000
    H669     H        0.45900    0.72700    0.41200    1.000
    H670     H        0.41700    0.73800    0.44600    1.000
    H671     H        0.41100    0.74400    0.39200    1.000
    H672     H        0.44300    0.72100    0.42800    1.000
    H673     H        0.40000    0.72700    0.46200    1.000
    H674     H        0.39500    0.74000    0.40900    1.000
    H675     H        0.37700    0.49200    0.33300    1.000
    H676     H        0.32700    0.43500    0.31200    1.000
    H677     H        0.24800    0.45000    0.30000    1.000
    H678     H        0.22400    0.52700    0.31200    1.000
    H679     H        0.27500    0.58300    0.33200    1.000
    H680     H        0.36200    0.49500    0.32600    1.000
    H681     H        0.30600    0.44100    0.31000    1.000
    H682     H        0.22800    0.46100    0.30300    1.000
    H683     H        0.21100    0.54000    0.31600    1.000
    H684     H        0.26700    0.59200    0.33000    1.000
    Ni253    Ni       0.36960    0.59940    0.35080    1.000
    Ni254    Ni       0.37810    0.59040    0.32660    1.000
    Ni255    Ni       0.39290    0.59410    0.32690    1.000
    Ni256    Ni       0.38220    0.63010    0.34660    1.000
    Ni257    Ni       0.35270    0.61300    0.32560    1.000
    Ni258    Ni       0.37280    0.61230    0.32000    1.000
    Ni259    Ni       0.40340    0.60610    0.36160    1.000
    O217     O        0.33440    0.64450    0.31020    1.000
    O218     O        0.34230    0.63870    0.29700    1.000
    O219     O        0.38120    0.70420    0.29750    1.000
    O220     O        0.37690    0.70970    0.30900    1.000
    C613     C        0.34570    0.68110    0.28690    1.000
    C614     C        0.31900    0.69530    0.24660    1.000
    C615     C        0.33090    0.73260    0.21970    1.000
    O221     O        0.32940    0.61780    0.40880    1.000
    O222     O        0.40990    0.65830    0.37510    1.000
    C616     C        0.34100    0.66320    0.42460    1.000
    C617     C        0.35620    0.67050    0.41880    1.000
    C618     C        0.32440    0.66620    0.47560    1.000
    C619     C        0.34040    0.68100    0.46900    1.000
    N73      N        0.41810    0.58450    0.29420    1.000
    C620     C        0.40570    0.57830    0.25050    1.000
    C621     C        0.43530    0.56600    0.21650    1.000
    C622     C        0.48070    0.55910    0.22410    1.000
    C623     C        0.49340    0.56600    0.26830    1.000
    C624     C        0.46300    0.57800    0.30170    1.000
    N74      N        0.42940    0.58090    0.29930    1.000
    C625     C        0.42060    0.57400    0.25480    1.000
    C626     C        0.45320    0.56410    0.22290    1.000
    C627     C        0.49840    0.56030    0.23380    1.000
    C628     C        0.50740    0.56740    0.27890    1.000
    C629     C        0.47390    0.57670    0.31000    1.000
    H685     H        0.35900    0.75000    0.22800    1.000
    H686     H        0.32500    0.68600    0.40600    1.000
    H687     H        0.34100    0.69200    0.39800    1.000
    H688     H        0.29100    0.66200    0.47700    1.000
    H689     H        0.33300    0.69600    0.48800    1.000
    H690     H        0.33900    0.64200    0.49400    1.000
    H691     H        0.30700    0.67800    0.47100    1.000
    H692     H        0.35000    0.71200    0.47700    1.000
    H693     H        0.35500    0.65900    0.49000    1.000
    H694     H        0.37300    0.58300    0.24200    1.000
    H695     H        0.42300    0.56200    0.18500    1.000
    H696     H        0.50200    0.55000    0.20000    1.000
    H697     H        0.52600    0.56200    0.27700    1.000
    H698     H        0.47500    0.58200    0.33300    1.000
    H699     H        0.38800    0.57600    0.24500    1.000
    H700     H        0.44400    0.56000    0.19100    1.000
    H701     H        0.52200    0.55300    0.21100    1.000
    H702     H        0.53900    0.56600    0.29000    1.000
    H703     H        0.48300    0.58000    0.34200    1.000
    Ni260    Ni       0.13040    0.40060    0.85080    1.000
    Ni261    Ni       0.12190    0.40960    0.82660    1.000
    Ni262    Ni       0.10710    0.40590    0.82690    1.000
    Ni263    Ni       0.11780    0.36990    0.84660    1.000
    Ni264    Ni       0.14730    0.38700    0.82560    1.000
    Ni265    Ni       0.12720    0.38770    0.82000    1.000
    Ni266    Ni       0.09660    0.39390    0.86160    1.000
    O223     O        0.16560    0.35550    0.81020    1.000
    O224     O        0.15770    0.36130    0.79700    1.000
    O225     O        0.11880    0.29580    0.79750    1.000
    O226     O        0.12310    0.29030    0.80900    1.000
    C630     C        0.15430    0.31890    0.78690    1.000
    C631     C        0.18100    0.30470    0.74660    1.000
    C632     C        0.16910    0.26740    0.71970    1.000
    O227     O        0.17060    0.38220    0.90880    1.000
    O228     O        0.09010    0.34170    0.87510    1.000
    C633     C        0.15900    0.33680    0.92460    1.000
    C634     C        0.14380    0.32950    0.91880    1.000
    C635     C        0.17560    0.33380    0.97560    1.000
    C636     C        0.15960    0.31900    0.96900    1.000
    N75      N        0.08190    0.41550    0.79420    1.000
    C637     C        0.09430    0.42170    0.75050    1.000
    C638     C        0.06470    0.43400    0.71650    1.000
    C639     C        0.01930    0.44090    0.72410    1.000
    C640     C        0.00660    0.43400    0.76830    1.000
    C641     C        0.03700    0.42200    0.80170    1.000
    N76      N        0.07060    0.41910    0.79930    1.000
    C642     C        0.07940    0.42600    0.75480    1.000
    C643     C        0.04680    0.43590    0.72290    1.000
    C644     C        0.00160    0.43970    0.73380    1.000
    C645     C        0.99260    0.43260    0.77890    1.000
    C646     C        0.02610    0.42330    0.81000    1.000
    H704     H        0.14100    0.25000    0.72800    1.000
    H705     H        0.17500    0.31400    0.90600    1.000
    H706     H        0.15900    0.30800    0.89800    1.000
    H707     H        0.20900    0.33800    0.97700    1.000
    H708     H        0.16700    0.30400    0.98800    1.000
    H709     H        0.16100    0.35800    0.99400    1.000
    H710     H        0.19300    0.32200    0.97100    1.000
    H711     H        0.15000    0.28800    0.97700    1.000
    H712     H        0.14500    0.34100    0.99000    1.000
    H713     H        0.12700    0.41700    0.74200    1.000
    H714     H        0.07700    0.43800    0.68500    1.000
    H715     H        0.99800    0.45000    0.70000    1.000
    H716     H        0.97400    0.43800    0.77700    1.000
    H717     H        0.02500    0.41800    0.83300    1.000
    H718     H        0.11200    0.42400    0.74500    1.000
    H719     H        0.05600    0.44000    0.69100    1.000
    H720     H        0.97800    0.44700    0.71100    1.000
    H721     H        0.96100    0.43400    0.79000    1.000
    H722     H        0.01700    0.42000    0.84200    1.000
    Ni267    Ni       0.86960    0.90060    0.64920    1.000
    Ni268    Ni       0.87810    0.90960    0.67340    1.000
    Ni269    Ni       0.89290    0.90590    0.67310    1.000
    Ni270    Ni       0.88220    0.86990    0.65340    1.000
    Ni271    Ni       0.85270    0.88700    0.67440    1.000
    Ni272    Ni       0.87280    0.88770    0.68000    1.000
    Ni273    Ni       0.90340    0.89390    0.63840    1.000
    O229     O        0.83440    0.85550    0.68980    1.000
    O230     O        0.84230    0.86130    0.70300    1.000
    O231     O        0.88120    0.79580    0.70250    1.000
    O232     O        0.87690    0.79030    0.69100    1.000
    C647     C        0.84570    0.81890    0.71310    1.000
    C648     C        0.81900    0.80470    0.75340    1.000
    C649     C        0.83090    0.76740    0.78030    1.000
    O233     O        0.82940    0.88220    0.59120    1.000
    O234     O        0.90990    0.84170    0.62490    1.000
    C650     C        0.84100    0.83680    0.57540    1.000
    C651     C        0.85620    0.82950    0.58120    1.000
    C652     C        0.82440    0.83380    0.52440    1.000
    C653     C        0.84040    0.81900    0.53100    1.000
    N77      N        0.91810    0.91550    0.70580    1.000
    C654     C        0.90570    0.92170    0.74950    1.000
    C655     C        0.93530    0.93400    0.78350    1.000
    C656     C        0.98070    0.94090    0.77590    1.000
    C657     C        0.99340    0.93400    0.73170    1.000
    C658     C        0.96300    0.92200    0.69830    1.000
    N78      N        0.92940    0.91910    0.70070    1.000
    C659     C        0.92060    0.92600    0.74520    1.000
    C660     C        0.95320    0.93590    0.77710    1.000
    C661     C        0.99840    0.93970    0.76620    1.000
    C662     C        0.00740    0.93260    0.72110    1.000
    C663     C        0.97390    0.92330    0.69000    1.000
    H723     H        0.85900    0.75000    0.77200    1.000
    H724     H        0.82500    0.81400    0.59400    1.000
    H725     H        0.84100    0.80800    0.60200    1.000
    H726     H        0.79100    0.83800    0.52300    1.000
    H727     H        0.83300    0.80400    0.51200    1.000
    H728     H        0.83900    0.85800    0.50600    1.000
    H729     H        0.80700    0.82200    0.52900    1.000
    H730     H        0.85000    0.78800    0.52300    1.000
    H731     H        0.85500    0.84100    0.51000    1.000
    H732     H        0.87300    0.91700    0.75800    1.000
    H733     H        0.92300    0.93800    0.81500    1.000
    H734     H        0.00200    0.95000    0.80000    1.000
    H735     H        0.02600    0.93800    0.72300    1.000
    H736     H        0.97500    0.91800    0.66700    1.000
    H737     H        0.88800    0.92400    0.75500    1.000
    H738     H        0.94400    0.94000    0.80900    1.000
    H739     H        0.02200    0.94700    0.78900    1.000
    H740     H        0.03900    0.93400    0.71000    1.000
    H741     H        0.98300    0.92000    0.65800    1.000
    Ni274    Ni       0.63040    0.09940    0.14920    1.000
    Ni275    Ni       0.62190    0.09040    0.17340    1.000
    Ni276    Ni       0.60710    0.09410    0.17310    1.000
    Ni277    Ni       0.61780    0.13010    0.15340    1.000
    Ni278    Ni       0.64730    0.11300    0.17440    1.000
    Ni279    Ni       0.62720    0.11230    0.18000    1.000
    Ni280    Ni       0.59660    0.10610    0.13840    1.000
    O235     O        0.66560    0.14450    0.18980    1.000
    O236     O        0.65770    0.13870    0.20300    1.000
    O237     O        0.61880    0.20420    0.20250    1.000
    O238     O        0.62310    0.20970    0.19100    1.000
    C664     C        0.65430    0.18110    0.21310    1.000
    C665     C        0.68100    0.19530    0.25340    1.000
    C666     C        0.66910    0.23260    0.28030    1.000
    O239     O        0.67060    0.11780    0.09120    1.000
    O240     O        0.59010    0.15830    0.12490    1.000
    C667     C        0.65900    0.16320    0.07540    1.000
    C668     C        0.64380    0.17050    0.08120    1.000
    C669     C        0.67560    0.16620    0.02440    1.000
    C670     C        0.65960    0.18100    0.03100    1.000
    N79      N        0.58190    0.08450    0.20580    1.000
    C671     C        0.59430    0.07830    0.24950    1.000
    C672     C        0.56470    0.06600    0.28350    1.000
    C673     C        0.51930    0.05910    0.27590    1.000
    C674     C        0.50660    0.06600    0.23170    1.000
    C675     C        0.53700    0.07800    0.19830    1.000
    N80      N        0.57060    0.08090    0.20070    1.000
    C676     C        0.57940    0.07400    0.24520    1.000
    C677     C        0.54680    0.06410    0.27710    1.000
    C678     C        0.50160    0.06030    0.26620    1.000
    C679     C        0.49260    0.06740    0.22110    1.000
    C680     C        0.52610    0.07670    0.19000    1.000
    H742     H        0.64100    0.25000    0.27200    1.000
    H743     H        0.67500    0.18600    0.09400    1.000
    H744     H        0.65900    0.19200    0.10200    1.000
    H745     H        0.70900    0.16200    0.02300    1.000
    H746     H        0.66700    0.19600    0.01200    1.000
    H747     H        0.66100    0.14200    0.00600    1.000
    H748     H        0.69300    0.17800    0.02900    1.000
    H749     H        0.65000    0.21200    0.02300    1.000
    H750     H        0.64500    0.15900    0.01000    1.000
    H751     H        0.62700    0.08300    0.25800    1.000
    H752     H        0.57700    0.06200    0.31500    1.000
    H753     H        0.49800    0.05000    0.30000    1.000
    H754     H        0.47400    0.06200    0.22300    1.000
    H755     H        0.52500    0.08200    0.16700    1.000
    H756     H        0.61200    0.07600    0.25500    1.000
    H757     H        0.55600    0.06000    0.30900    1.000
    H758     H        0.47800    0.05300    0.28900    1.000
    H759     H        0.46100    0.06600    0.21000    1.000
    H760     H        0.51700    0.08000    0.15800    1.000
    Ni281    Ni       0.09940    0.14920    0.63040    1.000
    Ni282    Ni       0.09040    0.17340    0.62190    1.000
    Ni283    Ni       0.09410    0.17310    0.60710    1.000
    Ni284    Ni       0.13010    0.15340    0.61780    1.000
    Ni285    Ni       0.11300    0.17440    0.64730    1.000
    Ni286    Ni       0.11230    0.18000    0.62720    1.000
    Ni287    Ni       0.10610    0.13840    0.59660    1.000
    O241     O        0.14450    0.18980    0.66560    1.000
    O242     O        0.13870    0.20300    0.65770    1.000
    O243     O        0.20420    0.20250    0.61880    1.000
    O244     O        0.20970    0.19100    0.62310    1.000
    C681     C        0.18110    0.21310    0.65430    1.000
    C682     C        0.19530    0.25340    0.68100    1.000
    C683     C        0.23260    0.28030    0.66910    1.000
    O245     O        0.11780    0.09120    0.67060    1.000
    O246     O        0.15830    0.12490    0.59010    1.000
    C684     C        0.16320    0.07540    0.65900    1.000
    C685     C        0.17050    0.08120    0.64380    1.000
    C686     C        0.16620    0.02440    0.67560    1.000
    C687     C        0.18100    0.03100    0.65960    1.000
    N81      N        0.08450    0.20580    0.58190    1.000
    C688     C        0.07830    0.24950    0.59430    1.000
    C689     C        0.06600    0.28350    0.56470    1.000
    C690     C        0.05910    0.27590    0.51930    1.000
    C691     C        0.06600    0.23170    0.50660    1.000
    C692     C        0.07800    0.19830    0.53700    1.000
    N82      N        0.08090    0.20070    0.57060    1.000
    C693     C        0.07400    0.24520    0.57940    1.000
    C694     C        0.06410    0.27710    0.54680    1.000
    C695     C        0.06030    0.26620    0.50160    1.000
    C696     C        0.06740    0.22110    0.49260    1.000
    C697     C        0.07670    0.19000    0.52610    1.000
    H761     H        0.25000    0.27200    0.64100    1.000
    H762     H        0.18600    0.09400    0.67500    1.000
    H763     H        0.19200    0.10200    0.65900    1.000
    H764     H        0.16200    0.02300    0.70900    1.000
    H765     H        0.19600    0.01200    0.66700    1.000
    H766     H        0.14200    0.00600    0.66100    1.000
    H767     H        0.17800    0.02900    0.69300    1.000
    H768     H        0.21200    0.02300    0.65000    1.000
    H769     H        0.15900    0.01000    0.64500    1.000
    H770     H        0.08300    0.25800    0.62700    1.000
    H771     H        0.06200    0.31500    0.57700    1.000
    H772     H        0.05000    0.30000    0.49800    1.000
    H773     H        0.06200    0.22300    0.47400    1.000
    H774     H        0.08200    0.16700    0.52500    1.000
    H775     H        0.07600    0.25500    0.61200    1.000
    H776     H        0.06000    0.30900    0.55600    1.000
    H777     H        0.05300    0.28900    0.47800    1.000
    H778     H        0.06600    0.21000    0.46100    1.000
    H779     H        0.08000    0.15800    0.51700    1.000
    Ni288    Ni       0.90060    0.64920    0.86960    1.000
    Ni289    Ni       0.90960    0.67340    0.87810    1.000
    Ni290    Ni       0.90590    0.67310    0.89290    1.000
    Ni291    Ni       0.86990    0.65340    0.88220    1.000
    Ni292    Ni       0.88700    0.67440    0.85270    1.000
    Ni293    Ni       0.88770    0.68000    0.87280    1.000
    Ni294    Ni       0.89390    0.63840    0.90340    1.000
    O247     O        0.85550    0.68980    0.83440    1.000
    O248     O        0.86130    0.70300    0.84230    1.000
    O249     O        0.79580    0.70250    0.88120    1.000
    O250     O        0.79030    0.69100    0.87690    1.000
    C698     C        0.81890    0.71310    0.84570    1.000
    C699     C        0.80470    0.75340    0.81900    1.000
    C700     C        0.76740    0.78030    0.83090    1.000
    O251     O        0.88220    0.59120    0.82940    1.000
    O252     O        0.84170    0.62490    0.90990    1.000
    C701     C        0.83680    0.57540    0.84100    1.000
    C702     C        0.82950    0.58120    0.85620    1.000
    C703     C        0.83380    0.52440    0.82440    1.000
    C704     C        0.81900    0.53100    0.84040    1.000
    N83      N        0.91550    0.70580    0.91810    1.000
    C705     C        0.92170    0.74950    0.90570    1.000
    C706     C        0.93400    0.78350    0.93530    1.000
    C707     C        0.94090    0.77590    0.98070    1.000
    C708     C        0.93400    0.73170    0.99340    1.000
    C709     C        0.92200    0.69830    0.96300    1.000
    N84      N        0.91910    0.70070    0.92940    1.000
    C710     C        0.92600    0.74520    0.92060    1.000
    C711     C        0.93590    0.77710    0.95320    1.000
    C712     C        0.93970    0.76620    0.99840    1.000
    C713     C        0.93260    0.72110    0.00740    1.000
    C714     C        0.92330    0.69000    0.97390    1.000
    H780     H        0.75000    0.77200    0.85900    1.000
    H781     H        0.81400    0.59400    0.82500    1.000
    H782     H        0.80800    0.60200    0.84100    1.000
    H783     H        0.83800    0.52300    0.79100    1.000
    H784     H        0.80400    0.51200    0.83300    1.000
    H785     H        0.85800    0.50600    0.83900    1.000
    H786     H        0.82200    0.52900    0.80700    1.000
    H787     H        0.78800    0.52300    0.85000    1.000
    H788     H        0.84100    0.51000    0.85500    1.000
    H789     H        0.91700    0.75800    0.87300    1.000
    H790     H        0.93800    0.81500    0.92300    1.000
    H791     H        0.95000    0.80000    0.00200    1.000
    H792     H        0.93800    0.72300    0.02600    1.000
    H793     H        0.91800    0.66700    0.97500    1.000
    H794     H        0.92400    0.75500    0.88800    1.000
    H795     H        0.94000    0.80900    0.94400    1.000
    H796     H        0.94700    0.78900    0.02200    1.000
    H797     H        0.93400    0.71000    0.03900    1.000
    H798     H        0.92000    0.65800    0.98300    1.000
    Ni295    Ni       0.40060    0.85080    0.13040    1.000
    Ni296    Ni       0.40960    0.82660    0.12190    1.000
    Ni297    Ni       0.40590    0.82690    0.10710    1.000
    Ni298    Ni       0.36990    0.84660    0.11780    1.000
    Ni299    Ni       0.38700    0.82560    0.14730    1.000
    Ni300    Ni       0.38770    0.82000    0.12720    1.000
    Ni301    Ni       0.39390    0.86160    0.09660    1.000
    O253     O        0.35550    0.81020    0.16560    1.000
    O254     O        0.36130    0.79700    0.15770    1.000
    O255     O        0.29580    0.79750    0.11880    1.000
    O256     O        0.29030    0.80900    0.12310    1.000
    C715     C        0.31890    0.78690    0.15430    1.000
    C716     C        0.30470    0.74660    0.18100    1.000
    C717     C        0.26740    0.71970    0.16910    1.000
    O257     O        0.38220    0.90880    0.17060    1.000
    O258     O        0.34170    0.87510    0.09010    1.000
    C718     C        0.33680    0.92460    0.15900    1.000
    C719     C        0.32950    0.91880    0.14380    1.000
    C720     C        0.33380    0.97560    0.17560    1.000
    C721     C        0.31900    0.96900    0.15960    1.000
    N85      N        0.41550    0.79420    0.08190    1.000
    C722     C        0.42170    0.75050    0.09430    1.000
    C723     C        0.43400    0.71650    0.06470    1.000
    C724     C        0.44090    0.72410    0.01930    1.000
    C725     C        0.43400    0.76830    0.00660    1.000
    C726     C        0.42200    0.80170    0.03700    1.000
    N86      N        0.41910    0.79930    0.07060    1.000
    C727     C        0.42600    0.75480    0.07940    1.000
    C728     C        0.43590    0.72290    0.04680    1.000
    C729     C        0.43970    0.73380    0.00160    1.000
    C730     C        0.43260    0.77890    0.99260    1.000
    C731     C        0.42330    0.81000    0.02610    1.000
    H799     H        0.25000    0.72800    0.14100    1.000
    H800     H        0.31400    0.90600    0.17500    1.000
    H801     H        0.30800    0.89800    0.15900    1.000
    H802     H        0.33800    0.97700    0.20900    1.000
    H803     H        0.30400    0.98800    0.16700    1.000
    H804     H        0.35800    0.99400    0.16100    1.000
    H805     H        0.32200    0.97100    0.19300    1.000
    H806     H        0.28800    0.97700    0.15000    1.000
    H807     H        0.34100    0.99000    0.14500    1.000
    H808     H        0.41700    0.74200    0.12700    1.000
    H809     H        0.43800    0.68500    0.07700    1.000
    H810     H        0.45000    0.70000    0.99800    1.000
    H811     H        0.43800    0.77700    0.97400    1.000
    H812     H        0.41800    0.83300    0.02500    1.000
    H813     H        0.42400    0.74500    0.11200    1.000
    H814     H        0.44000    0.69100    0.05600    1.000
    H815     H        0.44700    0.71100    0.97800    1.000
    H816     H        0.43400    0.79000    0.96100    1.000
    H817     H        0.42000    0.84200    0.01700    1.000
    Ni302    Ni       0.59940    0.35080    0.36960    1.000
    Ni303    Ni       0.59040    0.32660    0.37810    1.000
    Ni304    Ni       0.59410    0.32690    0.39290    1.000
    Ni305    Ni       0.63010    0.34660    0.38220    1.000
    Ni306    Ni       0.61300    0.32560    0.35270    1.000
    Ni307    Ni       0.61230    0.32000    0.37280    1.000
    Ni308    Ni       0.60610    0.36160    0.40340    1.000
    O259     O        0.64450    0.31020    0.33440    1.000
    O260     O        0.63870    0.29700    0.34230    1.000
    O261     O        0.70420    0.29750    0.38120    1.000
    O262     O        0.70970    0.30900    0.37690    1.000
    C732     C        0.68110    0.28690    0.34570    1.000
    C733     C        0.69530    0.24660    0.31900    1.000
    C734     C        0.73260    0.21970    0.33090    1.000
    O263     O        0.61780    0.40880    0.32940    1.000
    O264     O        0.65830    0.37510    0.40990    1.000
    C735     C        0.66320    0.42460    0.34100    1.000
    C736     C        0.67050    0.41880    0.35620    1.000
    C737     C        0.66620    0.47560    0.32440    1.000
    C738     C        0.68100    0.46900    0.34040    1.000
    N87      N        0.58450    0.29420    0.41810    1.000
    C739     C        0.57830    0.25050    0.40570    1.000
    C740     C        0.56600    0.21650    0.43530    1.000
    C741     C        0.55910    0.22410    0.48070    1.000
    C742     C        0.56600    0.26830    0.49340    1.000
    C743     C        0.57800    0.30170    0.46300    1.000
    N88      N        0.58090    0.29930    0.42940    1.000
    C744     C        0.57400    0.25480    0.42060    1.000
    C745     C        0.56410    0.22290    0.45320    1.000
    C746     C        0.56030    0.23380    0.49840    1.000
    C747     C        0.56740    0.27890    0.50740    1.000
    C748     C        0.57670    0.31000    0.47390    1.000
    H818     H        0.75000    0.22800    0.35900    1.000
    H819     H        0.68600    0.40600    0.32500    1.000
    H820     H        0.69200    0.39800    0.34100    1.000
    H821     H        0.66200    0.47700    0.29100    1.000
    H822     H        0.69600    0.48800    0.33300    1.000
    H823     H        0.64200    0.49400    0.33900    1.000
    H824     H        0.67800    0.47100    0.30700    1.000
    H825     H        0.71200    0.47700    0.35000    1.000
    H826     H        0.65900    0.49000    0.35500    1.000
    H827     H        0.58300    0.24200    0.37300    1.000
    H828     H        0.56200    0.18500    0.42300    1.000
    H829     H        0.55000    0.20000    0.50200    1.000
    H830     H        0.56200    0.27700    0.52600    1.000
    H831     H        0.58200    0.33300    0.47500    1.000
    H832     H        0.57600    0.24500    0.38800    1.000
    H833     H        0.56000    0.19100    0.44400    1.000
    H834     H        0.55300    0.21100    0.52200    1.000
    H835     H        0.56600    0.29000    0.53900    1.000
    H836     H        0.58000    0.34200    0.48300    1.000
    Ni309    Ni       0.64920    0.86960    0.90060    1.000
    Ni310    Ni       0.67340    0.87810    0.90960    1.000
    Ni311    Ni       0.67310    0.89290    0.90590    1.000
    Ni312    Ni       0.65340    0.88220    0.86990    1.000
    Ni313    Ni       0.67440    0.85270    0.88700    1.000
    Ni314    Ni       0.68000    0.87280    0.88770    1.000
    Ni315    Ni       0.63840    0.90340    0.89390    1.000
    O265     O        0.68980    0.83440    0.85550    1.000
    O266     O        0.70300    0.84230    0.86130    1.000
    O267     O        0.70250    0.88120    0.79580    1.000
    O268     O        0.69100    0.87690    0.79030    1.000
    C749     C        0.71310    0.84570    0.81890    1.000
    C750     C        0.75340    0.81900    0.80470    1.000
    C751     C        0.78030    0.83090    0.76740    1.000
    O269     O        0.59120    0.82940    0.88220    1.000
    O270     O        0.62490    0.90990    0.84170    1.000
    C752     C        0.57540    0.84100    0.83680    1.000
    C753     C        0.58120    0.85620    0.82950    1.000
    C754     C        0.52440    0.82440    0.83380    1.000
    C755     C        0.53100    0.84040    0.81900    1.000
    N89      N        0.70580    0.91810    0.91550    1.000
    C756     C        0.74950    0.90570    0.92170    1.000
    C757     C        0.78350    0.93530    0.93400    1.000
    C758     C        0.77590    0.98070    0.94090    1.000
    C759     C        0.73170    0.99340    0.93400    1.000
    C760     C        0.69830    0.96300    0.92200    1.000
    N90      N        0.70070    0.92940    0.91910    1.000
    C761     C        0.74520    0.92060    0.92600    1.000
    C762     C        0.77710    0.95320    0.93590    1.000
    C763     C        0.76620    0.99840    0.93970    1.000
    C764     C        0.72110    0.00740    0.93260    1.000
    C765     C        0.69000    0.97390    0.92330    1.000
    H837     H        0.77200    0.85900    0.75000    1.000
    H838     H        0.59400    0.82500    0.81400    1.000
    H839     H        0.60200    0.84100    0.80800    1.000
    H840     H        0.52300    0.79100    0.83800    1.000
    H841     H        0.51200    0.83300    0.80400    1.000
    H842     H        0.50600    0.83900    0.85800    1.000
    H843     H        0.52900    0.80700    0.82200    1.000
    H844     H        0.52300    0.85000    0.78800    1.000
    H845     H        0.51000    0.85500    0.84100    1.000
    H846     H        0.75800    0.87300    0.91700    1.000
    H847     H        0.81500    0.92300    0.93800    1.000
    H848     H        0.80000    0.00200    0.95000    1.000
    H849     H        0.72300    0.02600    0.93800    1.000
    H850     H        0.66700    0.97500    0.91800    1.000
    H851     H        0.75500    0.88800    0.92400    1.000
    H852     H        0.80900    0.94400    0.94000    1.000
    H853     H        0.78900    0.02200    0.94700    1.000
    H854     H        0.71000    0.03900    0.93400    1.000
    H855     H        0.65800    0.98300    0.92000    1.000
    Ni316    Ni       0.14920    0.63040    0.09940    1.000
    Ni317    Ni       0.17340    0.62190    0.09040    1.000
    Ni318    Ni       0.17310    0.60710    0.09410    1.000
    Ni319    Ni       0.15340    0.61780    0.13010    1.000
    Ni320    Ni       0.17440    0.64730    0.11300    1.000
    Ni321    Ni       0.18000    0.62720    0.11230    1.000
    Ni322    Ni       0.13840    0.59660    0.10610    1.000
    O271     O        0.18980    0.66560    0.14450    1.000
    O272     O        0.20300    0.65770    0.13870    1.000
    O273     O        0.20250    0.61880    0.20420    1.000
    O274     O        0.19100    0.62310    0.20970    1.000
    C766     C        0.21310    0.65430    0.18110    1.000
    C767     C        0.25340    0.68100    0.19530    1.000
    C768     C        0.28030    0.66910    0.23260    1.000
    O275     O        0.09120    0.67060    0.11780    1.000
    O276     O        0.12490    0.59010    0.15830    1.000
    C769     C        0.07540    0.65900    0.16320    1.000
    C770     C        0.08120    0.64380    0.17050    1.000
    C771     C        0.02440    0.67560    0.16620    1.000
    C772     C        0.03100    0.65960    0.18100    1.000
    N91      N        0.20580    0.58190    0.08450    1.000
    C773     C        0.24950    0.59430    0.07830    1.000
    C774     C        0.28350    0.56470    0.06600    1.000
    C775     C        0.27590    0.51930    0.05910    1.000
    C776     C        0.23170    0.50660    0.06600    1.000
    C777     C        0.19830    0.53700    0.07800    1.000
    N92      N        0.20070    0.57060    0.08090    1.000
    C778     C        0.24520    0.57940    0.07400    1.000
    C779     C        0.27710    0.54680    0.06410    1.000
    C780     C        0.26620    0.50160    0.06030    1.000
    C781     C        0.22110    0.49260    0.06740    1.000
    C782     C        0.19000    0.52610    0.07670    1.000
    H856     H        0.27200    0.64100    0.25000    1.000
    H857     H        0.09400    0.67500    0.18600    1.000
    H858     H        0.10200    0.65900    0.19200    1.000
    H859     H        0.02300    0.70900    0.16200    1.000
    H860     H        0.01200    0.66700    0.19600    1.000
    H861     H        0.00600    0.66100    0.14200    1.000
    H862     H        0.02900    0.69300    0.17800    1.000
    H863     H        0.02300    0.65000    0.21200    1.000
    H864     H        0.01000    0.64500    0.15900    1.000
    H865     H        0.25800    0.62700    0.08300    1.000
    H866     H        0.31500    0.57700    0.06200    1.000
    H867     H        0.30000    0.49800    0.05000    1.000
    H868     H        0.22300    0.47400    0.06200    1.000
    H869     H        0.16700    0.52500    0.08200    1.000
    H870     H        0.25500    0.61200    0.07600    1.000
    H871     H        0.30900    0.55600    0.06000    1.000
    H872     H        0.28900    0.47800    0.05300    1.000
    H873     H        0.21000    0.46100    0.06600    1.000
    H874     H        0.15800    0.51700    0.08000    1.000
    Ni323    Ni       0.35080    0.36960    0.59940    1.000
    Ni324    Ni       0.32660    0.37810    0.59040    1.000
    Ni325    Ni       0.32690    0.39290    0.59410    1.000
    Ni326    Ni       0.34660    0.38220    0.63010    1.000
    Ni327    Ni       0.32560    0.35270    0.61300    1.000
    Ni328    Ni       0.32000    0.37280    0.61230    1.000
    Ni329    Ni       0.36160    0.40340    0.60610    1.000
    O277     O        0.31020    0.33440    0.64450    1.000
    O278     O        0.29700    0.34230    0.63870    1.000
    O279     O        0.29750    0.38120    0.70420    1.000
    O280     O        0.30900    0.37690    0.70970    1.000
    C783     C        0.28690    0.34570    0.68110    1.000
    C784     C        0.24660    0.31900    0.69530    1.000
    C785     C        0.21970    0.33090    0.73260    1.000
    O281     O        0.40880    0.32940    0.61780    1.000
    O282     O        0.37510    0.40990    0.65830    1.000
    C786     C        0.42460    0.34100    0.66320    1.000
    C787     C        0.41880    0.35620    0.67050    1.000
    C788     C        0.47560    0.32440    0.66620    1.000
    C789     C        0.46900    0.34040    0.68100    1.000
    N93      N        0.29420    0.41810    0.58450    1.000
    C790     C        0.25050    0.40570    0.57830    1.000
    C791     C        0.21650    0.43530    0.56600    1.000
    C792     C        0.22410    0.48070    0.55910    1.000
    C793     C        0.26830    0.49340    0.56600    1.000
    C794     C        0.30170    0.46300    0.57800    1.000
    N94      N        0.29930    0.42940    0.58090    1.000
    C795     C        0.25480    0.42060    0.57400    1.000
    C796     C        0.22290    0.45320    0.56410    1.000
    C797     C        0.23380    0.49840    0.56030    1.000
    C798     C        0.27890    0.50740    0.56740    1.000
    C799     C        0.31000    0.47390    0.57670    1.000
    H875     H        0.22800    0.35900    0.75000    1.000
    H876     H        0.40600    0.32500    0.68600    1.000
    H877     H        0.39800    0.34100    0.69200    1.000
    H878     H        0.47700    0.29100    0.66200    1.000
    H879     H        0.48800    0.33300    0.69600    1.000
    H880     H        0.49400    0.33900    0.64200    1.000
    H881     H        0.47100    0.30700    0.67800    1.000
    H882     H        0.47700    0.35000    0.71200    1.000
    H883     H        0.49000    0.35500    0.65900    1.000
    H884     H        0.24200    0.37300    0.58300    1.000
    H885     H        0.18500    0.42300    0.56200    1.000
    H886     H        0.20000    0.50200    0.55000    1.000
    H887     H        0.27700    0.52600    0.56200    1.000
    H888     H        0.33300    0.47500    0.58200    1.000
    H889     H        0.24500    0.38800    0.57600    1.000
    H890     H        0.19100    0.44400    0.56000    1.000
    H891     H        0.21100    0.52200    0.55300    1.000
    H892     H        0.29000    0.53900    0.56600    1.000
    H893     H        0.34200    0.48300    0.58000    1.000
    Ni330    Ni       0.85080    0.13040    0.40060    1.000
    Ni331    Ni       0.82660    0.12190    0.40960    1.000
    Ni332    Ni       0.82690    0.10710    0.40590    1.000
    Ni333    Ni       0.84660    0.11780    0.36990    1.000
    Ni334    Ni       0.82560    0.14730    0.38700    1.000
    Ni335    Ni       0.82000    0.12720    0.38770    1.000
    Ni336    Ni       0.86160    0.09660    0.39390    1.000
    O283     O        0.81020    0.16560    0.35550    1.000
    O284     O        0.79700    0.15770    0.36130    1.000
    O285     O        0.79750    0.11880    0.29580    1.000
    O286     O        0.80900    0.12310    0.29030    1.000
    C800     C        0.78690    0.15430    0.31890    1.000
    C801     C        0.74660    0.18100    0.30470    1.000
    C802     C        0.71970    0.16910    0.26740    1.000
    O287     O        0.90880    0.17060    0.38220    1.000
    O288     O        0.87510    0.09010    0.34170    1.000
    C803     C        0.92460    0.15900    0.33680    1.000
    C804     C        0.91880    0.14380    0.32950    1.000
    C805     C        0.97560    0.17560    0.33380    1.000
    C806     C        0.96900    0.15960    0.31900    1.000
    N95      N        0.79420    0.08190    0.41550    1.000
    C807     C        0.75050    0.09430    0.42170    1.000
    C808     C        0.71650    0.06470    0.43400    1.000
    C809     C        0.72410    0.01930    0.44090    1.000
    C810     C        0.76830    0.00660    0.43400    1.000
    C811     C        0.80170    0.03700    0.42200    1.000
    N96      N        0.79930    0.07060    0.41910    1.000
    C812     C        0.75480    0.07940    0.42600    1.000
    C813     C        0.72290    0.04680    0.43590    1.000
    C814     C        0.73380    0.00160    0.43970    1.000
    C815     C        0.77890    0.99260    0.43260    1.000
    C816     C        0.81000    0.02610    0.42330    1.000
    H894     H        0.72800    0.14100    0.25000    1.000
    H895     H        0.90600    0.17500    0.31400    1.000
    H896     H        0.89800    0.15900    0.30800    1.000
    H897     H        0.97700    0.20900    0.33800    1.000
    H898     H        0.98800    0.16700    0.30400    1.000
    H899     H        0.99400    0.16100    0.35800    1.000
    H900     H        0.97100    0.19300    0.32200    1.000
    H901     H        0.97700    0.15000    0.28800    1.000
    H902     H        0.99000    0.14500    0.34100    1.000
    H903     H        0.74200    0.12700    0.41700    1.000
    H904     H        0.68500    0.07700    0.43800    1.000
    H905     H        0.70000    0.99800    0.45000    1.000
    H906     H        0.77700    0.97400    0.43800    1.000
    H907     H        0.83300    0.02500    0.41800    1.000
    H908     H        0.74500    0.11200    0.42400    1.000
    H909     H        0.69100    0.05600    0.44000    1.000
    H910     H        0.71100    0.97800    0.44700    1.000
    H911     H        0.79000    0.96100    0.43400    1.000
    H912     H        0.84200    0.01700    0.42000    1.000
