# CIF file generated by openbabel 3.1.0, see https://openbabel.org
data_I
_chemical_name_common 'VAZLEP_clean'
_cell_length_a 7.3519
_cell_length_b 9.7295
_cell_length_c 14.7661
_cell_angle_alpha 90
_cell_angle_beta 99.6276
_cell_angle_gamma 90
_space_group_name_H-M_alt 'P 1'
_space_group_name_Hall 'P 1'
loop_
    _symmetry_equiv_pos_as_xyz
    x,y,z
loop_
    _atom_site_label
    _atom_site_type_symbol
    _atom_site_fract_x
    _atom_site_fract_y
    _atom_site_fract_z
    _atom_site_occupancy
    Eu1      Eu       0.63539    0.44491    0.35726    1.000
    Eu2      Eu       0.86461    0.94491    0.14274    1.000
    Eu3      Eu       0.36461    0.55509    0.64274    1.000
    Eu4      Eu       0.13539    0.05509    0.85726    1.000
    H1       H        0.72440    0.95310    0.62430    1.000
    H2       H        0.82200    0.16460    0.54520    1.000
    H3       H        0.77560    0.45310    0.87570    1.000
    H4       H        0.67800    0.66460    0.95480    1.000
    H5       H        0.27560    0.04690    0.37570    1.000
    H6       H        0.17800    0.83540    0.45480    1.000
    H7       H        0.22440    0.54690    0.12430    1.000
    H8       H        0.32200    0.33540    0.04520    1.000
    C1       C        0.60710    0.72700    0.49640    1.000
    C2       C        0.68700    0.86490    0.49600    1.000
    C3       C        0.73000    0.96240    0.56210    1.000
    C4       C        0.78540    0.08070    0.51790    1.000
    C5       C        0.77440    0.04790    0.42800    1.000
    C6       C        0.81360    0.12430    0.34770    1.000
    C7       C        0.95740    0.46510    0.53810    1.000
    C8       C        0.89290    0.22700    0.00360    1.000
    C9       C        0.81300    0.36490    0.00400    1.000
    C10      C        0.77000    0.46240    0.93790    1.000
    C11      C        0.71460    0.58070    0.98210    1.000
    C12      C        0.72560    0.54790    0.07200    1.000
    C13      C        0.68640    0.62430    0.15230    1.000
    C14      C        0.54260    0.96510    0.96190    1.000
    C15      C        0.39290    0.27300    0.50360    1.000
    C16      C        0.31300    0.13510    0.50400    1.000
    C17      C        0.27000    0.03760    0.43790    1.000
    C18      C        0.21460    0.91930    0.48210    1.000
    C19      C        0.22560    0.95210    0.57200    1.000
    C20      C        0.18640    0.87570    0.65230    1.000
    C21      C        0.04260    0.53490    0.46190    1.000
    C22      C        0.10710    0.77300    0.99640    1.000
    C23      C        0.18700    0.63510    0.99600    1.000
    C24      C        0.23000    0.53760    0.06210    1.000
    C25      C        0.28540    0.41930    0.01790    1.000
    C26      C        0.27440    0.45210    0.92800    1.000
    C27      C        0.31360    0.37570    0.84770    1.000
    C28      C        0.45740    0.03490    0.03810    1.000
    O1       O        0.79290    0.42500    0.51820    1.000
    O2       O        0.58660    0.65980    0.42290    1.000
    O3       O        0.56240    0.68820    0.57080    1.000
    O4       O        0.71680    0.91420    0.41320    1.000
    O5       O        0.83550    0.25270    0.35720    1.000
    O6       O        0.82270    0.06050    0.27560    1.000
    O7       O        0.05820    0.45310    0.61520    1.000
    O8       O        0.70710    0.92500    0.98180    1.000
    O9       O        0.91340    0.15980    0.07710    1.000
    O10      O        0.93760    0.18820    0.92920    1.000
    O11      O        0.78320    0.41420    0.08680    1.000
    O12      O        0.66450    0.75270    0.14280    1.000
    O13      O        0.67730    0.56050    0.22440    1.000
    O14      O        0.44180    0.95310    0.88480    1.000
    O15      O        0.20710    0.57500    0.48180    1.000
    O16      O        0.41340    0.34020    0.57710    1.000
    O17      O        0.43760    0.31180    0.42920    1.000
    O18      O        0.28320    0.08580    0.58680    1.000
    O19      O        0.16450    0.74730    0.64280    1.000
    O20      O        0.17730    0.93950    0.72440    1.000
    O21      O        0.94180    0.54690    0.38480    1.000
    O22      O        0.29290    0.07500    0.01820    1.000
    O23      O        0.08660    0.84020    0.92290    1.000
    O24      O        0.06240    0.81180    0.07080    1.000
    O25      O        0.21680    0.58580    0.91320    1.000
    O26      O        0.33550    0.24730    0.85720    1.000
    O27      O        0.32270    0.43950    0.77560    1.000
    O28      O        0.55820    0.04690    0.11520    1.000
