data_functionalizedCrystal
_audit_creation_method	'EQeq! by Chris Wilmer'
_symmetry_space_group_name_H-M	'P1'
_symmetry_Int_Tables_number	1
_symmetry_cell_setting	triclinic
loop_
_symmetry_equiv_pos_as_xyz
  x,y,z
_cell_length_a	16.5408
_cell_length_b	17.4589
_cell_length_c	17.4589
_cell_angle_alpha	97.9961
_cell_angle_beta	95.4719
_cell_angle_gamma	84.5281
loop_
_atom_site_label
_atom_site_type_symbol
_atom_site_fract_x
_atom_site_fract_y
_atom_site_fract_z
_atom_site_charge
Mof_Zn	Zn	0.04291	0.47921	0.24657	1.189
Mof_Zn	Zn	0.86283	0.93621	0.28823	1.177
Mof_Zn	Zn	0.77429	0.75506	0.2583	1.156
Mof_Zn	Zn	0.6795	0.57748	0.23162	1.182
Mof_Zn	Zn	0.03905	0.2066	0.41652	1.202
Mof_Zn	Zn	0.00802	0.23779	0.01415	1.184
Mof_Zn	Zn	0.02842	0.04315	0.27687	1.196
Mof_Zn	Zn	0.45709	0.24657	0.47921	1.19
Mof_Zn	Zn	0.63717	0.28823	0.93621	1.178
Mof_Zn	Zn	0.72571	0.2583	0.75506	1.156
Mof_Zn	Zn	0.8205	0.23162	0.57748	1.183
Mof_Zn	Zn	0.46095	0.41652	0.2066	1.204
Mof_Zn	Zn	0.49198	0.01415	0.23779	1.188
Mof_Zn	Zn	0.47158	0.27687	0.04315	1.2
Mof_Zn	Zn	0.95709	0.52079	0.75343	1.19
Mof_Zn	Zn	0.13717	0.06379	0.71177	1.178
Mof_Zn	Zn	0.22571	0.24494	0.7417	1.157
Mof_Zn	Zn	0.3205	0.42252	0.76838	1.183
Mof_Zn	Zn	0.96095	0.7934	0.58348	1.203
Mof_Zn	Zn	0.99198	0.76221	0.98585	1.185
Mof_Zn	Zn	0.97158	0.95685	0.72313	1.197
Mof_Zn	Zn	0.54291	0.75343	0.52079	1.191
Mof_Zn	Zn	0.36283	0.71177	0.06379	1.179
Mof_Zn	Zn	0.27429	0.7417	0.24494	1.157
Mof_Zn	Zn	0.1795	0.76838	0.42252	1.183
Mof_Zn	Zn	0.53905	0.58348	0.7934	1.204
Mof_Zn	Zn	0.50802	0.98585	0.76221	1.188
Mof_Zn	Zn	0.52842	0.72313	0.95685	1.2
Mof_H 	H 	0.8997	0.0658	0.3416	0.233
Mof_H 	H 	0.1403	0.103	0.363	0.192
Mof_H 	H 	0.8188	0.6652	0.0986	0.128
Mof_H 	H 	0.8716	0.6676	0.0346	0.159
Mof_H 	H 	0.9705	0.9003	0.1325	-0.063
Mof_H 	H 	0.796	0.4219	0.2103	0.159
Mof_H 	H 	0.8856	0.4011	0.2139	0.15
Mof_H 	H 	0.9565	0.6514	0.2592	-0.046
Mof_H 	H 	0.7145	0.8458	0.115	0.124
Mof_H 	H 	0.6509	0.8462	0.0486	0.123
Mof_H 	H 	0.5578	0.6147	0.0791	-0.064
Mof_H 	H 	0.0666	0.6409	0.4463	0.128
Mof_H 	H 	0.039	0.5672	0.4028	0.112
Mof_H 	H 	0.1813	0.5763	0.1907	-0.04
Mof_H 	H 	0.9403	0.9804	0.4604	0.103
Mof_H 	H 	0.9626	0.9406	0.5306	0.092
Mof_H 	H 	0.8765	0.706	0.4208	-0.044
Mof_H 	H 	0.737	0.0895	0.2743	0.135
Mof_H 	H 	0.6468	0.1064	0.2662	0.131
Mof_H 	H 	0.5901	0.8536	0.261	-0.041
Mof_H 	H 	0.9454	0.1986	0.2428	0.125
Mof_H 	H 	0.9496	0.251	0.1832	0.144
Mof_H 	H 	0.0581	0.9787	0.1033	-0.02
Mof_H 	H 	0.2513	0.3242	0.4454	0.143
Mof_H 	H 	0.2015	0.2613	0.4589	0.107
Mof_H 	H 	0.9646	0.3523	0.3347	-0.044
Mof_H 	H 	0.6003	0.3416	0.0658	0.233
Mof_H 	H 	0.3597	0.363	0.103	0.192
Mof_H 	H 	0.6812	0.0986	0.6652	0.128
Mof_H 	H 	0.6284	0.0346	0.6676	0.158
Mof_H 	H 	0.5295	0.1325	0.9003	-0.062
Mof_H 	H 	0.704	0.2103	0.4219	0.159
Mof_H 	H 	0.6144	0.2139	0.4011	0.149
Mof_H 	H 	0.5435	0.2592	0.6514	-0.046
Mof_H 	H 	0.7855	0.115	0.8458	0.124
Mof_H 	H 	0.8491	0.0486	0.8462	0.125
Mof_H 	H 	0.9422	0.0791	0.6147	-0.061
Mof_H 	H 	0.4334	0.4463	0.6409	0.127
Mof_H 	H 	0.461	0.4028	0.5672	0.112
Mof_H 	H 	0.3187	0.1907	0.5763	-0.04
Mof_H 	H 	0.5597	0.4604	0.9804	0.105
Mof_H 	H 	0.5374	0.5306	0.9406	0.095
Mof_H 	H 	0.6235	0.4208	0.706	-0.044
Mof_H 	H 	0.763	0.2743	0.0895	0.134
Mof_H 	H 	0.8532	0.2662	0.1064	0.133
Mof_H 	H 	0.9099	0.261	0.8536	-0.041
Mof_H 	H 	0.5546	0.2428	0.1986	0.124
Mof_H 	H 	0.5504	0.1832	0.251	0.144
Mof_H 	H 	0.4419	0.1033	0.9787	-0.03
Mof_H 	H 	0.2487	0.4454	0.3242	0.143
Mof_H 	H 	0.2985	0.4589	0.2613	0.107
Mof_H 	H 	0.5354	0.3347	0.3523	-0.051
Mof_H 	H 	0.1003	0.9342	0.6584	0.233
Mof_H 	H 	0.8597	0.897	0.637	0.192
Mof_H 	H 	0.1812	0.3348	0.9014	0.128
Mof_H 	H 	0.1284	0.3324	0.9654	0.159
Mof_H 	H 	0.0295	0.0997	0.8675	-0.063
Mof_H 	H 	0.204	0.5781	0.7897	0.159
Mof_H 	H 	0.1144	0.5989	0.7861	0.15
Mof_H 	H 	0.0435	0.3486	0.7408	-0.046
Mof_H 	H 	0.2855	0.1542	0.885	0.124
Mof_H 	H 	0.3491	0.1538	0.9514	0.123
Mof_H 	H 	0.4422	0.3853	0.9209	-0.064
Mof_H 	H 	0.9334	0.3591	0.5537	0.128
Mof_H 	H 	0.961	0.4328	0.5972	0.112
Mof_H 	H 	0.8187	0.4237	0.8093	-0.04
Mof_H 	H 	0.0597	0.0196	0.5396	0.103
Mof_H 	H 	0.0374	0.0594	0.4694	0.092
Mof_H 	H 	0.1235	0.294	0.5792	-0.044
Mof_H 	H 	0.263	0.9105	0.7257	0.135
Mof_H 	H 	0.3532	0.8936	0.7338	0.131
Mof_H 	H 	0.4099	0.1464	0.739	-0.041
Mof_H 	H 	0.0546	0.8014	0.7572	0.125
Mof_H 	H 	0.0504	0.749	0.8168	0.144
Mof_H 	H 	0.9419	0.0213	0.8967	-0.02
Mof_H 	H 	0.7487	0.6758	0.5546	0.143
Mof_H 	H 	0.7985	0.7387	0.5411	0.107
Mof_H 	H 	0.0354	0.6477	0.6653	-0.044
Mof_H 	H 	0.3997	0.6584	0.9342	0.233
Mof_H 	H 	0.6403	0.637	0.897	0.192
Mof_H 	H 	0.3188	0.9014	0.3348	0.128
Mof_H 	H 	0.3716	0.9654	0.3324	0.158
Mof_H 	H 	0.4705	0.8675	0.0997	-0.062
Mof_H 	H 	0.296	0.7897	0.5781	0.159
Mof_H 	H 	0.3856	0.7861	0.5989	0.149
Mof_H 	H 	0.4565	0.7408	0.3486	-0.046
Mof_H 	H 	0.2145	0.885	0.1542	0.124
Mof_H 	H 	0.1509	0.9514	0.1538	0.125
Mof_H 	H 	0.0578	0.9209	0.3853	-0.061
Mof_H 	H 	0.5666	0.5537	0.3591	0.127
Mof_H 	H 	0.539	0.5972	0.4328	0.112
Mof_H 	H 	0.6813	0.8093	0.4237	-0.04
Mof_H 	H 	0.4403	0.5396	0.0196	0.105
Mof_H 	H 	0.4626	0.4694	0.0594	0.095
Mof_H 	H 	0.3765	0.5792	0.294	-0.044
Mof_H 	H 	0.237	0.7257	0.9105	0.134
Mof_H 	H 	0.1468	0.7338	0.8936	0.133
Mof_H 	H 	0.0901	0.739	0.1464	-0.041
Mof_H 	H 	0.4454	0.7572	0.8014	0.124
Mof_H 	H 	0.4496	0.8168	0.749	0.144
Mof_H 	H 	0.5581	0.8967	0.0213	-0.03
Mof_H 	H 	0.7513	0.5546	0.6758	0.143
Mof_H 	H 	0.7015	0.5411	0.7387	0.107
Mof_H 	H 	0.4646	0.6653	0.6477	-0.051
Mof_C 	C 	0.0425	0.3663	0.1205	0.496
Mof_C 	C 	0.6233	0.4309	0.1881	0.502
Mof_C 	C 	0.8766	0.7569	0.1119	0.186
Mof_C 	C 	0.9373	0.8611	0.1363	0.102
Mof_C 	C 	0.8581	0.5125	0.2287	0.186
Mof_C 	C 	0.9164	0.6166	0.2504	0.101
Mof_C 	C 	0.6511	0.7578	0.1026	0.186
Mof_C 	C 	0.5923	0.654	0.0954	0.086
Mof_C 	C 	0.1146	0.6135	0.3477	0.178
Mof_C 	C 	0.1675	0.5973	0.2401	0.1
Mof_C 	C 	0.9134	0.8732	0.4444	0.163
Mof_C 	C 	0.883	0.7576	0.4168	0.096
Mof_C 	C 	0.6793	0.9979	0.2685	0.187
Mof_C 	C 	0.6278	0.8904	0.264	0.086
Mof_C 	C 	0.0021	0.1466	0.1532	0.172
Mof_C 	C 	0.0451	0.032	0.109	0.046
Mof_C 	C 	0.1394	0.3355	0.3953	0.168
Mof_C 	C 	0.0199	0.3562	0.3484	0.109
Mof_C 	C 	0.4575	0.1205	0.3663	0.507
Mof_C 	C 	0.8767	0.1881	0.4309	0.503
Mof_C 	C 	0.6234	0.1119	0.7569	0.185
Mof_C 	C 	0.5627	0.1363	0.8611	0.102
Mof_C 	C 	0.6419	0.2287	0.5125	0.185
Mof_C 	C 	0.5836	0.2504	0.6166	0.1
Mof_C 	C 	0.8489	0.1026	0.7578	0.187
Mof_C 	C 	0.9077	0.0954	0.654	0.086
Mof_C 	C 	0.3854	0.3477	0.6135	0.178
Mof_C 	C 	0.3325	0.2401	0.5973	0.1
Mof_C 	C 	0.5866	0.4444	0.8732	0.165
Mof_C 	C 	0.617	0.4168	0.7576	0.096
Mof_C 	C 	0.8207	0.2685	0.9979	0.186
Mof_C 	C 	0.8722	0.264	0.8904	0.086
Mof_C 	C 	0.4979	0.1532	0.1466	0.181
Mof_C 	C 	0.4549	0.109	0.032	0.061
Mof_C 	C 	0.3606	0.3953	0.3355	0.168
Mof_C 	C 	0.4801	0.3484	0.3562	0.119
Mof_C 	C 	0.9575	0.6337	0.8795	0.496
Mof_C 	C 	0.3767	0.5691	0.8119	0.502
Mof_C 	C 	0.1234	0.2431	0.8881	0.186
Mof_C 	C 	0.0627	0.1389	0.8637	0.102
Mof_C 	C 	0.1419	0.4875	0.7713	0.186
Mof_C 	C 	0.0836	0.3834	0.7496	0.101
Mof_C 	C 	0.3489	0.2422	0.8974	0.186
Mof_C 	C 	0.4077	0.346	0.9046	0.086
Mof_C 	C 	0.8854	0.3865	0.6523	0.178
Mof_C 	C 	0.8325	0.4027	0.7599	0.1
Mof_C 	C 	0.0866	0.1268	0.5556	0.163
Mof_C 	C 	0.117	0.2424	0.5832	0.096
Mof_C 	C 	0.3207	0.0021	0.7315	0.187
Mof_C 	C 	0.3722	0.1096	0.736	0.086
Mof_C 	C 	0.9979	0.8534	0.8468	0.172
Mof_C 	C 	0.9549	0.968	0.891	0.046
Mof_C 	C 	0.8606	0.6645	0.6047	0.168
Mof_C 	C 	0.9801	0.6438	0.6516	0.109
Mof_C 	C 	0.5425	0.8795	0.6337	0.507
Mof_C 	C 	0.1233	0.8119	0.5691	0.503
Mof_C 	C 	0.3766	0.8881	0.2431	0.185
Mof_C 	C 	0.4373	0.8637	0.1389	0.102
Mof_C 	C 	0.3581	0.7713	0.4875	0.185
Mof_C 	C 	0.4164	0.7496	0.3834	0.1
Mof_C 	C 	0.1511	0.8974	0.2422	0.187
Mof_C 	C 	0.0923	0.9046	0.346	0.086
Mof_C 	C 	0.6146	0.6523	0.3865	0.178
Mof_C 	C 	0.6675	0.7599	0.4027	0.1
Mof_C 	C 	0.4134	0.5556	0.1268	0.165
Mof_C 	C 	0.383	0.5832	0.2424	0.096
Mof_C 	C 	0.1793	0.7315	0.0021	0.186
Mof_C 	C 	0.1278	0.736	0.1096	0.086
Mof_C 	C 	0.5021	0.8468	0.8534	0.181
Mof_C 	C 	0.5451	0.891	0.968	0.061
Mof_C 	C 	0.6394	0.6047	0.6645	0.168
Mof_C 	C 	0.5199	0.6516	0.6438	0.119
Mof_N 	N 	0.9308	0.79708	0.08272	-0.297
Mof_N 	N 	0.8509	0.79338	0.17862	-0.26
Mof_N 	N 	0.892	0.86171	0.19389	-0.274
Mof_N 	N 	0.8528	0.6885	0.0777	-0.344
Mof_N 	N 	0.933	0.53904	0.23896	-0.31
Mof_N 	N 	0.7997	0.57004	0.23296	-0.285
Mof_N 	N 	0.8381	0.63828	0.24772	-0.242
Mof_N 	N 	0.8449	0.4357	0.2161	-0.349
Mof_N 	N 	0.5915	0.71785	0.06075	-0.314
Mof_N 	N 	0.6856	0.72125	0.16055	-0.255
Mof_N 	N 	0.6466	0.65295	0.15465	-0.267
Mof_N 	N 	0.675	0.8246	0.0868	-0.334
Mof_N 	N 	0.1167	0.5653	0.2809	-0.303
Mof_N 	N 	0.16	0.67212	0.34908	-0.275
Mof_N 	N 	0.1949	0.66132	0.27808	-0.242
Mof_N 	N 	0.0676	0.6062	0.4062	-0.33
Mof_N 	N 	0.9168	0.80681	0.47539	-0.31
Mof_N 	N 	0.881	0.8662	0.3714	-0.279
Mof_N 	N 	0.8605	0.7899	0.3537	-0.247
Mof_N 	N 	0.9423	0.9395	0.4833	-0.318
Mof_N 	N 	0.6063	0.96803	0.26137	-0.306
Mof_N 	N 	0.7415	0.9437	0.2739	-0.284
Mof_N 	N 	0.7071	0.87348	0.27112	-0.235
Mof_N 	N 	0.6889	0.0738	0.2698	-0.336
Mof_N 	N 	0.0202	0.0777	0.1737	-0.319
Mof_N 	N 	0.0154	0.15151	0.07969	-0.273
Mof_N 	N 	0.0471	0.0785	0.0561	-0.119
Mof_N 	N 	0.9604	0.2063	0.1989	-0.334
Mof_N 	N 	0.0652	0.3066	0.3888	-0.316
Mof_N 	N 	0.1393	0.3986	0.362	-0.146
Mof_N 	N 	0.0592	0.4107	0.3299	-0.264
Mof_N 	N 	0.2059	0.3028	0.4388	-0.319
Mof_N 	N 	0.5692	0.08272	0.79708	-0.298
Mof_N 	N 	0.6491	0.17862	0.79338	-0.26
Mof_N 	N 	0.608	0.19389	0.86171	-0.274
Mof_N 	N 	0.6472	0.0777	0.6885	-0.343
Mof_N 	N 	0.567	0.23896	0.53904	-0.311
Mof_N 	N 	0.7003	0.23296	0.57004	-0.285
Mof_N 	N 	0.6619	0.24772	0.63828	-0.242
Mof_N 	N 	0.6551	0.2161	0.4357	-0.349
Mof_N 	N 	0.9085	0.06075	0.71785	-0.312
Mof_N 	N 	0.8144	0.16055	0.72125	-0.255
Mof_N 	N 	0.8534	0.15465	0.65295	-0.267
Mof_N 	N 	0.825	0.0868	0.8246	-0.334
Mof_N 	N 	0.3833	0.2809	0.5653	-0.302
Mof_N 	N 	0.34	0.34908	0.67212	-0.275
Mof_N 	N 	0.3051	0.27808	0.66132	-0.242
Mof_N 	N 	0.4324	0.4062	0.6062	-0.329
Mof_N 	N 	0.5832	0.47539	0.80681	-0.309
Mof_N 	N 	0.619	0.3714	0.8662	-0.278
Mof_N 	N 	0.6395	0.3537	0.7899	-0.247
Mof_N 	N 	0.5577	0.4833	0.9395	-0.319
Mof_N 	N 	0.8937	0.26137	0.96803	-0.306
Mof_N 	N 	0.7585	0.2739	0.9437	-0.284
Mof_N 	N 	0.7929	0.27112	0.87348	-0.235
Mof_N 	N 	0.8111	0.2698	0.0738	-0.335
Mof_N 	N 	0.4798	0.1737	0.0777	-0.32
Mof_N 	N 	0.4846	0.07969	0.15151	-0.272
Mof_N 	N 	0.4529	0.0561	0.0785	-0.12
Mof_N 	N 	0.5396	0.1989	0.2063	-0.34
Mof_N 	N 	0.4348	0.3888	0.3066	-0.317
Mof_N 	N 	0.3607	0.362	0.3986	-0.146
Mof_N 	N 	0.4408	0.3299	0.4107	-0.265
Mof_N 	N 	0.2941	0.4388	0.3028	-0.319
Mof_N 	N 	0.0692	0.20292	0.91728	-0.297
Mof_N 	N 	0.1491	0.20662	0.82138	-0.26
Mof_N 	N 	0.108	0.13829	0.80611	-0.274
Mof_N 	N 	0.1472	0.3115	0.9223	-0.344
Mof_N 	N 	0.067	0.46096	0.76104	-0.31
Mof_N 	N 	0.2003	0.42996	0.76704	-0.285
Mof_N 	N 	0.1619	0.36172	0.75228	-0.242
Mof_N 	N 	0.1551	0.5643	0.7839	-0.349
Mof_N 	N 	0.4085	0.28215	0.93925	-0.314
Mof_N 	N 	0.3144	0.27875	0.83945	-0.255
Mof_N 	N 	0.3534	0.34705	0.84535	-0.267
Mof_N 	N 	0.325	0.1754	0.9132	-0.334
Mof_N 	N 	0.8833	0.4347	0.7191	-0.303
Mof_N 	N 	0.84	0.32788	0.65092	-0.275
Mof_N 	N 	0.8051	0.33868	0.72192	-0.242
Mof_N 	N 	0.9324	0.3938	0.5938	-0.33
Mof_N 	N 	0.0832	0.19319	0.52461	-0.31
Mof_N 	N 	0.119	0.1338	0.6286	-0.279
Mof_N 	N 	0.1395	0.2101	0.6463	-0.247
Mof_N 	N 	0.0577	0.0605	0.5167	-0.318
Mof_N 	N 	0.3937	0.03197	0.73863	-0.306
Mof_N 	N 	0.2585	0.0563	0.7261	-0.284
Mof_N 	N 	0.2929	0.12652	0.72888	-0.235
Mof_N 	N 	0.3111	0.9262	0.7302	-0.336
Mof_N 	N 	0.9798	0.9223	0.8263	-0.319
Mof_N 	N 	0.9846	0.84849	0.92031	-0.273
Mof_N 	N 	0.9529	0.9215	0.9439	-0.119
Mof_N 	N 	0.0396	0.7937	0.8011	-0.334
Mof_N 	N 	0.9348	0.6934	0.6112	-0.316
Mof_N 	N 	0.8607	0.6014	0.638	-0.146
Mof_N 	N 	0.9408	0.5893	0.6701	-0.264
Mof_N 	N 	0.7941	0.6972	0.5612	-0.319
Mof_N 	N 	0.4308	0.91728	0.20292	-0.298
Mof_N 	N 	0.3509	0.82138	0.20662	-0.26
Mof_N 	N 	0.392	0.80611	0.13829	-0.274
Mof_N 	N 	0.3528	0.9223	0.3115	-0.343
Mof_N 	N 	0.433	0.76104	0.46096	-0.311
Mof_N 	N 	0.2997	0.76704	0.42996	-0.285
Mof_N 	N 	0.3381	0.75228	0.36172	-0.242
Mof_N 	N 	0.3449	0.7839	0.5643	-0.349
Mof_N 	N 	0.0915	0.93925	0.28215	-0.312
Mof_N 	N 	0.1856	0.83945	0.27875	-0.255
Mof_N 	N 	0.1466	0.84535	0.34705	-0.267
Mof_N 	N 	0.175	0.9132	0.1754	-0.334
Mof_N 	N 	0.6167	0.7191	0.4347	-0.302
Mof_N 	N 	0.66	0.65092	0.32788	-0.275
Mof_N 	N 	0.6949	0.72192	0.33868	-0.242
Mof_N 	N 	0.5676	0.5938	0.3938	-0.329
Mof_N 	N 	0.4168	0.52461	0.19319	-0.309
Mof_N 	N 	0.381	0.6286	0.1338	-0.278
Mof_N 	N 	0.3605	0.6463	0.2101	-0.247
Mof_N 	N 	0.4423	0.5167	0.0605	-0.319
Mof_N 	N 	0.1063	0.73863	0.03197	-0.306
Mof_N 	N 	0.2415	0.7261	0.0563	-0.284
Mof_N 	N 	0.2071	0.72888	0.12652	-0.235
Mof_N 	N 	0.1889	0.7302	0.9262	-0.335
Mof_N 	N 	0.5202	0.8263	0.9223	-0.32
Mof_N 	N 	0.5154	0.92031	0.84849	-0.272
Mof_N 	N 	0.5471	0.9439	0.9215	-0.12
Mof_N 	N 	0.4604	0.8011	0.7937	-0.34
Mof_N 	N 	0.5652	0.6112	0.6934	-0.317
Mof_N 	N 	0.6393	0.638	0.6014	-0.146
Mof_N 	N 	0.5592	0.6701	0.5893	-0.265
Mof_N 	N 	0.7059	0.5612	0.6972	-0.319
Mof_O 	O 	0.9239	0.0245	0.3099	-0.764
Mof_O 	O 	0.0843	0.11445	0.35445	-0.73
Mof_O 	O 	0.98	0.35003	0.14817	-0.442
Mof_O 	O 	0.0836	0.42432	0.1515	-0.51
Mof_O 	O 	0.07	0.32468	0.05988	-0.523
Mof_O 	O 	0.6139	0.49379	0.23481	-0.593
Mof_O 	O 	0.5718	0.3791	0.1869	-0.54
Mof_O 	O 	0.6853	0.4066	0.1516	-0.394
Mof_O 	O 	0.5761	0.3099	0.0245	-0.771
Mof_O 	O 	0.4157	0.35445	0.11445	-0.727
Mof_O 	O 	0.52	0.14817	0.35003	-0.452
Mof_O 	O 	0.4164	0.1515	0.42432	-0.512
Mof_O 	O 	0.43	0.05988	0.32468	-0.523
Mof_O 	O 	0.8861	0.23481	0.49379	-0.591
Mof_O 	O 	0.9282	0.1869	0.3791	-0.537
Mof_O 	O 	0.8147	0.1516	0.4066	-0.393
Mof_O 	O 	0.0761	0.9755	0.6901	-0.764
Mof_O 	O 	0.9157	0.88555	0.64555	-0.73
Mof_O 	O 	0.02	0.64997	0.85183	-0.442
Mof_O 	O 	0.9164	0.57568	0.8485	-0.51
Mof_O 	O 	0.93	0.67532	0.94012	-0.523
Mof_O 	O 	0.3861	0.50621	0.76519	-0.593
Mof_O 	O 	0.4282	0.6209	0.8131	-0.54
Mof_O 	O 	0.3147	0.5934	0.8484	-0.394
Mof_O 	O 	0.4239	0.6901	0.9755	-0.771
Mof_O 	O 	0.5843	0.64555	0.88555	-0.727
Mof_O 	O 	0.48	0.85183	0.64997	-0.452
Mof_O 	O 	0.5836	0.8485	0.57568	-0.512
Mof_O 	O 	0.57	0.94012	0.67532	-0.523
Mof_O 	O 	0.1139	0.76519	0.50621	-0.591
Mof_O 	O 	0.0718	0.8131	0.6209	-0.537
Mof_O 	O 	0.1853	0.8484	0.5934	-0.393
_end
