# CIF file generated by openbabel 3.1.0, see https://openbabel.org
data_I
_chemical_name_common 'OKIVAG_charged'
_cell_length_a 15.937
_cell_length_b 15.937
_cell_length_c 21.884
_cell_angle_alpha 90
_cell_angle_beta 90
_cell_angle_gamma 90
_space_group_name_H-M_alt 'P 1'
_space_group_name_Hall 'P 1'
loop_
    _symmetry_equiv_pos_as_xyz
    x,y,z
loop_
    _atom_site_label
    _atom_site_type_symbol
    _atom_site_fract_x
    _atom_site_fract_y
    _atom_site_fract_z
    _atom_site_occupancy
    Cd1      Cd       0.94265    0.05735    0.25000    1.000
    Cd2      Cd       0.05735    0.94265    0.75000    1.000
    Cd3      Cd       0.44265    0.44265    0.50000    1.000
    Cd4      Cd       0.55735    0.55735    0.00000    1.000
    H1       H        0.46360    0.39000    0.35070    1.000
    H2       H        0.41630    0.28490    0.28530    1.000
    H3       H        0.21530    0.25920    0.39620    1.000
    H4       H        0.27360    0.35790    0.46040    1.000
    H5       H        0.34930    0.20180    0.22080    1.000
    H6       H        0.29440    0.09280    0.16470    1.000
    H7       H        0.19920    0.99790    0.20820    1.000
    H8       H        0.20360    0.13610    0.36420    1.000
    H9       H        0.95570    0.87870    0.45910    1.000
    H10      H        0.93790    0.76990    0.52840    1.000
    H11      H        0.03770    0.66550    0.53840    1.000
    H12      H        0.17570    0.77620    0.40410    1.000
    H13      H        0.23350    0.65160    0.39120    1.000
    H14      H        0.34020    0.55570    0.40540    1.000
    H15      H        0.26580    0.51100    0.57360    1.000
    H16      H        0.15500    0.60370    0.56260    1.000
    H17      H        0.26010    0.97360    0.38840    1.000
    H18      H        0.25900    0.89210    0.35530    1.000
    H19      H        0.53640    0.61000    0.85070    1.000
    H20      H        0.58370    0.71510    0.78530    1.000
    H21      H        0.78470    0.74080    0.89620    1.000
    H22      H        0.72640    0.64210    0.96040    1.000
    H23      H        0.65070    0.79820    0.72080    1.000
    H24      H        0.70560    0.90720    0.66470    1.000
    H25      H        0.80080    0.00210    0.70820    1.000
    H26      H        0.79640    0.86390    0.86420    1.000
    H27      H        0.04430    0.12130    0.95910    1.000
    H28      H        0.06210    0.23010    0.02840    1.000
    H29      H        0.96230    0.33450    0.03840    1.000
    H30      H        0.82430    0.22380    0.90410    1.000
    H31      H        0.76650    0.34840    0.89120    1.000
    H32      H        0.65980    0.44430    0.90540    1.000
    H33      H        0.73420    0.48900    0.07360    1.000
    H34      H        0.84500    0.39630    0.06260    1.000
    H35      H        0.73990    0.02640    0.88840    1.000
    H36      H        0.74100    0.10790    0.85530    1.000
    H37      H        0.11000    0.96360    0.60070    1.000
    H38      H        0.21510    0.91630    0.53530    1.000
    H39      H        0.24080    0.71530    0.64620    1.000
    H40      H        0.14210    0.77360    0.71040    1.000
    H41      H        0.29820    0.84930    0.47080    1.000
    H42      H        0.40720    0.79440    0.41470    1.000
    H43      H        0.50210    0.69920    0.45820    1.000
    H44      H        0.36390    0.70360    0.61420    1.000
    H45      H        0.62130    0.45570    0.70910    1.000
    H46      H        0.73010    0.43790    0.77840    1.000
    H47      H        0.83450    0.53770    0.78840    1.000
    H48      H        0.72380    0.67570    0.65410    1.000
    H49      H        0.84840    0.73350    0.64120    1.000
    H50      H        0.94430    0.84020    0.65540    1.000
    H51      H        0.98900    0.76580    0.82360    1.000
    H52      H        0.89630    0.65500    0.81260    1.000
    H53      H        0.52640    0.76010    0.63840    1.000
    H54      H        0.60790    0.75900    0.60530    1.000
    H55      H        0.89000    0.03640    0.10070    1.000
    H56      H        0.78490    0.08370    0.03530    1.000
    H57      H        0.75920    0.28470    0.14620    1.000
    H58      H        0.85790    0.22640    0.21040    1.000
    H59      H        0.70180    0.15070    0.97080    1.000
    H60      H        0.59280    0.20560    0.91470    1.000
    H61      H        0.49790    0.30080    0.95820    1.000
    H62      H        0.63610    0.29640    0.11420    1.000
    H63      H        0.37870    0.54430    0.20910    1.000
    H64      H        0.26990    0.56210    0.27840    1.000
    H65      H        0.16550    0.46230    0.28840    1.000
    H66      H        0.27620    0.32430    0.15410    1.000
    H67      H        0.15160    0.26650    0.14120    1.000
    H68      H        0.05570    0.15980    0.15540    1.000
    H69      H        0.01100    0.23420    0.32360    1.000
    H70      H        0.10370    0.34500    0.31260    1.000
    H71      H        0.47360    0.23990    0.13840    1.000
    H72      H        0.39210    0.24100    0.10530    1.000
    H73      H        0.03640    0.89000    0.89930    1.000
    H74      H        0.08370    0.78490    0.96470    1.000
    H75      H        0.28470    0.75920    0.85380    1.000
    H76      H        0.22640    0.85790    0.78960    1.000
    H77      H        0.15070    0.70180    0.02920    1.000
    H78      H        0.20560    0.59280    0.08530    1.000
    H79      H        0.30080    0.49790    0.04180    1.000
    H80      H        0.29640    0.63610    0.88580    1.000
    H81      H        0.54430    0.37870    0.79090    1.000
    H82      H        0.56210    0.26990    0.72160    1.000
    H83      H        0.46230    0.16550    0.71160    1.000
    H84      H        0.32430    0.27620    0.84590    1.000
    H85      H        0.26650    0.15160    0.85880    1.000
    H86      H        0.15980    0.05570    0.84460    1.000
    H87      H        0.23420    0.01100    0.67640    1.000
    H88      H        0.34500    0.10370    0.68740    1.000
    H89      H        0.23990    0.47360    0.86160    1.000
    H90      H        0.24100    0.39210    0.89470    1.000
    H91      H        0.96360    0.11000    0.39930    1.000
    H92      H        0.91630    0.21510    0.46470    1.000
    H93      H        0.71530    0.24080    0.35380    1.000
    H94      H        0.77360    0.14210    0.28960    1.000
    H95      H        0.84930    0.29820    0.52920    1.000
    H96      H        0.79440    0.40720    0.58530    1.000
    H97      H        0.69920    0.50210    0.54180    1.000
    H98      H        0.70360    0.36390    0.38580    1.000
    H99      H        0.45570    0.62130    0.29090    1.000
    H100     H        0.43790    0.73010    0.22160    1.000
    H101     H        0.53770    0.83450    0.21160    1.000
    H102     H        0.67570    0.72380    0.34590    1.000
    H103     H        0.73350    0.84840    0.35880    1.000
    H104     H        0.84020    0.94430    0.34460    1.000
    H105     H        0.76580    0.98900    0.17640    1.000
    H106     H        0.65500    0.89630    0.18740    1.000
    H107     H        0.76010    0.52640    0.36160    1.000
    H108     H        0.75900    0.60790    0.39470    1.000
    H109     H        0.39000    0.46360    0.64930    1.000
    H110     H        0.28490    0.41630    0.71470    1.000
    H111     H        0.25920    0.21530    0.60380    1.000
    H112     H        0.35790    0.27360    0.53960    1.000
    H113     H        0.20180    0.34930    0.77920    1.000
    H114     H        0.09280    0.29440    0.83530    1.000
    H115     H        0.99790    0.19920    0.79180    1.000
    H116     H        0.13610    0.20360    0.63580    1.000
    H117     H        0.87870    0.95570    0.54090    1.000
    H118     H        0.76990    0.93790    0.47160    1.000
    H119     H        0.66550    0.03770    0.46160    1.000
    H120     H        0.77620    0.17570    0.59590    1.000
    H121     H        0.65160    0.23350    0.60880    1.000
    H122     H        0.55570    0.34020    0.59460    1.000
    H123     H        0.51100    0.26580    0.42640    1.000
    H124     H        0.60370    0.15500    0.43740    1.000
    H125     H        0.97360    0.26010    0.61160    1.000
    H126     H        0.89210    0.25900    0.64470    1.000
    H127     H        0.61000    0.53640    0.14930    1.000
    H128     H        0.71510    0.58370    0.21470    1.000
    H129     H        0.74080    0.78470    0.10380    1.000
    H130     H        0.64210    0.72640    0.03960    1.000
    H131     H        0.79820    0.65070    0.27920    1.000
    H132     H        0.90720    0.70560    0.33530    1.000
    H133     H        0.00210    0.80080    0.29180    1.000
    H134     H        0.86390    0.79640    0.13580    1.000
    H135     H        0.12130    0.04430    0.04090    1.000
    H136     H        0.23010    0.06210    0.97160    1.000
    H137     H        0.33450    0.96230    0.96160    1.000
    H138     H        0.22380    0.82430    0.09590    1.000
    H139     H        0.34840    0.76650    0.10880    1.000
    H140     H        0.44430    0.65980    0.09460    1.000
    H141     H        0.48900    0.73420    0.92640    1.000
    H142     H        0.39630    0.84500    0.93740    1.000
    H143     H        0.02640    0.73990    0.11160    1.000
    H144     H        0.10790    0.74100    0.14470    1.000
    C1       C        0.41410    0.36030    0.36150    1.000
    C2       C        0.38590    0.29740    0.32150    1.000
    C3       C        0.31200    0.25300    0.33570    1.000
    C4       C        0.26900    0.28170    0.38690    1.000
    C5       C        0.30320    0.34240    0.42440    1.000
    C6       C        0.28140    0.18130    0.29800    1.000
    C7       C        0.30830    0.16610    0.23870    1.000
    C8       C        0.27660    0.10050    0.20570    1.000
    C9       C        0.21880    0.04480    0.23080    1.000
    C10      C        0.19010    0.06020    0.29090    1.000
    C11      C        0.22220    0.12690    0.32350    1.000
    C12      C        0.12750    0.00360    0.32070    1.000
    C13      C        0.07650    0.90850    0.38170    1.000
    C14      C        0.06860    0.83930    0.42570    1.000
    C15      C        0.99720    0.83610    0.46240    1.000
    C16      C        0.98670    0.77130    0.50350    1.000
    C17      C        0.04520    0.70880    0.50910    1.000
    C18      C        0.11740    0.70910    0.47050    1.000
    C19      C        0.12760    0.77500    0.42970    1.000
    C20      C        0.18250    0.64200    0.47680    1.000
    C21      C        0.23900    0.62400    0.42940    1.000
    C22      C        0.30270    0.56640    0.43820    1.000
    C23      C        0.25910    0.54010    0.53600    1.000
    C24      C        0.19330    0.59640    0.52970    1.000
    C25      C        0.58590    0.63970    0.86150    1.000
    C26      C        0.61410    0.70260    0.82150    1.000
    C27      C        0.68800    0.74700    0.83570    1.000
    C28      C        0.73100    0.71830    0.88690    1.000
    C29      C        0.69680    0.65760    0.92440    1.000
    C30      C        0.71860    0.81870    0.79800    1.000
    C31      C        0.69170    0.83390    0.73870    1.000
    C32      C        0.72340    0.89950    0.70570    1.000
    C33      C        0.78120    0.95520    0.73080    1.000
    C34      C        0.80990    0.93980    0.79090    1.000
    C35      C        0.77780    0.87310    0.82350    1.000
    C36      C        0.87250    0.99640    0.82070    1.000
    C37      C        0.92350    0.09150    0.88170    1.000
    C38      C        0.93140    0.16070    0.92570    1.000
    C39      C        0.00280    0.16390    0.96240    1.000
    C40      C        0.01330    0.22870    0.00350    1.000
    C41      C        0.95480    0.29120    0.00910    1.000
    C42      C        0.88260    0.29090    0.97050    1.000
    C43      C        0.87240    0.22500    0.92970    1.000
    C44      C        0.81750    0.35800    0.97680    1.000
    C45      C        0.76100    0.37600    0.92940    1.000
    C46      C        0.69730    0.43360    0.93820    1.000
    C47      C        0.74090    0.45990    0.03600    1.000
    C48      C        0.80670    0.40360    0.02970    1.000
    C49      C        0.13970    0.91410    0.61150    1.000
    C50      C        0.20260    0.88590    0.57150    1.000
    C51      C        0.24700    0.81200    0.58570    1.000
    C52      C        0.21830    0.76900    0.63690    1.000
    C53      C        0.15760    0.80320    0.67440    1.000
    C54      C        0.31870    0.78140    0.54800    1.000
    C55      C        0.33390    0.80830    0.48870    1.000
    C56      C        0.39950    0.77660    0.45570    1.000
    C57      C        0.45520    0.71880    0.48080    1.000
    C58      C        0.43980    0.69010    0.54090    1.000
    C59      C        0.37310    0.72220    0.57350    1.000
    C60      C        0.49640    0.62750    0.57070    1.000
    C61      C        0.59150    0.57650    0.63170    1.000
    C62      C        0.66070    0.56860    0.67570    1.000
    C63      C        0.66390    0.49720    0.71240    1.000
    C64      C        0.72870    0.48670    0.75350    1.000
    C65      C        0.79120    0.54520    0.75910    1.000
    C66      C        0.79090    0.61740    0.72050    1.000
    C67      C        0.72500    0.62760    0.67970    1.000
    C68      C        0.85800    0.68250    0.72680    1.000
    C69      C        0.87600    0.73900    0.67940    1.000
    C70      C        0.93360    0.80270    0.68820    1.000
    C71      C        0.95990    0.75910    0.78600    1.000
    C72      C        0.90360    0.69330    0.77970    1.000
    C73      C        0.86030    0.08590    0.11150    1.000
    C74      C        0.79740    0.11410    0.07150    1.000
    C75      C        0.75300    0.18800    0.08570    1.000
    C76      C        0.78170    0.23100    0.13690    1.000
    C77      C        0.84240    0.19680    0.17440    1.000
    C78      C        0.68130    0.21860    0.04800    1.000
    C79      C        0.66610    0.19170    0.98870    1.000
    C80      C        0.60050    0.22340    0.95570    1.000
    C81      C        0.54480    0.28120    0.98080    1.000
    C82      C        0.56020    0.30990    0.04090    1.000
    C83      C        0.62690    0.27780    0.07350    1.000
    C84      C        0.50360    0.37250    0.07070    1.000
    C85      C        0.40850    0.42350    0.13170    1.000
    C86      C        0.33930    0.43140    0.17570    1.000
    C87      C        0.33610    0.50280    0.21240    1.000
    C88      C        0.27130    0.51330    0.25350    1.000
    C89      C        0.20880    0.45480    0.25910    1.000
    C90      C        0.20910    0.38260    0.22050    1.000
    C91      C        0.27500    0.37240    0.17970    1.000
    C92      C        0.14200    0.31750    0.22680    1.000
    C93      C        0.12400    0.26100    0.17940    1.000
    C94      C        0.06640    0.19730    0.18820    1.000
    C95      C        0.04010    0.24090    0.28600    1.000
    C96      C        0.09640    0.30670    0.27970    1.000
    C97      C        0.08590    0.86030    0.88850    1.000
    C98      C        0.11410    0.79740    0.92850    1.000
    C99      C        0.18800    0.75300    0.91430    1.000
    C100     C        0.23100    0.78170    0.86310    1.000
    C101     C        0.19680    0.84240    0.82560    1.000
    C102     C        0.21860    0.68130    0.95200    1.000
    C103     C        0.19170    0.66610    0.01130    1.000
    C104     C        0.22340    0.60050    0.04430    1.000
    C105     C        0.28120    0.54480    0.01920    1.000
    C106     C        0.30990    0.56020    0.95910    1.000
    C107     C        0.27780    0.62690    0.92650    1.000
    C108     C        0.37250    0.50360    0.92930    1.000
    C109     C        0.42350    0.40850    0.86830    1.000
    C110     C        0.43140    0.33930    0.82430    1.000
    C111     C        0.50280    0.33610    0.78760    1.000
    C112     C        0.51330    0.27130    0.74650    1.000
    C113     C        0.45480    0.20880    0.74090    1.000
    C114     C        0.38260    0.20910    0.77950    1.000
    C115     C        0.37240    0.27500    0.82030    1.000
    C116     C        0.31750    0.14200    0.77320    1.000
    C117     C        0.26100    0.12400    0.82060    1.000
    C118     C        0.19730    0.06640    0.81180    1.000
    C119     C        0.24090    0.04010    0.71400    1.000
    C120     C        0.30670    0.09640    0.72030    1.000
    C121     C        0.91410    0.13970    0.38850    1.000
    C122     C        0.88590    0.20260    0.42850    1.000
    C123     C        0.81200    0.24700    0.41430    1.000
    C124     C        0.76900    0.21830    0.36310    1.000
    C125     C        0.80320    0.15760    0.32560    1.000
    C126     C        0.78140    0.31870    0.45200    1.000
    C127     C        0.80830    0.33390    0.51130    1.000
    C128     C        0.77660    0.39950    0.54430    1.000
    C129     C        0.71880    0.45520    0.51920    1.000
    C130     C        0.69010    0.43980    0.45910    1.000
    C131     C        0.72220    0.37310    0.42650    1.000
    C132     C        0.62750    0.49640    0.42930    1.000
    C133     C        0.57650    0.59150    0.36830    1.000
    C134     C        0.56860    0.66070    0.32430    1.000
    C135     C        0.49720    0.66390    0.28760    1.000
    C136     C        0.48670    0.72870    0.24650    1.000
    C137     C        0.54520    0.79120    0.24090    1.000
    C138     C        0.61740    0.79090    0.27950    1.000
    C139     C        0.62760    0.72500    0.32030    1.000
    C140     C        0.68250    0.85800    0.27320    1.000
    C141     C        0.73900    0.87600    0.32060    1.000
    C142     C        0.80270    0.93360    0.31180    1.000
    C143     C        0.75910    0.95990    0.21400    1.000
    C144     C        0.69330    0.90360    0.22030    1.000
    C145     C        0.36030    0.41410    0.63850    1.000
    C146     C        0.29740    0.38590    0.67850    1.000
    C147     C        0.25300    0.31200    0.66430    1.000
    C148     C        0.28170    0.26900    0.61310    1.000
    C149     C        0.34240    0.30320    0.57560    1.000
    C150     C        0.18130    0.28140    0.70200    1.000
    C151     C        0.16610    0.30830    0.76130    1.000
    C152     C        0.10050    0.27660    0.79430    1.000
    C153     C        0.04480    0.21880    0.76920    1.000
    C154     C        0.06020    0.19010    0.70910    1.000
    C155     C        0.12690    0.22220    0.67650    1.000
    C156     C        0.00360    0.12750    0.67930    1.000
    C157     C        0.90850    0.07650    0.61830    1.000
    C158     C        0.83930    0.06860    0.57430    1.000
    C159     C        0.83610    0.99720    0.53760    1.000
    C160     C        0.77130    0.98670    0.49650    1.000
    C161     C        0.70880    0.04520    0.49090    1.000
    C162     C        0.70910    0.11740    0.52950    1.000
    C163     C        0.77500    0.12760    0.57030    1.000
    C164     C        0.64200    0.18250    0.52320    1.000
    C165     C        0.62400    0.23900    0.57060    1.000
    C166     C        0.56640    0.30270    0.56180    1.000
    C167     C        0.54010    0.25910    0.46400    1.000
    C168     C        0.59640    0.19330    0.47030    1.000
    C169     C        0.63970    0.58590    0.13850    1.000
    C170     C        0.70260    0.61410    0.17850    1.000
    C171     C        0.74700    0.68800    0.16430    1.000
    C172     C        0.71830    0.73100    0.11310    1.000
    C173     C        0.65760    0.69680    0.07560    1.000
    C174     C        0.81870    0.71860    0.20200    1.000
    C175     C        0.83390    0.69170    0.26130    1.000
    C176     C        0.89950    0.72340    0.29430    1.000
    C177     C        0.95520    0.78120    0.26920    1.000
    C178     C        0.93980    0.80990    0.20910    1.000
    C179     C        0.87310    0.77780    0.17650    1.000
    C180     C        0.99640    0.87250    0.17930    1.000
    C181     C        0.09150    0.92350    0.11830    1.000
    C182     C        0.16070    0.93140    0.07430    1.000
    C183     C        0.16390    0.00280    0.03760    1.000
    C184     C        0.22870    0.01330    0.99650    1.000
    C185     C        0.29120    0.95480    0.99090    1.000
    C186     C        0.29090    0.88260    0.02950    1.000
    C187     C        0.22500    0.87240    0.07030    1.000
    C188     C        0.35800    0.81750    0.02320    1.000
    C189     C        0.37600    0.76100    0.07060    1.000
    C190     C        0.43360    0.69730    0.06180    1.000
    C191     C        0.45990    0.74090    0.96400    1.000
    C192     C        0.40360    0.80670    0.97030    1.000
    N1       N        0.37700    0.38050    0.41200    1.000
    N2       N        0.01390    0.94480    0.35480    1.000
    N3       N        0.04580    0.00590    0.31650    1.000
    N4       N        0.14960    0.94360    0.36100    1.000
    N5       N        0.23140    0.92480    0.38280    1.000
    N6       N        0.31390    0.52540    0.49040    1.000
    N7       N        0.62300    0.61950    0.91200    1.000
    N8       N        0.98610    0.05520    0.85480    1.000
    N9       N        0.95420    0.99410    0.81650    1.000
    N10      N        0.85040    0.05640    0.86100    1.000
    N11      N        0.76860    0.07520    0.88280    1.000
    N12      N        0.68610    0.47460    0.99040    1.000
    N13      N        0.11950    0.87700    0.66200    1.000
    N14      N        0.55520    0.51390    0.60480    1.000
    N15      N        0.49410    0.54580    0.56650    1.000
    N16      N        0.55640    0.64960    0.61100    1.000
    N17      N        0.57520    0.73140    0.63280    1.000
    N18      N        0.97460    0.81390    0.74040    1.000
    N19      N        0.88050    0.12300    0.16200    1.000
    N20      N        0.44480    0.48610    0.10480    1.000
    N21      N        0.50590    0.45420    0.06650    1.000
    N22      N        0.44360    0.35040    0.11100    1.000
    N23      N        0.42480    0.26860    0.13280    1.000
    N24      N        0.02540    0.18610    0.24040    1.000
    N25      N        0.12300    0.88050    0.83800    1.000
    N26      N        0.48610    0.44480    0.89520    1.000
    N27      N        0.45420    0.50590    0.93350    1.000
    N28      N        0.35040    0.44360    0.88900    1.000
    N29      N        0.26860    0.42480    0.86720    1.000
    N30      N        0.18610    0.02540    0.75960    1.000
    N31      N        0.87700    0.11950    0.33800    1.000
    N32      N        0.51390    0.55520    0.39520    1.000
    N33      N        0.54580    0.49410    0.43350    1.000
    N34      N        0.64960    0.55640    0.38900    1.000
    N35      N        0.73140    0.57520    0.36720    1.000
    N36      N        0.81390    0.97460    0.25960    1.000
    N37      N        0.38050    0.37700    0.58800    1.000
    N38      N        0.94480    0.01390    0.64520    1.000
    N39      N        0.00590    0.04580    0.68350    1.000
    N40      N        0.94360    0.14960    0.63900    1.000
    N41      N        0.92480    0.23140    0.61720    1.000
    N42      N        0.52540    0.31390    0.50960    1.000
    N43      N        0.61950    0.62300    0.08800    1.000
    N44      N        0.05520    0.98610    0.14520    1.000
    N45      N        0.99410    0.95420    0.18350    1.000
    N46      N        0.05640    0.85040    0.13900    1.000
    N47      N        0.07520    0.76860    0.11720    1.000
    N48      N        0.47460    0.68610    0.00960    1.000
    Cl1      Cl       0.87939    0.87939    0.00000    1.000
    O1       O        0.82070    0.90170    0.04870    1.000
    O2       O        0.94040    0.85920    0.03410    1.000
    O3       O        0.90170    0.82070    0.95130    1.000
    O4       O        0.85920    0.94040    0.96590    1.000
    Cl2      Cl       0.26804    0.26804    0.00000    1.000
    O5       O        0.23570    0.22840    0.04940    1.000
    O6       O        0.33700    0.21700    0.99860    1.000
    O7       O        0.22840    0.23570    0.95060    1.000
    O8       O        0.21700    0.33700    0.00140    1.000
    Cl3      Cl       0.12061    0.12061    0.50000    1.000
    O9       O        0.17930    0.09830    0.54870    1.000
    O10      O        0.05960    0.14080    0.53410    1.000
    O11      O        0.09830    0.17930    0.45130    1.000
    O12      O        0.14080    0.05960    0.46590    1.000
    Cl4      Cl       0.73196    0.73196    0.50000    1.000
    O13      O        0.76430    0.77160    0.54940    1.000
    O14      O        0.66300    0.78300    0.49860    1.000
    O15      O        0.77160    0.76430    0.45060    1.000
    O16      O        0.78300    0.66300    0.50140    1.000
    Cl5      Cl       0.62061    0.37939    0.25000    1.000
    O17      O        0.59830    0.32070    0.29870    1.000
    O18      O        0.64080    0.44040    0.28410    1.000
    O19      O        0.67930    0.40170    0.20130    1.000
    O20      O        0.55960    0.35920    0.21590    1.000
    Cl6      Cl       0.23196    0.76804    0.25000    1.000
    O21      O        0.27160    0.73570    0.29940    1.000
    O22      O        0.28300    0.83700    0.24860    1.000
    O23      O        0.26430    0.72840    0.20060    1.000
    O24      O        0.16300    0.71700    0.25140    1.000
    Cl7      Cl       0.37939    0.62061    0.75000    1.000
    O25      O        0.40170    0.67930    0.79870    1.000
    O26      O        0.35920    0.55960    0.78410    1.000
    O27      O        0.32070    0.59830    0.70130    1.000
    O28      O        0.44040    0.64080    0.71590    1.000
    Cl8      Cl       0.76804    0.23196    0.75000    1.000
    O29      O        0.72840    0.26430    0.79940    1.000
    O30      O        0.71700    0.16300    0.74860    1.000
    O31      O        0.73570    0.27160    0.70060    1.000
    O32      O        0.83700    0.28300    0.75140    1.000
