data_functionalizedCrystal
_audit_creation_method	'EQeq! by Chris Wilmer'
_symmetry_space_group_name_H-M	'P1'
_symmetry_Int_Tables_number	1
_symmetry_cell_setting	triclinic
loop_
_symmetry_equiv_pos_as_xyz
  x,y,z
_cell_length_a	39.916
_cell_length_b	39.916
_cell_length_c	18.033
_cell_angle_alpha	90
_cell_angle_beta	90
_cell_angle_gamma	90
loop_
_atom_site_label
_atom_site_type_symbol
_atom_site_fract_x
_atom_site_fract_y
_atom_site_fract_z
_atom_site_charge
Mof_Mn	Mn	0.074	0.04248	0.16839	1.012
Mof_O 	O 	0.09674	0.01346	0.2315	-0.427
Mof_O 	O 	0.99743	0.02002	0.31512	-0.377
Mof_O 	O 	0.04381	0.06994	0.10984	-0.436
Mof_N 	N 	0.0326	0.03447	0.22091	-0.256
Mof_N 	N 	0.00395	0.05085	0.19056	-0.227
Mof_C 	C 	0.086	0.99897	0.2929	0.307
Mof_C 	C 	0.11017	0.9794	0.331	-0.264
Mof_H 	H 	0.1315	0.9752	0.3095	0.125
Mof_C 	C 	0.10207	0.9666	0.4005	0.132
Mof_H 	H 	0.1181	0.9534	0.4264	-0.018
Mof_C 	C 	0.07091	0.9726	0.4327	-0.203
Mof_H 	H 	0.0665	0.9656	0.4821	0.103
Mof_C 	C 	0.04691	0.9886	0.3923	0.137
Mof_H 	H 	0.0248	0.9901	0.4117	0.002
Mof_C 	C 	0.05391	0.00293	0.3232	-0.251
Mof_C 	C 	0.02649	0.01975	0.285	0.304
Mof_C 	C 	0.01299	0.06851	0.13348	0.386
Mof_C 	C 	0.98718	0.08906	0.0936	-0.728
Mof_H 	H 	0.9778	0.076	0.0525	0.241
Mof_H 	H 	0.9976	0.1095	0.0742	0.239
Mof_H 	H 	0.9692	0.0951	0.1281	0.232
Mof_Mn	Mn	0.95849	0.03259	0.25308	1.054
Mof_O 	O 	0.95001	0.07445	0.29441	-0.426
Mof_O 	O 	0.88537	0.06636	0.10837	-0.369
Mof_O 	O 	0.96052	0.98995	0.20217	-0.435
Mof_N 	N 	0.92254	0.03879	0.18194	-0.246
Mof_N 	N 	0.91711	0.01132	0.13487	-0.225
Mof_N 	N 	0.92662	0.007	0.3405	-0.224
Mof_C 	C 	0.92732	0.09765	0.2764	0.31
Mof_C 	C 	0.92529	0.12566	0.3222	-0.273
Mof_H 	H 	0.9397	0.1274	0.3638	0.131
Mof_C 	C 	0.90236	0.15111	0.3077	0.139
Mof_H 	H 	0.9011	0.1699	0.3399	-0.026
Mof_C 	C 	0.88139	0.14917	0.2468	-0.205
Mof_H 	H 	0.8662	0.1668	0.2362	0.1
Mof_C 	C 	0.88285	0.12138	0.2017	0.128
Mof_H 	H 	0.8682	0.1198	0.1604	0.008
Mof_C 	C 	0.90559	0.09521	0.2155	-0.241
Mof_C 	C 	0.90436	0.06563	0.16595	0.285
Mof_C 	C 	0.93773	0.98711	0.1511	0.397
Mof_C 	C 	0.93497	0.9549	0.1105	-0.73
Mof_H 	H 	0.95	0.9552	0.0676	0.228
Mof_H 	H 	0.9118	0.9518	0.0936	0.229
Mof_H 	H 	0.9412	0.9364	0.1435	0.24
Mof_C 	C 	0.93828	0.9777	0.3711	0.125
Mof_H 	H 	0.9599	0.9697	0.3583	-0.002
Mof_C 	C 	0.9186	0.9596	0.4207	-0.229
Mof_H 	H 	0.9267	0.9393	0.4416	0.104
Mof_C 	C 	0.89622	0.0122	0.3522	0.198
Mof_H 	H 	0.8862	0.0303	0.3263	-0.041
Mof_C 	C 	0.87583	0.994	0.3996	-0.314
Mof_H 	H 	0.8526	0.9991	0.4013	0.129
Mof_C 	C 	0.88661	0.9716	0.4395	0.238
Mof_C 	C 	0.8644	0.9545	0.4957	-0.229
Mof_H 	H 	0.8492	0.9715	0.5172	0.093
Mof_H 	H 	0.8503	0.938	0.4692	0.09
Mof_Mn	Mn	0.11226	0.97175	0.96403	1.054
Mof_O 	O 	0.15173	0.99173	0.9347	-0.433
Mof_O 	O 	0.11484	0.05224	0.1116	-0.383
Mof_O 	O 	0.06982	0.95727	0.00442	-0.439
Mof_N 	N 	0.10487	0.00677	0.03733	-0.247
Mof_N 	N 	0.07386	0.00434	0.0754	-0.224
Mof_N 	N 	0.8119	0.88955	0.70531	-0.203
Mof_C 	C 	0.1684	0.0169	0.9657	0.309
Mof_C 	C 	0.20054	0.02398	0.937	-0.267
Mof_H 	H 	0.2089	0.0108	0.8973	0.129
Mof_C 	C 	0.2201	0.04951	0.9652	0.138
Mof_H 	H 	0.2415	0.054	0.9442	-0.024
Mof_C 	C 	0.20853	0.06887	0.0248	-0.205
Mof_H 	H 	0.2219	0.0863	0.0448	0.11
Mof_C 	C 	0.17787	0.06222	0.0531	0.139
Mof_H 	H 	0.1701	0.0752	0.0937	0.009
Mof_C 	C 	0.15726	0.03697	0.025	-0.241
Mof_C 	C 	0.12387	0.0321	0.0599	0.294
Mof_C 	C 	0.05782	0.97802	0.0534	0.387
Mof_C 	C 	0.02339	0.97114	0.0825	-0.717
Mof_H 	H 	0.024	0.9513	0.1144	0.232
Mof_H 	H 	0.0156	0.9905	0.1113	0.226
Mof_H 	H 	0.0081	0.9672	0.0409	0.219
Mof_C 	C 	0.82641	0.91848	0.7225	0.115
Mof_H 	H 	0.8214	0.9283	0.7693	-0
Mof_C 	C 	0.84828	0.93506	0.6765	-0.189
Mof_H 	H 	0.8578	0.9558	0.6911	0.098
Mof_C 	C 	0.81865	0.87714	0.6382	0.109
Mof_H 	H 	0.8078	0.857	0.6236	-0.01
Mof_C 	C 	0.8406	0.8919	0.5884	-0.183
Mof_H 	H 	0.8447	0.882	0.5414	0.086
Mof_C 	C 	0.85621	0.92102	0.6081	0.117
Mof_C 	C 	0.8806	0.9378	0.5545	-0.098
Mof_H 	H 	0.8945	0.9542	0.5822	0.057
Mof_H 	H 	0.8959	0.9206	0.5338	0.049
Mof_Mn	Mn	0.574	0.54248	0.66839	1.011
Mof_O 	O 	0.59674	0.51346	0.7315	-0.428
Mof_O 	O 	0.49743	0.52002	0.81512	-0.378
Mof_O 	O 	0.54381	0.56994	0.60984	-0.438
Mof_N 	N 	0.5326	0.53447	0.72091	-0.257
Mof_N 	N 	0.50395	0.55085	0.69056	-0.228
Mof_C 	C 	0.586	0.49897	0.7929	0.306
Mof_C 	C 	0.61017	0.4794	0.831	-0.265
Mof_H 	H 	0.6315	0.4752	0.8095	0.125
Mof_C 	C 	0.60207	0.4666	0.9005	0.131
Mof_H 	H 	0.6181	0.4534	0.9264	-0.019
Mof_C 	C 	0.57091	0.4726	0.9327	-0.205
Mof_H 	H 	0.5665	0.4656	0.9821	0.102
Mof_C 	C 	0.54691	0.4886	0.8923	0.136
Mof_H 	H 	0.5248	0.4901	0.9117	0.001
Mof_C 	C 	0.55391	0.50293	0.8232	-0.252
Mof_C 	C 	0.52649	0.51975	0.785	0.303
Mof_C 	C 	0.51299	0.56851	0.63348	0.385
Mof_C 	C 	0.48718	0.58906	0.5936	-0.729
Mof_H 	H 	0.4778	0.576	0.5525	0.239
Mof_H 	H 	0.4976	0.6095	0.5742	0.238
Mof_H 	H 	0.4692	0.5951	0.6281	0.231
Mof_Mn	Mn	0.45849	0.53259	0.75308	1.053
Mof_O 	O 	0.45001	0.57445	0.79441	-0.427
Mof_O 	O 	0.38537	0.56636	0.60837	-0.37
Mof_O 	O 	0.46052	0.48995	0.70217	-0.436
Mof_N 	N 	0.42254	0.53879	0.68194	-0.247
Mof_N 	N 	0.41711	0.51132	0.63487	-0.226
Mof_N 	N 	0.42662	0.507	0.8405	-0.225
Mof_C 	C 	0.42732	0.59765	0.7764	0.309
Mof_C 	C 	0.42529	0.62566	0.8222	-0.274
Mof_H 	H 	0.4397	0.6274	0.8638	0.13
Mof_C 	C 	0.40236	0.65111	0.8077	0.138
Mof_H 	H 	0.4011	0.6699	0.8399	-0.026
Mof_C 	C 	0.38139	0.64917	0.7468	-0.206
Mof_H 	H 	0.3662	0.6668	0.7362	0.099
Mof_C 	C 	0.38285	0.62138	0.7017	0.127
Mof_H 	H 	0.3682	0.6198	0.6604	0.007
Mof_C 	C 	0.40559	0.59521	0.7155	-0.242
Mof_C 	C 	0.40436	0.56563	0.66595	0.284
Mof_C 	C 	0.43773	0.48711	0.6511	0.396
Mof_C 	C 	0.43497	0.4549	0.6105	-0.731
Mof_H 	H 	0.45	0.4552	0.5676	0.227
Mof_H 	H 	0.4118	0.4518	0.5936	0.228
Mof_H 	H 	0.4412	0.4364	0.6435	0.239
Mof_C 	C 	0.43828	0.4777	0.8711	0.124
Mof_H 	H 	0.4599	0.4697	0.8583	-0.003
Mof_C 	C 	0.4186	0.4596	0.9207	-0.231
Mof_H 	H 	0.4267	0.4393	0.9416	0.103
Mof_C 	C 	0.39622	0.5122	0.8522	0.197
Mof_H 	H 	0.3862	0.5303	0.8263	-0.042
Mof_C 	C 	0.37583	0.494	0.8996	-0.315
Mof_H 	H 	0.3526	0.4991	0.9013	0.129
Mof_C 	C 	0.38661	0.4716	0.9395	0.237
Mof_C 	C 	0.3644	0.4545	0.9957	-0.23
Mof_H 	H 	0.3492	0.4715	0.0172	0.092
Mof_H 	H 	0.3503	0.438	0.9692	0.089
Mof_Mn	Mn	0.61226	0.47175	0.46403	1.053
Mof_O 	O 	0.65173	0.49173	0.4347	-0.435
Mof_O 	O 	0.61484	0.55224	0.6116	-0.384
Mof_O 	O 	0.56982	0.45727	0.50442	-0.44
Mof_N 	N 	0.60487	0.50677	0.53733	-0.248
Mof_N 	N 	0.57386	0.50434	0.5754	-0.224
Mof_N 	N 	0.3119	0.38955	0.20531	-0.203
Mof_C 	C 	0.6684	0.5169	0.4657	0.31
Mof_C 	C 	0.70054	0.52398	0.437	-0.269
Mof_H 	H 	0.7089	0.5108	0.3973	0.13
Mof_C 	C 	0.7201	0.54951	0.4652	0.139
Mof_H 	H 	0.7415	0.554	0.4442	-0.024
Mof_C 	C 	0.70853	0.56887	0.5248	-0.207
Mof_H 	H 	0.7219	0.5863	0.5448	0.11
Mof_C 	C 	0.67787	0.56222	0.5531	0.14
Mof_H 	H 	0.6701	0.5752	0.5937	0.009
Mof_C 	C 	0.65726	0.53697	0.525	-0.242
Mof_C 	C 	0.62387	0.5321	0.5599	0.295
Mof_C 	C 	0.55782	0.47802	0.5534	0.387
Mof_C 	C 	0.52339	0.47114	0.5825	-0.717
Mof_H 	H 	0.524	0.4513	0.6144	0.232
Mof_H 	H 	0.5156	0.4905	0.6113	0.226
Mof_H 	H 	0.5081	0.4672	0.5409	0.219
Mof_C 	C 	0.32641	0.41848	0.2225	0.115
Mof_H 	H 	0.3214	0.4283	0.2693	-0
Mof_C 	C 	0.34828	0.43506	0.1765	-0.189
Mof_H 	H 	0.3578	0.4558	0.1911	0.098
Mof_C 	C 	0.31865	0.37714	0.1382	0.109
Mof_H 	H 	0.3078	0.357	0.1236	-0.01
Mof_C 	C 	0.3406	0.3919	0.0884	-0.183
Mof_H 	H 	0.3447	0.382	0.0414	0.086
Mof_C 	C 	0.35621	0.42102	0.1081	0.116
Mof_C 	C 	0.3806	0.4378	0.0545	-0.098
Mof_H 	H 	0.3945	0.4542	0.0822	0.057
Mof_H 	H 	0.3959	0.4206	0.0338	0.049
Mof_Mn	Mn	0.426	0.95752	0.66839	1.011
Mof_O 	O 	0.40326	0.98654	0.7315	-0.428
Mof_O 	O 	0.50257	0.97998	0.81512	-0.378
Mof_O 	O 	0.45619	0.93006	0.60984	-0.438
Mof_N 	N 	0.4674	0.96553	0.72091	-0.257
Mof_N 	N 	0.49605	0.94915	0.69056	-0.228
Mof_C 	C 	0.414	0.00103	0.7929	0.306
Mof_C 	C 	0.38983	0.0206	0.831	-0.264
Mof_H 	H 	0.3685	0.0248	0.8095	0.124
Mof_C 	C 	0.39793	0.0334	0.9005	0.131
Mof_H 	H 	0.3819	0.0466	0.9264	-0.019
Mof_C 	C 	0.42909	0.0274	0.9327	-0.204
Mof_H 	H 	0.4335	0.0344	0.9821	0.102
Mof_C 	C 	0.45309	0.0114	0.8923	0.136
Mof_H 	H 	0.4752	0.0099	0.9117	0.001
Mof_C 	C 	0.44609	0.99707	0.8232	-0.252
Mof_C 	C 	0.47351	0.98025	0.785	0.303
Mof_C 	C 	0.48701	0.93149	0.63348	0.385
Mof_C 	C 	0.51282	0.91094	0.5936	-0.729
Mof_H 	H 	0.5222	0.924	0.5525	0.239
Mof_H 	H 	0.5024	0.8905	0.5742	0.238
Mof_H 	H 	0.5308	0.9049	0.6281	0.231
Mof_Mn	Mn	0.54151	0.96741	0.75308	1.053
Mof_O 	O 	0.54999	0.92555	0.79441	-0.427
Mof_O 	O 	0.61463	0.93364	0.60837	-0.37
Mof_O 	O 	0.53948	0.01005	0.70217	-0.436
Mof_N 	N 	0.57746	0.96121	0.68194	-0.247
Mof_N 	N 	0.58289	0.98868	0.63487	-0.226
Mof_N 	N 	0.57338	0.993	0.8405	-0.225
Mof_C 	C 	0.57268	0.90235	0.7764	0.309
Mof_C 	C 	0.57471	0.87434	0.8222	-0.274
Mof_H 	H 	0.5603	0.8726	0.8638	0.13
Mof_C 	C 	0.59764	0.84889	0.8077	0.138
Mof_H 	H 	0.5989	0.8301	0.8399	-0.026
Mof_C 	C 	0.61861	0.85083	0.7468	-0.206
Mof_H 	H 	0.6338	0.8332	0.7362	0.099
Mof_C 	C 	0.61715	0.87862	0.7017	0.127
Mof_H 	H 	0.6318	0.8802	0.6604	0.007
Mof_C 	C 	0.59441	0.90479	0.7155	-0.242
Mof_C 	C 	0.59564	0.93437	0.66595	0.284
Mof_C 	C 	0.56227	0.01289	0.6511	0.396
Mof_C 	C 	0.56503	0.0451	0.6105	-0.731
Mof_H 	H 	0.55	0.0448	0.5676	0.227
Mof_H 	H 	0.5882	0.0482	0.5936	0.228
Mof_H 	H 	0.5588	0.0636	0.6435	0.239
Mof_C 	C 	0.56172	0.0223	0.8711	0.124
Mof_H 	H 	0.5401	0.0303	0.8583	-0.003
Mof_C 	C 	0.5814	0.0404	0.9207	-0.231
Mof_H 	H 	0.5733	0.0607	0.9416	0.103
Mof_C 	C 	0.60378	0.9878	0.8522	0.198
Mof_H 	H 	0.6138	0.9697	0.8263	-0.042
Mof_C 	C 	0.62417	0.006	0.8996	-0.316
Mof_H 	H 	0.6474	0.0009	0.9013	0.129
Mof_C 	C 	0.61339	0.0284	0.9395	0.238
Mof_C 	C 	0.6356	0.0455	0.9957	-0.232
Mof_H 	H 	0.6508	0.0285	0.0172	0.092
Mof_H 	H 	0.6497	0.062	0.9692	0.09
Mof_Mn	Mn	0.38774	0.02825	0.46403	1.053
Mof_O 	O 	0.34827	0.00827	0.4347	-0.435
Mof_O 	O 	0.38516	0.94776	0.6116	-0.384
Mof_O 	O 	0.43018	0.04273	0.50442	-0.44
Mof_N 	N 	0.39513	0.99323	0.53733	-0.248
Mof_N 	N 	0.42614	0.99566	0.5754	-0.224
Mof_N 	N 	0.6881	0.11045	0.20531	-0.203
Mof_C 	C 	0.3316	0.9831	0.4657	0.31
Mof_C 	C 	0.29946	0.97602	0.437	-0.269
Mof_H 	H 	0.2911	0.9892	0.3973	0.13
Mof_C 	C 	0.2799	0.95049	0.4652	0.139
Mof_H 	H 	0.2585	0.946	0.4442	-0.024
Mof_C 	C 	0.29147	0.93113	0.5248	-0.207
Mof_H 	H 	0.2781	0.9137	0.5448	0.11
Mof_C 	C 	0.32213	0.93778	0.5531	0.14
Mof_H 	H 	0.3299	0.9248	0.5937	0.009
Mof_C 	C 	0.34274	0.96303	0.525	-0.242
Mof_C 	C 	0.37613	0.9679	0.5599	0.295
Mof_C 	C 	0.44218	0.02198	0.5534	0.387
Mof_C 	C 	0.47661	0.02886	0.5825	-0.717
Mof_H 	H 	0.476	0.0487	0.6144	0.232
Mof_H 	H 	0.4844	0.0095	0.6113	0.226
Mof_H 	H 	0.4919	0.0328	0.5409	0.219
Mof_C 	C 	0.67359	0.08152	0.2225	0.114
Mof_H 	H 	0.6786	0.0717	0.2693	-0
Mof_C 	C 	0.65172	0.06494	0.1765	-0.188
Mof_H 	H 	0.6422	0.0442	0.1911	0.098
Mof_C 	C 	0.68135	0.12286	0.1382	0.109
Mof_H 	H 	0.6922	0.143	0.1236	-0.01
Mof_C 	C 	0.6594	0.1081	0.0884	-0.183
Mof_H 	H 	0.6553	0.118	0.0414	0.086
Mof_C 	C 	0.64379	0.07898	0.1081	0.116
Mof_C 	C 	0.6194	0.0622	0.0545	-0.097
Mof_H 	H 	0.6055	0.0458	0.0822	0.057
Mof_H 	H 	0.6041	0.0794	0.0338	0.049
Mof_Mn	Mn	0.926	0.45752	0.16839	1.011
Mof_O 	O 	0.90326	0.48654	0.2315	-0.428
Mof_O 	O 	0.00257	0.47998	0.31512	-0.378
Mof_O 	O 	0.95619	0.43006	0.10984	-0.437
Mof_N 	N 	0.9674	0.46553	0.22091	-0.257
Mof_N 	N 	0.99605	0.44915	0.19056	-0.228
Mof_C 	C 	0.914	0.50103	0.2929	0.306
Mof_C 	C 	0.88983	0.5206	0.331	-0.265
Mof_H 	H 	0.8685	0.5248	0.3095	0.125
Mof_C 	C 	0.89793	0.5334	0.4005	0.131
Mof_H 	H 	0.8819	0.5466	0.4264	-0.019
Mof_C 	C 	0.92909	0.5274	0.4327	-0.205
Mof_H 	H 	0.9335	0.5344	0.4821	0.102
Mof_C 	C 	0.95309	0.5114	0.3923	0.136
Mof_H 	H 	0.9752	0.5099	0.4117	0.001
Mof_C 	C 	0.94609	0.49707	0.3232	-0.252
Mof_C 	C 	0.97351	0.48025	0.285	0.303
Mof_C 	C 	0.98701	0.43149	0.13348	0.385
Mof_C 	C 	0.01282	0.41094	0.0936	-0.729
Mof_H 	H 	0.0222	0.424	0.0525	0.24
Mof_H 	H 	0.0024	0.3905	0.0742	0.238
Mof_H 	H 	0.0308	0.4049	0.1281	0.231
Mof_Mn	Mn	0.04151	0.46741	0.25308	1.053
Mof_O 	O 	0.04999	0.42555	0.29441	-0.427
Mof_O 	O 	0.11463	0.43364	0.10837	-0.37
Mof_O 	O 	0.03948	0.51005	0.20217	-0.436
Mof_N 	N 	0.07746	0.46121	0.18194	-0.247
Mof_N 	N 	0.08289	0.48868	0.13487	-0.226
Mof_N 	N 	0.07338	0.493	0.3405	-0.225
Mof_C 	C 	0.07268	0.40235	0.2764	0.309
Mof_C 	C 	0.07471	0.37434	0.3222	-0.274
Mof_H 	H 	0.0603	0.3726	0.3638	0.13
Mof_C 	C 	0.09764	0.34889	0.3077	0.138
Mof_H 	H 	0.0989	0.3301	0.3399	-0.027
Mof_C 	C 	0.11861	0.35083	0.2468	-0.206
Mof_H 	H 	0.1338	0.3332	0.2362	0.099
Mof_C 	C 	0.11715	0.37862	0.2017	0.127
Mof_H 	H 	0.1318	0.3802	0.1604	0.007
Mof_C 	C 	0.09441	0.40479	0.2155	-0.242
Mof_C 	C 	0.09564	0.43437	0.16595	0.284
Mof_C 	C 	0.06227	0.51289	0.1511	0.396
Mof_C 	C 	0.06503	0.5451	0.1105	-0.731
Mof_H 	H 	0.05	0.5448	0.0676	0.227
Mof_H 	H 	0.0882	0.5482	0.0936	0.228
Mof_H 	H 	0.0588	0.5636	0.1435	0.239
Mof_C 	C 	0.06172	0.5223	0.3711	0.124
Mof_H 	H 	0.0401	0.5303	0.3583	-0.003
Mof_C 	C 	0.0814	0.5404	0.4207	-0.23
Mof_H 	H 	0.0733	0.5607	0.4416	0.103
Mof_C 	C 	0.10378	0.4878	0.3522	0.197
Mof_H 	H 	0.1138	0.4697	0.3263	-0.042
Mof_C 	C 	0.12417	0.506	0.3996	-0.315
Mof_H 	H 	0.1474	0.5009	0.4013	0.128
Mof_C 	C 	0.11339	0.5284	0.4395	0.237
Mof_C 	C 	0.1356	0.5455	0.4957	-0.229
Mof_H 	H 	0.1508	0.5285	0.5172	0.092
Mof_H 	H 	0.1497	0.562	0.4692	0.089
Mof_Mn	Mn	0.88774	0.52825	0.96403	1.053
Mof_O 	O 	0.84827	0.50827	0.9347	-0.435
Mof_O 	O 	0.88516	0.44776	0.1116	-0.384
Mof_O 	O 	0.93018	0.54273	0.00442	-0.44
Mof_N 	N 	0.89513	0.49323	0.03733	-0.248
Mof_N 	N 	0.92614	0.49566	0.0754	-0.224
Mof_N 	N 	0.1881	0.61045	0.70531	-0.203
Mof_C 	C 	0.8316	0.4831	0.9657	0.31
Mof_C 	C 	0.79946	0.47602	0.937	-0.268
Mof_H 	H 	0.7911	0.4892	0.8973	0.13
Mof_C 	C 	0.7799	0.45049	0.9652	0.138
Mof_H 	H 	0.7585	0.446	0.9442	-0.024
Mof_C 	C 	0.79147	0.43113	0.0248	-0.206
Mof_H 	H 	0.7781	0.4137	0.0448	0.11
Mof_C 	C 	0.82213	0.43778	0.0531	0.14
Mof_H 	H 	0.8299	0.4248	0.0937	0.009
Mof_C 	C 	0.84274	0.46303	0.025	-0.241
Mof_C 	C 	0.87613	0.4679	0.0599	0.295
Mof_C 	C 	0.94218	0.52198	0.0534	0.387
Mof_C 	C 	0.97661	0.52886	0.0825	-0.717
Mof_H 	H 	0.976	0.5487	0.1144	0.232
Mof_H 	H 	0.9844	0.5095	0.1113	0.226
Mof_H 	H 	0.9919	0.5328	0.0409	0.219
Mof_C 	C 	0.17359	0.58152	0.7225	0.115
Mof_H 	H 	0.1786	0.5717	0.7693	-0
Mof_C 	C 	0.15172	0.56494	0.6765	-0.189
Mof_H 	H 	0.1422	0.5442	0.6911	0.098
Mof_C 	C 	0.18135	0.62286	0.6382	0.109
Mof_H 	H 	0.1922	0.643	0.6236	-0.01
Mof_C 	C 	0.1594	0.6081	0.5884	-0.183
Mof_H 	H 	0.1553	0.618	0.5414	0.086
Mof_C 	C 	0.14379	0.57898	0.6081	0.117
Mof_C 	C 	0.1194	0.5622	0.5545	-0.098
Mof_H 	H 	0.1055	0.5458	0.5822	0.057
Mof_H 	H 	0.1041	0.5794	0.5338	0.049
Mof_Mn	Mn	0.70752	0.324	0.41839	1.011
Mof_O 	O 	0.73654	0.34674	0.4815	-0.428
Mof_O 	O 	0.72998	0.24743	0.56512	-0.378
Mof_O 	O 	0.68006	0.29381	0.35984	-0.438
Mof_N 	N 	0.71553	0.2826	0.47091	-0.257
Mof_N 	N 	0.69915	0.25395	0.44056	-0.228
Mof_C 	C 	0.75103	0.336	0.5429	0.306
Mof_C 	C 	0.7706	0.36017	0.581	-0.265
Mof_H 	H 	0.7748	0.3815	0.5595	0.125
Mof_C 	C 	0.7834	0.35207	0.6505	0.131
Mof_H 	H 	0.7966	0.3681	0.6764	-0.019
Mof_C 	C 	0.7774	0.32091	0.6827	-0.205
Mof_H 	H 	0.7844	0.3165	0.7321	0.102
Mof_C 	C 	0.7614	0.29691	0.6423	0.136
Mof_H 	H 	0.7599	0.2748	0.6617	0.001
Mof_C 	C 	0.74707	0.30391	0.5732	-0.252
Mof_C 	C 	0.73025	0.27649	0.535	0.303
Mof_C 	C 	0.68149	0.26299	0.38348	0.385
Mof_C 	C 	0.66094	0.23718	0.3436	-0.729
Mof_H 	H 	0.674	0.2278	0.3025	0.24
Mof_H 	H 	0.6405	0.2476	0.3242	0.238
Mof_H 	H 	0.6549	0.2192	0.3781	0.231
Mof_Mn	Mn	0.71741	0.20849	0.50308	1.053
Mof_O 	O 	0.67555	0.20001	0.54441	-0.427
Mof_O 	O 	0.68364	0.13537	0.35837	-0.37
Mof_O 	O 	0.76005	0.21052	0.45217	-0.436
Mof_N 	N 	0.71121	0.17254	0.43194	-0.247
Mof_N 	N 	0.73868	0.16711	0.38487	-0.226
Mof_N 	N 	0.743	0.17662	0.5905	-0.225
Mof_C 	C 	0.65235	0.17732	0.5264	0.309
Mof_C 	C 	0.62434	0.17529	0.5722	-0.274
Mof_H 	H 	0.6226	0.1897	0.6138	0.13
Mof_C 	C 	0.59889	0.15236	0.5577	0.138
Mof_H 	H 	0.5801	0.1511	0.5899	-0.027
Mof_C 	C 	0.60083	0.13139	0.4968	-0.206
Mof_H 	H 	0.5832	0.1162	0.4862	0.099
Mof_C 	C 	0.62862	0.13285	0.4517	0.127
Mof_H 	H 	0.6302	0.1182	0.4104	0.007
Mof_C 	C 	0.65479	0.15559	0.4655	-0.242
Mof_C 	C 	0.68437	0.15436	0.41595	0.284
Mof_C 	C 	0.76289	0.18773	0.4011	0.396
Mof_C 	C 	0.7951	0.18497	0.3605	-0.731
Mof_H 	H 	0.7948	0.2	0.3176	0.227
Mof_H 	H 	0.7982	0.1618	0.3436	0.228
Mof_H 	H 	0.8136	0.1912	0.3935	0.239
Mof_C 	C 	0.7723	0.18828	0.6211	0.124
Mof_H 	H 	0.7803	0.2099	0.6083	-0.003
Mof_C 	C 	0.7904	0.1686	0.6707	-0.23
Mof_H 	H 	0.8107	0.1767	0.6916	0.103
Mof_C 	C 	0.7378	0.14622	0.6022	0.197
Mof_H 	H 	0.7197	0.1362	0.5763	-0.042
Mof_C 	C 	0.756	0.12583	0.6496	-0.315
Mof_H 	H 	0.7509	0.1026	0.6513	0.128
Mof_C 	C 	0.7784	0.13661	0.6895	0.237
Mof_C 	C 	0.7955	0.1144	0.7457	-0.23
Mof_H 	H 	0.7785	0.0992	0.7672	0.092
Mof_H 	H 	0.812	0.1003	0.7192	0.089
Mof_Mn	Mn	0.77825	0.36226	0.21403	1.053
Mof_O 	O 	0.75827	0.40173	0.1847	-0.435
Mof_O 	O 	0.69776	0.36484	0.3616	-0.384
Mof_O 	O 	0.79273	0.31982	0.25442	-0.44
Mof_N 	N 	0.74323	0.35487	0.28733	-0.248
Mof_N 	N 	0.74566	0.32386	0.3254	-0.224
Mof_N 	N 	0.86045	0.0619	0.95531	-0.203
Mof_C 	C 	0.7331	0.4184	0.2157	0.31
Mof_C 	C 	0.72602	0.45054	0.187	-0.269
Mof_H 	H 	0.7392	0.4589	0.1473	0.13
Mof_C 	C 	0.70049	0.4701	0.2152	0.139
Mof_H 	H 	0.696	0.4915	0.1942	-0.024
Mof_C 	C 	0.68113	0.45853	0.2748	-0.207
Mof_H 	H 	0.6637	0.4719	0.2948	0.11
Mof_C 	C 	0.68778	0.42787	0.3031	0.14
Mof_H 	H 	0.6748	0.4201	0.3437	0.009
Mof_C 	C 	0.71303	0.40726	0.275	-0.242
Mof_C 	C 	0.7179	0.37387	0.3099	0.295
Mof_C 	C 	0.77198	0.30782	0.3034	0.387
Mof_C 	C 	0.77886	0.27339	0.3325	-0.717
Mof_H 	H 	0.7987	0.274	0.3644	0.232
Mof_H 	H 	0.7595	0.2656	0.3613	0.226
Mof_H 	H 	0.7828	0.2581	0.2909	0.219
Mof_C 	C 	0.83152	0.07641	0.9725	0.114
Mof_H 	H 	0.8217	0.0714	0.0193	0
Mof_C 	C 	0.81494	0.09828	0.9265	-0.188
Mof_H 	H 	0.7942	0.1078	0.9411	0.098
Mof_C 	C 	0.87286	0.06865	0.8882	0.109
Mof_H 	H 	0.893	0.0578	0.8736	-0.01
Mof_C 	C 	0.8581	0.0906	0.8384	-0.183
Mof_H 	H 	0.868	0.0947	0.7914	0.086
Mof_C 	C 	0.82898	0.10621	0.8581	0.116
Mof_C 	C 	0.8122	0.1306	0.8045	-0.098
Mof_H 	H 	0.7958	0.1445	0.8322	0.057
Mof_H 	H 	0.8294	0.1459	0.7838	0.049
Mof_Mn	Mn	0.20752	0.824	0.91839	1.011
Mof_O 	O 	0.23654	0.84674	0.9815	-0.427
Mof_O 	O 	0.22998	0.74743	0.06512	-0.378
Mof_O 	O 	0.18006	0.79381	0.85984	-0.438
Mof_N 	N 	0.21553	0.7826	0.97091	-0.257
Mof_N 	N 	0.19915	0.75395	0.94056	-0.228
Mof_C 	C 	0.25103	0.836	0.0429	0.305
Mof_C 	C 	0.2706	0.86017	0.081	-0.264
Mof_H 	H 	0.2748	0.8815	0.0595	0.124
Mof_C 	C 	0.2834	0.85207	0.1505	0.131
Mof_H 	H 	0.2966	0.8681	0.1764	-0.019
Mof_C 	C 	0.2774	0.82091	0.1827	-0.204
Mof_H 	H 	0.2844	0.8165	0.2321	0.102
Mof_C 	C 	0.2614	0.79691	0.1423	0.136
Mof_H 	H 	0.2599	0.7748	0.1617	0.001
Mof_C 	C 	0.24707	0.80391	0.0732	-0.252
Mof_C 	C 	0.23025	0.77649	0.035	0.302
Mof_C 	C 	0.18149	0.76299	0.88348	0.385
Mof_C 	C 	0.16094	0.73718	0.8436	-0.729
Mof_H 	H 	0.174	0.7278	0.8025	0.24
Mof_H 	H 	0.1405	0.7476	0.8242	0.238
Mof_H 	H 	0.1549	0.7192	0.8781	0.231
Mof_Mn	Mn	0.21741	0.70849	0.00308	1.052
Mof_O 	O 	0.17555	0.70001	0.04441	-0.426
Mof_O 	O 	0.18364	0.63537	0.85837	-0.37
Mof_O 	O 	0.26005	0.71052	0.95217	-0.435
Mof_N 	N 	0.21121	0.67254	0.93194	-0.247
Mof_N 	N 	0.23868	0.66711	0.88487	-0.226
Mof_N 	N 	0.243	0.67662	0.0905	-0.225
Mof_C 	C 	0.15235	0.67732	0.0264	0.307
Mof_C 	C 	0.12434	0.67529	0.0722	-0.272
Mof_H 	H 	0.1226	0.6897	0.1138	0.129
Mof_C 	C 	0.09889	0.65236	0.0577	0.136
Mof_H 	H 	0.0801	0.6511	0.0899	-0.026
Mof_C 	C 	0.10083	0.63139	0.9968	-0.203
Mof_H 	H 	0.0832	0.6162	0.9862	0.099
Mof_C 	C 	0.12862	0.63285	0.9517	0.125
Mof_H 	H 	0.1302	0.6182	0.9104	0.008
Mof_C 	C 	0.15479	0.65559	0.9655	-0.24
Mof_C 	C 	0.18437	0.65436	0.91595	0.284
Mof_C 	C 	0.26289	0.68773	0.9011	0.396
Mof_C 	C 	0.2951	0.68497	0.8605	-0.731
Mof_H 	H 	0.2948	0.7	0.8176	0.227
Mof_H 	H 	0.2982	0.6618	0.8436	0.228
Mof_H 	H 	0.3136	0.6912	0.8935	0.239
Mof_C 	C 	0.2723	0.68828	0.1211	0.124
Mof_H 	H 	0.2803	0.7099	0.1083	-0.003
Mof_C 	C 	0.2904	0.6686	0.1707	-0.23
Mof_H 	H 	0.3107	0.6767	0.1916	0.103
Mof_C 	C 	0.2378	0.64622	0.1022	0.197
Mof_H 	H 	0.2197	0.6362	0.0763	-0.042
Mof_C 	C 	0.256	0.62583	0.1496	-0.315
Mof_H 	H 	0.2509	0.6026	0.1513	0.128
Mof_C 	C 	0.2784	0.63661	0.1895	0.237
Mof_C 	C 	0.2955	0.6144	0.2457	-0.229
Mof_H 	H 	0.2785	0.5992	0.2672	0.092
Mof_H 	H 	0.312	0.6003	0.2192	0.089
Mof_Mn	Mn	0.27825	0.86226	0.71403	1.053
Mof_O 	O 	0.25827	0.90173	0.6847	-0.435
Mof_O 	O 	0.19776	0.86484	0.8616	-0.384
Mof_O 	O 	0.29273	0.81982	0.75442	-0.44
Mof_N 	N 	0.24323	0.85487	0.78733	-0.248
Mof_N 	N 	0.24566	0.82386	0.8254	-0.224
Mof_N 	N 	0.36045	0.5619	0.45531	-0.203
Mof_C 	C 	0.2331	0.9184	0.7157	0.31
Mof_C 	C 	0.22602	0.95054	0.687	-0.269
Mof_H 	H 	0.2392	0.9589	0.6473	0.13
Mof_C 	C 	0.20049	0.9701	0.7152	0.139
Mof_H 	H 	0.196	0.9915	0.6942	-0.024
Mof_C 	C 	0.18113	0.95853	0.7748	-0.207
Mof_H 	H 	0.1637	0.9719	0.7948	0.11
Mof_C 	C 	0.18778	0.92787	0.8031	0.14
Mof_H 	H 	0.1748	0.9201	0.8437	0.009
Mof_C 	C 	0.21303	0.90726	0.775	-0.242
Mof_C 	C 	0.2179	0.87387	0.8099	0.295
Mof_C 	C 	0.27198	0.80782	0.8034	0.388
Mof_C 	C 	0.27886	0.77339	0.8325	-0.717
Mof_H 	H 	0.2987	0.774	0.8644	0.233
Mof_H 	H 	0.2595	0.7656	0.8613	0.226
Mof_H 	H 	0.2828	0.7581	0.7909	0.219
Mof_C 	C 	0.33152	0.57641	0.4725	0.115
Mof_H 	H 	0.3217	0.5714	0.5193	-0
Mof_C 	C 	0.31494	0.59828	0.4265	-0.189
Mof_H 	H 	0.2942	0.6078	0.4411	0.098
Mof_C 	C 	0.37286	0.56865	0.3882	0.109
Mof_H 	H 	0.393	0.5578	0.3736	-0.01
Mof_C 	C 	0.3581	0.5906	0.3384	-0.183
Mof_H 	H 	0.368	0.5947	0.2914	0.086
Mof_C 	C 	0.32898	0.60621	0.3581	0.117
Mof_C 	C 	0.3122	0.6306	0.3045	-0.098
Mof_H 	H 	0.2958	0.6445	0.3322	0.057
Mof_H 	H 	0.3294	0.6459	0.2838	0.049
Mof_Mn	Mn	0.79248	0.676	0.91839	1.011
Mof_O 	O 	0.76346	0.65326	0.9815	-0.427
Mof_O 	O 	0.77002	0.75257	0.06512	-0.378
Mof_O 	O 	0.81994	0.70619	0.85984	-0.438
Mof_N 	N 	0.78447	0.7174	0.97091	-0.257
Mof_N 	N 	0.80085	0.74605	0.94056	-0.228
Mof_C 	C 	0.74897	0.664	0.0429	0.306
Mof_C 	C 	0.7294	0.63983	0.081	-0.264
Mof_H 	H 	0.7252	0.6185	0.0595	0.124
Mof_C 	C 	0.7166	0.64793	0.1505	0.131
Mof_H 	H 	0.7034	0.6319	0.1764	-0.019
Mof_C 	C 	0.7226	0.67909	0.1827	-0.204
Mof_H 	H 	0.7156	0.6835	0.2321	0.102
Mof_C 	C 	0.7386	0.70309	0.1423	0.136
Mof_H 	H 	0.7401	0.7252	0.1617	0.001
Mof_C 	C 	0.75293	0.69609	0.0732	-0.252
Mof_C 	C 	0.76975	0.72351	0.035	0.302
Mof_C 	C 	0.81851	0.73701	0.88348	0.385
Mof_C 	C 	0.83906	0.76282	0.8436	-0.729
Mof_H 	H 	0.826	0.7722	0.8025	0.24
Mof_H 	H 	0.8595	0.7524	0.8242	0.238
Mof_H 	H 	0.8451	0.7808	0.8781	0.231
Mof_Mn	Mn	0.78259	0.79151	0.00308	1.052
Mof_O 	O 	0.82445	0.79999	0.04441	-0.426
Mof_O 	O 	0.81636	0.86463	0.85837	-0.369
Mof_O 	O 	0.73995	0.78948	0.95217	-0.435
Mof_N 	N 	0.78879	0.82746	0.93194	-0.247
Mof_N 	N 	0.76132	0.83289	0.88487	-0.226
Mof_N 	N 	0.757	0.82338	0.0905	-0.225
Mof_C 	C 	0.84765	0.82268	0.0264	0.307
Mof_C 	C 	0.87566	0.82471	0.0722	-0.272
Mof_H 	H 	0.8774	0.8103	0.1138	0.129
Mof_C 	C 	0.90111	0.84764	0.0577	0.135
Mof_H 	H 	0.9199	0.8489	0.0899	-0.026
Mof_C 	C 	0.89917	0.86861	0.9968	-0.203
Mof_H 	H 	0.9168	0.8838	0.9862	0.099
Mof_C 	C 	0.87138	0.86715	0.9517	0.125
Mof_H 	H 	0.8698	0.8818	0.9104	0.008
Mof_C 	C 	0.84521	0.84441	0.9655	-0.24
Mof_C 	C 	0.81563	0.84564	0.91595	0.284
Mof_C 	C 	0.73711	0.81227	0.9011	0.396
Mof_C 	C 	0.7049	0.81503	0.8605	-0.731
Mof_H 	H 	0.7052	0.8	0.8176	0.227
Mof_H 	H 	0.7018	0.8382	0.8436	0.228
Mof_H 	H 	0.6864	0.8088	0.8935	0.239
Mof_C 	C 	0.7277	0.81172	0.1211	0.124
Mof_H 	H 	0.7197	0.7901	0.1083	-0.003
Mof_C 	C 	0.7096	0.8314	0.1707	-0.23
Mof_H 	H 	0.6893	0.8233	0.1916	0.103
Mof_C 	C 	0.7622	0.85378	0.1022	0.197
Mof_H 	H 	0.7803	0.8638	0.0763	-0.042
Mof_C 	C 	0.744	0.87417	0.1496	-0.315
Mof_H 	H 	0.7491	0.8974	0.1513	0.128
Mof_C 	C 	0.7216	0.86339	0.1895	0.237
Mof_C 	C 	0.7045	0.8856	0.2457	-0.229
Mof_H 	H 	0.7215	0.9008	0.2672	0.092
Mof_H 	H 	0.688	0.8997	0.2192	0.089
Mof_Mn	Mn	0.72175	0.63774	0.71403	1.053
Mof_O 	O 	0.74173	0.59827	0.6847	-0.435
Mof_O 	O 	0.80224	0.63516	0.8616	-0.384
Mof_O 	O 	0.70727	0.68018	0.75442	-0.44
Mof_N 	N 	0.75677	0.64513	0.78733	-0.248
Mof_N 	N 	0.75434	0.67614	0.8254	-0.224
Mof_N 	N 	0.63955	0.9381	0.45531	-0.203
Mof_C 	C 	0.7669	0.5816	0.7157	0.31
Mof_C 	C 	0.77398	0.54946	0.687	-0.269
Mof_H 	H 	0.7608	0.5411	0.6473	0.13
Mof_C 	C 	0.79951	0.5299	0.7152	0.139
Mof_H 	H 	0.804	0.5085	0.6942	-0.024
Mof_C 	C 	0.81887	0.54147	0.7748	-0.207
Mof_H 	H 	0.8363	0.5281	0.7948	0.11
Mof_C 	C 	0.81222	0.57213	0.8031	0.14
Mof_H 	H 	0.8252	0.5799	0.8437	0.009
Mof_C 	C 	0.78697	0.59274	0.775	-0.242
Mof_C 	C 	0.7821	0.62613	0.8099	0.295
Mof_C 	C 	0.72802	0.69218	0.8034	0.388
Mof_C 	C 	0.72114	0.72661	0.8325	-0.717
Mof_H 	H 	0.7013	0.726	0.8644	0.233
Mof_H 	H 	0.7405	0.7344	0.8613	0.226
Mof_H 	H 	0.7172	0.7419	0.7909	0.219
Mof_C 	C 	0.66848	0.92359	0.4725	0.115
Mof_H 	H 	0.6783	0.9286	0.5193	-0
Mof_C 	C 	0.68506	0.90172	0.4265	-0.189
Mof_H 	H 	0.7058	0.8922	0.4411	0.098
Mof_C 	C 	0.62714	0.93135	0.3882	0.109
Mof_H 	H 	0.607	0.9422	0.3736	-0.01
Mof_C 	C 	0.6419	0.9094	0.3384	-0.183
Mof_H 	H 	0.632	0.9053	0.2914	0.086
Mof_C 	C 	0.67102	0.89379	0.3581	0.117
Mof_C 	C 	0.6878	0.8694	0.3045	-0.098
Mof_H 	H 	0.7042	0.8555	0.3322	0.057
Mof_H 	H 	0.6706	0.8541	0.2838	0.049
Mof_Mn	Mn	0.29248	0.176	0.41839	1.011
Mof_O 	O 	0.26346	0.15326	0.4815	-0.428
Mof_O 	O 	0.27002	0.25257	0.56512	-0.378
Mof_O 	O 	0.31994	0.20619	0.35984	-0.438
Mof_N 	N 	0.28447	0.2174	0.47091	-0.257
Mof_N 	N 	0.30085	0.24605	0.44056	-0.228
Mof_C 	C 	0.24897	0.164	0.5429	0.306
Mof_C 	C 	0.2294	0.13983	0.581	-0.265
Mof_H 	H 	0.2252	0.1185	0.5595	0.125
Mof_C 	C 	0.2166	0.14793	0.6505	0.131
Mof_H 	H 	0.2034	0.1319	0.6764	-0.019
Mof_C 	C 	0.2226	0.17909	0.6827	-0.205
Mof_H 	H 	0.2156	0.1835	0.7321	0.102
Mof_C 	C 	0.2386	0.20309	0.6423	0.136
Mof_H 	H 	0.2401	0.2252	0.6617	0.001
Mof_C 	C 	0.25293	0.19609	0.5732	-0.252
Mof_C 	C 	0.26975	0.22351	0.535	0.303
Mof_C 	C 	0.31851	0.23701	0.38348	0.385
Mof_C 	C 	0.33906	0.26282	0.3436	-0.729
Mof_H 	H 	0.326	0.2722	0.3025	0.24
Mof_H 	H 	0.3595	0.2524	0.3242	0.238
Mof_H 	H 	0.3451	0.2808	0.3781	0.231
Mof_Mn	Mn	0.28259	0.29151	0.50308	1.053
Mof_O 	O 	0.32445	0.29999	0.54441	-0.427
Mof_O 	O 	0.31636	0.36463	0.35837	-0.37
Mof_O 	O 	0.23995	0.28948	0.45217	-0.436
Mof_N 	N 	0.28879	0.32746	0.43194	-0.247
Mof_N 	N 	0.26132	0.33289	0.38487	-0.226
Mof_N 	N 	0.257	0.32338	0.5905	-0.225
Mof_C 	C 	0.34765	0.32268	0.5264	0.309
Mof_C 	C 	0.37566	0.32471	0.5722	-0.274
Mof_H 	H 	0.3774	0.3103	0.6138	0.13
Mof_C 	C 	0.40111	0.34764	0.5577	0.138
Mof_H 	H 	0.4199	0.3489	0.5899	-0.027
Mof_C 	C 	0.39917	0.36861	0.4968	-0.206
Mof_H 	H 	0.4168	0.3838	0.4862	0.099
Mof_C 	C 	0.37138	0.36715	0.4517	0.127
Mof_H 	H 	0.3698	0.3818	0.4104	0.007
Mof_C 	C 	0.34521	0.34441	0.4655	-0.242
Mof_C 	C 	0.31563	0.34564	0.41595	0.284
Mof_C 	C 	0.23711	0.31227	0.4011	0.396
Mof_C 	C 	0.2049	0.31503	0.3605	-0.731
Mof_H 	H 	0.2052	0.3	0.3176	0.227
Mof_H 	H 	0.2018	0.3382	0.3436	0.228
Mof_H 	H 	0.1864	0.3088	0.3935	0.239
Mof_C 	C 	0.2277	0.31172	0.6211	0.124
Mof_H 	H 	0.2197	0.2901	0.6083	-0.003
Mof_C 	C 	0.2096	0.3314	0.6707	-0.23
Mof_H 	H 	0.1893	0.3233	0.6916	0.103
Mof_C 	C 	0.2622	0.35378	0.6022	0.197
Mof_H 	H 	0.2803	0.3638	0.5763	-0.042
Mof_C 	C 	0.244	0.37417	0.6496	-0.315
Mof_H 	H 	0.2491	0.3974	0.6513	0.128
Mof_C 	C 	0.2216	0.36339	0.6895	0.237
Mof_C 	C 	0.2045	0.3856	0.7457	-0.23
Mof_H 	H 	0.2215	0.4008	0.7672	0.092
Mof_H 	H 	0.188	0.3997	0.7192	0.089
Mof_Mn	Mn	0.22175	0.13774	0.21403	1.053
Mof_O 	O 	0.24173	0.09827	0.1847	-0.435
Mof_O 	O 	0.30224	0.13516	0.3616	-0.384
Mof_O 	O 	0.20727	0.18018	0.25442	-0.44
Mof_N 	N 	0.25677	0.14513	0.28733	-0.248
Mof_N 	N 	0.25434	0.17614	0.3254	-0.224
Mof_N 	N 	0.13955	0.4381	0.95531	-0.203
Mof_C 	C 	0.2669	0.0816	0.2157	0.31
Mof_C 	C 	0.27398	0.04946	0.187	-0.269
Mof_H 	H 	0.2608	0.0411	0.1473	0.13
Mof_C 	C 	0.29951	0.0299	0.2152	0.139
Mof_H 	H 	0.304	0.0085	0.1942	-0.024
Mof_C 	C 	0.31887	0.04147	0.2748	-0.207
Mof_H 	H 	0.3363	0.0281	0.2948	0.11
Mof_C 	C 	0.31222	0.07213	0.3031	0.14
Mof_H 	H 	0.3252	0.0799	0.3437	0.009
Mof_C 	C 	0.28697	0.09274	0.275	-0.242
Mof_C 	C 	0.2821	0.12613	0.3099	0.295
Mof_C 	C 	0.22802	0.19218	0.3034	0.387
Mof_C 	C 	0.22114	0.22661	0.3325	-0.717
Mof_H 	H 	0.2013	0.226	0.3644	0.232
Mof_H 	H 	0.2405	0.2344	0.3613	0.226
Mof_H 	H 	0.2172	0.2419	0.2909	0.219
Mof_C 	C 	0.16848	0.42359	0.9725	0.114
Mof_H 	H 	0.1783	0.4286	0.0193	0
Mof_C 	C 	0.18506	0.40172	0.9265	-0.188
Mof_H 	H 	0.2058	0.3922	0.9411	0.098
Mof_C 	C 	0.12714	0.43135	0.8882	0.109
Mof_H 	H 	0.107	0.4422	0.8736	-0.01
Mof_C 	C 	0.1419	0.4094	0.8384	-0.183
Mof_H 	H 	0.132	0.4053	0.7914	0.086
Mof_C 	C 	0.17102	0.39379	0.8581	0.116
Mof_C 	C 	0.1878	0.3694	0.8045	-0.098
Mof_H 	H 	0.2042	0.3555	0.8322	0.057
Mof_H 	H 	0.1706	0.3541	0.7838	0.049
Mof_Mn	Mn	0.926	0.95752	0.83161	1.011
Mof_O 	O 	0.90326	0.98654	0.7685	-0.428
Mof_O 	O 	0.00257	0.97998	0.68488	-0.378
Mof_O 	O 	0.95619	0.93006	0.89016	-0.437
Mof_N 	N 	0.9674	0.96553	0.77909	-0.257
Mof_N 	N 	0.99605	0.94915	0.80944	-0.228
Mof_C 	C 	0.914	0.00103	0.7071	0.306
Mof_C 	C 	0.88983	0.0206	0.669	-0.265
Mof_H 	H 	0.8685	0.0248	0.6905	0.124
Mof_C 	C 	0.89793	0.0334	0.5995	0.131
Mof_H 	H 	0.8819	0.0466	0.5736	-0.019
Mof_C 	C 	0.92909	0.0274	0.5673	-0.204
Mof_H 	H 	0.9335	0.0344	0.5179	0.102
Mof_C 	C 	0.95309	0.0114	0.6077	0.136
Mof_H 	H 	0.9752	0.0099	0.5883	0.001
Mof_C 	C 	0.94609	0.99707	0.6768	-0.252
Mof_C 	C 	0.97351	0.98025	0.715	0.303
Mof_C 	C 	0.98701	0.93149	0.86652	0.385
Mof_C 	C 	0.01282	0.91094	0.9064	-0.729
Mof_H 	H 	0.0222	0.924	0.9475	0.24
Mof_H 	H 	0.0024	0.8905	0.9258	0.238
Mof_H 	H 	0.0308	0.9049	0.8719	0.231
Mof_Mn	Mn	0.04151	0.96741	0.74692	1.053
Mof_O 	O 	0.04999	0.92555	0.70559	-0.427
Mof_O 	O 	0.11463	0.93364	0.89163	-0.37
Mof_O 	O 	0.03948	0.01005	0.79783	-0.436
Mof_N 	N 	0.07746	0.96121	0.81806	-0.247
Mof_N 	N 	0.08289	0.98868	0.86513	-0.226
Mof_N 	N 	0.07338	0.993	0.6595	-0.225
Mof_C 	C 	0.07268	0.90235	0.7236	0.309
Mof_C 	C 	0.07471	0.87434	0.6778	-0.274
Mof_H 	H 	0.0603	0.8726	0.6362	0.13
Mof_C 	C 	0.09764	0.84889	0.6923	0.138
Mof_H 	H 	0.0989	0.8301	0.6601	-0.027
Mof_C 	C 	0.11861	0.85083	0.7532	-0.206
Mof_H 	H 	0.1338	0.8332	0.7638	0.099
Mof_C 	C 	0.11715	0.87862	0.7983	0.127
Mof_H 	H 	0.1318	0.8802	0.8396	0.007
Mof_C 	C 	0.09441	0.90479	0.7845	-0.242
Mof_C 	C 	0.09564	0.93437	0.83405	0.284
Mof_C 	C 	0.06227	0.01289	0.8489	0.396
Mof_C 	C 	0.06503	0.0451	0.8895	-0.731
Mof_H 	H 	0.05	0.0448	0.9324	0.227
Mof_H 	H 	0.0882	0.0482	0.9064	0.228
Mof_H 	H 	0.0588	0.0636	0.8565	0.239
Mof_C 	C 	0.06172	0.0223	0.6289	0.124
Mof_H 	H 	0.0401	0.0303	0.6417	-0.003
Mof_C 	C 	0.0814	0.0404	0.5793	-0.23
Mof_H 	H 	0.0733	0.0607	0.5584	0.103
Mof_C 	C 	0.10378	0.9878	0.6478	0.197
Mof_H 	H 	0.1138	0.9697	0.6737	-0.042
Mof_C 	C 	0.12417	0.006	0.6004	-0.315
Mof_H 	H 	0.1474	0.0009	0.5987	0.128
Mof_C 	C 	0.11339	0.0284	0.5605	0.237
Mof_C 	C 	0.1356	0.0455	0.5043	-0.23
Mof_H 	H 	0.1508	0.0285	0.4828	0.092
Mof_H 	H 	0.1497	0.062	0.5308	0.089
Mof_Mn	Mn	0.88774	0.02825	0.03597	1.053
Mof_O 	O 	0.84827	0.00827	0.0653	-0.434
Mof_O 	O 	0.88516	0.94776	0.8884	-0.384
Mof_O 	O 	0.93018	0.04273	0.99558	-0.44
Mof_N 	N 	0.89513	0.99323	0.96267	-0.248
Mof_N 	N 	0.92614	0.99566	0.9246	-0.224
Mof_N 	N 	0.1881	0.11045	0.29469	-0.203
Mof_C 	C 	0.8316	0.9831	0.0343	0.309
Mof_C 	C 	0.79946	0.97602	0.063	-0.267
Mof_H 	H 	0.7911	0.9892	0.1027	0.129
Mof_C 	C 	0.7799	0.95049	0.0348	0.138
Mof_H 	H 	0.7585	0.946	0.0558	-0.024
Mof_C 	C 	0.79147	0.93113	0.9752	-0.205
Mof_H 	H 	0.7781	0.9137	0.9552	0.11
Mof_C 	C 	0.82213	0.93778	0.9469	0.139
Mof_H 	H 	0.8299	0.9248	0.9063	0.009
Mof_C 	C 	0.84274	0.96303	0.975	-0.241
Mof_C 	C 	0.87613	0.9679	0.9401	0.294
Mof_C 	C 	0.94218	0.02198	0.9466	0.387
Mof_C 	C 	0.97661	0.02886	0.9175	-0.717
Mof_H 	H 	0.976	0.0487	0.8856	0.232
Mof_H 	H 	0.9844	0.0095	0.8887	0.226
Mof_H 	H 	0.9919	0.0328	0.9591	0.219
Mof_C 	C 	0.17359	0.08152	0.2775	0.115
Mof_H 	H 	0.1786	0.0717	0.2307	-0
Mof_C 	C 	0.15172	0.06494	0.3235	-0.189
Mof_H 	H 	0.1422	0.0442	0.3089	0.098
Mof_C 	C 	0.18135	0.12286	0.3618	0.109
Mof_H 	H 	0.1922	0.143	0.3764	-0.01
Mof_C 	C 	0.1594	0.1081	0.4116	-0.183
Mof_H 	H 	0.1553	0.118	0.4586	0.086
Mof_C 	C 	0.14379	0.07898	0.3919	0.117
Mof_C 	C 	0.1194	0.0622	0.4455	-0.098
Mof_H 	H 	0.1055	0.0458	0.4178	0.057
Mof_H 	H 	0.1041	0.0794	0.4662	0.049
Mof_Mn	Mn	0.426	0.45752	0.33161	1.011
Mof_O 	O 	0.40326	0.48654	0.2685	-0.428
Mof_O 	O 	0.50257	0.47998	0.18488	-0.378
Mof_O 	O 	0.45619	0.43006	0.39016	-0.438
Mof_N 	N 	0.4674	0.46553	0.27909	-0.257
Mof_N 	N 	0.49605	0.44915	0.30944	-0.228
Mof_C 	C 	0.414	0.50103	0.2071	0.306
Mof_C 	C 	0.38983	0.5206	0.169	-0.265
Mof_H 	H 	0.3685	0.5248	0.1905	0.125
Mof_C 	C 	0.39793	0.5334	0.0995	0.131
Mof_H 	H 	0.3819	0.5466	0.0736	-0.019
Mof_C 	C 	0.42909	0.5274	0.0673	-0.205
Mof_H 	H 	0.4335	0.5344	0.0179	0.102
Mof_C 	C 	0.45309	0.5114	0.1077	0.136
Mof_H 	H 	0.4752	0.5099	0.0883	0.001
Mof_C 	C 	0.44609	0.49707	0.1768	-0.252
Mof_C 	C 	0.47351	0.48025	0.215	0.303
Mof_C 	C 	0.48701	0.43149	0.36652	0.385
Mof_C 	C 	0.51282	0.41094	0.4064	-0.729
Mof_H 	H 	0.5222	0.424	0.4475	0.239
Mof_H 	H 	0.5024	0.3905	0.4258	0.238
Mof_H 	H 	0.5308	0.4049	0.3719	0.231
Mof_Mn	Mn	0.54151	0.46741	0.24692	1.053
Mof_O 	O 	0.54999	0.42555	0.20559	-0.427
Mof_O 	O 	0.61463	0.43364	0.39163	-0.37
Mof_O 	O 	0.53948	0.51005	0.29783	-0.436
Mof_N 	N 	0.57746	0.46121	0.31806	-0.247
Mof_N 	N 	0.58289	0.48868	0.36513	-0.226
Mof_N 	N 	0.57338	0.493	0.1595	-0.225
Mof_C 	C 	0.57268	0.40235	0.2236	0.309
Mof_C 	C 	0.57471	0.37434	0.1778	-0.274
Mof_H 	H 	0.5603	0.3726	0.1362	0.13
Mof_C 	C 	0.59764	0.34889	0.1923	0.138
Mof_H 	H 	0.5989	0.3301	0.1601	-0.026
Mof_C 	C 	0.61861	0.35083	0.2532	-0.206
Mof_H 	H 	0.6338	0.3332	0.2638	0.099
Mof_C 	C 	0.61715	0.37862	0.2983	0.127
Mof_H 	H 	0.6318	0.3802	0.3396	0.007
Mof_C 	C 	0.59441	0.40479	0.2845	-0.242
Mof_C 	C 	0.59564	0.43437	0.33405	0.284
Mof_C 	C 	0.56227	0.51289	0.3489	0.396
Mof_C 	C 	0.56503	0.5451	0.3895	-0.731
Mof_H 	H 	0.55	0.5448	0.4324	0.227
Mof_H 	H 	0.5882	0.5482	0.4064	0.228
Mof_H 	H 	0.5588	0.5636	0.3565	0.239
Mof_C 	C 	0.56172	0.5223	0.1289	0.124
Mof_H 	H 	0.5401	0.5303	0.1417	-0.003
Mof_C 	C 	0.5814	0.5404	0.0793	-0.231
Mof_H 	H 	0.5733	0.5607	0.0584	0.103
Mof_C 	C 	0.60378	0.4878	0.1478	0.197
Mof_H 	H 	0.6138	0.4697	0.1737	-0.042
Mof_C 	C 	0.62417	0.506	0.1004	-0.315
Mof_H 	H 	0.6474	0.5009	0.0987	0.129
Mof_C 	C 	0.61339	0.5284	0.0605	0.237
Mof_C 	C 	0.6356	0.5455	0.0043	-0.23
Mof_H 	H 	0.6508	0.5285	0.9828	0.092
Mof_H 	H 	0.6497	0.562	0.0308	0.089
Mof_Mn	Mn	0.38774	0.52825	0.53597	1.053
Mof_O 	O 	0.34827	0.50827	0.5653	-0.435
Mof_O 	O 	0.38516	0.44776	0.3884	-0.384
Mof_O 	O 	0.43018	0.54273	0.49558	-0.44
Mof_N 	N 	0.39513	0.49323	0.46267	-0.248
Mof_N 	N 	0.42614	0.49566	0.4246	-0.224
Mof_N 	N 	0.6881	0.61045	0.79469	-0.203
Mof_C 	C 	0.3316	0.4831	0.5343	0.31
Mof_C 	C 	0.29946	0.47602	0.563	-0.269
Mof_H 	H 	0.2911	0.4892	0.6027	0.13
Mof_C 	C 	0.2799	0.45049	0.5348	0.139
Mof_H 	H 	0.2585	0.446	0.5558	-0.024
Mof_C 	C 	0.29147	0.43113	0.4752	-0.207
Mof_H 	H 	0.2781	0.4137	0.4552	0.11
Mof_C 	C 	0.32213	0.43778	0.4469	0.14
Mof_H 	H 	0.3299	0.4248	0.4063	0.009
Mof_C 	C 	0.34274	0.46303	0.475	-0.242
Mof_C 	C 	0.37613	0.4679	0.4401	0.295
Mof_C 	C 	0.44218	0.52198	0.4466	0.387
Mof_C 	C 	0.47661	0.52886	0.4175	-0.717
Mof_H 	H 	0.476	0.5487	0.3856	0.232
Mof_H 	H 	0.4844	0.5095	0.3887	0.226
Mof_H 	H 	0.4919	0.5328	0.4591	0.219
Mof_C 	C 	0.67359	0.58152	0.7775	0.115
Mof_H 	H 	0.6786	0.5717	0.7307	-0
Mof_C 	C 	0.65172	0.56494	0.8235	-0.189
Mof_H 	H 	0.6422	0.5442	0.8089	0.098
Mof_C 	C 	0.68135	0.62286	0.8618	0.109
Mof_H 	H 	0.6922	0.643	0.8764	-0.01
Mof_C 	C 	0.6594	0.6081	0.9116	-0.183
Mof_H 	H 	0.6553	0.618	0.9586	0.086
Mof_C 	C 	0.64379	0.57898	0.8919	0.116
Mof_C 	C 	0.6194	0.5622	0.9455	-0.098
Mof_H 	H 	0.6055	0.5458	0.9178	0.057
Mof_H 	H 	0.6041	0.5794	0.9662	0.049
Mof_Mn	Mn	0.574	0.04248	0.33161	1.011
Mof_O 	O 	0.59674	0.01346	0.2685	-0.428
Mof_O 	O 	0.49743	0.02002	0.18488	-0.378
Mof_O 	O 	0.54381	0.06994	0.39016	-0.438
Mof_N 	N 	0.5326	0.03447	0.27909	-0.257
Mof_N 	N 	0.50395	0.05085	0.30944	-0.228
Mof_C 	C 	0.586	0.99897	0.2071	0.306
Mof_C 	C 	0.61017	0.9794	0.169	-0.264
Mof_H 	H 	0.6315	0.9752	0.1905	0.124
Mof_C 	C 	0.60207	0.9666	0.0995	0.131
Mof_H 	H 	0.6181	0.9534	0.0736	-0.019
Mof_C 	C 	0.57091	0.9726	0.0673	-0.204
Mof_H 	H 	0.5665	0.9656	0.0179	0.102
Mof_C 	C 	0.54691	0.9886	0.1077	0.136
Mof_H 	H 	0.5248	0.9901	0.0883	0.001
Mof_C 	C 	0.55391	0.00293	0.1768	-0.252
Mof_C 	C 	0.52649	0.01975	0.215	0.303
Mof_C 	C 	0.51299	0.06851	0.36652	0.385
Mof_C 	C 	0.48718	0.08906	0.4064	-0.729
Mof_H 	H 	0.4778	0.076	0.4475	0.239
Mof_H 	H 	0.4976	0.1095	0.4258	0.238
Mof_H 	H 	0.4692	0.0951	0.3719	0.231
Mof_Mn	Mn	0.45849	0.03259	0.24692	1.053
Mof_O 	O 	0.45001	0.07445	0.20559	-0.427
Mof_O 	O 	0.38537	0.06636	0.39163	-0.37
Mof_O 	O 	0.46052	0.98995	0.29783	-0.436
Mof_N 	N 	0.42254	0.03879	0.31806	-0.247
Mof_N 	N 	0.41711	0.01132	0.36513	-0.226
Mof_N 	N 	0.42662	0.007	0.1595	-0.225
Mof_C 	C 	0.42732	0.09765	0.2236	0.309
Mof_C 	C 	0.42529	0.12566	0.1778	-0.274
Mof_H 	H 	0.4397	0.1274	0.1362	0.13
Mof_C 	C 	0.40236	0.15111	0.1923	0.138
Mof_H 	H 	0.4011	0.1699	0.1601	-0.026
Mof_C 	C 	0.38139	0.14917	0.2532	-0.206
Mof_H 	H 	0.3662	0.1668	0.2638	0.099
Mof_C 	C 	0.38285	0.12138	0.2983	0.127
Mof_H 	H 	0.3682	0.1198	0.3396	0.007
Mof_C 	C 	0.40559	0.09521	0.2845	-0.242
Mof_C 	C 	0.40436	0.06563	0.33405	0.284
Mof_C 	C 	0.43773	0.98711	0.3489	0.396
Mof_C 	C 	0.43497	0.9549	0.3895	-0.731
Mof_H 	H 	0.45	0.9552	0.4324	0.227
Mof_H 	H 	0.4118	0.9518	0.4064	0.228
Mof_H 	H 	0.4412	0.9364	0.3565	0.239
Mof_C 	C 	0.43828	0.9777	0.1289	0.124
Mof_H 	H 	0.4599	0.9697	0.1417	-0.003
Mof_C 	C 	0.4186	0.9596	0.0793	-0.231
Mof_H 	H 	0.4267	0.9393	0.0584	0.103
Mof_C 	C 	0.39622	0.0122	0.1478	0.198
Mof_H 	H 	0.3862	0.0303	0.1737	-0.042
Mof_C 	C 	0.37583	0.994	0.1004	-0.316
Mof_H 	H 	0.3526	0.9991	0.0987	0.129
Mof_C 	C 	0.38661	0.9716	0.0605	0.238
Mof_C 	C 	0.3644	0.9545	0.0043	-0.232
Mof_H 	H 	0.3492	0.9715	0.9828	0.092
Mof_H 	H 	0.3503	0.938	0.0308	0.09
Mof_Mn	Mn	0.61226	0.97175	0.53597	1.053
Mof_O 	O 	0.65173	0.99173	0.5653	-0.435
Mof_O 	O 	0.61484	0.05224	0.3884	-0.384
Mof_O 	O 	0.56982	0.95727	0.49558	-0.44
Mof_N 	N 	0.60487	0.00677	0.46267	-0.248
Mof_N 	N 	0.57386	0.00434	0.4246	-0.224
Mof_N 	N 	0.3119	0.88955	0.79469	-0.203
Mof_C 	C 	0.6684	0.0169	0.5343	0.31
Mof_C 	C 	0.70054	0.02398	0.563	-0.269
Mof_H 	H 	0.7089	0.0108	0.6027	0.13
Mof_C 	C 	0.7201	0.04951	0.5348	0.139
Mof_H 	H 	0.7415	0.054	0.5558	-0.024
Mof_C 	C 	0.70853	0.06887	0.4752	-0.207
Mof_H 	H 	0.7219	0.0863	0.4552	0.11
Mof_C 	C 	0.67787	0.06222	0.4469	0.14
Mof_H 	H 	0.6701	0.0752	0.4063	0.009
Mof_C 	C 	0.65726	0.03697	0.475	-0.242
Mof_C 	C 	0.62387	0.0321	0.4401	0.295
Mof_C 	C 	0.55782	0.97802	0.4466	0.387
Mof_C 	C 	0.52339	0.97114	0.4175	-0.717
Mof_H 	H 	0.524	0.9513	0.3856	0.232
Mof_H 	H 	0.5156	0.9905	0.3887	0.226
Mof_H 	H 	0.5081	0.9672	0.4591	0.219
Mof_C 	C 	0.32641	0.91848	0.7775	0.114
Mof_H 	H 	0.3214	0.9283	0.7307	-0
Mof_C 	C 	0.34828	0.93506	0.8235	-0.188
Mof_H 	H 	0.3578	0.9558	0.8089	0.098
Mof_C 	C 	0.31865	0.87714	0.8618	0.109
Mof_H 	H 	0.3078	0.857	0.8764	-0.01
Mof_C 	C 	0.3406	0.8919	0.9116	-0.183
Mof_H 	H 	0.3447	0.882	0.9586	0.086
Mof_C 	C 	0.35621	0.92102	0.8919	0.116
Mof_C 	C 	0.3806	0.9378	0.9455	-0.097
Mof_H 	H 	0.3945	0.9542	0.9178	0.057
Mof_H 	H 	0.3959	0.9206	0.9662	0.049
Mof_Mn	Mn	0.074	0.54248	0.83161	1.011
Mof_O 	O 	0.09674	0.51346	0.7685	-0.428
Mof_O 	O 	0.99743	0.52002	0.68488	-0.378
Mof_O 	O 	0.04381	0.56994	0.89016	-0.437
Mof_N 	N 	0.0326	0.53447	0.77909	-0.257
Mof_N 	N 	0.00395	0.55085	0.80944	-0.228
Mof_C 	C 	0.086	0.49897	0.7071	0.306
Mof_C 	C 	0.11017	0.4794	0.669	-0.265
Mof_H 	H 	0.1315	0.4752	0.6905	0.125
Mof_C 	C 	0.10207	0.4666	0.5995	0.131
Mof_H 	H 	0.1181	0.4534	0.5736	-0.019
Mof_C 	C 	0.07091	0.4726	0.5673	-0.205
Mof_H 	H 	0.0665	0.4656	0.5179	0.102
Mof_C 	C 	0.04691	0.4886	0.6077	0.136
Mof_H 	H 	0.0248	0.4901	0.5883	0.001
Mof_C 	C 	0.05391	0.50293	0.6768	-0.252
Mof_C 	C 	0.02649	0.51975	0.715	0.303
Mof_C 	C 	0.01299	0.56851	0.86652	0.385
Mof_C 	C 	0.98718	0.58906	0.9064	-0.729
Mof_H 	H 	0.9778	0.576	0.9475	0.24
Mof_H 	H 	0.9976	0.6095	0.9258	0.238
Mof_H 	H 	0.9692	0.5951	0.8719	0.231
Mof_Mn	Mn	0.95849	0.53259	0.74692	1.053
Mof_O 	O 	0.95001	0.57445	0.70559	-0.427
Mof_O 	O 	0.88537	0.56636	0.89163	-0.37
Mof_O 	O 	0.96052	0.48995	0.79783	-0.436
Mof_N 	N 	0.92254	0.53879	0.81806	-0.247
Mof_N 	N 	0.91711	0.51132	0.86513	-0.226
Mof_N 	N 	0.92662	0.507	0.6595	-0.225
Mof_C 	C 	0.92732	0.59765	0.7236	0.309
Mof_C 	C 	0.92529	0.62566	0.6778	-0.274
Mof_H 	H 	0.9397	0.6274	0.6362	0.13
Mof_C 	C 	0.90236	0.65111	0.6923	0.138
Mof_H 	H 	0.9011	0.6699	0.6601	-0.027
Mof_C 	C 	0.88139	0.64917	0.7532	-0.206
Mof_H 	H 	0.8662	0.6668	0.7638	0.099
Mof_C 	C 	0.88285	0.62138	0.7983	0.127
Mof_H 	H 	0.8682	0.6198	0.8396	0.007
Mof_C 	C 	0.90559	0.59521	0.7845	-0.242
Mof_C 	C 	0.90436	0.56563	0.83405	0.284
Mof_C 	C 	0.93773	0.48711	0.8489	0.396
Mof_C 	C 	0.93497	0.4549	0.8895	-0.731
Mof_H 	H 	0.95	0.4552	0.9324	0.227
Mof_H 	H 	0.9118	0.4518	0.9064	0.228
Mof_H 	H 	0.9412	0.4364	0.8565	0.239
Mof_C 	C 	0.93828	0.4777	0.6289	0.124
Mof_H 	H 	0.9599	0.4697	0.6417	-0.003
Mof_C 	C 	0.9186	0.4596	0.5793	-0.23
Mof_H 	H 	0.9267	0.4393	0.5584	0.103
Mof_C 	C 	0.89622	0.5122	0.6478	0.197
Mof_H 	H 	0.8862	0.5303	0.6737	-0.042
Mof_C 	C 	0.87583	0.494	0.6004	-0.315
Mof_H 	H 	0.8526	0.4991	0.5987	0.128
Mof_C 	C 	0.88661	0.4716	0.5605	0.237
Mof_C 	C 	0.8644	0.4545	0.5043	-0.229
Mof_H 	H 	0.8492	0.4715	0.4828	0.092
Mof_H 	H 	0.8503	0.438	0.5308	0.089
Mof_Mn	Mn	0.11226	0.47175	0.03597	1.053
Mof_O 	O 	0.15173	0.49173	0.0653	-0.435
Mof_O 	O 	0.11484	0.55224	0.8884	-0.384
Mof_O 	O 	0.06982	0.45727	0.99558	-0.44
Mof_N 	N 	0.10487	0.50677	0.96267	-0.248
Mof_N 	N 	0.07386	0.50434	0.9246	-0.224
Mof_N 	N 	0.8119	0.38955	0.29469	-0.203
Mof_C 	C 	0.1684	0.5169	0.0343	0.31
Mof_C 	C 	0.20054	0.52398	0.063	-0.268
Mof_H 	H 	0.2089	0.5108	0.1027	0.13
Mof_C 	C 	0.2201	0.54951	0.0348	0.138
Mof_H 	H 	0.2415	0.554	0.0558	-0.024
Mof_C 	C 	0.20853	0.56887	0.9752	-0.206
Mof_H 	H 	0.2219	0.5863	0.9552	0.11
Mof_C 	C 	0.17787	0.56222	0.9469	0.14
Mof_H 	H 	0.1701	0.5752	0.9063	0.009
Mof_C 	C 	0.15726	0.53697	0.975	-0.241
Mof_C 	C 	0.12387	0.5321	0.9401	0.295
Mof_C 	C 	0.05782	0.47802	0.9466	0.387
Mof_C 	C 	0.02339	0.47114	0.9175	-0.717
Mof_H 	H 	0.024	0.4513	0.8856	0.232
Mof_H 	H 	0.0156	0.4905	0.8887	0.226
Mof_H 	H 	0.0081	0.4672	0.9591	0.219
Mof_C 	C 	0.82641	0.41848	0.2775	0.115
Mof_H 	H 	0.8214	0.4283	0.2307	-0
Mof_C 	C 	0.84828	0.43506	0.3235	-0.189
Mof_H 	H 	0.8578	0.4558	0.3089	0.098
Mof_C 	C 	0.81865	0.37714	0.3618	0.109
Mof_H 	H 	0.8078	0.357	0.3764	-0.01
Mof_C 	C 	0.8406	0.3919	0.4116	-0.183
Mof_H 	H 	0.8447	0.382	0.4586	0.086
Mof_C 	C 	0.85621	0.42102	0.3919	0.117
Mof_C 	C 	0.8806	0.4378	0.4455	-0.098
Mof_H 	H 	0.8945	0.4542	0.4178	0.057
Mof_H 	H 	0.8959	0.4206	0.4662	0.049
Mof_Mn	Mn	0.29248	0.676	0.58161	1.011
Mof_O 	O 	0.26346	0.65326	0.5185	-0.428
Mof_O 	O 	0.27002	0.75257	0.43488	-0.378
Mof_O 	O 	0.31994	0.70619	0.64016	-0.438
Mof_N 	N 	0.28447	0.7174	0.52909	-0.257
Mof_N 	N 	0.30085	0.74605	0.55944	-0.228
Mof_C 	C 	0.24897	0.664	0.4571	0.306
Mof_C 	C 	0.2294	0.63983	0.419	-0.265
Mof_H 	H 	0.2252	0.6185	0.4405	0.125
Mof_C 	C 	0.2166	0.64793	0.3495	0.131
Mof_H 	H 	0.2034	0.6319	0.3236	-0.019
Mof_C 	C 	0.2226	0.67909	0.3173	-0.205
Mof_H 	H 	0.2156	0.6835	0.2679	0.102
Mof_C 	C 	0.2386	0.70309	0.3577	0.136
Mof_H 	H 	0.2401	0.7252	0.3383	0.001
Mof_C 	C 	0.25293	0.69609	0.4268	-0.252
Mof_C 	C 	0.26975	0.72351	0.465	0.303
Mof_C 	C 	0.31851	0.73701	0.61652	0.385
Mof_C 	C 	0.33906	0.76282	0.6564	-0.729
Mof_H 	H 	0.326	0.7722	0.6975	0.24
Mof_H 	H 	0.3595	0.7524	0.6758	0.238
Mof_H 	H 	0.3451	0.7808	0.6219	0.231
Mof_Mn	Mn	0.28259	0.79151	0.49692	1.053
Mof_O 	O 	0.32445	0.79999	0.45559	-0.427
Mof_O 	O 	0.31636	0.86463	0.64163	-0.37
Mof_O 	O 	0.23995	0.78948	0.54783	-0.436
Mof_N 	N 	0.28879	0.82746	0.56806	-0.247
Mof_N 	N 	0.26132	0.83289	0.61513	-0.226
Mof_N 	N 	0.257	0.82338	0.4095	-0.225
Mof_C 	C 	0.34765	0.82268	0.4736	0.309
Mof_C 	C 	0.37566	0.82471	0.4278	-0.274
Mof_H 	H 	0.3774	0.8103	0.3862	0.13
Mof_C 	C 	0.40111	0.84764	0.4423	0.138
Mof_H 	H 	0.4199	0.8489	0.4101	-0.027
Mof_C 	C 	0.39917	0.86861	0.5032	-0.206
Mof_H 	H 	0.4168	0.8838	0.5138	0.099
Mof_C 	C 	0.37138	0.86715	0.5483	0.127
Mof_H 	H 	0.3698	0.8818	0.5896	0.007
Mof_C 	C 	0.34521	0.84441	0.5345	-0.242
Mof_C 	C 	0.31563	0.84564	0.58405	0.284
Mof_C 	C 	0.23711	0.81227	0.5989	0.396
Mof_C 	C 	0.2049	0.81503	0.6395	-0.731
Mof_H 	H 	0.2052	0.8	0.6824	0.227
Mof_H 	H 	0.2018	0.8382	0.6564	0.228
Mof_H 	H 	0.1864	0.8088	0.6065	0.239
Mof_C 	C 	0.2277	0.81172	0.3789	0.124
Mof_H 	H 	0.2197	0.7901	0.3917	-0.003
Mof_C 	C 	0.2096	0.8314	0.3293	-0.23
Mof_H 	H 	0.1893	0.8233	0.3084	0.103
Mof_C 	C 	0.2622	0.85378	0.3978	0.197
Mof_H 	H 	0.2803	0.8638	0.4237	-0.042
Mof_C 	C 	0.244	0.87417	0.3504	-0.315
Mof_H 	H 	0.2491	0.8974	0.3487	0.128
Mof_C 	C 	0.2216	0.86339	0.3105	0.237
Mof_C 	C 	0.2045	0.8856	0.2543	-0.23
Mof_H 	H 	0.2215	0.9008	0.2328	0.092
Mof_H 	H 	0.188	0.8997	0.2808	0.089
Mof_Mn	Mn	0.22175	0.63774	0.78597	1.053
Mof_O 	O 	0.24173	0.59827	0.8153	-0.435
Mof_O 	O 	0.30224	0.63516	0.6384	-0.384
Mof_O 	O 	0.20727	0.68018	0.74558	-0.44
Mof_N 	N 	0.25677	0.64513	0.71267	-0.248
Mof_N 	N 	0.25434	0.67614	0.6746	-0.224
Mof_N 	N 	0.13955	0.9381	0.04469	-0.203
Mof_C 	C 	0.2669	0.5816	0.7843	0.31
Mof_C 	C 	0.27398	0.54946	0.813	-0.269
Mof_H 	H 	0.2608	0.5411	0.8527	0.13
Mof_C 	C 	0.29951	0.5299	0.7848	0.139
Mof_H 	H 	0.304	0.5085	0.8058	-0.024
Mof_C 	C 	0.31887	0.54147	0.7252	-0.207
Mof_H 	H 	0.3363	0.5281	0.7052	0.11
Mof_C 	C 	0.31222	0.57213	0.6969	0.14
Mof_H 	H 	0.3252	0.5799	0.6563	0.009
Mof_C 	C 	0.28697	0.59274	0.725	-0.242
Mof_C 	C 	0.2821	0.62613	0.6901	0.295
Mof_C 	C 	0.22802	0.69218	0.6966	0.387
Mof_C 	C 	0.22114	0.72661	0.6675	-0.717
Mof_H 	H 	0.2013	0.726	0.6356	0.232
Mof_H 	H 	0.2405	0.7344	0.6387	0.226
Mof_H 	H 	0.2172	0.7419	0.7091	0.219
Mof_C 	C 	0.16848	0.92359	0.0275	0.114
Mof_H 	H 	0.1783	0.9286	0.9807	0
Mof_C 	C 	0.18506	0.90172	0.0735	-0.188
Mof_H 	H 	0.2058	0.8922	0.0589	0.098
Mof_C 	C 	0.12714	0.93135	0.1118	0.109
Mof_H 	H 	0.107	0.9422	0.1264	-0.01
Mof_C 	C 	0.1419	0.9094	0.1616	-0.183
Mof_H 	H 	0.132	0.9053	0.2086	0.086
Mof_C 	C 	0.17102	0.89379	0.1419	0.116
Mof_C 	C 	0.1878	0.8694	0.1955	-0.098
Mof_H 	H 	0.2042	0.8555	0.1678	0.057
Mof_H 	H 	0.1706	0.8541	0.2162	0.049
Mof_Mn	Mn	0.79248	0.176	0.08161	1.011
Mof_O 	O 	0.76346	0.15326	0.0185	-0.427
Mof_O 	O 	0.77002	0.25257	0.93488	-0.378
Mof_O 	O 	0.81994	0.20619	0.14016	-0.438
Mof_N 	N 	0.78447	0.2174	0.02909	-0.257
Mof_N 	N 	0.80085	0.24605	0.05944	-0.228
Mof_C 	C 	0.74897	0.164	0.9571	0.305
Mof_C 	C 	0.7294	0.13983	0.919	-0.264
Mof_H 	H 	0.7252	0.1185	0.9405	0.124
Mof_C 	C 	0.7166	0.14793	0.8495	0.131
Mof_H 	H 	0.7034	0.1319	0.8236	-0.019
Mof_C 	C 	0.7226	0.17909	0.8173	-0.204
Mof_H 	H 	0.7156	0.1835	0.7679	0.102
Mof_C 	C 	0.7386	0.20309	0.8577	0.136
Mof_H 	H 	0.7401	0.2252	0.8383	0.001
Mof_C 	C 	0.75293	0.19609	0.9268	-0.252
Mof_C 	C 	0.76975	0.22351	0.965	0.302
Mof_C 	C 	0.81851	0.23701	0.11652	0.385
Mof_C 	C 	0.83906	0.26282	0.1564	-0.729
Mof_H 	H 	0.826	0.2722	0.1975	0.24
Mof_H 	H 	0.8595	0.2524	0.1758	0.238
Mof_H 	H 	0.8451	0.2808	0.1219	0.231
Mof_Mn	Mn	0.78259	0.29151	0.99692	1.052
Mof_O 	O 	0.82445	0.29999	0.95559	-0.426
Mof_O 	O 	0.81636	0.36463	0.14163	-0.37
Mof_O 	O 	0.73995	0.28948	0.04783	-0.435
Mof_N 	N 	0.78879	0.32746	0.06806	-0.247
Mof_N 	N 	0.76132	0.33289	0.11513	-0.226
Mof_N 	N 	0.757	0.32338	0.9095	-0.225
Mof_C 	C 	0.84765	0.32268	0.9736	0.307
Mof_C 	C 	0.87566	0.32471	0.9278	-0.272
Mof_H 	H 	0.8774	0.3103	0.8862	0.129
Mof_C 	C 	0.90111	0.34764	0.9423	0.136
Mof_H 	H 	0.9199	0.3489	0.9101	-0.026
Mof_C 	C 	0.89917	0.36861	0.0032	-0.203
Mof_H 	H 	0.9168	0.3838	0.0138	0.099
Mof_C 	C 	0.87138	0.36715	0.0483	0.125
Mof_H 	H 	0.8698	0.3818	0.0896	0.008
Mof_C 	C 	0.84521	0.34441	0.0345	-0.24
Mof_C 	C 	0.81563	0.34564	0.08405	0.284
Mof_C 	C 	0.73711	0.31227	0.0989	0.396
Mof_C 	C 	0.7049	0.31503	0.1395	-0.731
Mof_H 	H 	0.7052	0.3	0.1824	0.227
Mof_H 	H 	0.7018	0.3382	0.1564	0.228
Mof_H 	H 	0.6864	0.3088	0.1065	0.239
Mof_C 	C 	0.7277	0.31172	0.8789	0.124
Mof_H 	H 	0.7197	0.2901	0.8917	-0.003
Mof_C 	C 	0.7096	0.3314	0.8293	-0.23
Mof_H 	H 	0.6893	0.3233	0.8084	0.103
Mof_C 	C 	0.7622	0.35378	0.8978	0.197
Mof_H 	H 	0.7803	0.3638	0.9237	-0.042
Mof_C 	C 	0.744	0.37417	0.8504	-0.315
Mof_H 	H 	0.7491	0.3974	0.8487	0.128
Mof_C 	C 	0.7216	0.36339	0.8105	0.237
Mof_C 	C 	0.7045	0.3856	0.7543	-0.229
Mof_H 	H 	0.7215	0.4008	0.7328	0.092
Mof_H 	H 	0.688	0.3997	0.7808	0.089
Mof_Mn	Mn	0.72175	0.13774	0.28597	1.053
Mof_O 	O 	0.74173	0.09827	0.3153	-0.435
Mof_O 	O 	0.80224	0.13516	0.1384	-0.384
Mof_O 	O 	0.70727	0.18018	0.24558	-0.44
Mof_N 	N 	0.75677	0.14513	0.21267	-0.248
Mof_N 	N 	0.75434	0.17614	0.1746	-0.224
Mof_N 	N 	0.63955	0.4381	0.54469	-0.203
Mof_C 	C 	0.7669	0.0816	0.2843	0.31
Mof_C 	C 	0.77398	0.04946	0.313	-0.269
Mof_H 	H 	0.7608	0.0411	0.3527	0.13
Mof_C 	C 	0.79951	0.0299	0.2848	0.139
Mof_H 	H 	0.804	0.0085	0.3058	-0.024
Mof_C 	C 	0.81887	0.04147	0.2252	-0.207
Mof_H 	H 	0.8363	0.0281	0.2052	0.11
Mof_C 	C 	0.81222	0.07213	0.1969	0.14
Mof_H 	H 	0.8252	0.0799	0.1563	0.009
Mof_C 	C 	0.78697	0.09274	0.225	-0.242
Mof_C 	C 	0.7821	0.12613	0.1901	0.295
Mof_C 	C 	0.72802	0.19218	0.1966	0.388
Mof_C 	C 	0.72114	0.22661	0.1675	-0.717
Mof_H 	H 	0.7013	0.226	0.1356	0.233
Mof_H 	H 	0.7405	0.2344	0.1387	0.226
Mof_H 	H 	0.7172	0.2419	0.2091	0.219
Mof_C 	C 	0.66848	0.42359	0.5275	0.115
Mof_H 	H 	0.6783	0.4286	0.4807	-0
Mof_C 	C 	0.68506	0.40172	0.5735	-0.189
Mof_H 	H 	0.7058	0.3922	0.5589	0.098
Mof_C 	C 	0.62714	0.43135	0.6118	0.109
Mof_H 	H 	0.607	0.4422	0.6264	-0.01
Mof_C 	C 	0.6419	0.4094	0.6616	-0.183
Mof_H 	H 	0.632	0.4053	0.7086	0.086
Mof_C 	C 	0.67102	0.39379	0.6419	0.117
Mof_C 	C 	0.6878	0.3694	0.6955	-0.098
Mof_H 	H 	0.7042	0.3555	0.6678	0.057
Mof_H 	H 	0.6706	0.3541	0.7162	0.049
Mof_Mn	Mn	0.20752	0.324	0.08161	1.011
Mof_O 	O 	0.23654	0.34674	0.0185	-0.427
Mof_O 	O 	0.22998	0.24743	0.93488	-0.378
Mof_O 	O 	0.18006	0.29381	0.14016	-0.438
Mof_N 	N 	0.21553	0.2826	0.02909	-0.257
Mof_N 	N 	0.19915	0.25395	0.05944	-0.228
Mof_C 	C 	0.25103	0.336	0.9571	0.306
Mof_C 	C 	0.2706	0.36017	0.919	-0.264
Mof_H 	H 	0.2748	0.3815	0.9405	0.124
Mof_C 	C 	0.2834	0.35207	0.8495	0.131
Mof_H 	H 	0.2966	0.3681	0.8236	-0.019
Mof_C 	C 	0.2774	0.32091	0.8173	-0.204
Mof_H 	H 	0.2844	0.3165	0.7679	0.102
Mof_C 	C 	0.2614	0.29691	0.8577	0.136
Mof_H 	H 	0.2599	0.2748	0.8383	0.001
Mof_C 	C 	0.24707	0.30391	0.9268	-0.252
Mof_C 	C 	0.23025	0.27649	0.965	0.302
Mof_C 	C 	0.18149	0.26299	0.11652	0.385
Mof_C 	C 	0.16094	0.23718	0.1564	-0.729
Mof_H 	H 	0.174	0.2278	0.1975	0.24
Mof_H 	H 	0.1405	0.2476	0.1758	0.238
Mof_H 	H 	0.1549	0.2192	0.1219	0.231
Mof_Mn	Mn	0.21741	0.20849	0.99692	1.052
Mof_O 	O 	0.17555	0.20001	0.95559	-0.426
Mof_O 	O 	0.18364	0.13537	0.14163	-0.369
Mof_O 	O 	0.26005	0.21052	0.04783	-0.435
Mof_N 	N 	0.21121	0.17254	0.06806	-0.247
Mof_N 	N 	0.23868	0.16711	0.11513	-0.226
Mof_N 	N 	0.243	0.17662	0.9095	-0.225
Mof_C 	C 	0.15235	0.17732	0.9736	0.307
Mof_C 	C 	0.12434	0.17529	0.9278	-0.272
Mof_H 	H 	0.1226	0.1897	0.8862	0.129
Mof_C 	C 	0.09889	0.15236	0.9423	0.135
Mof_H 	H 	0.0801	0.1511	0.9101	-0.026
Mof_C 	C 	0.10083	0.13139	0.0032	-0.203
Mof_H 	H 	0.0832	0.1162	0.0138	0.099
Mof_C 	C 	0.12862	0.13285	0.0483	0.125
Mof_H 	H 	0.1302	0.1182	0.0896	0.008
Mof_C 	C 	0.15479	0.15559	0.0345	-0.24
Mof_C 	C 	0.18437	0.15436	0.08405	0.284
Mof_C 	C 	0.26289	0.18773	0.0989	0.396
Mof_C 	C 	0.2951	0.18497	0.1395	-0.731
Mof_H 	H 	0.2948	0.2	0.1824	0.227
Mof_H 	H 	0.2982	0.1618	0.1564	0.228
Mof_H 	H 	0.3136	0.1912	0.1065	0.239
Mof_C 	C 	0.2723	0.18828	0.8789	0.124
Mof_H 	H 	0.2803	0.2099	0.8917	-0.003
Mof_C 	C 	0.2904	0.1686	0.8293	-0.23
Mof_H 	H 	0.3107	0.1767	0.8084	0.103
Mof_C 	C 	0.2378	0.14622	0.8978	0.197
Mof_H 	H 	0.2197	0.1362	0.9237	-0.042
Mof_C 	C 	0.256	0.12583	0.8504	-0.315
Mof_H 	H 	0.2509	0.1026	0.8487	0.128
Mof_C 	C 	0.2784	0.13661	0.8105	0.237
Mof_C 	C 	0.2955	0.1144	0.7543	-0.229
Mof_H 	H 	0.2785	0.0992	0.7328	0.092
Mof_H 	H 	0.312	0.1003	0.7808	0.089
Mof_Mn	Mn	0.27825	0.36226	0.28597	1.053
Mof_O 	O 	0.25827	0.40173	0.3153	-0.435
Mof_O 	O 	0.19776	0.36484	0.1384	-0.384
Mof_O 	O 	0.29273	0.31982	0.24558	-0.44
Mof_N 	N 	0.24323	0.35487	0.21267	-0.248
Mof_N 	N 	0.24566	0.32386	0.1746	-0.224
Mof_N 	N 	0.36045	0.0619	0.54469	-0.203
Mof_C 	C 	0.2331	0.4184	0.2843	0.31
Mof_C 	C 	0.22602	0.45054	0.313	-0.269
Mof_H 	H 	0.2392	0.4589	0.3527	0.13
Mof_C 	C 	0.20049	0.4701	0.2848	0.139
Mof_H 	H 	0.196	0.4915	0.3058	-0.024
Mof_C 	C 	0.18113	0.45853	0.2252	-0.207
Mof_H 	H 	0.1637	0.4719	0.2052	0.11
Mof_C 	C 	0.18778	0.42787	0.1969	0.14
Mof_H 	H 	0.1748	0.4201	0.1563	0.009
Mof_C 	C 	0.21303	0.40726	0.225	-0.242
Mof_C 	C 	0.2179	0.37387	0.1901	0.295
Mof_C 	C 	0.27198	0.30782	0.1966	0.388
Mof_C 	C 	0.27886	0.27339	0.1675	-0.717
Mof_H 	H 	0.2987	0.274	0.1356	0.233
Mof_H 	H 	0.2595	0.2656	0.1387	0.226
Mof_H 	H 	0.2828	0.2581	0.2091	0.219
Mof_C 	C 	0.33152	0.07641	0.5275	0.115
Mof_H 	H 	0.3217	0.0714	0.4807	-0
Mof_C 	C 	0.31494	0.09828	0.5735	-0.189
Mof_H 	H 	0.2942	0.1078	0.5589	0.098
Mof_C 	C 	0.37286	0.06865	0.6118	0.109
Mof_H 	H 	0.393	0.0578	0.6264	-0.01
Mof_C 	C 	0.3581	0.0906	0.6616	-0.183
Mof_H 	H 	0.368	0.0947	0.7086	0.086
Mof_C 	C 	0.32898	0.10621	0.6419	0.117
Mof_C 	C 	0.3122	0.1306	0.6955	-0.098
Mof_H 	H 	0.2958	0.1445	0.6678	0.057
Mof_H 	H 	0.3294	0.1459	0.7162	0.049
Mof_Mn	Mn	0.70752	0.824	0.58161	1.011
Mof_O 	O 	0.73654	0.84674	0.5185	-0.428
Mof_O 	O 	0.72998	0.74743	0.43488	-0.378
Mof_O 	O 	0.68006	0.79381	0.64016	-0.438
Mof_N 	N 	0.71553	0.7826	0.52909	-0.257
Mof_N 	N 	0.69915	0.75395	0.55944	-0.228
Mof_C 	C 	0.75103	0.836	0.4571	0.306
Mof_C 	C 	0.7706	0.86017	0.419	-0.265
Mof_H 	H 	0.7748	0.8815	0.4405	0.125
Mof_C 	C 	0.7834	0.85207	0.3495	0.131
Mof_H 	H 	0.7966	0.8681	0.3236	-0.019
Mof_C 	C 	0.7774	0.82091	0.3173	-0.205
Mof_H 	H 	0.7844	0.8165	0.2679	0.102
Mof_C 	C 	0.7614	0.79691	0.3577	0.136
Mof_H 	H 	0.7599	0.7748	0.3383	0.001
Mof_C 	C 	0.74707	0.80391	0.4268	-0.252
Mof_C 	C 	0.73025	0.77649	0.465	0.303
Mof_C 	C 	0.68149	0.76299	0.61652	0.385
Mof_C 	C 	0.66094	0.73718	0.6564	-0.729
Mof_H 	H 	0.674	0.7278	0.6975	0.24
Mof_H 	H 	0.6405	0.7476	0.6758	0.238
Mof_H 	H 	0.6549	0.7192	0.6219	0.231
Mof_Mn	Mn	0.71741	0.70849	0.49692	1.053
Mof_O 	O 	0.67555	0.70001	0.45559	-0.427
Mof_O 	O 	0.68364	0.63537	0.64163	-0.37
Mof_O 	O 	0.76005	0.71052	0.54783	-0.436
Mof_N 	N 	0.71121	0.67254	0.56806	-0.247
Mof_N 	N 	0.73868	0.66711	0.61513	-0.226
Mof_N 	N 	0.743	0.67662	0.4095	-0.225
Mof_C 	C 	0.65235	0.67732	0.4736	0.309
Mof_C 	C 	0.62434	0.67529	0.4278	-0.274
Mof_H 	H 	0.6226	0.6897	0.3862	0.13
Mof_C 	C 	0.59889	0.65236	0.4423	0.138
Mof_H 	H 	0.5801	0.6511	0.4101	-0.027
Mof_C 	C 	0.60083	0.63139	0.5032	-0.206
Mof_H 	H 	0.5832	0.6162	0.5138	0.099
Mof_C 	C 	0.62862	0.63285	0.5483	0.127
Mof_H 	H 	0.6302	0.6182	0.5896	0.007
Mof_C 	C 	0.65479	0.65559	0.5345	-0.242
Mof_C 	C 	0.68437	0.65436	0.58405	0.284
Mof_C 	C 	0.76289	0.68773	0.5989	0.396
Mof_C 	C 	0.7951	0.68497	0.6395	-0.731
Mof_H 	H 	0.7948	0.7	0.6824	0.227
Mof_H 	H 	0.7982	0.6618	0.6564	0.228
Mof_H 	H 	0.8136	0.6912	0.6065	0.239
Mof_C 	C 	0.7723	0.68828	0.3789	0.124
Mof_H 	H 	0.7803	0.7099	0.3917	-0.003
Mof_C 	C 	0.7904	0.6686	0.3293	-0.23
Mof_H 	H 	0.8107	0.6767	0.3084	0.103
Mof_C 	C 	0.7378	0.64622	0.3978	0.197
Mof_H 	H 	0.7197	0.6362	0.4237	-0.042
Mof_C 	C 	0.756	0.62583	0.3504	-0.315
Mof_H 	H 	0.7509	0.6026	0.3487	0.128
Mof_C 	C 	0.7784	0.63661	0.3105	0.237
Mof_C 	C 	0.7955	0.6144	0.2543	-0.23
Mof_H 	H 	0.7785	0.5992	0.2328	0.092
Mof_H 	H 	0.812	0.6003	0.2808	0.089
Mof_Mn	Mn	0.77825	0.86226	0.78597	1.053
Mof_O 	O 	0.75827	0.90173	0.8153	-0.435
Mof_O 	O 	0.69776	0.86484	0.6384	-0.384
Mof_O 	O 	0.79273	0.81982	0.74558	-0.44
Mof_N 	N 	0.74323	0.85487	0.71267	-0.248
Mof_N 	N 	0.74566	0.82386	0.6746	-0.224
Mof_N 	N 	0.86045	0.5619	0.04469	-0.203
Mof_C 	C 	0.7331	0.9184	0.7843	0.31
Mof_C 	C 	0.72602	0.95054	0.813	-0.269
Mof_H 	H 	0.7392	0.9589	0.8527	0.13
Mof_C 	C 	0.70049	0.9701	0.7848	0.139
Mof_H 	H 	0.696	0.9915	0.8058	-0.024
Mof_C 	C 	0.68113	0.95853	0.7252	-0.207
Mof_H 	H 	0.6637	0.9719	0.7052	0.11
Mof_C 	C 	0.68778	0.92787	0.6969	0.14
Mof_H 	H 	0.6748	0.9201	0.6563	0.009
Mof_C 	C 	0.71303	0.90726	0.725	-0.242
Mof_C 	C 	0.7179	0.87387	0.6901	0.295
Mof_C 	C 	0.77198	0.80782	0.6966	0.387
Mof_C 	C 	0.77886	0.77339	0.6675	-0.717
Mof_H 	H 	0.7987	0.774	0.6356	0.232
Mof_H 	H 	0.7595	0.7656	0.6387	0.226
Mof_H 	H 	0.7828	0.7581	0.7091	0.219
Mof_C 	C 	0.83152	0.57641	0.0275	0.114
Mof_H 	H 	0.8217	0.5714	0.9807	0
Mof_C 	C 	0.81494	0.59828	0.0735	-0.188
Mof_H 	H 	0.7942	0.6078	0.0589	0.098
Mof_C 	C 	0.87286	0.56865	0.1118	0.109
Mof_H 	H 	0.893	0.5578	0.1264	-0.01
Mof_C 	C 	0.8581	0.5906	0.1616	-0.183
Mof_H 	H 	0.868	0.5947	0.2086	0.086
Mof_C 	C 	0.82898	0.60621	0.1419	0.116
Mof_C 	C 	0.8122	0.6306	0.1955	-0.098
Mof_H 	H 	0.7958	0.6445	0.1678	0.057
Mof_H 	H 	0.8294	0.6459	0.2162	0.049
_end
