data_functionalizedCrystal
_audit_creation_method	'EQeq! by Chris Wilmer'
_symmetry_space_group_name_H-M	'P1'
_symmetry_Int_Tables_number	1
_symmetry_cell_setting	triclinic
loop_
_symmetry_equiv_pos_as_xyz
  x,y,z
_cell_length_a	7.145
_cell_length_b	7.145
_cell_length_c	13.369
_cell_angle_alpha	90
_cell_angle_beta	90
_cell_angle_gamma	90
loop_
_atom_site_label
_atom_site_type_symbol
_atom_site_fract_x
_atom_site_fract_y
_atom_site_fract_z
_atom_site_charge
Mof_Pt	Pt	3.50775e-33	0	0.5	0.067
Mof_Fe	Fe	0.5	0.5	0.5	0.786
Mof_N 	N 	0.5	0.5	0.649	-0.213
Mof_C 	C 	0.5	0.5	0.8579	0.054
Mof_C 	C 	0.5	0.5	0.9675	-0.012
Mof_N 	N 	0.5	0.5	0.351	-0.212
Mof_C 	C 	0.5	0.5	0.1421	0.055
Mof_C 	C 	0.5	0.5	0.0325	-0.012
Mof_N 	N 	0.3096	0.6904	0.5	-0.206
Mof_C 	C 	0.196	0.804	0.5	0.054
Mof_N 	N 	0.6904	0.3096	0.5	-0.206
Mof_C 	C 	0.804	0.196	0.5	0.054
Mof_N 	N 	0.3096	0.3096	0.5	-0.206
Mof_C 	C 	0.196	0.196	0.5	0.046
Mof_N 	N 	0.6904	0.6904	0.5	-0.207
Mof_C 	C 	0.804	0.804	0.5	0.062
Mof_C 	C 	0.5	0.656	0.7016	0.045
Mof_C 	C 	0.5	0.648	0.8056	-0.03
Mof_C 	C 	0.5	0.344	0.7016	0.042
Mof_C 	C 	0.5	0.352	0.8056	-0.033
Mof_C 	C 	0.344	0.5	0.7016	0.042
Mof_C 	C 	0.352	0.5	0.8056	-0.033
Mof_C 	C 	0.656	0.5	0.7016	0.045
Mof_C 	C 	0.648	0.5	0.8056	-0.03
Mof_C 	C 	0.5	0.656	0.2984	0.045
Mof_C 	C 	0.5	0.648	0.1944	-0.03
Mof_C 	C 	0.5	0.344	0.2984	0.042
Mof_C 	C 	0.5	0.352	0.1944	-0.033
Mof_C 	C 	0.656	0.5	0.2984	0.045
Mof_C 	C 	0.648	0.5	0.1944	-0.03
Mof_C 	C 	0.344	0.5	0.2984	0.042
Mof_C 	C 	0.352	0.5	0.1944	-0.033
_end
