data_functionalizedCrystal
_audit_creation_method	'EQeq! by Chris Wilmer'
_symmetry_space_group_name_H-M	'P1'
_symmetry_Int_Tables_number	1
_symmetry_cell_setting	triclinic
loop_
_symmetry_equiv_pos_as_xyz
  x,y,z
_cell_length_a	9.5852
_cell_length_b	20.3941
_cell_length_c	10.5339
_cell_angle_alpha	90
_cell_angle_beta	94.125
_cell_angle_gamma	90
loop_
_atom_site_label
_atom_site_type_symbol
_atom_site_fract_x
_atom_site_fract_y
_atom_site_fract_z
_atom_site_charge
Mof_Zn	Zn	0.18166	0.30371	0.36352	1.233
Mof_Zn	Zn	0.3093	0.55121	0.404	1.231
Mof_Zn	Zn	0.03663	0.56614	0.86604	1.224
Mof_P 	P 	0.09879	0.20143	0.57076	0.454
Mof_H 	H 	0.975	0.219	0.529	-0.073
Mof_P 	P 	0.43584	0.40727	0.42316	0.464
Mof_H 	H 	0.502	0.431	0.333	-0.063
Mof_P 	P 	0.16209	0.55819	0.14032	0.413
Mof_H 	H 	0.119	0.625	0.1484	-0.036
Mof_P 	P 	0.11013	0.62036	0.59332	0.481
Mof_H 	H 	0.187	0.67	0.5826	-0.063
Mof_O 	O 	0.1	0.12705	0.5762	-0.462
Mof_O 	O 	0.1283	0.23341	0.6987	-0.453
Mof_O 	O 	0.199	0.22414	0.474	-0.399
Mof_O 	O 	0.3595	0.34745	0.37	-0.434
Mof_O 	O 	0.545	0.38941	0.5287	-0.433
Mof_O 	O 	0.3402	0.46133	0.4652	-0.451
Mof_O 	O 	0.2999	0.55255	0.22	-0.425
Mof_O 	O 	0.0468	0.51686	0.1927	-0.452
Mof_O 	O 	0.1803	0.5447	0.0005	-0.429
Mof_O 	O 	0.1444	0.59199	0.7241	-0.451
Mof_O 	O 	0.1415	0.57319	0.4888	-0.42
Mof_O 	O 	0.9604	0.64229	0.5685	-0.457
Mof_Zn	Zn	0.81834	0.80371	0.13648	1.234
Mof_Zn	Zn	0.6907	0.05121	0.096	1.231
Mof_Zn	Zn	0.96337	0.06614	0.63396	1.226
Mof_P 	P 	0.90121	0.70143	0.92924	0.456
Mof_H 	H 	0.025	0.719	0.971	-0.074
Mof_P 	P 	0.56416	0.90727	0.07684	0.465
Mof_H 	H 	0.498	0.931	0.167	-0.063
Mof_P 	P 	0.83791	0.05819	0.35968	0.413
Mof_H 	H 	0.881	0.125	0.3516	-0.036
Mof_P 	P 	0.88987	0.12036	0.90668	0.482
Mof_H 	H 	0.813	0.17	0.9174	-0.063
Mof_O 	O 	0.9	0.62705	0.9238	-0.463
Mof_O 	O 	0.8717	0.73341	0.8013	-0.452
Mof_O 	O 	0.801	0.72414	0.026	-0.4
Mof_O 	O 	0.6405	0.84745	0.13	-0.434
Mof_O 	O 	0.455	0.88941	0.9713	-0.433
Mof_O 	O 	0.6598	0.96133	0.0348	-0.451
Mof_O 	O 	0.7001	0.05255	0.28	-0.425
Mof_O 	O 	0.9532	0.01686	0.3073	-0.454
Mof_O 	O 	0.8197	0.0447	0.4995	-0.429
Mof_O 	O 	0.8556	0.09199	0.7759	-0.451
Mof_O 	O 	0.8585	0.07319	0.0112	-0.423
Mof_O 	O 	0.0396	0.14229	0.9315	-0.457
Mof_Zn	Zn	0.81834	0.69629	0.63648	1.234
Mof_Zn	Zn	0.6907	0.44879	0.596	1.232
Mof_Zn	Zn	0.96337	0.43386	0.13396	1.225
Mof_P 	P 	0.90121	0.79857	0.42924	0.455
Mof_H 	H 	0.025	0.781	0.471	-0.073
Mof_P 	P 	0.56416	0.59273	0.57684	0.464
Mof_H 	H 	0.498	0.569	0.667	-0.063
Mof_P 	P 	0.83791	0.44181	0.85968	0.413
Mof_H 	H 	0.881	0.375	0.8516	-0.036
Mof_P 	P 	0.88987	0.37964	0.40668	0.481
Mof_H 	H 	0.813	0.33	0.4174	-0.063
Mof_O 	O 	0.9	0.87295	0.4238	-0.462
Mof_O 	O 	0.8717	0.76659	0.3013	-0.453
Mof_O 	O 	0.801	0.77586	0.526	-0.399
Mof_O 	O 	0.6405	0.65255	0.63	-0.434
Mof_O 	O 	0.455	0.61059	0.4713	-0.433
Mof_O 	O 	0.6598	0.53867	0.5348	-0.451
Mof_O 	O 	0.7001	0.44745	0.78	-0.425
Mof_O 	O 	0.9532	0.48314	0.8073	-0.452
Mof_O 	O 	0.8197	0.4553	0.9995	-0.429
Mof_O 	O 	0.8556	0.40801	0.2759	-0.451
Mof_O 	O 	0.8585	0.42681	0.5112	-0.42
Mof_O 	O 	0.0396	0.35771	0.4315	-0.457
Mof_Zn	Zn	0.18166	0.19629	0.86352	1.234
Mof_Zn	Zn	0.3093	0.94879	0.904	1.231
Mof_Zn	Zn	0.03663	0.93386	0.36604	1.226
Mof_P 	P 	0.09879	0.29857	0.07076	0.456
Mof_H 	H 	0.975	0.281	0.029	-0.074
Mof_P 	P 	0.43584	0.09273	0.92316	0.465
Mof_H 	H 	0.502	0.069	0.833	-0.063
Mof_P 	P 	0.16209	0.94181	0.64032	0.413
Mof_H 	H 	0.119	0.875	0.6484	-0.036
Mof_P 	P 	0.11013	0.87964	0.09332	0.482
Mof_H 	H 	0.187	0.83	0.0826	-0.063
Mof_O 	O 	0.1	0.37295	0.0762	-0.463
Mof_O 	O 	0.1283	0.26659	0.1987	-0.452
Mof_O 	O 	0.199	0.27586	0.974	-0.4
Mof_O 	O 	0.3595	0.15255	0.87	-0.434
Mof_O 	O 	0.545	0.11059	0.0287	-0.433
Mof_O 	O 	0.3402	0.03867	0.9652	-0.451
Mof_O 	O 	0.2999	0.94745	0.72	-0.425
Mof_O 	O 	0.0468	0.98314	0.6927	-0.454
Mof_O 	O 	0.1803	0.9553	0.5005	-0.429
Mof_O 	O 	0.1444	0.90801	0.2241	-0.451
Mof_O 	O 	0.1415	0.92681	0.9888	-0.423
Mof_O 	O 	0.9604	0.85771	0.0685	-0.457
_end
