data_functionalizedCrystal
_audit_creation_method	'EQeq! by Chris Wilmer'
_symmetry_space_group_name_H-M	'P1'
_symmetry_Int_Tables_number	1
_symmetry_cell_setting	triclinic
loop_
_symmetry_equiv_pos_as_xyz
  x,y,z
_cell_length_a	6.9941
_cell_length_b	7.489
_cell_length_c	11.1461
_cell_angle_alpha	107.822
_cell_angle_beta	106.364
_cell_angle_gamma	95.4664
loop_
_atom_site_label
_atom_site_type_symbol
_atom_site_fract_x
_atom_site_fract_y
_atom_site_fract_z
_atom_site_charge
Mof_Al	Al	0.29518	0.29518	0.59036	6.646
Mof_Al	Al	0.70482	0.70482	0.40964	6.125
Mof_Al	Al	2.3791e-17	0.5	0.5	4.714
Mof_Al	Al	0.5	-5.43794e-17	0.5	5.116
Mof_H 	H 	0.994	0.31	0.648	1.37
Mof_H 	H 	0.142	0.973	0.478	1.007
Mof_H 	H 	0.654	0.338	0.648	0.986
Mof_H 	H 	0.336	0.505	0.478	0.763
Mof_H 	H 	0.006	0.69	0.352	0.419
Mof_H 	H 	0.858	0.027	0.522	0.474
Mof_H 	H 	0.346	0.662	0.352	0.9
Mof_H 	H 	0.664	0.495	0.522	0.704
Mof_H 	H 	0.5519	0.3121	-0	-0.139
Mof_H 	H 	0.4481	0.6879	-0	0.044
Mof_C 	C 	0.4268	0.0695	0.7514	0.678
Mof_C 	C 	0.4558	0.0339	0.8804	-0.686
Mof_C 	C 	0.3246	0.6819	0.7514	0.75
Mof_C 	C 	0.4246	0.8465	0.8804	0.229
Mof_C 	C 	0.5732	0.9305	0.2486	1.063
Mof_C 	C 	0.5442	0.9661	0.1196	0.245
Mof_C 	C 	0.6754	0.3181	0.2486	0.951
Mof_C 	C 	0.5754	0.1535	0.1196	-0.641
Mof_C 	C 	0.5307	0.1849	-0	0.478
Mof_C 	C 	0.4693	0.8151	-0	-0.151
Mof_O 	O 	0.0277	0.3162	0.5836	-3.38
Mof_O 	O 	0.2355	0.0425	0.467	-3.039
Mof_O 	O 	0.3279	0.199	0.7356	-1.605
Mof_O 	O 	0.5034	0.9702	0.6694	-0.958
Mof_O 	O 	0.5559	0.2674	0.5836	-2.936
Mof_O 	O 	0.2315	0.4245	0.467	-2.654
Mof_O 	O 	0.4077	0.5366	0.7356	-1.502
Mof_O 	O 	0.166	0.6992	0.6694	-1.236
Mof_O 	O 	0.9723	0.6838	0.4164	-2.077
Mof_O 	O 	0.7645	0.9575	0.533	-2.125
Mof_O 	O 	0.6721	0.801	0.2644	-1.385
Mof_O 	O 	0.4966	0.0298	0.3306	-1.482
Mof_O 	O 	0.4441	0.7326	0.4164	-2.745
Mof_O 	O 	0.7685	0.5755	0.533	-2.369
Mof_O 	O 	0.5923	0.4634	0.2644	-1.474
Mof_O 	O 	0.834	0.3008	0.3306	-1.078
_end
