data_functionalizedCrystal
_audit_creation_method	'EQeq! by Chris Wilmer'
_symmetry_space_group_name_H-M	'P1'
_symmetry_Int_Tables_number	1
_symmetry_cell_setting	triclinic
loop_
_symmetry_equiv_pos_as_xyz
  x,y,z
_cell_length_a	21.999
_cell_length_b	21.999
_cell_length_c	16.7023
_cell_angle_alpha	90
_cell_angle_beta	90
_cell_angle_gamma	90
loop_
_atom_site_label
_atom_site_type_symbol
_atom_site_fract_x
_atom_site_fract_y
_atom_site_fract_z
_atom_site_charge
Mof_Ce	Ce	0.82438	0.85859	0.36543	1.883
Mof_N 	N 	0.8643	0.9177	0.238	-0.191
Mof_O 	O 	0.721	0.9313	0.1428	-0.519
Mof_O 	O 	0.7491	0.8888	0.2593	-0.564
Mof_O 	O 	0.0161	0.9226	0.2971	-0.594
Mof_O 	O 	0.9347	0.8849	0.357	-0.575
Mof_C 	C 	0.76	0.9179	0.1942	0.394
Mof_C 	C 	0.8258	0.9354	0.1802	-0.098
Mof_C 	C 	0.8438	0.9686	0.1143	0.01
Mof_H 	H 	0.816	0.9792	0.0748	0.002
Mof_C 	C 	0.9041	0.9859	0.1083	-0.114
Mof_H 	H 	0.9177	0.0096	0.0658	0.035
Mof_C 	C 	0.9445	0.9662	0.1693	0.012
Mof_H 	H 	0.9857	0.9751	0.1667	-0.01
Mof_C 	C 	0.9212	0.9338	0.2317	-0.11
Mof_C 	C 	0.9613	0.9132	0.3005	0.425
Mof_Ce	Ce	0.32438	0.35859	0.86543	1.882
Mof_N 	N 	0.3643	0.4177	0.738	-0.191
Mof_O 	O 	0.221	0.4313	0.6428	-0.519
Mof_O 	O 	0.2491	0.3888	0.7593	-0.564
Mof_O 	O 	0.5161	0.4226	0.7971	-0.593
Mof_O 	O 	0.4347	0.3849	0.857	-0.575
Mof_C 	C 	0.26	0.4179	0.6942	0.395
Mof_C 	C 	0.3258	0.4354	0.6802	-0.096
Mof_C 	C 	0.3438	0.4686	0.6143	0.009
Mof_H 	H 	0.316	0.4792	0.5748	0.004
Mof_C 	C 	0.4041	0.4859	0.6083	-0.109
Mof_H 	H 	0.4177	0.5096	0.5658	0.034
Mof_C 	C 	0.4445	0.4662	0.6693	0.01
Mof_H 	H 	0.4857	0.4751	0.6667	-0.008
Mof_C 	C 	0.4212	0.4338	0.7317	-0.108
Mof_C 	C 	0.4613	0.4132	0.8005	0.425
Mof_Ce	Ce	0.67562	0.14141	0.86543	1.883
Mof_N 	N 	0.6357	0.0823	0.738	-0.19
Mof_O 	O 	0.779	0.0687	0.6428	-0.518
Mof_O 	O 	0.7509	0.1112	0.7593	-0.563
Mof_O 	O 	0.4839	0.0774	0.7971	-0.592
Mof_O 	O 	0.5653	0.1151	0.857	-0.574
Mof_C 	C 	0.74	0.0821	0.6942	0.395
Mof_C 	C 	0.6742	0.0646	0.6802	-0.096
Mof_C 	C 	0.6562	0.0314	0.6143	0.01
Mof_H 	H 	0.684	0.0208	0.5748	0.004
Mof_C 	C 	0.5959	0.0141	0.6083	-0.111
Mof_H 	H 	0.5823	0.9904	0.5658	0.035
Mof_C 	C 	0.5555	0.0338	0.6693	0.011
Mof_H 	H 	0.5143	0.0249	0.6667	-0.009
Mof_C 	C 	0.5788	0.0662	0.7317	-0.109
Mof_C 	C 	0.5387	0.0868	0.8005	0.425
Mof_Ce	Ce	0.17562	0.64141	0.36543	1.884
Mof_N 	N 	0.1357	0.5823	0.238	-0.19
Mof_O 	O 	0.279	0.5687	0.1428	-0.518
Mof_O 	O 	0.2509	0.6112	0.2593	-0.563
Mof_O 	O 	0.9839	0.5774	0.2971	-0.592
Mof_O 	O 	0.0653	0.6151	0.357	-0.574
Mof_C 	C 	0.24	0.5821	0.1942	0.395
Mof_C 	C 	0.1742	0.5646	0.1802	-0.096
Mof_C 	C 	0.1562	0.5314	0.1143	0.009
Mof_H 	H 	0.184	0.5208	0.0748	0.004
Mof_C 	C 	0.0959	0.5141	0.1083	-0.109
Mof_H 	H 	0.0823	0.4904	0.0658	0.034
Mof_C 	C 	0.0555	0.5338	0.1693	0.01
Mof_H 	H 	0.0143	0.5249	0.1667	-0.008
Mof_C 	C 	0.0788	0.5662	0.2317	-0.108
Mof_C 	C 	0.0387	0.5868	0.3005	0.424
Mof_Ce	Ce	0.89141	0.07438	0.61543	1.881
Mof_N 	N 	0.8323	0.1143	0.488	-0.19
Mof_O 	O 	0.8187	0.971	0.3928	-0.517
Mof_O 	O 	0.8612	0.9991	0.5093	-0.562
Mof_O 	O 	0.8274	0.2661	0.5471	-0.592
Mof_O 	O 	0.8651	0.1847	0.607	-0.574
Mof_C 	C 	0.8321	0.01	0.4442	0.393
Mof_C 	C 	0.8146	0.0758	0.4302	-0.095
Mof_C 	C 	0.7814	0.0938	0.3643	0.008
Mof_H 	H 	0.7708	0.066	0.3248	0.004
Mof_C 	C 	0.7641	0.1541	0.3583	-0.109
Mof_H 	H 	0.7404	0.1677	0.3158	0.034
Mof_C 	C 	0.7838	0.1945	0.4193	0.01
Mof_H 	H 	0.7749	0.2357	0.4167	-0.008
Mof_C 	C 	0.8162	0.1712	0.4817	-0.108
Mof_C 	C 	0.8368	0.2113	0.5505	0.425
Mof_Ce	Ce	0.39141	0.57438	0.11543	1.884
Mof_N 	N 	0.3323	0.6143	0.988	-0.19
Mof_O 	O 	0.3187	0.471	0.8928	-0.518
Mof_O 	O 	0.3612	0.4991	0.0093	-0.563
Mof_O 	O 	0.3274	0.7661	0.0471	-0.592
Mof_O 	O 	0.3651	0.6847	0.107	-0.574
Mof_C 	C 	0.3321	0.51	0.9442	0.394
Mof_C 	C 	0.3146	0.5758	0.9302	-0.096
Mof_C 	C 	0.2814	0.5938	0.8643	0.008
Mof_H 	H 	0.2708	0.566	0.8248	0.004
Mof_C 	C 	0.2641	0.6541	0.8583	-0.109
Mof_H 	H 	0.2404	0.6677	0.8158	0.034
Mof_C 	C 	0.2838	0.6945	0.9193	0.01
Mof_H 	H 	0.2749	0.7357	0.9167	-0.008
Mof_C 	C 	0.3162	0.6712	0.9817	-0.107
Mof_C 	C 	0.3368	0.7113	0.0505	0.424
Mof_Ce	Ce	0.60859	0.92562	0.11543	1.88
Mof_N 	N 	0.6677	0.8857	0.988	-0.19
Mof_O 	O 	0.6813	0.029	0.8928	-0.521
Mof_O 	O 	0.6388	0.0009	0.0093	-0.563
Mof_O 	O 	0.6726	0.7339	0.0471	-0.592
Mof_O 	O 	0.6349	0.8153	0.107	-0.574
Mof_C 	C 	0.6679	0.99	0.9442	0.398
Mof_C 	C 	0.6854	0.9242	0.9302	-0.096
Mof_C 	C 	0.7186	0.9062	0.8643	0.009
Mof_H 	H 	0.7292	0.934	0.8248	0.005
Mof_C 	C 	0.7359	0.8459	0.8583	-0.109
Mof_H 	H 	0.7596	0.8323	0.8158	0.034
Mof_C 	C 	0.7162	0.8055	0.9193	0.01
Mof_H 	H 	0.7251	0.7643	0.9167	-0.008
Mof_C 	C 	0.6838	0.8288	0.9817	-0.106
Mof_C 	C 	0.6632	0.7887	0.0505	0.423
Mof_Ce	Ce	0.10859	0.42562	0.61543	1.884
Mof_N 	N 	0.1677	0.3857	0.488	-0.19
Mof_O 	O 	0.1813	0.529	0.3928	-0.518
Mof_O 	O 	0.1388	0.5009	0.5093	-0.563
Mof_O 	O 	0.1726	0.2339	0.5471	-0.592
Mof_O 	O 	0.1349	0.3153	0.607	-0.574
Mof_C 	C 	0.1679	0.49	0.4442	0.395
Mof_C 	C 	0.1854	0.4242	0.4302	-0.096
Mof_C 	C 	0.2186	0.4062	0.3643	0.009
Mof_H 	H 	0.2292	0.434	0.3248	0.004
Mof_C 	C 	0.2359	0.3459	0.3583	-0.109
Mof_H 	H 	0.2596	0.3323	0.3158	0.034
Mof_C 	C 	0.2162	0.3055	0.4193	0.01
Mof_H 	H 	0.2251	0.2643	0.4167	-0.008
Mof_C 	C 	0.1838	0.3288	0.4817	-0.108
Mof_C 	C 	0.1632	0.2887	0.5505	0.425
Mof_Ce	Ce	0.17562	0.14141	0.63457	1.884
Mof_N 	N 	0.1357	0.0823	0.762	-0.19
Mof_O 	O 	0.279	0.0687	0.8572	-0.518
Mof_O 	O 	0.2509	0.1112	0.7407	-0.563
Mof_O 	O 	0.9839	0.0774	0.7029	-0.593
Mof_O 	O 	0.0653	0.1151	0.643	-0.574
Mof_C 	C 	0.24	0.0821	0.8058	0.395
Mof_C 	C 	0.1742	0.0646	0.8198	-0.097
Mof_C 	C 	0.1562	0.0314	0.8857	0.011
Mof_H 	H 	0.184	0.0208	0.9252	0.003
Mof_C 	C 	0.0959	0.0141	0.8917	-0.113
Mof_H 	H 	0.0823	0.9904	0.9342	0.036
Mof_C 	C 	0.0555	0.0338	0.8307	0.013
Mof_H 	H 	0.0143	0.0249	0.8333	-0.009
Mof_C 	C 	0.0788	0.0662	0.7683	-0.109
Mof_C 	C 	0.0387	0.0868	0.6995	0.426
Mof_Ce	Ce	0.67562	0.64141	0.13457	1.883
Mof_N 	N 	0.6357	0.5823	0.262	-0.19
Mof_O 	O 	0.779	0.5687	0.3572	-0.518
Mof_O 	O 	0.7509	0.6112	0.2407	-0.563
Mof_O 	O 	0.4839	0.5774	0.2029	-0.592
Mof_O 	O 	0.5653	0.6151	0.143	-0.574
Mof_C 	C 	0.74	0.5821	0.3058	0.395
Mof_C 	C 	0.6742	0.5646	0.3198	-0.096
Mof_C 	C 	0.6562	0.5314	0.3857	0.009
Mof_H 	H 	0.684	0.5208	0.4252	0.004
Mof_C 	C 	0.5959	0.5141	0.3917	-0.109
Mof_H 	H 	0.5823	0.4904	0.4342	0.034
Mof_C 	C 	0.5555	0.5338	0.3307	0.01
Mof_H 	H 	0.5143	0.5249	0.3333	-0.008
Mof_C 	C 	0.5788	0.5662	0.2683	-0.108
Mof_C 	C 	0.5387	0.5868	0.1995	0.425
Mof_Ce	Ce	0.32438	0.85859	0.13457	1.883
Mof_N 	N 	0.3643	0.9177	0.262	-0.19
Mof_O 	O 	0.221	0.9313	0.3572	-0.518
Mof_O 	O 	0.2491	0.8888	0.2407	-0.563
Mof_O 	O 	0.5161	0.9226	0.2029	-0.592
Mof_O 	O 	0.4347	0.8849	0.143	-0.574
Mof_C 	C 	0.26	0.9179	0.3058	0.395
Mof_C 	C 	0.3258	0.9354	0.3198	-0.096
Mof_C 	C 	0.3438	0.9686	0.3857	0.01
Mof_H 	H 	0.316	0.9792	0.4252	0.004
Mof_C 	C 	0.4041	0.9859	0.3917	-0.111
Mof_H 	H 	0.4177	0.0096	0.4342	0.035
Mof_C 	C 	0.4445	0.9662	0.3307	0.011
Mof_H 	H 	0.4857	0.9751	0.3333	-0.009
Mof_C 	C 	0.4212	0.9338	0.2683	-0.109
Mof_C 	C 	0.4613	0.9132	0.1995	0.425
Mof_Ce	Ce	0.82438	0.35859	0.63457	1.884
Mof_N 	N 	0.8643	0.4177	0.762	-0.19
Mof_O 	O 	0.721	0.4313	0.8572	-0.518
Mof_O 	O 	0.7491	0.3888	0.7407	-0.563
Mof_O 	O 	0.0161	0.4226	0.7029	-0.592
Mof_O 	O 	0.9347	0.3849	0.643	-0.574
Mof_C 	C 	0.76	0.4179	0.8058	0.395
Mof_C 	C 	0.8258	0.4354	0.8198	-0.096
Mof_C 	C 	0.8438	0.4686	0.8857	0.009
Mof_H 	H 	0.816	0.4792	0.9252	0.004
Mof_C 	C 	0.9041	0.4859	0.8917	-0.109
Mof_H 	H 	0.9177	0.5096	0.9342	0.034
Mof_C 	C 	0.9445	0.4662	0.8307	0.01
Mof_H 	H 	0.9857	0.4751	0.8333	-0.008
Mof_C 	C 	0.9212	0.4338	0.7683	-0.108
Mof_C 	C 	0.9613	0.4132	0.6995	0.424
Mof_Ce	Ce	0.10859	0.92562	0.38457	1.881
Mof_N 	N 	0.1677	0.8857	0.512	-0.19
Mof_O 	O 	0.1813	0.029	0.6072	-0.517
Mof_O 	O 	0.1388	0.0009	0.4907	-0.562
Mof_O 	O 	0.1726	0.7339	0.4529	-0.592
Mof_O 	O 	0.1349	0.8153	0.393	-0.574
Mof_C 	C 	0.1679	0.99	0.5558	0.393
Mof_C 	C 	0.1854	0.9242	0.5698	-0.095
Mof_C 	C 	0.2186	0.9062	0.6357	0.008
Mof_H 	H 	0.2292	0.934	0.6752	0.004
Mof_C 	C 	0.2359	0.8459	0.6417	-0.109
Mof_H 	H 	0.2596	0.8323	0.6842	0.034
Mof_C 	C 	0.2162	0.8055	0.5807	0.01
Mof_H 	H 	0.2251	0.7643	0.5833	-0.008
Mof_C 	C 	0.1838	0.8288	0.5183	-0.108
Mof_C 	C 	0.1632	0.7887	0.4495	0.425
Mof_Ce	Ce	0.60859	0.42562	0.88457	1.884
Mof_N 	N 	0.6677	0.3857	0.012	-0.19
Mof_O 	O 	0.6813	0.529	0.1072	-0.518
Mof_O 	O 	0.6388	0.5009	0.9907	-0.563
Mof_O 	O 	0.6726	0.2339	0.9529	-0.592
Mof_O 	O 	0.6349	0.3153	0.893	-0.574
Mof_C 	C 	0.6679	0.49	0.0558	0.394
Mof_C 	C 	0.6854	0.4242	0.0698	-0.096
Mof_C 	C 	0.7186	0.4062	0.1357	0.008
Mof_H 	H 	0.7292	0.434	0.1752	0.004
Mof_C 	C 	0.7359	0.3459	0.1417	-0.109
Mof_H 	H 	0.7596	0.3323	0.1842	0.034
Mof_C 	C 	0.7162	0.3055	0.0807	0.01
Mof_H 	H 	0.7251	0.2643	0.0833	-0.008
Mof_C 	C 	0.6838	0.3288	0.0183	-0.107
Mof_C 	C 	0.6632	0.2887	0.9495	0.424
Mof_Ce	Ce	0.39141	0.07438	0.88457	1.88
Mof_N 	N 	0.3323	0.1143	0.012	-0.19
Mof_O 	O 	0.3187	0.971	0.1072	-0.521
Mof_O 	O 	0.3612	0.9991	0.9907	-0.563
Mof_O 	O 	0.3274	0.2661	0.9529	-0.592
Mof_O 	O 	0.3651	0.1847	0.893	-0.574
Mof_C 	C 	0.3321	0.01	0.0558	0.398
Mof_C 	C 	0.3146	0.0758	0.0698	-0.096
Mof_C 	C 	0.2814	0.0938	0.1357	0.009
Mof_H 	H 	0.2708	0.066	0.1752	0.005
Mof_C 	C 	0.2641	0.1541	0.1417	-0.109
Mof_H 	H 	0.2404	0.1677	0.1842	0.034
Mof_C 	C 	0.2838	0.1945	0.0807	0.01
Mof_H 	H 	0.2749	0.2357	0.0833	-0.008
Mof_C 	C 	0.3162	0.1712	0.0183	-0.106
Mof_C 	C 	0.3368	0.2113	0.9495	0.423
Mof_Ce	Ce	0.89141	0.57438	0.38457	1.884
Mof_N 	N 	0.8323	0.6143	0.512	-0.19
Mof_O 	O 	0.8187	0.471	0.6072	-0.518
Mof_O 	O 	0.8612	0.4991	0.4907	-0.563
Mof_O 	O 	0.8274	0.7661	0.4529	-0.592
Mof_O 	O 	0.8651	0.6847	0.393	-0.574
Mof_C 	C 	0.8321	0.51	0.5558	0.395
Mof_C 	C 	0.8146	0.5758	0.5698	-0.096
Mof_C 	C 	0.7814	0.5938	0.6357	0.009
Mof_H 	H 	0.7708	0.566	0.6752	0.004
Mof_C 	C 	0.7641	0.6541	0.6417	-0.109
Mof_H 	H 	0.7404	0.6677	0.6842	0.034
Mof_C 	C 	0.7838	0.6945	0.5807	0.01
Mof_H 	H 	0.7749	0.7357	0.5833	-0.008
Mof_C 	C 	0.8162	0.6712	0.5183	-0.108
Mof_C 	C 	0.8368	0.7113	0.4495	0.425
_end
