# CIF file generated by openbabel 3.1.0, see https://openbabel.org
data_I
_chemical_name_common 'image0'
_cell_length_a 27.148
_cell_length_b 27.148
_cell_length_c 9.957
_cell_angle_alpha 90
_cell_angle_beta 90
_cell_angle_gamma 120
_space_group_name_H-M_alt 'P 1'
_space_group_name_Hall 'P 1'
loop_
    _symmetry_equiv_pos_as_xyz
    x,y,z
loop_
    _atom_site_label
    _atom_site_type_symbol
    _atom_site_fract_x
    _atom_site_fract_y
    _atom_site_fract_z
    _atom_site_occupancy
    C1       C        0.94928    0.55590    0.72730    1.000
    C2       C        0.92454    0.50656    0.81930    1.000
    H1       H        0.90450    0.47160    0.76820    1.000
    H2       H        0.95450    0.50560    0.87010    1.000
    C3       C        0.87010    0.47292    0.02580    1.000
    H3       H        0.86720    0.43740    0.99690    1.000
    H4       H        0.83360    0.46460    0.06240    1.000
    C4       C        0.91483    0.50008    0.12970    1.000
    Cd1      Cd       0.92990    0.61188    0.99263    1.000
    Cl1      Cl       0.83016    0.57144    0.10575    1.000
    H5       H        0.84610    0.49900    0.86900    1.000
    N1       N        0.95216    0.60445    0.75800    1.000
    N2       N        0.88491    0.51177    0.91130    1.000
    N3       N        0.94913    0.55582    0.13960    1.000
    N4       N        0.98102    0.56379    0.24710    1.000
    N5       N        0.98018    0.63907    0.65460    1.000
    N6       N        0.99349    0.61221    0.56680    1.000
    N7       N        0.97437    0.55917    0.61030    1.000
    N8       N        0.96634    0.51411    0.29900    1.000
    N9       N        0.92490    0.47314    0.22750    1.000
    C5       C        0.61595    0.88923    0.06063    1.000
    C6       C        0.59121    0.83989    0.15263    1.000
    H6       H        0.57117    0.80493    0.10153    1.000
    H7       H        0.62117    0.83893    0.20343    1.000
    C7       C        0.53677    0.80625    0.35913    1.000
    H8       H        0.53387    0.77073    0.33023    1.000
    H9       H        0.50027    0.79793    0.39573    1.000
    C8       C        0.58150    0.83341    0.46303    1.000
    Cd2      Cd       0.59656    0.94521    0.32596    1.000
    Cl2      Cl       0.49683    0.90477    0.43908    1.000
    H10      H        0.51277    0.83233    0.20233    1.000
    N10      N        0.61883    0.93778    0.09133    1.000
    N11      N        0.55158    0.84510    0.24463    1.000
    N12      N        0.61580    0.88915    0.47293    1.000
    N13      N        0.64769    0.89712    0.58043    1.000
    N14      N        0.64685    0.97240    0.98793    1.000
    N15      N        0.66016    0.94554    0.90013    1.000
    N16      N        0.64104    0.89250    0.94363    1.000
    N17      N        0.63301    0.84744    0.63233    1.000
    N18      N        0.59157    0.80647    0.56083    1.000
    C9       C        0.28261    0.22257    0.39397    1.000
    C10      C        0.25787    0.17323    0.48597    1.000
    H11      H        0.23783    0.13827    0.43487    1.000
    H12      H        0.28783    0.17227    0.53677    1.000
    C11      C        0.20343    0.13959    0.69247    1.000
    H13      H        0.20053    0.10407    0.66357    1.000
    H14      H        0.16693    0.13127    0.72907    1.000
    C12      C        0.24816    0.16675    0.79637    1.000
    Cd3      Cd       0.26323    0.27855    0.65930    1.000
    Cl3      Cl       0.16349    0.23811    0.77242    1.000
    H15      H        0.17943    0.16567    0.53567    1.000
    N19      N        0.28549    0.27112    0.42467    1.000
    N20      N        0.21824    0.17844    0.57797    1.000
    N21      N        0.28246    0.22249    0.80627    1.000
    N22      N        0.31435    0.23046    0.91377    1.000
    N23      N        0.31351    0.30574    0.32127    1.000
    N24      N        0.32682    0.27888    0.23347    1.000
    N25      N        0.30770    0.22584    0.27697    1.000
    N26      N        0.29967    0.18078    0.96567    1.000
    N27      N        0.25823    0.13981    0.89417    1.000
    C13      C        0.44410    0.39338    0.72730    1.000
    C14      C        0.49344    0.41798    0.81930    1.000
    H16      H        0.52840    0.43290    0.76820    1.000
    H17      H        0.49440    0.44890    0.87010    1.000
    C15      C        0.52708    0.39718    0.02580    1.000
    H18      H        0.56260    0.42980    0.99690    1.000
    H19      H        0.53540    0.36900    0.06240    1.000
    C16      C        0.49992    0.41475    0.12970    1.000
    Cd4      Cd       0.38812    0.31802    0.99263    1.000
    Cl4      Cl       0.42856    0.25872    0.10575    1.000
    H20      H        0.50100    0.34710    0.86900    1.000
    N28      N        0.39555    0.34771    0.75800    1.000
    N29      N        0.48823    0.37314    0.91130    1.000
    N30      N        0.44418    0.39331    0.13960    1.000
    N31      N        0.43621    0.41723    0.24710    1.000
    N32      N        0.36093    0.34111    0.65460    1.000
    N33      N        0.38779    0.38128    0.56680    1.000
    N34      N        0.44083    0.41520    0.61030    1.000
    N35      N        0.48589    0.45223    0.29900    1.000
    N36      N        0.52686    0.45176    0.22750    1.000
    C17      C        0.11077    0.72671    0.06063    1.000
    C18      C        0.16011    0.75131    0.15263    1.000
    H21      H        0.19507    0.76623    0.10153    1.000
    H22      H        0.16107    0.78223    0.20343    1.000
    C19      C        0.19375    0.73051    0.35913    1.000
    H23      H        0.22927    0.76313    0.33023    1.000
    H24      H        0.20207    0.70233    0.39573    1.000
    C20      C        0.16659    0.74808    0.46303    1.000
    Cd5      Cd       0.05479    0.65135    0.32596    1.000
    Cl5      Cl       0.09523    0.59205    0.43908    1.000
    H25      H        0.16767    0.68043    0.20233    1.000
    N37      N        0.06222    0.68104    0.09133    1.000
    N38      N        0.15490    0.70647    0.24463    1.000
    N39      N        0.11085    0.72664    0.47293    1.000
    N40      N        0.10288    0.75056    0.58043    1.000
    N41      N        0.02760    0.67444    0.98793    1.000
    N42      N        0.05446    0.71461    0.90013    1.000
    N43      N        0.10750    0.74853    0.94363    1.000
    N44      N        0.15256    0.78556    0.63233    1.000
    N45      N        0.19353    0.78509    0.56083    1.000
    C21      C        0.77743    0.06005    0.39397    1.000
    C22      C        0.82677    0.08465    0.48597    1.000
    H26      H        0.86173    0.09957    0.43487    1.000
    H27      H        0.82773    0.11557    0.53677    1.000
    C23      C        0.86041    0.06385    0.69247    1.000
    H28      H        0.89593    0.09647    0.66357    1.000
    H29      H        0.86873    0.03567    0.72907    1.000
    C24      C        0.83325    0.08142    0.79637    1.000
    Cd6      Cd       0.72145    0.98468    0.65930    1.000
    Cl6      Cl       0.76189    0.92539    0.77242    1.000
    H30      H        0.83433    0.01377    0.53567    1.000
    N46      N        0.72888    0.01438    0.42467    1.000
    N47      N        0.82156    0.03981    0.57797    1.000
    N48      N        0.77751    0.05998    0.80627    1.000
    N49      N        0.76954    0.08390    0.91377    1.000
    N50      N        0.69426    0.00778    0.32127    1.000
    N51      N        0.72112    0.04795    0.23347    1.000
    N52      N        0.77416    0.08187    0.27697    1.000
    N53      N        0.81922    0.11890    0.96567    1.000
    N54      N        0.86019    0.11843    0.89417    1.000
    C25      C        0.60662    0.05072    0.72730    1.000
    C26      C        0.58202    0.07546    0.81930    1.000
    H31      H        0.56710    0.09550    0.76820    1.000
    H32      H        0.55110    0.04550    0.87010    1.000
    C27      C        0.60282    0.12990    0.02580    1.000
    H33      H        0.57020    0.13280    0.99690    1.000
    H34      H        0.63100    0.16640    0.06240    1.000
    C28      C        0.58525    0.08517    0.12970    1.000
    Cd7      Cd       0.68199    0.07010    0.99263    1.000
    Cl7      Cl       0.74128    0.16984    0.10575    1.000
    H35      H        0.65290    0.15390    0.86900    1.000
    N55      N        0.65229    0.04784    0.75800    1.000
    N56      N        0.62686    0.11509    0.91130    1.000
    N57      N        0.60669    0.05087    0.13960    1.000
    N58      N        0.58277    0.01898    0.24710    1.000
    N59      N        0.65889    0.01982    0.65460    1.000
    N60      N        0.61872    0.00651    0.56680    1.000
    N61      N        0.58480    0.02563    0.61030    1.000
    N62      N        0.54777    0.03366    0.29900    1.000
    N63      N        0.54824    0.07510    0.22750    1.000
    C29      C        0.27329    0.38405    0.06063    1.000
    C30      C        0.24869    0.40879    0.15263    1.000
    H36      H        0.23377    0.42883    0.10153    1.000
    H37      H        0.21777    0.37883    0.20343    1.000
    C31      C        0.26949    0.46323    0.35913    1.000
    H38      H        0.23687    0.46613    0.33023    1.000
    H39      H        0.29767    0.49973    0.39573    1.000
    C32      C        0.25192    0.41850    0.46303    1.000
    Cd8      Cd       0.34865    0.40344    0.32596    1.000
    Cl8      Cl       0.40795    0.50317    0.43908    1.000
    H40      H        0.31957    0.48723    0.20233    1.000
    N64      N        0.31896    0.38117    0.09133    1.000
    N65      N        0.29353    0.44842    0.24463    1.000
    N66      N        0.27336    0.38420    0.47293    1.000
    N67      N        0.24944    0.35231    0.58043    1.000
    N68      N        0.32556    0.35315    0.98793    1.000
    N69      N        0.28539    0.33984    0.90013    1.000
    N70      N        0.25147    0.35896    0.94363    1.000
    N71      N        0.21444    0.36699    0.63233    1.000
    N72      N        0.21491    0.40843    0.56083    1.000
    C33      C        0.93995    0.71739    0.39397    1.000
    C34      C        0.91535    0.74213    0.48597    1.000
    H41      H        0.90043    0.76217    0.43487    1.000
    H42      H        0.88443    0.71217    0.53677    1.000
    C35      C        0.93615    0.79657    0.69247    1.000
    H43      H        0.90353    0.79947    0.66357    1.000
    H44      H        0.96433    0.83307    0.72907    1.000
    C36      C        0.91858    0.75184    0.79637    1.000
    Cd9      Cd       0.01532    0.73677    0.65930    1.000
    Cl9      Cl       0.07461    0.83651    0.77242    1.000
    H45      H        0.98623    0.82057    0.53567    1.000
    N73      N        0.98562    0.71451    0.42467    1.000
    N74      N        0.96019    0.78176    0.57797    1.000
    N75      N        0.94002    0.71754    0.80627    1.000
    N76      N        0.91610    0.68565    0.91377    1.000
    N77      N        0.99222    0.68649    0.32127    1.000
    N78      N        0.95205    0.67318    0.23347    1.000
    N79      N        0.91813    0.69230    0.27697    1.000
    N80      N        0.88110    0.70033    0.96567    1.000
    N81      N        0.88157    0.74177    0.89417    1.000
    C37      C        0.05072    0.44410    0.27270    1.000
    C38      C        0.07546    0.49344    0.18070    1.000
    H46      H        0.09550    0.52840    0.23180    1.000
    H47      H        0.04550    0.49440    0.12990    1.000
    C39      C        0.12990    0.52708    0.97420    1.000
    H48      H        0.13280    0.56260    0.00310    1.000
    H49      H        0.16640    0.53540    0.93760    1.000
    C40      C        0.08517    0.49992    0.87030    1.000
    Cd10     Cd       0.07010    0.38812    0.00737    1.000
    Cl10     Cl       0.16984    0.42856    0.89425    1.000
    H50      H        0.15390    0.50100    0.13100    1.000
    N82      N        0.04784    0.39555    0.24200    1.000
    N83      N        0.11509    0.48823    0.08870    1.000
    N84      N        0.05087    0.44418    0.86040    1.000
    N85      N        0.01898    0.43621    0.75290    1.000
    N86      N        0.01982    0.36093    0.34540    1.000
    N87      N        0.00651    0.38779    0.43320    1.000
    N88      N        0.02563    0.44083    0.38970    1.000
    N89      N        0.03366    0.48589    0.70100    1.000
    N90      N        0.07510    0.52686    0.77250    1.000
    C41      C        0.71739    0.77743    0.60603    1.000
    C42      C        0.74213    0.82677    0.51403    1.000
    H51      H        0.76217    0.86173    0.56513    1.000
    H52      H        0.71217    0.82773    0.46323    1.000
    C43      C        0.79657    0.86041    0.30753    1.000
    H53      H        0.79947    0.89593    0.33643    1.000
    H54      H        0.83307    0.86873    0.27093    1.000
    C44      C        0.75184    0.83325    0.20363    1.000
    Cd11     Cd       0.73677    0.72145    0.34070    1.000
    Cl11     Cl       0.83651    0.76189    0.22758    1.000
    H55      H        0.82057    0.83433    0.46433    1.000
    N91      N        0.71451    0.72888    0.57533    1.000
    N92      N        0.78176    0.82156    0.42203    1.000
    N93      N        0.71754    0.77751    0.19373    1.000
    N94      N        0.68565    0.76954    0.08623    1.000
    N95      N        0.68649    0.69426    0.67873    1.000
    N96      N        0.67318    0.72112    0.76653    1.000
    N97      N        0.69230    0.77416    0.72303    1.000
    N98      N        0.70033    0.81922    0.03433    1.000
    N99      N        0.74177    0.86019    0.10583    1.000
    C45      C        0.38405    0.11077    0.93937    1.000
    C46      C        0.40879    0.16011    0.84737    1.000
    H56      H        0.42883    0.19507    0.89847    1.000
    H57      H        0.37883    0.16107    0.79657    1.000
    C47      C        0.46323    0.19375    0.64087    1.000
    H58      H        0.46613    0.22927    0.66977    1.000
    H59      H        0.49973    0.20207    0.60427    1.000
    C48      C        0.41850    0.16659    0.53697    1.000
    Cd12     Cd       0.40344    0.05479    0.67404    1.000
    Cl12     Cl       0.50317    0.09523    0.56092    1.000
    H60      H        0.48723    0.16767    0.79767    1.000
    N100     N        0.38117    0.06222    0.90867    1.000
    N101     N        0.44842    0.15490    0.75537    1.000
    N102     N        0.38420    0.11085    0.52707    1.000
    N103     N        0.35231    0.10288    0.41957    1.000
    N104     N        0.35315    0.02760    0.01207    1.000
    N105     N        0.33984    0.05446    0.09987    1.000
    N106     N        0.35896    0.10750    0.05637    1.000
    N107     N        0.36699    0.15256    0.36767    1.000
    N108     N        0.40843    0.19353    0.43917    1.000
    C49      C        0.55590    0.60662    0.27270    1.000
    C50      C        0.50656    0.58202    0.18070    1.000
    H61      H        0.47160    0.56710    0.23180    1.000
    H62      H        0.50560    0.55110    0.12990    1.000
    C51      C        0.47292    0.60282    0.97420    1.000
    H63      H        0.43740    0.57020    0.00310    1.000
    H64      H        0.46460    0.63100    0.93760    1.000
    C52      C        0.50008    0.58525    0.87030    1.000
    Cd13     Cd       0.61188    0.68199    0.00737    1.000
    Cl13     Cl       0.57144    0.74128    0.89425    1.000
    H65      H        0.49900    0.65290    0.13100    1.000
    N109     N        0.60445    0.65229    0.24200    1.000
    N110     N        0.51177    0.62686    0.08870    1.000
    N111     N        0.55582    0.60669    0.86040    1.000
    N112     N        0.56379    0.58277    0.75290    1.000
    N113     N        0.63907    0.65889    0.34540    1.000
    N114     N        0.61221    0.61872    0.43320    1.000
    N115     N        0.55917    0.58480    0.38970    1.000
    N116     N        0.51411    0.54777    0.70100    1.000
    N117     N        0.47314    0.54824    0.77250    1.000
    C53      C        0.22257    0.93995    0.60603    1.000
    C54      C        0.17323    0.91535    0.51403    1.000
    H66      H        0.13827    0.90043    0.56513    1.000
    H67      H        0.17227    0.88443    0.46323    1.000
    C55      C        0.13959    0.93615    0.30753    1.000
    H68      H        0.10407    0.90353    0.33643    1.000
    H69      H        0.13127    0.96433    0.27093    1.000
    C56      C        0.16675    0.91858    0.20363    1.000
    Cd14     Cd       0.27855    0.01532    0.34070    1.000
    Cl14     Cl       0.23811    0.07461    0.22758    1.000
    H70      H        0.16567    0.98623    0.46433    1.000
    N118     N        0.27112    0.98562    0.57533    1.000
    N119     N        0.17844    0.96019    0.42203    1.000
    N120     N        0.22249    0.94002    0.19373    1.000
    N121     N        0.23046    0.91610    0.08623    1.000
    N122     N        0.30574    0.99222    0.67873    1.000
    N123     N        0.27888    0.95205    0.76653    1.000
    N124     N        0.22584    0.91813    0.72303    1.000
    N125     N        0.18078    0.88110    0.03433    1.000
    N126     N        0.13981    0.88157    0.10583    1.000
    C57      C        0.88923    0.27329    0.93937    1.000
    C58      C        0.83989    0.24869    0.84737    1.000
    H71      H        0.80493    0.23377    0.89847    1.000
    H72      H        0.83893    0.21777    0.79657    1.000
    C59      C        0.80625    0.26949    0.64087    1.000
    H73      H        0.77073    0.23687    0.66977    1.000
    H74      H        0.79793    0.29767    0.60427    1.000
    C60      C        0.83341    0.25192    0.53697    1.000
    Cd15     Cd       0.94521    0.34865    0.67404    1.000
    Cl15     Cl       0.90477    0.40795    0.56092    1.000
    H75      H        0.83233    0.31957    0.79767    1.000
    N127     N        0.93778    0.31896    0.90867    1.000
    N128     N        0.84510    0.29353    0.75537    1.000
    N129     N        0.88915    0.27336    0.52707    1.000
    N130     N        0.89712    0.24944    0.41957    1.000
    N131     N        0.97240    0.32556    0.01207    1.000
    N132     N        0.94554    0.28539    0.09987    1.000
    N133     N        0.89250    0.25147    0.05637    1.000
    N134     N        0.84744    0.21444    0.36767    1.000
    N135     N        0.80647    0.21491    0.43917    1.000
    C61      C        0.39338    0.94928    0.27270    1.000
    C62      C        0.41798    0.92454    0.18070    1.000
    H76      H        0.43290    0.90450    0.23180    1.000
    H77      H        0.44890    0.95450    0.12990    1.000
    C63      C        0.39718    0.87010    0.97420    1.000
    H78      H        0.42980    0.86720    0.00310    1.000
    H79      H        0.36900    0.83360    0.93760    1.000
    C64      C        0.41475    0.91483    0.87030    1.000
    Cd16     Cd       0.31802    0.92990    0.00737    1.000
    Cl16     Cl       0.25872    0.83016    0.89425    1.000
    H80      H        0.34710    0.84610    0.13100    1.000
    N136     N        0.34771    0.95216    0.24200    1.000
    N137     N        0.37314    0.88491    0.08870    1.000
    N138     N        0.39331    0.94913    0.86040    1.000
    N139     N        0.41723    0.98102    0.75290    1.000
    N140     N        0.34111    0.98018    0.34540    1.000
    N141     N        0.38128    0.99349    0.43320    1.000
    N142     N        0.41520    0.97437    0.38970    1.000
    N143     N        0.45223    0.96634    0.70100    1.000
    N144     N        0.45176    0.92490    0.77250    1.000
    C65      C        0.06005    0.28261    0.60603    1.000
    C66      C        0.08465    0.25787    0.51403    1.000
    H81      H        0.09957    0.23783    0.56513    1.000
    H82      H        0.11557    0.28783    0.46323    1.000
    C67      C        0.06385    0.20343    0.30753    1.000
    H83      H        0.09647    0.20053    0.33643    1.000
    H84      H        0.03567    0.16693    0.27093    1.000
    C68      C        0.08142    0.24816    0.20363    1.000
    Cd17     Cd       0.98468    0.26323    0.34070    1.000
    Cl17     Cl       0.92539    0.16349    0.22758    1.000
    H85      H        0.01377    0.17943    0.46433    1.000
    N145     N        0.01438    0.28549    0.57533    1.000
    N146     N        0.03981    0.21824    0.42203    1.000
    N147     N        0.05998    0.28246    0.19373    1.000
    N148     N        0.08390    0.31435    0.08623    1.000
    N149     N        0.00778    0.31351    0.67873    1.000
    N150     N        0.04795    0.32682    0.76653    1.000
    N151     N        0.08187    0.30770    0.72303    1.000
    N152     N        0.11890    0.29967    0.03433    1.000
    N153     N        0.11843    0.25823    0.10583    1.000
    C69      C        0.72671    0.61595    0.93937    1.000
    C70      C        0.75131    0.59121    0.84737    1.000
    H86      H        0.76623    0.57117    0.89847    1.000
    H87      H        0.78223    0.62117    0.79657    1.000
    C71      C        0.73051    0.53677    0.64087    1.000
    H88      H        0.76313    0.53387    0.66977    1.000
    H89      H        0.70233    0.50027    0.60427    1.000
    C72      C        0.74808    0.58150    0.53697    1.000
    Cd18     Cd       0.65135    0.59656    0.67404    1.000
    Cl18     Cl       0.59205    0.49683    0.56092    1.000
    H90      H        0.68043    0.51277    0.79767    1.000
    N154     N        0.68104    0.61883    0.90867    1.000
    N155     N        0.70647    0.55158    0.75537    1.000
    N156     N        0.72664    0.61580    0.52707    1.000
    N157     N        0.75056    0.64769    0.41957    1.000
    N158     N        0.67444    0.64685    0.01207    1.000
    N159     N        0.71461    0.66016    0.09987    1.000
    N160     N        0.74853    0.64104    0.05637    1.000
    N161     N        0.78556    0.63301    0.36767    1.000
    N162     N        0.78509    0.59157    0.43917    1.000
    Cd19     Cd       0.83333    0.66667    0.16667    1.000
    Cd20     Cd       0.50000    0.00000    0.50000    1.000
    Cd21     Cd       0.33333    0.16667    0.16667    1.000
    Cd22     Cd       0.00000    0.50000    0.50000    1.000
    Cd23     Cd       0.83333    0.16667    0.16667    1.000
    Cd24     Cd       0.50000    0.50000    0.50000    1.000
    Cd25     Cd       0.16667    0.33333    0.83333    1.000
    Cd26     Cd       0.66667    0.83333    0.83333    1.000
    Cd27     Cd       0.16667    0.83333    0.83333    1.000
