data_functionalizedCrystal
_audit_creation_method	'EQeq! by Chris Wilmer'
_symmetry_space_group_name_H-M	'P1'
_symmetry_Int_Tables_number	1
_symmetry_cell_setting	triclinic
loop_
_symmetry_equiv_pos_as_xyz
  x,y,z
_cell_length_a	12.3274
_cell_length_b	24.7472
_cell_length_c	30.5413
_cell_angle_alpha	90
_cell_angle_beta	90
_cell_angle_gamma	98.232
loop_
_atom_site_label
_atom_site_type_symbol
_atom_site_fract_x
_atom_site_fract_y
_atom_site_fract_z
_atom_site_charge
Mof_Zn	Zn	0.42413	0.79867	0.73426	1.214
Mof_Zn	Zn	0.6276	0.75161	0.72561	1.214
Mof_Zn	Zn	0.21708	0.93788	0.85266	1.213
Mof_Zn	Zn	0.69285	0.91863	0.13037	1.202
Mof_Zn	Zn	0.07587	0.70133	0.23426	1.213
Mof_Zn	Zn	0.8724	0.74839	0.22561	1.213
Mof_Zn	Zn	0.28292	0.56212	0.35266	1.212
Mof_Zn	Zn	0.80715	0.58137	0.63037	1.201
Mof_Zn	Zn	0.57587	0.20133	0.26574	1.213
Mof_Zn	Zn	0.3724	0.24839	0.27439	1.213
Mof_Zn	Zn	0.78292	0.06212	0.14734	1.212
Mof_Zn	Zn	0.30715	0.08137	0.86963	1.201
Mof_Zn	Zn	0.92413	0.29867	0.76574	1.213
Mof_Zn	Zn	0.1276	0.25161	0.77439	1.213
Mof_Zn	Zn	0.71708	0.43788	0.64734	1.212
Mof_Zn	Zn	0.19285	0.41863	0.36963	1.201
Mof_H 	H 	0.2901	0.8383	0.8077	0.042
Mof_H 	H 	0.3677	0.8902	0.7882	0.037
Mof_H 	H 	0.1763	0.7875	0.7068	0.038
Mof_H 	H 	0.1735	0.7764	0.7585	0.039
Mof_H 	H 	0.3704	0.9086	0.7094	0.041
Mof_H 	H 	0.2954	0.8684	0.677	0.041
Mof_H 	H 	0.0927	0.8357	0.8068	0.031
Mof_H 	H 	0.0399	0.8865	0.788	0.028
Mof_H 	H 	0.1579	0.9653	0.7577	0.036
Mof_H 	H 	0.2881	0.9666	0.7578	0.027
Mof_H 	H 	0.1044	0.8657	0.6777	0.04
Mof_H 	H 	0.0483	0.9051	0.7094	0.037
Mof_H 	H 	0.6727	0.6466	0.6902	0.039
Mof_H 	H 	0.7418	0.6905	0.6587	0.041
Mof_H 	H 	0.7795	0.7057	0.7893	0.039
Mof_H 	H 	0.6951	0.6563	0.77	0.039
Mof_H 	H 	0.8689	0.7649	0.6892	0.037
Mof_H 	H 	0.8834	0.771	0.7412	0.037
Mof_H 	H 	0.7605	0.5821	0.7321	0.032
Mof_H 	H 	0.8901	0.5812	0.7275	0.041
Mof_H 	H 	0.999	0.6497	0.6783	0.034
Mof_H 	H 	0.9387	0.6927	0.6518	0.038
Mof_H 	H 	0.0159	0.6567	0.7569	0.039
Mof_H 	H 	0.9705	0.7057	0.7818	0.04
Mof_H 	H 	0.474	0.5835	0.752	0.058
Mof_H 	H 	0.4631	0.4844	0.7664	0.062
Mof_H 	H 	0.3607	0.4	0.774	0.036
Mof_H 	H 	0.0784	0.4644	0.7605	0.055
Mof_H 	H 	0.0916	0.5654	0.747	0.061
Mof_H 	H 	0.1943	0.6493	0.7343	0.039
Mof_H 	H 	0.7205	0.76	0.8607	0.035
Mof_H 	H 	0.764	0.7751	0.9327	0.067
Mof_H 	H 	0.7182	0.811	0.0055	0.066
Mof_H 	H 	0.4411	0.8731	0.0219	0.047
Mof_H 	H 	0.3841	0.8514	0.9503	0.063
Mof_H 	H 	0.4311	0.8156	0.877	0.068
Mof_H 	H 	0.5723	0.6984	0.5918	0.066
Mof_H 	H 	0.5796	0.6383	0.5256	0.062
Mof_H 	H 	0.5166	0.6122	0.457	0.043
Mof_H 	H 	0.2856	0.7113	0.4624	0.063
Mof_H 	H 	0.2735	0.7675	0.5296	0.065
Mof_H 	H 	0.3349	0.7958	0.5984	0.039
Mof_H 	H 	0.9256	0.9499	0.8465	0.045
Mof_H 	H 	0.7364	0.903	0.8435	0.067
Mof_H 	H 	0.5485	0.9051	0.846	0.04
Mof_H 	H 	0.5962	0.0682	0.8643	0.047
Mof_H 	H 	0.789	0.1162	0.871	0.065
Mof_H 	H 	0.9749	0.1135	0.8707	0.041
Mof_H 	H 	0.2099	0.6617	0.3077	0.042
Mof_H 	H 	0.1323	0.6098	0.2882	0.037
Mof_H 	H 	0.3237	0.7125	0.2068	0.038
Mof_H 	H 	0.3265	0.7236	0.2585	0.039
Mof_H 	H 	0.1296	0.5914	0.2094	0.041
Mof_H 	H 	0.2046	0.6316	0.177	0.041
Mof_H 	H 	0.4073	0.6643	0.3068	0.031
Mof_H 	H 	0.4601	0.6135	0.288	0.027
Mof_H 	H 	0.3421	0.5347	0.2577	0.036
Mof_H 	H 	0.2119	0.5334	0.2578	0.027
Mof_H 	H 	0.3956	0.6343	0.1777	0.04
Mof_H 	H 	0.4517	0.5949	0.2094	0.036
Mof_H 	H 	0.8273	0.8534	0.1902	0.04
Mof_H 	H 	0.7582	0.8095	0.1587	0.041
Mof_H 	H 	0.7205	0.7943	0.2893	0.039
Mof_H 	H 	0.8049	0.8437	0.27	0.039
Mof_H 	H 	0.6311	0.7351	0.1892	0.038
Mof_H 	H 	0.6166	0.729	0.2412	0.037
Mof_H 	H 	0.7395	0.9179	0.2321	0.032
Mof_H 	H 	0.6099	0.9188	0.2275	0.041
Mof_H 	H 	0.501	0.8503	0.1783	0.034
Mof_H 	H 	0.5613	0.8073	0.1518	0.038
Mof_H 	H 	0.4841	0.8433	0.2569	0.038
Mof_H 	H 	0.5295	0.7943	0.2818	0.04
Mof_H 	H 	0.026	0.9165	0.252	0.058
Mof_H 	H 	0.0369	0.0156	0.2664	0.062
Mof_H 	H 	0.1393	0.1	0.274	0.036
Mof_H 	H 	0.4216	0.0356	0.2605	0.055
Mof_H 	H 	0.4084	0.9346	0.247	0.061
Mof_H 	H 	0.3057	0.8507	0.2343	0.039
Mof_H 	H 	0.7795	0.74	0.3607	0.036
Mof_H 	H 	0.736	0.7249	0.4327	0.067
Mof_H 	H 	0.7818	0.689	0.5055	0.065
Mof_H 	H 	0.0589	0.6269	0.5219	0.047
Mof_H 	H 	0.1159	0.6486	0.4503	0.064
Mof_H 	H 	0.0689	0.6844	0.377	0.069
Mof_H 	H 	0.9277	0.8016	0.0918	0.065
Mof_H 	H 	0.9204	0.8617	0.0256	0.061
Mof_H 	H 	0.9834	0.8878	0.957	0.043
Mof_H 	H 	0.2144	0.7887	0.9624	0.063
Mof_H 	H 	0.2265	0.7325	0.0296	0.066
Mof_H 	H 	0.1651	0.7042	0.0984	0.039
Mof_H 	H 	0.5744	0.5501	0.3465	0.045
Mof_H 	H 	0.7636	0.597	0.3435	0.067
Mof_H 	H 	0.9515	0.5949	0.346	0.04
Mof_H 	H 	0.9038	0.4318	0.3643	0.047
Mof_H 	H 	0.711	0.3838	0.371	0.065
Mof_H 	H 	0.5251	0.3865	0.3707	0.042
Mof_H 	H 	0.7099	0.1617	0.1923	0.042
Mof_H 	H 	0.6323	0.1098	0.2118	0.037
Mof_H 	H 	0.8237	0.2125	0.2932	0.038
Mof_H 	H 	0.8265	0.2236	0.2415	0.039
Mof_H 	H 	0.6296	0.0914	0.2906	0.041
Mof_H 	H 	0.7046	0.1316	0.323	0.041
Mof_H 	H 	0.9073	0.1643	0.1932	0.031
Mof_H 	H 	0.9601	0.1135	0.212	0.028
Mof_H 	H 	0.8421	0.0347	0.2423	0.036
Mof_H 	H 	0.7119	0.0334	0.2422	0.027
Mof_H 	H 	0.8956	0.1343	0.3223	0.04
Mof_H 	H 	0.9517	0.0949	0.2906	0.037
Mof_H 	H 	0.3273	0.3534	0.3098	0.039
Mof_H 	H 	0.2582	0.3095	0.3413	0.041
Mof_H 	H 	0.2205	0.2943	0.2107	0.039
Mof_H 	H 	0.3049	0.3437	0.23	0.039
Mof_H 	H 	0.1311	0.2351	0.3108	0.037
Mof_H 	H 	0.1166	0.229	0.2588	0.037
Mof_H 	H 	0.2395	0.4179	0.2679	0.032
Mof_H 	H 	0.1099	0.4188	0.2725	0.041
Mof_H 	H 	0.001	0.3503	0.3217	0.034
Mof_H 	H 	0.0613	0.3073	0.3482	0.038
Mof_H 	H 	0.9841	0.3433	0.2431	0.039
Mof_H 	H 	0.0295	0.2943	0.2182	0.04
Mof_H 	H 	0.526	0.4165	0.248	0.058
Mof_H 	H 	0.5369	0.5156	0.2336	0.062
Mof_H 	H 	0.6393	0.6	0.226	0.036
Mof_H 	H 	0.9216	0.5356	0.2395	0.055
Mof_H 	H 	0.9084	0.4346	0.253	0.061
Mof_H 	H 	0.8057	0.3507	0.2657	0.039
Mof_H 	H 	0.2795	0.24	0.1393	0.035
Mof_H 	H 	0.236	0.2249	0.0673	0.067
Mof_H 	H 	0.2818	0.189	0.9945	0.066
Mof_H 	H 	0.5589	0.1269	0.9781	0.047
Mof_H 	H 	0.6159	0.1486	0.0497	0.063
Mof_H 	H 	0.5689	0.1844	0.123	0.068
Mof_H 	H 	0.4277	0.3016	0.4082	0.066
Mof_H 	H 	0.4204	0.3617	0.4744	0.062
Mof_H 	H 	0.4834	0.3878	0.543	0.043
Mof_H 	H 	0.7144	0.2887	0.5376	0.063
Mof_H 	H 	0.7265	0.2325	0.4704	0.065
Mof_H 	H 	0.6651	0.2042	0.4016	0.039
Mof_H 	H 	0.0744	0.0501	0.1535	0.045
Mof_H 	H 	0.2636	0.097	0.1565	0.067
Mof_H 	H 	0.4515	0.0949	0.154	0.04
Mof_H 	H 	0.4038	0.9318	0.1357	0.047
Mof_H 	H 	0.211	0.8838	0.129	0.065
Mof_H 	H 	0.0251	0.8865	0.1293	0.041
Mof_H 	H 	0.7901	0.3383	0.6923	0.042
Mof_H 	H 	0.8677	0.3902	0.7118	0.037
Mof_H 	H 	0.6763	0.2875	0.7932	0.038
Mof_H 	H 	0.6735	0.2764	0.7415	0.039
Mof_H 	H 	0.8704	0.4086	0.7906	0.041
Mof_H 	H 	0.7954	0.3684	0.823	0.041
Mof_H 	H 	0.5927	0.3357	0.6932	0.031
Mof_H 	H 	0.5399	0.3865	0.712	0.027
Mof_H 	H 	0.6579	0.4653	0.7423	0.036
Mof_H 	H 	0.7881	0.4666	0.7422	0.027
Mof_H 	H 	0.6044	0.3657	0.8223	0.04
Mof_H 	H 	0.5483	0.4051	0.7906	0.036
Mof_H 	H 	0.1727	0.1466	0.8098	0.04
Mof_H 	H 	0.2418	0.1905	0.8413	0.041
Mof_H 	H 	0.2795	0.2057	0.7107	0.039
Mof_H 	H 	0.1951	0.1563	0.73	0.039
Mof_H 	H 	0.3689	0.2649	0.8108	0.038
Mof_H 	H 	0.3834	0.271	0.7588	0.037
Mof_H 	H 	0.2605	0.0821	0.7679	0.032
Mof_H 	H 	0.3901	0.0812	0.7725	0.041
Mof_H 	H 	0.499	0.1497	0.8217	0.034
Mof_H 	H 	0.4387	0.1927	0.8482	0.038
Mof_H 	H 	0.5159	0.1567	0.7431	0.038
Mof_H 	H 	0.4705	0.2057	0.7182	0.04
Mof_H 	H 	0.974	0.0835	0.748	0.058
Mof_H 	H 	0.9631	0.9844	0.7336	0.062
Mof_H 	H 	0.8607	0.9	0.726	0.036
Mof_H 	H 	0.5784	0.9644	0.7395	0.055
Mof_H 	H 	0.5916	0.0654	0.753	0.061
Mof_H 	H 	0.6943	0.1493	0.7657	0.039
Mof_H 	H 	0.2205	0.26	0.6393	0.036
Mof_H 	H 	0.264	0.2751	0.5673	0.067
Mof_H 	H 	0.2182	0.311	0.4945	0.065
Mof_H 	H 	0.9411	0.3731	0.4781	0.047
Mof_H 	H 	0.8841	0.3514	0.5497	0.064
Mof_H 	H 	0.9311	0.3156	0.623	0.069
Mof_H 	H 	0.0723	0.1984	0.9082	0.065
Mof_H 	H 	0.0796	0.1383	0.9744	0.061
Mof_H 	H 	0.0166	0.1122	0.043	0.043
Mof_H 	H 	0.7856	0.2113	0.0376	0.063
Mof_H 	H 	0.7735	0.2675	0.9704	0.066
Mof_H 	H 	0.8349	0.2958	0.9016	0.039
Mof_H 	H 	0.4256	0.4499	0.6535	0.045
Mof_H 	H 	0.2364	0.403	0.6565	0.067
Mof_H 	H 	0.0485	0.4051	0.654	0.04
Mof_H 	H 	0.0962	0.5682	0.6357	0.047
Mof_H 	H 	0.289	0.6162	0.629	0.065
Mof_H 	H 	0.4749	0.6135	0.6293	0.042
Mof_C 	C 	0.296	0.8668	0.7847	-0.042
Mof_C 	C 	0.1814	0.8053	0.7359	-0.016
Mof_C 	C 	0.2989	0.8849	0.7065	-0.024
Mof_C 	C 	0.1006	0.8646	0.7842	-0.01
Mof_C 	C 	0.2172	0.9425	0.7547	-0.015
Mof_C 	C 	0.1086	0.8827	0.7071	0.004
Mof_C 	C 	0.7439	0.6703	0.6866	-0.041
Mof_C 	C 	0.7663	0.6795	0.7648	-0.016
Mof_C 	C 	0.8698	0.7443	0.717	-0.013
Mof_C 	C 	0.8322	0.6052	0.7279	-0.024
Mof_C 	C 	0.9389	0.6723	0.6796	-0.015
Mof_C 	C 	0.9565	0.6797	0.7572	0
Mof_C 	C 	0.4105	0.6802	0.7378	0.368
Mof_C 	C 	0.3444	0.6248	0.7442	-0.078
Mof_C 	C 	0.3962	0.5794	0.7514	-0.034
Mof_C 	C 	0.3367	0.5284	0.7576	0.031
Mof_C 	C 	0.3855	0.4812	0.7648	-0.088
Mof_C 	C 	0.3251	0.4312	0.7697	0.018
Mof_C 	C 	0.21	0.4255	0.7683	-0.084
Mof_C 	C 	0.1562	0.469	0.7617	-0.027
Mof_C 	C 	0.22	0.5229	0.7562	0.025
Mof_C 	C 	0.1693	0.5689	0.7479	-0.082
Mof_C 	C 	0.2297	0.6187	0.7411	0.014
Mof_C 	C 	0.1434	0.3693	0.7728	0.379
Mof_C 	C 	0.5513	0.7811	0.8136	0.375
Mof_C 	C 	0.5711	0.7872	0.8617	-0.09
Mof_C 	C 	0.6706	0.7749	0.8793	0.024
Mof_C 	C 	0.6966	0.784	0.9218	-0.098
Mof_C 	C 	0.6245	0.8067	0.9503	0.039
Mof_C 	C 	0.6511	0.8195	0.9939	-0.061
Mof_C 	C 	0.5825	0.8439	0.0203	-0.048
Mof_C 	C 	0.4876	0.8557	0.0034	-0.01
Mof_C 	C 	0.4534	0.8439	0.9603	-0.074
Mof_C 	C 	0.525	0.8204	0.932	0.019
Mof_C 	C 	0.4995	0.8086	0.8883	-0.029
Mof_C 	C 	0.6212	0.8611	0.0659	0.279
Mof_C 	C 	0.4927	0.765	0.6482	0.385
Mof_C 	C 	0.4587	0.7485	0.6017	-0.082
Mof_C 	C 	0.5116	0.7122	0.5789	-0.034
Mof_C 	C 	0.4769	0.6953	0.537	0.021
Mof_C 	C 	0.5217	0.6547	0.5131	-0.079
Mof_C 	C 	0.4833	0.6387	0.4726	-0.003
Mof_C 	C 	0.397	0.6602	0.4539	-0.054
Mof_C 	C 	0.3463	0.6976	0.4752	-0.056
Mof_C 	C 	0.3861	0.716	0.5177	0.034
Mof_C 	C 	0.3344	0.7534	0.5419	-0.09
Mof_C 	C 	0.37	0.77	0.5828	0.017
Mof_C 	C 	0.3427	0.6394	0.4094	0.33
Mof_C 	C 	0.0882	0.0317	0.8527	0.392
Mof_C 	C 	0.9668	0.0302	0.8567	-0.101
Mof_C 	C 	0.8974	0.983	0.8518	-0.023
Mof_C 	C 	0.7773	0.9831	0.8546	0.029
Mof_C 	C 	0.7087	0.9364	0.8484	-0.092
Mof_C 	C 	0.598	0.938	0.8492	0.028
Mof_C 	C 	0.5557	0.9893	0.8549	-0.111
Mof_C 	C 	0.6243	0.0347	0.8607	-0.014
Mof_C 	C 	0.7462	0.0345	0.8616	0.02
Mof_C 	C 	0.8166	0.0826	0.8667	-0.085
Mof_C 	C 	0.9251	0.0811	0.8656	0.022
Mof_C 	C 	0.4364	0.9889	0.8517	0.387
Mof_C 	C 	0.204	0.6332	0.2847	-0.042
Mof_C 	C 	0.3186	0.6947	0.2359	-0.016
Mof_C 	C 	0.2011	0.6151	0.2065	-0.023
Mof_C 	C 	0.3994	0.6354	0.2842	-0.01
Mof_C 	C 	0.2828	0.5575	0.2547	-0.015
Mof_C 	C 	0.3914	0.6173	0.2071	0.005
Mof_C 	C 	0.7561	0.8297	0.1866	-0.041
Mof_C 	C 	0.7337	0.8205	0.2648	-0.016
Mof_C 	C 	0.6302	0.7557	0.217	-0.013
Mof_C 	C 	0.6678	0.8948	0.2279	-0.024
Mof_C 	C 	0.5611	0.8277	0.1796	-0.015
Mof_C 	C 	0.5435	0.8203	0.2572	0.002
Mof_C 	C 	0.0895	0.8198	0.2378	0.367
Mof_C 	C 	0.1556	0.8752	0.2442	-0.078
Mof_C 	C 	0.1038	0.9206	0.2514	-0.035
Mof_C 	C 	0.1633	0.9716	0.2576	0.031
Mof_C 	C 	0.1145	0.0188	0.2648	-0.088
Mof_C 	C 	0.1749	0.0688	0.2697	0.018
Mof_C 	C 	0.29	0.0745	0.2683	-0.085
Mof_C 	C 	0.3438	0.031	0.2617	-0.027
Mof_C 	C 	0.28	0.9771	0.2562	0.024
Mof_C 	C 	0.3307	0.9311	0.2479	-0.082
Mof_C 	C 	0.2703	0.8813	0.2411	0.013
Mof_C 	C 	0.3566	0.1307	0.2728	0.38
Mof_C 	C 	0.9487	0.7189	0.3136	0.375
Mof_C 	C 	0.9289	0.7128	0.3617	-0.089
Mof_C 	C 	0.8294	0.7251	0.3793	0.023
Mof_C 	C 	0.8034	0.716	0.4218	-0.096
Mof_C 	C 	0.8755	0.6933	0.4503	0.038
Mof_C 	C 	0.8489	0.6805	0.4939	-0.059
Mof_C 	C 	0.9175	0.6561	0.5203	-0.049
Mof_C 	C 	0.0124	0.6443	0.5034	-0.008
Mof_C 	C 	0.0466	0.6561	0.4603	-0.076
Mof_C 	C 	0.975	0.6796	0.432	0.022
Mof_C 	C 	0.0005	0.6914	0.3883	-0.031
Mof_C 	C 	0.8788	0.6389	0.5659	0.28
Mof_C 	C 	0.0073	0.735	0.1482	0.384
Mof_C 	C 	0.0413	0.7515	0.1017	-0.084
Mof_C 	C 	0.9884	0.7878	0.0789	-0.03
Mof_C 	C 	0.0231	0.8047	0.037	0.018
Mof_C 	C 	0.9783	0.8453	0.0131	-0.077
Mof_C 	C 	0.0167	0.8613	0.9726	-0.003
Mof_C 	C 	0.103	0.8398	0.9539	-0.054
Mof_C 	C 	0.1537	0.8024	0.9752	-0.056
Mof_C 	C 	0.1139	0.784	0.0177	0.035
Mof_C 	C 	0.1656	0.7466	0.0419	-0.091
Mof_C 	C 	0.13	0.73	0.0828	0.019
Mof_C 	C 	0.1573	0.8606	0.9094	0.33
Mof_C 	C 	0.4118	0.4683	0.3527	0.391
Mof_C 	C 	0.5332	0.4698	0.3567	-0.1
Mof_C 	C 	0.6026	0.517	0.3518	-0.023
Mof_C 	C 	0.7227	0.5169	0.3546	0.03
Mof_C 	C 	0.7913	0.5636	0.3484	-0.092
Mof_C 	C 	0.902	0.562	0.3492	0.027
Mof_C 	C 	0.9443	0.5107	0.3549	-0.11
Mof_C 	C 	0.8757	0.4653	0.3607	-0.014
Mof_C 	C 	0.7538	0.4655	0.3616	0.02
Mof_C 	C 	0.6834	0.4174	0.3667	-0.085
Mof_C 	C 	0.5749	0.4189	0.3656	0.021
Mof_C 	C 	0.0636	0.5111	0.3517	0.386
Mof_C 	C 	0.704	0.1332	0.2153	-0.042
Mof_C 	C 	0.8186	0.1947	0.2641	-0.016
Mof_C 	C 	0.7011	0.1151	0.2935	-0.024
Mof_C 	C 	0.8994	0.1354	0.2158	-0.01
Mof_C 	C 	0.7828	0.0575	0.2453	-0.015
Mof_C 	C 	0.8914	0.1173	0.2929	0.004
Mof_C 	C 	0.2561	0.3297	0.3134	-0.041
Mof_C 	C 	0.2337	0.3205	0.2352	-0.016
Mof_C 	C 	0.1302	0.2557	0.283	-0.013
Mof_C 	C 	0.1678	0.3948	0.2721	-0.024
Mof_C 	C 	0.0611	0.3277	0.3204	-0.015
Mof_C 	C 	0.0435	0.3203	0.2428	0
Mof_C 	C 	0.5895	0.3198	0.2622	0.368
Mof_C 	C 	0.6556	0.3752	0.2558	-0.078
Mof_C 	C 	0.6038	0.4206	0.2486	-0.034
Mof_C 	C 	0.6633	0.4716	0.2424	0.031
Mof_C 	C 	0.6145	0.5188	0.2352	-0.088
Mof_C 	C 	0.6749	0.5688	0.2303	0.018
Mof_C 	C 	0.79	0.5745	0.2317	-0.084
Mof_C 	C 	0.8438	0.531	0.2383	-0.027
Mof_C 	C 	0.78	0.4771	0.2438	0.025
Mof_C 	C 	0.8307	0.4311	0.2521	-0.082
Mof_C 	C 	0.7703	0.3813	0.2589	0.014
Mof_C 	C 	0.8566	0.6307	0.2272	0.379
Mof_C 	C 	0.4487	0.2189	0.1864	0.375
Mof_C 	C 	0.4289	0.2128	0.1383	-0.09
Mof_C 	C 	0.3294	0.2251	0.1207	0.024
Mof_C 	C 	0.3034	0.216	0.0782	-0.098
Mof_C 	C 	0.3755	0.1933	0.0497	0.039
Mof_C 	C 	0.3489	0.1805	0.0061	-0.061
Mof_C 	C 	0.4175	0.1561	0.9797	-0.048
Mof_C 	C 	0.5124	0.1443	0.9966	-0.01
Mof_C 	C 	0.5466	0.1561	0.0397	-0.074
Mof_C 	C 	0.475	0.1796	0.068	0.019
Mof_C 	C 	0.5005	0.1914	0.1117	-0.029
Mof_C 	C 	0.3788	0.1389	0.9341	0.279
Mof_C 	C 	0.5073	0.235	0.3518	0.385
Mof_C 	C 	0.5413	0.2515	0.3983	-0.082
Mof_C 	C 	0.4884	0.2878	0.4211	-0.034
Mof_C 	C 	0.5231	0.3047	0.463	0.021
Mof_C 	C 	0.4783	0.3453	0.4869	-0.079
Mof_C 	C 	0.5167	0.3613	0.5274	-0.003
Mof_C 	C 	0.603	0.3398	0.5461	-0.054
Mof_C 	C 	0.6537	0.3024	0.5248	-0.056
Mof_C 	C 	0.6139	0.284	0.4823	0.034
Mof_C 	C 	0.6656	0.2466	0.4581	-0.09
Mof_C 	C 	0.63	0.23	0.4172	0.017
Mof_C 	C 	0.6573	0.3606	0.5906	0.33
Mof_C 	C 	0.9118	0.9683	0.1473	0.392
Mof_C 	C 	0.0332	0.9698	0.1433	-0.101
Mof_C 	C 	0.1026	0.017	0.1482	-0.023
Mof_C 	C 	0.2227	0.0169	0.1454	0.029
Mof_C 	C 	0.2913	0.0636	0.1516	-0.092
Mof_C 	C 	0.402	0.062	0.1508	0.028
Mof_C 	C 	0.4443	0.0107	0.1451	-0.111
Mof_C 	C 	0.3757	0.9653	0.1393	-0.014
Mof_C 	C 	0.2538	0.9655	0.1384	0.02
Mof_C 	C 	0.1834	0.9174	0.1333	-0.085
Mof_C 	C 	0.0749	0.9189	0.1344	0.022
Mof_C 	C 	0.5636	0.0111	0.1483	0.387
Mof_C 	C 	0.796	0.3668	0.7153	-0.042
Mof_C 	C 	0.6814	0.3053	0.7641	-0.016
Mof_C 	C 	0.7989	0.3849	0.7935	-0.023
Mof_C 	C 	0.6006	0.3646	0.7158	-0.01
Mof_C 	C 	0.7172	0.4425	0.7453	-0.015
Mof_C 	C 	0.6086	0.3827	0.7929	0.005
Mof_C 	C 	0.2439	0.1703	0.8134	-0.041
Mof_C 	C 	0.2663	0.1795	0.7352	-0.016
Mof_C 	C 	0.3698	0.2443	0.783	-0.013
Mof_C 	C 	0.3322	0.1052	0.7721	-0.024
Mof_C 	C 	0.4389	0.1723	0.8204	-0.015
Mof_C 	C 	0.4565	0.1797	0.7428	0.002
Mof_C 	C 	0.9105	0.1802	0.7622	0.367
Mof_C 	C 	0.8444	0.1248	0.7558	-0.078
Mof_C 	C 	0.8962	0.0794	0.7486	-0.035
Mof_C 	C 	0.8367	0.0284	0.7424	0.031
Mof_C 	C 	0.8855	0.9812	0.7352	-0.088
Mof_C 	C 	0.8251	0.9312	0.7303	0.018
Mof_C 	C 	0.71	0.9255	0.7317	-0.085
Mof_C 	C 	0.6562	0.969	0.7383	-0.027
Mof_C 	C 	0.72	0.0229	0.7438	0.024
Mof_C 	C 	0.6693	0.0689	0.7521	-0.082
Mof_C 	C 	0.7297	0.1187	0.7589	0.013
Mof_C 	C 	0.6434	0.8693	0.7272	0.38
Mof_C 	C 	0.0513	0.2811	0.6864	0.375
Mof_C 	C 	0.0711	0.2872	0.6383	-0.089
Mof_C 	C 	0.1706	0.2749	0.6207	0.023
Mof_C 	C 	0.1966	0.284	0.5782	-0.096
Mof_C 	C 	0.1245	0.3067	0.5497	0.038
Mof_C 	C 	0.1511	0.3195	0.5061	-0.059
Mof_C 	C 	0.0825	0.3439	0.4797	-0.049
Mof_C 	C 	0.9876	0.3557	0.4966	-0.008
Mof_C 	C 	0.9534	0.3439	0.5397	-0.076
Mof_C 	C 	0.025	0.3204	0.568	0.022
Mof_C 	C 	0.9995	0.3086	0.6117	-0.031
Mof_C 	C 	0.1212	0.3611	0.4341	0.28
Mof_C 	C 	0.9927	0.265	0.8518	0.384
Mof_C 	C 	0.9587	0.2485	0.8983	-0.084
Mof_C 	C 	0.0116	0.2122	0.9211	-0.03
Mof_C 	C 	0.9769	0.1953	0.963	0.018
Mof_C 	C 	0.0217	0.1547	0.9869	-0.077
Mof_C 	C 	0.9833	0.1387	0.0274	-0.003
Mof_C 	C 	0.897	0.1602	0.0461	-0.054
Mof_C 	C 	0.8463	0.1976	0.0248	-0.056
Mof_C 	C 	0.8861	0.216	0.9823	0.035
Mof_C 	C 	0.8344	0.2534	0.9581	-0.091
Mof_C 	C 	0.87	0.27	0.9172	0.019
Mof_C 	C 	0.8427	0.1394	0.0906	0.33
Mof_C 	C 	0.5882	0.5317	0.6473	0.391
Mof_C 	C 	0.4668	0.5302	0.6433	-0.1
Mof_C 	C 	0.3974	0.483	0.6482	-0.023
Mof_C 	C 	0.2773	0.4831	0.6454	0.03
Mof_C 	C 	0.2087	0.4364	0.6516	-0.092
Mof_C 	C 	0.098	0.438	0.6508	0.027
Mof_C 	C 	0.0557	0.4893	0.6451	-0.11
Mof_C 	C 	0.1243	0.5347	0.6393	-0.014
Mof_C 	C 	0.2462	0.5345	0.6384	0.02
Mof_C 	C 	0.3166	0.5826	0.6333	-0.085
Mof_C 	C 	0.4251	0.5811	0.6344	0.021
Mof_C 	C 	0.9364	0.4889	0.6483	0.386
Mof_N 	N 	0.2911	0.8403	0.7406	-0.199
Mof_N 	N 	0.2066	0.9005	0.7904	-0.2
Mof_N 	N 	0.0922	0.8392	0.7407	-0.096
Mof_N 	N 	0.2113	0.9178	0.7112	-0.095
Mof_N 	N 	0.7607	0.7096	0.7235	-0.201
Mof_N 	N 	0.8327	0.6363	0.6849	-0.19
Mof_N 	N 	0.8526	0.6455	0.7639	-0.093
Mof_N 	N 	0.9585	0.7105	0.7156	-0.095
Mof_N 	N 	0.2089	0.6597	0.2406	-0.2
Mof_N 	N 	0.2934	0.5995	0.2904	-0.2
Mof_N 	N 	0.4078	0.6608	0.2407	-0.096
Mof_N 	N 	0.2887	0.5822	0.2112	-0.095
Mof_N 	N 	0.7393	0.7904	0.2235	-0.201
Mof_N 	N 	0.6673	0.8637	0.1849	-0.19
Mof_N 	N 	0.6474	0.8545	0.2639	-0.093
Mof_N 	N 	0.5415	0.7895	0.2156	-0.095
Mof_N 	N 	0.7089	0.1597	0.2594	-0.199
Mof_N 	N 	0.7934	0.0995	0.2096	-0.2
Mof_N 	N 	0.9078	0.1608	0.2593	-0.096
Mof_N 	N 	0.7887	0.0822	0.2888	-0.095
Mof_N 	N 	0.2393	0.2904	0.2765	-0.201
Mof_N 	N 	0.1673	0.3637	0.3151	-0.19
Mof_N 	N 	0.1474	0.3545	0.2361	-0.093
Mof_N 	N 	0.0415	0.2895	0.2844	-0.095
Mof_N 	N 	0.7911	0.3403	0.7594	-0.2
Mof_N 	N 	0.7066	0.4005	0.7096	-0.2
Mof_N 	N 	0.5922	0.3392	0.7593	-0.096
Mof_N 	N 	0.7113	0.4178	0.7888	-0.095
Mof_N 	N 	0.2607	0.2096	0.7765	-0.201
Mof_N 	N 	0.3327	0.1363	0.8151	-0.19
Mof_N 	N 	0.3526	0.1455	0.7361	-0.093
Mof_N 	N 	0.4585	0.2105	0.7844	-0.095
Mof_O 	O 	0.5135	0.6837	0.7384	-0.451
Mof_O 	O 	0.357	0.7199	0.7324	-0.46
Mof_O 	O 	0.0414	0.3649	0.765	-0.466
Mof_O 	O 	0.193	0.3311	0.784	-0.458
Mof_O 	O 	0.6286	0.768	0.7902	-0.465
Mof_O 	O 	0.4592	0.7889	0.79925	-0.451
Mof_O 	O 	0.5594	0.8871	0.0874	-0.401
Mof_O 	O 	0.7051	0.8464	0.0806	-0.357
Mof_O 	O 	0.5743	0.7458	0.663	-0.465
Mof_O 	O 	0.4371	0.7955	0.6677	-0.465
Mof_O 	O 	0.2789	0.6632	0.3912	-0.332
Mof_O 	O 	0.3775	0.596	0.3969	-0.478
Mof_O 	O 	0.145	0.0735	0.867	-0.494
Mof_O 	O 	0.1247	0.9926	0.834	-0.513
Mof_O 	O 	0.3768	0.9437	0.8588	-0.49
Mof_O 	O 	0.3984	0.0312	0.8408	-0.519
Mof_O 	O 	0.9865	0.8163	0.2384	-0.45
Mof_O 	O 	0.143	0.7801	0.2324	-0.46
Mof_O 	O 	0.4586	0.1351	0.265	-0.466
Mof_O 	O 	0.307	0.1689	0.284	-0.458
Mof_O 	O 	0.8714	0.732	0.2902	-0.465
Mof_O 	O 	0.0408	0.7111	0.29925	-0.452
Mof_O 	O 	0.9406	0.6129	0.5874	-0.401
Mof_O 	O 	0.7949	0.6536	0.5806	-0.357
Mof_O 	O 	0.9257	0.7542	0.163	-0.464
Mof_O 	O 	0.0629	0.7045	0.1677	-0.465
Mof_O 	O 	0.2211	0.8368	0.8912	-0.331
Mof_O 	O 	0.1225	0.904	0.8969	-0.477
Mof_O 	O 	0.355	0.4265	0.367	-0.494
Mof_O 	O 	0.3753	0.5074	0.334	-0.513
Mof_O 	O 	0.1232	0.5563	0.3588	-0.49
Mof_O 	O 	0.1016	0.4688	0.3408	-0.519
Mof_O 	O 	0.4865	0.3163	0.2616	-0.451
Mof_O 	O 	0.643	0.2801	0.2676	-0.46
Mof_O 	O 	0.9586	0.6351	0.235	-0.466
Mof_O 	O 	0.807	0.6689	0.216	-0.458
Mof_O 	O 	0.3714	0.232	0.2098	-0.465
Mof_O 	O 	0.5408	0.2111	0.20075	-0.451
Mof_O 	O 	0.4406	0.1129	0.9126	-0.401
Mof_O 	O 	0.2949	0.1536	0.9194	-0.357
Mof_O 	O 	0.4257	0.2542	0.337	-0.465
Mof_O 	O 	0.5629	0.2045	0.3323	-0.465
Mof_O 	O 	0.7211	0.3368	0.6088	-0.332
Mof_O 	O 	0.6225	0.404	0.6031	-0.478
Mof_O 	O 	0.855	0.9265	0.133	-0.494
Mof_O 	O 	0.8753	0.0074	0.166	-0.513
Mof_O 	O 	0.6232	0.0563	0.1412	-0.49
Mof_O 	O 	0.6016	0.9688	0.1592	-0.519
Mof_O 	O 	0.0135	0.1837	0.7616	-0.45
Mof_O 	O 	0.857	0.2199	0.7676	-0.46
Mof_O 	O 	0.5414	0.8649	0.735	-0.466
Mof_O 	O 	0.693	0.8311	0.716	-0.458
Mof_O 	O 	0.1286	0.268	0.7098	-0.465
Mof_O 	O 	0.9592	0.2889	0.70075	-0.452
Mof_O 	O 	0.0594	0.3871	0.4126	-0.401
Mof_O 	O 	0.2051	0.3464	0.4194	-0.357
Mof_O 	O 	0.0743	0.2458	0.837	-0.464
Mof_O 	O 	0.9371	0.2955	0.8323	-0.465
Mof_O 	O 	0.7789	0.1632	0.1088	-0.331
Mof_O 	O 	0.8775	0.096	0.1031	-0.477
Mof_O 	O 	0.645	0.5735	0.633	-0.494
Mof_O 	O 	0.6247	0.4926	0.666	-0.513
Mof_O 	O 	0.8768	0.4437	0.6412	-0.49
Mof_O 	O 	0.8984	0.5312	0.6592	-0.519
_end
