data_functionalizedCrystal
_audit_creation_method	'EQeq! by Chris Wilmer'
_symmetry_space_group_name_H-M	'P1'
_symmetry_Int_Tables_number	1
_symmetry_cell_setting	triclinic
loop_
_symmetry_equiv_pos_as_xyz
  x,y,z
_cell_length_a	6.2924
_cell_length_b	8.6702
_cell_length_c	12.9527
_cell_angle_alpha	105.432
_cell_angle_beta	90.451
_cell_angle_gamma	105.118
loop_
_atom_site_label
_atom_site_type_symbol
_atom_site_fract_x
_atom_site_fract_y
_atom_site_fract_z
_atom_site_charge
Mof_C 	C 	0.9456	0.5519	0.0458	0.332
Mof_C 	C 	0.4052	0.4205	0.4795	0.259
Mof_C 	C 	0.2657	0.1045	0.7805	0.304
Mof_Eu	Eu	0.44137	0.47133	0.74264	2.423
Mof_Eu	Eu	0.1908	0.83336	0.92483	2.597
Mof_O 	O 	0.5125	0.7692	0.8395	-0.791
Mof_O 	O 	0.7975	0.669	0.8387	-0.691
Mof_O 	O 	0.8397	0.9319	0.9245	-0.758
Mof_O 	O 	0.3606	0.3714	0.3806	-0.436
Mof_O 	O 	0.314	0.3508	0.5464	-0.45
Mof_O 	O 	0.1651	0.9604	0.777	-0.486
Mof_O 	O 	0.2337	0.1835	0.7168	-0.48
Mof_O 	O 	0.5575	0.3411	0.8736	-0.506
Mof_O 	O 	0.4942	0.116	0.9335	-0.62
Mof_C 	C 	0.7169	0.7927	0.8687	0.719
Mof_C 	C 	0.4565	0.1967	0.8711	0.325
Mof_O 	O 	0.9802	0.7021	0.0554	-0.506
Mof_O 	O 	0.1407	0.6016	0.7052	-0.386
Mof_H 	H 	0.165	0.7111	0.6749	0.113
Mof_H 	H 	0.1332	0.6461	0.7908	-0.156
Mof_O 	O 	0.7322	0.3286	0.6617	-0.941
Mof_H 	H 	0.6098	0.2794	0.6599	0.304
Mof_H 	H 	0.7692	0.3248	0.6023	0.43
Mof_O 	O 	0.8267	0.4715	0.1032	-0.598
Mof_C 	C 	0.0544	0.4481	0.9542	0.331
Mof_C 	C 	0.5948	0.5795	0.5205	0.258
Mof_C 	C 	0.7343	0.8955	0.2195	0.304
Mof_Eu	Eu	0.55863	0.52867	0.25736	2.423
Mof_Eu	Eu	0.8092	0.16664	0.07517	2.597
Mof_O 	O 	0.4875	0.2308	0.1605	-0.791
Mof_O 	O 	0.2025	0.331	0.1613	-0.691
Mof_O 	O 	0.1603	0.0681	0.0755	-0.758
Mof_O 	O 	0.6394	0.6286	0.6194	-0.436
Mof_O 	O 	0.686	0.6492	0.4536	-0.45
Mof_O 	O 	0.8349	0.0396	0.223	-0.486
Mof_O 	O 	0.7663	0.8165	0.2832	-0.48
Mof_O 	O 	0.4425	0.6589	0.1264	-0.506
Mof_O 	O 	0.5058	0.884	0.0665	-0.62
Mof_C 	C 	0.2831	0.2073	0.1313	0.719
Mof_C 	C 	0.5435	0.8033	0.1289	0.325
Mof_O 	O 	0.0198	0.2979	0.9446	-0.506
Mof_O 	O 	0.8593	0.3984	0.2948	-0.386
Mof_H 	H 	0.835	0.2889	0.3251	0.113
Mof_H 	H 	0.8668	0.3539	0.2092	-0.156
Mof_O 	O 	0.2678	0.6714	0.3383	-0.941
Mof_H 	H 	0.3902	0.7206	0.3401	0.304
Mof_H 	H 	0.2308	0.6752	0.3977	0.43
Mof_O 	O 	0.1733	0.5285	0.8968	-0.598
_end
