data_functionalizedCrystal
_audit_creation_method	'EQeq! by Chris Wilmer'
_symmetry_space_group_name_H-M	'P1'
_symmetry_Int_Tables_number	1
_symmetry_cell_setting	triclinic
loop_
_symmetry_equiv_pos_as_xyz
  x,y,z
_cell_length_a	27.1344
_cell_length_b	27.1344
_cell_length_c	27.1344
_cell_angle_alpha	90
_cell_angle_beta	90
_cell_angle_gamma	90
loop_
_atom_site_label
_atom_site_type_symbol
_atom_site_fract_x
_atom_site_fract_y
_atom_site_fract_z
_atom_site_charge
Mof_In	In	0.92946	0.52672	0.00603	2.453
Mof_O 	O 	0.00139	0.55572	0.02685	-0.928
Mof_O 	O 	0.8626	0.4965	0.9778	-0.708
Mof_O 	O 	0.8437	0.4569	0.0438	-0.584
Mof_O 	O 	0.98485	0.61104	0.9369	-0.628
Mof_O 	O 	0.9085	0.5905	0.966	-0.626
Mof_C 	C 	0.8395	0.4657	0.9987	0.596
Mof_C 	C 	0.7898	0.4528	0.9799	-0.209
Mof_C 	C 	0.7618	0.4216	0.0104	0.087
Mof_H 	H 	0.7728	0.4057	0.0387	-0.022
Mof_C 	C 	0.7083	0.4184	0.9882	-0.134
Mof_H 	H 	0.6813	0.4129	0.0087	0.07
Mof_C 	C 	0.7013	0.4242	0.9357	0.081
Mof_C 	C 	0.7317	0.4532	0.9112	-0.168
Mof_H 	H 	0.7238	0.4638	0.8796	0.085
Mof_C 	C 	0.7757	0.4678	0.9333	0.117
Mof_H 	H 	0.7965	0.4887	0.9158	0.001
Mof_C 	C 	0.655	0.4068	0.9107	0.012
Mof_C 	C 	0.6367	0.429	0.8719	-0.08
Mof_H 	H 	0.6518	0.4577	0.8609	0.052
Mof_C 	C 	0.9402	0.6179	0.9387	0.593
Mof_C 	C 	0.9182	0.6649	0.92	-0.525
Mof_C 	C 	0.8702	0.6757	0.9251	0.489
Mof_H 	H 	0.8497	0.653	0.9407	-0.125
Mof_C 	C 	0.8514	0.7164	0.9092	-0.533
Mof_H 	H 	0.8187	0.7244	0.916	0.209
Mof_C 	C 	0.8817	0.749	0.8809	0.407
Mof_C 	C 	0.9291	0.7388	0.8771	-0.604
Mof_H 	H 	0.9507	0.7613	0.8627	0.232
Mof_C 	C 	0.945	0.6972	0.8939	0.527
Mof_H 	H 	0.9776	0.6889	0.8873	-0.168
Mof_C 	C 	0.8609	0.7987	0.8601	-0.249
Mof_C 	C 	0.819	0.8196	0.8792	0.173
Mof_H 	H 	0.804	0.8047	0.9061	-0.043
Mof_C 	C 	0.87	0.6237	0.1481	0.038
Mof_H 	H 	0.8865	0.6356	0.1206	0.028
Mof_O 	O 	0.8861	0.4916	0.1237	-0.499
Mof_C 	C 	0.8769	0.5411	0.1064	0.37
Mof_C 	C 	0.8167	0.6775	0.2566	0.038
Mof_C 	C 	0.8442	0.7181	0.2769	-0.108
Mof_H 	H 	0.8748	0.7272	0.2644	0.063
Mof_C 	C 	0.8615	0.5717	0.1465	-0.127
Mof_C 	C 	0.8368	0.546	0.1851	0.036
Mof_H 	H 	0.83	0.5124	0.1865	0.005
Mof_C 	C 	0.8582	0.6614	0.1838	-0.116
Mof_H 	H 	0.8649	0.695	0.1825	0.066
Mof_C 	C 	0.8338	0.6343	0.2212	0.041
Mof_C 	C 	0.8246	0.5824	0.2211	-0.102
Mof_H 	H 	0.8081	0.5706	0.2488	0.059
Mof_O 	O 	0.8965	0.562	0.068	-0.617
Mof_In	In	0.57054	0.47328	0.50603	2.453
Mof_O 	O 	0.49861	0.44428	0.52685	-0.929
Mof_O 	O 	0.6374	0.5035	0.4778	-0.709
Mof_O 	O 	0.6563	0.5431	0.5438	-0.585
Mof_O 	O 	0.51515	0.38896	0.4369	-0.629
Mof_O 	O 	0.5915	0.4095	0.466	-0.627
Mof_C 	C 	0.6605	0.5343	0.4987	0.595
Mof_C 	C 	0.7102	0.5472	0.4799	-0.21
Mof_C 	C 	0.7382	0.5784	0.5104	0.087
Mof_H 	H 	0.7272	0.5943	0.5387	-0.023
Mof_C 	C 	0.7917	0.5816	0.4882	-0.136
Mof_H 	H 	0.8187	0.5871	0.5087	0.069
Mof_C 	C 	0.7987	0.5758	0.4357	0.08
Mof_C 	C 	0.7683	0.5468	0.4112	-0.169
Mof_H 	H 	0.7762	0.5362	0.3796	0.084
Mof_C 	C 	0.7243	0.5322	0.4333	0.117
Mof_H 	H 	0.7035	0.5113	0.4158	0
Mof_C 	C 	0.845	0.5932	0.4107	0.011
Mof_C 	C 	0.8633	0.571	0.3719	-0.08
Mof_H 	H 	0.8482	0.5423	0.3609	0.052
Mof_C 	C 	0.5598	0.3821	0.4387	0.593
Mof_C 	C 	0.5818	0.3351	0.42	-0.526
Mof_C 	C 	0.6298	0.3243	0.4251	0.489
Mof_H 	H 	0.6503	0.347	0.4407	-0.125
Mof_C 	C 	0.6486	0.2836	0.4092	-0.534
Mof_H 	H 	0.6813	0.2756	0.416	0.209
Mof_C 	C 	0.6183	0.251	0.3809	0.407
Mof_C 	C 	0.5709	0.2612	0.3771	-0.605
Mof_H 	H 	0.5493	0.2387	0.3627	0.232
Mof_C 	C 	0.555	0.3028	0.3939	0.528
Mof_H 	H 	0.5224	0.3111	0.3873	-0.168
Mof_C 	C 	0.6391	0.2013	0.3601	-0.25
Mof_C 	C 	0.681	0.1804	0.3792	0.173
Mof_H 	H 	0.696	0.1953	0.4061	-0.044
Mof_C 	C 	0.63	0.3763	0.6481	0.038
Mof_H 	H 	0.6135	0.3644	0.6206	0.028
Mof_O 	O 	0.6139	0.5084	0.6237	-0.499
Mof_C 	C 	0.6231	0.4589	0.6064	0.37
Mof_C 	C 	0.6833	0.3225	0.7566	0.038
Mof_C 	C 	0.6558	0.2819	0.7769	-0.108
Mof_H 	H 	0.6252	0.2728	0.7644	0.063
Mof_C 	C 	0.6385	0.4283	0.6465	-0.127
Mof_C 	C 	0.6632	0.454	0.6851	0.036
Mof_H 	H 	0.67	0.4876	0.6865	0.005
Mof_C 	C 	0.6418	0.3386	0.6838	-0.116
Mof_H 	H 	0.6351	0.305	0.6825	0.066
Mof_C 	C 	0.6662	0.3657	0.7212	0.041
Mof_C 	C 	0.6754	0.4176	0.7211	-0.102
Mof_H 	H 	0.6919	0.4294	0.7488	0.059
Mof_O 	O 	0.6035	0.438	0.568	-0.617
Mof_In	In	0.07054	0.02672	0.49397	2.453
Mof_O 	O 	0.99861	0.05572	0.47315	-0.929
Mof_O 	O 	0.1374	0.9965	0.5222	-0.709
Mof_O 	O 	0.1563	0.9569	0.4562	-0.585
Mof_O 	O 	0.01515	0.11104	0.5631	-0.629
Mof_O 	O 	0.0915	0.0905	0.534	-0.627
Mof_C 	C 	0.1605	0.9657	0.5013	0.595
Mof_C 	C 	0.2102	0.9528	0.5201	-0.21
Mof_C 	C 	0.2382	0.9216	0.4896	0.087
Mof_H 	H 	0.2272	0.9057	0.4613	-0.023
Mof_C 	C 	0.2917	0.9184	0.5118	-0.136
Mof_H 	H 	0.3187	0.9129	0.4913	0.069
Mof_C 	C 	0.2987	0.9242	0.5643	0.08
Mof_C 	C 	0.2683	0.9532	0.5888	-0.169
Mof_H 	H 	0.2762	0.9638	0.6204	0.084
Mof_C 	C 	0.2243	0.9678	0.5667	0.117
Mof_H 	H 	0.2035	0.9887	0.5842	0
Mof_C 	C 	0.345	0.9068	0.5893	0.011
Mof_C 	C 	0.3633	0.929	0.6281	-0.08
Mof_H 	H 	0.3482	0.9577	0.6391	0.052
Mof_C 	C 	0.0598	0.1179	0.5613	0.593
Mof_C 	C 	0.0818	0.1649	0.58	-0.526
Mof_C 	C 	0.1298	0.1757	0.5749	0.489
Mof_H 	H 	0.1503	0.153	0.5593	-0.125
Mof_C 	C 	0.1486	0.2164	0.5908	-0.533
Mof_H 	H 	0.1813	0.2244	0.584	0.209
Mof_C 	C 	0.1183	0.249	0.6191	0.407
Mof_C 	C 	0.0709	0.2388	0.6229	-0.604
Mof_H 	H 	0.0493	0.2613	0.6373	0.232
Mof_C 	C 	0.055	0.1972	0.6061	0.528
Mof_H 	H 	0.0224	0.1889	0.6127	-0.168
Mof_C 	C 	0.1391	0.2987	0.6399	-0.25
Mof_C 	C 	0.181	0.3196	0.6208	0.173
Mof_H 	H 	0.196	0.3047	0.5939	-0.044
Mof_C 	C 	0.13	0.1237	0.3519	0.038
Mof_H 	H 	0.1135	0.1356	0.3794	0.028
Mof_O 	O 	0.1139	0.9916	0.3763	-0.499
Mof_C 	C 	0.1231	0.0411	0.3936	0.37
Mof_C 	C 	0.1833	0.1775	0.2434	0.038
Mof_C 	C 	0.1558	0.2181	0.2231	-0.108
Mof_H 	H 	0.1252	0.2272	0.2356	0.063
Mof_C 	C 	0.1385	0.0717	0.3535	-0.127
Mof_C 	C 	0.1632	0.046	0.3149	0.036
Mof_H 	H 	0.17	0.0124	0.3135	0.005
Mof_C 	C 	0.1418	0.1614	0.3162	-0.116
Mof_H 	H 	0.1351	0.195	0.3175	0.066
Mof_C 	C 	0.1662	0.1343	0.2788	0.041
Mof_C 	C 	0.1754	0.0824	0.2789	-0.102
Mof_H 	H 	0.1919	0.0706	0.2512	0.059
Mof_O 	O 	0.1035	0.062	0.432	-0.617
Mof_In	In	0.42946	0.97328	0.99397	2.455
Mof_O 	O 	0.50139	0.94428	0.97315	-0.929
Mof_O 	O 	0.3626	0.0035	0.0222	-0.709
Mof_O 	O 	0.3437	0.0431	0.9562	-0.585
Mof_O 	O 	0.48485	0.88896	0.0631	-0.629
Mof_O 	O 	0.4085	0.9095	0.034	-0.627
Mof_C 	C 	0.3395	0.0343	0.0013	0.595
Mof_C 	C 	0.2898	0.0472	0.0201	-0.21
Mof_C 	C 	0.2618	0.0784	0.9896	0.087
Mof_H 	H 	0.2728	0.0943	0.9613	-0.023
Mof_C 	C 	0.2083	0.0816	0.0118	-0.136
Mof_H 	H 	0.1813	0.0871	0.9913	0.069
Mof_C 	C 	0.2013	0.0758	0.0643	0.08
Mof_C 	C 	0.2317	0.0468	0.0888	-0.169
Mof_H 	H 	0.2238	0.0362	0.1204	0.084
Mof_C 	C 	0.2757	0.0322	0.0667	0.117
Mof_H 	H 	0.2965	0.0113	0.0842	0
Mof_C 	C 	0.155	0.0932	0.0893	0.011
Mof_C 	C 	0.1367	0.071	0.1281	-0.08
Mof_H 	H 	0.1518	0.0423	0.1391	0.052
Mof_C 	C 	0.4402	0.8821	0.0613	0.593
Mof_C 	C 	0.4182	0.8351	0.08	-0.526
Mof_C 	C 	0.3702	0.8243	0.0749	0.489
Mof_H 	H 	0.3497	0.847	0.0593	-0.125
Mof_C 	C 	0.3514	0.7836	0.0908	-0.534
Mof_H 	H 	0.3187	0.7756	0.084	0.209
Mof_C 	C 	0.3817	0.751	0.1191	0.407
Mof_C 	C 	0.4291	0.7612	0.1229	-0.605
Mof_H 	H 	0.4507	0.7387	0.1373	0.232
Mof_C 	C 	0.445	0.8028	0.1061	0.528
Mof_H 	H 	0.4776	0.8111	0.1127	-0.168
Mof_C 	C 	0.3609	0.7013	0.1399	-0.25
Mof_C 	C 	0.319	0.6804	0.1208	0.173
Mof_H 	H 	0.304	0.6953	0.0939	-0.044
Mof_C 	C 	0.37	0.8763	0.8519	0.038
Mof_H 	H 	0.3865	0.8644	0.8794	0.028
Mof_O 	O 	0.3861	0.0084	0.8763	-0.499
Mof_C 	C 	0.3769	0.9589	0.8936	0.37
Mof_C 	C 	0.3167	0.8225	0.7434	0.038
Mof_C 	C 	0.3442	0.7819	0.7231	-0.108
Mof_H 	H 	0.3748	0.7728	0.7356	0.063
Mof_C 	C 	0.3615	0.9283	0.8535	-0.127
Mof_C 	C 	0.3368	0.954	0.8149	0.036
Mof_H 	H 	0.33	0.9876	0.8135	0.005
Mof_C 	C 	0.3582	0.8386	0.8162	-0.116
Mof_H 	H 	0.3649	0.805	0.8175	0.066
Mof_C 	C 	0.3338	0.8657	0.7788	0.041
Mof_C 	C 	0.3246	0.9176	0.7789	-0.102
Mof_H 	H 	0.3081	0.9294	0.7512	0.059
Mof_O 	O 	0.3965	0.938	0.932	-0.617
Mof_In	In	0.00603	0.92946	0.52672	2.452
Mof_O 	O 	0.02685	0.00139	0.55572	-0.929
Mof_O 	O 	0.9778	0.8626	0.4965	-0.709
Mof_O 	O 	0.0438	0.8437	0.4569	-0.585
Mof_O 	O 	0.9369	0.98485	0.61104	-0.629
Mof_O 	O 	0.966	0.9085	0.5905	-0.627
Mof_C 	C 	0.9987	0.8395	0.4657	0.595
Mof_C 	C 	0.9799	0.7898	0.4528	-0.21
Mof_C 	C 	0.0104	0.7618	0.4216	0.086
Mof_H 	H 	0.0387	0.7728	0.4057	-0.023
Mof_C 	C 	0.9882	0.7083	0.4184	-0.135
Mof_H 	H 	0.0087	0.6813	0.4129	0.069
Mof_C 	C 	0.9357	0.7013	0.4242	0.08
Mof_C 	C 	0.9112	0.7317	0.4532	-0.169
Mof_H 	H 	0.8796	0.7238	0.4638	0.084
Mof_C 	C 	0.9333	0.7757	0.4678	0.116
Mof_H 	H 	0.9158	0.7965	0.4887	0
Mof_C 	C 	0.9107	0.655	0.4068	0.011
Mof_C 	C 	0.8719	0.6367	0.429	-0.08
Mof_H 	H 	0.8609	0.6518	0.4577	0.052
Mof_C 	C 	0.9387	0.9402	0.6179	0.593
Mof_C 	C 	0.92	0.9182	0.6649	-0.525
Mof_C 	C 	0.9251	0.8702	0.6757	0.489
Mof_H 	H 	0.9407	0.8497	0.653	-0.125
Mof_C 	C 	0.9092	0.8514	0.7164	-0.533
Mof_H 	H 	0.916	0.8187	0.7244	0.209
Mof_C 	C 	0.8809	0.8817	0.749	0.407
Mof_C 	C 	0.8771	0.9291	0.7388	-0.604
Mof_H 	H 	0.8627	0.9507	0.7613	0.232
Mof_C 	C 	0.8939	0.945	0.6972	0.527
Mof_H 	H 	0.8873	0.9776	0.6889	-0.168
Mof_C 	C 	0.8601	0.8609	0.7987	-0.249
Mof_C 	C 	0.8792	0.819	0.8196	0.173
Mof_H 	H 	0.9061	0.804	0.8047	-0.043
Mof_C 	C 	0.1481	0.87	0.6237	0.038
Mof_H 	H 	0.1206	0.8865	0.6356	0.028
Mof_O 	O 	0.1237	0.8861	0.4916	-0.499
Mof_C 	C 	0.1064	0.8769	0.5411	0.37
Mof_C 	C 	0.2566	0.8167	0.6775	0.038
Mof_C 	C 	0.2769	0.8442	0.7181	-0.108
Mof_H 	H 	0.2644	0.8748	0.7272	0.063
Mof_C 	C 	0.1465	0.8615	0.5717	-0.127
Mof_C 	C 	0.1851	0.8368	0.546	0.036
Mof_H 	H 	0.1865	0.83	0.5124	0.005
Mof_C 	C 	0.1838	0.8582	0.6614	-0.116
Mof_H 	H 	0.1825	0.8649	0.695	0.066
Mof_C 	C 	0.2212	0.8338	0.6343	0.041
Mof_C 	C 	0.2211	0.8246	0.5824	-0.102
Mof_H 	H 	0.2488	0.8081	0.5706	0.059
Mof_O 	O 	0.068	0.8965	0.562	-0.617
Mof_In	In	0.50603	0.57054	0.47328	2.453
Mof_O 	O 	0.52685	0.49861	0.44428	-0.929
Mof_O 	O 	0.4778	0.6374	0.5035	-0.709
Mof_O 	O 	0.5438	0.6563	0.5431	-0.585
Mof_O 	O 	0.4369	0.51515	0.38896	-0.629
Mof_O 	O 	0.466	0.5915	0.4095	-0.627
Mof_C 	C 	0.4987	0.6605	0.5343	0.595
Mof_C 	C 	0.4799	0.7102	0.5472	-0.21
Mof_C 	C 	0.5104	0.7382	0.5784	0.087
Mof_H 	H 	0.5387	0.7272	0.5943	-0.023
Mof_C 	C 	0.4882	0.7917	0.5816	-0.136
Mof_H 	H 	0.5087	0.8187	0.5871	0.069
Mof_C 	C 	0.4357	0.7987	0.5758	0.08
Mof_C 	C 	0.4112	0.7683	0.5468	-0.169
Mof_H 	H 	0.3796	0.7762	0.5362	0.084
Mof_C 	C 	0.4333	0.7243	0.5322	0.117
Mof_H 	H 	0.4158	0.7035	0.5113	0
Mof_C 	C 	0.4107	0.845	0.5932	0.011
Mof_C 	C 	0.3719	0.8633	0.571	-0.08
Mof_H 	H 	0.3609	0.8482	0.5423	0.052
Mof_C 	C 	0.4387	0.5598	0.3821	0.593
Mof_C 	C 	0.42	0.5818	0.3351	-0.526
Mof_C 	C 	0.4251	0.6298	0.3243	0.489
Mof_H 	H 	0.4407	0.6503	0.347	-0.125
Mof_C 	C 	0.4092	0.6486	0.2836	-0.534
Mof_H 	H 	0.416	0.6813	0.2756	0.209
Mof_C 	C 	0.3809	0.6183	0.251	0.407
Mof_C 	C 	0.3771	0.5709	0.2612	-0.605
Mof_H 	H 	0.3627	0.5493	0.2387	0.232
Mof_C 	C 	0.3939	0.555	0.3028	0.528
Mof_H 	H 	0.3873	0.5224	0.3111	-0.168
Mof_C 	C 	0.3601	0.6391	0.2013	-0.25
Mof_C 	C 	0.3792	0.681	0.1804	0.173
Mof_H 	H 	0.4061	0.696	0.1953	-0.044
Mof_C 	C 	0.6481	0.63	0.3763	0.038
Mof_H 	H 	0.6206	0.6135	0.3644	0.028
Mof_O 	O 	0.6237	0.6139	0.5084	-0.499
Mof_C 	C 	0.6064	0.6231	0.4589	0.37
Mof_C 	C 	0.7566	0.6833	0.3225	0.038
Mof_C 	C 	0.7769	0.6558	0.2819	-0.108
Mof_H 	H 	0.7644	0.6252	0.2728	0.063
Mof_C 	C 	0.6465	0.6385	0.4283	-0.127
Mof_C 	C 	0.6851	0.6632	0.454	0.036
Mof_H 	H 	0.6865	0.67	0.4876	0.005
Mof_C 	C 	0.6838	0.6418	0.3386	-0.116
Mof_H 	H 	0.6825	0.6351	0.305	0.066
Mof_C 	C 	0.7212	0.6662	0.3657	0.041
Mof_C 	C 	0.7211	0.6754	0.4176	-0.102
Mof_H 	H 	0.7488	0.6919	0.4294	0.059
Mof_O 	O 	0.568	0.6035	0.438	-0.617
Mof_In	In	0.49397	0.07054	0.02672	2.453
Mof_O 	O 	0.47315	0.99861	0.05572	-0.929
Mof_O 	O 	0.5222	0.1374	0.9965	-0.709
Mof_O 	O 	0.4562	0.1563	0.9569	-0.585
Mof_O 	O 	0.5631	0.01515	0.11104	-0.629
Mof_O 	O 	0.534	0.0915	0.0905	-0.627
Mof_C 	C 	0.5013	0.1605	0.9657	0.595
Mof_C 	C 	0.5201	0.2102	0.9528	-0.21
Mof_C 	C 	0.4896	0.2382	0.9216	0.087
Mof_H 	H 	0.4613	0.2272	0.9057	-0.023
Mof_C 	C 	0.5118	0.2917	0.9184	-0.136
Mof_H 	H 	0.4913	0.3187	0.9129	0.069
Mof_C 	C 	0.5643	0.2987	0.9242	0.08
Mof_C 	C 	0.5888	0.2683	0.9532	-0.169
Mof_H 	H 	0.6204	0.2762	0.9638	0.084
Mof_C 	C 	0.5667	0.2243	0.9678	0.117
Mof_H 	H 	0.5842	0.2035	0.9887	0
Mof_C 	C 	0.5893	0.345	0.9068	0.011
Mof_C 	C 	0.6281	0.3633	0.929	-0.08
Mof_H 	H 	0.6391	0.3482	0.9577	0.052
Mof_C 	C 	0.5613	0.0598	0.1179	0.593
Mof_C 	C 	0.58	0.0818	0.1649	-0.526
Mof_C 	C 	0.5749	0.1298	0.1757	0.489
Mof_H 	H 	0.5593	0.1503	0.153	-0.125
Mof_C 	C 	0.5908	0.1486	0.2164	-0.533
Mof_H 	H 	0.584	0.1813	0.2244	0.209
Mof_C 	C 	0.6191	0.1183	0.249	0.407
Mof_C 	C 	0.6229	0.0709	0.2388	-0.604
Mof_H 	H 	0.6373	0.0493	0.2613	0.232
Mof_C 	C 	0.6061	0.055	0.1972	0.528
Mof_H 	H 	0.6127	0.0224	0.1889	-0.168
Mof_C 	C 	0.6399	0.1391	0.2987	-0.25
Mof_C 	C 	0.6208	0.181	0.3196	0.173
Mof_H 	H 	0.5939	0.196	0.3047	-0.044
Mof_C 	C 	0.3519	0.13	0.1237	0.038
Mof_H 	H 	0.3794	0.1135	0.1356	0.028
Mof_O 	O 	0.3763	0.1139	0.9916	-0.499
Mof_C 	C 	0.3936	0.1231	0.0411	0.37
Mof_C 	C 	0.2434	0.1833	0.1775	0.038
Mof_C 	C 	0.2231	0.1558	0.2181	-0.108
Mof_H 	H 	0.2356	0.1252	0.2272	0.063
Mof_C 	C 	0.3535	0.1385	0.0717	-0.127
Mof_C 	C 	0.3149	0.1632	0.046	0.036
Mof_H 	H 	0.3135	0.17	0.0124	0.005
Mof_C 	C 	0.3162	0.1418	0.1614	-0.116
Mof_H 	H 	0.3175	0.1351	0.195	0.066
Mof_C 	C 	0.2788	0.1662	0.1343	0.041
Mof_C 	C 	0.2789	0.1754	0.0824	-0.102
Mof_H 	H 	0.2512	0.1919	0.0706	0.059
Mof_O 	O 	0.432	0.1035	0.062	-0.617
Mof_In	In	0.99397	0.42946	0.97328	2.455
Mof_O 	O 	0.97315	0.50139	0.94428	-0.929
Mof_O 	O 	0.0222	0.3626	0.0035	-0.709
Mof_O 	O 	0.9562	0.3437	0.0431	-0.585
Mof_O 	O 	0.0631	0.48485	0.88896	-0.629
Mof_O 	O 	0.034	0.4085	0.9095	-0.627
Mof_C 	C 	0.0013	0.3395	0.0343	0.595
Mof_C 	C 	0.0201	0.2898	0.0472	-0.21
Mof_C 	C 	0.9896	0.2618	0.0784	0.087
Mof_H 	H 	0.9613	0.2728	0.0943	-0.023
Mof_C 	C 	0.0118	0.2083	0.0816	-0.136
Mof_H 	H 	0.9913	0.1813	0.0871	0.069
Mof_C 	C 	0.0643	0.2013	0.0758	0.08
Mof_C 	C 	0.0888	0.2317	0.0468	-0.169
Mof_H 	H 	0.1204	0.2238	0.0362	0.084
Mof_C 	C 	0.0667	0.2757	0.0322	0.117
Mof_H 	H 	0.0842	0.2965	0.0113	0
Mof_C 	C 	0.0893	0.155	0.0932	0.011
Mof_C 	C 	0.1281	0.1367	0.071	-0.08
Mof_H 	H 	0.1391	0.1518	0.0423	0.052
Mof_C 	C 	0.0613	0.4402	0.8821	0.593
Mof_C 	C 	0.08	0.4182	0.8351	-0.526
Mof_C 	C 	0.0749	0.3702	0.8243	0.489
Mof_H 	H 	0.0593	0.3497	0.847	-0.125
Mof_C 	C 	0.0908	0.3514	0.7836	-0.534
Mof_H 	H 	0.084	0.3187	0.7756	0.209
Mof_C 	C 	0.1191	0.3817	0.751	0.407
Mof_C 	C 	0.1229	0.4291	0.7612	-0.605
Mof_H 	H 	0.1373	0.4507	0.7387	0.232
Mof_C 	C 	0.1061	0.445	0.8028	0.528
Mof_H 	H 	0.1127	0.4776	0.8111	-0.168
Mof_C 	C 	0.1399	0.3609	0.7013	-0.25
Mof_C 	C 	0.1208	0.319	0.6804	0.173
Mof_H 	H 	0.0939	0.304	0.6953	-0.044
Mof_C 	C 	0.8519	0.37	0.8763	0.038
Mof_H 	H 	0.8794	0.3865	0.8644	0.028
Mof_O 	O 	0.8763	0.3861	0.0084	-0.499
Mof_C 	C 	0.8936	0.3769	0.9589	0.37
Mof_C 	C 	0.7434	0.3167	0.8225	0.038
Mof_C 	C 	0.7231	0.3442	0.7819	-0.108
Mof_H 	H 	0.7356	0.3748	0.7728	0.063
Mof_C 	C 	0.8535	0.3615	0.9283	-0.127
Mof_C 	C 	0.8149	0.3368	0.954	0.036
Mof_H 	H 	0.8135	0.33	0.9876	0.005
Mof_C 	C 	0.8162	0.3582	0.8386	-0.116
Mof_H 	H 	0.8175	0.3649	0.805	0.066
Mof_C 	C 	0.7788	0.3338	0.8657	0.041
Mof_C 	C 	0.7789	0.3246	0.9176	-0.102
Mof_H 	H 	0.7512	0.3081	0.9294	0.059
Mof_O 	O 	0.932	0.3965	0.938	-0.617
Mof_In	In	0.52672	0.00603	0.92946	2.452
Mof_O 	O 	0.55572	0.02685	0.00139	-0.929
Mof_O 	O 	0.4965	0.9778	0.8626	-0.709
Mof_O 	O 	0.4569	0.0438	0.8437	-0.585
Mof_O 	O 	0.61104	0.9369	0.98485	-0.629
Mof_O 	O 	0.5905	0.966	0.9085	-0.627
Mof_C 	C 	0.4657	0.9987	0.8395	0.595
Mof_C 	C 	0.4528	0.9799	0.7898	-0.21
Mof_C 	C 	0.4216	0.0104	0.7618	0.086
Mof_H 	H 	0.4057	0.0387	0.7728	-0.023
Mof_C 	C 	0.4184	0.9882	0.7083	-0.135
Mof_H 	H 	0.4129	0.0087	0.6813	0.069
Mof_C 	C 	0.4242	0.9357	0.7013	0.08
Mof_C 	C 	0.4532	0.9112	0.7317	-0.169
Mof_H 	H 	0.4638	0.8796	0.7238	0.084
Mof_C 	C 	0.4678	0.9333	0.7757	0.116
Mof_H 	H 	0.4887	0.9158	0.7965	0
Mof_C 	C 	0.4068	0.9107	0.655	0.011
Mof_C 	C 	0.429	0.8719	0.6367	-0.08
Mof_H 	H 	0.4577	0.8609	0.6518	0.052
Mof_C 	C 	0.6179	0.9387	0.9402	0.593
Mof_C 	C 	0.6649	0.92	0.9182	-0.525
Mof_C 	C 	0.6757	0.9251	0.8702	0.489
Mof_H 	H 	0.653	0.9407	0.8497	-0.125
Mof_C 	C 	0.7164	0.9092	0.8514	-0.533
Mof_H 	H 	0.7244	0.916	0.8187	0.209
Mof_C 	C 	0.749	0.8809	0.8817	0.407
Mof_C 	C 	0.7388	0.8771	0.9291	-0.604
Mof_H 	H 	0.7613	0.8627	0.9507	0.232
Mof_C 	C 	0.6972	0.8939	0.945	0.527
Mof_H 	H 	0.6889	0.8873	0.9776	-0.168
Mof_C 	C 	0.7987	0.8601	0.8609	-0.249
Mof_C 	C 	0.8196	0.8792	0.819	0.173
Mof_H 	H 	0.8047	0.9061	0.804	-0.043
Mof_C 	C 	0.6237	0.1481	0.87	0.038
Mof_H 	H 	0.6356	0.1206	0.8865	0.028
Mof_O 	O 	0.4916	0.1237	0.8861	-0.499
Mof_C 	C 	0.5411	0.1064	0.8769	0.37
Mof_C 	C 	0.6775	0.2566	0.8167	0.038
Mof_C 	C 	0.7181	0.2769	0.8442	-0.108
Mof_H 	H 	0.7272	0.2644	0.8748	0.063
Mof_C 	C 	0.5717	0.1465	0.8615	-0.127
Mof_C 	C 	0.546	0.1851	0.8368	0.036
Mof_H 	H 	0.5124	0.1865	0.83	0.005
Mof_C 	C 	0.6614	0.1838	0.8582	-0.116
Mof_H 	H 	0.695	0.1825	0.8649	0.066
Mof_C 	C 	0.6343	0.2212	0.8338	0.041
Mof_C 	C 	0.5824	0.2211	0.8246	-0.102
Mof_H 	H 	0.5706	0.2488	0.8081	0.059
Mof_O 	O 	0.562	0.068	0.8965	-0.617
Mof_In	In	0.47328	0.50603	0.57054	2.453
Mof_O 	O 	0.44428	0.52685	0.49861	-0.929
Mof_O 	O 	0.5035	0.4778	0.6374	-0.709
Mof_O 	O 	0.5431	0.5438	0.6563	-0.585
Mof_O 	O 	0.38896	0.4369	0.51515	-0.629
Mof_O 	O 	0.4095	0.466	0.5915	-0.627
Mof_C 	C 	0.5343	0.4987	0.6605	0.595
Mof_C 	C 	0.5472	0.4799	0.7102	-0.21
Mof_C 	C 	0.5784	0.5104	0.7382	0.087
Mof_H 	H 	0.5943	0.5387	0.7272	-0.023
Mof_C 	C 	0.5816	0.4882	0.7917	-0.136
Mof_H 	H 	0.5871	0.5087	0.8187	0.069
Mof_C 	C 	0.5758	0.4357	0.7987	0.08
Mof_C 	C 	0.5468	0.4112	0.7683	-0.169
Mof_H 	H 	0.5362	0.3796	0.7762	0.084
Mof_C 	C 	0.5322	0.4333	0.7243	0.117
Mof_H 	H 	0.5113	0.4158	0.7035	0
Mof_C 	C 	0.5932	0.4107	0.845	0.011
Mof_C 	C 	0.571	0.3719	0.8633	-0.08
Mof_H 	H 	0.5423	0.3609	0.8482	0.052
Mof_C 	C 	0.3821	0.4387	0.5598	0.593
Mof_C 	C 	0.3351	0.42	0.5818	-0.526
Mof_C 	C 	0.3243	0.4251	0.6298	0.489
Mof_H 	H 	0.347	0.4407	0.6503	-0.125
Mof_C 	C 	0.2836	0.4092	0.6486	-0.534
Mof_H 	H 	0.2756	0.416	0.6813	0.209
Mof_C 	C 	0.251	0.3809	0.6183	0.407
Mof_C 	C 	0.2612	0.3771	0.5709	-0.605
Mof_H 	H 	0.2387	0.3627	0.5493	0.232
Mof_C 	C 	0.3028	0.3939	0.555	0.528
Mof_H 	H 	0.3111	0.3873	0.5224	-0.168
Mof_C 	C 	0.2013	0.3601	0.6391	-0.25
Mof_C 	C 	0.1804	0.3792	0.681	0.173
Mof_H 	H 	0.1953	0.4061	0.696	-0.044
Mof_C 	C 	0.3763	0.6481	0.63	0.038
Mof_H 	H 	0.3644	0.6206	0.6135	0.028
Mof_O 	O 	0.5084	0.6237	0.6139	-0.499
Mof_C 	C 	0.4589	0.6064	0.6231	0.37
Mof_C 	C 	0.3225	0.7566	0.6833	0.038
Mof_C 	C 	0.2819	0.7769	0.6558	-0.108
Mof_H 	H 	0.2728	0.7644	0.6252	0.063
Mof_C 	C 	0.4283	0.6465	0.6385	-0.127
Mof_C 	C 	0.454	0.6851	0.6632	0.036
Mof_H 	H 	0.4876	0.6865	0.67	0.005
Mof_C 	C 	0.3386	0.6838	0.6418	-0.116
Mof_H 	H 	0.305	0.6825	0.6351	0.066
Mof_C 	C 	0.3657	0.7212	0.6662	0.041
Mof_C 	C 	0.4176	0.7211	0.6754	-0.102
Mof_H 	H 	0.4294	0.7488	0.6919	0.059
Mof_O 	O 	0.438	0.568	0.6035	-0.617
Mof_In	In	0.02672	0.49397	0.07054	2.453
Mof_O 	O 	0.05572	0.47315	0.99861	-0.929
Mof_O 	O 	0.9965	0.5222	0.1374	-0.709
Mof_O 	O 	0.9569	0.4562	0.1563	-0.585
Mof_O 	O 	0.11104	0.5631	0.01515	-0.629
Mof_O 	O 	0.0905	0.534	0.0915	-0.627
Mof_C 	C 	0.9657	0.5013	0.1605	0.595
Mof_C 	C 	0.9528	0.5201	0.2102	-0.21
Mof_C 	C 	0.9216	0.4896	0.2382	0.087
Mof_H 	H 	0.9057	0.4613	0.2272	-0.023
Mof_C 	C 	0.9184	0.5118	0.2917	-0.136
Mof_H 	H 	0.9129	0.4913	0.3187	0.069
Mof_C 	C 	0.9242	0.5643	0.2987	0.08
Mof_C 	C 	0.9532	0.5888	0.2683	-0.169
Mof_H 	H 	0.9638	0.6204	0.2762	0.084
Mof_C 	C 	0.9678	0.5667	0.2243	0.117
Mof_H 	H 	0.9887	0.5842	0.2035	0
Mof_C 	C 	0.9068	0.5893	0.345	0.011
Mof_C 	C 	0.929	0.6281	0.3633	-0.08
Mof_H 	H 	0.9577	0.6391	0.3482	0.052
Mof_C 	C 	0.1179	0.5613	0.0598	0.593
Mof_C 	C 	0.1649	0.58	0.0818	-0.526
Mof_C 	C 	0.1757	0.5749	0.1298	0.489
Mof_H 	H 	0.153	0.5593	0.1503	-0.125
Mof_C 	C 	0.2164	0.5908	0.1486	-0.533
Mof_H 	H 	0.2244	0.584	0.1813	0.209
Mof_C 	C 	0.249	0.6191	0.1183	0.407
Mof_C 	C 	0.2388	0.6229	0.0709	-0.604
Mof_H 	H 	0.2613	0.6373	0.0493	0.232
Mof_C 	C 	0.1972	0.6061	0.055	0.528
Mof_H 	H 	0.1889	0.6127	0.0224	-0.168
Mof_C 	C 	0.2987	0.6399	0.1391	-0.25
Mof_C 	C 	0.3196	0.6208	0.181	0.173
Mof_H 	H 	0.3047	0.5939	0.196	-0.044
Mof_C 	C 	0.1237	0.3519	0.13	0.038
Mof_H 	H 	0.1356	0.3794	0.1135	0.028
Mof_O 	O 	0.9916	0.3763	0.1139	-0.499
Mof_C 	C 	0.0411	0.3936	0.1231	0.37
Mof_C 	C 	0.1775	0.2434	0.1833	0.038
Mof_C 	C 	0.2181	0.2231	0.1558	-0.108
Mof_H 	H 	0.2272	0.2356	0.1252	0.063
Mof_C 	C 	0.0717	0.3535	0.1385	-0.127
Mof_C 	C 	0.046	0.3149	0.1632	0.036
Mof_H 	H 	0.0124	0.3135	0.17	0.005
Mof_C 	C 	0.1614	0.3162	0.1418	-0.116
Mof_H 	H 	0.195	0.3175	0.1351	0.066
Mof_C 	C 	0.1343	0.2788	0.1662	0.041
Mof_C 	C 	0.0824	0.2789	0.1754	-0.102
Mof_H 	H 	0.0706	0.2512	0.1919	0.059
Mof_O 	O 	0.062	0.432	0.1035	-0.617
Mof_In	In	0.97328	0.99397	0.42946	2.455
Mof_O 	O 	0.94428	0.97315	0.50139	-0.929
Mof_O 	O 	0.0035	0.0222	0.3626	-0.709
Mof_O 	O 	0.0431	0.9562	0.3437	-0.585
Mof_O 	O 	0.88896	0.0631	0.48485	-0.629
Mof_O 	O 	0.9095	0.034	0.4085	-0.627
Mof_C 	C 	0.0343	0.0013	0.3395	0.595
Mof_C 	C 	0.0472	0.0201	0.2898	-0.21
Mof_C 	C 	0.0784	0.9896	0.2618	0.087
Mof_H 	H 	0.0943	0.9613	0.2728	-0.023
Mof_C 	C 	0.0816	0.0118	0.2083	-0.136
Mof_H 	H 	0.0871	0.9913	0.1813	0.069
Mof_C 	C 	0.0758	0.0643	0.2013	0.08
Mof_C 	C 	0.0468	0.0888	0.2317	-0.169
Mof_H 	H 	0.0362	0.1204	0.2238	0.084
Mof_C 	C 	0.0322	0.0667	0.2757	0.117
Mof_H 	H 	0.0113	0.0842	0.2965	0
Mof_C 	C 	0.0932	0.0893	0.155	0.011
Mof_C 	C 	0.071	0.1281	0.1367	-0.08
Mof_H 	H 	0.0423	0.1391	0.1518	0.052
Mof_C 	C 	0.8821	0.0613	0.4402	0.593
Mof_C 	C 	0.8351	0.08	0.4182	-0.526
Mof_C 	C 	0.8243	0.0749	0.3702	0.489
Mof_H 	H 	0.847	0.0593	0.3497	-0.125
Mof_C 	C 	0.7836	0.0908	0.3514	-0.534
Mof_H 	H 	0.7756	0.084	0.3187	0.209
Mof_C 	C 	0.751	0.1191	0.3817	0.407
Mof_C 	C 	0.7612	0.1229	0.4291	-0.605
Mof_H 	H 	0.7387	0.1373	0.4507	0.232
Mof_C 	C 	0.8028	0.1061	0.445	0.528
Mof_H 	H 	0.8111	0.1127	0.4776	-0.168
Mof_C 	C 	0.7013	0.1399	0.3609	-0.25
Mof_C 	C 	0.6804	0.1208	0.319	0.173
Mof_H 	H 	0.6953	0.0939	0.304	-0.044
Mof_C 	C 	0.8763	0.8519	0.37	0.038
Mof_H 	H 	0.8644	0.8794	0.3865	0.028
Mof_O 	O 	0.0084	0.8763	0.3861	-0.499
Mof_C 	C 	0.9589	0.8936	0.3769	0.37
Mof_C 	C 	0.8225	0.7434	0.3167	0.038
Mof_C 	C 	0.7819	0.7231	0.3442	-0.108
Mof_H 	H 	0.7728	0.7356	0.3748	0.063
Mof_C 	C 	0.9283	0.8535	0.3615	-0.127
Mof_C 	C 	0.954	0.8149	0.3368	0.036
Mof_H 	H 	0.9876	0.8135	0.33	0.005
Mof_C 	C 	0.8386	0.8162	0.3582	-0.116
Mof_H 	H 	0.805	0.8175	0.3649	0.066
Mof_C 	C 	0.8657	0.7788	0.3338	0.041
Mof_C 	C 	0.9176	0.7789	0.3246	-0.102
Mof_H 	H 	0.9294	0.7512	0.3081	0.059
Mof_O 	O 	0.938	0.932	0.3965	-0.617
Mof_Pr	Pr	0.0524	0.5524	0.9476	2.056
Mof_Pr	Pr	0.90984	0.40984	0.09016	2.243
Mof_O 	O 	0.96137	0.46137	0.03863	-1.323
Mof_Pr	Pr	0.4476	0.4476	0.4476	2.056
Mof_Pr	Pr	0.59016	0.59016	0.59016	2.243
Mof_O 	O 	0.53863	0.53863	0.53863	-1.323
Mof_Pr	Pr	0.9476	0.0524	0.5524	2.056
Mof_Pr	Pr	0.09016	0.90984	0.40984	2.243
Mof_O 	O 	0.03863	0.96137	0.46137	-1.323
Mof_Pr	Pr	0.5524	0.9476	0.0524	2.056
Mof_Pr	Pr	0.40984	0.09016	0.90984	2.243
Mof_O 	O 	0.46137	0.03863	0.96137	-1.323
_end
