# CIF file generated by openbabel 3.1.0, see https://openbabel.org
data_I
_chemical_name_common 'image0'
_cell_length_a 12.7949
_cell_length_b 8.2582
_cell_length_c 18.2006
_cell_angle_alpha 90
_cell_angle_beta 107.778
_cell_angle_gamma 90
_space_group_name_H-M_alt 'P 1'
_space_group_name_Hall 'P 1'
loop_
    _symmetry_equiv_pos_as_xyz
    x,y,z
loop_
    _atom_site_label
    _atom_site_type_symbol
    _atom_site_fract_x
    _atom_site_fract_y
    _atom_site_fract_z
    _atom_site_occupancy
    Co1      Co       0.25856    0.80963    0.55834    1.000
    O1       O        0.41652    0.75540    0.56480    1.000
    O2       O        0.44277    0.49930    0.60903    1.000
    O3       O        0.61079    0.75380    0.53536    1.000
    O4       O        0.26889    0.66110    0.18659    1.000
    O5       O        0.11813    0.62870    0.08973    1.000
    O6       O        0.70204    0.95090    0.45467    1.000
    O7       O        0.19615    0.78840    0.44080    1.000
    O8       O        0.14888    0.70520    0.28856    1.000
    O9       O        0.87151    0.85880    0.51962    1.000
    O10      O        0.01528    0.82840    0.42325    1.000
    C1       C        0.47300    0.62780    0.58428    1.000
    C2       C        0.58630    0.63220    0.57905    1.000
    C3       C        0.67590    0.54370    0.61170    1.000
    H1       H        0.68010    0.45390    0.64330    1.000
    C4       C        0.76270    0.61110    0.58972    1.000
    H2       H        0.83510    0.57520    0.60440    1.000
    C5       C        0.72120    0.73760    0.54331    1.000
    C6       C        0.16710    0.64570    0.16198    1.000
    C7       C        0.09810    0.66320    0.21312    1.000
    C8       C        0.98800    0.66240    0.19849    1.000
    H3       H        0.93570    0.63680    0.15190    1.000
    C9       C        0.96790    0.70810    0.26766    1.000
    H4       H        0.89960    0.71940    0.27530    1.000
    C10      C        0.06670    0.73250    0.32072    1.000
    C11      C        0.09570    0.78770    0.40173    1.000
    C12      C        0.76910    0.85810    0.50270    1.000
    Co2      Co       0.74144    0.30963    0.94166    1.000
    O11      O        0.58348    0.25540    0.93520    1.000
    O12      O        0.55723    0.99930    0.89097    1.000
    O13      O        0.38921    0.25380    0.96464    1.000
    O14      O        0.73111    0.16110    0.31341    1.000
    O15      O        0.88187    0.12870    0.41027    1.000
    O16      O        0.29796    0.45090    0.04533    1.000
    O17      O        0.80385    0.28840    0.05920    1.000
    O18      O        0.85112    0.20520    0.21144    1.000
    O19      O        0.12849    0.35880    0.98038    1.000
    O20      O        0.98472    0.32840    0.07675    1.000
    C13      C        0.52700    0.12780    0.91572    1.000
    C14      C        0.41370    0.13220    0.92095    1.000
    C15      C        0.32410    0.04370    0.88830    1.000
    H5       H        0.31990    0.95390    0.85670    1.000
    C16      C        0.23730    0.11110    0.91028    1.000
    H6       H        0.16490    0.07520    0.89560    1.000
    C17      C        0.27880    0.23760    0.95669    1.000
    C18      C        0.83290    0.14570    0.33802    1.000
    C19      C        0.90190    0.16320    0.28688    1.000
    C20      C        0.01200    0.16240    0.30151    1.000
    H7       H        0.06430    0.13680    0.34810    1.000
    C21      C        0.03210    0.20810    0.23234    1.000
    H8       H        0.10040    0.21940    0.22470    1.000
    C22      C        0.93330    0.23250    0.17928    1.000
    C23      C        0.90430    0.28770    0.09827    1.000
    C24      C        0.23090    0.35810    0.99730    1.000
    Co3      Co       0.74144    0.19037    0.44166    1.000
    O21      O        0.58348    0.24460    0.43520    1.000
    O22      O        0.55723    0.50070    0.39097    1.000
    O23      O        0.38921    0.24620    0.46464    1.000
    O24      O        0.73111    0.33890    0.81341    1.000
    O25      O        0.88187    0.37130    0.91027    1.000
    O26      O        0.29796    0.04910    0.54533    1.000
    O27      O        0.80385    0.21160    0.55920    1.000
    O28      O        0.85112    0.29480    0.71144    1.000
    O29      O        0.12849    0.14120    0.48038    1.000
    O30      O        0.98472    0.17160    0.57675    1.000
    C25      C        0.52700    0.37220    0.41572    1.000
    C26      C        0.41370    0.36780    0.42095    1.000
    C27      C        0.32410    0.45630    0.38830    1.000
    H9       H        0.31990    0.54610    0.35670    1.000
    C28      C        0.23730    0.38890    0.41028    1.000
    H10      H        0.16490    0.42480    0.39560    1.000
    C29      C        0.27880    0.26240    0.45669    1.000
    C30      C        0.83290    0.35430    0.83802    1.000
    C31      C        0.90190    0.33680    0.78688    1.000
    C32      C        0.01200    0.33760    0.80151    1.000
    H11      H        0.06430    0.36320    0.84810    1.000
    C33      C        0.03210    0.29190    0.73234    1.000
    H12      H        0.10040    0.28060    0.72470    1.000
    C34      C        0.93330    0.26750    0.67928    1.000
    C35      C        0.90430    0.21230    0.59827    1.000
    C36      C        0.23090    0.14190    0.49730    1.000
    Co4      Co       0.25856    0.69037    0.05834    1.000
    O31      O        0.41652    0.74460    0.06480    1.000
    O32      O        0.44277    0.00070    0.10903    1.000
    O33      O        0.61079    0.74620    0.03536    1.000
    O34      O        0.26889    0.83890    0.68659    1.000
    O35      O        0.11813    0.87130    0.58973    1.000
    O36      O        0.70204    0.54910    0.95467    1.000
    O37      O        0.19615    0.71160    0.94080    1.000
    O38      O        0.14888    0.79480    0.78856    1.000
    O39      O        0.87151    0.64120    0.01962    1.000
    O40      O        0.01528    0.67160    0.92325    1.000
    C37      C        0.47300    0.87220    0.08428    1.000
    C38      C        0.58630    0.86780    0.07905    1.000
    C39      C        0.67590    0.95630    0.11170    1.000
    H13      H        0.68010    0.04610    0.14330    1.000
    C40      C        0.76270    0.88890    0.08972    1.000
    H14      H        0.83510    0.92480    0.10440    1.000
    C41      C        0.72120    0.76240    0.04331    1.000
    C42      C        0.16710    0.85430    0.66198    1.000
    C43      C        0.09810    0.83680    0.71312    1.000
    C44      C        0.98800    0.83760    0.69849    1.000
    H15      H        0.93570    0.86320    0.65190    1.000
    C45      C        0.96790    0.79190    0.76766    1.000
    H16      H        0.89960    0.78060    0.77530    1.000
    C46      C        0.06670    0.76750    0.82072    1.000
    C47      C        0.09570    0.71230    0.90173    1.000
    C48      C        0.76910    0.64190    0.00270    1.000
    Co5      Co       0.00000    0.00000    0.50000    1.000
    Co6      Co       0.00000    0.50000    0.00000    1.000
