# CIF file generated by openbabel 3.1.0, see https://openbabel.org
data_I
_chemical_name_common 'image0'
_cell_length_a 36.1601
_cell_length_b 36.1601
_cell_length_c 36.1601
_cell_angle_alpha 90
_cell_angle_beta 90
_cell_angle_gamma 90
_space_group_name_H-M_alt 'P 1'
_space_group_name_Hall 'P 1'
loop_
    _symmetry_equiv_pos_as_xyz
    x,y,z
loop_
    _atom_site_label
    _atom_site_type_symbol
    _atom_site_fract_x
    _atom_site_fract_y
    _atom_site_fract_z
    _atom_site_occupancy
    Cu1      Cu       0.08624    0.67345    0.32873    1.000
    Cu2      Cu       0.06146    0.62778    0.37436    1.000
    O1       O        0.11019    0.63401    0.30952    1.000
    O2       O        0.09280    0.59429    0.35235    1.000
    O3       O        0.94488    0.20613    0.14711    1.000
    O4       O        0.96954    0.16510    0.10944    1.000
    O5       O        0.18058    0.36218    0.37908    1.000
    O6       O        0.14399    0.40512    0.40230    1.000
    O7       O        0.15956    0.19914    0.95471    1.000
    O8       O        0.11543    0.16086    0.97221    1.000
    N1       N        0.17605    0.48127    0.25006    1.000
    N2       N        0.08879    0.28896    0.08779    1.000
    C1       C        0.11083    0.60153    0.32302    1.000
    C2       C        0.96868    0.19765    0.12265    1.000
    C3       C        0.16630    0.39433    0.37745    1.000
    C4       C        0.13325    0.19088    0.97647    1.000
    C5       C        0.13144    0.57193    0.30368    1.000
    C6       C        0.14195    0.53936    0.32262    1.000
    C7       C        0.15847    0.51102    0.30225    1.000
    C8       C        0.16329    0.51349    0.26443    1.000
    C9       C        0.15319    0.54527    0.24509    1.000
    C10      C        0.13779    0.57480    0.26505    1.000
    C11      C        0.17409    0.41798    0.34519    1.000
    C12      C        0.16515    0.45610    0.34518    1.000
    C13      C        0.16889    0.47564    0.31202    1.000
    C14      C        0.17989    0.45856    0.27969    1.000
    C15      C        0.18914    0.42106    0.27924    1.000
    C16      C        0.18690    0.40110    0.31227    1.000
    C17      C        0.12328    0.21652    0.00648    1.000
    C18      C        0.08951    0.21228    0.02558    1.000
    C19      C        0.08042    0.23850    0.05221    1.000
    C20      C        0.10339    0.26773    0.06063    1.000
    C21      C        0.13736    0.27209    0.04291    1.000
    C22      C        0.14728    0.24611    0.01585    1.000
    C23      C        0.99677    0.22507    0.11127    1.000
    C24      C        0.02115    0.21723    0.08177    1.000
    C25      C        0.05054    0.24127    0.07555    1.000
    C26      C        0.05639    0.27234    0.09689    1.000
    C27      C        0.03232    0.28135    0.12568    1.000
    C28      C        0.00226    0.25761    0.13265    1.000
    C29      C        0.10544    0.32066    0.10465    1.000
    C30      C        0.11602    0.31950    0.14184    1.000
    C31      C        0.13170    0.35047    0.15862    1.000
    C32      C        0.13743    0.38325    0.13839    1.000
    C33      C        0.12825    0.38361    0.10052    1.000
    C34      C        0.11208    0.35264    0.08390    1.000
    C35      C        0.16921    0.46766    0.21334    1.000
    C36      C        0.13246    0.46509    0.20134    1.000
    C37      C        0.12258    0.43973    0.17403    1.000
    C38      C        0.14942    0.41667    0.15785    1.000
    C39      C        0.18685    0.42245    0.16700    1.000
    C40      C        0.19655    0.44738    0.19489    1.000
    H1       H        0.13683    0.53607    0.35192    1.000
    H2       H        0.15680    0.54719    0.21544    1.000
    H3       H        0.12938    0.59935    0.25010    1.000
    H4       H        0.15434    0.46955    0.36963    1.000
    H5       H        0.19715    0.40705    0.25411    1.000
    H6       H        0.19330    0.37186    0.31163    1.000
    H7       H        0.07063    0.18992    0.01930    1.000
    H8       H        0.15567    0.29481    0.04955    1.000
    H9       H        0.17365    0.24905    0.00219    1.000
    H10      H        0.01844    0.19228    0.06545    1.000
    H11      H        0.03705    0.30529    0.14297    1.000
    H12      H        0.98413    0.26391    0.15560    1.000
    H13      H        0.11089    0.29495    0.15817    1.000
    H14      H        0.13753    0.34917    0.18793    1.000
    H15      H        0.13278    0.40807    0.08391    1.000
    H16      H        0.11088    0.48006    0.21570    1.000
    H17      H        0.09350    0.43601    0.16814    1.000
    H18      H        0.20842    0.40593    0.15444    1.000
    H19      H        0.22490    0.44849    0.20432    1.000
    H20      H        0.10428    0.35341    0.05336    1.000
    Cu3      Cu       0.41376    0.32655    0.82873    1.000
    Cu4      Cu       0.43854    0.37222    0.87436    1.000
    O9       O        0.38981    0.36599    0.80952    1.000
    O10      O        0.40720    0.40571    0.85235    1.000
    O11      O        0.55512    0.79387    0.64711    1.000
    O12      O        0.53046    0.83490    0.60944    1.000
    O13      O        0.31942    0.63782    0.87908    1.000
    O14      O        0.35601    0.59488    0.90230    1.000
    O15      O        0.34044    0.80086    0.45471    1.000
    O16      O        0.38457    0.83914    0.47221    1.000
    N3       N        0.32395    0.51873    0.75006    1.000
    N4       N        0.41121    0.71104    0.58779    1.000
    C41      C        0.38917    0.39847    0.82302    1.000
    C42      C        0.53132    0.80235    0.62265    1.000
    C43      C        0.33370    0.60567    0.87745    1.000
    C44      C        0.36675    0.80912    0.47647    1.000
    C45      C        0.36856    0.42807    0.80368    1.000
    C46      C        0.35805    0.46064    0.82262    1.000
    C47      C        0.34153    0.48898    0.80225    1.000
    C48      C        0.33671    0.48651    0.76443    1.000
    C49      C        0.34681    0.45473    0.74509    1.000
    C50      C        0.36221    0.42520    0.76505    1.000
    C51      C        0.32591    0.58202    0.84519    1.000
    C52      C        0.33485    0.54390    0.84518    1.000
    C53      C        0.33111    0.52436    0.81202    1.000
    C54      C        0.32011    0.54144    0.77969    1.000
    C55      C        0.31086    0.57894    0.77924    1.000
    C56      C        0.31310    0.59890    0.81227    1.000
    C57      C        0.37672    0.78348    0.50648    1.000
    C58      C        0.41049    0.78772    0.52558    1.000
    C59      C        0.41958    0.76150    0.55221    1.000
    C60      C        0.39661    0.73227    0.56063    1.000
    C61      C        0.36264    0.72791    0.54291    1.000
    C62      C        0.35272    0.75389    0.51585    1.000
    C63      C        0.50323    0.77493    0.61127    1.000
    C64      C        0.47885    0.78277    0.58177    1.000
    C65      C        0.44946    0.75873    0.57555    1.000
    C66      C        0.44361    0.72766    0.59689    1.000
    C67      C        0.46768    0.71865    0.62568    1.000
    C68      C        0.49774    0.74239    0.63265    1.000
    C69      C        0.39456    0.67934    0.60465    1.000
    C70      C        0.38398    0.68050    0.64184    1.000
    C71      C        0.36830    0.64953    0.65862    1.000
    C72      C        0.36257    0.61675    0.63839    1.000
    C73      C        0.37175    0.61639    0.60052    1.000
    C74      C        0.38792    0.64736    0.58390    1.000
    C75      C        0.33079    0.53234    0.71334    1.000
    C76      C        0.36754    0.53491    0.70134    1.000
    C77      C        0.37742    0.56027    0.67403    1.000
    C78      C        0.35058    0.58333    0.65785    1.000
    C79      C        0.31315    0.57755    0.66700    1.000
    C80      C        0.30345    0.55262    0.69489    1.000
    H21      H        0.36317    0.46393    0.85192    1.000
    H22      H        0.34320    0.45281    0.71544    1.000
    H23      H        0.37062    0.40065    0.75010    1.000
    H24      H        0.34566    0.53045    0.86963    1.000
    H25      H        0.30285    0.59295    0.75411    1.000
    H26      H        0.30670    0.62814    0.81163    1.000
    H27      H        0.42937    0.81008    0.51930    1.000
    H28      H        0.34433    0.70519    0.54955    1.000
    H29      H        0.32635    0.75095    0.50219    1.000
    H30      H        0.48156    0.80772    0.56545    1.000
    H31      H        0.46295    0.69471    0.64297    1.000
    H32      H        0.51587    0.73609    0.65560    1.000
    H33      H        0.38911    0.70505    0.65817    1.000
    H34      H        0.36247    0.65083    0.68793    1.000
    H35      H        0.36722    0.59193    0.58391    1.000
    H36      H        0.38912    0.51994    0.71570    1.000
    H37      H        0.40650    0.56399    0.66814    1.000
    H38      H        0.29158    0.59407    0.65444    1.000
    H39      H        0.27510    0.55151    0.70432    1.000
    H40      H        0.39572    0.64659    0.55336    1.000
    Cu5      Cu       0.91376    0.17345    0.17127    1.000
    Cu6      Cu       0.93854    0.12778    0.12564    1.000
    O17      O        0.88981    0.13401    0.19048    1.000
    O18      O        0.90720    0.09429    0.14765    1.000
    O19      O        0.05512    0.70613    0.35289    1.000
    O20      O        0.03046    0.66510    0.39056    1.000
    O21      O        0.81942    0.86218    0.12092    1.000
    O22      O        0.85601    0.90512    0.09770    1.000
    O23      O        0.84044    0.69914    0.54529    1.000
    O24      O        0.88457    0.66086    0.52779    1.000
    N5       N        0.82395    0.98127    0.24994    1.000
    N6       N        0.91121    0.78896    0.41221    1.000
    C81      C        0.88917    0.10153    0.17698    1.000
    C82      C        0.03132    0.69765    0.37735    1.000
    C83      C        0.83370    0.89433    0.12255    1.000
    C84      C        0.86675    0.69088    0.52353    1.000
    C85      C        0.86856    0.07193    0.19632    1.000
    C86      C        0.85805    0.03936    0.17738    1.000
    C87      C        0.84153    0.01102    0.19775    1.000
    C88      C        0.83671    0.01349    0.23557    1.000
    C89      C        0.84681    0.04527    0.25491    1.000
    C90      C        0.86221    0.07480    0.23495    1.000
    C91      C        0.82591    0.91798    0.15481    1.000
    C92      C        0.83485    0.95610    0.15482    1.000
    C93      C        0.83111    0.97564    0.18798    1.000
    C94      C        0.82011    0.95856    0.22031    1.000
    C95      C        0.81086    0.92106    0.22076    1.000
    C96      C        0.81310    0.90110    0.18773    1.000
    C97      C        0.87672    0.71652    0.49352    1.000
    C98      C        0.91049    0.71228    0.47442    1.000
    C99      C        0.91958    0.73850    0.44779    1.000
    C100     C        0.89661    0.76773    0.43937    1.000
    C101     C        0.86264    0.77209    0.45709    1.000
    C102     C        0.85272    0.74611    0.48415    1.000
    C103     C        0.00323    0.72507    0.38873    1.000
    C104     C        0.97885    0.71723    0.41823    1.000
    C105     C        0.94946    0.74127    0.42445    1.000
    C106     C        0.94361    0.77234    0.40311    1.000
    C107     C        0.96768    0.78135    0.37432    1.000
    C108     C        0.99774    0.75761    0.36735    1.000
    C109     C        0.89456    0.82066    0.39535    1.000
    C110     C        0.88398    0.81950    0.35816    1.000
    C111     C        0.86830    0.85047    0.34138    1.000
    C112     C        0.86257    0.88325    0.36161    1.000
    C113     C        0.87175    0.88361    0.39948    1.000
    C114     C        0.88792    0.85264    0.41610    1.000
    C115     C        0.83079    0.96766    0.28666    1.000
    C116     C        0.86754    0.96509    0.29866    1.000
    C117     C        0.87742    0.93973    0.32597    1.000
    C118     C        0.85058    0.91667    0.34215    1.000
    C119     C        0.81315    0.92245    0.33300    1.000
    C120     C        0.80345    0.94738    0.30511    1.000
    H41      H        0.86317    0.03607    0.14808    1.000
    H42      H        0.84320    0.04719    0.28456    1.000
    H43      H        0.87062    0.09935    0.24990    1.000
    H44      H        0.84566    0.96955    0.13037    1.000
    H45      H        0.80285    0.90705    0.24589    1.000
    H46      H        0.80670    0.87186    0.18837    1.000
    H47      H        0.92937    0.68992    0.48070    1.000
    H48      H        0.84433    0.79481    0.45045    1.000
    H49      H        0.82635    0.74905    0.49781    1.000
    H50      H        0.98156    0.69228    0.43455    1.000
    H51      H        0.96295    0.80529    0.35703    1.000
    H52      H        0.01587    0.76391    0.34440    1.000
    H53      H        0.88911    0.79495    0.34183    1.000
    H54      H        0.86247    0.84917    0.31207    1.000
    H55      H        0.86722    0.90807    0.41609    1.000
    H56      H        0.88912    0.98006    0.28430    1.000
    H57      H        0.90650    0.93601    0.33186    1.000
    H58      H        0.79158    0.90593    0.34556    1.000
    H59      H        0.77510    0.94849    0.29568    1.000
    H60      H        0.89572    0.85341    0.44664    1.000
    Cu7      Cu       0.58624    0.82655    0.67127    1.000
    Cu8      Cu       0.56146    0.87222    0.62564    1.000
    O25      O        0.61019    0.86599    0.69048    1.000
    O26      O        0.59280    0.90571    0.64765    1.000
    O27      O        0.44488    0.29387    0.85289    1.000
    O28      O        0.46954    0.33490    0.89056    1.000
    O29      O        0.68058    0.13782    0.62092    1.000
    O30      O        0.64399    0.09488    0.59770    1.000
    O31      O        0.65956    0.30086    0.04529    1.000
    O32      O        0.61543    0.33914    0.02779    1.000
    N7       N        0.67605    0.01873    0.74994    1.000
    N8       N        0.58879    0.21104    0.91221    1.000
    C121     C        0.61083    0.89847    0.67698    1.000
    C122     C        0.46868    0.30235    0.87735    1.000
    C123     C        0.66630    0.10567    0.62255    1.000
    C124     C        0.63325    0.30912    0.02353    1.000
    C125     C        0.63144    0.92807    0.69632    1.000
    C126     C        0.64195    0.96064    0.67738    1.000
    C127     C        0.65847    0.98898    0.69775    1.000
    C128     C        0.66329    0.98651    0.73557    1.000
    C129     C        0.65319    0.95473    0.75491    1.000
    C130     C        0.63779    0.92520    0.73495    1.000
    C131     C        0.67409    0.08202    0.65481    1.000
    C132     C        0.66515    0.04390    0.65482    1.000
    C133     C        0.66889    0.02436    0.68798    1.000
    C134     C        0.67989    0.04144    0.72031    1.000
    C135     C        0.68914    0.07894    0.72076    1.000
    C136     C        0.68690    0.09890    0.68773    1.000
    C137     C        0.62328    0.28348    0.99352    1.000
    C138     C        0.58951    0.28772    0.97442    1.000
    C139     C        0.58042    0.26150    0.94779    1.000
    C140     C        0.60339    0.23227    0.93937    1.000
    C141     C        0.63736    0.22791    0.95709    1.000
    C142     C        0.64728    0.25389    0.98415    1.000
    C143     C        0.49677    0.27493    0.88873    1.000
    C144     C        0.52115    0.28277    0.91823    1.000
    C145     C        0.55054    0.25873    0.92445    1.000
    C146     C        0.55639    0.22766    0.90311    1.000
    C147     C        0.53232    0.21865    0.87432    1.000
    C148     C        0.50226    0.24239    0.86735    1.000
    C149     C        0.60544    0.17934    0.89535    1.000
    C150     C        0.61602    0.18050    0.85816    1.000
    C151     C        0.63170    0.14953    0.84138    1.000
    C152     C        0.63743    0.11675    0.86161    1.000
    C153     C        0.62825    0.11639    0.89948    1.000
    C154     C        0.61208    0.14736    0.91610    1.000
    C155     C        0.66921    0.03234    0.78666    1.000
    C156     C        0.63246    0.03491    0.79866    1.000
    C157     C        0.62258    0.06027    0.82597    1.000
    C158     C        0.64942    0.08333    0.84215    1.000
    C159     C        0.68685    0.07755    0.83300    1.000
    C160     C        0.69655    0.05262    0.80511    1.000
    H61      H        0.63683    0.96393    0.64808    1.000
    H62      H        0.65680    0.95281    0.78456    1.000
    H63      H        0.62938    0.90065    0.74990    1.000
    H64      H        0.65434    0.03045    0.63037    1.000
    H65      H        0.69715    0.09295    0.74589    1.000
    H66      H        0.69330    0.12814    0.68837    1.000
    H67      H        0.57063    0.31008    0.98070    1.000
    H68      H        0.65567    0.20519    0.95045    1.000
    H69      H        0.67365    0.25095    0.99781    1.000
    H70      H        0.51844    0.30772    0.93455    1.000
    H71      H        0.53705    0.19471    0.85703    1.000
    H72      H        0.48413    0.23609    0.84440    1.000
    H73      H        0.61089    0.20505    0.84183    1.000
    H74      H        0.63753    0.15083    0.81207    1.000
    H75      H        0.63278    0.09193    0.91609    1.000
    H76      H        0.61088    0.01994    0.78430    1.000
    H77      H        0.59350    0.06399    0.83186    1.000
    H78      H        0.70842    0.09407    0.84556    1.000
    H79      H        0.72490    0.05151    0.79568    1.000
    H80      H        0.60428    0.14659    0.94664    1.000
    Cu9      Cu       0.32873    0.08624    0.67345    1.000
    Cu10     Cu       0.37436    0.06146    0.62778    1.000
    O33      O        0.30952    0.11019    0.63401    1.000
    O34      O        0.35235    0.09280    0.59429    1.000
    O35      O        0.14711    0.94488    0.20613    1.000
    O36      O        0.10944    0.96954    0.16510    1.000
    O37      O        0.37908    0.18058    0.36218    1.000
    O38      O        0.40230    0.14399    0.40512    1.000
    O39      O        0.95471    0.15956    0.19914    1.000
    O40      O        0.97221    0.11543    0.16086    1.000
    N9       N        0.25006    0.17605    0.48127    1.000
    N10      N        0.08779    0.08879    0.28896    1.000
    C161     C        0.32302    0.11083    0.60153    1.000
    C162     C        0.12265    0.96868    0.19765    1.000
    C163     C        0.37745    0.16630    0.39433    1.000
    C164     C        0.97647    0.13325    0.19088    1.000
    C165     C        0.30368    0.13144    0.57193    1.000
    C166     C        0.32262    0.14195    0.53936    1.000
    C167     C        0.30225    0.15847    0.51102    1.000
    C168     C        0.26443    0.16329    0.51349    1.000
    C169     C        0.24509    0.15319    0.54527    1.000
    C170     C        0.26505    0.13779    0.57480    1.000
    C171     C        0.34519    0.17409    0.41798    1.000
    C172     C        0.34518    0.16515    0.45610    1.000
    C173     C        0.31202    0.16889    0.47564    1.000
    C174     C        0.27969    0.17989    0.45856    1.000
    C175     C        0.27924    0.18914    0.42106    1.000
    C176     C        0.31227    0.18690    0.40110    1.000
    C177     C        0.00648    0.12328    0.21652    1.000
    C178     C        0.02558    0.08951    0.21228    1.000
    C179     C        0.05221    0.08042    0.23850    1.000
    C180     C        0.06063    0.10339    0.26773    1.000
    C181     C        0.04291    0.13736    0.27209    1.000
    C182     C        0.01585    0.14728    0.24611    1.000
    C183     C        0.11127    0.99677    0.22507    1.000
    C184     C        0.08177    0.02115    0.21723    1.000
    C185     C        0.07555    0.05054    0.24127    1.000
    C186     C        0.09689    0.05639    0.27234    1.000
    C187     C        0.12568    0.03232    0.28135    1.000
    C188     C        0.13265    0.00226    0.25761    1.000
    C189     C        0.10465    0.10544    0.32066    1.000
    C190     C        0.14184    0.11602    0.31950    1.000
    C191     C        0.15862    0.13170    0.35047    1.000
    C192     C        0.13839    0.13743    0.38325    1.000
    C193     C        0.10052    0.12825    0.38361    1.000
    C194     C        0.08390    0.11208    0.35264    1.000
    C195     C        0.21334    0.16921    0.46766    1.000
    C196     C        0.20134    0.13246    0.46509    1.000
    C197     C        0.17403    0.12258    0.43973    1.000
    C198     C        0.15785    0.14942    0.41667    1.000
    C199     C        0.16700    0.18685    0.42245    1.000
    C200     C        0.19489    0.19655    0.44738    1.000
    H81      H        0.35192    0.13683    0.53607    1.000
    H82      H        0.21544    0.15680    0.54719    1.000
    H83      H        0.25010    0.12938    0.59935    1.000
    H84      H        0.36963    0.15434    0.46955    1.000
    H85      H        0.25411    0.19715    0.40705    1.000
    H86      H        0.31163    0.19330    0.37186    1.000
    H87      H        0.01930    0.07063    0.18992    1.000
    H88      H        0.04955    0.15567    0.29481    1.000
    H89      H        0.00219    0.17365    0.24905    1.000
    H90      H        0.06545    0.01844    0.19228    1.000
    H91      H        0.14297    0.03705    0.30529    1.000
    H92      H        0.15560    0.98413    0.26391    1.000
    H93      H        0.15817    0.11089    0.29495    1.000
    H94      H        0.18793    0.13753    0.34917    1.000
    H95      H        0.08391    0.13278    0.40807    1.000
    H96      H        0.21570    0.11088    0.48006    1.000
    H97      H        0.16814    0.09350    0.43601    1.000
    H98      H        0.15444    0.20842    0.40593    1.000
    H99      H        0.20432    0.22490    0.44849    1.000
    H100     H        0.05336    0.10428    0.35341    1.000
    Cu11     Cu       0.82873    0.41376    0.32655    1.000
    Cu12     Cu       0.87436    0.43854    0.37222    1.000
    O41      O        0.80952    0.38981    0.36599    1.000
    O42      O        0.85235    0.40720    0.40571    1.000
    O43      O        0.64711    0.55512    0.79387    1.000
    O44      O        0.60944    0.53046    0.83490    1.000
    O45      O        0.87908    0.31942    0.63782    1.000
    O46      O        0.90230    0.35601    0.59488    1.000
    O47      O        0.45471    0.34044    0.80086    1.000
    O48      O        0.47221    0.38457    0.83914    1.000
    N11      N        0.75006    0.32395    0.51873    1.000
    N12      N        0.58779    0.41121    0.71104    1.000
    C201     C        0.82302    0.38917    0.39847    1.000
    C202     C        0.62265    0.53132    0.80235    1.000
    C203     C        0.87745    0.33370    0.60567    1.000
    C204     C        0.47647    0.36675    0.80912    1.000
    C205     C        0.80368    0.36856    0.42807    1.000
    C206     C        0.82262    0.35805    0.46064    1.000
    C207     C        0.80225    0.34153    0.48898    1.000
    C208     C        0.76443    0.33671    0.48651    1.000
    C209     C        0.74509    0.34681    0.45473    1.000
    C210     C        0.76505    0.36221    0.42520    1.000
    C211     C        0.84519    0.32591    0.58202    1.000
    C212     C        0.84518    0.33485    0.54390    1.000
    C213     C        0.81202    0.33111    0.52436    1.000
    C214     C        0.77969    0.32011    0.54144    1.000
    C215     C        0.77924    0.31086    0.57894    1.000
    C216     C        0.81227    0.31310    0.59890    1.000
    C217     C        0.50648    0.37672    0.78348    1.000
    C218     C        0.52558    0.41049    0.78772    1.000
    C219     C        0.55221    0.41958    0.76150    1.000
    C220     C        0.56063    0.39661    0.73227    1.000
    C221     C        0.54291    0.36264    0.72791    1.000
    C222     C        0.51585    0.35272    0.75389    1.000
    C223     C        0.61127    0.50323    0.77493    1.000
    C224     C        0.58177    0.47885    0.78277    1.000
    C225     C        0.57555    0.44946    0.75873    1.000
    C226     C        0.59689    0.44361    0.72766    1.000
    C227     C        0.62568    0.46768    0.71865    1.000
    C228     C        0.63265    0.49774    0.74239    1.000
    C229     C        0.60465    0.39456    0.67934    1.000
    C230     C        0.64184    0.38398    0.68050    1.000
    C231     C        0.65862    0.36830    0.64953    1.000
    C232     C        0.63839    0.36257    0.61675    1.000
    C233     C        0.60052    0.37175    0.61639    1.000
    C234     C        0.58390    0.38792    0.64736    1.000
    C235     C        0.71334    0.33079    0.53234    1.000
    C236     C        0.70134    0.36754    0.53491    1.000
    C237     C        0.67403    0.37742    0.56027    1.000
    C238     C        0.65785    0.35058    0.58333    1.000
    C239     C        0.66700    0.31315    0.57755    1.000
    C240     C        0.69489    0.30345    0.55262    1.000
    H101     H        0.85192    0.36317    0.46393    1.000
    H102     H        0.71544    0.34320    0.45281    1.000
    H103     H        0.75010    0.37062    0.40065    1.000
    H104     H        0.86963    0.34566    0.53045    1.000
    H105     H        0.75411    0.30285    0.59295    1.000
    H106     H        0.81163    0.30670    0.62814    1.000
    H107     H        0.51930    0.42937    0.81008    1.000
    H108     H        0.54955    0.34433    0.70519    1.000
    H109     H        0.50219    0.32635    0.75095    1.000
    H110     H        0.56545    0.48156    0.80772    1.000
    H111     H        0.64297    0.46295    0.69471    1.000
    H112     H        0.65560    0.51587    0.73609    1.000
    H113     H        0.65817    0.38911    0.70505    1.000
    H114     H        0.68793    0.36247    0.65083    1.000
    H115     H        0.58391    0.36722    0.59193    1.000
    H116     H        0.71570    0.38912    0.51994    1.000
    H117     H        0.66814    0.40650    0.56399    1.000
    H118     H        0.65444    0.29158    0.59407    1.000
    H119     H        0.70432    0.27510    0.55151    1.000
    H120     H        0.55336    0.39572    0.64659    1.000
    Cu13     Cu       0.17127    0.91376    0.17345    1.000
    Cu14     Cu       0.12564    0.93854    0.12778    1.000
    O49      O        0.19048    0.88981    0.13401    1.000
    O50      O        0.14765    0.90720    0.09429    1.000
    O51      O        0.35289    0.05512    0.70613    1.000
    O52      O        0.39056    0.03046    0.66510    1.000
    O53      O        0.12092    0.81942    0.86218    1.000
    O54      O        0.09770    0.85601    0.90512    1.000
    O55      O        0.54529    0.84044    0.69914    1.000
    O56      O        0.52779    0.88457    0.66086    1.000
    N13      N        0.24994    0.82395    0.98127    1.000
    N14      N        0.41221    0.91121    0.78896    1.000
    C241     C        0.17698    0.88917    0.10153    1.000
    C242     C        0.37735    0.03132    0.69765    1.000
    C243     C        0.12255    0.83370    0.89433    1.000
    C244     C        0.52353    0.86675    0.69088    1.000
    C245     C        0.19632    0.86856    0.07193    1.000
    C246     C        0.17738    0.85805    0.03936    1.000
    C247     C        0.19775    0.84153    0.01102    1.000
    C248     C        0.23557    0.83671    0.01349    1.000
    C249     C        0.25491    0.84681    0.04527    1.000
    C250     C        0.23495    0.86221    0.07480    1.000
    C251     C        0.15481    0.82591    0.91798    1.000
    C252     C        0.15482    0.83485    0.95610    1.000
    C253     C        0.18798    0.83111    0.97564    1.000
    C254     C        0.22031    0.82011    0.95856    1.000
    C255     C        0.22076    0.81086    0.92106    1.000
    C256     C        0.18773    0.81310    0.90110    1.000
    C257     C        0.49352    0.87672    0.71652    1.000
    C258     C        0.47442    0.91049    0.71228    1.000
    C259     C        0.44779    0.91958    0.73850    1.000
    C260     C        0.43937    0.89661    0.76773    1.000
    C261     C        0.45709    0.86264    0.77209    1.000
    C262     C        0.48415    0.85272    0.74611    1.000
    C263     C        0.38873    0.00323    0.72507    1.000
    C264     C        0.41823    0.97885    0.71723    1.000
    C265     C        0.42445    0.94946    0.74127    1.000
    C266     C        0.40311    0.94361    0.77234    1.000
    C267     C        0.37432    0.96768    0.78135    1.000
    C268     C        0.36735    0.99774    0.75761    1.000
    C269     C        0.39535    0.89456    0.82066    1.000
    C270     C        0.35816    0.88398    0.81950    1.000
    C271     C        0.34138    0.86830    0.85047    1.000
    C272     C        0.36161    0.86257    0.88325    1.000
    C273     C        0.39948    0.87175    0.88361    1.000
    C274     C        0.41610    0.88792    0.85264    1.000
    C275     C        0.28666    0.83079    0.96766    1.000
    C276     C        0.29866    0.86754    0.96509    1.000
    C277     C        0.32597    0.87742    0.93973    1.000
    C278     C        0.34215    0.85058    0.91667    1.000
    C279     C        0.33300    0.81315    0.92245    1.000
    C280     C        0.30511    0.80345    0.94738    1.000
    H121     H        0.14808    0.86317    0.03607    1.000
    H122     H        0.28456    0.84320    0.04719    1.000
    H123     H        0.24990    0.87062    0.09935    1.000
    H124     H        0.13037    0.84566    0.96955    1.000
    H125     H        0.24589    0.80285    0.90705    1.000
    H126     H        0.18837    0.80670    0.87186    1.000
    H127     H        0.48070    0.92937    0.68992    1.000
    H128     H        0.45045    0.84433    0.79481    1.000
    H129     H        0.49781    0.82635    0.74905    1.000
    H130     H        0.43455    0.98156    0.69228    1.000
    H131     H        0.35703    0.96295    0.80529    1.000
    H132     H        0.34440    0.01587    0.76391    1.000
    H133     H        0.34183    0.88911    0.79495    1.000
    H134     H        0.31207    0.86247    0.84917    1.000
    H135     H        0.41609    0.86722    0.90807    1.000
    H136     H        0.28430    0.88912    0.98006    1.000
    H137     H        0.33186    0.90650    0.93601    1.000
    H138     H        0.34556    0.79158    0.90593    1.000
    H139     H        0.29568    0.77510    0.94849    1.000
    H140     H        0.44664    0.89572    0.85341    1.000
    Cu15     Cu       0.67127    0.58624    0.82655    1.000
    Cu16     Cu       0.62564    0.56146    0.87222    1.000
    O57      O        0.69048    0.61019    0.86599    1.000
    O58      O        0.64765    0.59280    0.90571    1.000
    O59      O        0.85289    0.44488    0.29387    1.000
    O60      O        0.89056    0.46954    0.33490    1.000
    O61      O        0.62092    0.68058    0.13782    1.000
    O62      O        0.59770    0.64399    0.09488    1.000
    O63      O        0.04529    0.65956    0.30086    1.000
    O64      O        0.02779    0.61543    0.33914    1.000
    N15      N        0.74994    0.67605    0.01873    1.000
    N16      N        0.91221    0.58879    0.21104    1.000
    C281     C        0.67698    0.61083    0.89847    1.000
    C282     C        0.87735    0.46868    0.30235    1.000
    C283     C        0.62255    0.66630    0.10567    1.000
    C284     C        0.02353    0.63325    0.30912    1.000
    C285     C        0.69632    0.63144    0.92807    1.000
    C286     C        0.67738    0.64195    0.96064    1.000
    C287     C        0.69775    0.65847    0.98898    1.000
    C288     C        0.73557    0.66329    0.98651    1.000
    C289     C        0.75491    0.65319    0.95473    1.000
    C290     C        0.73495    0.63779    0.92520    1.000
    C291     C        0.65481    0.67409    0.08202    1.000
    C292     C        0.65482    0.66515    0.04390    1.000
    C293     C        0.68798    0.66889    0.02436    1.000
    C294     C        0.72031    0.67989    0.04144    1.000
    C295     C        0.72076    0.68914    0.07894    1.000
    C296     C        0.68773    0.68690    0.09890    1.000
    C297     C        0.99352    0.62328    0.28348    1.000
    C298     C        0.97442    0.58951    0.28772    1.000
    C299     C        0.94779    0.58042    0.26150    1.000
    C300     C        0.93937    0.60339    0.23227    1.000
    C301     C        0.95709    0.63736    0.22791    1.000
    C302     C        0.98415    0.64728    0.25389    1.000
    C303     C        0.88873    0.49677    0.27493    1.000
    C304     C        0.91823    0.52115    0.28277    1.000
    C305     C        0.92445    0.55054    0.25873    1.000
    C306     C        0.90311    0.55639    0.22766    1.000
    C307     C        0.87432    0.53232    0.21865    1.000
    C308     C        0.86735    0.50226    0.24239    1.000
    C309     C        0.89535    0.60544    0.17934    1.000
    C310     C        0.85816    0.61602    0.18050    1.000
    C311     C        0.84138    0.63170    0.14953    1.000
    C312     C        0.86161    0.63743    0.11675    1.000
    C313     C        0.89948    0.62825    0.11639    1.000
    C314     C        0.91610    0.61208    0.14736    1.000
    C315     C        0.78666    0.66921    0.03234    1.000
    C316     C        0.79866    0.63246    0.03491    1.000
    C317     C        0.82597    0.62258    0.06027    1.000
    C318     C        0.84215    0.64942    0.08333    1.000
    C319     C        0.83300    0.68685    0.07755    1.000
    C320     C        0.80511    0.69655    0.05262    1.000
    H141     H        0.64808    0.63683    0.96393    1.000
    H142     H        0.78456    0.65680    0.95281    1.000
    H143     H        0.74990    0.62938    0.90065    1.000
    H144     H        0.63037    0.65434    0.03045    1.000
    H145     H        0.74589    0.69715    0.09295    1.000
    H146     H        0.68837    0.69330    0.12814    1.000
    H147     H        0.98070    0.57063    0.31008    1.000
    H148     H        0.95045    0.65567    0.20519    1.000
    H149     H        0.99781    0.67365    0.25095    1.000
    H150     H        0.93455    0.51844    0.30772    1.000
    H151     H        0.85703    0.53705    0.19471    1.000
    H152     H        0.84440    0.48413    0.23609    1.000
    H153     H        0.84183    0.61089    0.20505    1.000
    H154     H        0.81207    0.63753    0.15083    1.000
    H155     H        0.91609    0.63278    0.09193    1.000
    H156     H        0.78430    0.61088    0.01994    1.000
    H157     H        0.83186    0.59350    0.06399    1.000
    H158     H        0.84556    0.70842    0.09407    1.000
    H159     H        0.79568    0.72490    0.05151    1.000
    H160     H        0.94664    0.60428    0.14659    1.000
    Cu17     Cu       0.67345    0.32873    0.08624    1.000
    Cu18     Cu       0.62778    0.37436    0.06146    1.000
    O65      O        0.63401    0.30952    0.11019    1.000
    O66      O        0.59429    0.35235    0.09280    1.000
    O67      O        0.20613    0.14711    0.94488    1.000
    O68      O        0.16510    0.10944    0.96954    1.000
    O69      O        0.36218    0.37908    0.18058    1.000
    O70      O        0.40512    0.40230    0.14399    1.000
    O71      O        0.19914    0.95471    0.15956    1.000
    O72      O        0.16086    0.97221    0.11543    1.000
    N17      N        0.48127    0.25006    0.17605    1.000
    N18      N        0.28896    0.08779    0.08879    1.000
    C321     C        0.60153    0.32302    0.11083    1.000
    C322     C        0.19765    0.12265    0.96868    1.000
    C323     C        0.39433    0.37745    0.16630    1.000
    C324     C        0.19088    0.97647    0.13325    1.000
    C325     C        0.57193    0.30368    0.13144    1.000
    C326     C        0.53936    0.32262    0.14195    1.000
    C327     C        0.51102    0.30225    0.15847    1.000
    C328     C        0.51349    0.26443    0.16329    1.000
    C329     C        0.54527    0.24509    0.15319    1.000
    C330     C        0.57480    0.26505    0.13779    1.000
    C331     C        0.41798    0.34519    0.17409    1.000
    C332     C        0.45610    0.34518    0.16515    1.000
    C333     C        0.47564    0.31202    0.16889    1.000
    C334     C        0.45856    0.27969    0.17989    1.000
    C335     C        0.42106    0.27924    0.18914    1.000
    C336     C        0.40110    0.31227    0.18690    1.000
    C337     C        0.21652    0.00648    0.12328    1.000
    C338     C        0.21228    0.02558    0.08951    1.000
    C339     C        0.23850    0.05221    0.08042    1.000
    C340     C        0.26773    0.06063    0.10339    1.000
    C341     C        0.27209    0.04291    0.13736    1.000
    C342     C        0.24611    0.01585    0.14728    1.000
    C343     C        0.22507    0.11127    0.99677    1.000
    C344     C        0.21723    0.08177    0.02115    1.000
    C345     C        0.24127    0.07555    0.05054    1.000
    C346     C        0.27234    0.09689    0.05639    1.000
    C347     C        0.28135    0.12568    0.03232    1.000
    C348     C        0.25761    0.13265    0.00226    1.000
    C349     C        0.32066    0.10465    0.10544    1.000
    C350     C        0.31950    0.14184    0.11602    1.000
    C351     C        0.35047    0.15862    0.13170    1.000
    C352     C        0.38325    0.13839    0.13743    1.000
    C353     C        0.38361    0.10052    0.12825    1.000
    C354     C        0.35264    0.08390    0.11208    1.000
    C355     C        0.46766    0.21334    0.16921    1.000
    C356     C        0.46509    0.20134    0.13246    1.000
    C357     C        0.43973    0.17403    0.12258    1.000
    C358     C        0.41667    0.15785    0.14942    1.000
    C359     C        0.42245    0.16700    0.18685    1.000
    C360     C        0.44738    0.19489    0.19655    1.000
    H161     H        0.53607    0.35192    0.13683    1.000
    H162     H        0.54719    0.21544    0.15680    1.000
    H163     H        0.59935    0.25010    0.12938    1.000
    H164     H        0.46955    0.36963    0.15434    1.000
    H165     H        0.40705    0.25411    0.19715    1.000
    H166     H        0.37186    0.31163    0.19330    1.000
    H167     H        0.18992    0.01930    0.07063    1.000
    H168     H        0.29481    0.04955    0.15567    1.000
    H169     H        0.24905    0.00219    0.17365    1.000
    H170     H        0.19228    0.06545    0.01844    1.000
    H171     H        0.30529    0.14297    0.03705    1.000
    H172     H        0.26391    0.15560    0.98413    1.000
    H173     H        0.29495    0.15817    0.11089    1.000
    H174     H        0.34917    0.18793    0.13753    1.000
    H175     H        0.40807    0.08391    0.13278    1.000
    H176     H        0.48006    0.21570    0.11088    1.000
    H177     H        0.43601    0.16814    0.09350    1.000
    H178     H        0.40593    0.15444    0.20842    1.000
    H179     H        0.44849    0.20432    0.22490    1.000
    H180     H        0.35341    0.05336    0.10428    1.000
    Cu19     Cu       0.32655    0.82873    0.41376    1.000
    Cu20     Cu       0.37222    0.87436    0.43854    1.000
    O73      O        0.36599    0.80952    0.38981    1.000
    O74      O        0.40571    0.85235    0.40720    1.000
    O75      O        0.79387    0.64711    0.55512    1.000
    O76      O        0.83490    0.60944    0.53046    1.000
    O77      O        0.63782    0.87908    0.31942    1.000
    O78      O        0.59488    0.90230    0.35601    1.000
    O79      O        0.80086    0.45471    0.34044    1.000
    O80      O        0.83914    0.47221    0.38457    1.000
    N19      N        0.51873    0.75006    0.32395    1.000
    N20      N        0.71104    0.58779    0.41121    1.000
    C361     C        0.39847    0.82302    0.38917    1.000
    C362     C        0.80235    0.62265    0.53132    1.000
    C363     C        0.60567    0.87745    0.33370    1.000
    C364     C        0.80912    0.47647    0.36675    1.000
    C365     C        0.42807    0.80368    0.36856    1.000
    C366     C        0.46064    0.82262    0.35805    1.000
    C367     C        0.48898    0.80225    0.34153    1.000
    C368     C        0.48651    0.76443    0.33671    1.000
    C369     C        0.45473    0.74509    0.34681    1.000
    C370     C        0.42520    0.76505    0.36221    1.000
    C371     C        0.58202    0.84519    0.32591    1.000
    C372     C        0.54390    0.84518    0.33485    1.000
    C373     C        0.52436    0.81202    0.33111    1.000
    C374     C        0.54144    0.77969    0.32011    1.000
    C375     C        0.57894    0.77924    0.31086    1.000
    C376     C        0.59890    0.81227    0.31310    1.000
    C377     C        0.78348    0.50648    0.37672    1.000
    C378     C        0.78772    0.52558    0.41049    1.000
    C379     C        0.76150    0.55221    0.41958    1.000
    C380     C        0.73227    0.56063    0.39661    1.000
    C381     C        0.72791    0.54291    0.36264    1.000
    C382     C        0.75389    0.51585    0.35272    1.000
    C383     C        0.77493    0.61127    0.50323    1.000
    C384     C        0.78277    0.58177    0.47885    1.000
    C385     C        0.75873    0.57555    0.44946    1.000
    C386     C        0.72766    0.59689    0.44361    1.000
    C387     C        0.71865    0.62568    0.46768    1.000
    C388     C        0.74239    0.63265    0.49774    1.000
    C389     C        0.67934    0.60465    0.39456    1.000
    C390     C        0.68050    0.64184    0.38398    1.000
    C391     C        0.64953    0.65862    0.36830    1.000
    C392     C        0.61675    0.63839    0.36257    1.000
    C393     C        0.61639    0.60052    0.37175    1.000
    C394     C        0.64736    0.58390    0.38792    1.000
    C395     C        0.53234    0.71334    0.33079    1.000
    C396     C        0.53491    0.70134    0.36754    1.000
    C397     C        0.56027    0.67403    0.37742    1.000
    C398     C        0.58333    0.65785    0.35058    1.000
    C399     C        0.57755    0.66700    0.31315    1.000
    C400     C        0.55262    0.69489    0.30345    1.000
    H181     H        0.46393    0.85192    0.36317    1.000
    H182     H        0.45281    0.71544    0.34320    1.000
    H183     H        0.40065    0.75010    0.37062    1.000
    H184     H        0.53045    0.86963    0.34566    1.000
    H185     H        0.59295    0.75411    0.30285    1.000
    H186     H        0.62814    0.81163    0.30670    1.000
    H187     H        0.81008    0.51930    0.42937    1.000
    H188     H        0.70519    0.54955    0.34433    1.000
    H189     H        0.75095    0.50219    0.32635    1.000
    H190     H        0.80772    0.56545    0.48156    1.000
    H191     H        0.69471    0.64297    0.46295    1.000
    H192     H        0.73609    0.65560    0.51587    1.000
    H193     H        0.70505    0.65817    0.38911    1.000
    H194     H        0.65083    0.68793    0.36247    1.000
    H195     H        0.59193    0.58391    0.36722    1.000
    H196     H        0.51994    0.71570    0.38912    1.000
    H197     H        0.56399    0.66814    0.40650    1.000
    H198     H        0.59407    0.65444    0.29158    1.000
    H199     H        0.55151    0.70432    0.27510    1.000
    H200     H        0.64659    0.55336    0.39572    1.000
    Cu21     Cu       0.17345    0.17127    0.91376    1.000
    Cu22     Cu       0.12778    0.12564    0.93854    1.000
    O81      O        0.13401    0.19048    0.88981    1.000
    O82      O        0.09429    0.14765    0.90720    1.000
    O83      O        0.70613    0.35289    0.05512    1.000
    O84      O        0.66510    0.39056    0.03046    1.000
    O85      O        0.86218    0.12092    0.81942    1.000
    O86      O        0.90512    0.09770    0.85601    1.000
    O87      O        0.69914    0.54529    0.84044    1.000
    O88      O        0.66086    0.52779    0.88457    1.000
    N21      N        0.98127    0.24994    0.82395    1.000
    N22      N        0.78896    0.41221    0.91121    1.000
    C401     C        0.10153    0.17698    0.88917    1.000
    C402     C        0.69765    0.37735    0.03132    1.000
    C403     C        0.89433    0.12255    0.83370    1.000
    C404     C        0.69088    0.52353    0.86675    1.000
    C405     C        0.07193    0.19632    0.86856    1.000
    C406     C        0.03936    0.17738    0.85805    1.000
    C407     C        0.01102    0.19775    0.84153    1.000
    C408     C        0.01349    0.23557    0.83671    1.000
    C409     C        0.04527    0.25491    0.84681    1.000
    C410     C        0.07480    0.23495    0.86221    1.000
    C411     C        0.91798    0.15481    0.82591    1.000
    C412     C        0.95610    0.15482    0.83485    1.000
    C413     C        0.97564    0.18798    0.83111    1.000
    C414     C        0.95856    0.22031    0.82011    1.000
    C415     C        0.92106    0.22076    0.81086    1.000
    C416     C        0.90110    0.18773    0.81310    1.000
    C417     C        0.71652    0.49352    0.87672    1.000
    C418     C        0.71228    0.47442    0.91049    1.000
    C419     C        0.73850    0.44779    0.91958    1.000
    C420     C        0.76773    0.43937    0.89661    1.000
    C421     C        0.77209    0.45709    0.86264    1.000
    C422     C        0.74611    0.48415    0.85272    1.000
    C423     C        0.72507    0.38873    0.00323    1.000
    C424     C        0.71723    0.41823    0.97885    1.000
    C425     C        0.74127    0.42445    0.94946    1.000
    C426     C        0.77234    0.40311    0.94361    1.000
    C427     C        0.78135    0.37432    0.96768    1.000
    C428     C        0.75761    0.36735    0.99774    1.000
    C429     C        0.82066    0.39535    0.89456    1.000
    C430     C        0.81950    0.35816    0.88398    1.000
    C431     C        0.85047    0.34138    0.86830    1.000
    C432     C        0.88325    0.36161    0.86257    1.000
    C433     C        0.88361    0.39948    0.87175    1.000
    C434     C        0.85264    0.41610    0.88792    1.000
    C435     C        0.96766    0.28666    0.83079    1.000
    C436     C        0.96509    0.29866    0.86754    1.000
    C437     C        0.93973    0.32597    0.87742    1.000
    C438     C        0.91667    0.34215    0.85058    1.000
    C439     C        0.92245    0.33300    0.81315    1.000
    C440     C        0.94738    0.30511    0.80345    1.000
    H201     H        0.03607    0.14808    0.86317    1.000
    H202     H        0.04719    0.28456    0.84320    1.000
    H203     H        0.09935    0.24990    0.87062    1.000
    H204     H        0.96955    0.13037    0.84566    1.000
    H205     H        0.90705    0.24589    0.80285    1.000
    H206     H        0.87186    0.18837    0.80670    1.000
    H207     H        0.68992    0.48070    0.92937    1.000
    H208     H        0.79481    0.45045    0.84433    1.000
    H209     H        0.74905    0.49781    0.82635    1.000
    H210     H        0.69228    0.43455    0.98156    1.000
    H211     H        0.80529    0.35703    0.96295    1.000
    H212     H        0.76391    0.34440    0.01587    1.000
    H213     H        0.79495    0.34183    0.88911    1.000
    H214     H        0.84917    0.31207    0.86247    1.000
    H215     H        0.90807    0.41609    0.86722    1.000
    H216     H        0.98006    0.28430    0.88912    1.000
    H217     H        0.93601    0.33186    0.90650    1.000
    H218     H        0.90593    0.34556    0.79158    1.000
    H219     H        0.94849    0.29568    0.77510    1.000
    H220     H        0.85341    0.44664    0.89572    1.000
    Cu23     Cu       0.82655    0.67127    0.58624    1.000
    Cu24     Cu       0.87222    0.62564    0.56146    1.000
    O89      O        0.86599    0.69048    0.61019    1.000
    O90      O        0.90571    0.64765    0.59280    1.000
    O91      O        0.29387    0.85289    0.44488    1.000
    O92      O        0.33490    0.89056    0.46954    1.000
    O93      O        0.13782    0.62092    0.68058    1.000
    O94      O        0.09488    0.59770    0.64399    1.000
    O95      O        0.30086    0.04529    0.65956    1.000
    O96      O        0.33914    0.02779    0.61543    1.000
    N23      N        0.01873    0.74994    0.67605    1.000
    N24      N        0.21104    0.91221    0.58879    1.000
    C441     C        0.89847    0.67698    0.61083    1.000
    C442     C        0.30235    0.87735    0.46868    1.000
    C443     C        0.10567    0.62255    0.66630    1.000
    C444     C        0.30912    0.02353    0.63325    1.000
    C445     C        0.92807    0.69632    0.63144    1.000
    C446     C        0.96064    0.67738    0.64195    1.000
    C447     C        0.98898    0.69775    0.65847    1.000
    C448     C        0.98651    0.73557    0.66329    1.000
    C449     C        0.95473    0.75491    0.65319    1.000
    C450     C        0.92520    0.73495    0.63779    1.000
    C451     C        0.08202    0.65481    0.67409    1.000
    C452     C        0.04390    0.65482    0.66515    1.000
    C453     C        0.02436    0.68798    0.66889    1.000
    C454     C        0.04144    0.72031    0.67989    1.000
    C455     C        0.07894    0.72076    0.68914    1.000
    C456     C        0.09890    0.68773    0.68690    1.000
    C457     C        0.28348    0.99352    0.62328    1.000
    C458     C        0.28772    0.97442    0.58951    1.000
    C459     C        0.26150    0.94779    0.58042    1.000
    C460     C        0.23227    0.93937    0.60339    1.000
    C461     C        0.22791    0.95709    0.63736    1.000
    C462     C        0.25389    0.98415    0.64728    1.000
    C463     C        0.27493    0.88873    0.49677    1.000
    C464     C        0.28277    0.91823    0.52115    1.000
    C465     C        0.25873    0.92445    0.55054    1.000
    C466     C        0.22766    0.90311    0.55639    1.000
    C467     C        0.21865    0.87432    0.53232    1.000
    C468     C        0.24239    0.86735    0.50226    1.000
    C469     C        0.17934    0.89535    0.60544    1.000
    C470     C        0.18050    0.85816    0.61602    1.000
    C471     C        0.14953    0.84138    0.63170    1.000
    C472     C        0.11675    0.86161    0.63743    1.000
    C473     C        0.11639    0.89948    0.62825    1.000
    C474     C        0.14736    0.91610    0.61208    1.000
    C475     C        0.03234    0.78666    0.66921    1.000
    C476     C        0.03491    0.79866    0.63246    1.000
    C477     C        0.06027    0.82597    0.62258    1.000
    C478     C        0.08333    0.84215    0.64942    1.000
    C479     C        0.07755    0.83300    0.68685    1.000
    C480     C        0.05262    0.80511    0.69655    1.000
    H221     H        0.96393    0.64808    0.63683    1.000
    H222     H        0.95281    0.78456    0.65680    1.000
    H223     H        0.90065    0.74990    0.62938    1.000
    H224     H        0.03045    0.63037    0.65434    1.000
    H225     H        0.09295    0.74589    0.69715    1.000
    H226     H        0.12814    0.68837    0.69330    1.000
    H227     H        0.31008    0.98070    0.57063    1.000
    H228     H        0.20519    0.95045    0.65567    1.000
    H229     H        0.25095    0.99781    0.67365    1.000
    H230     H        0.30772    0.93455    0.51844    1.000
    H231     H        0.19471    0.85703    0.53705    1.000
    H232     H        0.23609    0.84440    0.48413    1.000
    H233     H        0.20505    0.84183    0.61089    1.000
    H234     H        0.15083    0.81207    0.63753    1.000
    H235     H        0.09193    0.91609    0.63278    1.000
    H236     H        0.01994    0.78430    0.61088    1.000
    H237     H        0.06399    0.83186    0.59350    1.000
    H238     H        0.09407    0.84556    0.70842    1.000
    H239     H        0.05151    0.79568    0.72490    1.000
    H240     H        0.14659    0.94664    0.60428    1.000
    Cu25     Cu       0.91376    0.32655    0.67127    1.000
    Cu26     Cu       0.93854    0.37222    0.62564    1.000
    O97      O        0.88981    0.36599    0.69048    1.000
    O98      O        0.90720    0.40571    0.64765    1.000
    O99      O        0.05512    0.79387    0.85289    1.000
    O100     O        0.03046    0.83490    0.89056    1.000
    O101     O        0.81942    0.63782    0.62092    1.000
    O102     O        0.85601    0.59488    0.59770    1.000
    O103     O        0.84044    0.80086    0.04529    1.000
    O104     O        0.88457    0.83914    0.02779    1.000
    N25      N        0.82395    0.51873    0.74994    1.000
    N26      N        0.91121    0.71104    0.91221    1.000
    C481     C        0.88917    0.39847    0.67698    1.000
    C482     C        0.03132    0.80235    0.87735    1.000
    C483     C        0.83370    0.60567    0.62255    1.000
    C484     C        0.86675    0.80912    0.02353    1.000
    C485     C        0.86856    0.42807    0.69632    1.000
    C486     C        0.85805    0.46064    0.67738    1.000
    C487     C        0.84153    0.48898    0.69775    1.000
    C488     C        0.83671    0.48651    0.73557    1.000
    C489     C        0.84681    0.45473    0.75491    1.000
    C490     C        0.86221    0.42520    0.73495    1.000
    C491     C        0.82591    0.58202    0.65481    1.000
    C492     C        0.83485    0.54390    0.65482    1.000
    C493     C        0.83111    0.52436    0.68798    1.000
    C494     C        0.82011    0.54144    0.72031    1.000
    C495     C        0.81086    0.57894    0.72076    1.000
    C496     C        0.81310    0.59890    0.68773    1.000
    C497     C        0.87672    0.78348    0.99352    1.000
    C498     C        0.91049    0.78772    0.97442    1.000
    C499     C        0.91958    0.76150    0.94779    1.000
    C500     C        0.89661    0.73227    0.93937    1.000
    C501     C        0.86264    0.72791    0.95709    1.000
    C502     C        0.85272    0.75389    0.98415    1.000
    C503     C        0.00323    0.77493    0.88873    1.000
    C504     C        0.97885    0.78277    0.91823    1.000
    C505     C        0.94946    0.75873    0.92445    1.000
    C506     C        0.94361    0.72766    0.90311    1.000
    C507     C        0.96768    0.71865    0.87432    1.000
    C508     C        0.99774    0.74239    0.86735    1.000
    C509     C        0.89456    0.67934    0.89535    1.000
    C510     C        0.88398    0.68050    0.85816    1.000
    C511     C        0.86830    0.64953    0.84138    1.000
    C512     C        0.86257    0.61675    0.86161    1.000
    C513     C        0.87175    0.61639    0.89948    1.000
    C514     C        0.88792    0.64736    0.91610    1.000
    C515     C        0.83079    0.53234    0.78666    1.000
    C516     C        0.86754    0.53491    0.79866    1.000
    C517     C        0.87742    0.56027    0.82597    1.000
    C518     C        0.85058    0.58333    0.84215    1.000
    C519     C        0.81315    0.57755    0.83300    1.000
    C520     C        0.80345    0.55262    0.80511    1.000
    H241     H        0.86317    0.46393    0.64808    1.000
    H242     H        0.84320    0.45281    0.78456    1.000
    H243     H        0.87062    0.40065    0.74990    1.000
    H244     H        0.84566    0.53045    0.63037    1.000
    H245     H        0.80285    0.59295    0.74589    1.000
    H246     H        0.80670    0.62814    0.68837    1.000
    H247     H        0.92937    0.81008    0.98070    1.000
    H248     H        0.84433    0.70519    0.95045    1.000
    H249     H        0.82635    0.75095    0.99781    1.000
    H250     H        0.98156    0.80772    0.93455    1.000
    H251     H        0.96295    0.69471    0.85703    1.000
    H252     H        0.01587    0.73609    0.84440    1.000
    H253     H        0.88911    0.70505    0.84183    1.000
    H254     H        0.86247    0.65083    0.81207    1.000
    H255     H        0.86722    0.59193    0.91609    1.000
    H256     H        0.88912    0.51994    0.78430    1.000
    H257     H        0.90650    0.56399    0.83186    1.000
    H258     H        0.79158    0.59407    0.84556    1.000
    H259     H        0.77510    0.55151    0.79568    1.000
    H260     H        0.89572    0.64659    0.94664    1.000
    Cu27     Cu       0.58624    0.67345    0.17127    1.000
    Cu28     Cu       0.56146    0.62778    0.12564    1.000
    O105     O        0.61019    0.63401    0.19048    1.000
    O106     O        0.59280    0.59429    0.14765    1.000
    O107     O        0.44488    0.20613    0.35289    1.000
    O108     O        0.46954    0.16510    0.39056    1.000
    O109     O        0.68058    0.36218    0.12092    1.000
    O110     O        0.64399    0.40512    0.09770    1.000
    O111     O        0.65956    0.19914    0.54529    1.000
    O112     O        0.61543    0.16086    0.52779    1.000
    N27      N        0.67605    0.48127    0.24994    1.000
    N28      N        0.58879    0.28896    0.41221    1.000
    C521     C        0.61083    0.60153    0.17698    1.000
    C522     C        0.46868    0.19765    0.37735    1.000
    C523     C        0.66630    0.39433    0.12255    1.000
    C524     C        0.63325    0.19088    0.52353    1.000
    C525     C        0.63144    0.57193    0.19632    1.000
    C526     C        0.64195    0.53936    0.17738    1.000
    C527     C        0.65847    0.51102    0.19775    1.000
    C528     C        0.66329    0.51349    0.23557    1.000
    C529     C        0.65319    0.54527    0.25491    1.000
    C530     C        0.63779    0.57480    0.23495    1.000
    C531     C        0.67409    0.41798    0.15481    1.000
    C532     C        0.66515    0.45610    0.15482    1.000
    C533     C        0.66889    0.47564    0.18798    1.000
    C534     C        0.67989    0.45856    0.22031    1.000
    C535     C        0.68914    0.42106    0.22076    1.000
    C536     C        0.68690    0.40110    0.18773    1.000
    C537     C        0.62328    0.21652    0.49352    1.000
    C538     C        0.58951    0.21228    0.47442    1.000
    C539     C        0.58042    0.23850    0.44779    1.000
    C540     C        0.60339    0.26773    0.43937    1.000
    C541     C        0.63736    0.27209    0.45709    1.000
    C542     C        0.64728    0.24611    0.48415    1.000
    C543     C        0.49677    0.22507    0.38873    1.000
    C544     C        0.52115    0.21723    0.41823    1.000
    C545     C        0.55054    0.24127    0.42445    1.000
    C546     C        0.55639    0.27234    0.40311    1.000
    C547     C        0.53232    0.28135    0.37432    1.000
    C548     C        0.50226    0.25761    0.36735    1.000
    C549     C        0.60544    0.32066    0.39535    1.000
    C550     C        0.61602    0.31950    0.35816    1.000
    C551     C        0.63170    0.35047    0.34138    1.000
    C552     C        0.63743    0.38325    0.36161    1.000
    C553     C        0.62825    0.38361    0.39948    1.000
    C554     C        0.61208    0.35264    0.41610    1.000
    C555     C        0.66921    0.46766    0.28666    1.000
    C556     C        0.63246    0.46509    0.29866    1.000
    C557     C        0.62258    0.43973    0.32597    1.000
    C558     C        0.64942    0.41667    0.34215    1.000
    C559     C        0.68685    0.42245    0.33300    1.000
    C560     C        0.69655    0.44738    0.30511    1.000
    H261     H        0.63683    0.53607    0.14808    1.000
    H262     H        0.65680    0.54719    0.28456    1.000
    H263     H        0.62938    0.59935    0.24990    1.000
    H264     H        0.65434    0.46955    0.13037    1.000
    H265     H        0.69715    0.40705    0.24589    1.000
    H266     H        0.69330    0.37186    0.18837    1.000
    H267     H        0.57063    0.18992    0.48070    1.000
    H268     H        0.65567    0.29481    0.45045    1.000
    H269     H        0.67365    0.24905    0.49781    1.000
    H270     H        0.51844    0.19228    0.43455    1.000
    H271     H        0.53705    0.30529    0.35703    1.000
    H272     H        0.48413    0.26391    0.34440    1.000
    H273     H        0.61089    0.29495    0.34183    1.000
    H274     H        0.63753    0.34917    0.31207    1.000
    H275     H        0.63278    0.40807    0.41609    1.000
    H276     H        0.61088    0.48006    0.28430    1.000
    H277     H        0.59350    0.43601    0.33186    1.000
    H278     H        0.70842    0.40593    0.34556    1.000
    H279     H        0.72490    0.44849    0.29568    1.000
    H280     H        0.60428    0.35341    0.44664    1.000
    Cu29     Cu       0.08624    0.82655    0.82873    1.000
    Cu30     Cu       0.06146    0.87222    0.87436    1.000
    O113     O        0.11019    0.86599    0.80952    1.000
    O114     O        0.09280    0.90571    0.85235    1.000
    O115     O        0.94488    0.29387    0.64711    1.000
    O116     O        0.96954    0.33490    0.60944    1.000
    O117     O        0.18058    0.13782    0.87908    1.000
    O118     O        0.14399    0.09488    0.90230    1.000
    O119     O        0.15956    0.30086    0.45471    1.000
    O120     O        0.11543    0.33914    0.47221    1.000
    N29      N        0.17605    0.01873    0.75006    1.000
    N30      N        0.08879    0.21104    0.58779    1.000
    C561     C        0.11083    0.89847    0.82302    1.000
    C562     C        0.96868    0.30235    0.62265    1.000
    C563     C        0.16630    0.10567    0.87745    1.000
    C564     C        0.13325    0.30912    0.47647    1.000
    C565     C        0.13144    0.92807    0.80368    1.000
    C566     C        0.14195    0.96064    0.82262    1.000
    C567     C        0.15847    0.98898    0.80225    1.000
    C568     C        0.16329    0.98651    0.76443    1.000
    C569     C        0.15319    0.95473    0.74509    1.000
    C570     C        0.13779    0.92520    0.76505    1.000
    C571     C        0.17409    0.08202    0.84519    1.000
    C572     C        0.16515    0.04390    0.84518    1.000
    C573     C        0.16889    0.02436    0.81202    1.000
    C574     C        0.17989    0.04144    0.77969    1.000
    C575     C        0.18914    0.07894    0.77924    1.000
    C576     C        0.18690    0.09890    0.81227    1.000
    C577     C        0.12328    0.28348    0.50648    1.000
    C578     C        0.08951    0.28772    0.52558    1.000
    C579     C        0.08042    0.26150    0.55221    1.000
    C580     C        0.10339    0.23227    0.56063    1.000
    C581     C        0.13736    0.22791    0.54291    1.000
    C582     C        0.14728    0.25389    0.51585    1.000
    C583     C        0.99677    0.27493    0.61127    1.000
    C584     C        0.02115    0.28277    0.58177    1.000
    C585     C        0.05054    0.25873    0.57555    1.000
    C586     C        0.05639    0.22766    0.59689    1.000
    C587     C        0.03232    0.21865    0.62568    1.000
    C588     C        0.00226    0.24239    0.63265    1.000
    C589     C        0.10544    0.17934    0.60465    1.000
    C590     C        0.11602    0.18050    0.64184    1.000
    C591     C        0.13170    0.14953    0.65862    1.000
    C592     C        0.13743    0.11675    0.63839    1.000
    C593     C        0.12825    0.11639    0.60052    1.000
    C594     C        0.11208    0.14736    0.58390    1.000
    C595     C        0.16921    0.03234    0.71334    1.000
    C596     C        0.13246    0.03491    0.70134    1.000
    C597     C        0.12258    0.06027    0.67403    1.000
    C598     C        0.14942    0.08333    0.65785    1.000
    C599     C        0.18685    0.07755    0.66700    1.000
    C600     C        0.19655    0.05262    0.69489    1.000
    H281     H        0.13683    0.96393    0.85192    1.000
    H282     H        0.15680    0.95281    0.71544    1.000
    H283     H        0.12938    0.90065    0.75010    1.000
    H284     H        0.15434    0.03045    0.86963    1.000
    H285     H        0.19715    0.09295    0.75411    1.000
    H286     H        0.19330    0.12814    0.81163    1.000
    H287     H        0.07063    0.31008    0.51930    1.000
    H288     H        0.15567    0.20519    0.54955    1.000
    H289     H        0.17365    0.25095    0.50219    1.000
    H290     H        0.01844    0.30772    0.56545    1.000
    H291     H        0.03705    0.19471    0.64297    1.000
    H292     H        0.98413    0.23609    0.65560    1.000
    H293     H        0.11089    0.20505    0.65817    1.000
    H294     H        0.13753    0.15083    0.68793    1.000
    H295     H        0.13278    0.09193    0.58391    1.000
    H296     H        0.11088    0.01994    0.71570    1.000
    H297     H        0.09350    0.06399    0.66814    1.000
    H298     H        0.20842    0.09407    0.65444    1.000
    H299     H        0.22490    0.05151    0.70432    1.000
    H300     H        0.10428    0.14659    0.55336    1.000
    Cu31     Cu       0.41376    0.17345    0.32873    1.000
    Cu32     Cu       0.43854    0.12778    0.37436    1.000
    O121     O        0.38981    0.13401    0.30952    1.000
    O122     O        0.40720    0.09429    0.35235    1.000
    O123     O        0.55512    0.70613    0.14711    1.000
    O124     O        0.53046    0.66510    0.10944    1.000
    O125     O        0.31942    0.86218    0.37908    1.000
    O126     O        0.35601    0.90512    0.40230    1.000
    O127     O        0.34044    0.69914    0.95471    1.000
    O128     O        0.38457    0.66086    0.97221    1.000
    N31      N        0.32395    0.98127    0.25006    1.000
    N32      N        0.41121    0.78896    0.08779    1.000
    C601     C        0.38917    0.10153    0.32302    1.000
    C602     C        0.53132    0.69765    0.12265    1.000
    C603     C        0.33370    0.89433    0.37745    1.000
    C604     C        0.36675    0.69088    0.97647    1.000
    C605     C        0.36856    0.07193    0.30368    1.000
    C606     C        0.35805    0.03936    0.32262    1.000
    C607     C        0.34153    0.01102    0.30225    1.000
    C608     C        0.33671    0.01349    0.26443    1.000
    C609     C        0.34681    0.04527    0.24509    1.000
    C610     C        0.36221    0.07480    0.26505    1.000
    C611     C        0.32591    0.91798    0.34519    1.000
    C612     C        0.33485    0.95610    0.34518    1.000
    C613     C        0.33111    0.97564    0.31202    1.000
    C614     C        0.32011    0.95856    0.27969    1.000
    C615     C        0.31086    0.92106    0.27924    1.000
    C616     C        0.31310    0.90110    0.31227    1.000
    C617     C        0.37672    0.71652    0.00648    1.000
    C618     C        0.41049    0.71228    0.02558    1.000
    C619     C        0.41958    0.73850    0.05221    1.000
    C620     C        0.39661    0.76773    0.06063    1.000
    C621     C        0.36264    0.77209    0.04291    1.000
    C622     C        0.35272    0.74611    0.01585    1.000
    C623     C        0.50323    0.72507    0.11127    1.000
    C624     C        0.47885    0.71723    0.08177    1.000
    C625     C        0.44946    0.74127    0.07555    1.000
    C626     C        0.44361    0.77234    0.09689    1.000
    C627     C        0.46768    0.78135    0.12568    1.000
    C628     C        0.49774    0.75761    0.13265    1.000
    C629     C        0.39456    0.82066    0.10465    1.000
    C630     C        0.38398    0.81950    0.14184    1.000
    C631     C        0.36830    0.85047    0.15862    1.000
    C632     C        0.36257    0.88325    0.13839    1.000
    C633     C        0.37175    0.88361    0.10052    1.000
    C634     C        0.38792    0.85264    0.08390    1.000
    C635     C        0.33079    0.96766    0.21334    1.000
    C636     C        0.36754    0.96509    0.20134    1.000
    C637     C        0.37742    0.93973    0.17403    1.000
    C638     C        0.35058    0.91667    0.15785    1.000
    C639     C        0.31315    0.92245    0.16700    1.000
    C640     C        0.30345    0.94738    0.19489    1.000
    H301     H        0.36317    0.03607    0.35192    1.000
    H302     H        0.34320    0.04719    0.21544    1.000
    H303     H        0.37062    0.09935    0.25010    1.000
    H304     H        0.34566    0.96955    0.36963    1.000
    H305     H        0.30285    0.90705    0.25411    1.000
    H306     H        0.30670    0.87186    0.31163    1.000
    H307     H        0.42937    0.68992    0.01930    1.000
    H308     H        0.34433    0.79481    0.04955    1.000
    H309     H        0.32635    0.74905    0.00219    1.000
    H310     H        0.48156    0.69228    0.06545    1.000
    H311     H        0.46295    0.80529    0.14297    1.000
    H312     H        0.51587    0.76391    0.15560    1.000
    H313     H        0.38911    0.79495    0.15817    1.000
    H314     H        0.36247    0.84917    0.18793    1.000
    H315     H        0.36722    0.90807    0.08391    1.000
    H316     H        0.38912    0.98006    0.21570    1.000
    H317     H        0.40650    0.93601    0.16814    1.000
    H318     H        0.29158    0.90593    0.15444    1.000
    H319     H        0.27510    0.94849    0.20432    1.000
    H320     H        0.39572    0.85341    0.05336    1.000
    Cu33     Cu       0.67127    0.91376    0.32655    1.000
    Cu34     Cu       0.62564    0.93854    0.37222    1.000
    O129     O        0.69048    0.88981    0.36599    1.000
    O130     O        0.64765    0.90720    0.40571    1.000
    O131     O        0.85289    0.05512    0.79387    1.000
    O132     O        0.89056    0.03046    0.83490    1.000
    O133     O        0.62092    0.81942    0.63782    1.000
    O134     O        0.59770    0.85601    0.59488    1.000
    O135     O        0.04529    0.84044    0.80086    1.000
    O136     O        0.02779    0.88457    0.83914    1.000
    N33      N        0.74994    0.82395    0.51873    1.000
    N34      N        0.91221    0.91121    0.71104    1.000
    C641     C        0.67698    0.88917    0.39847    1.000
    C642     C        0.87735    0.03132    0.80235    1.000
    C643     C        0.62255    0.83370    0.60567    1.000
    C644     C        0.02353    0.86675    0.80912    1.000
    C645     C        0.69632    0.86856    0.42807    1.000
    C646     C        0.67738    0.85805    0.46064    1.000
    C647     C        0.69775    0.84153    0.48898    1.000
    C648     C        0.73557    0.83671    0.48651    1.000
    C649     C        0.75491    0.84681    0.45473    1.000
    C650     C        0.73495    0.86221    0.42520    1.000
    C651     C        0.65481    0.82591    0.58202    1.000
    C652     C        0.65482    0.83485    0.54390    1.000
    C653     C        0.68798    0.83111    0.52436    1.000
    C654     C        0.72031    0.82011    0.54144    1.000
    C655     C        0.72076    0.81086    0.57894    1.000
    C656     C        0.68773    0.81310    0.59890    1.000
    C657     C        0.99352    0.87672    0.78348    1.000
    C658     C        0.97442    0.91049    0.78772    1.000
    C659     C        0.94779    0.91958    0.76150    1.000
    C660     C        0.93937    0.89661    0.73227    1.000
    C661     C        0.95709    0.86264    0.72791    1.000
    C662     C        0.98415    0.85272    0.75389    1.000
    C663     C        0.88873    0.00323    0.77493    1.000
    C664     C        0.91823    0.97885    0.78277    1.000
    C665     C        0.92445    0.94946    0.75873    1.000
    C666     C        0.90311    0.94361    0.72766    1.000
    C667     C        0.87432    0.96768    0.71865    1.000
    C668     C        0.86735    0.99774    0.74239    1.000
    C669     C        0.89535    0.89456    0.67934    1.000
    C670     C        0.85816    0.88398    0.68050    1.000
    C671     C        0.84138    0.86830    0.64953    1.000
    C672     C        0.86161    0.86257    0.61675    1.000
    C673     C        0.89948    0.87175    0.61639    1.000
    C674     C        0.91610    0.88792    0.64736    1.000
    C675     C        0.78666    0.83079    0.53234    1.000
    C676     C        0.79866    0.86754    0.53491    1.000
    C677     C        0.82597    0.87742    0.56027    1.000
    C678     C        0.84215    0.85058    0.58333    1.000
    C679     C        0.83300    0.81315    0.57755    1.000
    C680     C        0.80511    0.80345    0.55262    1.000
    H321     H        0.64808    0.86317    0.46393    1.000
    H322     H        0.78456    0.84320    0.45281    1.000
    H323     H        0.74990    0.87062    0.40065    1.000
    H324     H        0.63037    0.84566    0.53045    1.000
    H325     H        0.74589    0.80285    0.59295    1.000
    H326     H        0.68837    0.80670    0.62814    1.000
    H327     H        0.98070    0.92937    0.81008    1.000
    H328     H        0.95045    0.84433    0.70519    1.000
    H329     H        0.99781    0.82635    0.75095    1.000
    H330     H        0.93455    0.98156    0.80772    1.000
    H331     H        0.85703    0.96295    0.69471    1.000
    H332     H        0.84440    0.01587    0.73609    1.000
    H333     H        0.84183    0.88911    0.70505    1.000
    H334     H        0.81207    0.86247    0.65083    1.000
    H335     H        0.91609    0.86722    0.59193    1.000
    H336     H        0.78430    0.88912    0.51994    1.000
    H337     H        0.83186    0.90650    0.56399    1.000
    H338     H        0.84556    0.79158    0.59407    1.000
    H339     H        0.79568    0.77510    0.55151    1.000
    H340     H        0.94664    0.89572    0.64659    1.000
    Cu35     Cu       0.17127    0.58624    0.67345    1.000
    Cu36     Cu       0.12564    0.56146    0.62778    1.000
    O137     O        0.19048    0.61019    0.63401    1.000
    O138     O        0.14765    0.59280    0.59429    1.000
    O139     O        0.35289    0.44488    0.20613    1.000
    O140     O        0.39056    0.46954    0.16510    1.000
    O141     O        0.12092    0.68058    0.36218    1.000
    O142     O        0.09770    0.64399    0.40512    1.000
    O143     O        0.54529    0.65956    0.19914    1.000
    O144     O        0.52779    0.61543    0.16086    1.000
    N35      N        0.24994    0.67605    0.48127    1.000
    N36      N        0.41221    0.58879    0.28896    1.000
    C681     C        0.17698    0.61083    0.60153    1.000
    C682     C        0.37735    0.46868    0.19765    1.000
    C683     C        0.12255    0.66630    0.39433    1.000
    C684     C        0.52353    0.63325    0.19088    1.000
    C685     C        0.19632    0.63144    0.57193    1.000
    C686     C        0.17738    0.64195    0.53936    1.000
    C687     C        0.19775    0.65847    0.51102    1.000
    C688     C        0.23557    0.66329    0.51349    1.000
    C689     C        0.25491    0.65319    0.54527    1.000
    C690     C        0.23495    0.63779    0.57480    1.000
    C691     C        0.15481    0.67409    0.41798    1.000
    C692     C        0.15482    0.66515    0.45610    1.000
    C693     C        0.18798    0.66889    0.47564    1.000
    C694     C        0.22031    0.67989    0.45856    1.000
    C695     C        0.22076    0.68914    0.42106    1.000
    C696     C        0.18773    0.68690    0.40110    1.000
    C697     C        0.49352    0.62328    0.21652    1.000
    C698     C        0.47442    0.58951    0.21228    1.000
    C699     C        0.44779    0.58042    0.23850    1.000
    C700     C        0.43937    0.60339    0.26773    1.000
    C701     C        0.45709    0.63736    0.27209    1.000
    C702     C        0.48415    0.64728    0.24611    1.000
    C703     C        0.38873    0.49677    0.22507    1.000
    C704     C        0.41823    0.52115    0.21723    1.000
    C705     C        0.42445    0.55054    0.24127    1.000
    C706     C        0.40311    0.55639    0.27234    1.000
    C707     C        0.37432    0.53232    0.28135    1.000
    C708     C        0.36735    0.50226    0.25761    1.000
    C709     C        0.39535    0.60544    0.32066    1.000
    C710     C        0.35816    0.61602    0.31950    1.000
    C711     C        0.34138    0.63170    0.35047    1.000
    C712     C        0.36161    0.63743    0.38325    1.000
    C713     C        0.39948    0.62825    0.38361    1.000
    C714     C        0.41610    0.61208    0.35264    1.000
    C715     C        0.28666    0.66921    0.46766    1.000
    C716     C        0.29866    0.63246    0.46509    1.000
    C717     C        0.32597    0.62258    0.43973    1.000
    C718     C        0.34215    0.64942    0.41667    1.000
    C719     C        0.33300    0.68685    0.42245    1.000
    C720     C        0.30511    0.69655    0.44738    1.000
    H341     H        0.14808    0.63683    0.53607    1.000
    H342     H        0.28456    0.65680    0.54719    1.000
    H343     H        0.24990    0.62938    0.59935    1.000
    H344     H        0.13037    0.65434    0.46955    1.000
    H345     H        0.24589    0.69715    0.40705    1.000
    H346     H        0.18837    0.69330    0.37186    1.000
    H347     H        0.48070    0.57063    0.18992    1.000
    H348     H        0.45045    0.65567    0.29481    1.000
    H349     H        0.49781    0.67365    0.24905    1.000
    H350     H        0.43455    0.51844    0.19228    1.000
    H351     H        0.35703    0.53705    0.30529    1.000
    H352     H        0.34440    0.48413    0.26391    1.000
    H353     H        0.34183    0.61089    0.29495    1.000
    H354     H        0.31207    0.63753    0.34917    1.000
    H355     H        0.41609    0.63278    0.40807    1.000
    H356     H        0.28430    0.61088    0.48006    1.000
    H357     H        0.33186    0.59350    0.43601    1.000
    H358     H        0.34556    0.70842    0.40593    1.000
    H359     H        0.29568    0.72490    0.44849    1.000
    H360     H        0.44664    0.60428    0.35341    1.000
    Cu37     Cu       0.82873    0.08624    0.82655    1.000
    Cu38     Cu       0.87436    0.06146    0.87222    1.000
    O145     O        0.80952    0.11019    0.86599    1.000
    O146     O        0.85235    0.09280    0.90571    1.000
    O147     O        0.64711    0.94488    0.29387    1.000
    O148     O        0.60944    0.96954    0.33490    1.000
    O149     O        0.87908    0.18058    0.13782    1.000
    O150     O        0.90230    0.14399    0.09488    1.000
    O151     O        0.45471    0.15956    0.30086    1.000
    O152     O        0.47221    0.11543    0.33914    1.000
    N37      N        0.75006    0.17605    0.01873    1.000
    N38      N        0.58779    0.08879    0.21104    1.000
    C721     C        0.82302    0.11083    0.89847    1.000
    C722     C        0.62265    0.96868    0.30235    1.000
    C723     C        0.87745    0.16630    0.10567    1.000
    C724     C        0.47647    0.13325    0.30912    1.000
    C725     C        0.80368    0.13144    0.92807    1.000
    C726     C        0.82262    0.14195    0.96064    1.000
    C727     C        0.80225    0.15847    0.98898    1.000
    C728     C        0.76443    0.16329    0.98651    1.000
    C729     C        0.74509    0.15319    0.95473    1.000
    C730     C        0.76505    0.13779    0.92520    1.000
    C731     C        0.84519    0.17409    0.08202    1.000
    C732     C        0.84518    0.16515    0.04390    1.000
    C733     C        0.81202    0.16889    0.02436    1.000
    C734     C        0.77969    0.17989    0.04144    1.000
    C735     C        0.77924    0.18914    0.07894    1.000
    C736     C        0.81227    0.18690    0.09890    1.000
    C737     C        0.50648    0.12328    0.28348    1.000
    C738     C        0.52558    0.08951    0.28772    1.000
    C739     C        0.55221    0.08042    0.26150    1.000
    C740     C        0.56063    0.10339    0.23227    1.000
    C741     C        0.54291    0.13736    0.22791    1.000
    C742     C        0.51585    0.14728    0.25389    1.000
    C743     C        0.61127    0.99677    0.27493    1.000
    C744     C        0.58177    0.02115    0.28277    1.000
    C745     C        0.57555    0.05054    0.25873    1.000
    C746     C        0.59689    0.05639    0.22766    1.000
    C747     C        0.62568    0.03232    0.21865    1.000
    C748     C        0.63265    0.00226    0.24239    1.000
    C749     C        0.60465    0.10544    0.17934    1.000
    C750     C        0.64184    0.11602    0.18050    1.000
    C751     C        0.65862    0.13170    0.14953    1.000
    C752     C        0.63839    0.13743    0.11675    1.000
    C753     C        0.60052    0.12825    0.11639    1.000
    C754     C        0.58390    0.11208    0.14736    1.000
    C755     C        0.71334    0.16921    0.03234    1.000
    C756     C        0.70134    0.13246    0.03491    1.000
    C757     C        0.67403    0.12258    0.06027    1.000
    C758     C        0.65785    0.14942    0.08333    1.000
    C759     C        0.66700    0.18685    0.07755    1.000
    C760     C        0.69489    0.19655    0.05262    1.000
    H361     H        0.85192    0.13683    0.96393    1.000
    H362     H        0.71544    0.15680    0.95281    1.000
    H363     H        0.75010    0.12938    0.90065    1.000
    H364     H        0.86963    0.15434    0.03045    1.000
    H365     H        0.75411    0.19715    0.09295    1.000
    H366     H        0.81163    0.19330    0.12814    1.000
    H367     H        0.51930    0.07063    0.31008    1.000
    H368     H        0.54955    0.15567    0.20519    1.000
    H369     H        0.50219    0.17365    0.25095    1.000
    H370     H        0.56545    0.01844    0.30772    1.000
    H371     H        0.64297    0.03705    0.19471    1.000
    H372     H        0.65560    0.98413    0.23609    1.000
    H373     H        0.65817    0.11089    0.20505    1.000
    H374     H        0.68793    0.13753    0.15083    1.000
    H375     H        0.58391    0.13278    0.09193    1.000
    H376     H        0.71570    0.11088    0.01994    1.000
    H377     H        0.66814    0.09350    0.06399    1.000
    H378     H        0.65444    0.20842    0.09407    1.000
    H379     H        0.70432    0.22490    0.05151    1.000
    H380     H        0.55336    0.10428    0.14659    1.000
    Cu39     Cu       0.32873    0.41376    0.17345    1.000
    Cu40     Cu       0.37436    0.43854    0.12778    1.000
    O153     O        0.30952    0.38981    0.13401    1.000
    O154     O        0.35235    0.40720    0.09429    1.000
    O155     O        0.14711    0.55512    0.70613    1.000
    O156     O        0.10944    0.53046    0.66510    1.000
    O157     O        0.37908    0.31942    0.86218    1.000
    O158     O        0.40230    0.35601    0.90512    1.000
    O159     O        0.95471    0.34044    0.69914    1.000
    O160     O        0.97221    0.38457    0.66086    1.000
    N39      N        0.25006    0.32395    0.98127    1.000
    N40      N        0.08779    0.41121    0.78896    1.000
    C761     C        0.32302    0.38917    0.10153    1.000
    C762     C        0.12265    0.53132    0.69765    1.000
    C763     C        0.37745    0.33370    0.89433    1.000
    C764     C        0.97647    0.36675    0.69088    1.000
    C765     C        0.30368    0.36856    0.07193    1.000
    C766     C        0.32262    0.35805    0.03936    1.000
    C767     C        0.30225    0.34153    0.01102    1.000
    C768     C        0.26443    0.33671    0.01349    1.000
    C769     C        0.24509    0.34681    0.04527    1.000
    C770     C        0.26505    0.36221    0.07480    1.000
    C771     C        0.34519    0.32591    0.91798    1.000
    C772     C        0.34518    0.33485    0.95610    1.000
    C773     C        0.31202    0.33111    0.97564    1.000
    C774     C        0.27969    0.32011    0.95856    1.000
    C775     C        0.27924    0.31086    0.92106    1.000
    C776     C        0.31227    0.31310    0.90110    1.000
    C777     C        0.00648    0.37672    0.71652    1.000
    C778     C        0.02558    0.41049    0.71228    1.000
    C779     C        0.05221    0.41958    0.73850    1.000
    C780     C        0.06063    0.39661    0.76773    1.000
    C781     C        0.04291    0.36264    0.77209    1.000
    C782     C        0.01585    0.35272    0.74611    1.000
    C783     C        0.11127    0.50323    0.72507    1.000
    C784     C        0.08177    0.47885    0.71723    1.000
    C785     C        0.07555    0.44946    0.74127    1.000
    C786     C        0.09689    0.44361    0.77234    1.000
    C787     C        0.12568    0.46768    0.78135    1.000
    C788     C        0.13265    0.49774    0.75761    1.000
    C789     C        0.10465    0.39456    0.82066    1.000
    C790     C        0.14184    0.38398    0.81950    1.000
    C791     C        0.15862    0.36830    0.85047    1.000
    C792     C        0.13839    0.36257    0.88325    1.000
    C793     C        0.10052    0.37175    0.88361    1.000
    C794     C        0.08390    0.38792    0.85264    1.000
    C795     C        0.21334    0.33079    0.96766    1.000
    C796     C        0.20134    0.36754    0.96509    1.000
    C797     C        0.17403    0.37742    0.93973    1.000
    C798     C        0.15785    0.35058    0.91667    1.000
    C799     C        0.16700    0.31315    0.92245    1.000
    C800     C        0.19489    0.30345    0.94738    1.000
    H381     H        0.35192    0.36317    0.03607    1.000
    H382     H        0.21544    0.34320    0.04719    1.000
    H383     H        0.25010    0.37062    0.09935    1.000
    H384     H        0.36963    0.34566    0.96955    1.000
    H385     H        0.25411    0.30285    0.90705    1.000
    H386     H        0.31163    0.30670    0.87186    1.000
    H387     H        0.01930    0.42937    0.68992    1.000
    H388     H        0.04955    0.34433    0.79481    1.000
    H389     H        0.00219    0.32635    0.74905    1.000
    H390     H        0.06545    0.48156    0.69228    1.000
    H391     H        0.14297    0.46295    0.80529    1.000
    H392     H        0.15560    0.51587    0.76391    1.000
    H393     H        0.15817    0.38911    0.79495    1.000
    H394     H        0.18793    0.36247    0.84917    1.000
    H395     H        0.08391    0.36722    0.90807    1.000
    H396     H        0.21570    0.38912    0.98006    1.000
    H397     H        0.16814    0.40650    0.93601    1.000
    H398     H        0.15444    0.29158    0.90593    1.000
    H399     H        0.20432    0.27510    0.94849    1.000
    H400     H        0.05336    0.39572    0.85341    1.000
    Cu41     Cu       0.32655    0.67127    0.91376    1.000
    Cu42     Cu       0.37222    0.62564    0.93854    1.000
    O161     O        0.36599    0.69048    0.88981    1.000
    O162     O        0.40571    0.64765    0.90720    1.000
    O163     O        0.79387    0.85289    0.05512    1.000
    O164     O        0.83490    0.89056    0.03046    1.000
    O165     O        0.63782    0.62092    0.81942    1.000
    O166     O        0.59488    0.59770    0.85601    1.000
    O167     O        0.80086    0.04529    0.84044    1.000
    O168     O        0.83914    0.02779    0.88457    1.000
    N41      N        0.51873    0.74994    0.82395    1.000
    N42      N        0.71104    0.91221    0.91121    1.000
    C801     C        0.39847    0.67698    0.88917    1.000
    C802     C        0.80235    0.87735    0.03132    1.000
    C803     C        0.60567    0.62255    0.83370    1.000
    C804     C        0.80912    0.02353    0.86675    1.000
    C805     C        0.42807    0.69632    0.86856    1.000
    C806     C        0.46064    0.67738    0.85805    1.000
    C807     C        0.48898    0.69775    0.84153    1.000
    C808     C        0.48651    0.73557    0.83671    1.000
    C809     C        0.45473    0.75491    0.84681    1.000
    C810     C        0.42520    0.73495    0.86221    1.000
    C811     C        0.58202    0.65481    0.82591    1.000
    C812     C        0.54390    0.65482    0.83485    1.000
    C813     C        0.52436    0.68798    0.83111    1.000
    C814     C        0.54144    0.72031    0.82011    1.000
    C815     C        0.57894    0.72076    0.81086    1.000
    C816     C        0.59890    0.68773    0.81310    1.000
    C817     C        0.78348    0.99352    0.87672    1.000
    C818     C        0.78772    0.97442    0.91049    1.000
    C819     C        0.76150    0.94779    0.91958    1.000
    C820     C        0.73227    0.93937    0.89661    1.000
    C821     C        0.72791    0.95709    0.86264    1.000
    C822     C        0.75389    0.98415    0.85272    1.000
    C823     C        0.77493    0.88873    0.00323    1.000
    C824     C        0.78277    0.91823    0.97885    1.000
    C825     C        0.75873    0.92445    0.94946    1.000
    C826     C        0.72766    0.90311    0.94361    1.000
    C827     C        0.71865    0.87432    0.96768    1.000
    C828     C        0.74239    0.86735    0.99774    1.000
    C829     C        0.67934    0.89535    0.89456    1.000
    C830     C        0.68050    0.85816    0.88398    1.000
    C831     C        0.64953    0.84138    0.86830    1.000
    C832     C        0.61675    0.86161    0.86257    1.000
    C833     C        0.61639    0.89948    0.87175    1.000
    C834     C        0.64736    0.91610    0.88792    1.000
    C835     C        0.53234    0.78666    0.83079    1.000
    C836     C        0.53491    0.79866    0.86754    1.000
    C837     C        0.56027    0.82597    0.87742    1.000
    C838     C        0.58333    0.84215    0.85058    1.000
    C839     C        0.57755    0.83300    0.81315    1.000
    C840     C        0.55262    0.80511    0.80345    1.000
    H401     H        0.46393    0.64808    0.86317    1.000
    H402     H        0.45281    0.78456    0.84320    1.000
    H403     H        0.40065    0.74990    0.87062    1.000
    H404     H        0.53045    0.63037    0.84566    1.000
    H405     H        0.59295    0.74589    0.80285    1.000
    H406     H        0.62814    0.68837    0.80670    1.000
    H407     H        0.81008    0.98070    0.92937    1.000
    H408     H        0.70519    0.95045    0.84433    1.000
    H409     H        0.75095    0.99781    0.82635    1.000
    H410     H        0.80772    0.93455    0.98156    1.000
    H411     H        0.69471    0.85703    0.96295    1.000
    H412     H        0.73609    0.84440    0.01587    1.000
    H413     H        0.70505    0.84183    0.88911    1.000
    H414     H        0.65083    0.81207    0.86247    1.000
    H415     H        0.59193    0.91609    0.86722    1.000
    H416     H        0.51994    0.78430    0.88912    1.000
    H417     H        0.56399    0.83186    0.90650    1.000
    H418     H        0.59407    0.84556    0.79158    1.000
    H419     H        0.55151    0.79568    0.77510    1.000
    H420     H        0.64659    0.94664    0.89572    1.000
    Cu43     Cu       0.67345    0.17127    0.58624    1.000
    Cu44     Cu       0.62778    0.12564    0.56146    1.000
    O169     O        0.63401    0.19048    0.61019    1.000
    O170     O        0.59429    0.14765    0.59280    1.000
    O171     O        0.20613    0.35289    0.44488    1.000
    O172     O        0.16510    0.39056    0.46954    1.000
    O173     O        0.36218    0.12092    0.68058    1.000
    O174     O        0.40512    0.09770    0.64399    1.000
    O175     O        0.19914    0.54529    0.65956    1.000
    O176     O        0.16086    0.52779    0.61543    1.000
    N43      N        0.48127    0.24994    0.67605    1.000
    N44      N        0.28896    0.41221    0.58879    1.000
    C841     C        0.60153    0.17698    0.61083    1.000
    C842     C        0.19765    0.37735    0.46868    1.000
    C843     C        0.39433    0.12255    0.66630    1.000
    C844     C        0.19088    0.52353    0.63325    1.000
    C845     C        0.57193    0.19632    0.63144    1.000
    C846     C        0.53936    0.17738    0.64195    1.000
    C847     C        0.51102    0.19775    0.65847    1.000
    C848     C        0.51349    0.23557    0.66329    1.000
    C849     C        0.54527    0.25491    0.65319    1.000
    C850     C        0.57480    0.23495    0.63779    1.000
    C851     C        0.41798    0.15481    0.67409    1.000
    C852     C        0.45610    0.15482    0.66515    1.000
    C853     C        0.47564    0.18798    0.66889    1.000
    C854     C        0.45856    0.22031    0.67989    1.000
    C855     C        0.42106    0.22076    0.68914    1.000
    C856     C        0.40110    0.18773    0.68690    1.000
    C857     C        0.21652    0.49352    0.62328    1.000
    C858     C        0.21228    0.47442    0.58951    1.000
    C859     C        0.23850    0.44779    0.58042    1.000
    C860     C        0.26773    0.43937    0.60339    1.000
    C861     C        0.27209    0.45709    0.63736    1.000
    C862     C        0.24611    0.48415    0.64728    1.000
    C863     C        0.22507    0.38873    0.49677    1.000
    C864     C        0.21723    0.41823    0.52115    1.000
    C865     C        0.24127    0.42445    0.55054    1.000
    C866     C        0.27234    0.40311    0.55639    1.000
    C867     C        0.28135    0.37432    0.53232    1.000
    C868     C        0.25761    0.36735    0.50226    1.000
    C869     C        0.32066    0.39535    0.60544    1.000
    C870     C        0.31950    0.35816    0.61602    1.000
    C871     C        0.35047    0.34138    0.63170    1.000
    C872     C        0.38325    0.36161    0.63743    1.000
    C873     C        0.38361    0.39948    0.62825    1.000
    C874     C        0.35264    0.41610    0.61208    1.000
    C875     C        0.46766    0.28666    0.66921    1.000
    C876     C        0.46509    0.29866    0.63246    1.000
    C877     C        0.43973    0.32597    0.62258    1.000
    C878     C        0.41667    0.34215    0.64942    1.000
    C879     C        0.42245    0.33300    0.68685    1.000
    C880     C        0.44738    0.30511    0.69655    1.000
    H421     H        0.53607    0.14808    0.63683    1.000
    H422     H        0.54719    0.28456    0.65680    1.000
    H423     H        0.59935    0.24990    0.62938    1.000
    H424     H        0.46955    0.13037    0.65434    1.000
    H425     H        0.40705    0.24589    0.69715    1.000
    H426     H        0.37186    0.18837    0.69330    1.000
    H427     H        0.18992    0.48070    0.57063    1.000
    H428     H        0.29481    0.45045    0.65567    1.000
    H429     H        0.24905    0.49781    0.67365    1.000
    H430     H        0.19228    0.43455    0.51844    1.000
    H431     H        0.30529    0.35703    0.53705    1.000
    H432     H        0.26391    0.34440    0.48413    1.000
    H433     H        0.29495    0.34183    0.61089    1.000
    H434     H        0.34917    0.31207    0.63753    1.000
    H435     H        0.40807    0.41609    0.63278    1.000
    H436     H        0.48006    0.28430    0.61088    1.000
    H437     H        0.43601    0.33186    0.59350    1.000
    H438     H        0.40593    0.34556    0.70842    1.000
    H439     H        0.44849    0.29568    0.72490    1.000
    H440     H        0.35341    0.44664    0.60428    1.000
    Cu45     Cu       0.82655    0.82873    0.08624    1.000
    Cu46     Cu       0.87222    0.87436    0.06146    1.000
    O177     O        0.86599    0.80952    0.11019    1.000
    O178     O        0.90571    0.85235    0.09280    1.000
    O179     O        0.29387    0.64711    0.94488    1.000
    O180     O        0.33490    0.60944    0.96954    1.000
    O181     O        0.13782    0.87908    0.18058    1.000
    O182     O        0.09488    0.90230    0.14399    1.000
    O183     O        0.30086    0.45471    0.15956    1.000
    O184     O        0.33914    0.47221    0.11543    1.000
    N45      N        0.01873    0.75006    0.17605    1.000
    N46      N        0.21104    0.58779    0.08879    1.000
    C881     C        0.89847    0.82302    0.11083    1.000
    C882     C        0.30235    0.62265    0.96868    1.000
    C883     C        0.10567    0.87745    0.16630    1.000
    C884     C        0.30912    0.47647    0.13325    1.000
    C885     C        0.92807    0.80368    0.13144    1.000
    C886     C        0.96064    0.82262    0.14195    1.000
    C887     C        0.98898    0.80225    0.15847    1.000
    C888     C        0.98651    0.76443    0.16329    1.000
    C889     C        0.95473    0.74509    0.15319    1.000
    C890     C        0.92520    0.76505    0.13779    1.000
    C891     C        0.08202    0.84519    0.17409    1.000
    C892     C        0.04390    0.84518    0.16515    1.000
    C893     C        0.02436    0.81202    0.16889    1.000
    C894     C        0.04144    0.77969    0.17989    1.000
    C895     C        0.07894    0.77924    0.18914    1.000
    C896     C        0.09890    0.81227    0.18690    1.000
    C897     C        0.28348    0.50648    0.12328    1.000
    C898     C        0.28772    0.52558    0.08951    1.000
    C899     C        0.26150    0.55221    0.08042    1.000
    C900     C        0.23227    0.56063    0.10339    1.000
    C901     C        0.22791    0.54291    0.13736    1.000
    C902     C        0.25389    0.51585    0.14728    1.000
    C903     C        0.27493    0.61127    0.99677    1.000
    C904     C        0.28277    0.58177    0.02115    1.000
    C905     C        0.25873    0.57555    0.05054    1.000
    C906     C        0.22766    0.59689    0.05639    1.000
    C907     C        0.21865    0.62568    0.03232    1.000
    C908     C        0.24239    0.63265    0.00226    1.000
    C909     C        0.17934    0.60465    0.10544    1.000
    C910     C        0.18050    0.64184    0.11602    1.000
    C911     C        0.14953    0.65862    0.13170    1.000
    C912     C        0.11675    0.63839    0.13743    1.000
    C913     C        0.11639    0.60052    0.12825    1.000
    C914     C        0.14736    0.58390    0.11208    1.000
    C915     C        0.03234    0.71334    0.16921    1.000
    C916     C        0.03491    0.70134    0.13246    1.000
    C917     C        0.06027    0.67403    0.12258    1.000
    C918     C        0.08333    0.65785    0.14942    1.000
    C919     C        0.07755    0.66700    0.18685    1.000
    C920     C        0.05262    0.69489    0.19655    1.000
    H441     H        0.96393    0.85192    0.13683    1.000
    H442     H        0.95281    0.71544    0.15680    1.000
    H443     H        0.90065    0.75010    0.12938    1.000
    H444     H        0.03045    0.86963    0.15434    1.000
    H445     H        0.09295    0.75411    0.19715    1.000
    H446     H        0.12814    0.81163    0.19330    1.000
    H447     H        0.31008    0.51930    0.07063    1.000
    H448     H        0.20519    0.54955    0.15567    1.000
    H449     H        0.25095    0.50219    0.17365    1.000
    H450     H        0.30772    0.56545    0.01844    1.000
    H451     H        0.19471    0.64297    0.03705    1.000
    H452     H        0.23609    0.65560    0.98413    1.000
    H453     H        0.20505    0.65817    0.11089    1.000
    H454     H        0.15083    0.68793    0.13753    1.000
    H455     H        0.09193    0.58391    0.13278    1.000
    H456     H        0.01994    0.71570    0.11088    1.000
    H457     H        0.06399    0.66814    0.09350    1.000
    H458     H        0.09407    0.65444    0.20842    1.000
    H459     H        0.05151    0.70432    0.22490    1.000
    H460     H        0.14659    0.55336    0.10428    1.000
    Cu47     Cu       0.17345    0.32873    0.41376    1.000
    Cu48     Cu       0.12778    0.37436    0.43854    1.000
    O185     O        0.13401    0.30952    0.38981    1.000
    O186     O        0.09429    0.35235    0.40720    1.000
    O187     O        0.70613    0.14711    0.55512    1.000
    O188     O        0.66510    0.10944    0.53046    1.000
    O189     O        0.86218    0.37908    0.31942    1.000
    O190     O        0.90512    0.40230    0.35601    1.000
    O191     O        0.69914    0.95471    0.34044    1.000
    O192     O        0.66086    0.97221    0.38457    1.000
    N47      N        0.98127    0.25006    0.32395    1.000
    N48      N        0.78896    0.08779    0.41121    1.000
    C921     C        0.10153    0.32302    0.38917    1.000
    C922     C        0.69765    0.12265    0.53132    1.000
    C923     C        0.89433    0.37745    0.33370    1.000
    C924     C        0.69088    0.97647    0.36675    1.000
    C925     C        0.07193    0.30368    0.36856    1.000
    C926     C        0.03936    0.32262    0.35805    1.000
    C927     C        0.01102    0.30225    0.34153    1.000
    C928     C        0.01349    0.26443    0.33671    1.000
    C929     C        0.04527    0.24509    0.34681    1.000
    C930     C        0.07480    0.26505    0.36221    1.000
    C931     C        0.91798    0.34519    0.32591    1.000
    C932     C        0.95610    0.34518    0.33485    1.000
    C933     C        0.97564    0.31202    0.33111    1.000
    C934     C        0.95856    0.27969    0.32011    1.000
    C935     C        0.92106    0.27924    0.31086    1.000
    C936     C        0.90110    0.31227    0.31310    1.000
    C937     C        0.71652    0.00648    0.37672    1.000
    C938     C        0.71228    0.02558    0.41049    1.000
    C939     C        0.73850    0.05221    0.41958    1.000
    C940     C        0.76773    0.06063    0.39661    1.000
    C941     C        0.77209    0.04291    0.36264    1.000
    C942     C        0.74611    0.01585    0.35272    1.000
    C943     C        0.72507    0.11127    0.50323    1.000
    C944     C        0.71723    0.08177    0.47885    1.000
    C945     C        0.74127    0.07555    0.44946    1.000
    C946     C        0.77234    0.09689    0.44361    1.000
    C947     C        0.78135    0.12568    0.46768    1.000
    C948     C        0.75761    0.13265    0.49774    1.000
    C949     C        0.82066    0.10465    0.39456    1.000
    C950     C        0.81950    0.14184    0.38398    1.000
    C951     C        0.85047    0.15862    0.36830    1.000
    C952     C        0.88325    0.13839    0.36257    1.000
    C953     C        0.88361    0.10052    0.37175    1.000
    C954     C        0.85264    0.08390    0.38792    1.000
    C955     C        0.96766    0.21334    0.33079    1.000
    C956     C        0.96509    0.20134    0.36754    1.000
    C957     C        0.93973    0.17403    0.37742    1.000
    C958     C        0.91667    0.15785    0.35058    1.000
    C959     C        0.92245    0.16700    0.31315    1.000
    C960     C        0.94738    0.19489    0.30345    1.000
    H461     H        0.03607    0.35192    0.36317    1.000
    H462     H        0.04719    0.21544    0.34320    1.000
    H463     H        0.09935    0.25010    0.37062    1.000
    H464     H        0.96955    0.36963    0.34566    1.000
    H465     H        0.90705    0.25411    0.30285    1.000
    H466     H        0.87186    0.31163    0.30670    1.000
    H467     H        0.68992    0.01930    0.42937    1.000
    H468     H        0.79481    0.04955    0.34433    1.000
    H469     H        0.74905    0.00219    0.32635    1.000
    H470     H        0.69228    0.06545    0.48156    1.000
    H471     H        0.80529    0.14297    0.46295    1.000
    H472     H        0.76391    0.15560    0.51587    1.000
    H473     H        0.79495    0.15817    0.38911    1.000
    H474     H        0.84917    0.18793    0.36247    1.000
    H475     H        0.90807    0.08391    0.36722    1.000
    H476     H        0.98006    0.21570    0.38912    1.000
    H477     H        0.93601    0.16814    0.40650    1.000
    H478     H        0.90593    0.15444    0.29158    1.000
    H479     H        0.94849    0.20432    0.27510    1.000
    H480     H        0.85341    0.05336    0.39572    1.000
