# CIF file generated by openbabel 3.1.0, see https://openbabel.org
data_I
_chemical_name_common 'image0'
_cell_length_a 17.4164
_cell_length_b 14.2453
_cell_length_c 20.4424
_cell_angle_alpha 90
_cell_angle_beta 114.512
_cell_angle_gamma 90
_space_group_name_H-M_alt 'P 1'
_space_group_name_Hall 'P 1'
loop_
    _symmetry_equiv_pos_as_xyz
    x,y,z
loop_
    _atom_site_label
    _atom_site_type_symbol
    _atom_site_fract_x
    _atom_site_fract_y
    _atom_site_fract_z
    _atom_site_occupancy
    Eu1      Eu       0.20785    0.88692    0.20392    1.000
    C1       C        0.35710    0.46570    0.24170    1.000
    C2       C        0.47480    0.39000    0.21950    1.000
    H1       H        0.50700    0.44360    0.23830    1.000
    O1       O        0.64190    0.38950    0.23500    1.000
    N1       N        0.25900    0.02150    0.14730    1.000
    O2       O        0.40570    0.52920    0.27720    1.000
    O3       O        0.27970    0.46400    0.22780    1.000
    C3       C        0.39330    0.38560    0.21350    1.000
    O4       O        0.24980    0.79700    0.12490    1.000
    C4       C        0.25370    0.56170    0.05940    1.000
    H2       H        0.25620    0.52850    0.09940    1.000
    C5       C        0.29280    0.10000    0.17890    1.000
    H3       H        0.28880    0.12290    0.21990    1.000
    N2       N        0.33430    0.14370    0.14510    1.000
    C6       C        0.25390    0.66010    0.06010    1.000
    C7       C        0.34420    0.30550    0.18620    1.000
    H4       H        0.28860    0.30290    0.18080    1.000
    O5       O        0.62720    0.24590    0.18780    1.000
    C8       C        0.32240    0.08750    0.08860    1.000
    H5       H        0.34310    0.10010    0.05430    1.000
    N3       N        0.21630    0.26720    0.01050    1.000
    C9       C        0.46290    0.23360    0.17180    1.000
    H6       H        0.48590    0.18250    0.15800    1.000
    O6       O        0.27230    0.65920    0.18060    1.000
    C10      C        0.50940    0.31480    0.19730    1.000
    C11      C        0.25850    0.70920    0.12690    1.000
    C12      C        0.38120    0.22980    0.16720    1.000
    C13      C        0.60090    0.31800    0.20850    1.000
    N4       N        0.27870    0.01400    0.08820    1.000
    C14      C        0.19930    0.35340    0.01620    1.000
    H7       H        0.15720    0.37310    0.02990    1.000
    Eu2      Eu       0.70785    0.38692    0.70392    1.000
    C15      C        0.85710    0.96570    0.74170    1.000
    C16      C        0.97480    0.89000    0.71950    1.000
    H8       H        0.00700    0.94360    0.73830    1.000
    O7       O        0.14190    0.88950    0.73500    1.000
    N5       N        0.75900    0.52150    0.64730    1.000
    O8       O        0.90570    0.02920    0.77720    1.000
    O9       O        0.77970    0.96400    0.72780    1.000
    C17      C        0.89330    0.88560    0.71350    1.000
    O10      O        0.74980    0.29700    0.62490    1.000
    C18      C        0.75370    0.06170    0.55940    1.000
    H9       H        0.75620    0.02850    0.59940    1.000
    C19      C        0.79280    0.60000    0.67890    1.000
    H10      H        0.78880    0.62290    0.71990    1.000
    N6       N        0.83430    0.64370    0.64510    1.000
    C20      C        0.75390    0.16010    0.56010    1.000
    C21      C        0.84420    0.80550    0.68620    1.000
    H11      H        0.78860    0.80290    0.68080    1.000
    O11      O        0.12720    0.74590    0.68780    1.000
    C22      C        0.82240    0.58750    0.58860    1.000
    H12      H        0.84310    0.60010    0.55430    1.000
    N7       N        0.71630    0.76720    0.51050    1.000
    C23      C        0.96290    0.73360    0.67180    1.000
    H13      H        0.98590    0.68250    0.65800    1.000
    O12      O        0.77230    0.15920    0.68060    1.000
    C24      C        0.00940    0.81480    0.69730    1.000
    C25      C        0.75850    0.20920    0.62690    1.000
    C26      C        0.88120    0.72980    0.66720    1.000
    C27      C        0.10090    0.81800    0.70850    1.000
    N8       N        0.77870    0.51400    0.58820    1.000
    C28      C        0.69930    0.85340    0.51620    1.000
    H14      H        0.65720    0.87310    0.52990    1.000
    Eu3      Eu       0.29215    0.88692    0.79608    1.000
    C29      C        0.14290    0.46570    0.75830    1.000
    C30      C        0.02520    0.39000    0.78050    1.000
    H15      H        0.99300    0.44360    0.76170    1.000
    O13      O        0.85810    0.38950    0.76500    1.000
    N9       N        0.24100    0.02150    0.85270    1.000
    O14      O        0.09430    0.52920    0.72280    1.000
    O15      O        0.22030    0.46400    0.77220    1.000
    C31      C        0.10670    0.38560    0.78650    1.000
    O16      O        0.25020    0.79700    0.87510    1.000
    C32      C        0.24630    0.56170    0.94060    1.000
    H16      H        0.24380    0.52850    0.90060    1.000
    C33      C        0.20720    0.10000    0.82110    1.000
    H17      H        0.21120    0.12290    0.78010    1.000
    N10      N        0.16570    0.14370    0.85490    1.000
    C34      C        0.24610    0.66010    0.93990    1.000
    C35      C        0.15580    0.30550    0.81380    1.000
    H18      H        0.21140    0.30290    0.81920    1.000
    O17      O        0.87280    0.24590    0.81220    1.000
    C36      C        0.17760    0.08750    0.91140    1.000
    H19      H        0.15690    0.10010    0.94570    1.000
    N11      N        0.28370    0.26720    0.98950    1.000
    C37      C        0.03710    0.23360    0.82820    1.000
    H20      H        0.01410    0.18250    0.84200    1.000
    O18      O        0.22770    0.65920    0.81940    1.000
    C38      C        0.99060    0.31480    0.80270    1.000
    C39      C        0.24150    0.70920    0.87310    1.000
    C40      C        0.11880    0.22980    0.83280    1.000
    C41      C        0.89910    0.31800    0.79150    1.000
    N12      N        0.22130    0.01400    0.91180    1.000
    C42      C        0.30070    0.35340    0.98380    1.000
    H21      H        0.34280    0.37310    0.97010    1.000
    Eu4      Eu       0.79215    0.38692    0.29608    1.000
    C43      C        0.64290    0.96570    0.25830    1.000
    C44      C        0.52520    0.89000    0.28050    1.000
    H22      H        0.49300    0.94360    0.26170    1.000
    O19      O        0.35810    0.88950    0.26500    1.000
    N13      N        0.74100    0.52150    0.35270    1.000
    O20      O        0.59430    0.02920    0.22280    1.000
    O21      O        0.72030    0.96400    0.27220    1.000
    C45      C        0.60670    0.88560    0.28650    1.000
    O22      O        0.75020    0.29700    0.37510    1.000
    C46      C        0.74630    0.06170    0.44060    1.000
    H23      H        0.74380    0.02850    0.40060    1.000
    C47      C        0.70720    0.60000    0.32110    1.000
    H24      H        0.71120    0.62290    0.28010    1.000
    N14      N        0.66570    0.64370    0.35490    1.000
    C48      C        0.74610    0.16010    0.43990    1.000
    C49      C        0.65580    0.80550    0.31380    1.000
    H25      H        0.71140    0.80290    0.31920    1.000
    O23      O        0.37280    0.74590    0.31220    1.000
    C50      C        0.67760    0.58750    0.41140    1.000
    H26      H        0.65690    0.60010    0.44570    1.000
    N15      N        0.78370    0.76720    0.48950    1.000
    C51      C        0.53710    0.73360    0.32820    1.000
    H27      H        0.51410    0.68250    0.34200    1.000
    O24      O        0.72770    0.15920    0.31940    1.000
    C52      C        0.49060    0.81480    0.30270    1.000
    C53      C        0.74150    0.20920    0.37310    1.000
    C54      C        0.61880    0.72980    0.33280    1.000
    C55      C        0.39910    0.81800    0.29150    1.000
    N16      N        0.72130    0.51400    0.41180    1.000
    C56      C        0.80070    0.85340    0.48380    1.000
    H28      H        0.84280    0.87310    0.47010    1.000
    Eu5      Eu       0.79215    0.11308    0.79608    1.000
    C57      C        0.64290    0.53430    0.75830    1.000
    C58      C        0.52520    0.61000    0.78050    1.000
    H29      H        0.49300    0.55640    0.76170    1.000
    O25      O        0.35810    0.61050    0.76500    1.000
    N17      N        0.74100    0.97850    0.85270    1.000
    O26      O        0.59430    0.47080    0.72280    1.000
    O27      O        0.72030    0.53600    0.77220    1.000
    C59      C        0.60670    0.61440    0.78650    1.000
    O28      O        0.75020    0.20300    0.87510    1.000
    C60      C        0.74630    0.43830    0.94060    1.000
    H30      H        0.74380    0.47150    0.90060    1.000
    C61      C        0.70720    0.90000    0.82110    1.000
    H31      H        0.71120    0.87710    0.78010    1.000
    N18      N        0.66570    0.85630    0.85490    1.000
    C62      C        0.74610    0.33990    0.93990    1.000
    C63      C        0.65580    0.69450    0.81380    1.000
    H32      H        0.71140    0.69710    0.81920    1.000
    O29      O        0.37280    0.75410    0.81220    1.000
    C64      C        0.67760    0.91250    0.91140    1.000
    H33      H        0.65690    0.89990    0.94570    1.000
    N19      N        0.78370    0.73280    0.98950    1.000
    C65      C        0.53710    0.76640    0.82820    1.000
    H34      H        0.51410    0.81750    0.84200    1.000
    O30      O        0.72770    0.34080    0.81940    1.000
    C66      C        0.49060    0.68520    0.80270    1.000
    C67      C        0.74150    0.29080    0.87310    1.000
    C68      C        0.61880    0.77020    0.83280    1.000
    C69      C        0.39910    0.68200    0.79150    1.000
    N20      N        0.72130    0.98600    0.91180    1.000
    C70      C        0.80070    0.64660    0.98380    1.000
    H35      H        0.84280    0.62690    0.97010    1.000
    Eu6      Eu       0.29215    0.61308    0.29608    1.000
    C71      C        0.14290    0.03430    0.25830    1.000
    C72      C        0.02520    0.11000    0.28050    1.000
    H36      H        0.99300    0.05640    0.26170    1.000
    O31      O        0.85810    0.11050    0.26500    1.000
    N21      N        0.24100    0.47850    0.35270    1.000
    O32      O        0.09430    0.97080    0.22280    1.000
    O33      O        0.22030    0.03600    0.27220    1.000
    C73      C        0.10670    0.11440    0.28650    1.000
    O34      O        0.25020    0.70300    0.37510    1.000
    C74      C        0.24630    0.93830    0.44060    1.000
    H37      H        0.24380    0.97150    0.40060    1.000
    C75      C        0.20720    0.40000    0.32110    1.000
    H38      H        0.21120    0.37710    0.28010    1.000
    N22      N        0.16570    0.35630    0.35490    1.000
    C76      C        0.24610    0.83990    0.43990    1.000
    C77      C        0.15580    0.19450    0.31380    1.000
    H39      H        0.21140    0.19710    0.31920    1.000
    O35      O        0.87280    0.25410    0.31220    1.000
    C78      C        0.17760    0.41250    0.41140    1.000
    H40      H        0.15690    0.39990    0.44570    1.000
    N23      N        0.28370    0.23280    0.48950    1.000
    C79      C        0.03710    0.26640    0.32820    1.000
    H41      H        0.01410    0.31750    0.34200    1.000
    O36      O        0.22770    0.84080    0.31940    1.000
    C80      C        0.99060    0.18520    0.30270    1.000
    C81      C        0.24150    0.79080    0.37310    1.000
    C82      C        0.11880    0.27020    0.33280    1.000
    C83      C        0.89910    0.18200    0.29150    1.000
    N24      N        0.22130    0.48600    0.41180    1.000
    C84      C        0.30070    0.14660    0.48380    1.000
    H42      H        0.34280    0.12690    0.47010    1.000
    Eu7      Eu       0.70785    0.11308    0.20392    1.000
    C85      C        0.85710    0.53430    0.24170    1.000
    C86      C        0.97480    0.61000    0.21950    1.000
    H43      H        0.00700    0.55640    0.23830    1.000
    O37      O        0.14190    0.61050    0.23500    1.000
    N25      N        0.75900    0.97850    0.14730    1.000
    O38      O        0.90570    0.47080    0.27720    1.000
    O39      O        0.77970    0.53600    0.22780    1.000
    C87      C        0.89330    0.61440    0.21350    1.000
    O40      O        0.74980    0.20300    0.12490    1.000
    C88      C        0.75370    0.43830    0.05940    1.000
    H44      H        0.75620    0.47150    0.09940    1.000
    C89      C        0.79280    0.90000    0.17890    1.000
    H45      H        0.78880    0.87710    0.21990    1.000
    N26      N        0.83430    0.85630    0.14510    1.000
    C90      C        0.75390    0.33990    0.06010    1.000
    C91      C        0.84420    0.69450    0.18620    1.000
    H46      H        0.78860    0.69710    0.18080    1.000
    O41      O        0.12720    0.75410    0.18780    1.000
    C92      C        0.82240    0.91250    0.08860    1.000
    H47      H        0.84310    0.89990    0.05430    1.000
    N27      N        0.71630    0.73280    0.01050    1.000
    C93      C        0.96290    0.76640    0.17180    1.000
    H48      H        0.98590    0.81750    0.15800    1.000
    O42      O        0.77230    0.34080    0.18060    1.000
    C94      C        0.00940    0.68520    0.19730    1.000
    C95      C        0.75850    0.29080    0.12690    1.000
    C96      C        0.88120    0.77020    0.16720    1.000
    C97      C        0.10090    0.68200    0.20850    1.000
    N28      N        0.77870    0.98600    0.08820    1.000
    C98      C        0.69930    0.64660    0.01620    1.000
    H49      H        0.65720    0.62690    0.02990    1.000
    Eu8      Eu       0.20785    0.61308    0.70392    1.000
    C99      C        0.35710    0.03430    0.74170    1.000
    C100     C        0.47480    0.11000    0.71950    1.000
    H50      H        0.50700    0.05640    0.73830    1.000
    O43      O        0.64190    0.11050    0.73500    1.000
    N29      N        0.25900    0.47850    0.64730    1.000
    O44      O        0.40570    0.97080    0.77720    1.000
    O45      O        0.27970    0.03600    0.72780    1.000
    C101     C        0.39330    0.11440    0.71350    1.000
    O46      O        0.24980    0.70300    0.62490    1.000
    C102     C        0.25370    0.93830    0.55940    1.000
    H51      H        0.25620    0.97150    0.59940    1.000
    C103     C        0.29280    0.40000    0.67890    1.000
    H52      H        0.28880    0.37710    0.71990    1.000
    N30      N        0.33430    0.35630    0.64510    1.000
    C104     C        0.25390    0.83990    0.56010    1.000
    C105     C        0.34420    0.19450    0.68620    1.000
    H53      H        0.28860    0.19710    0.68080    1.000
    O47      O        0.62720    0.25410    0.68780    1.000
    C106     C        0.32240    0.41250    0.58860    1.000
    H54      H        0.34310    0.39990    0.55430    1.000
    N31      N        0.21630    0.23280    0.51050    1.000
    C107     C        0.46290    0.26640    0.67180    1.000
    H55      H        0.48590    0.31750    0.65800    1.000
    O48      O        0.27230    0.84080    0.68060    1.000
    C108     C        0.50940    0.18520    0.69730    1.000
    C109     C        0.25850    0.79080    0.62690    1.000
    C110     C        0.38120    0.27020    0.66720    1.000
    C111     C        0.60090    0.18200    0.70850    1.000
    N32      N        0.27870    0.48600    0.58820    1.000
    C112     C        0.19930    0.14660    0.51620    1.000
    H56      H        0.15720    0.12690    0.52990    1.000
    C113     C        0.25000    0.51460    0.00000    1.000
    N33      N        0.25000    0.41310    0.00000    1.000
    C114     C        0.25000    0.70680    0.00000    1.000
    H57      H        0.25000    0.77210    0.00000    1.000
    C115     C        0.75000    0.01460    0.50000    1.000
    N34      N        0.75000    0.91310    0.50000    1.000
    C116     C        0.75000    0.20680    0.50000    1.000
    H58      H        0.75000    0.27210    0.50000    1.000
    C117     C        0.75000    0.48540    0.00000    1.000
    N35      N        0.75000    0.58690    0.00000    1.000
    C118     C        0.75000    0.29320    0.00000    1.000
    H59      H        0.75000    0.22790    0.00000    1.000
    C119     C        0.25000    0.98540    0.50000    1.000
    N36      N        0.25000    0.08690    0.50000    1.000
    C120     C        0.25000    0.79320    0.50000    1.000
    H60      H        0.25000    0.72790    0.50000    1.000
