data_functionalizedCrystal
_audit_creation_method	'EQeq! by Chris Wilmer'
_symmetry_space_group_name_H-M	'P1'
_symmetry_Int_Tables_number	1
_symmetry_cell_setting	triclinic
loop_
_symmetry_equiv_pos_as_xyz
  x,y,z
_cell_length_a	9.5778
_cell_length_b	15.6062
_cell_length_c	15.6062
_cell_angle_alpha	64.073
_cell_angle_beta	78.1956
_cell_angle_gamma	101.804
loop_
_atom_site_label
_atom_site_type_symbol
_atom_site_fract_x
_atom_site_fract_y
_atom_site_fract_z
_atom_site_charge
Mof_Fe	Fe	-0	0	0.5	0.618
Mof_Fe	Fe	0.5	0.5	0.5	0.684
Mof_Fe	Fe	-0	0.5	-0	0.617
Mof_Si	Si	0.793	0.293	0.414	0.314
Mof_Si	Si	0.793	0.586	0.707	0.317
Mof_Si	Si	0.207	0.707	0.586	0.279
Mof_Si	Si	0.5	0.293	0.293	0.293
Mof_Si	Si	0.207	0.414	0.293	0.274
Mof_Si	Si	0.5	0.707	0.707	0.302
Mof_H 	H 	0.1219	0.1481	0.2752	-0.013
Mof_H 	H 	0.8282	0.8486	0.8757	0.095
Mof_H 	H 	0.9738	0.5767	0.1481	0.052
Mof_H 	H 	0.0262	0.1481	0.5767	-0.075
Mof_H 	H 	0.9796	0.1514	0.7243	0.111
Mof_H 	H 	0.2961	0.2757	0.8757	0.083
Mof_H 	H 	0.7039	0.7243	0.1243	0.087
Mof_H 	H 	0.1718	0.8757	0.8486	0.07
Mof_H 	H 	0.3971	0.2752	0.5767	-0.017
Mof_H 	H 	0.8282	0.1243	0.1514	0.092
Mof_H 	H 	0.6029	0.5767	0.2752	-0.015
Mof_H 	H 	0.1718	0.1514	0.1243	0.068
Mof_H 	H 	0.8781	0.2752	0.1481	-0.012
Mof_H 	H 	0.2961	0.1243	0.7243	0.078
Mof_H 	H 	0.3971	0.4233	0.7248	-0.016
Mof_H 	H 	0.0262	0.4233	0.8519	-0.075
Mof_H 	H 	0.7039	0.8757	0.2757	0.092
Mof_H 	H 	0.8781	0.8519	0.7248	-0.014
Mof_H 	H 	0.0204	0.8486	0.2757	0.051
Mof_H 	H 	0.6029	0.7248	0.4233	-0.015
Mof_H 	H 	0.1219	0.7248	0.8519	-0.015
Mof_H 	H 	0.9738	0.8519	0.4233	0.045
Mof_H 	H 	0.9796	0.2757	0.8486	0.108
Mof_H 	H 	0.0204	0.7243	0.1514	0.052
Mof_C 	C 	0.3113	0.6059	0.82	-0.07
Mof_C 	C 	0.2946	0.6059	0.5741	-0.071
Mof_C 	C 	0.0425	0.9103	0.2741	-0.078
Mof_C 	C 	0.1313	0.4259	0.18	-0.081
Mof_C 	C 	0.3766	0.3626	0.7247	0.084
Mof_C 	C 	0.8678	0.1844	0.0897	-0.159
Mof_C 	C 	0.7138	0.818	0.182	0.069
Mof_C 	C 	0.7054	0.3941	0.4259	-0.065
Mof_C 	C 	0.8987	0.2753	0.0873	0.099
Mof_C 	C 	0.7758	0.9143	0.0857	0.115
Mof_C 	C 	0.6834	0.8156	0.2741	-0.146
Mof_C 	C 	0.1322	0.8156	0.9103	-0.106
Mof_C 	C 	0.986	0.0873	0.6374	0.18
Mof_C 	C 	0.3113	0.18	0.3941	-0.073
Mof_C 	C 	0.8615	0.0857	-0	0.088
Mof_C 	C 	0.014	0.9127	0.3626	0.001
Mof_C 	C 	0.1042	0.818	-0	0.011
Mof_C 	C 	0.8687	0.18	0.4259	-0.061
Mof_C 	C 	0.3166	0.1844	0.7259	-0.148
Mof_C 	C 	0.014	0.6374	0.0873	-0.02
Mof_C 	C 	0.8958	0	0.818	0.08
Mof_C 	C 	0.1322	0.0897	0.1844	-0.124
Mof_C 	C 	0.2946	0.4259	0.3941	-0.071
Mof_C 	C 	0.1013	0.0873	0.2753	0.062
Mof_C 	C 	0.7054	0.5741	0.6059	-0.066
Mof_C 	C 	0.6234	0.7247	0.3626	0.092
Mof_C 	C 	0.1013	0.7247	0.9127	0.077
Mof_C 	C 	0.6887	0.3941	0.18	-0.069
Mof_C 	C 	0.8678	0.9103	0.8156	-0.148
Mof_C 	C 	0.2862	0.182	0.818	0.058
Mof_C 	C 	0.3166	0.2741	0.8156	-0.148
Mof_C 	C 	0.1385	0	0.0857	0.093
Mof_C 	C 	0.6234	0.6374	0.2753	0.092
Mof_C 	C 	0.9575	0.2741	0.9103	-0.182
Mof_C 	C 	0.8687	0.5741	0.82	-0.059
Mof_C 	C 	0.3766	0.2753	0.6374	0.084
Mof_C 	C 	0.1313	0.82	0.5741	-0.077
Mof_C 	C 	0.1385	0.9143	-0	0.108
Mof_C 	C 	0.1042	-2.93666e-17	0.182	0.016
Mof_C 	C 	0.0425	0.7259	0.0897	-0.085
Mof_C 	C 	0.6834	0.7259	0.1844	-0.146
Mof_C 	C 	0.8958	0.182	-0	0.08
Mof_C 	C 	0.9575	0.0897	0.7259	-0.195
Mof_C 	C 	0.8615	-5.87333e-17	0.9143	0.102
Mof_C 	C 	0.986	0.3626	0.9127	0.188
Mof_C 	C 	0.8987	0.9127	0.7247	0.112
Mof_C 	C 	0.2242	0.0857	0.9143	0.107
Mof_C 	C 	0.6887	0.82	0.6059	-0.067
Mof_N 	N 	0.8948	0.0886	0.9114	-0.128
Mof_N 	N 	0.1938	-5.87333e-17	0.9114	-0.147
Mof_N 	N 	0.5931	0.6356	0.3644	-0.2
Mof_N 	N 	0.9087	0.554	0.8887	-0.146
Mof_N 	N 	0.6453	0.4427	0.446	-0.167
Mof_N 	N 	0.7974	0.8887	0.5573	-0.15
Mof_N 	N 	0.3547	0.446	0.4427	-0.172
Mof_N 	N 	0.0913	0.8887	0.554	-0.166
Mof_N 	N 	0.0425	0.6356	-0	-0.189
Mof_N 	N 	0.9575	0	0.6356	-0.209
Mof_N 	N 	0.9087	0.1113	0.446	-0.152
Mof_N 	N 	0.1938	0.0886	-0	-0.154
Mof_N 	N 	0.8062	0.9114	-0	-0.139
Mof_N 	N 	0.7974	0.4427	0.1113	-0.155
Mof_N 	N 	0.9575	0.3644	-0	-0.208
Mof_N 	N 	0.8062	-7.34166e-18	0.0886	-0.143
Mof_N 	N 	0.0913	0.446	0.1113	-0.173
Mof_N 	N 	0.6453	0.554	0.5573	-0.167
Mof_N 	N 	0.3547	0.5573	0.554	-0.171
Mof_N 	N 	0.2026	0.1113	0.4427	-0.17
Mof_N 	N 	0.0425	-2.93666e-17	0.3644	-0.19
Mof_N 	N 	0.1052	0.9114	0.0886	-0.14
Mof_N 	N 	0.4069	0.3644	0.6356	-0.2
Mof_N 	N 	0.2026	0.5573	0.8887	-0.162
_end
