# CIF file generated by openbabel 3.1.0, see https://openbabel.org
data_I
_chemical_name_common 'image0'
_cell_length_a 9.8051
_cell_length_b 19.5696
_cell_length_c 17.339
_cell_angle_alpha 90
_cell_angle_beta 92.015
_cell_angle_gamma 90
_space_group_name_H-M_alt 'P 1'
_space_group_name_Hall 'P 1'
loop_
    _symmetry_equiv_pos_as_xyz
    x,y,z
loop_
    _atom_site_label
    _atom_site_type_symbol
    _atom_site_fract_x
    _atom_site_fract_y
    _atom_site_fract_z
    _atom_site_occupancy
    U1       U        0.71422    0.25837    0.01197    1.000
    U2       U        0.29220    0.23707    0.96406    1.000
    U3       U        0.25287    0.36571    0.24235    1.000
    P1       P        0.50850    0.35769    0.08687    1.000
    O1       O        0.66000    0.34640    0.10670    1.000
    O2       O        0.47100    0.30040    0.02910    1.000
    O3       O        0.42100    0.35840    0.15660    1.000
    C1       C        0.49430    0.43740    0.03710    1.000
    C2       C        0.50950    0.44000    0.95750    1.000
    H1       H        0.51750    0.39900    0.92870    1.000
    P2       P        0.49520    0.13306    0.89535    1.000
    O4       O        0.53600    0.19470    0.94670    1.000
    O5       O        0.34460    0.14530    0.87330    1.000
    O6       O        0.58520    0.12170    0.82700    1.000
    C3       C        0.50530    0.05880    0.95490    1.000
    C4       C        0.48720    0.49850    0.07830    1.000
    H2       H        0.48000    0.49700    0.13280    1.000
    C5       C        0.49840    0.06340    0.03640    1.000
    H3       H        0.49650    0.10690    0.06060    1.000
    C6       C        0.50540    0.99450    0.91990    1.000
    H4       H        0.50820    0.99110    0.86540    1.000
    P3       P        0.96170    0.14567    0.91634    1.000
    O7       O        0.08860    0.18950    0.92030    1.000
    O8       O        0.92630    0.12460    0.83230    1.000
    O9       O        0.84120    0.18050    0.95140    1.000
    C7       C        0.98660    0.06600    0.96770    1.000
    C8       C        0.11170    0.03180    0.96970    1.000
    H5       H        0.18860    0.05280    0.94770    1.000
    C9       C        0.87410    0.03300    0.99640    1.000
    H6       H        0.78700    0.05430    0.99310    1.000
    P4       P        0.04580    0.34712    0.06297    1.000
    O10      O        0.08920    0.35640    0.14780    1.000
    O11      O        0.91910    0.30380    0.05550    1.000
    O12      O        0.16290    0.31750    0.01960    1.000
    C10      C        0.01450    0.43230    0.02570    1.000
    C11      C        0.12660    0.46980    0.99940    1.000
    H7       H        0.21380    0.44880    0.99800    1.000
    C12      C        0.88930    0.46250    0.02460    1.000
    H8       H        0.81220    0.43730    0.04030    1.000
    U4       U        0.78578    0.75837    0.48803    1.000
    U5       U        0.20780    0.73707    0.53594    1.000
    U6       U        0.24713    0.86571    0.25765    1.000
    P5       P        0.99150    0.85769    0.41313    1.000
    O13      O        0.84000    0.84640    0.39330    1.000
    O14      O        0.02900    0.80040    0.47090    1.000
    O15      O        0.07900    0.85840    0.34340    1.000
    C13      C        0.00570    0.93740    0.46290    1.000
    C14      C        0.99050    0.94000    0.54250    1.000
    H9       H        0.98250    0.89900    0.57130    1.000
    P6       P        0.00480    0.63306    0.60465    1.000
    O16      O        0.96400    0.69470    0.55330    1.000
    O17      O        0.15540    0.64530    0.62670    1.000
    O18      O        0.91480    0.62170    0.67300    1.000
    C15      C        0.99470    0.55880    0.54510    1.000
    C16      C        0.01280    0.99850    0.42170    1.000
    H10      H        0.02000    0.99700    0.36720    1.000
    C17      C        0.00160    0.56340    0.46360    1.000
    H11      H        0.00350    0.60690    0.43940    1.000
    C18      C        0.99460    0.49450    0.58010    1.000
    H12      H        0.99180    0.49110    0.63460    1.000
    P7       P        0.53830    0.64567    0.58366    1.000
    O19      O        0.41140    0.68950    0.57970    1.000
    O20      O        0.57370    0.62460    0.66770    1.000
    O21      O        0.65880    0.68050    0.54860    1.000
    C19      C        0.51340    0.56600    0.53230    1.000
    C20      C        0.38830    0.53180    0.53030    1.000
    H13      H        0.31140    0.55280    0.55230    1.000
    C21      C        0.62590    0.53300    0.50360    1.000
    H14      H        0.71300    0.55430    0.50690    1.000
    P8       P        0.45420    0.84712    0.43703    1.000
    O22      O        0.41080    0.85640    0.35220    1.000
    O23      O        0.58090    0.80380    0.44450    1.000
    O24      O        0.33710    0.81750    0.48040    1.000
    C22      C        0.48550    0.93230    0.47430    1.000
    C23      C        0.37340    0.96980    0.50060    1.000
    H15      H        0.28620    0.94880    0.50200    1.000
    C24      C        0.61070    0.96250    0.47540    1.000
    H16      H        0.68780    0.93730    0.45970    1.000
    U7       U        0.28578    0.74163    0.98803    1.000
    U8       U        0.70780    0.76293    0.03594    1.000
    U9       U        0.74713    0.63429    0.75765    1.000
    P9       P        0.49150    0.64231    0.91313    1.000
    O25      O        0.34000    0.65360    0.89330    1.000
    O26      O        0.52900    0.69960    0.97090    1.000
    O27      O        0.57900    0.64160    0.84340    1.000
    C25      C        0.50570    0.56260    0.96290    1.000
    C26      C        0.49050    0.56000    0.04250    1.000
    H17      H        0.48250    0.60100    0.07130    1.000
    P10      P        0.50480    0.86694    0.10465    1.000
    O28      O        0.46400    0.80530    0.05330    1.000
    O29      O        0.65540    0.85470    0.12670    1.000
    O30      O        0.41480    0.87830    0.17300    1.000
    C27      C        0.49470    0.94120    0.04510    1.000
    C28      C        0.51280    0.50150    0.92170    1.000
    H18      H        0.52000    0.50300    0.86720    1.000
    C29      C        0.50160    0.93660    0.96360    1.000
    H19      H        0.50350    0.89310    0.93940    1.000
    C30      C        0.49460    0.00550    0.08010    1.000
    H20      H        0.49180    0.00890    0.13460    1.000
    P11      P        0.03830    0.85433    0.08366    1.000
    O31      O        0.91140    0.81050    0.07970    1.000
    O32      O        0.07370    0.87540    0.16770    1.000
    O33      O        0.15880    0.81950    0.04860    1.000
    C31      C        0.01340    0.93400    0.03230    1.000
    C32      C        0.88830    0.96820    0.03030    1.000
    H21      H        0.81140    0.94720    0.05230    1.000
    C33      C        0.12590    0.96700    0.00360    1.000
    H22      H        0.21300    0.94570    0.00690    1.000
    P12      P        0.95420    0.65288    0.93703    1.000
    O34      O        0.91080    0.64360    0.85220    1.000
    O35      O        0.08090    0.69620    0.94450    1.000
    O36      O        0.83710    0.68250    0.98040    1.000
    C34      C        0.98550    0.56770    0.97430    1.000
    C35      C        0.87340    0.53020    0.00060    1.000
    H23      H        0.78620    0.55120    0.00200    1.000
    C36      C        0.11070    0.53750    0.97540    1.000
    H24      H        0.18780    0.56270    0.95970    1.000
    U10      U        0.21422    0.24163    0.51197    1.000
    U11      U        0.79220    0.26293    0.46406    1.000
    U12      U        0.75287    0.13429    0.74235    1.000
    P13      P        0.00850    0.14231    0.58687    1.000
    O37      O        0.16000    0.15360    0.60670    1.000
    O38      O        0.97100    0.19960    0.52910    1.000
    O39      O        0.92100    0.14160    0.65660    1.000
    C37      C        0.99430    0.06260    0.53710    1.000
    C38      C        0.00950    0.06000    0.45750    1.000
    H25      H        0.01750    0.10100    0.42870    1.000
    P14      P        0.99520    0.36694    0.39535    1.000
    O40      O        0.03600    0.30530    0.44670    1.000
    O41      O        0.84460    0.35470    0.37330    1.000
    O42      O        0.08520    0.37830    0.32700    1.000
    C39      C        0.00530    0.44120    0.45490    1.000
    C40      C        0.98720    0.00150    0.57830    1.000
    H26      H        0.98000    0.00300    0.63280    1.000
    C41      C        0.99840    0.43660    0.53640    1.000
    H27      H        0.99650    0.39310    0.56060    1.000
    C42      C        0.00540    0.50550    0.41990    1.000
    H28      H        0.00820    0.50890    0.36540    1.000
    P15      P        0.46170    0.35433    0.41634    1.000
    O43      O        0.58860    0.31050    0.42030    1.000
    O44      O        0.42630    0.37540    0.33230    1.000
    O45      O        0.34120    0.31950    0.45140    1.000
    C43      C        0.48660    0.43400    0.46770    1.000
    C44      C        0.61170    0.46820    0.46970    1.000
    H29      H        0.68860    0.44720    0.44770    1.000
    C45      C        0.37410    0.46700    0.49640    1.000
    H30      H        0.28700    0.44570    0.49310    1.000
    P16      P        0.54580    0.15288    0.56297    1.000
    O46      O        0.58920    0.14360    0.64780    1.000
    O47      O        0.41910    0.19620    0.55550    1.000
    O48      O        0.66290    0.18250    0.51960    1.000
    C46      C        0.51450    0.06770    0.52570    1.000
    C47      C        0.62660    0.03020    0.49940    1.000
    H31      H        0.71380    0.05120    0.49800    1.000
    C48      C        0.38930    0.03750    0.52460    1.000
    H32      H        0.31220    0.06270    0.54030    1.000
