data_functionalizedCrystal
_audit_creation_method	'EQeq! by Chris Wilmer'
_symmetry_space_group_name_H-M	'P1'
_symmetry_Int_Tables_number	1
_symmetry_cell_setting	triclinic
loop_
_symmetry_equiv_pos_as_xyz
  x,y,z
_cell_length_a	10.1912
_cell_length_b	13.7008
_cell_length_c	24.471
_cell_angle_alpha	81.0302
_cell_angle_beta	77.9813
_cell_angle_gamma	68.166
loop_
_atom_site_label
_atom_site_type_symbol
_atom_site_fract_x
_atom_site_fract_y
_atom_site_fract_z
_atom_site_charge
Mof_Ag	Ag	0.56896	0.05147	0.34645	0.528
Mof_Ag	Ag	0.94423	0.566	0.12172	0.425
Mof_Ag	Ag	0.29174	0.96758	0.83716	0.491
Mof_Ag	Ag	0.20319	0.00955	0.39029	0.521
Mof_Ag	Ag	0.39697	0.50955	0.89029	0.518
Mof_Ag	Ag	0.03567	0.26855	0.82717	0.465
Mof_Ag	Ag	0.86861	0.76855	0.32717	0.447
Mof_Ag	Ag	0.90352	0.46758	0.33716	0.485
Mof_Ag	Ag	0.67884	0.27261	0.81437	0.486
Mof_Ag	Ag	0.23418	0.77261	0.31437	0.485
Mof_Ag	Ag	0.03312	0.55147	0.84645	0.53
Mof_Ag	Ag	0.65739	0.07083	0.51247	0.399
Mof_Ag	Ag	0.75931	0.57083	0.01247	0.374
Mof_Ag	Ag	0.36805	0.066	0.62172	0.439
Mof_H 	H 	0.2933	0.5827	0.7685	-0.03
Mof_H 	H 	0.6994	0.9388	0.762	0.077
Mof_H 	H 	0.9845	0.0882	0.4818	-0.031
Mof_H 	H 	0.2688	0.8817	0.7261	-0.013
Mof_H 	H 	0.5029	0.5812	0.3168	-0.008
Mof_H 	H 	0.4455	0.5882	0.9818	-0.01
Mof_H 	H 	0.9601	0.2329	0.3381	-0.025
Mof_H 	H 	0.3839	0.7055	0.7137	0.05
Mof_H 	H 	0.1969	0.2055	0.2137	0.05
Mof_H 	H 	0.6124	0.4558	0.4036	-0.023
Mof_H 	H 	0.7835	0.7011	0.2239	-0.036
Mof_H 	H 	0.5901	0.9248	0.695	-0.031
Mof_H 	H 	0.7901	0.4248	0.195	-0.03
Mof_H 	H 	0.3555	0.0827	0.2685	-0.028
Mof_H 	H 	0.4057	0.3098	0.3316	0.001
Mof_H 	H 	0.76	0.0241	0.6239	-0.024
Mof_H 	H 	0.5991	0.0812	0.8168	-0.009
Mof_H 	H 	0.4689	0.7329	0.8381	-0.024
Mof_H 	H 	0.1781	0.9766	0.6194	-0.022
Mof_H 	H 	0.5282	0.9558	0.9036	-0.023
Mof_H 	H 	0.9529	0.8098	0.8316	-0.004
Mof_H 	H 	0.5998	0.4388	0.262	0.075
Mof_H 	H 	0.497	0.3353	0.4329	0.051
Mof_H 	H 	0.1234	0.3817	0.2261	-0.01
Mof_H 	H 	0.3991	0.4806	0.169	0.066
Mof_H 	H 	0.7348	0.8353	0.9329	0.053
Mof_H 	H 	0.2259	0.4766	0.1194	-0.012
Mof_H 	H 	0.9513	0.9806	0.669	0.062
Mof_H 	H 	0.592	0.5241	0.1239	-0.023
Mof_H 	H 	0.6157	0.1622	0.4106	-0.041
Mof_H 	H 	0.8115	0.6622	0.9106	-0.04
Mof_H 	H 	0.2915	0.2011	0.7239	-0.036
Mof_C 	C 	0.5223	0.5276	0.1038	0.048
Mof_C 	C 	0.558	0.8857	0.8959	0.056
Mof_C 	C 	0.3746	0.1475	0.7325	0.051
Mof_C 	C 	0.2553	0.364	0.2814	-0.095
Mof_C 	C 	0.6932	0.5689	0.8609	0.127
Mof_C 	C 	0.6387	0.492	0.255	-0.155
Mof_C 	C 	0.6626	0.2105	0.4009	0.026
Mof_C 	C 	0.5224	0.7536	0.8574	0.055
Mof_C 	C 	0.4302	0.1575	0.7773	-0.142
Mof_C 	C 	0.0993	0.864	0.7814	-0.097
Mof_C 	C 	0.6822	0.8142	0.9134	-0.145
Mof_C 	C 	0.5902	0.3142	0.4134	-0.145
Mof_C 	C 	0.0259	0.9771	0.7923	0.112
Mof_C 	C 	0.4327	0.5678	0.02	0.021
Mof_C 	C 	0.2047	0.4771	0.2923	0.115
Mof_C 	C 	0.803	0.1782	0.3742	-0.122
Mof_C 	C 	0.2339	0.2282	0.239	-0.134
Mof_C 	C 	0.6604	0.3857	0.3959	0.054
Mof_C 	C 	0.552	0.9851	0.7145	0.061
Mof_C 	C 	0.7484	0.4851	0.2145	0.061
Mof_C 	C 	0.5545	0.0781	0.7879	0.041
Mof_C 	C 	0.7454	0.6475	0.2325	0.048
Mof_C 	C 	0.2989	0.7282	0.739	-0.136
Mof_C 	C 	0.6446	0.6782	0.8742	-0.123
Mof_C 	C 	0.726	0.7105	0.9009	0.029
Mof_C 	C 	0.0427	0.7883	0.8091	0.042
Mof_C 	C 	0.635	0.6575	0.2773	-0.139
Mof_C 	C 	0.3712	0.2533	0.8095	0.14
Mof_C 	C 	0.2986	0.5024	0.1024	0.006
Mof_C 	C 	0.1926	0.3322	0.2454	0.015
Mof_C 	C 	0.9795	0.0678	0.52	0.049
Mof_C 	C 	0.877	0.0689	0.3609	0.122
Mof_C 	C 	0.6143	0.992	0.755	-0.164
Mof_C 	C 	0.566	0.7533	0.3095	0.138
Mof_C 	C 	0.2412	0.6543	0.7709	0.05
Mof_C 	C 	0.3095	0.5482	0.0438	-0.098
Mof_C 	C 	0.8666	0.2536	0.3574	0.053
Mof_C 	C 	0.5795	0.5781	0.2879	0.031
Mof_C 	C 	0.2298	0.8322	0.7454	0.016
Mof_C 	C 	0.3336	0.1543	0.2709	0.049
Mof_C 	C 	0.4063	0.5007	0.1307	-0.128
Mof_C 	C 	0.0985	0.0482	0.5438	-0.11
Mof_C 	C 	0.0966	0.0024	0.6024	0.022
Mof_C 	C 	0.9623	0.0007	0.6307	-0.132
Mof_C 	C 	0.8463	0.0276	0.6038	0.051
Mof_C 	C 	0.3599	0.2883	0.3091	0.035
Mof_C 	C 	0.2392	0.0539	0.5135	0.128
Mof_C 	C 	0.1934	0.5539	0.0135	0.111
Mof_N 	N 	0.8319	0.5138	0.849	-0.18
Mof_N 	N 	0.4322	0.0652	0.7004	-0.212
Mof_N 	N 	0.7996	0.3561	0.3675	-0.205
Mof_N 	N 	0.0155	0.0151	0.3561	-0.177
Mof_N 	N 	0.2096	0.5561	0.9587	-0.168
Mof_N 	N 	0.9059	0.9186	0.337	-0.139
Mof_N 	N 	0.4151	0.8871	0.3467	-0.131
Mof_N 	N 	0.2331	0.3004	0.8238	-0.189
Mof_N 	N 	0.8053	0.0138	0.349	-0.177
Mof_N 	N 	0.2756	0.0561	0.4587	-0.176
Mof_N 	N 	0.446	0.0634	0.496	-0.128
Mof_N 	N 	0.6133	0.5151	0.8561	-0.182
Mof_N 	N 	0.3511	0.3871	0.8467	-0.129
Mof_N 	N 	0.5359	0.5589	0.0487	-0.188
Mof_N 	N 	0.0335	0.9158	0.3414	-0.139
Mof_N 	N 	0.406	0.0649	0.4461	-0.112
Mof_N 	N 	0.1153	0.6833	0.8043	-0.198
Mof_N 	N 	0.9943	0.1294	0.813	-0.14
Mof_N 	N 	0.8385	0.4186	0.837	-0.135
Mof_N 	N 	0.3407	0.0574	0.5368	-0.181
Mof_N 	N 	0.8565	0.0589	0.5487	-0.193
Mof_N 	N 	0.0943	0.0331	0.8063	-0.181
Mof_N 	N 	0.083	0.5649	0.9461	-0.11
Mof_N 	N 	0.9946	0.5634	0.996	-0.12
Mof_N 	N 	0.0633	0.6294	0.313	-0.137
Mof_N 	N 	0.8022	0.5652	0.2004	-0.213
Mof_N 	N 	0.7093	0.4158	0.8414	-0.14
Mof_N 	N 	0.8892	0.0336	0.79	-0.114
Mof_N 	N 	0.1935	0.6289	0.3039	-0.128
Mof_N 	N 	0.2872	0.5336	0.29	-0.116
Mof_N 	N 	0.4301	0.7995	0.3217	-0.186
Mof_N 	N 	0.4768	0.8561	0.8675	-0.205
Mof_N 	N 	0.2231	0.3865	0.8483	-0.126
Mof_N 	N 	0.6427	0.8004	0.3238	-0.189
Mof_N 	N 	0.8737	0.1289	0.8039	-0.128
Mof_N 	N 	0.4487	0.2995	0.8217	-0.185
Mof_N 	N 	0.5421	0.8865	0.3483	-0.128
Mof_N 	N 	0.0651	0.5574	0.0368	-0.179
Mof_N 	N 	0.0663	0.5331	0.3063	-0.182
Mof_N 	N 	0.3971	0.1833	0.3043	-0.197
_end
