data_functionalizedCrystal
_audit_creation_method	'EQeq! by Chris Wilmer'
_symmetry_space_group_name_H-M	'P1'
_symmetry_Int_Tables_number	1
_symmetry_cell_setting	triclinic
loop_
_symmetry_equiv_pos_as_xyz
  x,y,z
_cell_length_a	10.8608
_cell_length_b	14.8322
_cell_length_c	14.8322
_cell_angle_alpha	65.7552
_cell_angle_beta	75.8724
_cell_angle_gamma	104.128
loop_
_atom_site_label
_atom_site_type_symbol
_atom_site_fract_x
_atom_site_fract_y
_atom_site_fract_z
_atom_site_charge
Mof_Cu	Cu	0.03061	0.5934	0.52113	0.831
Mof_Cu	Cu	0.55174	0.52113	0.88547	0.847
Mof_Cu	Cu	0.43721	0.88547	0.5934	0.842
Mof_Cu	Cu	0.55174	0.11453	0.47887	0.854
Mof_Cu	Cu	0.43721	0.4066	0.11453	0.853
Mof_Cu	Cu	0.03061	0.47887	0.4066	0.831
Mof_Cu	Cu	0.32991	0.5945	0.4055	0.8
Mof_Cu	Cu	0.73541	0.4055	-0	0.813
Mof_Cu	Cu	0.73541	0	0.5945	0.815
Mof_H 	H 	0.5749	0.7152	0.4281	0.108
Mof_H 	H 	0.5872	0.7408	0.5212	0.138
Mof_H 	H 	0.6113	0.8352	0.4068	0.115
Mof_H 	H 	0.0194	0.7357	0.619	0.1
Mof_H 	H 	0.1317	0.8528	0.5735	0.112
Mof_H 	H 	0.1025	0.757	0.6886	0.099
Mof_H 	H 	0.003	0.4281	0.8567	0.118
Mof_H 	H 	0.1084	0.5212	0.738	0.161
Mof_H 	H 	0.0181	0.4068	0.758	0.13
Mof_H 	H 	0.6384	0.619	0.6453	0.141
Mof_H 	H 	0.7052	0.5735	0.5737	0.148
Mof_H 	H 	0.7911	0.6886	0.5544	0.141
Mof_H 	H 	0.8597	0.8567	0.7152	0.12
Mof_H 	H 	0.8464	0.738	0.7408	0.155
Mof_H 	H 	0.7761	0.758	0.8352	0.123
Mof_H 	H 	0.2837	0.6453	0.7357	0.129
Mof_H 	H 	0.2789	0.5737	0.8528	0.129
Mof_H 	H 	0.3455	0.5544	0.757	0.122
Mof_H 	H 	0.003	0.1433	0.5719	0.126
Mof_H 	H 	0.1084	0.262	0.4788	0.164
Mof_H 	H 	0.0181	0.242	0.5932	0.133
Mof_H 	H 	0.6384	0.3547	0.381	0.142
Mof_H 	H 	0.7052	0.4263	0.4265	0.148
Mof_H 	H 	0.7911	0.4456	0.3114	0.143
Mof_H 	H 	0.8597	0.2848	0.1433	0.136
Mof_H 	H 	0.8464	0.2592	0.262	0.164
Mof_H 	H 	0.7761	0.1648	0.242	0.139
Mof_H 	H 	0.2837	0.2643	0.3547	0.134
Mof_H 	H 	0.2789	0.1472	0.4263	0.14
Mof_H 	H 	0.3455	0.243	0.4456	0.127
Mof_H 	H 	0.5749	0.5719	0.2848	0.111
Mof_H 	H 	0.5872	0.4788	0.2592	0.141
Mof_H 	H 	0.6113	0.5932	0.1648	0.122
Mof_H 	H 	0.0194	0.381	0.2643	0.108
Mof_H 	H 	0.1317	0.4265	0.1472	0.125
Mof_H 	H 	0.1025	0.3114	0.243	0.109
Mof_H 	H 	0.1904	0.6686	0.3314	0.262
Mof_H 	H 	0.5218	0.3314	-0	0.27
Mof_H 	H 	0.5218	0	0.6686	0.268
Mof_C 	C 	0.4125	0.7389	0.498	0.186
Mof_C 	C 	0.5584	0.7592	0.4604	-0.533
Mof_C 	C 	0.2189	0.7468	0.5635	0.17
Mof_C 	C 	0.1083	0.7755	0.6159	-0.483
Mof_C 	C 	0.9105	0.498	0.7631	0.261
Mof_C 	C 	0.0188	0.4604	0.7804	-0.644
Mof_C 	C 	0.7824	0.5635	0.6897	0.201
Mof_C 	C 	0.7242	0.6159	0.6086	-0.545
Mof_C 	C 	0.6736	0.7631	0.7389	0.195
Mof_C 	C 	0.7992	0.7804	0.7592	-0.555
Mof_C 	C 	0.4721	0.6897	0.7468	0.185
Mof_C 	C 	0.3328	0.6086	0.7755	-0.521
Mof_C 	C 	0.9105	0.2369	0.502	0.263
Mof_C 	C 	0.0188	0.2196	0.5396	-0.648
Mof_C 	C 	0.7824	0.3103	0.4365	0.202
Mof_C 	C 	0.7242	0.3914	0.3841	-0.546
Mof_C 	C 	0.6736	0.2611	0.2369	0.207
Mof_C 	C 	0.7992	0.2408	0.2196	-0.578
Mof_C 	C 	0.4721	0.2532	0.3103	0.192
Mof_C 	C 	0.3328	0.2245	0.3914	-0.532
Mof_C 	C 	0.4125	0.502	0.2611	0.19
Mof_C 	C 	0.5584	0.5396	0.2408	-0.54
Mof_C 	C 	0.2189	0.4365	0.2532	0.178
Mof_C 	C 	0.1083	0.3841	0.2245	-0.501
Mof_N 	N 	0.319	0.6739	0.4861	-0.266
Mof_N 	N 	0.1915	0.6777	0.5295	-0.257
Mof_N 	N 	0.3524	0.7868	0.5474	-0.296
Mof_N 	N 	0.8051	0.4861	0.84	-0.274
Mof_N 	N 	0.721	0.5295	0.7928	-0.257
Mof_N 	N 	0.8998	0.5474	0.6658	-0.292
Mof_N 	N 	0.6451	0.84	0.6739	-0.271
Mof_N 	N 	0.5138	0.7928	0.6777	-0.258
Mof_N 	N 	0.5656	0.6658	0.7868	-0.299
Mof_N 	N 	0.8051	0.16	0.5139	-0.27
Mof_N 	N 	0.721	0.2072	0.4705	-0.255
Mof_N 	N 	0.8998	0.3342	0.4526	-0.293
Mof_N 	N 	0.6451	0.3261	0.16	-0.265
Mof_N 	N 	0.5138	0.3223	0.2072	-0.255
Mof_N 	N 	0.5656	0.2132	0.3342	-0.299
Mof_N 	N 	0.319	0.5139	0.3261	-0.266
Mof_N 	N 	0.1915	0.4705	0.3223	-0.258
Mof_N 	N 	0.3524	0.4526	0.2132	-0.295
Mof_O 	O 	0.162	0.6125	0.3875	-0.823
Mof_O 	O 	0.8975	0.5144	0.4856	-0.462
Mof_O 	O 	0.5495	0.3875	-0	-0.809
Mof_O 	O 	0.3831	0.4856	-0	-0.487
Mof_O 	O 	0.5495	0	0.6125	-0.804
Mof_O 	O 	0.3831	-2.92115e-17	0.5144	-0.48
_end
