data_functionalizedCrystal
_audit_creation_method	'EQeq! by Chris Wilmer'
_symmetry_space_group_name_H-M	'P1'
_symmetry_Int_Tables_number	1
_symmetry_cell_setting	triclinic
loop_
_symmetry_equiv_pos_as_xyz
  x,y,z
_cell_length_a	30.4133
_cell_length_b	34.588
_cell_length_c	27.5921
_cell_angle_alpha	90
_cell_angle_beta	90
_cell_angle_gamma	90
loop_
_atom_site_label
_atom_site_type_symbol
_atom_site_fract_x
_atom_site_fract_y
_atom_site_fract_z
_atom_site_charge
Mof_Cd	Cd	0.74706	0.39372	0.36871	0.82
Mof_Cd	Cd	0.83911	0.49782	0.55317	0.78
Mof_K 	K 	0.78907	0.44495	0.46299	-18.256
Mof_O 	O 	0.60288	0.29291	0.7388	2.714
Mof_O 	O 	0.726	0.4326	0.4344	2.708
Mof_O 	O 	0.9392	0.19732	0.6427	3.237
Mof_O 	O 	0.7791	0.50286	0.4578	3.218
Mof_O 	O 	0.794	0.35241	0.3989	0.162
Mof_O 	O 	0.7653	0.44428	0.5326	3.218
Mof_O 	O 	0.7911	0.46824	0.6019	0.205
Mof_O 	O 	0.641	0.3064	0.8038	0.014
Mof_O 	O 	0.8001	0.38713	0.4677	3.219
Mof_O 	O 	0.5345	0.613	0.5545	-0.287
Mof_O 	O 	0.9583	0.1773	0.5689	0.171
Mof_O 	O 	0.7903	0.53976	0.5236	0.195
Mof_O 	O 	0.5632	0.5975	0.6252	-0.259
Mof_O 	O 	0.694	0.4471	0.365	0.022
Mof_O 	O 	0.649	0.7054	0.2894	-0.276
Mof_C 	C 	0.652	0.3458	0.6831	-0.327
Mof_H 	H 	0.6326	0.3296	0.6668	0.396
Mof_O 	O 	0.6224	0.7168	0.3616	-0.273
Mof_C 	C 	0.6559	0.3437	0.7334	0.485
Mof_C 	C 	0.9372	0.2001	0.5984	-1.259
Mof_C 	C 	0.6777	0.3726	0.6576	0.053
Mof_C 	C 	0.6322	0.3133	0.7613	-0.556
Mof_C 	C 	0.6776	0.3736	0.6059	0.177
Mof_H 	H 	0.6594	0.3565	0.5894	0.046
Mof_C 	C 	0.7341	0.4224	0.606	0.564
Mof_C 	C 	0.9124	0.232	0.5762	0.677
Mof_C 	C 	0.9078	0.2348	0.5263	-0.426
Mof_H 	H 	0.9209	0.2164	0.5064	0.239
Mof_C 	C 	0.6464	0.5128	0.5078	0.487
Mof_C 	C 	0.702	0.3975	0.5805	-0.466
Mof_H 	H 	0.6991	0.3987	0.547	0.302
Mof_C 	C 	0.8539	0.2977	0.4349	-0.278
Mof_H 	H 	0.8491	0.2987	0.4017	0.189
Mof_C 	C 	0.7333	0.4228	0.6539	-0.39
Mof_H 	H 	0.7511	0.4405	0.6701	0.222
Mof_C 	C 	0.6728	0.4839	0.435	0.787
Mof_C 	C 	0.8352	0.3258	0.4646	0.454
Mof_C 	C 	0.673	0.4851	0.4832	-0.711
Mof_H 	H 	0.6904	0.468	0.5008	0.507
Mof_C 	C 	0.7661	0.4473	0.5774	-1.139
Mof_C 	C 	0.8078	0.3584	0.4424	-0.904
Mof_C 	C 	0.7066	0.3974	0.6819	0.129
Mof_C 	C 	0.8632	0.2929	0.5355	0.05
Mof_C 	C 	0.8383	0.3237	0.5122	-0.391
Mof_H 	H 	0.8244	0.3423	0.5312	0.248
Mof_C 	C 	0.5939	0.5647	0.5063	0.225
Mof_H 	H 	0.576	0.5811	0.4883	-0.015
Mof_C 	C 	0.6214	0.539	0.4815	-0.345
Mof_C 	C 	0.879	0.2686	0.4536	0.04
Mof_H 	H 	0.893	0.2512	0.433	0.04
Mof_C 	C 	0.5923	0.5666	0.5551	-0.22
Mof_C 	C 	0.6993	0.4528	0.4095	-0.657
Mof_C 	C 	0.7084	0.3954	0.7331	0.065
Mof_H 	H 	0.7262	0.4129	0.7496	0.032
Mof_C 	C 	0.749	0.566	0.4609	0.624
Mof_C 	C 	0.8909	0.261	0.6067	-0.572
Mof_H 	H 	0.8932	0.2594	0.6402	0.372
Mof_C 	C 	0.6194	0.5418	0.5824	0.256
Mof_H 	H 	0.6188	0.5427	0.6161	-0.027
Mof_C 	C 	0.5618	0.5948	0.5792	0.34
Mof_C 	C 	0.8837	0.2651	0.5053	0.148
Mof_C 	C 	0.7745	0.5336	0.4813	-1.004
Mof_C 	C 	0.6484	0.5094	0.4078	-0.695
Mof_H 	H 	0.6493	0.5082	0.3741	0.34
Mof_C 	C 	0.6467	0.5164	0.559	-0.412
Mof_H 	H 	0.6658	0.5012	0.5771	0.226
Mof_C 	C 	0.6856	0.3697	0.7589	-0.299
Mof_H 	H 	0.6887	0.3683	0.7924	0.205
Mof_C 	C 	0.7032	0.6288	0.4258	-0.281
Mof_C 	C 	0.8683	0.2895	0.5867	0.231
Mof_H 	H 	0.8552	0.3078	0.6066	0.015
Mof_C 	C 	0.6471	0.6988	0.3309	0.328
Mof_C 	C 	0.6234	0.5359	0.4299	0.471
Mof_H 	H 	0.6068	0.5528	0.4111	-0.109
Mof_C 	C 	0.7267	0.5928	0.4921	-0.467
Mof_H 	H 	0.7263	0.5889	0.5254	0.255
Mof_C 	C 	0.7442	0.5685	0.4119	-0.628
Mof_H 	H 	0.7561	0.5501	0.3912	0.319
Mof_C 	C 	0.7199	0.6014	0.3938	0.422
Mof_C 	C 	0.7053	0.6254	0.4717	0.333
Mof_H 	H 	0.6928	0.6441	0.4916	-0.063
Mof_C 	C 	0.6763	0.6659	0.3564	-0.137
Mof_C 	C 	0.6927	0.6393	0.3244	0.139
Mof_H 	H 	0.6881	0.6413	0.2911	0.018
Mof_C 	C 	0.7183	0.6069	0.3457	-0.317
Mof_H 	H 	0.7335	0.5901	0.3254	0.168
Mof_C 	C 	0.6776	0.6624	0.4032	0.129
Mof_H 	H 	0.6631	0.6802	0.4229	0.02
Mof_Cd	Cd	0.74706	0.89372	0.86871	0.836
Mof_Cd	Cd	0.83911	0.99782	0.05317	0.756
Mof_K 	K 	0.78907	0.94495	0.96299	-18.916
Mof_O 	O 	0.60288	0.79291	0.2388	2.714
Mof_O 	O 	0.726	0.9326	0.9344	2.796
Mof_O 	O 	0.9392	0.69732	0.1427	3.224
Mof_O 	O 	0.7791	0.00286	0.9578	3.322
Mof_O 	O 	0.794	0.85241	0.8989	0.203
Mof_O 	O 	0.7653	0.94428	0.0326	3.313
Mof_O 	O 	0.7911	0.96824	0.1019	0.219
Mof_O 	O 	0.641	0.8064	0.3038	0.009
Mof_O 	O 	0.8001	0.88713	0.9677	3.399
Mof_O 	O 	0.5345	0.113	0.0545	-0.27
Mof_O 	O 	0.9583	0.6773	0.0689	0.147
Mof_O 	O 	0.7903	0.03976	0.0236	0.12
Mof_O 	O 	0.5632	0.0975	0.1252	-0.224
Mof_O 	O 	0.694	0.9471	0.865	-0.009
Mof_O 	O 	0.649	0.2054	0.7894	-0.27
Mof_C 	C 	0.652	0.8458	0.1831	-0.321
Mof_H 	H 	0.6326	0.8296	0.1668	0.393
Mof_O 	O 	0.6224	0.2168	0.8616	-0.261
Mof_C 	C 	0.6559	0.8437	0.2334	0.48
Mof_C 	C 	0.9372	0.7001	0.0984	-1.218
Mof_C 	C 	0.6777	0.8726	0.1576	0.043
Mof_C 	C 	0.6322	0.8133	0.2613	-0.554
Mof_C 	C 	0.6776	0.8736	0.1059	0.188
Mof_H 	H 	0.6594	0.8565	0.0894	0.035
Mof_C 	C 	0.7341	0.9224	0.106	0.585
Mof_C 	C 	0.9124	0.732	0.0762	0.568
Mof_C 	C 	0.9078	0.7348	0.0263	-0.262
Mof_H 	H 	0.9209	0.7164	0.0064	0.158
Mof_C 	C 	0.6464	0.0128	0.0078	-0.273
Mof_C 	C 	0.702	0.8975	0.0805	-0.485
Mof_H 	H 	0.6991	0.8987	0.047	0.301
Mof_C 	C 	0.8539	0.7977	0.9349	-0.55
Mof_H 	H 	0.8491	0.7987	0.9017	0.285
Mof_C 	C 	0.7333	0.9228	0.1539	-0.404
Mof_H 	H 	0.7511	0.9405	0.1701	0.228
Mof_C 	C 	0.6728	0.9839	0.935	0.308
Mof_C 	C 	0.8352	0.8258	0.9646	0.759
Mof_C 	C 	0.673	0.9851	0.9832	0.074
Mof_H 	H 	0.6904	0.968	0.0008	0.192
Mof_C 	C 	0.7661	0.9473	0.0774	-1.183
Mof_C 	C 	0.8078	0.8584	0.9424	-1.035
Mof_C 	C 	0.7066	0.8974	0.1819	0.139
Mof_C 	C 	0.8632	0.7929	0.0355	0.259
Mof_C 	C 	0.8383	0.8237	0.0122	-0.729
Mof_H 	H 	0.8244	0.8423	0.0312	0.342
Mof_C 	C 	0.5939	0.0647	0.0063	-0.566
Mof_H 	H 	0.576	0.0811	0.9883	0.308
Mof_C 	C 	0.6214	0.039	0.9815	0.437
Mof_C 	C 	0.879	0.7686	0.9536	0.369
Mof_H 	H 	0.893	0.7512	0.933	-0.056
Mof_C 	C 	0.5923	0.0666	0.0551	0.227
Mof_C 	C 	0.6993	0.9528	0.9095	-0.51
Mof_C 	C 	0.7084	0.8954	0.2331	0.057
Mof_H 	H 	0.7262	0.9129	0.2496	0.033
Mof_C 	C 	0.749	0.066	0.9609	0.49
Mof_C 	C 	0.8909	0.761	0.1067	-0.441
Mof_H 	H 	0.8932	0.7594	0.1402	0.326
Mof_C 	C 	0.6194	0.0418	0.0824	-0.229
Mof_H 	H 	0.6188	0.0427	0.1161	0.137
Mof_C 	C 	0.5618	0.0948	0.0792	0.171
Mof_C 	C 	0.8837	0.7651	0.0053	-0.132
Mof_C 	C 	0.7745	0.0336	0.9813	-0.891
Mof_C 	C 	0.6484	0.0094	0.9078	-0.134
Mof_H 	H 	0.6493	0.0082	0.8741	0.152
Mof_C 	C 	0.6467	0.0164	0.059	0.149
Mof_H 	H 	0.6658	0.0012	0.0771	0.03
Mof_C 	C 	0.6856	0.8697	0.2589	-0.293
Mof_H 	H 	0.6887	0.8683	0.2924	0.2
Mof_C 	C 	0.7032	0.1288	0.9258	-0.143
Mof_C 	C 	0.8683	0.7895	0.0867	0.059
Mof_H 	H 	0.8552	0.8078	0.1066	0.072
Mof_C 	C 	0.6471	0.1988	0.8309	0.311
Mof_C 	C 	0.6234	0.0359	0.9299	-0.147
Mof_H 	H 	0.6068	0.0528	0.9111	0.109
Mof_C 	C 	0.7267	0.0928	0.9921	-0.171
Mof_H 	H 	0.7263	0.0889	0.0254	0.099
Mof_C 	C 	0.7442	0.0685	0.9119	-0.518
Mof_H 	H 	0.7561	0.0501	0.8912	0.284
Mof_C 	C 	0.7199	0.1014	0.8938	0.32
Mof_C 	C 	0.7053	0.1254	0.9717	0.133
Mof_H 	H 	0.6928	0.1441	0.9916	0.031
Mof_C 	C 	0.6763	0.1659	0.8564	-0.084
Mof_C 	C 	0.6927	0.1393	0.8244	0.084
Mof_H 	H 	0.6881	0.1413	0.7911	0.038
Mof_C 	C 	0.7183	0.1069	0.8457	-0.243
Mof_H 	H 	0.7335	0.0901	0.8254	0.145
Mof_C 	C 	0.6776	0.1624	0.9032	0.05
Mof_H 	H 	0.6631	0.1802	0.9229	0.056
Mof_Cd	Cd	0.24706	0.39372	0.86871	0.836
Mof_Cd	Cd	0.33911	0.49782	0.05317	0.755
Mof_K 	K 	0.28907	0.44495	0.96299	-18.92
Mof_O 	O 	0.10288	0.29291	0.2388	2.714
Mof_O 	O 	0.226	0.4326	0.9344	2.796
Mof_O 	O 	0.4392	0.19732	0.1427	3.224
Mof_O 	O 	0.2791	0.50286	0.9578	3.323
Mof_O 	O 	0.294	0.35241	0.8989	0.203
Mof_O 	O 	0.2653	0.44428	0.0326	3.314
Mof_O 	O 	0.2911	0.46824	0.1019	0.219
Mof_O 	O 	0.141	0.3064	0.3038	0.009
Mof_O 	O 	0.3001	0.38713	0.9677	3.4
Mof_O 	O 	0.0345	0.613	0.0545	-0.27
Mof_O 	O 	0.4583	0.1773	0.0689	0.147
Mof_O 	O 	0.2903	0.53976	0.0236	0.119
Mof_O 	O 	0.0632	0.5975	0.1252	-0.224
Mof_O 	O 	0.194	0.4471	0.865	-0.009
Mof_O 	O 	0.149	0.7054	0.7894	-0.27
Mof_C 	C 	0.152	0.3458	0.1831	-0.321
Mof_H 	H 	0.1326	0.3296	0.1668	0.393
Mof_O 	O 	0.1224	0.7168	0.8616	-0.261
Mof_C 	C 	0.1559	0.3437	0.2334	0.48
Mof_C 	C 	0.4372	0.2001	0.0984	-1.218
Mof_C 	C 	0.1777	0.3726	0.1576	0.043
Mof_C 	C 	0.1322	0.3133	0.2613	-0.554
Mof_C 	C 	0.1776	0.3736	0.1059	0.188
Mof_H 	H 	0.1594	0.3565	0.0894	0.035
Mof_C 	C 	0.2341	0.4224	0.106	0.585
Mof_C 	C 	0.4124	0.232	0.0762	0.567
Mof_C 	C 	0.4078	0.2348	0.0263	-0.261
Mof_H 	H 	0.4209	0.2164	0.0064	0.158
Mof_C 	C 	0.1464	0.5128	0.0078	-0.275
Mof_C 	C 	0.202	0.3975	0.0805	-0.485
Mof_H 	H 	0.1991	0.3987	0.047	0.301
Mof_C 	C 	0.3539	0.2977	0.9349	-0.551
Mof_H 	H 	0.3491	0.2987	0.9017	0.286
Mof_C 	C 	0.2333	0.4228	0.1539	-0.405
Mof_H 	H 	0.2511	0.4405	0.1701	0.228
Mof_C 	C 	0.1728	0.4839	0.935	0.307
Mof_C 	C 	0.3352	0.3258	0.9646	0.761
Mof_C 	C 	0.173	0.4851	0.9832	0.076
Mof_H 	H 	0.1904	0.468	0.0008	0.191
Mof_C 	C 	0.2661	0.4473	0.0774	-1.183
Mof_C 	C 	0.3078	0.3584	0.9424	-1.035
Mof_C 	C 	0.2066	0.3974	0.1819	0.139
Mof_C 	C 	0.3632	0.2929	0.0355	0.26
Mof_C 	C 	0.3383	0.3237	0.0122	-0.731
Mof_H 	H 	0.3244	0.3423	0.0312	0.343
Mof_C 	C 	0.0939	0.5647	0.0063	-0.567
Mof_H 	H 	0.076	0.5811	0.9883	0.308
Mof_C 	C 	0.1214	0.539	0.9815	0.438
Mof_C 	C 	0.379	0.2686	0.9536	0.371
Mof_H 	H 	0.393	0.2512	0.933	-0.057
Mof_C 	C 	0.0923	0.5666	0.0551	0.228
Mof_C 	C 	0.1993	0.4528	0.9095	-0.51
Mof_C 	C 	0.2084	0.3954	0.2331	0.057
Mof_H 	H 	0.2262	0.4129	0.2496	0.033
Mof_C 	C 	0.249	0.566	0.9609	0.49
Mof_C 	C 	0.3909	0.261	0.1067	-0.44
Mof_H 	H 	0.3932	0.2594	0.1402	0.326
Mof_C 	C 	0.1194	0.5418	0.0824	-0.23
Mof_H 	H 	0.1188	0.5427	0.1161	0.137
Mof_C 	C 	0.0618	0.5948	0.0792	0.17
Mof_C 	C 	0.3837	0.2651	0.0053	-0.133
Mof_C 	C 	0.2745	0.5336	0.9813	-0.89
Mof_C 	C 	0.1484	0.5094	0.9078	-0.133
Mof_H 	H 	0.1493	0.5082	0.8741	0.152
Mof_C 	C 	0.1467	0.5164	0.059	0.151
Mof_H 	H 	0.1658	0.5012	0.0771	0.029
Mof_C 	C 	0.1856	0.3697	0.2589	-0.293
Mof_H 	H 	0.1887	0.3683	0.2924	0.2
Mof_C 	C 	0.2032	0.6288	0.9258	-0.143
Mof_C 	C 	0.3683	0.2895	0.0867	0.058
Mof_H 	H 	0.3552	0.3078	0.1066	0.072
Mof_C 	C 	0.1471	0.6988	0.8309	0.311
Mof_C 	C 	0.1234	0.5359	0.9299	-0.149
Mof_H 	H 	0.1068	0.5528	0.9111	0.109
Mof_C 	C 	0.2267	0.5928	0.9921	-0.169
Mof_H 	H 	0.2263	0.5889	0.0254	0.098
Mof_C 	C 	0.2442	0.5685	0.9119	-0.517
Mof_H 	H 	0.2561	0.5501	0.8912	0.284
Mof_C 	C 	0.2199	0.6014	0.8938	0.319
Mof_C 	C 	0.2053	0.6254	0.9717	0.132
Mof_H 	H 	0.1928	0.6441	0.9916	0.031
Mof_C 	C 	0.1763	0.6659	0.8564	-0.083
Mof_C 	C 	0.1927	0.6393	0.8244	0.084
Mof_H 	H 	0.1881	0.6413	0.7911	0.038
Mof_C 	C 	0.2183	0.6069	0.8457	-0.242
Mof_H 	H 	0.2335	0.5901	0.8254	0.145
Mof_C 	C 	0.1776	0.6624	0.9032	0.05
Mof_H 	H 	0.1631	0.6802	0.9229	0.056
Mof_Cd	Cd	0.24706	0.89372	0.36871	0.821
Mof_Cd	Cd	0.33911	0.99782	0.55317	0.781
Mof_K 	K 	0.28907	0.94495	0.46299	-18.256
Mof_O 	O 	0.10288	0.79291	0.7388	2.715
Mof_O 	O 	0.226	0.9326	0.4344	2.709
Mof_O 	O 	0.4392	0.69732	0.6427	3.238
Mof_O 	O 	0.2791	0.00286	0.4578	3.219
Mof_O 	O 	0.294	0.85241	0.3989	0.163
Mof_O 	O 	0.2653	0.94428	0.5326	3.219
Mof_O 	O 	0.2911	0.96824	0.6019	0.207
Mof_O 	O 	0.141	0.8064	0.8038	0.014
Mof_O 	O 	0.3001	0.88713	0.4677	3.219
Mof_O 	O 	0.0345	0.113	0.5545	-0.287
Mof_O 	O 	0.4583	0.6773	0.5689	0.171
Mof_O 	O 	0.2903	0.03976	0.5236	0.195
Mof_O 	O 	0.0632	0.0975	0.6252	-0.259
Mof_O 	O 	0.194	0.9471	0.365	0.022
Mof_O 	O 	0.149	0.2054	0.2894	-0.276
Mof_C 	C 	0.152	0.8458	0.6831	-0.327
Mof_H 	H 	0.1326	0.8296	0.6668	0.396
Mof_O 	O 	0.1224	0.2168	0.3616	-0.273
Mof_C 	C 	0.1559	0.8437	0.7334	0.485
Mof_C 	C 	0.4372	0.7001	0.5984	-1.259
Mof_C 	C 	0.1777	0.8726	0.6576	0.053
Mof_C 	C 	0.1322	0.8133	0.7613	-0.556
Mof_C 	C 	0.1776	0.8736	0.6059	0.177
Mof_H 	H 	0.1594	0.8565	0.5894	0.046
Mof_C 	C 	0.2341	0.9224	0.606	0.564
Mof_C 	C 	0.4124	0.732	0.5762	0.677
Mof_C 	C 	0.4078	0.7348	0.5263	-0.426
Mof_H 	H 	0.4209	0.7164	0.5064	0.239
Mof_C 	C 	0.1464	0.0128	0.5078	0.487
Mof_C 	C 	0.202	0.8975	0.5805	-0.466
Mof_H 	H 	0.1991	0.8987	0.547	0.302
Mof_C 	C 	0.3539	0.7977	0.4349	-0.278
Mof_H 	H 	0.3491	0.7987	0.4017	0.189
Mof_C 	C 	0.2333	0.9228	0.6539	-0.39
Mof_H 	H 	0.2511	0.9405	0.6701	0.223
Mof_C 	C 	0.1728	0.9839	0.435	0.787
Mof_C 	C 	0.3352	0.8258	0.4646	0.454
Mof_C 	C 	0.173	0.9851	0.4832	-0.71
Mof_H 	H 	0.1904	0.968	0.5008	0.507
Mof_C 	C 	0.2661	0.9473	0.5774	-1.139
Mof_C 	C 	0.3078	0.8584	0.4424	-0.904
Mof_C 	C 	0.2066	0.8974	0.6819	0.129
Mof_C 	C 	0.3632	0.7929	0.5355	0.05
Mof_C 	C 	0.3383	0.8237	0.5122	-0.391
Mof_H 	H 	0.3244	0.8423	0.5312	0.248
Mof_C 	C 	0.0939	0.0647	0.5063	0.225
Mof_H 	H 	0.076	0.0811	0.4883	-0.015
Mof_C 	C 	0.1214	0.039	0.4815	-0.345
Mof_C 	C 	0.379	0.7686	0.4536	0.04
Mof_H 	H 	0.393	0.7512	0.433	0.04
Mof_C 	C 	0.0923	0.0666	0.5551	-0.22
Mof_C 	C 	0.1993	0.9528	0.4095	-0.657
Mof_C 	C 	0.2084	0.8954	0.7331	0.065
Mof_H 	H 	0.2262	0.9129	0.7496	0.032
Mof_C 	C 	0.249	0.066	0.4609	0.624
Mof_C 	C 	0.3909	0.761	0.6067	-0.572
Mof_H 	H 	0.3932	0.7594	0.6402	0.372
Mof_C 	C 	0.1194	0.0418	0.5824	0.256
Mof_H 	H 	0.1188	0.0427	0.6161	-0.027
Mof_C 	C 	0.0618	0.0948	0.5792	0.34
Mof_C 	C 	0.3837	0.7651	0.5053	0.148
Mof_C 	C 	0.2745	0.0336	0.4813	-1.004
Mof_C 	C 	0.1484	0.0094	0.4078	-0.695
Mof_H 	H 	0.1493	0.0082	0.3741	0.34
Mof_C 	C 	0.1467	0.0164	0.559	-0.412
Mof_H 	H 	0.1658	0.0012	0.5771	0.226
Mof_C 	C 	0.1856	0.8697	0.7589	-0.299
Mof_H 	H 	0.1887	0.8683	0.7924	0.205
Mof_C 	C 	0.2032	0.1288	0.4258	-0.281
Mof_C 	C 	0.3683	0.7895	0.5867	0.231
Mof_H 	H 	0.3552	0.8078	0.6066	0.015
Mof_C 	C 	0.1471	0.1988	0.3309	0.328
Mof_C 	C 	0.1234	0.0359	0.4299	0.472
Mof_H 	H 	0.1068	0.0528	0.4111	-0.109
Mof_C 	C 	0.2267	0.0928	0.4921	-0.467
Mof_H 	H 	0.2263	0.0889	0.5254	0.255
Mof_C 	C 	0.2442	0.0685	0.4119	-0.628
Mof_H 	H 	0.2561	0.0501	0.3912	0.319
Mof_C 	C 	0.2199	0.1014	0.3938	0.422
Mof_C 	C 	0.2053	0.1254	0.4717	0.333
Mof_H 	H 	0.1928	0.1441	0.4916	-0.063
Mof_C 	C 	0.1763	0.1659	0.3564	-0.137
Mof_C 	C 	0.1927	0.1393	0.3244	0.139
Mof_H 	H 	0.1881	0.1413	0.2911	0.018
Mof_C 	C 	0.2183	0.1069	0.3457	-0.317
Mof_H 	H 	0.2335	0.0901	0.3254	0.168
Mof_C 	C 	0.1776	0.1624	0.4032	0.129
Mof_H 	H 	0.1631	0.1802	0.4229	0.02
Mof_Cd	Cd	0.25294	0.60628	0.36871	0.821
Mof_Cd	Cd	0.16089	0.50218	0.55317	0.781
Mof_K 	K 	0.21093	0.55505	0.46299	-18.255
Mof_O 	O 	0.39712	0.70709	0.7388	2.715
Mof_O 	O 	0.274	0.5674	0.4344	2.709
Mof_O 	O 	0.0608	0.80268	0.6427	3.238
Mof_O 	O 	0.2209	0.49714	0.4578	3.219
Mof_O 	O 	0.206	0.64759	0.3989	0.163
Mof_O 	O 	0.2347	0.55572	0.5326	3.219
Mof_O 	O 	0.2089	0.53176	0.6019	0.206
Mof_O 	O 	0.359	0.6936	0.8038	0.014
Mof_O 	O 	0.1999	0.61287	0.4677	3.219
Mof_O 	O 	0.4655	0.387	0.5545	-0.287
Mof_O 	O 	0.0417	0.8227	0.5689	0.171
Mof_O 	O 	0.2097	0.46024	0.5236	0.195
Mof_O 	O 	0.4368	0.4025	0.6252	-0.259
Mof_O 	O 	0.306	0.5529	0.365	0.022
Mof_O 	O 	0.351	0.2946	0.2894	-0.276
Mof_C 	C 	0.348	0.6542	0.6831	-0.327
Mof_H 	H 	0.3674	0.6704	0.6668	0.396
Mof_O 	O 	0.3776	0.2832	0.3616	-0.273
Mof_C 	C 	0.3441	0.6563	0.7334	0.485
Mof_C 	C 	0.0628	0.7999	0.5984	-1.259
Mof_C 	C 	0.3223	0.6274	0.6576	0.053
Mof_C 	C 	0.3678	0.6867	0.7613	-0.556
Mof_C 	C 	0.3224	0.6264	0.6059	0.177
Mof_H 	H 	0.3406	0.6435	0.5894	0.046
Mof_C 	C 	0.2659	0.5776	0.606	0.564
Mof_C 	C 	0.0876	0.768	0.5762	0.677
Mof_C 	C 	0.0922	0.7652	0.5263	-0.426
Mof_H 	H 	0.0791	0.7836	0.5064	0.239
Mof_C 	C 	0.3536	0.4872	0.5078	0.487
Mof_C 	C 	0.298	0.6025	0.5805	-0.466
Mof_H 	H 	0.3009	0.6013	0.547	0.302
Mof_C 	C 	0.1461	0.7023	0.4349	-0.278
Mof_H 	H 	0.1509	0.7013	0.4017	0.189
Mof_C 	C 	0.2667	0.5772	0.6539	-0.39
Mof_H 	H 	0.2489	0.5595	0.6701	0.222
Mof_C 	C 	0.3272	0.5161	0.435	0.787
Mof_C 	C 	0.1648	0.6742	0.4646	0.454
Mof_C 	C 	0.327	0.5149	0.4832	-0.711
Mof_H 	H 	0.3096	0.532	0.5008	0.507
Mof_C 	C 	0.2339	0.5527	0.5774	-1.139
Mof_C 	C 	0.1922	0.6416	0.4424	-0.904
Mof_C 	C 	0.2934	0.6026	0.6819	0.129
Mof_C 	C 	0.1368	0.7071	0.5355	0.05
Mof_C 	C 	0.1617	0.6763	0.5122	-0.391
Mof_H 	H 	0.1756	0.6577	0.5312	0.248
Mof_C 	C 	0.4061	0.4353	0.5063	0.225
Mof_H 	H 	0.424	0.4189	0.4883	-0.015
Mof_C 	C 	0.3786	0.461	0.4815	-0.345
Mof_C 	C 	0.121	0.7314	0.4536	0.04
Mof_H 	H 	0.107	0.7488	0.433	0.04
Mof_C 	C 	0.4077	0.4334	0.5551	-0.22
Mof_C 	C 	0.3007	0.5472	0.4095	-0.657
Mof_C 	C 	0.2916	0.6046	0.7331	0.065
Mof_H 	H 	0.2738	0.5871	0.7496	0.032
Mof_C 	C 	0.251	0.434	0.4609	0.624
Mof_C 	C 	0.1091	0.739	0.6067	-0.572
Mof_H 	H 	0.1068	0.7406	0.6402	0.372
Mof_C 	C 	0.3806	0.4582	0.5824	0.256
Mof_H 	H 	0.3812	0.4573	0.6161	-0.027
Mof_C 	C 	0.4382	0.4052	0.5792	0.34
Mof_C 	C 	0.1163	0.7349	0.5053	0.148
Mof_C 	C 	0.2255	0.4664	0.4813	-1.004
Mof_C 	C 	0.3516	0.4906	0.4078	-0.695
Mof_H 	H 	0.3507	0.4918	0.3741	0.34
Mof_C 	C 	0.3533	0.4836	0.559	-0.412
Mof_H 	H 	0.3342	0.4988	0.5771	0.226
Mof_C 	C 	0.3144	0.6303	0.7589	-0.299
Mof_H 	H 	0.3113	0.6317	0.7924	0.205
Mof_C 	C 	0.2968	0.3712	0.4258	-0.281
Mof_C 	C 	0.1317	0.7105	0.5867	0.231
Mof_H 	H 	0.1448	0.6922	0.6066	0.015
Mof_C 	C 	0.3529	0.3012	0.3309	0.328
Mof_C 	C 	0.3766	0.4641	0.4299	0.471
Mof_H 	H 	0.3932	0.4472	0.4111	-0.109
Mof_C 	C 	0.2733	0.4072	0.4921	-0.467
Mof_H 	H 	0.2737	0.4111	0.5254	0.255
Mof_C 	C 	0.2558	0.4315	0.4119	-0.628
Mof_H 	H 	0.2439	0.4499	0.3912	0.319
Mof_C 	C 	0.2801	0.3986	0.3938	0.422
Mof_C 	C 	0.2947	0.3746	0.4717	0.333
Mof_H 	H 	0.3072	0.3559	0.4916	-0.063
Mof_C 	C 	0.3237	0.3341	0.3564	-0.137
Mof_C 	C 	0.3073	0.3607	0.3244	0.139
Mof_H 	H 	0.3119	0.3587	0.2911	0.018
Mof_C 	C 	0.2817	0.3931	0.3457	-0.317
Mof_H 	H 	0.2665	0.4099	0.3254	0.168
Mof_C 	C 	0.3224	0.3376	0.4032	0.129
Mof_H 	H 	0.3369	0.3198	0.4229	0.02
Mof_Cd	Cd	0.25294	0.10628	0.86871	0.836
Mof_Cd	Cd	0.16089	0.00218	0.05317	0.756
Mof_K 	K 	0.21093	0.05505	0.96299	-18.916
Mof_O 	O 	0.39712	0.20709	0.2388	2.714
Mof_O 	O 	0.274	0.0674	0.9344	2.796
Mof_O 	O 	0.0608	0.30268	0.1427	3.224
Mof_O 	O 	0.2209	0.99714	0.9578	3.322
Mof_O 	O 	0.206	0.14759	0.8989	0.203
Mof_O 	O 	0.2347	0.05572	0.0326	3.313
Mof_O 	O 	0.2089	0.03176	0.1019	0.219
Mof_O 	O 	0.359	0.1936	0.3038	0.009
Mof_O 	O 	0.1999	0.11287	0.9677	3.399
Mof_O 	O 	0.4655	0.887	0.0545	-0.27
Mof_O 	O 	0.0417	0.3227	0.0689	0.147
Mof_O 	O 	0.2097	0.96024	0.0236	0.12
Mof_O 	O 	0.4368	0.9025	0.1252	-0.224
Mof_O 	O 	0.306	0.0529	0.865	-0.009
Mof_O 	O 	0.351	0.7946	0.7894	-0.27
Mof_C 	C 	0.348	0.1542	0.1831	-0.321
Mof_H 	H 	0.3674	0.1704	0.1668	0.393
Mof_O 	O 	0.3776	0.7832	0.8616	-0.261
Mof_C 	C 	0.3441	0.1563	0.2334	0.48
Mof_C 	C 	0.0628	0.2999	0.0984	-1.218
Mof_C 	C 	0.3223	0.1274	0.1576	0.043
Mof_C 	C 	0.3678	0.1867	0.2613	-0.554
Mof_C 	C 	0.3224	0.1264	0.1059	0.188
Mof_H 	H 	0.3406	0.1435	0.0894	0.035
Mof_C 	C 	0.2659	0.0776	0.106	0.585
Mof_C 	C 	0.0876	0.268	0.0762	0.568
Mof_C 	C 	0.0922	0.2652	0.0263	-0.262
Mof_H 	H 	0.0791	0.2836	0.0064	0.158
Mof_C 	C 	0.3536	0.9872	0.0078	-0.273
Mof_C 	C 	0.298	0.1025	0.0805	-0.485
Mof_H 	H 	0.3009	0.1013	0.047	0.301
Mof_C 	C 	0.1461	0.2023	0.9349	-0.55
Mof_H 	H 	0.1509	0.2013	0.9017	0.285
Mof_C 	C 	0.2667	0.0772	0.1539	-0.404
Mof_H 	H 	0.2489	0.0595	0.1701	0.228
Mof_C 	C 	0.3272	0.0161	0.935	0.308
Mof_C 	C 	0.1648	0.1742	0.9646	0.759
Mof_C 	C 	0.327	0.0149	0.9832	0.074
Mof_H 	H 	0.3096	0.032	0.0008	0.192
Mof_C 	C 	0.2339	0.0527	0.0774	-1.183
Mof_C 	C 	0.1922	0.1416	0.9424	-1.035
Mof_C 	C 	0.2934	0.1026	0.1819	0.139
Mof_C 	C 	0.1368	0.2071	0.0355	0.259
Mof_C 	C 	0.1617	0.1763	0.0122	-0.729
Mof_H 	H 	0.1756	0.1577	0.0312	0.342
Mof_C 	C 	0.4061	0.9353	0.0063	-0.566
Mof_H 	H 	0.424	0.9189	0.9883	0.308
Mof_C 	C 	0.3786	0.961	0.9815	0.437
Mof_C 	C 	0.121	0.2314	0.9536	0.369
Mof_H 	H 	0.107	0.2488	0.933	-0.056
Mof_C 	C 	0.4077	0.9334	0.0551	0.227
Mof_C 	C 	0.3007	0.0472	0.9095	-0.51
Mof_C 	C 	0.2916	0.1046	0.2331	0.057
Mof_H 	H 	0.2738	0.0871	0.2496	0.033
Mof_C 	C 	0.251	0.934	0.9609	0.49
Mof_C 	C 	0.1091	0.239	0.1067	-0.441
Mof_H 	H 	0.1068	0.2406	0.1402	0.326
Mof_C 	C 	0.3806	0.9582	0.0824	-0.229
Mof_H 	H 	0.3812	0.9573	0.1161	0.137
Mof_C 	C 	0.4382	0.9052	0.0792	0.171
Mof_C 	C 	0.1163	0.2349	0.0053	-0.132
Mof_C 	C 	0.2255	0.9664	0.9813	-0.891
Mof_C 	C 	0.3516	0.9906	0.9078	-0.134
Mof_H 	H 	0.3507	0.9918	0.8741	0.152
Mof_C 	C 	0.3533	0.9836	0.059	0.149
Mof_H 	H 	0.3342	0.9988	0.0771	0.03
Mof_C 	C 	0.3144	0.1303	0.2589	-0.293
Mof_H 	H 	0.3113	0.1317	0.2924	0.2
Mof_C 	C 	0.2968	0.8712	0.9258	-0.143
Mof_C 	C 	0.1317	0.2105	0.0867	0.059
Mof_H 	H 	0.1448	0.1922	0.1066	0.072
Mof_C 	C 	0.3529	0.8012	0.8309	0.311
Mof_C 	C 	0.3766	0.9641	0.9299	-0.147
Mof_H 	H 	0.3932	0.9472	0.9111	0.109
Mof_C 	C 	0.2733	0.9072	0.9921	-0.171
Mof_H 	H 	0.2737	0.9111	0.0254	0.099
Mof_C 	C 	0.2558	0.9315	0.9119	-0.518
Mof_H 	H 	0.2439	0.9499	0.8912	0.284
Mof_C 	C 	0.2801	0.8986	0.8938	0.32
Mof_C 	C 	0.2947	0.8746	0.9717	0.133
Mof_H 	H 	0.3072	0.8559	0.9916	0.031
Mof_C 	C 	0.3237	0.8341	0.8564	-0.084
Mof_C 	C 	0.3073	0.8607	0.8244	0.084
Mof_H 	H 	0.3119	0.8587	0.7911	0.038
Mof_C 	C 	0.2817	0.8931	0.8457	-0.243
Mof_H 	H 	0.2665	0.9099	0.8254	0.145
Mof_C 	C 	0.3224	0.8376	0.9032	0.05
Mof_H 	H 	0.3369	0.8198	0.9229	0.056
Mof_Cd	Cd	0.75294	0.60628	0.86871	0.836
Mof_Cd	Cd	0.66089	0.50218	0.05317	0.755
Mof_K 	K 	0.71093	0.55505	0.96299	-18.92
Mof_O 	O 	0.89712	0.70709	0.2388	2.714
Mof_O 	O 	0.774	0.5674	0.9344	2.796
Mof_O 	O 	0.5608	0.80268	0.1427	3.224
Mof_O 	O 	0.7209	0.49714	0.9578	3.323
Mof_O 	O 	0.706	0.64759	0.8989	0.203
Mof_O 	O 	0.7347	0.55572	0.0326	3.314
Mof_O 	O 	0.7089	0.53176	0.1019	0.219
Mof_O 	O 	0.859	0.6936	0.3038	0.009
Mof_O 	O 	0.6999	0.61287	0.9677	3.4
Mof_O 	O 	0.9655	0.387	0.0545	-0.27
Mof_O 	O 	0.5417	0.8227	0.0689	0.147
Mof_O 	O 	0.7097	0.46024	0.0236	0.119
Mof_O 	O 	0.9368	0.4025	0.1252	-0.224
Mof_O 	O 	0.806	0.5529	0.865	-0.009
Mof_O 	O 	0.851	0.2946	0.7894	-0.27
Mof_C 	C 	0.848	0.6542	0.1831	-0.321
Mof_H 	H 	0.8674	0.6704	0.1668	0.393
Mof_O 	O 	0.8776	0.2832	0.8616	-0.261
Mof_C 	C 	0.8441	0.6563	0.2334	0.48
Mof_C 	C 	0.5628	0.7999	0.0984	-1.218
Mof_C 	C 	0.8223	0.6274	0.1576	0.043
Mof_C 	C 	0.8678	0.6867	0.2613	-0.554
Mof_C 	C 	0.8224	0.6264	0.1059	0.188
Mof_H 	H 	0.8406	0.6435	0.0894	0.035
Mof_C 	C 	0.7659	0.5776	0.106	0.585
Mof_C 	C 	0.5876	0.768	0.0762	0.567
Mof_C 	C 	0.5922	0.7652	0.0263	-0.261
Mof_H 	H 	0.5791	0.7836	0.0064	0.158
Mof_C 	C 	0.8536	0.4872	0.0078	-0.275
Mof_C 	C 	0.798	0.6025	0.0805	-0.485
Mof_H 	H 	0.8009	0.6013	0.047	0.301
Mof_C 	C 	0.6461	0.7023	0.9349	-0.551
Mof_H 	H 	0.6509	0.7013	0.9017	0.286
Mof_C 	C 	0.7667	0.5772	0.1539	-0.405
Mof_H 	H 	0.7489	0.5595	0.1701	0.228
Mof_C 	C 	0.8272	0.5161	0.935	0.307
Mof_C 	C 	0.6648	0.6742	0.9646	0.761
Mof_C 	C 	0.827	0.5149	0.9832	0.076
Mof_H 	H 	0.8096	0.532	0.0008	0.191
Mof_C 	C 	0.7339	0.5527	0.0774	-1.183
Mof_C 	C 	0.6922	0.6416	0.9424	-1.035
Mof_C 	C 	0.7934	0.6026	0.1819	0.139
Mof_C 	C 	0.6368	0.7071	0.0355	0.26
Mof_C 	C 	0.6617	0.6763	0.0122	-0.731
Mof_H 	H 	0.6756	0.6577	0.0312	0.343
Mof_C 	C 	0.9061	0.4353	0.0063	-0.567
Mof_H 	H 	0.924	0.4189	0.9883	0.308
Mof_C 	C 	0.8786	0.461	0.9815	0.438
Mof_C 	C 	0.621	0.7314	0.9536	0.371
Mof_H 	H 	0.607	0.7488	0.933	-0.057
Mof_C 	C 	0.9077	0.4334	0.0551	0.228
Mof_C 	C 	0.8007	0.5472	0.9095	-0.51
Mof_C 	C 	0.7916	0.6046	0.2331	0.057
Mof_H 	H 	0.7738	0.5871	0.2496	0.033
Mof_C 	C 	0.751	0.434	0.9609	0.49
Mof_C 	C 	0.6091	0.739	0.1067	-0.44
Mof_H 	H 	0.6068	0.7406	0.1402	0.326
Mof_C 	C 	0.8806	0.4582	0.0824	-0.23
Mof_H 	H 	0.8812	0.4573	0.1161	0.137
Mof_C 	C 	0.9382	0.4052	0.0792	0.17
Mof_C 	C 	0.6163	0.7349	0.0053	-0.133
Mof_C 	C 	0.7255	0.4664	0.9813	-0.89
Mof_C 	C 	0.8516	0.4906	0.9078	-0.133
Mof_H 	H 	0.8507	0.4918	0.8741	0.152
Mof_C 	C 	0.8533	0.4836	0.059	0.151
Mof_H 	H 	0.8342	0.4988	0.0771	0.029
Mof_C 	C 	0.8144	0.6303	0.2589	-0.293
Mof_H 	H 	0.8113	0.6317	0.2924	0.2
Mof_C 	C 	0.7968	0.3712	0.9258	-0.143
Mof_C 	C 	0.6317	0.7105	0.0867	0.058
Mof_H 	H 	0.6448	0.6922	0.1066	0.072
Mof_C 	C 	0.8529	0.3012	0.8309	0.311
Mof_C 	C 	0.8766	0.4641	0.9299	-0.149
Mof_H 	H 	0.8932	0.4472	0.9111	0.109
Mof_C 	C 	0.7733	0.4072	0.9921	-0.169
Mof_H 	H 	0.7737	0.4111	0.0254	0.098
Mof_C 	C 	0.7558	0.4315	0.9119	-0.517
Mof_H 	H 	0.7439	0.4499	0.8912	0.284
Mof_C 	C 	0.7801	0.3986	0.8938	0.319
Mof_C 	C 	0.7947	0.3746	0.9717	0.132
Mof_H 	H 	0.8072	0.3559	0.9916	0.031
Mof_C 	C 	0.8237	0.3341	0.8564	-0.083
Mof_C 	C 	0.8073	0.3607	0.8244	0.084
Mof_H 	H 	0.8119	0.3587	0.7911	0.038
Mof_C 	C 	0.7817	0.3931	0.8457	-0.242
Mof_H 	H 	0.7665	0.4099	0.8254	0.145
Mof_C 	C 	0.8224	0.3376	0.9032	0.05
Mof_H 	H 	0.8369	0.3198	0.9229	0.056
Mof_Cd	Cd	0.75294	0.10628	0.36871	0.821
Mof_Cd	Cd	0.66089	0.00218	0.55317	0.781
Mof_K 	K 	0.71093	0.05505	0.46299	-18.256
Mof_O 	O 	0.89712	0.20709	0.7388	2.715
Mof_O 	O 	0.774	0.0674	0.4344	2.709
Mof_O 	O 	0.5608	0.30268	0.6427	3.238
Mof_O 	O 	0.7209	0.99714	0.4578	3.219
Mof_O 	O 	0.706	0.14759	0.3989	0.163
Mof_O 	O 	0.7347	0.05572	0.5326	3.219
Mof_O 	O 	0.7089	0.03176	0.6019	0.207
Mof_O 	O 	0.859	0.1936	0.8038	0.014
Mof_O 	O 	0.6999	0.11287	0.4677	3.219
Mof_O 	O 	0.9655	0.887	0.5545	-0.287
Mof_O 	O 	0.5417	0.3227	0.5689	0.171
Mof_O 	O 	0.7097	0.96024	0.5236	0.195
Mof_O 	O 	0.9368	0.9025	0.6252	-0.259
Mof_O 	O 	0.806	0.0529	0.365	0.022
Mof_O 	O 	0.851	0.7946	0.2894	-0.276
Mof_C 	C 	0.848	0.1542	0.6831	-0.327
Mof_H 	H 	0.8674	0.1704	0.6668	0.396
Mof_O 	O 	0.8776	0.7832	0.3616	-0.273
Mof_C 	C 	0.8441	0.1563	0.7334	0.485
Mof_C 	C 	0.5628	0.2999	0.5984	-1.259
Mof_C 	C 	0.8223	0.1274	0.6576	0.053
Mof_C 	C 	0.8678	0.1867	0.7613	-0.556
Mof_C 	C 	0.8224	0.1264	0.6059	0.177
Mof_H 	H 	0.8406	0.1435	0.5894	0.046
Mof_C 	C 	0.7659	0.0776	0.606	0.564
Mof_C 	C 	0.5876	0.268	0.5762	0.677
Mof_C 	C 	0.5922	0.2652	0.5263	-0.426
Mof_H 	H 	0.5791	0.2836	0.5064	0.239
Mof_C 	C 	0.8536	0.9872	0.5078	0.487
Mof_C 	C 	0.798	0.1025	0.5805	-0.466
Mof_H 	H 	0.8009	0.1013	0.547	0.302
Mof_C 	C 	0.6461	0.2023	0.4349	-0.278
Mof_H 	H 	0.6509	0.2013	0.4017	0.189
Mof_C 	C 	0.7667	0.0772	0.6539	-0.39
Mof_H 	H 	0.7489	0.0595	0.6701	0.223
Mof_C 	C 	0.8272	0.0161	0.435	0.787
Mof_C 	C 	0.6648	0.1742	0.4646	0.454
Mof_C 	C 	0.827	0.0149	0.4832	-0.71
Mof_H 	H 	0.8096	0.032	0.5008	0.507
Mof_C 	C 	0.7339	0.0527	0.5774	-1.139
Mof_C 	C 	0.6922	0.1416	0.4424	-0.904
Mof_C 	C 	0.7934	0.1026	0.6819	0.129
Mof_C 	C 	0.6368	0.2071	0.5355	0.05
Mof_C 	C 	0.6617	0.1763	0.5122	-0.391
Mof_H 	H 	0.6756	0.1577	0.5312	0.248
Mof_C 	C 	0.9061	0.9353	0.5063	0.225
Mof_H 	H 	0.924	0.9189	0.4883	-0.015
Mof_C 	C 	0.8786	0.961	0.4815	-0.345
Mof_C 	C 	0.621	0.2314	0.4536	0.04
Mof_H 	H 	0.607	0.2488	0.433	0.04
Mof_C 	C 	0.9077	0.9334	0.5551	-0.22
Mof_C 	C 	0.8007	0.0472	0.4095	-0.657
Mof_C 	C 	0.7916	0.1046	0.7331	0.065
Mof_H 	H 	0.7738	0.0871	0.7496	0.032
Mof_C 	C 	0.751	0.934	0.4609	0.624
Mof_C 	C 	0.6091	0.239	0.6067	-0.572
Mof_H 	H 	0.6068	0.2406	0.6402	0.372
Mof_C 	C 	0.8806	0.9582	0.5824	0.256
Mof_H 	H 	0.8812	0.9573	0.6161	-0.027
Mof_C 	C 	0.9382	0.9052	0.5792	0.34
Mof_C 	C 	0.6163	0.2349	0.5053	0.148
Mof_C 	C 	0.7255	0.9664	0.4813	-1.004
Mof_C 	C 	0.8516	0.9906	0.4078	-0.695
Mof_H 	H 	0.8507	0.9918	0.3741	0.34
Mof_C 	C 	0.8533	0.9836	0.559	-0.412
Mof_H 	H 	0.8342	0.9988	0.5771	0.226
Mof_C 	C 	0.8144	0.1303	0.7589	-0.299
Mof_H 	H 	0.8113	0.1317	0.7924	0.205
Mof_C 	C 	0.7968	0.8712	0.4258	-0.281
Mof_C 	C 	0.6317	0.2105	0.5867	0.231
Mof_H 	H 	0.6448	0.1922	0.6066	0.015
Mof_C 	C 	0.8529	0.8012	0.3309	0.328
Mof_C 	C 	0.8766	0.9641	0.4299	0.472
Mof_H 	H 	0.8932	0.9472	0.4111	-0.109
Mof_C 	C 	0.7733	0.9072	0.4921	-0.467
Mof_H 	H 	0.7737	0.9111	0.5254	0.255
Mof_C 	C 	0.7558	0.9315	0.4119	-0.628
Mof_H 	H 	0.7439	0.9499	0.3912	0.319
Mof_C 	C 	0.7801	0.8986	0.3938	0.422
Mof_C 	C 	0.7947	0.8746	0.4717	0.333
Mof_H 	H 	0.8072	0.8559	0.4916	-0.063
Mof_C 	C 	0.8237	0.8341	0.3564	-0.137
Mof_C 	C 	0.8073	0.8607	0.3244	0.139
Mof_H 	H 	0.8119	0.8587	0.2911	0.018
Mof_C 	C 	0.7817	0.8931	0.3457	-0.317
Mof_H 	H 	0.7665	0.9099	0.3254	0.168
Mof_C 	C 	0.8224	0.8376	0.4032	0.129
Mof_H 	H 	0.8369	0.8198	0.4229	0.02
Mof_Cd	Cd	0.99706	0.85628	0.61871	0.822
Mof_Cd	Cd	0.08911	0.75218	0.80317	0.784
Mof_K 	K 	0.03907	0.80505	0.71299	-18.289
Mof_O 	O 	0.85288	0.95709	0.9888	2.95
Mof_O 	O 	0.976	0.8174	0.6844	2.715
Mof_O 	O 	0.1892	0.05268	0.8927	3.354
Mof_O 	O 	0.0291	0.74714	0.7078	3.226
Mof_O 	O 	0.044	0.89759	0.6489	0.164
Mof_O 	O 	0.0153	0.80572	0.7826	3.215
Mof_O 	O 	0.0411	0.78176	0.8519	0.205
Mof_O 	O 	0.891	0.9436	0.0538	0.083
Mof_O 	O 	0.0501	0.86287	0.7177	3.226
Mof_O 	O 	0.7845	0.637	0.8045	-0.286
Mof_O 	O 	0.2083	0.0727	0.8189	0.185
Mof_O 	O 	0.0403	0.71024	0.7736	0.197
Mof_O 	O 	0.8132	0.6525	0.8752	-0.246
Mof_O 	O 	0.944	0.8029	0.615	0.023
Mof_O 	O 	0.899	0.5446	0.5394	-0.275
Mof_C 	C 	0.902	0.9042	0.9331	-0.625
Mof_H 	H 	0.8826	0.9204	0.9168	0.509
Mof_O 	O 	0.8724	0.5332	0.6116	-0.272
Mof_C 	C 	0.9059	0.9063	0.9834	0.914
Mof_C 	C 	0.1872	0.0499	0.8484	-1.314
Mof_C 	C 	0.9277	0.8774	0.9076	0.297
Mof_C 	C 	0.8822	0.9367	0.0113	-0.876
Mof_C 	C 	0.9276	0.8764	0.8559	-0.007
Mof_H 	H 	0.9094	0.8935	0.8394	0.111
Mof_C 	C 	0.9841	0.8276	0.856	0.453
Mof_C 	C 	0.1624	0.018	0.8262	0.705
Mof_C 	C 	0.1578	0.0152	0.7763	-0.444
Mof_H 	H 	0.1709	0.0336	0.7564	0.246
Mof_C 	C 	0.8964	0.7372	0.7578	0.484
Mof_C 	C 	0.952	0.8525	0.8305	-0.321
Mof_H 	H 	0.9491	0.8513	0.797	0.252
Mof_C 	C 	0.1039	0.9523	0.6849	-0.273
Mof_H 	H 	0.0991	0.9513	0.6517	0.187
Mof_C 	C 	0.9833	0.8272	0.9039	-0.206
Mof_H 	H 	0.0011	0.8095	0.9201	0.172
Mof_C 	C 	0.9228	0.7661	0.685	0.787
Mof_C 	C 	0.0852	0.9242	0.7146	0.451
Mof_C 	C 	0.923	0.7649	0.7332	-0.71
Mof_H 	H 	0.9404	0.782	0.7508	0.508
Mof_C 	C 	0.0161	0.8027	0.8274	-1.101
Mof_C 	C 	0.0578	0.8916	0.6924	-0.905
Mof_C 	C 	0.9566	0.8526	0.9319	-0.134
Mof_C 	C 	0.1132	0.9571	0.7855	0.042
Mof_C 	C 	0.0883	0.9263	0.7622	-0.386
Mof_H 	H 	0.0744	0.9077	0.7812	0.248
Mof_C 	C 	0.8439	0.6853	0.7563	0.221
Mof_H 	H 	0.826	0.6689	0.7383	-0.013
Mof_C 	C 	0.8714	0.711	0.7315	-0.342
Mof_C 	C 	0.129	0.9814	0.7036	0.033
Mof_H 	H 	0.143	0.9988	0.683	0.042
Mof_C 	C 	0.8423	0.6834	0.8051	-0.212
Mof_C 	C 	0.9493	0.7972	0.6595	-0.659
Mof_C 	C 	0.9584	0.8546	0.9831	0.533
Mof_H 	H 	0.9762	0.8371	0.9996	-0.094
Mof_C 	C 	0.999	0.684	0.7109	0.625
Mof_C 	C 	0.1409	0.989	0.8567	-0.594
Mof_H 	H 	0.1432	0.9906	0.8902	0.39
Mof_C 	C 	0.8694	0.7082	0.8324	0.251
Mof_H 	H 	0.8688	0.7073	0.8661	-0.015
Mof_C 	C 	0.8118	0.6552	0.8292	0.336
Mof_C 	C 	0.1337	0.9849	0.7553	0.16
Mof_C 	C 	0.0245	0.7164	0.7313	-1.007
Mof_C 	C 	0.8984	0.7406	0.6578	-0.695
Mof_H 	H 	0.8993	0.7418	0.6241	0.34
Mof_C 	C 	0.8967	0.7336	0.809	-0.407
Mof_H 	H 	0.9158	0.7488	0.8271	0.228
Mof_C 	C 	0.9356	0.8803	0.0089	-0.848
Mof_H 	H 	0.9387	0.8817	0.0424	0.38
Mof_C 	C 	0.9532	0.6212	0.6758	-0.281
Mof_C 	C 	0.1183	0.9605	0.8367	0.249
Mof_H 	H 	0.1052	0.9422	0.8566	0.017
Mof_C 	C 	0.8971	0.5512	0.5809	0.328
Mof_C 	C 	0.8734	0.7141	0.6799	0.47
Mof_H 	H 	0.8568	0.6972	0.6611	-0.108
Mof_C 	C 	0.9767	0.6572	0.7421	-0.468
Mof_H 	H 	0.9763	0.6611	0.7754	0.259
Mof_C 	C 	0.9942	0.6815	0.6619	-0.629
Mof_H 	H 	0.0061	0.6999	0.6412	0.319
Mof_C 	C 	0.9699	0.6486	0.6438	0.422
Mof_C 	C 	0.9553	0.6246	0.7217	0.334
Mof_H 	H 	0.9428	0.6059	0.7416	-0.061
Mof_C 	C 	0.9263	0.5841	0.6064	-0.137
Mof_C 	C 	0.9427	0.6107	0.5744	0.139
Mof_H 	H 	0.9381	0.6087	0.5411	0.019
Mof_C 	C 	0.9683	0.6431	0.5957	-0.316
Mof_H 	H 	0.9835	0.6599	0.5754	0.168
Mof_C 	C 	0.9276	0.5876	0.6532	0.128
Mof_H 	H 	0.9131	0.5698	0.6729	0.021
Mof_Cd	Cd	0.99706	0.35628	0.11871	0.815
Mof_Cd	Cd	0.08911	0.25218	0.30317	0.781
Mof_K 	K 	0.03907	0.30505	0.21299	-18.281
Mof_O 	O 	0.85288	0.45709	0.4888	2.709
Mof_O 	O 	0.976	0.3174	0.1844	2.711
Mof_O 	O 	0.1892	0.55268	0.3927	3.231
Mof_O 	O 	0.0291	0.24714	0.2078	3.225
Mof_O 	O 	0.044	0.39759	0.1489	0.161
Mof_O 	O 	0.0153	0.30572	0.2826	3.223
Mof_O 	O 	0.0411	0.28176	0.3519	0.207
Mof_O 	O 	0.891	0.4436	0.5538	0.009
Mof_O 	O 	0.0501	0.36287	0.2177	3.223
Mof_O 	O 	0.7845	0.137	0.3045	-0.288
Mof_O 	O 	0.2083	0.5727	0.3189	0.169
Mof_O 	O 	0.0403	0.21024	0.2736	0.196
Mof_O 	O 	0.8132	0.1525	0.3752	-0.259
Mof_O 	O 	0.944	0.3029	0.115	0.01
Mof_O 	O 	0.899	0.0446	0.0394	-0.301
Mof_C 	C 	0.902	0.4042	0.4331	-0.325
Mof_H 	H 	0.8826	0.4204	0.4168	0.395
Mof_O 	O 	0.8724	0.0332	0.1116	-0.276
Mof_C 	C 	0.9059	0.4063	0.4834	0.483
Mof_C 	C 	0.1872	0.5499	0.3484	-1.256
Mof_C 	C 	0.9277	0.3774	0.4076	0.052
Mof_C 	C 	0.8822	0.4367	0.5113	-0.553
Mof_C 	C 	0.9276	0.3764	0.3559	0.178
Mof_H 	H 	0.9094	0.3935	0.3394	0.045
Mof_C 	C 	0.9841	0.3276	0.356	0.565
Mof_C 	C 	0.1624	0.518	0.3262	0.675
Mof_C 	C 	0.1578	0.5152	0.2763	-0.424
Mof_H 	H 	0.1709	0.5336	0.2564	0.237
Mof_C 	C 	0.8964	0.2372	0.2578	0.485
Mof_C 	C 	0.952	0.3525	0.3305	-0.467
Mof_H 	H 	0.9491	0.3513	0.297	0.302
Mof_C 	C 	0.1039	0.4523	0.1849	-0.279
Mof_H 	H 	0.0991	0.4513	0.1517	0.187
Mof_C 	C 	0.9833	0.3272	0.4039	-0.39
Mof_H 	H 	0.0011	0.3095	0.4201	0.222
Mof_C 	C 	0.9228	0.2661	0.185	0.782
Mof_C 	C 	0.0852	0.4242	0.2146	0.454
Mof_C 	C 	0.923	0.2649	0.2332	-0.709
Mof_H 	H 	0.9404	0.282	0.2508	0.506
Mof_C 	C 	0.0161	0.3027	0.3274	-1.141
Mof_C 	C 	0.0578	0.3916	0.1924	-0.905
Mof_C 	C 	0.9566	0.3526	0.4319	0.13
Mof_C 	C 	0.1132	0.4571	0.2855	0.052
Mof_C 	C 	0.0883	0.4263	0.2622	-0.393
Mof_H 	H 	0.0744	0.4077	0.2812	0.248
Mof_C 	C 	0.8439	0.1853	0.2563	0.225
Mof_H 	H 	0.826	0.1689	0.2383	-0.017
Mof_C 	C 	0.8714	0.211	0.2315	-0.345
Mof_C 	C 	0.129	0.4814	0.2036	0.041
Mof_H 	H 	0.143	0.4988	0.183	0.036
Mof_C 	C 	0.8423	0.1834	0.3051	-0.22
Mof_C 	C 	0.9493	0.2972	0.1595	-0.656
Mof_C 	C 	0.9584	0.3546	0.4831	0.064
Mof_H 	H 	0.9762	0.3371	0.4996	0.031
Mof_C 	C 	0.999	0.184	0.2109	0.626
Mof_C 	C 	0.1409	0.489	0.3567	-0.569
Mof_H 	H 	0.1432	0.4906	0.3902	0.372
Mof_C 	C 	0.8694	0.2082	0.3324	0.256
Mof_H 	H 	0.8688	0.2073	0.3661	-0.027
Mof_C 	C 	0.8118	0.1552	0.3292	0.34
Mof_C 	C 	0.1337	0.4849	0.2553	0.145
Mof_C 	C 	0.0245	0.2164	0.2313	-1.007
Mof_C 	C 	0.8984	0.2406	0.1578	-0.693
Mof_H 	H 	0.8993	0.2418	0.1241	0.33
Mof_C 	C 	0.8967	0.2336	0.309	-0.412
Mof_H 	H 	0.9158	0.2488	0.3271	0.226
Mof_C 	C 	0.9356	0.3803	0.5089	-0.297
Mof_H 	H 	0.9387	0.3817	0.5424	0.202
Mof_C 	C 	0.9532	0.1212	0.1758	-0.287
Mof_C 	C 	0.1183	0.4605	0.3367	0.229
Mof_H 	H 	0.1052	0.4422	0.3566	0.016
Mof_C 	C 	0.8971	0.0512	0.0809	0.333
Mof_C 	C 	0.8734	0.2141	0.1799	0.468
Mof_H 	H 	0.8568	0.1972	0.1611	-0.113
Mof_C 	C 	0.9767	0.1572	0.2421	-0.471
Mof_H 	H 	0.9763	0.1611	0.2754	0.257
Mof_C 	C 	0.9942	0.1815	0.1619	-0.632
Mof_H 	H 	0.0061	0.1999	0.1412	0.317
Mof_C 	C 	0.9699	0.1486	0.1438	0.424
Mof_C 	C 	0.9553	0.1246	0.2217	0.337
Mof_H 	H 	0.9428	0.1059	0.2416	-0.065
Mof_C 	C 	0.9263	0.0841	0.1064	-0.149
Mof_C 	C 	0.9427	0.1107	0.0744	0.142
Mof_H 	H 	0.9381	0.1087	0.0411	-0
Mof_C 	C 	0.9683	0.1431	0.0957	-0.328
Mof_H 	H 	0.9835	0.1599	0.0754	0.16
Mof_C 	C 	0.9276	0.0876	0.1532	0.133
Mof_H 	H 	0.9131	0.0698	0.1729	0.017
Mof_Cd	Cd	0.49706	0.85628	0.11871	0.815
Mof_Cd	Cd	0.58911	0.75218	0.30317	0.781
Mof_K 	K 	0.53907	0.80505	0.21299	-18.282
Mof_O 	O 	0.35288	0.95709	0.4888	2.709
Mof_O 	O 	0.476	0.8174	0.1844	2.712
Mof_O 	O 	0.6892	0.05268	0.3927	3.231
Mof_O 	O 	0.5291	0.74714	0.2078	3.225
Mof_O 	O 	0.544	0.89759	0.1489	0.161
Mof_O 	O 	0.5153	0.80572	0.2826	3.224
Mof_O 	O 	0.5411	0.78176	0.3519	0.207
Mof_O 	O 	0.391	0.9436	0.5538	0.009
Mof_O 	O 	0.5501	0.86287	0.2177	3.224
Mof_O 	O 	0.2845	0.637	0.3045	-0.288
Mof_O 	O 	0.7083	0.0727	0.3189	0.169
Mof_O 	O 	0.5403	0.71024	0.2736	0.196
Mof_O 	O 	0.3132	0.6525	0.3752	-0.259
Mof_O 	O 	0.444	0.8029	0.115	0.01
Mof_O 	O 	0.399	0.5446	0.0394	-0.301
Mof_C 	C 	0.402	0.9042	0.4331	-0.325
Mof_H 	H 	0.3826	0.9204	0.4168	0.395
Mof_O 	O 	0.3724	0.5332	0.1116	-0.277
Mof_C 	C 	0.4059	0.9063	0.4834	0.483
Mof_C 	C 	0.6872	0.0499	0.3484	-1.256
Mof_C 	C 	0.4277	0.8774	0.4076	0.052
Mof_C 	C 	0.3822	0.9367	0.5113	-0.553
Mof_C 	C 	0.4276	0.8764	0.3559	0.178
Mof_H 	H 	0.4094	0.8935	0.3394	0.045
Mof_C 	C 	0.4841	0.8276	0.356	0.565
Mof_C 	C 	0.6624	0.018	0.3262	0.675
Mof_C 	C 	0.6578	0.0152	0.2763	-0.424
Mof_H 	H 	0.6709	0.0336	0.2564	0.237
Mof_C 	C 	0.3964	0.7372	0.2578	0.485
Mof_C 	C 	0.452	0.8525	0.3305	-0.467
Mof_H 	H 	0.4491	0.8513	0.297	0.302
Mof_C 	C 	0.6039	0.9523	0.1849	-0.279
Mof_H 	H 	0.5991	0.9513	0.1517	0.187
Mof_C 	C 	0.4833	0.8272	0.4039	-0.39
Mof_H 	H 	0.5011	0.8095	0.4201	0.222
Mof_C 	C 	0.4228	0.7661	0.185	0.782
Mof_C 	C 	0.5852	0.9242	0.2146	0.454
Mof_C 	C 	0.423	0.7649	0.2332	-0.709
Mof_H 	H 	0.4404	0.782	0.2508	0.506
Mof_C 	C 	0.5161	0.8027	0.3274	-1.141
Mof_C 	C 	0.5578	0.8916	0.1924	-0.905
Mof_C 	C 	0.4566	0.8526	0.4319	0.13
Mof_C 	C 	0.6132	0.9571	0.2855	0.052
Mof_C 	C 	0.5883	0.9263	0.2622	-0.393
Mof_H 	H 	0.5744	0.9077	0.2812	0.248
Mof_C 	C 	0.3439	0.6853	0.2563	0.225
Mof_H 	H 	0.326	0.6689	0.2383	-0.017
Mof_C 	C 	0.3714	0.711	0.2315	-0.345
Mof_C 	C 	0.629	0.9814	0.2036	0.041
Mof_H 	H 	0.643	0.9988	0.183	0.036
Mof_C 	C 	0.3423	0.6834	0.3051	-0.22
Mof_C 	C 	0.4493	0.7972	0.1595	-0.656
Mof_C 	C 	0.4584	0.8546	0.4831	0.064
Mof_H 	H 	0.4762	0.8371	0.4996	0.031
Mof_C 	C 	0.499	0.684	0.2109	0.626
Mof_C 	C 	0.6409	0.989	0.3567	-0.569
Mof_H 	H 	0.6432	0.9906	0.3902	0.372
Mof_C 	C 	0.3694	0.7082	0.3324	0.256
Mof_H 	H 	0.3688	0.7073	0.3661	-0.027
Mof_C 	C 	0.3118	0.6552	0.3292	0.34
Mof_C 	C 	0.6337	0.9849	0.2553	0.145
Mof_C 	C 	0.5245	0.7164	0.2313	-1.007
Mof_C 	C 	0.3984	0.7406	0.1578	-0.693
Mof_H 	H 	0.3993	0.7418	0.1241	0.33
Mof_C 	C 	0.3967	0.7336	0.309	-0.412
Mof_H 	H 	0.4158	0.7488	0.3271	0.226
Mof_C 	C 	0.4356	0.8803	0.5089	-0.297
Mof_H 	H 	0.4387	0.8817	0.5424	0.202
Mof_C 	C 	0.4532	0.6212	0.1758	-0.288
Mof_C 	C 	0.6183	0.9605	0.3367	0.229
Mof_H 	H 	0.6052	0.9422	0.3566	0.016
Mof_C 	C 	0.3971	0.5512	0.0809	0.333
Mof_C 	C 	0.3734	0.7141	0.1799	0.468
Mof_H 	H 	0.3568	0.6972	0.1611	-0.113
Mof_C 	C 	0.4767	0.6572	0.2421	-0.471
Mof_H 	H 	0.4763	0.6611	0.2754	0.257
Mof_C 	C 	0.4942	0.6815	0.1619	-0.633
Mof_H 	H 	0.5061	0.6999	0.1412	0.317
Mof_C 	C 	0.4699	0.6486	0.1438	0.424
Mof_C 	C 	0.4553	0.6246	0.2217	0.337
Mof_H 	H 	0.4428	0.6059	0.2416	-0.065
Mof_C 	C 	0.4263	0.5841	0.1064	-0.149
Mof_C 	C 	0.4427	0.6107	0.0744	0.142
Mof_H 	H 	0.4381	0.6087	0.0411	-0.001
Mof_C 	C 	0.4683	0.6431	0.0957	-0.328
Mof_H 	H 	0.4835	0.6599	0.0754	0.16
Mof_C 	C 	0.4276	0.5876	0.1532	0.134
Mof_H 	H 	0.4131	0.5698	0.1729	0.016
Mof_Cd	Cd	0.49706	0.35628	0.61871	0.822
Mof_Cd	Cd	0.58911	0.25218	0.80317	0.785
Mof_K 	K 	0.53907	0.30505	0.71299	-18.289
Mof_O 	O 	0.35288	0.45709	0.9888	2.952
Mof_O 	O 	0.476	0.3174	0.6844	2.715
Mof_O 	O 	0.6892	0.55268	0.8927	3.355
Mof_O 	O 	0.5291	0.24714	0.7078	3.226
Mof_O 	O 	0.544	0.39759	0.6489	0.164
Mof_O 	O 	0.5153	0.30572	0.7826	3.215
Mof_O 	O 	0.5411	0.28176	0.8519	0.205
Mof_O 	O 	0.391	0.4436	0.0538	0.083
Mof_O 	O 	0.5501	0.36287	0.7177	3.226
Mof_O 	O 	0.2845	0.137	0.8045	-0.286
Mof_O 	O 	0.7083	0.5727	0.8189	0.185
Mof_O 	O 	0.5403	0.21024	0.7736	0.198
Mof_O 	O 	0.3132	0.1525	0.8752	-0.246
Mof_O 	O 	0.444	0.3029	0.615	0.023
Mof_O 	O 	0.399	0.0446	0.5394	-0.275
Mof_C 	C 	0.402	0.4042	0.9331	-0.628
Mof_H 	H 	0.3826	0.4204	0.9168	0.51
Mof_O 	O 	0.3724	0.0332	0.6116	-0.272
Mof_C 	C 	0.4059	0.4063	0.9834	0.918
Mof_C 	C 	0.6872	0.5499	0.8484	-1.315
Mof_C 	C 	0.4277	0.3774	0.9076	0.3
Mof_C 	C 	0.3822	0.4367	0.0113	-0.88
Mof_C 	C 	0.4276	0.3764	0.8559	-0.009
Mof_H 	H 	0.4094	0.3935	0.8394	0.112
Mof_C 	C 	0.4841	0.3276	0.856	0.452
Mof_C 	C 	0.6624	0.518	0.8262	0.706
Mof_C 	C 	0.6578	0.5152	0.7763	-0.444
Mof_H 	H 	0.6709	0.5336	0.7564	0.246
Mof_C 	C 	0.3964	0.2372	0.7578	0.485
Mof_C 	C 	0.452	0.3525	0.8305	-0.32
Mof_H 	H 	0.4491	0.3513	0.797	0.252
Mof_C 	C 	0.6039	0.4523	0.6849	-0.273
Mof_H 	H 	0.5991	0.4513	0.6517	0.187
Mof_C 	C 	0.4833	0.3272	0.9039	-0.204
Mof_H 	H 	0.5011	0.3095	0.9201	0.172
Mof_C 	C 	0.4228	0.2661	0.685	0.787
Mof_C 	C 	0.5852	0.4242	0.7146	0.451
Mof_C 	C 	0.423	0.2649	0.7332	-0.71
Mof_H 	H 	0.4404	0.282	0.7508	0.508
Mof_C 	C 	0.5161	0.3027	0.8274	-1.101
Mof_C 	C 	0.5578	0.3916	0.6924	-0.905
Mof_C 	C 	0.4566	0.3526	0.9319	-0.136
Mof_C 	C 	0.6132	0.4571	0.7855	0.042
Mof_C 	C 	0.5883	0.4263	0.7622	-0.386
Mof_H 	H 	0.5744	0.4077	0.7812	0.248
Mof_C 	C 	0.3439	0.1853	0.7563	0.221
Mof_H 	H 	0.326	0.1689	0.7383	-0.013
Mof_C 	C 	0.3714	0.211	0.7315	-0.342
Mof_C 	C 	0.629	0.4814	0.7036	0.033
Mof_H 	H 	0.643	0.4988	0.683	0.042
Mof_C 	C 	0.3423	0.1834	0.8051	-0.212
Mof_C 	C 	0.4493	0.2972	0.6595	-0.659
Mof_C 	C 	0.4584	0.3546	0.9831	0.538
Mof_H 	H 	0.4762	0.3371	0.9996	-0.096
Mof_C 	C 	0.499	0.184	0.7109	0.626
Mof_C 	C 	0.6409	0.489	0.8567	-0.595
Mof_H 	H 	0.6432	0.4906	0.8902	0.39
Mof_C 	C 	0.3694	0.2082	0.8324	0.251
Mof_H 	H 	0.3688	0.2073	0.8661	-0.015
Mof_C 	C 	0.3118	0.1552	0.8292	0.336
Mof_C 	C 	0.6337	0.4849	0.7553	0.159
Mof_C 	C 	0.5245	0.2164	0.7313	-1.007
Mof_C 	C 	0.3984	0.2406	0.6578	-0.695
Mof_H 	H 	0.3993	0.2418	0.6241	0.34
Mof_C 	C 	0.3967	0.2336	0.809	-0.407
Mof_H 	H 	0.4158	0.2488	0.8271	0.228
Mof_C 	C 	0.4356	0.3803	0.0089	-0.854
Mof_H 	H 	0.4387	0.3817	0.0424	0.381
Mof_C 	C 	0.4532	0.1212	0.6758	-0.281
Mof_C 	C 	0.6183	0.4605	0.8367	0.25
Mof_H 	H 	0.6052	0.4422	0.8566	0.017
Mof_C 	C 	0.3971	0.0512	0.5809	0.328
Mof_C 	C 	0.3734	0.2141	0.6799	0.47
Mof_H 	H 	0.3568	0.1972	0.6611	-0.108
Mof_C 	C 	0.4767	0.1572	0.7421	-0.468
Mof_H 	H 	0.4763	0.1611	0.7754	0.259
Mof_C 	C 	0.4942	0.1815	0.6619	-0.629
Mof_H 	H 	0.5061	0.1999	0.6412	0.319
Mof_C 	C 	0.4699	0.1486	0.6438	0.422
Mof_C 	C 	0.4553	0.1246	0.7217	0.334
Mof_H 	H 	0.4428	0.1059	0.7416	-0.061
Mof_C 	C 	0.4263	0.0841	0.6064	-0.137
Mof_C 	C 	0.4427	0.1107	0.5744	0.139
Mof_H 	H 	0.4381	0.1087	0.5411	0.019
Mof_C 	C 	0.4683	0.1431	0.5957	-0.316
Mof_H 	H 	0.4835	0.1599	0.5754	0.168
Mof_C 	C 	0.4276	0.0876	0.6532	0.128
Mof_H 	H 	0.4131	0.0698	0.6729	0.021
Mof_Cd	Cd	0.50294	0.64372	0.61871	0.822
Mof_Cd	Cd	0.41089	0.74782	0.80317	0.785
Mof_K 	K 	0.46093	0.69495	0.71299	-18.289
Mof_O 	O 	0.64712	0.54291	0.9888	2.952
Mof_O 	O 	0.524	0.6826	0.6844	2.715
Mof_O 	O 	0.3108	0.44732	0.8927	3.355
Mof_O 	O 	0.4709	0.75286	0.7078	3.226
Mof_O 	O 	0.456	0.60241	0.6489	0.164
Mof_O 	O 	0.4847	0.69428	0.7826	3.215
Mof_O 	O 	0.4589	0.71824	0.8519	0.205
Mof_O 	O 	0.609	0.5564	0.0538	0.083
Mof_O 	O 	0.4499	0.63713	0.7177	3.226
Mof_O 	O 	0.7155	0.863	0.8045	-0.286
Mof_O 	O 	0.2917	0.4273	0.8189	0.185
Mof_O 	O 	0.4597	0.78976	0.7736	0.198
Mof_O 	O 	0.6868	0.8475	0.8752	-0.246
Mof_O 	O 	0.556	0.6971	0.615	0.023
Mof_O 	O 	0.601	0.9554	0.5394	-0.275
Mof_C 	C 	0.598	0.5958	0.9331	-0.628
Mof_H 	H 	0.6174	0.5796	0.9168	0.51
Mof_O 	O 	0.6276	0.9668	0.6116	-0.272
Mof_C 	C 	0.5941	0.5937	0.9834	0.918
Mof_C 	C 	0.3128	0.4501	0.8484	-1.315
Mof_C 	C 	0.5723	0.6226	0.9076	0.3
Mof_C 	C 	0.6178	0.5633	0.0113	-0.88
Mof_C 	C 	0.5724	0.6236	0.8559	-0.009
Mof_H 	H 	0.5906	0.6065	0.8394	0.112
Mof_C 	C 	0.5159	0.6724	0.856	0.452
Mof_C 	C 	0.3376	0.482	0.8262	0.706
Mof_C 	C 	0.3422	0.4848	0.7763	-0.444
Mof_H 	H 	0.3291	0.4664	0.7564	0.246
Mof_C 	C 	0.6036	0.7628	0.7578	0.485
Mof_C 	C 	0.548	0.6475	0.8305	-0.32
Mof_H 	H 	0.5509	0.6487	0.797	0.252
Mof_C 	C 	0.3961	0.5477	0.6849	-0.273
Mof_H 	H 	0.4009	0.5487	0.6517	0.187
Mof_C 	C 	0.5167	0.6728	0.9039	-0.204
Mof_H 	H 	0.4989	0.6905	0.9201	0.172
Mof_C 	C 	0.5772	0.7339	0.685	0.787
Mof_C 	C 	0.4148	0.5758	0.7146	0.451
Mof_C 	C 	0.577	0.7351	0.7332	-0.71
Mof_H 	H 	0.5596	0.718	0.7508	0.508
Mof_C 	C 	0.4839	0.6973	0.8274	-1.101
Mof_C 	C 	0.4422	0.6084	0.6924	-0.905
Mof_C 	C 	0.5434	0.6474	0.9319	-0.136
Mof_C 	C 	0.3868	0.5429	0.7855	0.042
Mof_C 	C 	0.4117	0.5737	0.7622	-0.386
Mof_H 	H 	0.4256	0.5923	0.7812	0.248
Mof_C 	C 	0.6561	0.8147	0.7563	0.221
Mof_H 	H 	0.674	0.8311	0.7383	-0.013
Mof_C 	C 	0.6286	0.789	0.7315	-0.342
Mof_C 	C 	0.371	0.5186	0.7036	0.033
Mof_H 	H 	0.357	0.5012	0.683	0.042
Mof_C 	C 	0.6577	0.8166	0.8051	-0.212
Mof_C 	C 	0.5507	0.7028	0.6595	-0.659
Mof_C 	C 	0.5416	0.6454	0.9831	0.538
Mof_H 	H 	0.5238	0.6629	0.9996	-0.096
Mof_C 	C 	0.501	0.816	0.7109	0.626
Mof_C 	C 	0.3591	0.511	0.8567	-0.595
Mof_H 	H 	0.3568	0.5094	0.8902	0.39
Mof_C 	C 	0.6306	0.7918	0.8324	0.251
Mof_H 	H 	0.6312	0.7927	0.8661	-0.015
Mof_C 	C 	0.6882	0.8448	0.8292	0.336
Mof_C 	C 	0.3663	0.5151	0.7553	0.159
Mof_C 	C 	0.4755	0.7836	0.7313	-1.007
Mof_C 	C 	0.6016	0.7594	0.6578	-0.695
Mof_H 	H 	0.6007	0.7582	0.6241	0.34
Mof_C 	C 	0.6033	0.7664	0.809	-0.407
Mof_H 	H 	0.5842	0.7512	0.8271	0.228
Mof_C 	C 	0.5644	0.6197	0.0089	-0.854
Mof_H 	H 	0.5613	0.6183	0.0424	0.381
Mof_C 	C 	0.5468	0.8788	0.6758	-0.281
Mof_C 	C 	0.3817	0.5395	0.8367	0.25
Mof_H 	H 	0.3948	0.5578	0.8566	0.017
Mof_C 	C 	0.6029	0.9488	0.5809	0.328
Mof_C 	C 	0.6266	0.7859	0.6799	0.47
Mof_H 	H 	0.6432	0.8028	0.6611	-0.108
Mof_C 	C 	0.5233	0.8428	0.7421	-0.468
Mof_H 	H 	0.5237	0.8389	0.7754	0.259
Mof_C 	C 	0.5058	0.8185	0.6619	-0.629
Mof_H 	H 	0.4939	0.8001	0.6412	0.319
Mof_C 	C 	0.5301	0.8514	0.6438	0.422
Mof_C 	C 	0.5447	0.8754	0.7217	0.334
Mof_H 	H 	0.5572	0.8941	0.7416	-0.061
Mof_C 	C 	0.5737	0.9159	0.6064	-0.137
Mof_C 	C 	0.5573	0.8893	0.5744	0.139
Mof_H 	H 	0.5619	0.8913	0.5411	0.019
Mof_C 	C 	0.5317	0.8569	0.5957	-0.316
Mof_H 	H 	0.5165	0.8401	0.5754	0.168
Mof_C 	C 	0.5724	0.9124	0.6532	0.128
Mof_H 	H 	0.5869	0.9302	0.6729	0.021
Mof_Cd	Cd	0.50294	0.14372	0.11871	0.815
Mof_Cd	Cd	0.41089	0.24782	0.30317	0.781
Mof_K 	K 	0.46093	0.19495	0.21299	-18.282
Mof_O 	O 	0.64712	0.04291	0.4888	2.709
Mof_O 	O 	0.524	0.1826	0.1844	2.712
Mof_O 	O 	0.3108	0.94732	0.3927	3.231
Mof_O 	O 	0.4709	0.25286	0.2078	3.225
Mof_O 	O 	0.456	0.10241	0.1489	0.161
Mof_O 	O 	0.4847	0.19428	0.2826	3.224
Mof_O 	O 	0.4589	0.21824	0.3519	0.207
Mof_O 	O 	0.609	0.0564	0.5538	0.009
Mof_O 	O 	0.4499	0.13713	0.2177	3.224
Mof_O 	O 	0.7155	0.363	0.3045	-0.288
Mof_O 	O 	0.2917	0.9273	0.3189	0.169
Mof_O 	O 	0.4597	0.28976	0.2736	0.196
Mof_O 	O 	0.6868	0.3475	0.3752	-0.259
Mof_O 	O 	0.556	0.1971	0.115	0.01
Mof_O 	O 	0.601	0.4554	0.0394	-0.301
Mof_C 	C 	0.598	0.0958	0.4331	-0.325
Mof_H 	H 	0.6174	0.0796	0.4168	0.395
Mof_O 	O 	0.6276	0.4668	0.1116	-0.277
Mof_C 	C 	0.5941	0.0937	0.4834	0.483
Mof_C 	C 	0.3128	0.9501	0.3484	-1.256
Mof_C 	C 	0.5723	0.1226	0.4076	0.052
Mof_C 	C 	0.6178	0.0633	0.5113	-0.553
Mof_C 	C 	0.5724	0.1236	0.3559	0.178
Mof_H 	H 	0.5906	0.1065	0.3394	0.045
Mof_C 	C 	0.5159	0.1724	0.356	0.565
Mof_C 	C 	0.3376	0.982	0.3262	0.675
Mof_C 	C 	0.3422	0.9848	0.2763	-0.424
Mof_H 	H 	0.3291	0.9664	0.2564	0.237
Mof_C 	C 	0.6036	0.2628	0.2578	0.485
Mof_C 	C 	0.548	0.1475	0.3305	-0.467
Mof_H 	H 	0.5509	0.1487	0.297	0.302
Mof_C 	C 	0.3961	0.0477	0.1849	-0.279
Mof_H 	H 	0.4009	0.0487	0.1517	0.187
Mof_C 	C 	0.5167	0.1728	0.4039	-0.39
Mof_H 	H 	0.4989	0.1905	0.4201	0.222
Mof_C 	C 	0.5772	0.2339	0.185	0.782
Mof_C 	C 	0.4148	0.0758	0.2146	0.454
Mof_C 	C 	0.577	0.2351	0.2332	-0.709
Mof_H 	H 	0.5596	0.218	0.2508	0.506
Mof_C 	C 	0.4839	0.1973	0.3274	-1.141
Mof_C 	C 	0.4422	0.1084	0.1924	-0.905
Mof_C 	C 	0.5434	0.1474	0.4319	0.13
Mof_C 	C 	0.3868	0.0429	0.2855	0.052
Mof_C 	C 	0.4117	0.0737	0.2622	-0.393
Mof_H 	H 	0.4256	0.0923	0.2812	0.248
Mof_C 	C 	0.6561	0.3147	0.2563	0.225
Mof_H 	H 	0.674	0.3311	0.2383	-0.017
Mof_C 	C 	0.6286	0.289	0.2315	-0.345
Mof_C 	C 	0.371	0.0186	0.2036	0.041
Mof_H 	H 	0.357	0.0012	0.183	0.036
Mof_C 	C 	0.6577	0.3166	0.3051	-0.22
Mof_C 	C 	0.5507	0.2028	0.1595	-0.656
Mof_C 	C 	0.5416	0.1454	0.4831	0.064
Mof_H 	H 	0.5238	0.1629	0.4996	0.031
Mof_C 	C 	0.501	0.316	0.2109	0.626
Mof_C 	C 	0.3591	0.011	0.3567	-0.569
Mof_H 	H 	0.3568	0.0094	0.3902	0.372
Mof_C 	C 	0.6306	0.2918	0.3324	0.256
Mof_H 	H 	0.6312	0.2927	0.3661	-0.027
Mof_C 	C 	0.6882	0.3448	0.3292	0.34
Mof_C 	C 	0.3663	0.0151	0.2553	0.145
Mof_C 	C 	0.4755	0.2836	0.2313	-1.007
Mof_C 	C 	0.6016	0.2594	0.1578	-0.693
Mof_H 	H 	0.6007	0.2582	0.1241	0.33
Mof_C 	C 	0.6033	0.2664	0.309	-0.412
Mof_H 	H 	0.5842	0.2512	0.3271	0.226
Mof_C 	C 	0.5644	0.1197	0.5089	-0.297
Mof_H 	H 	0.5613	0.1183	0.5424	0.202
Mof_C 	C 	0.5468	0.3788	0.1758	-0.288
Mof_C 	C 	0.3817	0.0395	0.3367	0.229
Mof_H 	H 	0.3948	0.0578	0.3566	0.016
Mof_C 	C 	0.6029	0.4488	0.0809	0.333
Mof_C 	C 	0.6266	0.2859	0.1799	0.468
Mof_H 	H 	0.6432	0.3028	0.1611	-0.113
Mof_C 	C 	0.5233	0.3428	0.2421	-0.471
Mof_H 	H 	0.5237	0.3389	0.2754	0.257
Mof_C 	C 	0.5058	0.3185	0.1619	-0.633
Mof_H 	H 	0.4939	0.3001	0.1412	0.317
Mof_C 	C 	0.5301	0.3514	0.1438	0.424
Mof_C 	C 	0.5447	0.3754	0.2217	0.337
Mof_H 	H 	0.5572	0.3941	0.2416	-0.065
Mof_C 	C 	0.5737	0.4159	0.1064	-0.149
Mof_C 	C 	0.5573	0.3893	0.0744	0.142
Mof_H 	H 	0.5619	0.3913	0.0411	-0.001
Mof_C 	C 	0.5317	0.3569	0.0957	-0.328
Mof_H 	H 	0.5165	0.3401	0.0754	0.16
Mof_C 	C 	0.5724	0.4124	0.1532	0.134
Mof_H 	H 	0.5869	0.4302	0.1729	0.016
Mof_Cd	Cd	0.00294	0.64372	0.11871	0.815
Mof_Cd	Cd	0.91089	0.74782	0.30317	0.781
Mof_K 	K 	0.96093	0.69495	0.21299	-18.281
Mof_O 	O 	0.14712	0.54291	0.4888	2.709
Mof_O 	O 	0.024	0.6826	0.1844	2.711
Mof_O 	O 	0.8108	0.44732	0.3927	3.231
Mof_O 	O 	0.9709	0.75286	0.2078	3.225
Mof_O 	O 	0.956	0.60241	0.1489	0.161
Mof_O 	O 	0.9847	0.69428	0.2826	3.223
Mof_O 	O 	0.9589	0.71824	0.3519	0.207
Mof_O 	O 	0.109	0.5564	0.5538	0.009
Mof_O 	O 	0.9499	0.63713	0.2177	3.223
Mof_O 	O 	0.2155	0.863	0.3045	-0.288
Mof_O 	O 	0.7917	0.4273	0.3189	0.169
Mof_O 	O 	0.9597	0.78976	0.2736	0.196
Mof_O 	O 	0.1868	0.8475	0.3752	-0.259
Mof_O 	O 	0.056	0.6971	0.115	0.01
Mof_O 	O 	0.101	0.9554	0.0394	-0.301
Mof_C 	C 	0.098	0.5958	0.4331	-0.325
Mof_H 	H 	0.1174	0.5796	0.4168	0.395
Mof_O 	O 	0.1276	0.9668	0.1116	-0.276
Mof_C 	C 	0.0941	0.5937	0.4834	0.483
Mof_C 	C 	0.8128	0.4501	0.3484	-1.256
Mof_C 	C 	0.0723	0.6226	0.4076	0.052
Mof_C 	C 	0.1178	0.5633	0.5113	-0.553
Mof_C 	C 	0.0724	0.6236	0.3559	0.178
Mof_H 	H 	0.0906	0.6065	0.3394	0.045
Mof_C 	C 	0.0159	0.6724	0.356	0.565
Mof_C 	C 	0.8376	0.482	0.3262	0.675
Mof_C 	C 	0.8422	0.4848	0.2763	-0.424
Mof_H 	H 	0.8291	0.4664	0.2564	0.237
Mof_C 	C 	0.1036	0.7628	0.2578	0.485
Mof_C 	C 	0.048	0.6475	0.3305	-0.467
Mof_H 	H 	0.0509	0.6487	0.297	0.302
Mof_C 	C 	0.8961	0.5477	0.1849	-0.279
Mof_H 	H 	0.9009	0.5487	0.1517	0.187
Mof_C 	C 	0.0167	0.6728	0.4039	-0.39
Mof_H 	H 	0.9989	0.6905	0.4201	0.222
Mof_C 	C 	0.0772	0.7339	0.185	0.782
Mof_C 	C 	0.9148	0.5758	0.2146	0.454
Mof_C 	C 	0.077	0.7351	0.2332	-0.709
Mof_H 	H 	0.0596	0.718	0.2508	0.506
Mof_C 	C 	0.9839	0.6973	0.3274	-1.141
Mof_C 	C 	0.9422	0.6084	0.1924	-0.905
Mof_C 	C 	0.0434	0.6474	0.4319	0.13
Mof_C 	C 	0.8868	0.5429	0.2855	0.052
Mof_C 	C 	0.9117	0.5737	0.2622	-0.393
Mof_H 	H 	0.9256	0.5923	0.2812	0.248
Mof_C 	C 	0.1561	0.8147	0.2563	0.225
Mof_H 	H 	0.174	0.8311	0.2383	-0.017
Mof_C 	C 	0.1286	0.789	0.2315	-0.345
Mof_C 	C 	0.871	0.5186	0.2036	0.041
Mof_H 	H 	0.857	0.5012	0.183	0.036
Mof_C 	C 	0.1577	0.8166	0.3051	-0.22
Mof_C 	C 	0.0507	0.7028	0.1595	-0.656
Mof_C 	C 	0.0416	0.6454	0.4831	0.064
Mof_H 	H 	0.0238	0.6629	0.4996	0.031
Mof_C 	C 	0.001	0.816	0.2109	0.626
Mof_C 	C 	0.8591	0.511	0.3567	-0.569
Mof_H 	H 	0.8568	0.5094	0.3902	0.372
Mof_C 	C 	0.1306	0.7918	0.3324	0.256
Mof_H 	H 	0.1312	0.7927	0.3661	-0.027
Mof_C 	C 	0.1882	0.8448	0.3292	0.34
Mof_C 	C 	0.8663	0.5151	0.2553	0.145
Mof_C 	C 	0.9755	0.7836	0.2313	-1.007
Mof_C 	C 	0.1016	0.7594	0.1578	-0.693
Mof_H 	H 	0.1007	0.7582	0.1241	0.33
Mof_C 	C 	0.1033	0.7664	0.309	-0.412
Mof_H 	H 	0.0842	0.7512	0.3271	0.226
Mof_C 	C 	0.0644	0.6197	0.5089	-0.297
Mof_H 	H 	0.0613	0.6183	0.5424	0.202
Mof_C 	C 	0.0468	0.8788	0.1758	-0.287
Mof_C 	C 	0.8817	0.5395	0.3367	0.229
Mof_H 	H 	0.8948	0.5578	0.3566	0.016
Mof_C 	C 	0.1029	0.9488	0.0809	0.333
Mof_C 	C 	0.1266	0.7859	0.1799	0.468
Mof_H 	H 	0.1432	0.8028	0.1611	-0.113
Mof_C 	C 	0.0233	0.8428	0.2421	-0.471
Mof_H 	H 	0.0237	0.8389	0.2754	0.257
Mof_C 	C 	0.0058	0.8185	0.1619	-0.632
Mof_H 	H 	0.9939	0.8001	0.1412	0.317
Mof_C 	C 	0.0301	0.8514	0.1438	0.424
Mof_C 	C 	0.0447	0.8754	0.2217	0.337
Mof_H 	H 	0.0572	0.8941	0.2416	-0.065
Mof_C 	C 	0.0737	0.9159	0.1064	-0.149
Mof_C 	C 	0.0573	0.8893	0.0744	0.142
Mof_H 	H 	0.0619	0.8913	0.0411	-0
Mof_C 	C 	0.0317	0.8569	0.0957	-0.328
Mof_H 	H 	0.0165	0.8401	0.0754	0.16
Mof_C 	C 	0.0724	0.9124	0.1532	0.133
Mof_H 	H 	0.0869	0.9302	0.1729	0.017
Mof_Cd	Cd	0.00294	0.14372	0.61871	0.822
Mof_Cd	Cd	0.91089	0.24782	0.80317	0.784
Mof_K 	K 	0.96093	0.19495	0.71299	-18.289
Mof_O 	O 	0.14712	0.04291	0.9888	2.95
Mof_O 	O 	0.024	0.1826	0.6844	2.715
Mof_O 	O 	0.8108	0.94732	0.8927	3.354
Mof_O 	O 	0.9709	0.25286	0.7078	3.226
Mof_O 	O 	0.956	0.10241	0.6489	0.164
Mof_O 	O 	0.9847	0.19428	0.7826	3.215
Mof_O 	O 	0.9589	0.21824	0.8519	0.205
Mof_O 	O 	0.109	0.0564	0.0538	0.083
Mof_O 	O 	0.9499	0.13713	0.7177	3.226
Mof_O 	O 	0.2155	0.363	0.8045	-0.286
Mof_O 	O 	0.7917	0.9273	0.8189	0.185
Mof_O 	O 	0.9597	0.28976	0.7736	0.197
Mof_O 	O 	0.1868	0.3475	0.8752	-0.246
Mof_O 	O 	0.056	0.1971	0.615	0.023
Mof_O 	O 	0.101	0.4554	0.5394	-0.275
Mof_C 	C 	0.098	0.0958	0.9331	-0.625
Mof_H 	H 	0.1174	0.0796	0.9168	0.509
Mof_O 	O 	0.1276	0.4668	0.6116	-0.272
Mof_C 	C 	0.0941	0.0937	0.9834	0.914
Mof_C 	C 	0.8128	0.9501	0.8484	-1.314
Mof_C 	C 	0.0723	0.1226	0.9076	0.297
Mof_C 	C 	0.1178	0.0633	0.0113	-0.876
Mof_C 	C 	0.0724	0.1236	0.8559	-0.007
Mof_H 	H 	0.0906	0.1065	0.8394	0.111
Mof_C 	C 	0.0159	0.1724	0.856	0.453
Mof_C 	C 	0.8376	0.982	0.8262	0.705
Mof_C 	C 	0.8422	0.9848	0.7763	-0.444
Mof_H 	H 	0.8291	0.9664	0.7564	0.246
Mof_C 	C 	0.1036	0.2628	0.7578	0.484
Mof_C 	C 	0.048	0.1475	0.8305	-0.321
Mof_H 	H 	0.0509	0.1487	0.797	0.252
Mof_C 	C 	0.8961	0.0477	0.6849	-0.273
Mof_H 	H 	0.9009	0.0487	0.6517	0.187
Mof_C 	C 	0.0167	0.1728	0.9039	-0.206
Mof_H 	H 	0.9989	0.1905	0.9201	0.172
Mof_C 	C 	0.0772	0.2339	0.685	0.787
Mof_C 	C 	0.9148	0.0758	0.7146	0.451
Mof_C 	C 	0.077	0.2351	0.7332	-0.71
Mof_H 	H 	0.0596	0.218	0.7508	0.508
Mof_C 	C 	0.9839	0.1973	0.8274	-1.101
Mof_C 	C 	0.9422	0.1084	0.6924	-0.905
Mof_C 	C 	0.0434	0.1474	0.9319	-0.134
Mof_C 	C 	0.8868	0.0429	0.7855	0.042
Mof_C 	C 	0.9117	0.0737	0.7622	-0.386
Mof_H 	H 	0.9256	0.0923	0.7812	0.248
Mof_C 	C 	0.1561	0.3147	0.7563	0.221
Mof_H 	H 	0.174	0.3311	0.7383	-0.013
Mof_C 	C 	0.1286	0.289	0.7315	-0.342
Mof_C 	C 	0.871	0.0186	0.7036	0.033
Mof_H 	H 	0.857	0.0012	0.683	0.042
Mof_C 	C 	0.1577	0.3166	0.8051	-0.212
Mof_C 	C 	0.0507	0.2028	0.6595	-0.659
Mof_C 	C 	0.0416	0.1454	0.9831	0.533
Mof_H 	H 	0.0238	0.1629	0.9996	-0.094
Mof_C 	C 	0.001	0.316	0.7109	0.625
Mof_C 	C 	0.8591	0.011	0.8567	-0.594
Mof_H 	H 	0.8568	0.0094	0.8902	0.39
Mof_C 	C 	0.1306	0.2918	0.8324	0.251
Mof_H 	H 	0.1312	0.2927	0.8661	-0.015
Mof_C 	C 	0.1882	0.3448	0.8292	0.336
Mof_C 	C 	0.8663	0.0151	0.7553	0.16
Mof_C 	C 	0.9755	0.2836	0.7313	-1.007
Mof_C 	C 	0.1016	0.2594	0.6578	-0.695
Mof_H 	H 	0.1007	0.2582	0.6241	0.34
Mof_C 	C 	0.1033	0.2664	0.809	-0.407
Mof_H 	H 	0.0842	0.2512	0.8271	0.228
Mof_C 	C 	0.0644	0.1197	0.0089	-0.848
Mof_H 	H 	0.0613	0.1183	0.0424	0.38
Mof_C 	C 	0.0468	0.3788	0.6758	-0.281
Mof_C 	C 	0.8817	0.0395	0.8367	0.249
Mof_H 	H 	0.8948	0.0578	0.8566	0.017
Mof_C 	C 	0.1029	0.4488	0.5809	0.328
Mof_C 	C 	0.1266	0.2859	0.6799	0.47
Mof_H 	H 	0.1432	0.3028	0.6611	-0.108
Mof_C 	C 	0.0233	0.3428	0.7421	-0.468
Mof_H 	H 	0.0237	0.3389	0.7754	0.259
Mof_C 	C 	0.0058	0.3185	0.6619	-0.629
Mof_H 	H 	0.9939	0.3001	0.6412	0.319
Mof_C 	C 	0.0301	0.3514	0.6438	0.422
Mof_C 	C 	0.0447	0.3754	0.7217	0.334
Mof_H 	H 	0.0572	0.3941	0.7416	-0.061
Mof_C 	C 	0.0737	0.4159	0.6064	-0.137
Mof_C 	C 	0.0573	0.3893	0.5744	0.139
Mof_H 	H 	0.0619	0.3913	0.5411	0.019
Mof_C 	C 	0.0317	0.3569	0.5957	-0.316
Mof_H 	H 	0.0165	0.3401	0.5754	0.168
Mof_C 	C 	0.0724	0.4124	0.6532	0.128
Mof_H 	H 	0.0869	0.4302	0.6729	0.021
_end
