data_functionalizedCrystal
_audit_creation_method	'EQeq! by Chris Wilmer'
_symmetry_space_group_name_H-M	'P1'
_symmetry_Int_Tables_number	1
_symmetry_cell_setting	triclinic
loop_
_symmetry_equiv_pos_as_xyz
  x,y,z
_cell_length_a	10.39
_cell_length_b	16.087
_cell_length_c	18.717
_cell_angle_alpha	90
_cell_angle_beta	90
_cell_angle_gamma	90
loop_
_atom_site_label
_atom_site_type_symbol
_atom_site_fract_x
_atom_site_fract_y
_atom_site_fract_z
_atom_site_charge
Mof_Sn	Sn	0.5095	0.754	0.152	0.715
Mof_Sn	Sn	0.6518	0.3516	0.0641	0.727
Mof_Sn	Sn	0.3074	0.3854	0.0676	0.724
Mof_P 	P 	0.5166	0.5521	0.0928	0.466
Mof_P 	P 	0.2504	0.8049	0.2434	0.463
Mof_O 	O 	0.3397	0.7315	0.2136	-0.334
Mof_O 	O 	0.1123	0.7652	0.248	-0.317
Mof_O 	O 	0.5371	0.6157	0.1585	-0.311
Mof_O 	O 	0.4709	0.3157	0.1051	-0.368
Mof_O 	O 	0.6269	0.485	0.096	-0.341
Mof_O 	O 	0.2916	0.8342	0.3188	-0.347
Mof_O 	O 	0.5218	0.6053	0.0213	-0.415
Mof_O 	O 	0.3845	0.5087	0.1027	-0.339
Mof_O 	O 	0.2507	0.882	0.1899	-0.321
Mof_Sn	Sn	0.4905	0.254	0.348	0.716
Mof_Sn	Sn	0.3482	0.8516	0.4359	0.725
Mof_Sn	Sn	0.6926	0.8854	0.4324	0.722
Mof_P 	P 	0.4834	0.0521	0.4072	0.466
Mof_P 	P 	0.7496	0.3049	0.2566	0.463
Mof_O 	O 	0.6603	0.2315	0.2864	-0.334
Mof_O 	O 	0.8877	0.2652	0.252	-0.317
Mof_O 	O 	0.4629	0.1157	0.3415	-0.31
Mof_O 	O 	0.5291	0.8157	0.3949	-0.368
Mof_O 	O 	0.3731	0.985	0.404	-0.342
Mof_O 	O 	0.7084	0.3342	0.1812	-0.347
Mof_O 	O 	0.4782	0.1053	0.4787	-0.415
Mof_O 	O 	0.6155	0.0087	0.3973	-0.339
Mof_O 	O 	0.7493	0.382	0.3101	-0.32
Mof_Sn	Sn	0.0095	0.754	0.348	0.715
Mof_Sn	Sn	0.1518	0.3516	0.4359	0.726
Mof_Sn	Sn	0.8074	0.3854	0.4324	0.721
Mof_P 	P 	0.0166	0.5521	0.4072	0.466
Mof_P 	P 	0.7504	0.8049	0.2566	0.463
Mof_O 	O 	0.8397	0.7315	0.2864	-0.334
Mof_O 	O 	0.6123	0.7652	0.252	-0.317
Mof_O 	O 	0.0371	0.6157	0.3415	-0.31
Mof_O 	O 	0.9709	0.3157	0.3949	-0.368
Mof_O 	O 	0.1269	0.485	0.404	-0.341
Mof_O 	O 	0.7916	0.8342	0.1812	-0.347
Mof_O 	O 	0.0218	0.6053	0.4787	-0.415
Mof_O 	O 	0.8845	0.5087	0.3973	-0.339
Mof_O 	O 	0.7507	0.882	0.3101	-0.32
Mof_Sn	Sn	0.9905	0.254	0.152	0.715
Mof_Sn	Sn	0.8482	0.8516	0.0641	0.725
Mof_Sn	Sn	0.1926	0.8854	0.0676	0.719
Mof_P 	P 	0.9834	0.0521	0.0928	0.464
Mof_P 	P 	0.2496	0.3049	0.2434	0.463
Mof_O 	O 	0.1603	0.2315	0.2136	-0.333
Mof_O 	O 	0.3877	0.2652	0.248	-0.317
Mof_O 	O 	0.9629	0.1157	0.1585	-0.311
Mof_O 	O 	0.0291	0.8157	0.1051	-0.368
Mof_O 	O 	0.8731	0.985	0.096	-0.342
Mof_O 	O 	0.2084	0.3342	0.3188	-0.347
Mof_O 	O 	0.9782	0.1053	0.0213	-0.414
Mof_O 	O 	0.1155	0.0087	0.1027	-0.336
Mof_O 	O 	0.2493	0.382	0.1899	-0.32
Mof_Sn	Sn	0.9905	0.246	0.652	0.715
Mof_Sn	Sn	0.8482	0.6484	0.5641	0.726
Mof_Sn	Sn	0.1926	0.6146	0.5676	0.721
Mof_P 	P 	0.9834	0.4479	0.5928	0.466
Mof_P 	P 	0.2496	0.1951	0.7434	0.463
Mof_O 	O 	0.1603	0.2685	0.7136	-0.334
Mof_O 	O 	0.3877	0.2348	0.748	-0.317
Mof_O 	O 	0.9629	0.3843	0.6585	-0.31
Mof_O 	O 	0.0291	0.6843	0.6051	-0.368
Mof_O 	O 	0.8731	0.515	0.596	-0.341
Mof_O 	O 	0.2084	0.1658	0.8188	-0.347
Mof_O 	O 	0.9782	0.3947	0.5213	-0.415
Mof_O 	O 	0.1155	0.4913	0.6027	-0.339
Mof_O 	O 	0.2493	0.118	0.6899	-0.32
Mof_Sn	Sn	0.0095	0.746	0.848	0.715
Mof_Sn	Sn	0.1518	0.1484	0.9359	0.725
Mof_Sn	Sn	0.8074	0.1146	0.9324	0.719
Mof_P 	P 	0.0166	0.9479	0.9072	0.464
Mof_P 	P 	0.7504	0.6951	0.7566	0.463
Mof_O 	O 	0.8397	0.7685	0.7864	-0.333
Mof_O 	O 	0.6123	0.7348	0.752	-0.317
Mof_O 	O 	0.0371	0.8843	0.8415	-0.311
Mof_O 	O 	0.9709	0.1843	0.8949	-0.368
Mof_O 	O 	0.1269	0.015	0.904	-0.342
Mof_O 	O 	0.7916	0.6658	0.6812	-0.347
Mof_O 	O 	0.0218	0.8947	0.9787	-0.414
Mof_O 	O 	0.8845	0.9913	0.8973	-0.336
Mof_O 	O 	0.7507	0.618	0.8101	-0.32
Mof_Sn	Sn	0.4905	0.246	0.848	0.715
Mof_Sn	Sn	0.3482	0.6484	0.9359	0.727
Mof_Sn	Sn	0.6926	0.6146	0.9324	0.724
Mof_P 	P 	0.4834	0.4479	0.9072	0.466
Mof_P 	P 	0.7496	0.1951	0.7566	0.463
Mof_O 	O 	0.6603	0.2685	0.7864	-0.334
Mof_O 	O 	0.8877	0.2348	0.752	-0.317
Mof_O 	O 	0.4629	0.3843	0.8415	-0.311
Mof_O 	O 	0.5291	0.6843	0.8949	-0.368
Mof_O 	O 	0.3731	0.515	0.904	-0.341
Mof_O 	O 	0.7084	0.1658	0.6812	-0.347
Mof_O 	O 	0.4782	0.3947	0.9787	-0.415
Mof_O 	O 	0.6155	0.4913	0.8973	-0.339
Mof_O 	O 	0.7493	0.118	0.8101	-0.321
Mof_Sn	Sn	0.5095	0.746	0.652	0.716
Mof_Sn	Sn	0.6518	0.1484	0.5641	0.725
Mof_Sn	Sn	0.3074	0.1146	0.5676	0.722
Mof_P 	P 	0.5166	0.9479	0.5928	0.466
Mof_P 	P 	0.2504	0.6951	0.7434	0.463
Mof_O 	O 	0.3397	0.7685	0.7136	-0.334
Mof_O 	O 	0.1123	0.7348	0.748	-0.317
Mof_O 	O 	0.5371	0.8843	0.6585	-0.31
Mof_O 	O 	0.4709	0.1843	0.6051	-0.368
Mof_O 	O 	0.6269	0.015	0.596	-0.342
Mof_O 	O 	0.2916	0.6658	0.8188	-0.347
Mof_O 	O 	0.5218	0.8947	0.5213	-0.415
Mof_O 	O 	0.3845	0.9913	0.6027	-0.339
Mof_O 	O 	0.2507	0.618	0.6899	-0.32
_end
