data_functionalizedCrystal
_audit_creation_method	'EQeq! by Chris Wilmer'
_symmetry_space_group_name_H-M	'P1'
_symmetry_Int_Tables_number	1
_symmetry_cell_setting	triclinic
loop_
_symmetry_equiv_pos_as_xyz
  x,y,z
_cell_length_a	11.1607
_cell_length_b	11.1607
_cell_length_c	21.978
_cell_angle_alpha	90
_cell_angle_beta	90
_cell_angle_gamma	90
loop_
_atom_site_label
_atom_site_type_symbol
_atom_site_fract_x
_atom_site_fract_y
_atom_site_fract_z
_atom_site_charge
Mof_O 	O 	0.5929	0.1454	0.26015	-0.437
Mof_N 	N 	0.7421	0.1255	0.1907	-0.339
Mof_H 	H 	0.7179	0.0532	0.1806	0.088
Mof_H 	H 	0.8051	0.1571	0.1726	0.138
Mof_C 	C 	0.7235	0.3048	0.249	-0.238
Mof_N 	N 	0.8879	0.4073	0.18797	-0.227
Mof_C 	C 	0.8153	0.3623	0.21696	0.167
Mof_N 	N 	0.6106	0.4149	0.333	-0.281
Mof_C 	C 	0.6628	0.3671	0.2949	0.169
Mof_C 	C 	0.6837	0.1872	0.2331	0.314
Mof_O 	O 	0.0929	0.6454	0.76015	-0.471
Mof_N 	N 	0.2421	0.6255	0.6907	-0.346
Mof_H 	H 	0.2179	0.5532	0.6806	0.132
Mof_H 	H 	0.3051	0.6571	0.6726	0.126
Mof_C 	C 	0.2235	0.8048	0.749	-0.251
Mof_N 	N 	0.3879	0.9073	0.68797	-0.234
Mof_C 	C 	0.3153	0.8623	0.71696	0.176
Mof_N 	N 	0.1106	0.9149	0.833	-0.252
Mof_C 	C 	0.1628	0.8671	0.7949	0.171
Mof_C 	C 	0.1837	0.6872	0.7331	0.327
Mof_O 	O 	0.4071	0.8546	0.26015	-0.349
Mof_N 	N 	0.2579	0.8745	0.1907	-0.354
Mof_H 	H 	0.2821	0.9468	0.1806	0.217
Mof_H 	H 	0.1949	0.8429	0.1726	0.134
Mof_C 	C 	0.2765	0.6952	0.249	-0.25
Mof_N 	N 	0.1121	0.5927	0.18797	-0.322
Mof_C 	C 	0.1847	0.6377	0.21696	0.126
Mof_N 	N 	0.3894	0.5851	0.333	-0.279
Mof_C 	C 	0.3372	0.6329	0.2949	0.164
Mof_C 	C 	0.3163	0.8128	0.2331	0.337
Mof_O 	O 	0.9071	0.3546	0.76015	-0.31
Mof_N 	N 	0.7579	0.3745	0.6907	-0.341
Mof_H 	H 	0.7821	0.4468	0.6806	0.165
Mof_H 	H 	0.6949	0.3429	0.6726	0.132
Mof_C 	C 	0.7765	0.1952	0.749	-0.228
Mof_N 	N 	0.6121	0.0927	0.68797	-0.315
Mof_C 	C 	0.6847	0.1377	0.71696	0.116
Mof_N 	N 	0.8894	0.0851	0.833	-0.249
Mof_C 	C 	0.8372	0.1329	0.7949	0.157
Mof_C 	C 	0.8163	0.3128	0.7331	0.32
Mof_O 	O 	0.1454	0.4071	0.73985	-0.438
Mof_N 	N 	0.1255	0.2579	0.8093	-0.326
Mof_H 	H 	0.0532	0.2821	0.8194	0.074
Mof_H 	H 	0.1571	0.1949	0.8274	0.083
Mof_C 	C 	0.3048	0.2765	0.751	-0.248
Mof_N 	N 	0.4073	0.1121	0.81203	-0.321
Mof_C 	C 	0.3623	0.1847	0.78304	0.111
Mof_N 	N 	0.4149	0.3894	0.667	-0.281
Mof_C 	C 	0.3671	0.3372	0.7051	0.148
Mof_C 	C 	0.1872	0.3163	0.7669	0.287
Mof_O 	O 	0.6454	0.9071	0.23985	-0.307
Mof_N 	N 	0.6255	0.7579	0.3093	-0.343
Mof_H 	H 	0.5532	0.7821	0.3194	0.166
Mof_H 	H 	0.6571	0.6949	0.3274	0.135
Mof_C 	C 	0.8048	0.7765	0.251	-0.224
Mof_N 	N 	0.9073	0.6121	0.31203	-0.231
Mof_C 	C 	0.8623	0.6847	0.28304	0.191
Mof_N 	N 	0.9149	0.8894	0.167	-0.163
Mof_C 	C 	0.8671	0.8372	0.2051	0.238
Mof_C 	C 	0.6872	0.8163	0.2669	0.332
Mof_O 	O 	0.8546	0.5929	0.73985	-0.349
Mof_N 	N 	0.8745	0.7421	0.8093	-0.366
Mof_H 	H 	0.9468	0.7179	0.8194	0.233
Mof_H 	H 	0.8429	0.8051	0.8274	0.188
Mof_C 	C 	0.6952	0.7235	0.751	-0.241
Mof_N 	N 	0.5927	0.8879	0.81203	-0.227
Mof_C 	C 	0.6377	0.8153	0.78304	0.181
Mof_N 	N 	0.5851	0.6106	0.667	-0.278
Mof_C 	C 	0.6329	0.6628	0.7051	0.185
Mof_C 	C 	0.8128	0.6837	0.7669	0.365
Mof_O 	O 	0.3546	0.0929	0.23985	-0.48
Mof_N 	N 	0.3745	0.2421	0.3093	-0.345
Mof_H 	H 	0.4468	0.2179	0.3194	0.132
Mof_H 	H 	0.3429	0.3051	0.3274	0.123
Mof_C 	C 	0.1952	0.2235	0.251	-0.256
Mof_N 	N 	0.0927	0.3879	0.31203	-0.318
Mof_C 	C 	0.1377	0.3153	0.28304	0.098
Mof_N 	N 	0.0851	0.1106	0.167	-0.346
Mof_C 	C 	0.1329	0.1628	0.2051	0.085
Mof_C 	C 	0.3128	0.1837	0.2669	0.314
Mof_O 	O 	0.9071	0.1454	0.48985	-0.335
Mof_N 	N 	0.7579	0.1255	0.5593	-0.328
Mof_H 	H 	0.7821	0.0532	0.5694	0.099
Mof_H 	H 	0.6949	0.1571	0.5774	0.111
Mof_C 	C 	0.7765	0.3048	0.501	-0.227
Mof_N 	N 	0.6121	0.4073	0.56203	-0.287
Mof_C 	C 	0.6847	0.3623	0.53304	0.147
Mof_N 	N 	0.8894	0.4149	0.417	-0.22
Mof_C 	C 	0.8372	0.3671	0.4551	0.19
Mof_C 	C 	0.8163	0.1872	0.5169	0.299
Mof_O 	O 	0.4071	0.6454	0.98985	-0.376
Mof_N 	N 	0.2579	0.6255	0.0593	-0.335
Mof_H 	H 	0.2821	0.5532	0.0694	0.137
Mof_H 	H 	0.1949	0.6571	0.0774	0.106
Mof_C 	C 	0.2765	0.8048	0.001	-0.269
Mof_N 	N 	0.1121	0.9073	0.06203	-0.269
Mof_C 	C 	0.1847	0.8623	0.03304	0.155
Mof_N 	N 	0.3894	0.9149	0.917	-0.226
Mof_C 	C 	0.3372	0.8671	0.9551	0.228
Mof_C 	C 	0.3163	0.6872	0.0169	0.295
Mof_O 	O 	0.0929	0.8546	0.48985	-0.414
Mof_N 	N 	0.2421	0.8745	0.5593	-0.36
Mof_H 	H 	0.2179	0.9468	0.5694	0.21
Mof_H 	H 	0.3051	0.8429	0.5774	0.153
Mof_C 	C 	0.2235	0.6952	0.501	-0.257
Mof_N 	N 	0.3879	0.5927	0.56203	-0.291
Mof_C 	C 	0.3153	0.6377	0.53304	0.144
Mof_N 	N 	0.1106	0.5851	0.417	-0.312
Mof_C 	C 	0.1628	0.6329	0.4551	0.136
Mof_C 	C 	0.1837	0.8128	0.5169	0.345
Mof_O 	O 	0.5929	0.3546	0.98985	-0.383
Mof_N 	N 	0.7421	0.3745	0.0593	-0.347
Mof_H 	H 	0.7179	0.4468	0.0694	0.153
Mof_H 	H 	0.8051	0.3429	0.0774	0.157
Mof_C 	C 	0.7235	0.1952	0.001	-0.263
Mof_N 	N 	0.8879	0.0927	0.06203	-0.257
Mof_C 	C 	0.8153	0.1377	0.03304	0.134
Mof_N 	N 	0.6106	0.0851	0.917	-0.317
Mof_C 	C 	0.6628	0.1329	0.9551	0.164
Mof_C 	C 	0.6837	0.3128	0.0169	0.31
Mof_O 	O 	0.3546	0.4071	0.01015	-0.438
Mof_N 	N 	0.3745	0.2579	0.9407	-0.344
Mof_H 	H 	0.4468	0.2821	0.9306	0.144
Mof_H 	H 	0.3429	0.1949	0.9226	0.106
Mof_C 	C 	0.1952	0.2765	0.999	-0.224
Mof_N 	N 	0.0927	0.1121	0.93797	-0.344
Mof_C 	C 	0.1377	0.1847	0.96696	0.083
Mof_N 	N 	0.0851	0.3894	0.083	-0.307
Mof_C 	C 	0.1329	0.3372	0.0449	0.085
Mof_C 	C 	0.3128	0.3163	0.9831	0.331
Mof_O 	O 	0.8546	0.9071	0.51015	-0.251
Mof_N 	N 	0.8745	0.7579	0.4407	-0.356
Mof_H 	H 	0.9468	0.7821	0.4306	0.241
Mof_H 	H 	0.8429	0.6949	0.4226	0.161
Mof_C 	C 	0.6952	0.7765	0.499	-0.23
Mof_N 	N 	0.5927	0.6121	0.43797	-0.288
Mof_C 	C 	0.6377	0.6847	0.46696	0.161
Mof_N 	N 	0.5851	0.8894	0.583	-0.218
Mof_C 	C 	0.6329	0.8372	0.5449	0.205
Mof_C 	C 	0.8128	0.8163	0.4831	0.349
Mof_O 	O 	0.6454	0.5929	0.01015	-0.432
Mof_N 	N 	0.6255	0.7421	0.9407	-0.358
Mof_H 	H 	0.5532	0.7179	0.9306	0.161
Mof_H 	H 	0.6571	0.8051	0.9226	0.164
Mof_C 	C 	0.8048	0.7235	0.999	-0.211
Mof_N 	N 	0.9073	0.8879	0.93797	-0.17
Mof_C 	C 	0.8623	0.8153	0.96696	0.213
Mof_N 	N 	0.9149	0.6106	0.083	-0.214
Mof_C 	C 	0.8671	0.6628	0.0449	0.189
Mof_C 	C 	0.6872	0.6837	0.9831	0.371
Mof_O 	O 	0.1454	0.0929	0.51015	-0.505
Mof_N 	N 	0.1255	0.2421	0.4407	-0.332
Mof_H 	H 	0.0532	0.2179	0.4306	0.064
Mof_H 	H 	0.1571	0.3051	0.4226	0.102
Mof_C 	C 	0.3048	0.2235	0.499	-0.255
Mof_N 	N 	0.4073	0.3879	0.43797	-0.29
Mof_C 	C 	0.3623	0.3153	0.46696	0.13
Mof_N 	N 	0.4149	0.1106	0.583	-0.315
Mof_C 	C 	0.3671	0.1628	0.5449	0.119
Mof_C 	C 	0.1872	0.1837	0.4831	0.294
Mof_Cu	Cu	0.5	0.5	0.38882	0.865
Mof_Cu	Cu	6.56254e-33	0	0.88882	0.706
Mof_Cu	Cu	0.5	0.5	0.61118	0.866
Mof_Cu	Cu	-1.48437e-33	-2.30526e-33	0.11118	0.702
Mof_Cu	Cu	-6.55428e-33	0.5	0.36118	0.784
Mof_Cu	Cu	0.5	1.84421e-32	0.86118	0.785
Mof_Cu	Cu	-1.28029e-33	0.5	0.13882	0.783
Mof_Cu	Cu	0.5	-9.22103e-33	0.63882	0.784
Mof_Cu	Cu	0.5	0	0.25	0.84
Mof_Cu	Cu	-1.29045e-32	0.5	0.75	0.841
Mof_Cu	Cu	-5.52931e-33	0	0.5	0.757
Mof_Cu	Cu	0.5	0.5	-0	0.912
_end
