# CIF file generated by openbabel 3.1.0, see https://openbabel.org
data_I
_chemical_name_common 'image0'
_cell_length_a 9.048
_cell_length_b 9.465
_cell_length_c 15.584
_cell_angle_alpha 90
_cell_angle_beta 90.79
_cell_angle_gamma 90
_space_group_name_H-M_alt 'P 1'
_space_group_name_Hall 'P 1'
loop_
    _symmetry_equiv_pos_as_xyz
    x,y,z
loop_
    _atom_site_label
    _atom_site_type_symbol
    _atom_site_fract_x
    _atom_site_fract_y
    _atom_site_fract_z
    _atom_site_occupancy
    U1       U        0.24313    0.50567    0.67534    1.000
    O1       O        0.18200    0.61820    0.80490    1.000
    O2       O        0.14410    0.80470    0.88610    1.000
    O3       O        0.37610    0.39380    0.78630    1.000
    O4       O        0.39850    0.20310    0.86640    1.000
    C1       C        0.13290    0.67380    0.87180    1.000
    C2       C        0.06530    0.58610    0.93640    1.000
    C3       C        0.04990    0.43810    0.92460    1.000
    H1       H        0.08280    0.39670    0.87420    1.000
    C4       C        0.98700    0.35520    0.98660    1.000
    H2       H        0.97880    0.25830    0.97760    1.000
    C5       C        0.51140    0.43890    0.08110    1.000
    H3       H        0.51880    0.39820    0.13530    1.000
    C6       C        0.46720    0.35500    0.00970    1.000
    H4       H        0.44600    0.25960    0.01670    1.000
    C7       C        0.45610    0.41740    0.92930    1.000
    C8       C        0.40480    0.33300    0.85670    1.000
    U2       U        0.25687    0.00567    0.82466    1.000
    O5       O        0.31800    0.11820    0.69510    1.000
    O6       O        0.35590    0.30470    0.61390    1.000
    O7       O        0.12390    0.89380    0.71370    1.000
    O8       O        0.10150    0.70310    0.63360    1.000
    C9       C        0.36710    0.17380    0.62820    1.000
    C10      C        0.43470    0.08610    0.56360    1.000
    C11      C        0.45010    0.93810    0.57540    1.000
    H5       H        0.41720    0.89670    0.62580    1.000
    C12      C        0.51300    0.85520    0.51340    1.000
    H6       H        0.52120    0.75830    0.52240    1.000
    C13      C        0.98860    0.93890    0.41890    1.000
    H7       H        0.98120    0.89820    0.36470    1.000
    C14      C        0.03280    0.85500    0.49030    1.000
    H8       H        0.05400    0.75960    0.48330    1.000
    C15      C        0.04390    0.91740    0.57070    1.000
    C16      C        0.09520    0.83300    0.64330    1.000
    U3       U        0.75687    0.49433    0.32466    1.000
    O9       O        0.81800    0.38180    0.19510    1.000
    O10      O        0.85590    0.19530    0.11390    1.000
    O11      O        0.62390    0.60620    0.21370    1.000
    O12      O        0.60150    0.79690    0.13360    1.000
    C17      C        0.86710    0.32620    0.12820    1.000
    C18      C        0.93470    0.41390    0.06360    1.000
    C19      C        0.95010    0.56190    0.07540    1.000
    H9       H        0.91720    0.60330    0.12580    1.000
    C20      C        0.01300    0.64480    0.01340    1.000
    H10      H        0.02120    0.74170    0.02240    1.000
    C21      C        0.48860    0.56110    0.91890    1.000
    H11      H        0.48120    0.60180    0.86470    1.000
    C22      C        0.53280    0.64500    0.99030    1.000
    H12      H        0.55400    0.74040    0.98330    1.000
    C23      C        0.54390    0.58260    0.07070    1.000
    C24      C        0.59520    0.66700    0.14330    1.000
    U4       U        0.74313    0.99433    0.17534    1.000
    O13      O        0.68200    0.88180    0.30490    1.000
    O14      O        0.64410    0.69530    0.38610    1.000
    O15      O        0.87610    0.10620    0.28630    1.000
    O16      O        0.89850    0.29690    0.36640    1.000
    C25      C        0.63290    0.82620    0.37180    1.000
    C26      C        0.56530    0.91390    0.43640    1.000
    C27      C        0.54990    0.06190    0.42460    1.000
    H13      H        0.58280    0.10330    0.37420    1.000
    C28      C        0.48700    0.14480    0.48660    1.000
    H14      H        0.47880    0.24170    0.47760    1.000
    C29      C        0.01140    0.06110    0.58110    1.000
    H15      H        0.01880    0.10180    0.63530    1.000
    C30      C        0.96720    0.14500    0.50970    1.000
    H16      H        0.94600    0.24040    0.51670    1.000
    C31      C        0.95610    0.08260    0.42930    1.000
    C32      C        0.90480    0.16700    0.35670    1.000
