data_functionalizedCrystal
_audit_creation_method	'EQeq! by Chris Wilmer'
_symmetry_space_group_name_H-M	'P1'
_symmetry_Int_Tables_number	1
_symmetry_cell_setting	triclinic
loop_
_symmetry_equiv_pos_as_xyz
  x,y,z
_cell_length_a	14.639
_cell_length_b	14.639
_cell_length_c	20.056
_cell_angle_alpha	90
_cell_angle_beta	90
_cell_angle_gamma	90
loop_
_atom_site_label
_atom_site_type_symbol
_atom_site_fract_x
_atom_site_fract_y
_atom_site_fract_z
_atom_site_charge
Mof_Cu	Cu	0.5	0.5	-0	0.804
Mof_Cu	Cu	-0	0	-0	0.776
Mof_Cu	Cu	-3.3049e-33	0.5	0.5	0.879
Mof_Cu	Cu	0.5	0	0.5	0.879
Mof_Cu	Cu	0.75	0.25	0.75	0.88
Mof_Cu	Cu	0.25	0.75	0.25	0.879
Mof_Cu	Cu	0.25	0.75	0.75	0.881
Mof_Cu	Cu	0.75	0.25	0.25	0.88
Mof_H 	H 	0.5576	0.2106	0.2108	0.058
Mof_H 	H 	0.4468	0.2571	0.1369	0.059
Mof_H 	H 	0.6962	0.5643	0.0279	-0.022
Mof_H 	H 	0.8134	0.526	0.1017	0.061
Mof_H 	H 	0.7951	0.4071	0.1755	0.101
Mof_H 	H 	0.9424	0.2894	0.2108	0.075
Mof_H 	H 	0.0532	0.2429	0.1369	0.016
Mof_H 	H 	0.8038	0.9357	0.0279	-0.035
Mof_H 	H 	0.6866	0.974	0.1017	0.094
Mof_H 	H 	0.7049	0.0929	0.1755	0.085
Mof_H 	H 	0.2894	0.5576	0.7108	0.059
Mof_H 	H 	0.2429	0.4468	0.6369	0.082
Mof_H 	H 	0.9357	0.6962	0.5279	0.006
Mof_H 	H 	0.974	0.8134	0.6017	0.107
Mof_H 	H 	0.0929	0.7951	0.6755	0.091
Mof_H 	H 	0.2106	0.9424	0.7108	0.076
Mof_H 	H 	0.2571	0.0532	0.6369	0.043
Mof_H 	H 	0.5643	0.8038	0.5279	0.022
Mof_H 	H 	0.526	0.6866	0.6017	0.077
Mof_H 	H 	0.4071	0.7049	0.6755	0.103
Mof_H 	H 	0.4424	0.7106	0.2892	0.059
Mof_H 	H 	0.5532	0.7571	0.3631	0.085
Mof_H 	H 	0.3038	0.0643	0.4721	0.058
Mof_H 	H 	0.1866	0.026	0.3983	-0.007
Mof_H 	H 	0.2049	0.9071	0.3245	0.14
Mof_H 	H 	0.0576	0.7894	0.2892	0.054
Mof_H 	H 	0.9468	0.7429	0.3631	0.101
Mof_H 	H 	0.1962	0.4357	0.4721	0.018
Mof_H 	H 	0.3134	0.474	0.3983	0.075
Mof_H 	H 	0.2951	0.5929	0.3245	0.104
Mof_H 	H 	0.7106	0.0576	0.7892	0.054
Mof_H 	H 	0.7571	0.9468	0.8631	0.122
Mof_H 	H 	0.0643	0.1962	0.9721	0.106
Mof_H 	H 	0.026	0.3134	0.8983	0.018
Mof_H 	H 	0.9071	0.2951	0.8245	0.14
Mof_H 	H 	0.7894	0.4424	0.7892	0.06
Mof_H 	H 	0.7429	0.5532	0.8631	0.109
Mof_H 	H 	0.4357	0.3038	0.9721	0.069
Mof_H 	H 	0.474	0.1866	0.8983	0.09
Mof_H 	H 	0.5929	0.2049	0.8245	0.105
Mof_H 	H 	0.4424	0.7894	0.7892	0.06
Mof_H 	H 	0.5532	0.7429	0.8631	0.109
Mof_H 	H 	0.3038	0.4357	0.9721	0.069
Mof_H 	H 	0.1866	0.474	0.8983	0.09
Mof_H 	H 	0.2049	0.5929	0.8245	0.105
Mof_H 	H 	0.0576	0.7106	0.7892	0.054
Mof_H 	H 	0.9468	0.7571	0.8631	0.122
Mof_H 	H 	0.1962	0.0643	0.9721	0.106
Mof_H 	H 	0.3134	0.026	0.8983	0.018
Mof_H 	H 	0.2951	0.9071	0.8245	0.14
Mof_H 	H 	0.7106	0.4424	0.2892	0.059
Mof_H 	H 	0.7571	0.5532	0.3631	0.085
Mof_H 	H 	0.0643	0.3038	0.4721	0.058
Mof_H 	H 	0.026	0.1866	0.3983	-0.007
Mof_H 	H 	0.9071	0.2049	0.3245	0.14
Mof_H 	H 	0.7894	0.0576	0.2892	0.054
Mof_H 	H 	0.7429	0.9468	0.3631	0.101
Mof_H 	H 	0.4357	0.1962	0.4721	0.018
Mof_H 	H 	0.474	0.3134	0.3983	0.075
Mof_H 	H 	0.5929	0.2951	0.3245	0.104
Mof_H 	H 	0.5576	0.2894	0.7108	0.059
Mof_H 	H 	0.4468	0.2429	0.6369	0.082
Mof_H 	H 	0.6962	0.9357	0.5279	0.006
Mof_H 	H 	0.8134	0.974	0.6017	0.107
Mof_H 	H 	0.7951	0.0929	0.6755	0.091
Mof_H 	H 	0.9424	0.2106	0.7108	0.076
Mof_H 	H 	0.0532	0.2571	0.6369	0.043
Mof_H 	H 	0.8038	0.5643	0.5279	0.022
Mof_H 	H 	0.6866	0.526	0.6017	0.077
Mof_H 	H 	0.7049	0.4071	0.6755	0.103
Mof_H 	H 	0.2894	0.9424	0.2108	0.075
Mof_H 	H 	0.2429	0.0532	0.1369	0.016
Mof_H 	H 	0.9357	0.8038	0.0279	-0.035
Mof_H 	H 	0.974	0.6866	0.1017	0.094
Mof_H 	H 	0.0929	0.7049	0.1755	0.085
Mof_H 	H 	0.2106	0.5576	0.2108	0.058
Mof_H 	H 	0.2571	0.4468	0.1369	0.059
Mof_H 	H 	0.5643	0.6962	0.0279	-0.022
Mof_H 	H 	0.526	0.8134	0.1017	0.061
Mof_H 	H 	0.4071	0.7951	0.1755	0.101
Mof_C 	C 	0.5702	0.2611	0.1825	0.078
Mof_C 	C 	0.5031	0.2894	0.1379	0.049
Mof_C 	C 	0.687	0.5157	0.0585	0.065
Mof_C 	C 	0.7578	0.4925	0.1024	-0.017
Mof_C 	C 	0.7473	0.4227	0.1455	-0.057
Mof_C 	C 	0.6655	0.3738	0.1457	0.109
Mof_C 	C 	0.5964	0.4016	0.101	0.134
Mof_C 	C 	0.9298	0.2389	0.1825	0.048
Mof_C 	C 	0.9969	0.2106	0.1379	0.118
Mof_C 	C 	0.813	0.9843	0.0585	0.118
Mof_C 	C 	0.7422	0.0075	0.1024	-0.089
Mof_C 	C 	0.7527	0.0773	0.1455	-0.017
Mof_C 	C 	0.8345	0.1262	0.1457	0.089
Mof_C 	C 	0.9036	0.0984	0.101	0.146
Mof_C 	C 	0.2389	0.5702	0.6825	0.084
Mof_C 	C 	0.2106	0.5031	0.6379	0.058
Mof_C 	C 	0.9843	0.687	0.5585	0.135
Mof_C 	C 	0.0075	0.7578	0.6024	-0.07
Mof_C 	C 	0.0773	0.7473	0.6455	-0.018
Mof_C 	C 	0.1262	0.6655	0.6457	0.093
Mof_C 	C 	0.0984	0.5964	0.601	0.153
Mof_C 	C 	0.2611	0.9298	0.6825	0.058
Mof_C 	C 	0.2894	0.9969	0.6379	0.121
Mof_C 	C 	0.5157	0.813	0.5585	0.079
Mof_C 	C 	0.4925	0.7422	0.6024	-0.005
Mof_C 	C 	0.4227	0.7527	0.6455	-0.052
Mof_C 	C 	0.3738	0.8345	0.6457	0.107
Mof_C 	C 	0.4016	0.9036	0.601	0.153
Mof_C 	C 	0.4298	0.7611	0.3175	0.087
Mof_C 	C 	0.4969	0.7894	0.3621	0.056
Mof_C 	C 	0.313	0.0157	0.4415	-0.057
Mof_C 	C 	0.2422	0.9925	0.3976	0.174
Mof_C 	C 	0.2527	0.9227	0.3545	-0.152
Mof_C 	C 	0.3345	0.8738	0.3543	0.152
Mof_C 	C 	0.4036	0.9016	0.399	0.133
Mof_C 	C 	0.0702	0.7389	0.3175	0.095
Mof_C 	C 	0.0031	0.7106	0.3621	0.033
Mof_C 	C 	0.187	0.4843	0.4415	0.077
Mof_C 	C 	0.2578	0.5075	0.3976	-0.004
Mof_C 	C 	0.2473	0.5773	0.3545	-0.056
Mof_C 	C 	0.1655	0.6262	0.3543	0.111
Mof_C 	C 	0.0964	0.5984	0.399	0.146
Mof_C 	C 	0.7611	0.0702	0.8175	0.101
Mof_C 	C 	0.7894	0.0031	0.8621	0.041
Mof_C 	C 	0.0157	0.187	0.9415	-0.042
Mof_C 	C 	0.9925	0.2578	0.8976	0.179
Mof_C 	C 	0.9227	0.2473	0.8545	-0.139
Mof_C 	C 	0.8738	0.1655	0.8543	0.153
Mof_C 	C 	0.9016	0.0964	0.899	0.156
Mof_C 	C 	0.7389	0.4298	0.8175	0.09
Mof_C 	C 	0.7106	0.4969	0.8621	0.064
Mof_C 	C 	0.4843	0.313	0.9415	0.094
Mof_C 	C 	0.5075	0.2422	0.8976	0.012
Mof_C 	C 	0.5773	0.2527	0.8545	-0.048
Mof_C 	C 	0.6262	0.3345	0.8543	0.112
Mof_C 	C 	0.5984	0.4036	0.899	0.172
Mof_C 	C 	0.4298	0.7389	0.8175	0.09
Mof_C 	C 	0.4969	0.7106	0.8621	0.064
Mof_C 	C 	0.313	0.4843	0.9415	0.094
Mof_C 	C 	0.2422	0.5075	0.8976	0.012
Mof_C 	C 	0.2527	0.5773	0.8545	-0.048
Mof_C 	C 	0.3345	0.6262	0.8543	0.112
Mof_C 	C 	0.4036	0.5984	0.899	0.172
Mof_C 	C 	0.0702	0.7611	0.8175	0.101
Mof_C 	C 	0.0031	0.7894	0.8621	0.041
Mof_C 	C 	0.187	0.0157	0.9415	-0.042
Mof_C 	C 	0.2578	0.9925	0.8976	0.179
Mof_C 	C 	0.2473	0.9227	0.8545	-0.139
Mof_C 	C 	0.1655	0.8738	0.8543	0.153
Mof_C 	C 	0.0964	0.9016	0.899	0.156
Mof_C 	C 	0.7611	0.4298	0.3175	0.087
Mof_C 	C 	0.7894	0.4969	0.3621	0.056
Mof_C 	C 	0.0157	0.313	0.4415	-0.057
Mof_C 	C 	0.9925	0.2422	0.3976	0.174
Mof_C 	C 	0.9227	0.2527	0.3545	-0.152
Mof_C 	C 	0.8738	0.3345	0.3543	0.152
Mof_C 	C 	0.9016	0.4036	0.399	0.133
Mof_C 	C 	0.7389	0.0702	0.3175	0.095
Mof_C 	C 	0.7106	0.0031	0.3621	0.033
Mof_C 	C 	0.4843	0.187	0.4415	0.077
Mof_C 	C 	0.5075	0.2578	0.3976	-0.004
Mof_C 	C 	0.5773	0.2473	0.3545	-0.056
Mof_C 	C 	0.6262	0.1655	0.3543	0.111
Mof_C 	C 	0.5984	0.0964	0.399	0.146
Mof_C 	C 	0.5702	0.2389	0.6825	0.084
Mof_C 	C 	0.5031	0.2106	0.6379	0.058
Mof_C 	C 	0.687	0.9843	0.5585	0.135
Mof_C 	C 	0.7578	0.0075	0.6024	-0.07
Mof_C 	C 	0.7473	0.0773	0.6455	-0.018
Mof_C 	C 	0.6655	0.1262	0.6457	0.093
Mof_C 	C 	0.5964	0.0984	0.601	0.153
Mof_C 	C 	0.9298	0.2611	0.6825	0.058
Mof_C 	C 	0.9969	0.2894	0.6379	0.121
Mof_C 	C 	0.813	0.5157	0.5585	0.079
Mof_C 	C 	0.7422	0.4925	0.6024	-0.005
Mof_C 	C 	0.7527	0.4227	0.6455	-0.052
Mof_C 	C 	0.8345	0.3738	0.6457	0.107
Mof_C 	C 	0.9036	0.4016	0.601	0.153
Mof_C 	C 	0.2389	0.9298	0.1825	0.048
Mof_C 	C 	0.2106	0.9969	0.1379	0.118
Mof_C 	C 	0.9843	0.813	0.0585	0.118
Mof_C 	C 	0.0075	0.7422	0.1024	-0.089
Mof_C 	C 	0.0773	0.7527	0.1455	-0.017
Mof_C 	C 	0.1262	0.8345	0.1457	0.089
Mof_C 	C 	0.0984	0.9036	0.101	0.146
Mof_C 	C 	0.2611	0.5702	0.1825	0.078
Mof_C 	C 	0.2894	0.5031	0.1379	0.049
Mof_C 	C 	0.5157	0.687	0.0585	0.065
Mof_C 	C 	0.4925	0.7578	0.1024	-0.017
Mof_C 	C 	0.4227	0.7473	0.1455	-0.057
Mof_C 	C 	0.3738	0.6655	0.1457	0.109
Mof_C 	C 	0.4016	0.5964	0.101	0.134
Mof_N 	N 	0.6509	0.3016	0.1871	-0.188
Mof_N 	N 	0.5142	0.3596	0.0968	-0.16
Mof_N 	N 	0.6081	0.4725	0.0582	-0.237
Mof_N 	N 	0.8491	0.1984	0.1871	-0.179
Mof_N 	N 	0.9858	0.1404	0.0968	-0.164
Mof_N 	N 	0.8919	0.0275	0.0582	-0.245
Mof_N 	N 	0.1984	0.6509	0.6871	-0.185
Mof_N 	N 	0.1404	0.5142	0.5968	-0.135
Mof_N 	N 	0.0275	0.6081	0.5582	-0.232
Mof_N 	N 	0.3016	0.8491	0.6871	-0.182
Mof_N 	N 	0.3596	0.9858	0.5968	-0.135
Mof_N 	N 	0.4725	0.8919	0.5582	-0.211
Mof_N 	N 	0.3491	0.8016	0.3129	-0.195
Mof_N 	N 	0.4858	0.8596	0.4032	-0.126
Mof_N 	N 	0.3919	0.9725	0.4418	-0.172
Mof_N 	N 	0.1509	0.6984	0.3129	-0.19
Mof_N 	N 	0.0142	0.6404	0.4032	-0.131
Mof_N 	N 	0.1081	0.5275	0.4418	-0.216
Mof_N 	N 	0.8016	0.1509	0.8129	-0.196
Mof_N 	N 	0.8596	0.0142	0.9032	-0.088
Mof_N 	N 	0.9725	0.1081	0.9418	-0.122
Mof_N 	N 	0.6984	0.3491	0.8129	-0.188
Mof_N 	N 	0.6404	0.4858	0.9032	-0.095
Mof_N 	N 	0.5275	0.3919	0.9418	-0.165
Mof_N 	N 	0.3491	0.6984	0.8129	-0.188
Mof_N 	N 	0.4858	0.6404	0.9032	-0.095
Mof_N 	N 	0.3919	0.5275	0.9418	-0.165
Mof_N 	N 	0.1509	0.8016	0.8129	-0.196
Mof_N 	N 	0.0142	0.8596	0.9032	-0.088
Mof_N 	N 	0.1081	0.9725	0.9418	-0.122
Mof_N 	N 	0.8016	0.3491	0.3129	-0.195
Mof_N 	N 	0.8596	0.4858	0.4032	-0.126
Mof_N 	N 	0.9725	0.3919	0.4418	-0.172
Mof_N 	N 	0.6984	0.1509	0.3129	-0.19
Mof_N 	N 	0.6404	0.0142	0.4032	-0.131
Mof_N 	N 	0.5275	0.1081	0.4418	-0.216
Mof_N 	N 	0.6509	0.1984	0.6871	-0.185
Mof_N 	N 	0.5142	0.1404	0.5968	-0.135
Mof_N 	N 	0.6081	0.0275	0.5582	-0.232
Mof_N 	N 	0.8491	0.3016	0.6871	-0.182
Mof_N 	N 	0.9858	0.3596	0.5968	-0.135
Mof_N 	N 	0.8919	0.4725	0.5582	-0.211
Mof_N 	N 	0.1984	0.8491	0.1871	-0.179
Mof_N 	N 	0.1404	0.9858	0.0968	-0.164
Mof_N 	N 	0.0275	0.8919	0.0582	-0.245
Mof_N 	N 	0.3016	0.6509	0.1871	-0.188
Mof_N 	N 	0.3596	0.5142	0.0968	-0.16
Mof_N 	N 	0.4725	0.6081	0.0582	-0.237
Mof_B 	B 	0.75	0.25	-0	2.235
Mof_F 	F 	0.7282	0.1777	0.9557	-0.7
Mof_F 	F 	0.7718	0.3223	0.9557	-0.697
Mof_F 	F 	0.6777	0.2282	0.0443	-0.854
Mof_F 	F 	0.8223	0.2718	0.0443	-0.85
Mof_B 	B 	0.25	0.75	0.5	2.745
Mof_F 	F 	0.3223	0.7282	0.4557	-0.896
Mof_F 	F 	0.1777	0.7718	0.4557	-0.896
Mof_F 	F 	0.2718	0.6777	0.5443	-0.897
Mof_F 	F 	0.2282	0.8223	0.5443	-0.894
Mof_B 	B 	0.25	0.75	-0	2.235
Mof_F 	F 	0.2718	0.8223	0.0443	-0.85
Mof_F 	F 	0.2282	0.6777	0.0443	-0.854
Mof_F 	F 	0.3223	0.7718	0.9557	-0.697
Mof_F 	F 	0.1777	0.7282	0.9557	-0.7
Mof_B 	B 	0.75	0.25	0.5	2.745
Mof_F 	F 	0.6777	0.2718	0.5443	-0.897
Mof_F 	F 	0.8223	0.2282	0.5443	-0.894
Mof_F 	F 	0.7282	0.3223	0.4557	-0.896
Mof_F 	F 	0.7718	0.1777	0.4557	-0.896
Mof_B 	B 	0.5223	0.5223	0.2738	3.638
Mof_F 	F 	0.4347	0.5443	0.2695	-1.211
Mof_F 	F 	0.5443	0.4347	0.2695	-1.211
Mof_F 	F 	0.5735	0.5735	0.3178	-1.119
Mof_F 	F 	0.5525	0.5525	0.2114	-1.023
Mof_B 	B 	0.9777	0.9777	0.2738	3.659
Mof_F 	F 	0.0653	0.9557	0.2695	-1.213
Mof_F 	F 	0.9557	0.0653	0.2695	-1.213
Mof_F 	F 	0.9265	0.9265	0.3178	-1.118
Mof_F 	F 	0.9475	0.9475	0.2114	-1.022
Mof_B 	B 	0.9777	0.5223	0.7738	3.678
Mof_F 	F 	0.9557	0.4347	0.7695	-1.212
Mof_F 	F 	0.0653	0.5443	0.7695	-1.225
Mof_F 	F 	0.9265	0.5735	0.8178	-1.106
Mof_F 	F 	0.9475	0.5525	0.7114	-1.026
Mof_B 	B 	0.5223	0.9777	0.7738	3.678
Mof_F 	F 	0.5443	0.0653	0.7695	-1.225
Mof_F 	F 	0.4347	0.9557	0.7695	-1.212
Mof_F 	F 	0.5735	0.9265	0.8178	-1.106
Mof_F 	F 	0.5525	0.9475	0.7114	-1.026
Mof_B 	B 	0.4777	0.0223	0.2262	3.592
Mof_F 	F 	0.5653	0.0443	0.2305	-1.208
Mof_F 	F 	0.4557	0.9347	0.2305	-1.194
Mof_F 	F 	0.4265	0.0735	0.1822	-1.134
Mof_F 	F 	0.4475	0.0525	0.2886	-1.024
Mof_B 	B 	0.0223	0.4777	0.2262	3.592
Mof_F 	F 	0.9347	0.4557	0.2305	-1.194
Mof_F 	F 	0.0443	0.5653	0.2305	-1.208
Mof_F 	F 	0.0735	0.4265	0.1822	-1.134
Mof_F 	F 	0.0525	0.4475	0.2886	-1.024
Mof_B 	B 	0.0223	0.0223	0.7262	3.505
Mof_F 	F 	0.0443	0.9347	0.7305	-1.166
Mof_F 	F 	0.9347	0.0443	0.7305	-1.166
Mof_F 	F 	0.0735	0.0735	0.6822	-1.107
Mof_F 	F 	0.0525	0.0525	0.7886	-1.019
Mof_B 	B 	0.4777	0.4777	0.7262	3.639
Mof_F 	F 	0.4557	0.5653	0.7305	-1.211
Mof_F 	F 	0.5653	0.4557	0.7305	-1.211
Mof_F 	F 	0.4265	0.4265	0.6822	-1.12
Mof_F 	F 	0.4475	0.4475	0.7886	-1.025
_end
