# CIF file generated by openbabel 3.1.0, see https://openbabel.org
data_I
_chemical_name_common 'image0'
_cell_length_a 29.524
_cell_length_b 11.342
_cell_length_c 23.007
_cell_angle_alpha 90
_cell_angle_beta 90
_cell_angle_gamma 90
_space_group_name_H-M_alt 'P 1'
_space_group_name_Hall 'P 1'
loop_
    _symmetry_equiv_pos_as_xyz
    x,y,z
loop_
    _atom_site_label
    _atom_site_type_symbol
    _atom_site_fract_x
    _atom_site_fract_y
    _atom_site_fract_z
    _atom_site_occupancy
    Cd1      Cd       0.11325    0.55651    0.31050    1.000
    Cd2      Cd       0.06162    0.73467    0.90868    1.000
    C1       C        0.04402    0.53770    0.71760    1.000
    H1       H        0.02230    0.52850    0.74660    1.000
    C2       C        0.08295    0.60610    0.72840    1.000
    C3       C        0.11621    0.61780    0.68590    1.000
    H2       H        0.14170    0.66390    0.69280    1.000
    C4       C        0.11102    0.55960    0.63250    1.000
    C5       C        0.07166    0.49410    0.62230    1.000
    H3       H        0.06800    0.45630    0.58680    1.000
    C6       C        0.03784    0.48420    0.66430    1.000
    C7       C        0.14537    0.56610    0.58560    1.000
    C8       C        0.19148    0.57460    0.59860    1.000
    H4       H        0.20020    0.57860    0.63740    1.000
    C9       C        0.22503    0.57730    0.55580    1.000
    C10      C        0.27411    0.58440    0.57050    1.000
    C11      C        0.35140    0.62580    0.54130    1.000
    C12      C        0.30601    0.61450    0.52820    1.000
    H5       H        0.29640    0.62720    0.49030    1.000
    C13      C        0.35200    0.55250    0.70160    1.000
    C14      C        0.16418    0.56980    0.48370    1.000
    C15      C        0.21093    0.57280    0.49720    1.000
    H6       H        0.23230    0.57180    0.46750    1.000
    C16      C        0.13249    0.56510    0.52710    1.000
    H7       H        0.10190    0.56130    0.51750    1.000
    C17      C        0.14964    0.56990    0.42130    1.000
    C18      C        0.38455    0.66190    0.49460    1.000
    C19      C        0.08820    0.66600    0.78700    1.000
    C20      C        0.99581    0.41570    0.65220    1.000
    O1       O        0.32381    0.54590    0.74203    1.000
    O2       O        0.39376    0.54620    0.71041    1.000
    O3       O        0.17691    0.55310    0.38148    1.000
    O4       O        0.10774    0.58870    0.41046    1.000
    O5       O        0.37193    0.65290    0.44283    1.000
    O6       O        0.42285    0.69810    0.50845    1.000
    O7       O        0.99400    0.35940    0.60484    1.000
    O8       O        0.96448    0.41910    0.68914    1.000
    O9       O        0.11996    0.73970    0.79324    1.000
    O10      O        0.05938    0.64070    0.82444    1.000
    O11      O        0.10870    0.35060    0.32110    1.000
    C21      C        0.28994    0.56400    0.62690    1.000
    H8       H        0.26940    0.54390    0.65590    1.000
    C22      C        0.36678    0.60610    0.59790    1.000
    H9       H        0.39730    0.61480    0.60680    1.000
    C23      C        0.33601    0.57330    0.64060    1.000
    N1       N        0.02900    0.30080    0.38100    1.000
    C24      C        0.99010    0.21710    0.37650    1.000
    H10      H        0.96300    0.25500    0.39020    1.000
    H11      H        0.99610    0.14860    0.39980    1.000
    H12      H        0.98610    0.19410    0.33670    1.000
    C25      C        0.03820    0.36030    0.43660    1.000
    H13      H        0.06020    0.31580    0.45820    1.000
    H14      H        0.01070    0.36600    0.45860    1.000
    H15      H        0.04980    0.43790    0.42920    1.000
    O12      O        0.09280    0.37750    0.33900    1.000
    C26      C        0.06020    0.31260    0.33130    1.000
    C27      C        0.05350    0.26870    0.26920    1.000
    H16      H        0.04320    0.33270    0.24520    1.000
    H17      H        0.03130    0.20690    0.26890    1.000
    H18      H        0.08160    0.23910    0.25430    1.000
    Cd3      Cd       0.38675    0.94349    0.31050    1.000
    Cd4      Cd       0.43838    0.76533    0.90868    1.000
    C28      C        0.45598    0.96230    0.71760    1.000
    H19      H        0.47770    0.97150    0.74660    1.000
    C29      C        0.41705    0.89390    0.72840    1.000
    C30      C        0.38379    0.88220    0.68590    1.000
    H20      H        0.35830    0.83610    0.69280    1.000
    C31      C        0.38898    0.94040    0.63250    1.000
    C32      C        0.42834    0.00590    0.62230    1.000
    H21      H        0.43200    0.04370    0.58680    1.000
    C33      C        0.46216    0.01580    0.66430    1.000
    C34      C        0.35463    0.93390    0.58560    1.000
    C35      C        0.30852    0.92540    0.59860    1.000
    H22      H        0.29980    0.92140    0.63740    1.000
    C36      C        0.27497    0.92270    0.55580    1.000
    C37      C        0.22589    0.91560    0.57050    1.000
    C38      C        0.14860    0.87420    0.54130    1.000
    C39      C        0.19399    0.88550    0.52820    1.000
    H23      H        0.20360    0.87280    0.49030    1.000
    C40      C        0.14800    0.94750    0.70160    1.000
    C41      C        0.33582    0.93020    0.48370    1.000
    C42      C        0.28907    0.92720    0.49720    1.000
    H24      H        0.26770    0.92820    0.46750    1.000
    C43      C        0.36751    0.93490    0.52710    1.000
    H25      H        0.39810    0.93870    0.51750    1.000
    C44      C        0.35036    0.93010    0.42130    1.000
    C45      C        0.11545    0.83810    0.49460    1.000
    C46      C        0.41180    0.83400    0.78700    1.000
    C47      C        0.50419    0.08430    0.65220    1.000
    O13      O        0.17619    0.95410    0.74203    1.000
    O14      O        0.10624    0.95380    0.71041    1.000
    O15      O        0.32309    0.94690    0.38148    1.000
    O16      O        0.39226    0.91130    0.41046    1.000
    O17      O        0.12807    0.84710    0.44283    1.000
    O18      O        0.07715    0.80190    0.50845    1.000
    O19      O        0.50600    0.14060    0.60484    1.000
    O20      O        0.53552    0.08090    0.68914    1.000
    O21      O        0.38004    0.76030    0.79324    1.000
    O22      O        0.44062    0.85930    0.82444    1.000
    O23      O        0.39130    0.14940    0.32110    1.000
    C48      C        0.21006    0.93600    0.62690    1.000
    H26      H        0.23060    0.95610    0.65590    1.000
    C49      C        0.13322    0.89390    0.59790    1.000
    H27      H        0.10270    0.88520    0.60680    1.000
    C50      C        0.16399    0.92670    0.64060    1.000
    N2       N        0.47100    0.19920    0.38100    1.000
    C51      C        0.50990    0.28290    0.37650    1.000
    H28      H        0.53700    0.24500    0.39020    1.000
    H29      H        0.50390    0.35140    0.39980    1.000
    H30      H        0.51390    0.30590    0.33670    1.000
    C52      C        0.46180    0.13970    0.43660    1.000
    H31      H        0.43980    0.18420    0.45820    1.000
    H32      H        0.48930    0.13400    0.45860    1.000
    H33      H        0.45020    0.06210    0.42920    1.000
    O24      O        0.40720    0.12250    0.33900    1.000
    C53      C        0.43980    0.18740    0.33130    1.000
    C54      C        0.44650    0.23130    0.26920    1.000
    H34      H        0.45680    0.16730    0.24520    1.000
    H35      H        0.46870    0.29310    0.26890    1.000
    H36      H        0.41840    0.26090    0.25430    1.000
    Cd5      Cd       0.88675    0.05651    0.18950    1.000
    Cd6      Cd       0.93838    0.23467    0.59132    1.000
    C55      C        0.95598    0.03770    0.78240    1.000
    H37      H        0.97770    0.02850    0.75340    1.000
    C56      C        0.91705    0.10610    0.77160    1.000
    C57      C        0.88379    0.11780    0.81410    1.000
    H38      H        0.85830    0.16390    0.80720    1.000
    C58      C        0.88898    0.05960    0.86750    1.000
    C59      C        0.92834    0.99410    0.87770    1.000
    H39      H        0.93200    0.95630    0.91320    1.000
    C60      C        0.96216    0.98420    0.83570    1.000
    C61      C        0.85463    0.06610    0.91440    1.000
    C62      C        0.80852    0.07460    0.90140    1.000
    H40      H        0.79980    0.07860    0.86260    1.000
    C63      C        0.77497    0.07730    0.94420    1.000
    C64      C        0.72589    0.08440    0.92950    1.000
    C65      C        0.64860    0.12580    0.95870    1.000
    C66      C        0.69399    0.11450    0.97180    1.000
    H41      H        0.70360    0.12720    0.00970    1.000
    C67      C        0.64800    0.05250    0.79840    1.000
    C68      C        0.83582    0.06980    0.01630    1.000
    C69      C        0.78907    0.07280    0.00280    1.000
    H42      H        0.76770    0.07180    0.03250    1.000
    C70      C        0.86751    0.06510    0.97290    1.000
    H43      H        0.89810    0.06130    0.98250    1.000
    C71      C        0.85036    0.06990    0.07870    1.000
    C72      C        0.61545    0.16190    0.00540    1.000
    C73      C        0.91180    0.16600    0.71300    1.000
    C74      C        0.00419    0.91570    0.84780    1.000
    O25      O        0.67619    0.04590    0.75797    1.000
    O26      O        0.60624    0.04620    0.78959    1.000
    O27      O        0.82309    0.05310    0.11852    1.000
    O28      O        0.89226    0.08870    0.08954    1.000
    O29      O        0.62807    0.15290    0.05717    1.000
    O30      O        0.57715    0.19810    0.99155    1.000
    O31      O        0.00600    0.85940    0.89516    1.000
    O32      O        0.03552    0.91910    0.81086    1.000
    O33      O        0.88004    0.23970    0.70676    1.000
    O34      O        0.94062    0.14070    0.67556    1.000
    O35      O        0.89130    0.85060    0.17890    1.000
    C75      C        0.71006    0.06400    0.87310    1.000
    H44      H        0.73060    0.04390    0.84410    1.000
    C76      C        0.63322    0.10610    0.90210    1.000
    H45      H        0.60270    0.11480    0.89320    1.000
    C77      C        0.66399    0.07330    0.85940    1.000
    N3       N        0.97100    0.80080    0.11900    1.000
    C78      C        0.00990    0.71710    0.12350    1.000
    H46      H        0.03700    0.75500    0.10980    1.000
    H47      H        0.00390    0.64860    0.10020    1.000
    H48      H        0.01390    0.69410    0.16330    1.000
    C79      C        0.96180    0.86030    0.06340    1.000
    H49      H        0.93980    0.81580    0.04180    1.000
    H50      H        0.98930    0.86600    0.04140    1.000
    H51      H        0.95020    0.93790    0.07080    1.000
    O36      O        0.90720    0.87750    0.16100    1.000
    C80      C        0.93980    0.81260    0.16870    1.000
    C81      C        0.94650    0.76870    0.23080    1.000
    H52      H        0.95680    0.83270    0.25480    1.000
    H53      H        0.96870    0.70690    0.23110    1.000
    H54      H        0.91840    0.73910    0.24570    1.000
    Cd7      Cd       0.61325    0.44349    0.18950    1.000
    Cd8      Cd       0.56162    0.26533    0.59132    1.000
    C82      C        0.54402    0.46230    0.78240    1.000
    H55      H        0.52230    0.47150    0.75340    1.000
    C83      C        0.58295    0.39390    0.77160    1.000
    C84      C        0.61621    0.38220    0.81410    1.000
    H56      H        0.64170    0.33610    0.80720    1.000
    C85      C        0.61102    0.44040    0.86750    1.000
    C86      C        0.57166    0.50590    0.87770    1.000
    H57      H        0.56800    0.54370    0.91320    1.000
    C87      C        0.53784    0.51580    0.83570    1.000
    C88      C        0.64537    0.43390    0.91440    1.000
    C89      C        0.69148    0.42540    0.90140    1.000
    H58      H        0.70020    0.42140    0.86260    1.000
    C90      C        0.72503    0.42270    0.94420    1.000
    C91      C        0.77411    0.41560    0.92950    1.000
    C92      C        0.85140    0.37420    0.95870    1.000
    C93      C        0.80601    0.38550    0.97180    1.000
    H59      H        0.79640    0.37280    0.00970    1.000
    C94      C        0.85200    0.44750    0.79840    1.000
    C95      C        0.66418    0.43020    0.01630    1.000
    C96      C        0.71093    0.42720    0.00280    1.000
    H60      H        0.73230    0.42820    0.03250    1.000
    C97      C        0.63249    0.43490    0.97290    1.000
    H61      H        0.60190    0.43870    0.98250    1.000
    C98      C        0.64964    0.43010    0.07870    1.000
    C99      C        0.88455    0.33810    0.00540    1.000
    C100     C        0.58820    0.33400    0.71300    1.000
    C101     C        0.49581    0.58430    0.84780    1.000
    O37      O        0.82381    0.45410    0.75797    1.000
    O38      O        0.89376    0.45380    0.78959    1.000
    O39      O        0.67691    0.44690    0.11852    1.000
    O40      O        0.60774    0.41130    0.08954    1.000
    O41      O        0.87193    0.34710    0.05717    1.000
    O42      O        0.92285    0.30190    0.99155    1.000
    O43      O        0.49400    0.64060    0.89516    1.000
    O44      O        0.46448    0.58090    0.81086    1.000
    O45      O        0.61996    0.26030    0.70676    1.000
    O46      O        0.55938    0.35930    0.67556    1.000
    O47      O        0.60870    0.64940    0.17890    1.000
    C102     C        0.78994    0.43600    0.87310    1.000
    H62      H        0.76940    0.45610    0.84410    1.000
    C103     C        0.86678    0.39390    0.90210    1.000
    H63      H        0.89730    0.38520    0.89320    1.000
    C104     C        0.83601    0.42670    0.85940    1.000
    N4       N        0.52900    0.69920    0.11900    1.000
    C105     C        0.49010    0.78290    0.12350    1.000
    H64      H        0.46300    0.74500    0.10980    1.000
    H65      H        0.49610    0.85140    0.10020    1.000
    H66      H        0.48610    0.80590    0.16330    1.000
    C106     C        0.53820    0.63970    0.06340    1.000
    H67      H        0.56020    0.68420    0.04180    1.000
    H68      H        0.51070    0.63400    0.04140    1.000
    H69      H        0.54980    0.56210    0.07080    1.000
    O48      O        0.59280    0.62250    0.16100    1.000
    C107     C        0.56020    0.68740    0.16870    1.000
    C108     C        0.55350    0.73130    0.23080    1.000
    H70      H        0.54320    0.66730    0.25480    1.000
    H71      H        0.53130    0.79310    0.23110    1.000
    H72      H        0.58160    0.76090    0.24570    1.000
    Cd9      Cd       0.88675    0.44349    0.68950    1.000
    Cd10     Cd       0.93838    0.26533    0.09132    1.000
    C109     C        0.95598    0.46230    0.28240    1.000
    H73      H        0.97770    0.47150    0.25340    1.000
    C110     C        0.91705    0.39390    0.27160    1.000
    C111     C        0.88379    0.38220    0.31410    1.000
    H74      H        0.85830    0.33610    0.30720    1.000
    C112     C        0.88898    0.44040    0.36750    1.000
    C113     C        0.92834    0.50590    0.37770    1.000
    H75      H        0.93200    0.54370    0.41320    1.000
    C114     C        0.96216    0.51580    0.33570    1.000
    C115     C        0.85463    0.43390    0.41440    1.000
    C116     C        0.80852    0.42540    0.40140    1.000
    H76      H        0.79980    0.42140    0.36260    1.000
    C117     C        0.77497    0.42270    0.44420    1.000
    C118     C        0.72589    0.41560    0.42950    1.000
    C119     C        0.64860    0.37420    0.45870    1.000
    C120     C        0.69399    0.38550    0.47180    1.000
    H77      H        0.70360    0.37280    0.50970    1.000
    C121     C        0.64800    0.44750    0.29840    1.000
    C122     C        0.83582    0.43020    0.51630    1.000
    C123     C        0.78907    0.42720    0.50280    1.000
    H78      H        0.76770    0.42820    0.53250    1.000
    C124     C        0.86751    0.43490    0.47290    1.000
    H79      H        0.89810    0.43870    0.48250    1.000
    C125     C        0.85036    0.43010    0.57870    1.000
    C126     C        0.61545    0.33810    0.50540    1.000
    C127     C        0.91180    0.33400    0.21300    1.000
    C128     C        0.00419    0.58430    0.34780    1.000
    O49      O        0.67619    0.45410    0.25797    1.000
    O50      O        0.60624    0.45380    0.28959    1.000
    O51      O        0.82309    0.44690    0.61852    1.000
    O52      O        0.89226    0.41130    0.58954    1.000
    O53      O        0.62807    0.34710    0.55717    1.000
    O54      O        0.57715    0.30190    0.49155    1.000
    O55      O        0.00600    0.64060    0.39516    1.000
    O56      O        0.03552    0.58090    0.31086    1.000
    O57      O        0.88004    0.26030    0.20676    1.000
    O58      O        0.94062    0.35930    0.17556    1.000
    O59      O        0.89130    0.64940    0.67890    1.000
    C129     C        0.71006    0.43600    0.37310    1.000
    H80      H        0.73060    0.45610    0.34410    1.000
    C130     C        0.63322    0.39390    0.40210    1.000
    H81      H        0.60270    0.38520    0.39320    1.000
    C131     C        0.66399    0.42670    0.35940    1.000
    N5       N        0.97100    0.69920    0.61900    1.000
    C132     C        0.00990    0.78290    0.62350    1.000
    H82      H        0.03700    0.74500    0.60980    1.000
    H83      H        0.00390    0.85140    0.60020    1.000
    H84      H        0.01390    0.80590    0.66330    1.000
    C133     C        0.96180    0.63970    0.56340    1.000
    H85      H        0.93980    0.68420    0.54180    1.000
    H86      H        0.98930    0.63400    0.54140    1.000
    H87      H        0.95020    0.56210    0.57080    1.000
    O60      O        0.90720    0.62250    0.66100    1.000
    C134     C        0.93980    0.68740    0.66870    1.000
    C135     C        0.94650    0.73130    0.73080    1.000
    H88      H        0.95680    0.66730    0.75480    1.000
    H89      H        0.96870    0.79310    0.73110    1.000
    H90      H        0.91840    0.76090    0.74570    1.000
    Cd11     Cd       0.61325    0.05651    0.68950    1.000
    Cd12     Cd       0.56162    0.23467    0.09132    1.000
    C136     C        0.54402    0.03770    0.28240    1.000
    H91      H        0.52230    0.02850    0.25340    1.000
    C137     C        0.58295    0.10610    0.27160    1.000
    C138     C        0.61621    0.11780    0.31410    1.000
    H92      H        0.64170    0.16390    0.30720    1.000
    C139     C        0.61102    0.05960    0.36750    1.000
    C140     C        0.57166    0.99410    0.37770    1.000
    H93      H        0.56800    0.95630    0.41320    1.000
    C141     C        0.53784    0.98420    0.33570    1.000
    C142     C        0.64537    0.06610    0.41440    1.000
    C143     C        0.69148    0.07460    0.40140    1.000
    H94      H        0.70020    0.07860    0.36260    1.000
    C144     C        0.72503    0.07730    0.44420    1.000
    C145     C        0.77411    0.08440    0.42950    1.000
    C146     C        0.85140    0.12580    0.45870    1.000
    C147     C        0.80601    0.11450    0.47180    1.000
    H95      H        0.79640    0.12720    0.50970    1.000
    C148     C        0.85200    0.05250    0.29840    1.000
    C149     C        0.66418    0.06980    0.51630    1.000
    C150     C        0.71093    0.07280    0.50280    1.000
    H96      H        0.73230    0.07180    0.53250    1.000
    C151     C        0.63249    0.06510    0.47290    1.000
    H97      H        0.60190    0.06130    0.48250    1.000
    C152     C        0.64964    0.06990    0.57870    1.000
    C153     C        0.88455    0.16190    0.50540    1.000
    C154     C        0.58820    0.16600    0.21300    1.000
    C155     C        0.49581    0.91570    0.34780    1.000
    O61      O        0.82381    0.04590    0.25797    1.000
    O62      O        0.89376    0.04620    0.28959    1.000
    O63      O        0.67691    0.05310    0.61852    1.000
    O64      O        0.60774    0.08870    0.58954    1.000
    O65      O        0.87193    0.15290    0.55717    1.000
    O66      O        0.92285    0.19810    0.49155    1.000
    O67      O        0.49400    0.85940    0.39516    1.000
    O68      O        0.46448    0.91910    0.31086    1.000
    O69      O        0.61996    0.23970    0.20676    1.000
    O70      O        0.55938    0.14070    0.17556    1.000
    O71      O        0.60870    0.85060    0.67890    1.000
    C156     C        0.78994    0.06400    0.37310    1.000
    H98      H        0.76940    0.04390    0.34410    1.000
    C157     C        0.86678    0.10610    0.40210    1.000
    H99      H        0.89730    0.11480    0.39320    1.000
    C158     C        0.83601    0.07330    0.35940    1.000
    N6       N        0.52900    0.80080    0.61900    1.000
    C159     C        0.49010    0.71710    0.62350    1.000
    H100     H        0.46300    0.75500    0.60980    1.000
    H101     H        0.49610    0.64860    0.60020    1.000
    H102     H        0.48610    0.69410    0.66330    1.000
    C160     C        0.53820    0.86030    0.56340    1.000
    H103     H        0.56020    0.81580    0.54180    1.000
    H104     H        0.51070    0.86600    0.54140    1.000
    H105     H        0.54980    0.93790    0.57080    1.000
    O72      O        0.59280    0.87750    0.66100    1.000
    C161     C        0.56020    0.81260    0.66870    1.000
    C162     C        0.55350    0.76870    0.73080    1.000
    H106     H        0.54320    0.83270    0.75480    1.000
    H107     H        0.53130    0.70690    0.73110    1.000
    H108     H        0.58160    0.73910    0.74570    1.000
    Cd13     Cd       0.11325    0.94349    0.81050    1.000
    Cd14     Cd       0.06162    0.76533    0.40868    1.000
    C163     C        0.04402    0.96230    0.21760    1.000
    H109     H        0.02230    0.97150    0.24660    1.000
    C164     C        0.08295    0.89390    0.22840    1.000
    C165     C        0.11621    0.88220    0.18590    1.000
    H110     H        0.14170    0.83610    0.19280    1.000
    C166     C        0.11102    0.94040    0.13250    1.000
    C167     C        0.07166    0.00590    0.12230    1.000
    H111     H        0.06800    0.04370    0.08680    1.000
    C168     C        0.03784    0.01580    0.16430    1.000
    C169     C        0.14537    0.93390    0.08560    1.000
    C170     C        0.19148    0.92540    0.09860    1.000
    H112     H        0.20020    0.92140    0.13740    1.000
    C171     C        0.22503    0.92270    0.05580    1.000
    C172     C        0.27411    0.91560    0.07050    1.000
    C173     C        0.35140    0.87420    0.04130    1.000
    C174     C        0.30601    0.88550    0.02820    1.000
    H113     H        0.29640    0.87280    0.99030    1.000
    C175     C        0.35200    0.94750    0.20160    1.000
    C176     C        0.16418    0.93020    0.98370    1.000
    C177     C        0.21093    0.92720    0.99720    1.000
    H114     H        0.23230    0.92820    0.96750    1.000
    C178     C        0.13249    0.93490    0.02710    1.000
    H115     H        0.10190    0.93870    0.01750    1.000
    C179     C        0.14964    0.93010    0.92130    1.000
    C180     C        0.38455    0.83810    0.99460    1.000
    C181     C        0.08820    0.83400    0.28700    1.000
    C182     C        0.99581    0.08430    0.15220    1.000
    O73      O        0.32381    0.95410    0.24203    1.000
    O74      O        0.39376    0.95380    0.21041    1.000
    O75      O        0.17691    0.94690    0.88148    1.000
    O76      O        0.10774    0.91130    0.91046    1.000
    O77      O        0.37193    0.84710    0.94283    1.000
    O78      O        0.42285    0.80190    0.00845    1.000
    O79      O        0.99400    0.14060    0.10484    1.000
    O80      O        0.96448    0.08090    0.18914    1.000
    O81      O        0.11996    0.76030    0.29324    1.000
    O82      O        0.05938    0.85930    0.32444    1.000
    O83      O        0.10870    0.14940    0.82110    1.000
    C183     C        0.28994    0.93600    0.12690    1.000
    H116     H        0.26940    0.95610    0.15590    1.000
    C184     C        0.36678    0.89390    0.09790    1.000
    H117     H        0.39730    0.88520    0.10680    1.000
    C185     C        0.33601    0.92670    0.14060    1.000
    N7       N        0.02900    0.19920    0.88100    1.000
    C186     C        0.99010    0.28290    0.87650    1.000
    H118     H        0.96300    0.24500    0.89020    1.000
    H119     H        0.99610    0.35140    0.89980    1.000
    H120     H        0.98610    0.30590    0.83670    1.000
    C187     C        0.03820    0.13970    0.93660    1.000
    H121     H        0.06020    0.18420    0.95820    1.000
    H122     H        0.01070    0.13400    0.95860    1.000
    H123     H        0.04980    0.06210    0.92920    1.000
    O84      O        0.09280    0.12250    0.83900    1.000
    C188     C        0.06020    0.18740    0.83130    1.000
    C189     C        0.05350    0.23130    0.76920    1.000
    H124     H        0.04320    0.16730    0.74520    1.000
    H125     H        0.03130    0.29310    0.76890    1.000
    H126     H        0.08160    0.26090    0.75430    1.000
    Cd15     Cd       0.38675    0.55651    0.81050    1.000
    Cd16     Cd       0.43838    0.73467    0.40868    1.000
    C190     C        0.45598    0.53770    0.21760    1.000
    H127     H        0.47770    0.52850    0.24660    1.000
    C191     C        0.41705    0.60610    0.22840    1.000
    C192     C        0.38379    0.61780    0.18590    1.000
    H128     H        0.35830    0.66390    0.19280    1.000
    C193     C        0.38898    0.55960    0.13250    1.000
    C194     C        0.42834    0.49410    0.12230    1.000
    H129     H        0.43200    0.45630    0.08680    1.000
    C195     C        0.46216    0.48420    0.16430    1.000
    C196     C        0.35463    0.56610    0.08560    1.000
    C197     C        0.30852    0.57460    0.09860    1.000
    H130     H        0.29980    0.57860    0.13740    1.000
    C198     C        0.27497    0.57730    0.05580    1.000
    C199     C        0.22589    0.58440    0.07050    1.000
    C200     C        0.14860    0.62580    0.04130    1.000
    C201     C        0.19399    0.61450    0.02820    1.000
    H131     H        0.20360    0.62720    0.99030    1.000
    C202     C        0.14800    0.55250    0.20160    1.000
    C203     C        0.33582    0.56980    0.98370    1.000
    C204     C        0.28907    0.57280    0.99720    1.000
    H132     H        0.26770    0.57180    0.96750    1.000
    C205     C        0.36751    0.56510    0.02710    1.000
    H133     H        0.39810    0.56130    0.01750    1.000
    C206     C        0.35036    0.56990    0.92130    1.000
    C207     C        0.11545    0.66190    0.99460    1.000
    C208     C        0.41180    0.66600    0.28700    1.000
    C209     C        0.50419    0.41570    0.15220    1.000
    O85      O        0.17619    0.54590    0.24203    1.000
    O86      O        0.10624    0.54620    0.21041    1.000
    O87      O        0.32309    0.55310    0.88148    1.000
    O88      O        0.39226    0.58870    0.91046    1.000
    O89      O        0.12807    0.65290    0.94283    1.000
    O90      O        0.07715    0.69810    0.00845    1.000
    O91      O        0.50600    0.35940    0.10484    1.000
    O92      O        0.53552    0.41910    0.18914    1.000
    O93      O        0.38004    0.73970    0.29324    1.000
    O94      O        0.44062    0.64070    0.32444    1.000
    O95      O        0.39130    0.35060    0.82110    1.000
    C210     C        0.21006    0.56400    0.12690    1.000
    H134     H        0.23060    0.54390    0.15590    1.000
    C211     C        0.13322    0.60610    0.09790    1.000
    H135     H        0.10270    0.61480    0.10680    1.000
    C212     C        0.16399    0.57330    0.14060    1.000
    N8       N        0.47100    0.30080    0.88100    1.000
    C213     C        0.50990    0.21710    0.87650    1.000
    H136     H        0.53700    0.25500    0.89020    1.000
    H137     H        0.50390    0.14860    0.89980    1.000
    H138     H        0.51390    0.19410    0.83670    1.000
    C214     C        0.46180    0.36030    0.93660    1.000
    H139     H        0.43980    0.31580    0.95820    1.000
    H140     H        0.48930    0.36600    0.95860    1.000
    H141     H        0.45020    0.43790    0.92920    1.000
    O96      O        0.40720    0.37750    0.83900    1.000
    C215     C        0.43980    0.31260    0.83130    1.000
    C216     C        0.44650    0.26870    0.76920    1.000
    H142     H        0.45680    0.33270    0.74520    1.000
    H143     H        0.46870    0.20690    0.76890    1.000
    H144     H        0.41840    0.23910    0.75430    1.000
