data_functionalizedCrystal
_audit_creation_method	'EQeq! by Chris Wilmer'
_symmetry_space_group_name_H-M	'P1'
_symmetry_Int_Tables_number	1
_symmetry_cell_setting	triclinic
loop_
_symmetry_equiv_pos_as_xyz
  x,y,z
_cell_length_a	14.761
_cell_length_b	14.761
_cell_length_c	10.879
_cell_angle_alpha	90
_cell_angle_beta	90
_cell_angle_gamma	90
loop_
_atom_site_label
_atom_site_type_symbol
_atom_site_fract_x
_atom_site_fract_y
_atom_site_fract_z
_atom_site_charge
Mof_O 	O 	0.73448	0.65408	0.15842	-0.348
Mof_O 	O 	0.86232	0.67533	0.05239	-0.367
Mof_N 	N 	0.59723	0.79226	0.16591	-0.394
Mof_C 	C 	0.77784	0.66569	0.06075	0.211
Mof_H 	H 	0.647	0.8102	0.159	0.203
Mof_H 	H 	0.5737	0.7999	0.239	0.149
Mof_O 	O 	0.23448	0.15408	0.65842	-0.348
Mof_O 	O 	0.36232	0.17533	0.55239	-0.367
Mof_N 	N 	0.09723	0.29226	0.66591	-0.394
Mof_C 	C 	0.27784	0.16569	0.56075	0.211
Mof_H 	H 	0.147	0.3102	0.659	0.203
Mof_H 	H 	0.0737	0.2999	0.739	0.149
Mof_O 	O 	0.76552	0.34592	0.65842	-0.348
Mof_O 	O 	0.63768	0.32467	0.55239	-0.367
Mof_N 	N 	0.90277	0.20774	0.66591	-0.394
Mof_C 	C 	0.72216	0.33431	0.56075	0.211
Mof_H 	H 	0.853	0.1898	0.659	0.203
Mof_H 	H 	0.9263	0.2001	0.739	0.149
Mof_O 	O 	0.26552	0.84592	0.15842	-0.348
Mof_O 	O 	0.13768	0.82467	0.05239	-0.367
Mof_N 	N 	0.40277	0.70774	0.16591	-0.394
Mof_C 	C 	0.22216	0.83431	0.06075	0.211
Mof_H 	H 	0.353	0.6898	0.159	0.202
Mof_H 	H 	0.4263	0.7001	0.239	0.148
Mof_O 	O 	0.59592	0.48448	0.40842	-0.349
Mof_O 	O 	0.57467	0.61232	0.30239	-0.368
Mof_N 	N 	0.45774	0.34723	0.41591	-0.395
Mof_C 	C 	0.58431	0.52784	0.31075	0.21
Mof_H 	H 	0.4398	0.397	0.409	0.202
Mof_H 	H 	0.4501	0.3237	0.489	0.148
Mof_O 	O 	0.09592	0.98448	0.90842	-0.349
Mof_O 	O 	0.07467	0.11232	0.80239	-0.368
Mof_N 	N 	0.95774	0.84723	0.91591	-0.395
Mof_C 	C 	0.08431	0.02784	0.81075	0.209
Mof_H 	H 	0.9398	0.897	0.909	0.202
Mof_H 	H 	0.9501	0.8237	0.989	0.148
Mof_O 	O 	0.90408	0.51552	0.90842	-0.349
Mof_O 	O 	0.92533	0.38768	0.80239	-0.368
Mof_N 	N 	0.04226	0.65277	0.91591	-0.395
Mof_C 	C 	0.91569	0.47216	0.81075	0.21
Mof_H 	H 	0.0602	0.603	0.909	0.202
Mof_H 	H 	0.0499	0.6763	0.989	0.149
Mof_O 	O 	0.40408	0.01552	0.40842	-0.349
Mof_O 	O 	0.42533	0.88768	0.30239	-0.368
Mof_N 	N 	0.54226	0.15277	0.41591	-0.395
Mof_C 	C 	0.41569	0.97216	0.31075	0.209
Mof_H 	H 	0.5602	0.103	0.409	0.202
Mof_H 	H 	0.5499	0.1763	0.489	0.148
Mof_O 	O 	0.76552	0.65408	0.84158	-0.349
Mof_O 	O 	0.63768	0.67533	0.94761	-0.368
Mof_N 	N 	0.90277	0.79226	0.83409	-0.395
Mof_C 	C 	0.72216	0.66569	0.93925	0.21
Mof_H 	H 	0.853	0.8102	0.841	0.202
Mof_H 	H 	0.9263	0.7999	0.761	0.148
Mof_O 	O 	0.26552	0.15408	0.34158	-0.349
Mof_O 	O 	0.13768	0.17533	0.44761	-0.368
Mof_N 	N 	0.40277	0.29226	0.33409	-0.395
Mof_C 	C 	0.22216	0.16569	0.43925	0.21
Mof_H 	H 	0.353	0.3102	0.341	0.202
Mof_H 	H 	0.4263	0.2999	0.261	0.148
Mof_O 	O 	0.73448	0.34592	0.34158	-0.349
Mof_O 	O 	0.86232	0.32467	0.44761	-0.368
Mof_N 	N 	0.59723	0.20774	0.33409	-0.395
Mof_C 	C 	0.77784	0.33431	0.43925	0.21
Mof_H 	H 	0.647	0.1898	0.341	0.202
Mof_H 	H 	0.5737	0.2001	0.261	0.148
Mof_O 	O 	0.23448	0.84592	0.84158	-0.349
Mof_O 	O 	0.36232	0.82467	0.94761	-0.368
Mof_N 	N 	0.09723	0.70774	0.83409	-0.395
Mof_C 	C 	0.27784	0.83431	0.93925	0.21
Mof_H 	H 	0.147	0.6898	0.841	0.202
Mof_H 	H 	0.0737	0.7001	0.761	0.148
Mof_O 	O 	0.90408	0.48448	0.59158	-0.349
Mof_O 	O 	0.92533	0.61232	0.69761	-0.368
Mof_N 	N 	0.04226	0.34723	0.58409	-0.395
Mof_C 	C 	0.91569	0.52784	0.68925	0.21
Mof_H 	H 	0.0602	0.397	0.591	0.202
Mof_H 	H 	0.0499	0.3237	0.511	0.148
Mof_O 	O 	0.40408	0.98448	0.09158	-0.349
Mof_O 	O 	0.42533	0.11232	0.19761	-0.368
Mof_N 	N 	0.54226	0.84723	0.08409	-0.395
Mof_C 	C 	0.41569	0.02784	0.18925	0.209
Mof_H 	H 	0.5602	0.897	0.091	0.202
Mof_H 	H 	0.5499	0.8237	0.011	0.148
Mof_O 	O 	0.59592	0.51552	0.09158	-0.349
Mof_O 	O 	0.57467	0.38768	0.19761	-0.368
Mof_N 	N 	0.45774	0.65277	0.08409	-0.395
Mof_C 	C 	0.58431	0.47216	0.18925	0.21
Mof_H 	H 	0.4398	0.603	0.091	0.202
Mof_H 	H 	0.4501	0.6763	0.011	0.148
Mof_O 	O 	0.09592	0.01552	0.59158	-0.349
Mof_O 	O 	0.07467	0.88768	0.69761	-0.368
Mof_N 	N 	0.95774	0.15277	0.58409	-0.395
Mof_C 	C 	0.08431	0.97216	0.68925	0.209
Mof_H 	H 	0.9398	0.103	0.591	0.202
Mof_H 	H 	0.9501	0.1763	0.511	0.148
Mof_Ni	Ni	0.59501	0.65499	0.125	1.103
Mof_Ni	Ni	0.09501	0.15499	0.625	1.103
Mof_Ni	Ni	0.90499	0.34501	0.625	1.103
Mof_Ni	Ni	0.40499	0.84501	0.125	1.103
Mof_Ni	Ni	0.59501	0.34501	0.375	1.103
Mof_Ni	Ni	0.09501	0.84501	0.875	1.103
Mof_Ni	Ni	0.90499	0.65499	0.875	1.103
Mof_Ni	Ni	0.40499	0.15499	0.375	1.103
Mof_O 	O 	0.26552	0.34592	0.84158	-0.349
Mof_O 	O 	0.13768	0.32467	0.94761	-0.368
Mof_N 	N 	0.40277	0.20774	0.83409	-0.395
Mof_C 	C 	0.22216	0.33431	0.93925	0.21
Mof_H 	H 	0.353	0.1898	0.841	0.202
Mof_H 	H 	0.4263	0.2001	0.761	0.148
Mof_O 	O 	0.76552	0.84592	0.34158	-0.349
Mof_O 	O 	0.63768	0.82467	0.44761	-0.368
Mof_N 	N 	0.90277	0.70774	0.33409	-0.395
Mof_C 	C 	0.72216	0.83431	0.43925	0.21
Mof_H 	H 	0.853	0.6898	0.341	0.202
Mof_H 	H 	0.9263	0.7001	0.261	0.148
Mof_O 	O 	0.23448	0.65408	0.34158	-0.349
Mof_O 	O 	0.36232	0.67533	0.44761	-0.368
Mof_N 	N 	0.09723	0.79226	0.33409	-0.395
Mof_C 	C 	0.27784	0.66569	0.43925	0.21
Mof_H 	H 	0.147	0.8102	0.341	0.202
Mof_H 	H 	0.0737	0.7999	0.261	0.148
Mof_O 	O 	0.73448	0.15408	0.84158	-0.349
Mof_O 	O 	0.86232	0.17533	0.94761	-0.368
Mof_N 	N 	0.59723	0.29226	0.83409	-0.395
Mof_C 	C 	0.77784	0.16569	0.93925	0.21
Mof_H 	H 	0.647	0.3102	0.841	0.202
Mof_H 	H 	0.5737	0.2999	0.761	0.148
Mof_O 	O 	0.40408	0.51552	0.59158	-0.349
Mof_O 	O 	0.42533	0.38768	0.69761	-0.368
Mof_N 	N 	0.54226	0.65277	0.58409	-0.395
Mof_C 	C 	0.41569	0.47216	0.68925	0.21
Mof_H 	H 	0.5602	0.603	0.591	0.202
Mof_H 	H 	0.5499	0.6763	0.511	0.148
Mof_O 	O 	0.90408	0.01552	0.09158	-0.349
Mof_O 	O 	0.92533	0.88768	0.19761	-0.368
Mof_N 	N 	0.04226	0.15277	0.08409	-0.395
Mof_C 	C 	0.91569	0.97216	0.18925	0.209
Mof_H 	H 	0.0602	0.103	0.091	0.202
Mof_H 	H 	0.0499	0.1763	0.011	0.148
Mof_O 	O 	0.09592	0.48448	0.09158	-0.349
Mof_O 	O 	0.07467	0.61232	0.19761	-0.368
Mof_N 	N 	0.95774	0.34723	0.08409	-0.395
Mof_C 	C 	0.08431	0.52784	0.18925	0.21
Mof_H 	H 	0.9398	0.397	0.091	0.202
Mof_H 	H 	0.9501	0.3237	0.011	0.149
Mof_O 	O 	0.59592	0.98448	0.59158	-0.349
Mof_O 	O 	0.57467	0.11232	0.69761	-0.368
Mof_N 	N 	0.45774	0.84723	0.58409	-0.395
Mof_C 	C 	0.58431	0.02784	0.68925	0.209
Mof_H 	H 	0.4398	0.897	0.591	0.202
Mof_H 	H 	0.4501	0.8237	0.511	0.148
Mof_O 	O 	0.23448	0.34592	0.15842	-0.349
Mof_O 	O 	0.36232	0.32467	0.05239	-0.368
Mof_N 	N 	0.09723	0.20774	0.16591	-0.395
Mof_C 	C 	0.27784	0.33431	0.06075	0.21
Mof_H 	H 	0.147	0.1898	0.159	0.202
Mof_H 	H 	0.0737	0.2001	0.239	0.148
Mof_O 	O 	0.73448	0.84592	0.65842	-0.349
Mof_O 	O 	0.86232	0.82467	0.55239	-0.368
Mof_N 	N 	0.59723	0.70774	0.66591	-0.395
Mof_C 	C 	0.77784	0.83431	0.56075	0.21
Mof_H 	H 	0.647	0.6898	0.659	0.202
Mof_H 	H 	0.5737	0.7001	0.739	0.148
Mof_O 	O 	0.26552	0.65408	0.65842	-0.349
Mof_O 	O 	0.13768	0.67533	0.55239	-0.368
Mof_N 	N 	0.40277	0.79226	0.66591	-0.395
Mof_C 	C 	0.22216	0.66569	0.56075	0.21
Mof_H 	H 	0.353	0.8102	0.659	0.202
Mof_H 	H 	0.4263	0.7999	0.739	0.148
Mof_O 	O 	0.76552	0.15408	0.15842	-0.349
Mof_O 	O 	0.63768	0.17533	0.05239	-0.368
Mof_N 	N 	0.90277	0.29226	0.16591	-0.395
Mof_C 	C 	0.72216	0.16569	0.06075	0.21
Mof_H 	H 	0.853	0.3102	0.159	0.202
Mof_H 	H 	0.9263	0.2999	0.239	0.148
Mof_O 	O 	0.09592	0.51552	0.40842	-0.349
Mof_O 	O 	0.07467	0.38768	0.30239	-0.368
Mof_N 	N 	0.95774	0.65277	0.41591	-0.395
Mof_C 	C 	0.08431	0.47216	0.31075	0.21
Mof_H 	H 	0.9398	0.603	0.409	0.202
Mof_H 	H 	0.9501	0.6763	0.489	0.148
Mof_O 	O 	0.59592	0.01552	0.90842	-0.349
Mof_O 	O 	0.57467	0.88768	0.80239	-0.368
Mof_N 	N 	0.45774	0.15277	0.91591	-0.395
Mof_C 	C 	0.58431	0.97216	0.81075	0.209
Mof_H 	H 	0.4398	0.103	0.909	0.202
Mof_H 	H 	0.4501	0.1763	0.989	0.148
Mof_O 	O 	0.40408	0.48448	0.90842	-0.349
Mof_O 	O 	0.42533	0.61232	0.80239	-0.368
Mof_N 	N 	0.54226	0.34723	0.91591	-0.395
Mof_C 	C 	0.41569	0.52784	0.81075	0.21
Mof_H 	H 	0.5602	0.397	0.909	0.202
Mof_H 	H 	0.5499	0.3237	0.989	0.148
Mof_O 	O 	0.90408	0.98448	0.40842	-0.349
Mof_O 	O 	0.92533	0.11232	0.30239	-0.368
Mof_N 	N 	0.04226	0.84723	0.41591	-0.395
Mof_C 	C 	0.91569	0.02784	0.31075	0.209
Mof_H 	H 	0.0602	0.897	0.409	0.202
Mof_H 	H 	0.0499	0.8237	0.489	0.148
Mof_Ni	Ni	0.40499	0.34501	0.875	1.103
Mof_Ni	Ni	0.90499	0.84501	0.375	1.103
Mof_Ni	Ni	0.09501	0.65499	0.375	1.103
Mof_Ni	Ni	0.59501	0.15499	0.875	1.103
Mof_Ni	Ni	0.40499	0.65499	0.625	1.103
Mof_Ni	Ni	0.90499	0.15499	0.125	1.103
Mof_Ni	Ni	0.09501	0.34501	0.125	1.103
Mof_Ni	Ni	0.59501	0.84501	0.625	1.103
_end
