data_functionalizedCrystal
_audit_creation_method	'EQeq! by Chris Wilmer'
_symmetry_space_group_name_H-M	'P1'
_symmetry_Int_Tables_number	1
_symmetry_cell_setting	triclinic
loop_
_symmetry_equiv_pos_as_xyz
  x,y,z
_cell_length_a	26.1065
_cell_length_b	26.1065
_cell_length_c	26.1065
_cell_angle_alpha	90
_cell_angle_beta	90
_cell_angle_gamma	90
loop_
_atom_site_label
_atom_site_type_symbol
_atom_site_fract_x
_atom_site_fract_y
_atom_site_fract_z
_atom_site_charge
Mof_C 	C 	0.0092	0.8745	0.2527	0.408
Mof_C 	C 	0.0036	0.8815	0.1938	-0.288
Mof_H 	H 	0.0337	0.8668	0.1761	0.115
Mof_H 	H 	0.9725	0.8636	0.1815	0.192
Mof_O 	O 	0.009	0.9139	0.2797	-0.374
Mof_O 	O 	0.0136	0.8297	0.2712	-0.377
Mof_C 	C 	0.0092	0.3745	0.7527	0.419
Mof_C 	C 	0.0036	0.3815	0.6938	-0.292
Mof_H 	H 	0.0337	0.3668	0.6761	0.115
Mof_H 	H 	0.9725	0.3636	0.6815	0.191
Mof_O 	O 	0.009	0.4139	0.7797	-0.427
Mof_O 	O 	0.0136	0.3297	0.7712	-0.382
Mof_C 	C 	0.5092	0.8745	0.7527	0.386
Mof_C 	C 	0.5036	0.8815	0.6938	-0.142
Mof_H 	H 	0.5337	0.8668	0.6761	0.081
Mof_H 	H 	0.4725	0.8636	0.6815	0.085
Mof_O 	O 	0.509	0.9139	0.7797	-0.36
Mof_O 	O 	0.5136	0.8297	0.7712	-0.352
Mof_C 	C 	0.5092	0.3745	0.2527	0.396
Mof_C 	C 	0.5036	0.3815	0.1938	-0.145
Mof_H 	H 	0.5337	0.3668	0.1761	0.081
Mof_H 	H 	0.4725	0.3636	0.1815	0.083
Mof_O 	O 	0.509	0.4139	0.2797	-0.416
Mof_O 	O 	0.5136	0.3297	0.2712	-0.36
Mof_C 	C 	0.2408	0.8755	0.7527	0.386
Mof_C 	C 	0.2464	0.8685	0.6938	-0.141
Mof_H 	H 	0.2163	0.8832	0.6761	0.083
Mof_H 	H 	0.2775	0.8864	0.6815	0.088
Mof_O 	O 	0.241	0.8361	0.7797	-0.406
Mof_O 	O 	0.2364	0.9203	0.7712	-0.311
Mof_C 	C 	0.2408	0.3755	0.2527	0.396
Mof_C 	C 	0.2464	0.3685	0.1938	-0.145
Mof_H 	H 	0.2163	0.3832	0.1761	0.08
Mof_H 	H 	0.2775	0.3864	0.1815	0.083
Mof_O 	O 	0.241	0.3361	0.2797	-0.416
Mof_O 	O 	0.2364	0.4203	0.2712	-0.36
Mof_C 	C 	0.7408	0.8755	0.2527	0.388
Mof_C 	C 	0.7464	0.8685	0.1938	-0.142
Mof_H 	H 	0.7163	0.8832	0.1761	0.084
Mof_H 	H 	0.7775	0.8864	0.1815	0.089
Mof_O 	O 	0.741	0.8361	0.2797	-0.407
Mof_O 	O 	0.7364	0.9203	0.2712	-0.312
Mof_C 	C 	0.7408	0.3755	0.7527	0.397
Mof_C 	C 	0.7464	0.3685	0.6938	-0.146
Mof_H 	H 	0.7163	0.3832	0.6761	0.081
Mof_H 	H 	0.7775	0.3864	0.6815	0.085
Mof_O 	O 	0.741	0.3361	0.7797	-0.412
Mof_O 	O 	0.7364	0.4203	0.7712	-0.358
Mof_C 	C 	0.7408	0.3745	0.9973	0.494
Mof_C 	C 	0.7464	0.3815	0.0562	-0.261
Mof_H 	H 	0.7163	0.3668	0.0739	0.106
Mof_H 	H 	0.7775	0.3636	0.0685	0.109
Mof_O 	O 	0.741	0.4139	0.9703	-0.377
Mof_O 	O 	0.7364	0.3297	0.9788	-0.324
Mof_C 	C 	0.7408	0.8745	0.4973	0.387
Mof_C 	C 	0.7464	0.8815	0.5562	-0.143
Mof_H 	H 	0.7163	0.8668	0.5739	0.081
Mof_H 	H 	0.7775	0.8636	0.5685	0.086
Mof_O 	O 	0.741	0.9139	0.4703	-0.361
Mof_O 	O 	0.7364	0.8297	0.4788	-0.353
Mof_C 	C 	0.2408	0.3745	0.4973	0.396
Mof_C 	C 	0.2464	0.3815	0.5562	-0.145
Mof_H 	H 	0.2163	0.3668	0.5739	0.08
Mof_H 	H 	0.2775	0.3636	0.5685	0.083
Mof_O 	O 	0.241	0.4139	0.4703	-0.416
Mof_O 	O 	0.2364	0.3297	0.4788	-0.36
Mof_C 	C 	0.2408	0.8745	0.9973	0.481
Mof_C 	C 	0.2464	0.8815	0.0562	-0.256
Mof_H 	H 	0.2163	0.8668	0.0739	0.106
Mof_H 	H 	0.2775	0.8636	0.0685	0.109
Mof_O 	O 	0.241	0.9139	0.9703	-0.324
Mof_O 	O 	0.2364	0.8297	0.9788	-0.318
Mof_C 	C 	0.5092	0.3755	0.4973	0.396
Mof_C 	C 	0.5036	0.3685	0.5562	-0.146
Mof_H 	H 	0.5337	0.3832	0.5739	0.081
Mof_H 	H 	0.4725	0.3864	0.5685	0.083
Mof_O 	O 	0.509	0.3361	0.4703	-0.416
Mof_O 	O 	0.5136	0.4203	0.4788	-0.36
Mof_C 	C 	0.5092	0.8755	0.9973	0.481
Mof_C 	C 	0.5036	0.8685	0.0562	-0.255
Mof_H 	H 	0.5337	0.8832	0.0739	0.109
Mof_H 	H 	0.4725	0.8864	0.0685	0.112
Mof_O 	O 	0.509	0.8361	0.9703	-0.371
Mof_O 	O 	0.5136	0.9203	0.9788	-0.278
Mof_C 	C 	0.0092	0.3755	0.9973	0.518
Mof_C 	C 	0.0036	0.3685	0.0562	-0.412
Mof_H 	H 	0.0337	0.3832	0.0739	0.141
Mof_H 	H 	0.9725	0.3864	0.0685	0.218
Mof_O 	O 	0.009	0.3361	0.9703	-0.39
Mof_O 	O 	0.0136	0.4203	0.9788	-0.348
Mof_C 	C 	0.0092	0.8755	0.4973	0.408
Mof_C 	C 	0.0036	0.8685	0.5562	-0.285
Mof_H 	H 	0.0337	0.8832	0.5739	0.117
Mof_H 	H 	0.9725	0.8864	0.5685	0.193
Mof_O 	O 	0.009	0.8361	0.4703	-0.422
Mof_O 	O 	0.0136	0.9203	0.4788	-0.336
Mof_C 	C 	0.2527	0.0092	0.8745	0.408
Mof_C 	C 	0.1938	0.0036	0.8815	-0.288
Mof_H 	H 	0.1761	0.0337	0.8668	0.115
Mof_H 	H 	0.1815	0.9725	0.8636	0.192
Mof_O 	O 	0.2797	0.009	0.9139	-0.374
Mof_O 	O 	0.2712	0.0136	0.8297	-0.377
Mof_C 	C 	0.2527	0.5092	0.3745	0.396
Mof_C 	C 	0.1938	0.5036	0.3815	-0.145
Mof_H 	H 	0.1761	0.5337	0.3668	0.081
Mof_H 	H 	0.1815	0.4725	0.3636	0.083
Mof_O 	O 	0.2797	0.509	0.4139	-0.416
Mof_O 	O 	0.2712	0.5136	0.3297	-0.36
Mof_C 	C 	0.7527	0.0092	0.3745	0.419
Mof_C 	C 	0.6938	0.0036	0.3815	-0.292
Mof_H 	H 	0.6761	0.0337	0.3668	0.115
Mof_H 	H 	0.6815	0.9725	0.3636	0.191
Mof_O 	O 	0.7797	0.009	0.4139	-0.427
Mof_O 	O 	0.7712	0.0136	0.3297	-0.382
Mof_C 	C 	0.7527	0.5092	0.8745	0.386
Mof_C 	C 	0.6938	0.5036	0.8815	-0.142
Mof_H 	H 	0.6761	0.5337	0.8668	0.081
Mof_H 	H 	0.6815	0.4725	0.8636	0.085
Mof_O 	O 	0.7797	0.509	0.9139	-0.36
Mof_O 	O 	0.7712	0.5136	0.8297	-0.352
Mof_C 	C 	0.7527	0.2408	0.8755	0.386
Mof_C 	C 	0.6938	0.2464	0.8685	-0.141
Mof_H 	H 	0.6761	0.2163	0.8832	0.083
Mof_H 	H 	0.6815	0.2775	0.8864	0.088
Mof_O 	O 	0.7797	0.241	0.8361	-0.406
Mof_O 	O 	0.7712	0.2364	0.9203	-0.311
Mof_C 	C 	0.7527	0.7408	0.3755	0.397
Mof_C 	C 	0.6938	0.7464	0.3685	-0.146
Mof_H 	H 	0.6761	0.7163	0.3832	0.081
Mof_H 	H 	0.6815	0.7775	0.3864	0.085
Mof_O 	O 	0.7797	0.741	0.3361	-0.412
Mof_O 	O 	0.7712	0.7364	0.4203	-0.358
Mof_C 	C 	0.2527	0.2408	0.3755	0.396
Mof_C 	C 	0.1938	0.2464	0.3685	-0.145
Mof_H 	H 	0.1761	0.2163	0.3832	0.08
Mof_H 	H 	0.1815	0.2775	0.3864	0.083
Mof_O 	O 	0.2797	0.241	0.3361	-0.416
Mof_O 	O 	0.2712	0.2364	0.4203	-0.36
Mof_C 	C 	0.2527	0.7408	0.8755	0.388
Mof_C 	C 	0.1938	0.7464	0.8685	-0.142
Mof_H 	H 	0.1761	0.7163	0.8832	0.084
Mof_H 	H 	0.1815	0.7775	0.8864	0.089
Mof_O 	O 	0.2797	0.741	0.8361	-0.407
Mof_O 	O 	0.2712	0.7364	0.9203	-0.312
Mof_C 	C 	0.9973	0.7408	0.3745	0.494
Mof_C 	C 	0.0562	0.7464	0.3815	-0.261
Mof_H 	H 	0.0739	0.7163	0.3668	0.106
Mof_H 	H 	0.0685	0.7775	0.3636	0.109
Mof_O 	O 	0.9703	0.741	0.4139	-0.377
Mof_O 	O 	0.9788	0.7364	0.3297	-0.324
Mof_C 	C 	0.9973	0.2408	0.8745	0.481
Mof_C 	C 	0.0562	0.2464	0.8815	-0.256
Mof_H 	H 	0.0739	0.2163	0.8668	0.106
Mof_H 	H 	0.0685	0.2775	0.8636	0.109
Mof_O 	O 	0.9703	0.241	0.9139	-0.324
Mof_O 	O 	0.9788	0.2364	0.8297	-0.318
Mof_C 	C 	0.4973	0.7408	0.8745	0.387
Mof_C 	C 	0.5562	0.7464	0.8815	-0.143
Mof_H 	H 	0.5739	0.7163	0.8668	0.081
Mof_H 	H 	0.5685	0.7775	0.8636	0.086
Mof_O 	O 	0.4703	0.741	0.9139	-0.361
Mof_O 	O 	0.4788	0.7364	0.8297	-0.353
Mof_C 	C 	0.4973	0.2408	0.3745	0.396
Mof_C 	C 	0.5562	0.2464	0.3815	-0.145
Mof_H 	H 	0.5739	0.2163	0.3668	0.08
Mof_H 	H 	0.5685	0.2775	0.3636	0.083
Mof_O 	O 	0.4703	0.241	0.4139	-0.416
Mof_O 	O 	0.4788	0.2364	0.3297	-0.36
Mof_C 	C 	0.4973	0.5092	0.3755	0.396
Mof_C 	C 	0.5562	0.5036	0.3685	-0.146
Mof_H 	H 	0.5739	0.5337	0.3832	0.081
Mof_H 	H 	0.5685	0.4725	0.3864	0.083
Mof_O 	O 	0.4703	0.509	0.3361	-0.416
Mof_O 	O 	0.4788	0.5136	0.4203	-0.36
Mof_C 	C 	0.4973	0.0092	0.8755	0.408
Mof_C 	C 	0.5562	0.0036	0.8685	-0.285
Mof_H 	H 	0.5739	0.0337	0.8832	0.117
Mof_H 	H 	0.5685	0.9725	0.8864	0.193
Mof_O 	O 	0.4703	0.009	0.8361	-0.422
Mof_O 	O 	0.4788	0.0136	0.9203	-0.336
Mof_C 	C 	0.9973	0.5092	0.8755	0.481
Mof_C 	C 	0.0562	0.5036	0.8685	-0.255
Mof_H 	H 	0.0739	0.5337	0.8832	0.109
Mof_H 	H 	0.0685	0.4725	0.8864	0.112
Mof_O 	O 	0.9703	0.509	0.8361	-0.371
Mof_O 	O 	0.9788	0.5136	0.9203	-0.278
Mof_C 	C 	0.9973	0.0092	0.3755	0.518
Mof_C 	C 	0.0562	0.0036	0.3685	-0.412
Mof_H 	H 	0.0739	0.0337	0.3832	0.141
Mof_H 	H 	0.0685	0.9725	0.3864	0.218
Mof_O 	O 	0.9703	0.009	0.3361	-0.39
Mof_O 	O 	0.9788	0.0136	0.4203	-0.348
Mof_C 	C 	0.8745	0.2527	0.0092	0.408
Mof_C 	C 	0.8815	0.1938	0.0036	-0.288
Mof_H 	H 	0.8668	0.1761	0.0337	0.115
Mof_H 	H 	0.8636	0.1815	0.9725	0.192
Mof_O 	O 	0.9139	0.2797	0.009	-0.374
Mof_O 	O 	0.8297	0.2712	0.0136	-0.377
Mof_C 	C 	0.8745	0.7527	0.5092	0.386
Mof_C 	C 	0.8815	0.6938	0.5036	-0.142
Mof_H 	H 	0.8668	0.6761	0.5337	0.081
Mof_H 	H 	0.8636	0.6815	0.4725	0.085
Mof_O 	O 	0.9139	0.7797	0.509	-0.36
Mof_O 	O 	0.8297	0.7712	0.5136	-0.352
Mof_C 	C 	0.3745	0.2527	0.5092	0.396
Mof_C 	C 	0.3815	0.1938	0.5036	-0.145
Mof_H 	H 	0.3668	0.1761	0.5337	0.081
Mof_H 	H 	0.3636	0.1815	0.4725	0.083
Mof_O 	O 	0.4139	0.2797	0.509	-0.416
Mof_O 	O 	0.3297	0.2712	0.5136	-0.36
Mof_C 	C 	0.3745	0.7527	0.0092	0.419
Mof_C 	C 	0.3815	0.6938	0.0036	-0.292
Mof_H 	H 	0.3668	0.6761	0.0337	0.115
Mof_H 	H 	0.3636	0.6815	0.9725	0.191
Mof_O 	O 	0.4139	0.7797	0.009	-0.427
Mof_O 	O 	0.3297	0.7712	0.0136	-0.382
Mof_C 	C 	0.8755	0.7527	0.2408	0.386
Mof_C 	C 	0.8685	0.6938	0.2464	-0.141
Mof_H 	H 	0.8832	0.6761	0.2163	0.083
Mof_H 	H 	0.8864	0.6815	0.2775	0.088
Mof_O 	O 	0.8361	0.7797	0.241	-0.406
Mof_O 	O 	0.9203	0.7712	0.2364	-0.311
Mof_C 	C 	0.8755	0.2527	0.7408	0.388
Mof_C 	C 	0.8685	0.1938	0.7464	-0.142
Mof_H 	H 	0.8832	0.1761	0.7163	0.084
Mof_H 	H 	0.8864	0.1815	0.7775	0.089
Mof_O 	O 	0.8361	0.2797	0.741	-0.407
Mof_O 	O 	0.9203	0.2712	0.7364	-0.312
Mof_C 	C 	0.3755	0.7527	0.7408	0.397
Mof_C 	C 	0.3685	0.6938	0.7464	-0.146
Mof_H 	H 	0.3832	0.6761	0.7163	0.081
Mof_H 	H 	0.3864	0.6815	0.7775	0.085
Mof_O 	O 	0.3361	0.7797	0.741	-0.412
Mof_O 	O 	0.4203	0.7712	0.7364	-0.358
Mof_C 	C 	0.3755	0.2527	0.2408	0.396
Mof_C 	C 	0.3685	0.1938	0.2464	-0.145
Mof_H 	H 	0.3832	0.1761	0.2163	0.08
Mof_H 	H 	0.3864	0.1815	0.2775	0.083
Mof_O 	O 	0.3361	0.2797	0.241	-0.416
Mof_O 	O 	0.4203	0.2712	0.2364	-0.36
Mof_C 	C 	0.3745	0.9973	0.7408	0.494
Mof_C 	C 	0.3815	0.0562	0.7464	-0.261
Mof_H 	H 	0.3668	0.0739	0.7163	0.106
Mof_H 	H 	0.3636	0.0685	0.7775	0.109
Mof_O 	O 	0.4139	0.9703	0.741	-0.377
Mof_O 	O 	0.3297	0.9788	0.7364	-0.324
Mof_C 	C 	0.3745	0.4973	0.2408	0.396
Mof_C 	C 	0.3815	0.5562	0.2464	-0.145
Mof_H 	H 	0.3668	0.5739	0.2163	0.08
Mof_H 	H 	0.3636	0.5685	0.2775	0.083
Mof_O 	O 	0.4139	0.4703	0.241	-0.416
Mof_O 	O 	0.3297	0.4788	0.2364	-0.36
Mof_C 	C 	0.8745	0.9973	0.2408	0.481
Mof_C 	C 	0.8815	0.0562	0.2464	-0.256
Mof_H 	H 	0.8668	0.0739	0.2163	0.106
Mof_H 	H 	0.8636	0.0685	0.2775	0.109
Mof_O 	O 	0.9139	0.9703	0.241	-0.324
Mof_O 	O 	0.8297	0.9788	0.2364	-0.318
Mof_C 	C 	0.8745	0.4973	0.7408	0.387
Mof_C 	C 	0.8815	0.5562	0.7464	-0.143
Mof_H 	H 	0.8668	0.5739	0.7163	0.081
Mof_H 	H 	0.8636	0.5685	0.7775	0.086
Mof_O 	O 	0.9139	0.4703	0.741	-0.361
Mof_O 	O 	0.8297	0.4788	0.7364	-0.353
Mof_C 	C 	0.3755	0.4973	0.5092	0.396
Mof_C 	C 	0.3685	0.5562	0.5036	-0.146
Mof_H 	H 	0.3832	0.5739	0.5337	0.081
Mof_H 	H 	0.3864	0.5685	0.4725	0.083
Mof_O 	O 	0.3361	0.4703	0.509	-0.416
Mof_O 	O 	0.4203	0.4788	0.5136	-0.36
Mof_C 	C 	0.3755	0.9973	0.0092	0.518
Mof_C 	C 	0.3685	0.0562	0.0036	-0.412
Mof_H 	H 	0.3832	0.0739	0.0337	0.141
Mof_H 	H 	0.3864	0.0685	0.9725	0.218
Mof_O 	O 	0.3361	0.9703	0.009	-0.39
Mof_O 	O 	0.4203	0.9788	0.0136	-0.348
Mof_C 	C 	0.8755	0.4973	0.0092	0.408
Mof_C 	C 	0.8685	0.5562	0.0036	-0.285
Mof_H 	H 	0.8832	0.5739	0.0337	0.117
Mof_H 	H 	0.8864	0.5685	0.9725	0.193
Mof_O 	O 	0.8361	0.4703	0.009	-0.422
Mof_O 	O 	0.9203	0.4788	0.0136	-0.336
Mof_C 	C 	0.8755	0.9973	0.5092	0.481
Mof_C 	C 	0.8685	0.0562	0.5036	-0.255
Mof_H 	H 	0.8832	0.0739	0.5337	0.109
Mof_H 	H 	0.8864	0.0685	0.4725	0.112
Mof_O 	O 	0.8361	0.9703	0.509	-0.371
Mof_O 	O 	0.9203	0.9788	0.5136	-0.278
Mof_C 	C 	0.6245	0.2592	0.7473	0.396
Mof_C 	C 	0.6315	0.2536	0.8062	-0.147
Mof_H 	H 	0.6168	0.2837	0.8239	0.083
Mof_H 	H 	0.6136	0.2225	0.8185	0.084
Mof_O 	O 	0.6639	0.259	0.7203	-0.417
Mof_O 	O 	0.5797	0.2636	0.7288	-0.361
Mof_C 	C 	0.6245	0.7592	0.2473	0.397
Mof_C 	C 	0.6315	0.7536	0.3062	-0.147
Mof_H 	H 	0.6168	0.7837	0.3239	0.082
Mof_H 	H 	0.6136	0.7225	0.3185	0.083
Mof_O 	O 	0.6639	0.759	0.2203	-0.417
Mof_O 	O 	0.5797	0.7636	0.2288	-0.361
Mof_C 	C 	0.1245	0.2592	0.2473	0.394
Mof_C 	C 	0.1315	0.2536	0.3062	-0.145
Mof_H 	H 	0.1168	0.2837	0.3239	0.08
Mof_H 	H 	0.1136	0.2225	0.3185	0.082
Mof_O 	O 	0.1639	0.259	0.2203	-0.42
Mof_O 	O 	0.0797	0.2636	0.2288	-0.365
Mof_C 	C 	0.1245	0.7592	0.7473	0.395
Mof_C 	C 	0.1315	0.7536	0.8062	-0.147
Mof_H 	H 	0.1168	0.7837	0.8239	0.084
Mof_H 	H 	0.1136	0.7225	0.8185	0.085
Mof_O 	O 	0.1639	0.759	0.7203	-0.418
Mof_O 	O 	0.0797	0.7636	0.7288	-0.364
Mof_C 	C 	0.6255	0.4908	0.2473	0.396
Mof_C 	C 	0.6185	0.4964	0.3062	-0.146
Mof_H 	H 	0.6332	0.4663	0.3239	0.081
Mof_H 	H 	0.6364	0.5275	0.3185	0.083
Mof_O 	O 	0.5861	0.491	0.2203	-0.417
Mof_O 	O 	0.6703	0.4864	0.2288	-0.362
Mof_C 	C 	0.6255	0.9908	0.7473	0.315
Mof_C 	C 	0.6185	0.9964	0.8062	0.164
Mof_H 	H 	0.6332	0.9663	0.8239	0.012
Mof_H 	H 	0.6364	0.0275	0.8185	-0.057
Mof_O 	O 	0.5861	0.991	0.7203	-0.326
Mof_O 	O 	0.6703	0.9864	0.7288	-0.28
Mof_C 	C 	0.1255	0.4908	0.7473	0.397
Mof_C 	C 	0.1185	0.4964	0.8062	-0.16
Mof_H 	H 	0.1332	0.4663	0.8239	0.087
Mof_H 	H 	0.1364	0.5275	0.8185	0.088
Mof_O 	O 	0.0861	0.491	0.7203	-0.409
Mof_O 	O 	0.1703	0.4864	0.7288	-0.362
Mof_C 	C 	0.1255	0.9908	0.2473	0.312
Mof_C 	C 	0.1185	0.9964	0.3062	0.166
Mof_H 	H 	0.1332	0.9663	0.3239	0.011
Mof_H 	H 	0.1364	0.0275	0.3185	-0.061
Mof_O 	O 	0.0861	0.991	0.2203	-0.317
Mof_O 	O 	0.1703	0.9864	0.2288	-0.279
Mof_C 	C 	0.1245	0.9908	0.0027	0.2
Mof_C 	C 	0.1315	0.9964	0.9438	0.276
Mof_H 	H 	0.1168	0.9663	0.9261	-0.008
Mof_H 	H 	0.1136	0.0275	0.9315	-0.076
Mof_O 	O 	0.1639	0.991	0.0297	-0.308
Mof_O 	O 	0.0797	0.9864	0.0212	-0.27
Mof_C 	C 	0.1245	0.4908	0.5027	0.394
Mof_C 	C 	0.1315	0.4964	0.4438	-0.145
Mof_H 	H 	0.1168	0.4663	0.4261	0.08
Mof_H 	H 	0.1136	0.5275	0.4315	0.083
Mof_O 	O 	0.1639	0.491	0.5297	-0.418
Mof_O 	O 	0.0797	0.4864	0.5212	-0.363
Mof_C 	C 	0.6245	0.9908	0.5027	0.313
Mof_C 	C 	0.6315	0.9964	0.4438	0.172
Mof_H 	H 	0.6168	0.9663	0.4261	0.008
Mof_H 	H 	0.6136	0.0275	0.4315	-0.062
Mof_O 	O 	0.6639	0.991	0.5297	-0.326
Mof_O 	O 	0.5797	0.9864	0.5212	-0.278
Mof_C 	C 	0.6245	0.4908	0.0027	0.282
Mof_C 	C 	0.6315	0.4964	0.9438	-0.035
Mof_H 	H 	0.6168	0.4663	0.9261	0.063
Mof_H 	H 	0.6136	0.5275	0.9315	0.066
Mof_O 	O 	0.6639	0.491	0.0297	-0.399
Mof_O 	O 	0.5797	0.4864	0.0212	-0.349
Mof_C 	C 	0.1255	0.7592	0.5027	0.397
Mof_C 	C 	0.1185	0.7536	0.4438	-0.159
Mof_H 	H 	0.1332	0.7837	0.4261	0.086
Mof_H 	H 	0.1364	0.7225	0.4315	0.086
Mof_O 	O 	0.0861	0.759	0.5297	-0.409
Mof_O 	O 	0.1703	0.7636	0.5212	-0.362
Mof_C 	C 	0.1255	0.2592	0.0027	0.28
Mof_C 	C 	0.1185	0.2536	0.9438	-0.045
Mof_H 	H 	0.1332	0.2837	0.9261	0.067
Mof_H 	H 	0.1364	0.2225	0.9315	0.068
Mof_O 	O 	0.0861	0.259	0.0297	-0.392
Mof_O 	O 	0.1703	0.2636	0.0212	-0.351
Mof_C 	C 	0.6255	0.7592	0.0027	0.284
Mof_C 	C 	0.6185	0.7536	0.9438	-0.037
Mof_H 	H 	0.6332	0.7837	0.9261	0.065
Mof_H 	H 	0.6364	0.7225	0.9315	0.066
Mof_O 	O 	0.5861	0.759	0.0297	-0.399
Mof_O 	O 	0.6703	0.7636	0.0212	-0.35
Mof_C 	C 	0.6255	0.2592	0.5027	0.396
Mof_C 	C 	0.6185	0.2536	0.4438	-0.146
Mof_H 	H 	0.6332	0.2837	0.4261	0.081
Mof_H 	H 	0.6364	0.2225	0.4315	0.082
Mof_O 	O 	0.5861	0.259	0.5297	-0.417
Mof_O 	O 	0.6703	0.2636	0.5212	-0.361
Mof_C 	C 	0.7592	0.5027	0.1255	0.397
Mof_C 	C 	0.7536	0.4438	0.1185	-0.159
Mof_H 	H 	0.7837	0.4261	0.1332	0.086
Mof_H 	H 	0.7225	0.4315	0.1364	0.086
Mof_O 	O 	0.759	0.5297	0.0861	-0.409
Mof_O 	O 	0.7636	0.5212	0.1703	-0.362
Mof_C 	C 	0.7592	0.0027	0.6255	0.284
Mof_C 	C 	0.7536	0.9438	0.6185	-0.037
Mof_H 	H 	0.7837	0.9261	0.6332	0.065
Mof_H 	H 	0.7225	0.9315	0.6364	0.066
Mof_O 	O 	0.759	0.0297	0.5861	-0.399
Mof_O 	O 	0.7636	0.0212	0.6703	-0.35
Mof_C 	C 	0.2592	0.5027	0.6255	0.396
Mof_C 	C 	0.2536	0.4438	0.6185	-0.146
Mof_H 	H 	0.2837	0.4261	0.6332	0.081
Mof_H 	H 	0.2225	0.4315	0.6364	0.082
Mof_O 	O 	0.259	0.5297	0.5861	-0.417
Mof_O 	O 	0.2636	0.5212	0.6703	-0.361
Mof_C 	C 	0.2592	0.0027	0.1255	0.28
Mof_C 	C 	0.2536	0.9438	0.1185	-0.045
Mof_H 	H 	0.2837	0.9261	0.1332	0.067
Mof_H 	H 	0.2225	0.9315	0.1364	0.068
Mof_O 	O 	0.259	0.0297	0.0861	-0.392
Mof_O 	O 	0.2636	0.0212	0.1703	-0.351
Mof_C 	C 	0.9908	0.0027	0.1245	0.2
Mof_C 	C 	0.9964	0.9438	0.1315	0.276
Mof_H 	H 	0.9663	0.9261	0.1168	-0.008
Mof_H 	H 	0.0275	0.9315	0.1136	-0.076
Mof_O 	O 	0.991	0.0297	0.1639	-0.308
Mof_O 	O 	0.9864	0.0212	0.0797	-0.27
Mof_C 	C 	0.9908	0.5027	0.6245	0.313
Mof_C 	C 	0.9964	0.4438	0.6315	0.172
Mof_H 	H 	0.9663	0.4261	0.6168	0.008
Mof_H 	H 	0.0275	0.4315	0.6136	-0.062
Mof_O 	O 	0.991	0.5297	0.6639	-0.326
Mof_O 	O 	0.9864	0.5212	0.5797	-0.278
Mof_C 	C 	0.4908	0.0027	0.6245	0.282
Mof_C 	C 	0.4964	0.9438	0.6315	-0.035
Mof_H 	H 	0.4663	0.9261	0.6168	0.063
Mof_H 	H 	0.5275	0.9315	0.6136	0.066
Mof_O 	O 	0.491	0.0297	0.6639	-0.399
Mof_O 	O 	0.4864	0.0212	0.5797	-0.349
Mof_C 	C 	0.4908	0.5027	0.1245	0.394
Mof_C 	C 	0.4964	0.4438	0.1315	-0.145
Mof_H 	H 	0.4663	0.4261	0.1168	0.08
Mof_H 	H 	0.5275	0.4315	0.1136	0.083
Mof_O 	O 	0.491	0.5297	0.1639	-0.418
Mof_O 	O 	0.4864	0.5212	0.0797	-0.363
Mof_C 	C 	0.4908	0.2473	0.6255	0.396
Mof_C 	C 	0.4964	0.3062	0.6185	-0.146
Mof_H 	H 	0.4663	0.3239	0.6332	0.081
Mof_H 	H 	0.5275	0.3185	0.6364	0.083
Mof_O 	O 	0.491	0.2203	0.5861	-0.417
Mof_O 	O 	0.4864	0.2288	0.6703	-0.362
Mof_C 	C 	0.4908	0.7473	0.1255	0.397
Mof_C 	C 	0.4964	0.8062	0.1185	-0.16
Mof_H 	H 	0.4663	0.8239	0.1332	0.087
Mof_H 	H 	0.5275	0.8185	0.1364	0.088
Mof_O 	O 	0.491	0.7203	0.0861	-0.409
Mof_O 	O 	0.4864	0.7288	0.1703	-0.362
Mof_C 	C 	0.9908	0.2473	0.1255	0.312
Mof_C 	C 	0.9964	0.3062	0.1185	0.166
Mof_H 	H 	0.9663	0.3239	0.1332	0.011
Mof_H 	H 	0.0275	0.3185	0.1364	-0.061
Mof_O 	O 	0.991	0.2203	0.0861	-0.317
Mof_O 	O 	0.9864	0.2288	0.1703	-0.279
Mof_C 	C 	0.9908	0.7473	0.6255	0.315
Mof_C 	C 	0.9964	0.8062	0.6185	0.164
Mof_H 	H 	0.9663	0.8239	0.6332	0.012
Mof_H 	H 	0.0275	0.8185	0.6364	-0.057
Mof_O 	O 	0.991	0.7203	0.5861	-0.326
Mof_O 	O 	0.9864	0.7288	0.6703	-0.28
Mof_C 	C 	0.2592	0.7473	0.6245	0.396
Mof_C 	C 	0.2536	0.8062	0.6315	-0.147
Mof_H 	H 	0.2837	0.8239	0.6168	0.083
Mof_H 	H 	0.2225	0.8185	0.6136	0.084
Mof_O 	O 	0.259	0.7203	0.6639	-0.417
Mof_O 	O 	0.2636	0.7288	0.5797	-0.361
Mof_C 	C 	0.2592	0.2473	0.1245	0.394
Mof_C 	C 	0.2536	0.3062	0.1315	-0.145
Mof_H 	H 	0.2837	0.3239	0.1168	0.08
Mof_H 	H 	0.2225	0.3185	0.1136	0.082
Mof_O 	O 	0.259	0.2203	0.1639	-0.42
Mof_O 	O 	0.2636	0.2288	0.0797	-0.365
Mof_C 	C 	0.7592	0.7473	0.1245	0.395
Mof_C 	C 	0.7536	0.8062	0.1315	-0.147
Mof_H 	H 	0.7837	0.8239	0.1168	0.084
Mof_H 	H 	0.7225	0.8185	0.1136	0.085
Mof_O 	O 	0.759	0.7203	0.1639	-0.418
Mof_O 	O 	0.7636	0.7288	0.0797	-0.364
Mof_C 	C 	0.7592	0.2473	0.6245	0.397
Mof_C 	C 	0.7536	0.3062	0.6315	-0.147
Mof_H 	H 	0.7837	0.3239	0.6168	0.082
Mof_H 	H 	0.7225	0.3185	0.6136	0.083
Mof_O 	O 	0.759	0.2203	0.6639	-0.417
Mof_O 	O 	0.7636	0.2288	0.5797	-0.361
Mof_C 	C 	0.0027	0.1245	0.9908	0.2
Mof_C 	C 	0.9438	0.1315	0.9964	0.276
Mof_H 	H 	0.9261	0.1168	0.9663	-0.008
Mof_H 	H 	0.9315	0.1136	0.0275	-0.076
Mof_O 	O 	0.0297	0.1639	0.991	-0.308
Mof_O 	O 	0.0212	0.0797	0.9864	-0.27
Mof_C 	C 	0.0027	0.6245	0.4908	0.282
Mof_C 	C 	0.9438	0.6315	0.4964	-0.035
Mof_H 	H 	0.9261	0.6168	0.4663	0.063
Mof_H 	H 	0.9315	0.6136	0.5275	0.066
Mof_O 	O 	0.0297	0.6639	0.491	-0.399
Mof_O 	O 	0.0212	0.5797	0.4864	-0.349
Mof_C 	C 	0.5027	0.1245	0.4908	0.394
Mof_C 	C 	0.4438	0.1315	0.4964	-0.145
Mof_H 	H 	0.4261	0.1168	0.4663	0.08
Mof_H 	H 	0.4315	0.1136	0.5275	0.083
Mof_O 	O 	0.5297	0.1639	0.491	-0.418
Mof_O 	O 	0.5212	0.0797	0.4864	-0.363
Mof_C 	C 	0.5027	0.6245	0.9908	0.313
Mof_C 	C 	0.4438	0.6315	0.9964	0.172
Mof_H 	H 	0.4261	0.6168	0.9663	0.008
Mof_H 	H 	0.4315	0.6136	0.0275	-0.062
Mof_O 	O 	0.5297	0.6639	0.991	-0.326
Mof_O 	O 	0.5212	0.5797	0.9864	-0.278
Mof_C 	C 	0.5027	0.1255	0.7592	0.397
Mof_C 	C 	0.4438	0.1185	0.7536	-0.159
Mof_H 	H 	0.4261	0.1332	0.7837	0.086
Mof_H 	H 	0.4315	0.1364	0.7225	0.086
Mof_O 	O 	0.5297	0.0861	0.759	-0.409
Mof_O 	O 	0.5212	0.1703	0.7636	-0.362
Mof_C 	C 	0.5027	0.6255	0.2592	0.396
Mof_C 	C 	0.4438	0.6185	0.2536	-0.146
Mof_H 	H 	0.4261	0.6332	0.2837	0.081
Mof_H 	H 	0.4315	0.6364	0.2225	0.082
Mof_O 	O 	0.5297	0.5861	0.259	-0.417
Mof_O 	O 	0.5212	0.6703	0.2636	-0.361
Mof_C 	C 	0.0027	0.1255	0.2592	0.28
Mof_C 	C 	0.9438	0.1185	0.2536	-0.045
Mof_H 	H 	0.9261	0.1332	0.2837	0.067
Mof_H 	H 	0.9315	0.1364	0.2225	0.068
Mof_O 	O 	0.0297	0.0861	0.259	-0.392
Mof_O 	O 	0.0212	0.1703	0.2636	-0.351
Mof_C 	C 	0.0027	0.6255	0.7592	0.284
Mof_C 	C 	0.9438	0.6185	0.7536	-0.037
Mof_H 	H 	0.9261	0.6332	0.7837	0.065
Mof_H 	H 	0.9315	0.6364	0.7225	0.066
Mof_O 	O 	0.0297	0.5861	0.759	-0.399
Mof_O 	O 	0.0212	0.6703	0.7636	-0.35
Mof_C 	C 	0.7473	0.6245	0.2592	0.396
Mof_C 	C 	0.8062	0.6315	0.2536	-0.147
Mof_H 	H 	0.8239	0.6168	0.2837	0.083
Mof_H 	H 	0.8185	0.6136	0.2225	0.084
Mof_O 	O 	0.7203	0.6639	0.259	-0.417
Mof_O 	O 	0.7288	0.5797	0.2636	-0.361
Mof_C 	C 	0.7473	0.1245	0.7592	0.395
Mof_C 	C 	0.8062	0.1315	0.7536	-0.147
Mof_H 	H 	0.8239	0.1168	0.7837	0.084
Mof_H 	H 	0.8185	0.1136	0.7225	0.085
Mof_O 	O 	0.7203	0.1639	0.759	-0.418
Mof_O 	O 	0.7288	0.0797	0.7636	-0.364
Mof_C 	C 	0.2473	0.6245	0.7592	0.397
Mof_C 	C 	0.3062	0.6315	0.7536	-0.147
Mof_H 	H 	0.3239	0.6168	0.7837	0.082
Mof_H 	H 	0.3185	0.6136	0.7225	0.083
Mof_O 	O 	0.2203	0.6639	0.759	-0.417
Mof_O 	O 	0.2288	0.5797	0.7636	-0.361
Mof_C 	C 	0.2473	0.1245	0.2592	0.394
Mof_C 	C 	0.3062	0.1315	0.2536	-0.145
Mof_H 	H 	0.3239	0.1168	0.2837	0.08
Mof_H 	H 	0.3185	0.1136	0.2225	0.082
Mof_O 	O 	0.2203	0.1639	0.259	-0.42
Mof_O 	O 	0.2288	0.0797	0.2636	-0.365
Mof_C 	C 	0.2473	0.6255	0.4908	0.396
Mof_C 	C 	0.3062	0.6185	0.4964	-0.146
Mof_H 	H 	0.3239	0.6332	0.4663	0.081
Mof_H 	H 	0.3185	0.6364	0.5275	0.083
Mof_O 	O 	0.2203	0.5861	0.491	-0.417
Mof_O 	O 	0.2288	0.6703	0.4864	-0.362
Mof_C 	C 	0.2473	0.1255	0.9908	0.312
Mof_C 	C 	0.3062	0.1185	0.9964	0.166
Mof_H 	H 	0.3239	0.1332	0.9663	0.011
Mof_H 	H 	0.3185	0.1364	0.0275	-0.061
Mof_O 	O 	0.2203	0.0861	0.991	-0.317
Mof_O 	O 	0.2288	0.1703	0.9864	-0.279
Mof_C 	C 	0.7473	0.6255	0.9908	0.315
Mof_C 	C 	0.8062	0.6185	0.9964	0.164
Mof_H 	H 	0.8239	0.6332	0.9663	0.012
Mof_H 	H 	0.8185	0.6364	0.0275	-0.057
Mof_O 	O 	0.7203	0.5861	0.991	-0.326
Mof_O 	O 	0.7288	0.6703	0.9864	-0.28
Mof_C 	C 	0.7473	0.1255	0.4908	0.397
Mof_C 	C 	0.8062	0.1185	0.4964	-0.16
Mof_H 	H 	0.8239	0.1332	0.4663	0.087
Mof_H 	H 	0.8185	0.1364	0.5275	0.088
Mof_O 	O 	0.7203	0.0861	0.491	-0.409
Mof_O 	O 	0.7288	0.1703	0.4864	-0.362
Mof_C 	C 	0.9908	0.1255	0.7473	0.314
Mof_C 	C 	0.9964	0.1185	0.8062	0.157
Mof_H 	H 	0.9663	0.1332	0.8239	0.015
Mof_H 	H 	0.0275	0.1364	0.8185	-0.056
Mof_O 	O 	0.991	0.0861	0.7203	-0.318
Mof_O 	O 	0.9864	0.1703	0.7288	-0.28
Mof_C 	C 	0.9908	0.6255	0.2473	0.312
Mof_C 	C 	0.9964	0.6185	0.3062	0.174
Mof_H 	H 	0.9663	0.6332	0.3239	0.008
Mof_H 	H 	0.0275	0.6364	0.3185	-0.063
Mof_O 	O 	0.991	0.5861	0.2203	-0.325
Mof_O 	O 	0.9864	0.6703	0.2288	-0.279
Mof_C 	C 	0.4908	0.1255	0.2473	0.397
Mof_C 	C 	0.4964	0.1185	0.3062	-0.158
Mof_H 	H 	0.4663	0.1332	0.3239	0.085
Mof_H 	H 	0.5275	0.1364	0.3185	0.086
Mof_O 	O 	0.491	0.0861	0.2203	-0.41
Mof_O 	O 	0.4864	0.1703	0.2288	-0.363
Mof_C 	C 	0.4908	0.6255	0.7473	0.397
Mof_C 	C 	0.4964	0.6185	0.8062	-0.147
Mof_H 	H 	0.4663	0.6332	0.8239	0.083
Mof_H 	H 	0.5275	0.6364	0.8185	0.084
Mof_O 	O 	0.491	0.5861	0.7203	-0.417
Mof_O 	O 	0.4864	0.6703	0.7288	-0.361
Mof_C 	C 	0.7592	0.1245	0.2473	0.395
Mof_C 	C 	0.7536	0.1315	0.3062	-0.146
Mof_H 	H 	0.7837	0.1168	0.3239	0.081
Mof_H 	H 	0.7225	0.1136	0.3185	0.083
Mof_O 	O 	0.759	0.1639	0.2203	-0.419
Mof_O 	O 	0.7636	0.0797	0.2288	-0.364
Mof_C 	C 	0.7592	0.6245	0.7473	0.397
Mof_C 	C 	0.7536	0.6315	0.8062	-0.148
Mof_H 	H 	0.7837	0.6168	0.8239	0.084
Mof_H 	H 	0.7225	0.6136	0.8185	0.085
Mof_O 	O 	0.759	0.6639	0.7203	-0.417
Mof_O 	O 	0.7636	0.5797	0.7288	-0.361
Mof_C 	C 	0.2592	0.1245	0.7473	0.394
Mof_C 	C 	0.2536	0.1315	0.8062	-0.146
Mof_H 	H 	0.2837	0.1168	0.8239	0.082
Mof_H 	H 	0.2225	0.1136	0.8185	0.084
Mof_O 	O 	0.259	0.1639	0.7203	-0.419
Mof_O 	O 	0.2636	0.0797	0.7288	-0.364
Mof_C 	C 	0.2592	0.6245	0.2473	0.396
Mof_C 	C 	0.2536	0.6315	0.3062	-0.146
Mof_H 	H 	0.2837	0.6168	0.3239	0.081
Mof_H 	H 	0.2225	0.6136	0.3185	0.082
Mof_O 	O 	0.259	0.6639	0.2203	-0.418
Mof_O 	O 	0.2636	0.5797	0.2288	-0.362
Mof_C 	C 	0.2592	0.6255	0.0027	0.281
Mof_C 	C 	0.2536	0.6185	0.9438	-0.034
Mof_H 	H 	0.2837	0.6332	0.9261	0.063
Mof_H 	H 	0.2225	0.6364	0.9315	0.065
Mof_O 	O 	0.259	0.5861	0.0297	-0.399
Mof_O 	O 	0.2636	0.6703	0.0212	-0.35
Mof_C 	C 	0.2592	0.1255	0.5027	0.396
Mof_C 	C 	0.2536	0.1185	0.4438	-0.158
Mof_H 	H 	0.2837	0.1332	0.4261	0.085
Mof_H 	H 	0.2225	0.1364	0.4315	0.086
Mof_O 	O 	0.259	0.0861	0.5297	-0.41
Mof_O 	O 	0.2636	0.1703	0.5212	-0.362
Mof_C 	C 	0.7592	0.6255	0.5027	0.397
Mof_C 	C 	0.7536	0.6185	0.4438	-0.147
Mof_H 	H 	0.7837	0.6332	0.4261	0.082
Mof_H 	H 	0.7225	0.6364	0.4315	0.083
Mof_O 	O 	0.759	0.5861	0.5297	-0.416
Mof_O 	O 	0.7636	0.6703	0.5212	-0.361
Mof_C 	C 	0.7592	0.1255	0.0027	0.283
Mof_C 	C 	0.7536	0.1185	0.9438	-0.048
Mof_H 	H 	0.7837	0.1332	0.9261	0.068
Mof_H 	H 	0.7225	0.1364	0.9315	0.069
Mof_O 	O 	0.759	0.0861	0.0297	-0.391
Mof_O 	O 	0.7636	0.1703	0.0212	-0.35
Mof_C 	C 	0.4908	0.6245	0.5027	0.396
Mof_C 	C 	0.4964	0.6315	0.4438	-0.146
Mof_H 	H 	0.4663	0.6168	0.4261	0.081
Mof_H 	H 	0.5275	0.6136	0.4315	0.083
Mof_O 	O 	0.491	0.6639	0.5297	-0.416
Mof_O 	O 	0.4864	0.5797	0.5212	-0.361
Mof_C 	C 	0.4908	0.1245	0.0027	0.279
Mof_C 	C 	0.4964	0.1315	0.9438	-0.032
Mof_H 	H 	0.4663	0.1168	0.9261	0.062
Mof_H 	H 	0.5275	0.1136	0.9315	0.066
Mof_O 	O 	0.491	0.1639	0.0297	-0.4
Mof_O 	O 	0.4864	0.0797	0.0212	-0.352
Mof_C 	C 	0.9908	0.6245	0.0027	0.205
Mof_C 	C 	0.9964	0.6315	0.9438	0.268
Mof_H 	H 	0.9663	0.6168	0.9261	-0.006
Mof_H 	H 	0.0275	0.6136	0.9315	-0.073
Mof_O 	O 	0.991	0.6639	0.0297	-0.309
Mof_O 	O 	0.9864	0.5797	0.0212	-0.268
Mof_C 	C 	0.9908	0.1245	0.5027	0.31
Mof_C 	C 	0.9964	0.1315	0.4438	0.178
Mof_H 	H 	0.9663	0.1168	0.4261	0.006
Mof_H 	H 	0.0275	0.1136	0.4315	-0.064
Mof_O 	O 	0.991	0.1639	0.5297	-0.326
Mof_O 	O 	0.9864	0.0797	0.5212	-0.28
Mof_C 	C 	0.7473	0.9908	0.1255	0.314
Mof_C 	C 	0.8062	0.9964	0.1185	0.157
Mof_H 	H 	0.8239	0.9663	0.1332	0.015
Mof_H 	H 	0.8185	0.0275	0.1364	-0.056
Mof_O 	O 	0.7203	0.991	0.0861	-0.318
Mof_O 	O 	0.7288	0.9864	0.1703	-0.28
Mof_C 	C 	0.7473	0.4908	0.6255	0.397
Mof_C 	C 	0.8062	0.4964	0.6185	-0.147
Mof_H 	H 	0.8239	0.4663	0.6332	0.083
Mof_H 	H 	0.8185	0.5275	0.6364	0.084
Mof_O 	O 	0.7203	0.491	0.5861	-0.417
Mof_O 	O 	0.7288	0.4864	0.6703	-0.361
Mof_C 	C 	0.2473	0.9908	0.6255	0.312
Mof_C 	C 	0.3062	0.9964	0.6185	0.174
Mof_H 	H 	0.3239	0.9663	0.6332	0.008
Mof_H 	H 	0.3185	0.0275	0.6364	-0.063
Mof_O 	O 	0.2203	0.991	0.5861	-0.325
Mof_O 	O 	0.2288	0.9864	0.6703	-0.279
Mof_C 	C 	0.2473	0.4908	0.1255	0.397
Mof_C 	C 	0.3062	0.4964	0.1185	-0.158
Mof_H 	H 	0.3239	0.4663	0.1332	0.085
Mof_H 	H 	0.3185	0.5275	0.1364	0.086
Mof_O 	O 	0.2203	0.491	0.0861	-0.41
Mof_O 	O 	0.2288	0.4864	0.1703	-0.363
Mof_C 	C 	0.2473	0.7592	0.1245	0.395
Mof_C 	C 	0.3062	0.7536	0.1315	-0.146
Mof_H 	H 	0.3239	0.7837	0.1168	0.081
Mof_H 	H 	0.3185	0.7225	0.1136	0.083
Mof_O 	O 	0.2203	0.759	0.1639	-0.419
Mof_O 	O 	0.2288	0.7636	0.0797	-0.364
Mof_C 	C 	0.2473	0.2592	0.6245	0.396
Mof_C 	C 	0.3062	0.2536	0.6315	-0.146
Mof_H 	H 	0.3239	0.2837	0.6168	0.081
Mof_H 	H 	0.3185	0.2225	0.6136	0.082
Mof_O 	O 	0.2203	0.259	0.6639	-0.418
Mof_O 	O 	0.2288	0.2636	0.5797	-0.362
Mof_C 	C 	0.7473	0.7592	0.6245	0.397
Mof_C 	C 	0.8062	0.7536	0.6315	-0.148
Mof_H 	H 	0.8239	0.7837	0.6168	0.084
Mof_H 	H 	0.8185	0.7225	0.6136	0.085
Mof_O 	O 	0.7203	0.759	0.6639	-0.417
Mof_O 	O 	0.7288	0.7636	0.5797	-0.361
Mof_C 	C 	0.7473	0.2592	0.1245	0.394
Mof_C 	C 	0.8062	0.2536	0.1315	-0.146
Mof_H 	H 	0.8239	0.2837	0.1168	0.082
Mof_H 	H 	0.8185	0.2225	0.1136	0.084
Mof_O 	O 	0.7203	0.259	0.1639	-0.419
Mof_O 	O 	0.7288	0.2636	0.0797	-0.364
Mof_C 	C 	0.0027	0.2592	0.6255	0.281
Mof_C 	C 	0.9438	0.2536	0.6185	-0.034
Mof_H 	H 	0.9261	0.2837	0.6332	0.063
Mof_H 	H 	0.9315	0.2225	0.6364	0.065
Mof_O 	O 	0.0297	0.259	0.5861	-0.399
Mof_O 	O 	0.0212	0.2636	0.6703	-0.35
Mof_C 	C 	0.0027	0.7592	0.1255	0.283
Mof_C 	C 	0.9438	0.7536	0.1185	-0.048
Mof_H 	H 	0.9261	0.7837	0.1332	0.068
Mof_H 	H 	0.9315	0.7225	0.1364	0.069
Mof_O 	O 	0.0297	0.759	0.0861	-0.391
Mof_O 	O 	0.0212	0.7636	0.1703	-0.35
Mof_C 	C 	0.5027	0.2592	0.1255	0.396
Mof_C 	C 	0.4438	0.2536	0.1185	-0.158
Mof_H 	H 	0.4261	0.2837	0.1332	0.085
Mof_H 	H 	0.4315	0.2225	0.1364	0.086
Mof_O 	O 	0.5297	0.259	0.0861	-0.41
Mof_O 	O 	0.5212	0.2636	0.1703	-0.362
Mof_C 	C 	0.5027	0.7592	0.6255	0.397
Mof_C 	C 	0.4438	0.7536	0.6185	-0.147
Mof_H 	H 	0.4261	0.7837	0.6332	0.082
Mof_H 	H 	0.4315	0.7225	0.6364	0.083
Mof_O 	O 	0.5297	0.759	0.5861	-0.416
Mof_O 	O 	0.5212	0.7636	0.6703	-0.361
Mof_C 	C 	0.5027	0.4908	0.6245	0.396
Mof_C 	C 	0.4438	0.4964	0.6315	-0.146
Mof_H 	H 	0.4261	0.4663	0.6168	0.081
Mof_H 	H 	0.4315	0.5275	0.6136	0.083
Mof_O 	O 	0.5297	0.491	0.6639	-0.416
Mof_O 	O 	0.5212	0.4864	0.5797	-0.361
Mof_C 	C 	0.5027	0.9908	0.1245	0.31
Mof_C 	C 	0.4438	0.9964	0.1315	0.178
Mof_H 	H 	0.4261	0.9663	0.1168	0.006
Mof_H 	H 	0.4315	0.0275	0.1136	-0.064
Mof_O 	O 	0.5297	0.991	0.1639	-0.326
Mof_O 	O 	0.5212	0.9864	0.0797	-0.28
Mof_C 	C 	0.0027	0.4908	0.1245	0.279
Mof_C 	C 	0.9438	0.4964	0.1315	-0.032
Mof_H 	H 	0.9261	0.4663	0.1168	0.062
Mof_H 	H 	0.9315	0.5275	0.1136	0.066
Mof_O 	O 	0.0297	0.491	0.1639	-0.4
Mof_O 	O 	0.0212	0.4864	0.0797	-0.352
Mof_C 	C 	0.0027	0.9908	0.6245	0.205
Mof_C 	C 	0.9438	0.9964	0.6315	0.268
Mof_H 	H 	0.9261	0.9663	0.6168	-0.006
Mof_H 	H 	0.9315	0.0275	0.6136	-0.073
Mof_O 	O 	0.0297	0.991	0.6639	-0.309
Mof_O 	O 	0.0212	0.9864	0.5797	-0.268
Mof_C 	C 	0.1255	0.7473	0.9908	0.314
Mof_C 	C 	0.1185	0.8062	0.9964	0.157
Mof_H 	H 	0.1332	0.8239	0.9663	0.015
Mof_H 	H 	0.1364	0.8185	0.0275	-0.056
Mof_O 	O 	0.0861	0.7203	0.991	-0.318
Mof_O 	O 	0.1703	0.7288	0.9864	-0.28
Mof_C 	C 	0.1255	0.2473	0.4908	0.397
Mof_C 	C 	0.1185	0.3062	0.4964	-0.158
Mof_H 	H 	0.1332	0.3239	0.4663	0.085
Mof_H 	H 	0.1364	0.3185	0.5275	0.086
Mof_O 	O 	0.0861	0.2203	0.491	-0.41
Mof_O 	O 	0.1703	0.2288	0.4864	-0.363
Mof_C 	C 	0.6255	0.7473	0.4908	0.397
Mof_C 	C 	0.6185	0.8062	0.4964	-0.147
Mof_H 	H 	0.6332	0.8239	0.4663	0.083
Mof_H 	H 	0.6364	0.8185	0.5275	0.084
Mof_O 	O 	0.5861	0.7203	0.491	-0.417
Mof_O 	O 	0.6703	0.7288	0.4864	-0.361
Mof_C 	C 	0.6255	0.2473	0.9908	0.312
Mof_C 	C 	0.6185	0.3062	0.9964	0.174
Mof_H 	H 	0.6332	0.3239	0.9663	0.008
Mof_H 	H 	0.6364	0.3185	0.0275	-0.063
Mof_O 	O 	0.5861	0.2203	0.991	-0.325
Mof_O 	O 	0.6703	0.2288	0.9864	-0.279
Mof_C 	C 	0.1245	0.2473	0.7592	0.395
Mof_C 	C 	0.1315	0.3062	0.7536	-0.146
Mof_H 	H 	0.1168	0.3239	0.7837	0.081
Mof_H 	H 	0.1136	0.3185	0.7225	0.083
Mof_O 	O 	0.1639	0.2203	0.759	-0.419
Mof_O 	O 	0.0797	0.2288	0.7636	-0.364
Mof_C 	C 	0.1245	0.7473	0.2592	0.394
Mof_C 	C 	0.1315	0.8062	0.2536	-0.146
Mof_H 	H 	0.1168	0.8239	0.2837	0.082
Mof_H 	H 	0.1136	0.8185	0.2225	0.084
Mof_O 	O 	0.1639	0.7203	0.259	-0.419
Mof_O 	O 	0.0797	0.7288	0.2636	-0.364
Mof_C 	C 	0.6245	0.2473	0.2592	0.396
Mof_C 	C 	0.6315	0.3062	0.2536	-0.146
Mof_H 	H 	0.6168	0.3239	0.2837	0.081
Mof_H 	H 	0.6136	0.3185	0.2225	0.082
Mof_O 	O 	0.6639	0.2203	0.259	-0.418
Mof_O 	O 	0.5797	0.2288	0.2636	-0.362
Mof_C 	C 	0.6245	0.7473	0.7592	0.397
Mof_C 	C 	0.6315	0.8062	0.7536	-0.148
Mof_H 	H 	0.6168	0.8239	0.7837	0.084
Mof_H 	H 	0.6136	0.8185	0.7225	0.085
Mof_O 	O 	0.6639	0.7203	0.759	-0.417
Mof_O 	O 	0.5797	0.7288	0.7636	-0.361
Mof_C 	C 	0.6255	0.0027	0.2592	0.281
Mof_C 	C 	0.6185	0.9438	0.2536	-0.034
Mof_H 	H 	0.6332	0.9261	0.2837	0.063
Mof_H 	H 	0.6364	0.9315	0.2225	0.065
Mof_O 	O 	0.5861	0.0297	0.259	-0.399
Mof_O 	O 	0.6703	0.0212	0.2636	-0.35
Mof_C 	C 	0.6255	0.5027	0.7592	0.397
Mof_C 	C 	0.6185	0.4438	0.7536	-0.147
Mof_H 	H 	0.6332	0.4261	0.7837	0.082
Mof_H 	H 	0.6364	0.4315	0.7225	0.083
Mof_O 	O 	0.5861	0.5297	0.759	-0.416
Mof_O 	O 	0.6703	0.5212	0.7636	-0.361
Mof_C 	C 	0.1255	0.0027	0.7592	0.283
Mof_C 	C 	0.1185	0.9438	0.7536	-0.048
Mof_H 	H 	0.1332	0.9261	0.7837	0.068
Mof_H 	H 	0.1364	0.9315	0.7225	0.069
Mof_O 	O 	0.0861	0.0297	0.759	-0.391
Mof_O 	O 	0.1703	0.0212	0.7636	-0.35
Mof_C 	C 	0.1255	0.5027	0.2592	0.396
Mof_C 	C 	0.1185	0.4438	0.2536	-0.158
Mof_H 	H 	0.1332	0.4261	0.2837	0.085
Mof_H 	H 	0.1364	0.4315	0.2225	0.086
Mof_O 	O 	0.0861	0.5297	0.259	-0.41
Mof_O 	O 	0.1703	0.5212	0.2636	-0.362
Mof_C 	C 	0.6245	0.5027	0.4908	0.396
Mof_C 	C 	0.6315	0.4438	0.4964	-0.146
Mof_H 	H 	0.6168	0.4261	0.4663	0.081
Mof_H 	H 	0.6136	0.4315	0.5275	0.083
Mof_O 	O 	0.6639	0.5297	0.491	-0.416
Mof_O 	O 	0.5797	0.5212	0.4864	-0.361
Mof_C 	C 	0.6245	0.0027	0.9908	0.205
Mof_C 	C 	0.6315	0.9438	0.9964	0.268
Mof_H 	H 	0.6168	0.9261	0.9663	-0.006
Mof_H 	H 	0.6136	0.9315	0.0275	-0.073
Mof_O 	O 	0.6639	0.0297	0.991	-0.309
Mof_O 	O 	0.5797	0.0212	0.9864	-0.268
Mof_C 	C 	0.1245	0.5027	0.9908	0.31
Mof_C 	C 	0.1315	0.4438	0.9964	0.178
Mof_H 	H 	0.1168	0.4261	0.9663	0.006
Mof_H 	H 	0.1136	0.4315	0.0275	-0.064
Mof_O 	O 	0.1639	0.5297	0.991	-0.326
Mof_O 	O 	0.0797	0.5212	0.9864	-0.28
Mof_C 	C 	0.1245	0.0027	0.4908	0.279
Mof_C 	C 	0.1315	0.9438	0.4964	-0.032
Mof_H 	H 	0.1168	0.9261	0.4663	0.062
Mof_H 	H 	0.1136	0.9315	0.5275	0.066
Mof_O 	O 	0.1639	0.0297	0.491	-0.4
Mof_O 	O 	0.0797	0.0212	0.4864	-0.352
Mof_C 	C 	0.3755	0.7408	0.2527	0.397
Mof_C 	C 	0.3685	0.7464	0.1938	-0.146
Mof_H 	H 	0.3832	0.7163	0.1761	0.081
Mof_H 	H 	0.3864	0.7775	0.1815	0.085
Mof_O 	O 	0.3361	0.741	0.2797	-0.415
Mof_O 	O 	0.4203	0.7364	0.2712	-0.359
Mof_C 	C 	0.3755	0.2408	0.7527	0.396
Mof_C 	C 	0.3685	0.2464	0.6938	-0.145
Mof_H 	H 	0.3832	0.2163	0.6761	0.08
Mof_H 	H 	0.3864	0.2775	0.6815	0.083
Mof_O 	O 	0.3361	0.241	0.7797	-0.413
Mof_O 	O 	0.4203	0.2364	0.7712	-0.358
Mof_C 	C 	0.8755	0.7408	0.7527	0.388
Mof_C 	C 	0.8685	0.7464	0.6938	-0.142
Mof_H 	H 	0.8832	0.7163	0.6761	0.084
Mof_H 	H 	0.8864	0.7775	0.6815	0.089
Mof_O 	O 	0.8361	0.741	0.7797	-0.405
Mof_O 	O 	0.9203	0.7364	0.7712	-0.312
Mof_C 	C 	0.8755	0.2408	0.2527	0.386
Mof_C 	C 	0.8685	0.2464	0.1938	-0.141
Mof_H 	H 	0.8832	0.2163	0.1761	0.083
Mof_H 	H 	0.8864	0.2775	0.1815	0.088
Mof_O 	O 	0.8361	0.241	0.2797	-0.408
Mof_O 	O 	0.9203	0.2364	0.2712	-0.312
Mof_C 	C 	0.3745	0.5092	0.7527	0.396
Mof_C 	C 	0.3815	0.5036	0.6938	-0.146
Mof_H 	H 	0.3668	0.5337	0.6761	0.081
Mof_H 	H 	0.3636	0.4725	0.6815	0.083
Mof_O 	O 	0.4139	0.509	0.7797	-0.414
Mof_O 	O 	0.3297	0.5136	0.7712	-0.358
Mof_C 	C 	0.3745	0.0092	0.2527	0.419
Mof_C 	C 	0.3815	0.0036	0.1938	-0.295
Mof_H 	H 	0.3668	0.0337	0.1761	0.115
Mof_H 	H 	0.3636	0.9725	0.1815	0.193
Mof_O 	O 	0.4139	0.009	0.2797	-0.43
Mof_O 	O 	0.3297	0.0136	0.2712	-0.384
Mof_C 	C 	0.8745	0.5092	0.2527	0.386
Mof_C 	C 	0.8815	0.5036	0.1938	-0.141
Mof_H 	H 	0.8668	0.5337	0.1761	0.081
Mof_H 	H 	0.8636	0.4725	0.1815	0.084
Mof_O 	O 	0.9139	0.509	0.2797	-0.361
Mof_O 	O 	0.8297	0.5136	0.2712	-0.354
Mof_C 	C 	0.8745	0.0092	0.7527	0.408
Mof_C 	C 	0.8815	0.0036	0.6938	-0.285
Mof_H 	H 	0.8668	0.0337	0.6761	0.114
Mof_H 	H 	0.8636	0.9725	0.6815	0.19
Mof_O 	O 	0.9139	0.009	0.7797	-0.373
Mof_O 	O 	0.8297	0.0136	0.7712	-0.375
Mof_C 	C 	0.8755	0.0092	0.9973	0.505
Mof_C 	C 	0.8685	0.0036	0.0562	-0.4
Mof_H 	H 	0.8832	0.0337	0.0739	0.142
Mof_H 	H 	0.8864	0.9725	0.0685	0.219
Mof_O 	O 	0.8361	0.009	0.9703	-0.383
Mof_O 	O 	0.9203	0.0136	0.9788	-0.301
Mof_C 	C 	0.8755	0.5092	0.4973	0.387
Mof_C 	C 	0.8685	0.5036	0.5562	-0.141
Mof_H 	H 	0.8832	0.5337	0.5739	0.084
Mof_H 	H 	0.8864	0.4725	0.5685	0.088
Mof_O 	O 	0.8361	0.509	0.4703	-0.408
Mof_O 	O 	0.9203	0.5136	0.4788	-0.313
Mof_C 	C 	0.3755	0.0092	0.4973	0.419
Mof_C 	C 	0.3685	0.0036	0.5562	-0.294
Mof_H 	H 	0.3832	0.0337	0.5739	0.115
Mof_H 	H 	0.3864	0.9725	0.5685	0.192
Mof_O 	O 	0.3361	0.009	0.4703	-0.43
Mof_O 	O 	0.4203	0.0136	0.4788	-0.384
Mof_C 	C 	0.3755	0.5092	0.9973	0.494
Mof_C 	C 	0.3685	0.5036	0.0562	-0.262
Mof_H 	H 	0.3832	0.5337	0.0739	0.106
Mof_H 	H 	0.3864	0.4725	0.0685	0.108
Mof_O 	O 	0.3361	0.509	0.9703	-0.377
Mof_O 	O 	0.4203	0.5136	0.9788	-0.325
Mof_C 	C 	0.8745	0.2408	0.4973	0.386
Mof_C 	C 	0.8815	0.2464	0.5562	-0.141
Mof_H 	H 	0.8668	0.2163	0.5739	0.08
Mof_H 	H 	0.8636	0.2775	0.5685	0.084
Mof_O 	O 	0.9139	0.241	0.4703	-0.361
Mof_O 	O 	0.8297	0.2364	0.4788	-0.354
Mof_C 	C 	0.8745	0.7408	0.9973	0.481
Mof_C 	C 	0.8815	0.7464	0.0562	-0.254
Mof_H 	H 	0.8668	0.7163	0.0739	0.106
Mof_H 	H 	0.8636	0.7775	0.0685	0.11
Mof_O 	O 	0.9139	0.741	0.9703	-0.325
Mof_O 	O 	0.8297	0.7364	0.9788	-0.318
Mof_C 	C 	0.3745	0.2408	0.9973	0.495
Mof_C 	C 	0.3815	0.2464	0.0562	-0.263
Mof_H 	H 	0.3668	0.2163	0.0739	0.106
Mof_H 	H 	0.3636	0.2775	0.0685	0.108
Mof_O 	O 	0.4139	0.241	0.9703	-0.378
Mof_O 	O 	0.3297	0.2364	0.9788	-0.324
Mof_C 	C 	0.3745	0.7408	0.4973	0.397
Mof_C 	C 	0.3815	0.7464	0.5562	-0.147
Mof_H 	H 	0.3668	0.7163	0.5739	0.081
Mof_H 	H 	0.3636	0.7775	0.5685	0.085
Mof_O 	O 	0.4139	0.741	0.4703	-0.415
Mof_O 	O 	0.3297	0.7364	0.4788	-0.36
Mof_C 	C 	0.2408	0.4973	0.8745	0.386
Mof_C 	C 	0.2464	0.5562	0.8815	-0.141
Mof_H 	H 	0.2163	0.5739	0.8668	0.08
Mof_H 	H 	0.2775	0.5685	0.8636	0.084
Mof_O 	O 	0.241	0.4703	0.9139	-0.361
Mof_O 	O 	0.2364	0.4788	0.8297	-0.354
Mof_C 	C 	0.2408	0.9973	0.3745	0.495
Mof_C 	C 	0.2464	0.0562	0.3815	-0.263
Mof_H 	H 	0.2163	0.0739	0.3668	0.106
Mof_H 	H 	0.2775	0.0685	0.3636	0.108
Mof_O 	O 	0.241	0.9703	0.4139	-0.378
Mof_O 	O 	0.2364	0.9788	0.3297	-0.324
Mof_C 	C 	0.7408	0.4973	0.3745	0.397
Mof_C 	C 	0.7464	0.5562	0.3815	-0.147
Mof_H 	H 	0.7163	0.5739	0.3668	0.081
Mof_H 	H 	0.7775	0.5685	0.3636	0.085
Mof_O 	O 	0.741	0.4703	0.4139	-0.415
Mof_O 	O 	0.7364	0.4788	0.3297	-0.36
Mof_C 	C 	0.7408	0.9973	0.8745	0.481
Mof_C 	C 	0.7464	0.0562	0.8815	-0.254
Mof_H 	H 	0.7163	0.0739	0.8668	0.106
Mof_H 	H 	0.7775	0.0685	0.8636	0.11
Mof_O 	O 	0.741	0.9703	0.9139	-0.325
Mof_O 	O 	0.7364	0.9788	0.8297	-0.318
Mof_C 	C 	0.0092	0.9973	0.8755	0.505
Mof_C 	C 	0.0036	0.0562	0.8685	-0.4
Mof_H 	H 	0.0337	0.0739	0.8832	0.142
Mof_H 	H 	0.9725	0.0685	0.8864	0.219
Mof_O 	O 	0.009	0.9703	0.8361	-0.383
Mof_O 	O 	0.0136	0.9788	0.9203	-0.301
Mof_C 	C 	0.0092	0.4973	0.3755	0.419
Mof_C 	C 	0.0036	0.5562	0.3685	-0.294
Mof_H 	H 	0.0337	0.5739	0.3832	0.115
Mof_H 	H 	0.9725	0.5685	0.3864	0.192
Mof_O 	O 	0.009	0.4703	0.3361	-0.43
Mof_O 	O 	0.0136	0.4788	0.4203	-0.384
Mof_C 	C 	0.5092	0.9973	0.3755	0.494
Mof_C 	C 	0.5036	0.0562	0.3685	-0.262
Mof_H 	H 	0.5337	0.0739	0.3832	0.106
Mof_H 	H 	0.4725	0.0685	0.3864	0.108
Mof_O 	O 	0.509	0.9703	0.3361	-0.377
Mof_O 	O 	0.5136	0.9788	0.4203	-0.325
Mof_C 	C 	0.5092	0.4973	0.8755	0.387
Mof_C 	C 	0.5036	0.5562	0.8685	-0.141
Mof_H 	H 	0.5337	0.5739	0.8832	0.084
Mof_H 	H 	0.4725	0.5685	0.8864	0.088
Mof_O 	O 	0.509	0.4703	0.8361	-0.408
Mof_O 	O 	0.5136	0.4788	0.9203	-0.313
Mof_C 	C 	0.5092	0.7527	0.3745	0.396
Mof_C 	C 	0.5036	0.6938	0.3815	-0.146
Mof_H 	H 	0.5337	0.6761	0.3668	0.081
Mof_H 	H 	0.4725	0.6815	0.3636	0.083
Mof_O 	O 	0.509	0.7797	0.4139	-0.414
Mof_O 	O 	0.5136	0.7712	0.3297	-0.358
Mof_C 	C 	0.5092	0.2527	0.8745	0.386
Mof_C 	C 	0.5036	0.1938	0.8815	-0.141
Mof_H 	H 	0.5337	0.1761	0.8668	0.081
Mof_H 	H 	0.4725	0.1815	0.8636	0.084
Mof_O 	O 	0.509	0.2797	0.9139	-0.361
Mof_O 	O 	0.5136	0.2712	0.8297	-0.354
Mof_C 	C 	0.0092	0.7527	0.8745	0.408
Mof_C 	C 	0.0036	0.6938	0.8815	-0.285
Mof_H 	H 	0.0337	0.6761	0.8668	0.114
Mof_H 	H 	0.9725	0.6815	0.8636	0.19
Mof_O 	O 	0.009	0.7797	0.9139	-0.373
Mof_O 	O 	0.0136	0.7712	0.8297	-0.375
Mof_C 	C 	0.0092	0.2527	0.3745	0.419
Mof_C 	C 	0.0036	0.1938	0.3815	-0.295
Mof_H 	H 	0.0337	0.1761	0.3668	0.115
Mof_H 	H 	0.9725	0.1815	0.3636	0.193
Mof_O 	O 	0.009	0.2797	0.4139	-0.43
Mof_O 	O 	0.0136	0.2712	0.3297	-0.384
Mof_C 	C 	0.7408	0.2527	0.3755	0.397
Mof_C 	C 	0.7464	0.1938	0.3685	-0.146
Mof_H 	H 	0.7163	0.1761	0.3832	0.081
Mof_H 	H 	0.7775	0.1815	0.3864	0.085
Mof_O 	O 	0.741	0.2797	0.3361	-0.415
Mof_O 	O 	0.7364	0.2712	0.4203	-0.359
Mof_C 	C 	0.7408	0.7527	0.8755	0.388
Mof_C 	C 	0.7464	0.6938	0.8685	-0.142
Mof_H 	H 	0.7163	0.6761	0.8832	0.084
Mof_H 	H 	0.7775	0.6815	0.8864	0.089
Mof_O 	O 	0.741	0.7797	0.8361	-0.405
Mof_O 	O 	0.7364	0.7712	0.9203	-0.312
Mof_C 	C 	0.2408	0.2527	0.8755	0.386
Mof_C 	C 	0.2464	0.1938	0.8685	-0.141
Mof_H 	H 	0.2163	0.1761	0.8832	0.083
Mof_H 	H 	0.2775	0.1815	0.8864	0.088
Mof_O 	O 	0.241	0.2797	0.8361	-0.408
Mof_O 	O 	0.2364	0.2712	0.9203	-0.312
Mof_C 	C 	0.2408	0.7527	0.3755	0.396
Mof_C 	C 	0.2464	0.6938	0.3685	-0.145
Mof_H 	H 	0.2163	0.6761	0.3832	0.08
Mof_H 	H 	0.2775	0.6815	0.3864	0.083
Mof_O 	O 	0.241	0.7797	0.3361	-0.413
Mof_O 	O 	0.2364	0.7712	0.4203	-0.358
Mof_C 	C 	0.9973	0.8755	0.0092	0.505
Mof_C 	C 	0.0562	0.8685	0.0036	-0.4
Mof_H 	H 	0.0739	0.8832	0.0337	0.142
Mof_H 	H 	0.0685	0.8864	0.9725	0.219
Mof_O 	O 	0.9703	0.8361	0.009	-0.383
Mof_O 	O 	0.9788	0.9203	0.0136	-0.301
Mof_C 	C 	0.9973	0.3755	0.5092	0.494
Mof_C 	C 	0.0562	0.3685	0.5036	-0.262
Mof_H 	H 	0.0739	0.3832	0.5337	0.106
Mof_H 	H 	0.0685	0.3864	0.4725	0.108
Mof_O 	O 	0.9703	0.3361	0.509	-0.377
Mof_O 	O 	0.9788	0.4203	0.5136	-0.325
Mof_C 	C 	0.4973	0.8755	0.5092	0.387
Mof_C 	C 	0.5562	0.8685	0.5036	-0.141
Mof_H 	H 	0.5739	0.8832	0.5337	0.084
Mof_H 	H 	0.5685	0.8864	0.4725	0.088
Mof_O 	O 	0.4703	0.8361	0.509	-0.408
Mof_O 	O 	0.4788	0.9203	0.5136	-0.313
Mof_C 	C 	0.4973	0.3755	0.0092	0.419
Mof_C 	C 	0.5562	0.3685	0.0036	-0.294
Mof_H 	H 	0.5739	0.3832	0.0337	0.115
Mof_H 	H 	0.5685	0.3864	0.9725	0.192
Mof_O 	O 	0.4703	0.3361	0.009	-0.43
Mof_O 	O 	0.4788	0.4203	0.0136	-0.384
Mof_C 	C 	0.4973	0.8745	0.2408	0.386
Mof_C 	C 	0.5562	0.8815	0.2464	-0.141
Mof_H 	H 	0.5739	0.8668	0.2163	0.08
Mof_H 	H 	0.5685	0.8636	0.2775	0.084
Mof_O 	O 	0.4703	0.9139	0.241	-0.361
Mof_O 	O 	0.4788	0.8297	0.2364	-0.354
Mof_C 	C 	0.4973	0.3745	0.7408	0.397
Mof_C 	C 	0.5562	0.3815	0.7464	-0.147
Mof_H 	H 	0.5739	0.3668	0.7163	0.081
Mof_H 	H 	0.5685	0.3636	0.7775	0.085
Mof_O 	O 	0.4703	0.4139	0.741	-0.415
Mof_O 	O 	0.4788	0.3297	0.7364	-0.36
Mof_C 	C 	0.9973	0.8745	0.7408	0.481
Mof_C 	C 	0.0562	0.8815	0.7464	-0.254
Mof_H 	H 	0.0739	0.8668	0.7163	0.106
Mof_H 	H 	0.0685	0.8636	0.7775	0.11
Mof_O 	O 	0.9703	0.9139	0.741	-0.325
Mof_O 	O 	0.9788	0.8297	0.7364	-0.318
Mof_C 	C 	0.9973	0.3745	0.2408	0.495
Mof_C 	C 	0.0562	0.3815	0.2464	-0.263
Mof_H 	H 	0.0739	0.3668	0.2163	0.106
Mof_H 	H 	0.0685	0.3636	0.2775	0.108
Mof_O 	O 	0.9703	0.4139	0.241	-0.378
Mof_O 	O 	0.9788	0.3297	0.2364	-0.324
Mof_C 	C 	0.2527	0.3755	0.7408	0.397
Mof_C 	C 	0.1938	0.3685	0.7464	-0.146
Mof_H 	H 	0.1761	0.3832	0.7163	0.081
Mof_H 	H 	0.1815	0.3864	0.7775	0.085
Mof_O 	O 	0.2797	0.3361	0.741	-0.415
Mof_O 	O 	0.2712	0.4203	0.7364	-0.359
Mof_C 	C 	0.2527	0.8755	0.2408	0.386
Mof_C 	C 	0.1938	0.8685	0.2464	-0.141
Mof_H 	H 	0.1761	0.8832	0.2163	0.083
Mof_H 	H 	0.1815	0.8864	0.2775	0.088
Mof_O 	O 	0.2797	0.8361	0.241	-0.408
Mof_O 	O 	0.2712	0.9203	0.2364	-0.312
Mof_C 	C 	0.7527	0.3755	0.2408	0.396
Mof_C 	C 	0.6938	0.3685	0.2464	-0.145
Mof_H 	H 	0.6761	0.3832	0.2163	0.08
Mof_H 	H 	0.6815	0.3864	0.2775	0.083
Mof_O 	O 	0.7797	0.3361	0.241	-0.413
Mof_O 	O 	0.7712	0.4203	0.2364	-0.358
Mof_C 	C 	0.7527	0.8755	0.7408	0.388
Mof_C 	C 	0.6938	0.8685	0.7464	-0.142
Mof_H 	H 	0.6761	0.8832	0.7163	0.084
Mof_H 	H 	0.6815	0.8864	0.7775	0.089
Mof_O 	O 	0.7797	0.8361	0.741	-0.405
Mof_O 	O 	0.7712	0.9203	0.7364	-0.312
Mof_C 	C 	0.7527	0.3745	0.5092	0.396
Mof_C 	C 	0.6938	0.3815	0.5036	-0.146
Mof_H 	H 	0.6761	0.3668	0.5337	0.081
Mof_H 	H 	0.6815	0.3636	0.4725	0.083
Mof_O 	O 	0.7797	0.4139	0.509	-0.414
Mof_O 	O 	0.7712	0.3297	0.5136	-0.358
Mof_C 	C 	0.7527	0.8745	0.0092	0.408
Mof_C 	C 	0.6938	0.8815	0.0036	-0.285
Mof_H 	H 	0.6761	0.8668	0.0337	0.114
Mof_H 	H 	0.6815	0.8636	0.9725	0.19
Mof_O 	O 	0.7797	0.9139	0.009	-0.373
Mof_O 	O 	0.7712	0.8297	0.0136	-0.375
Mof_C 	C 	0.2527	0.3745	0.0092	0.419
Mof_C 	C 	0.1938	0.3815	0.0036	-0.295
Mof_H 	H 	0.1761	0.3668	0.0337	0.115
Mof_H 	H 	0.1815	0.3636	0.9725	0.193
Mof_O 	O 	0.2797	0.4139	0.009	-0.43
Mof_O 	O 	0.2712	0.3297	0.0136	-0.384
Mof_C 	C 	0.2527	0.8745	0.5092	0.386
Mof_C 	C 	0.1938	0.8815	0.5036	-0.141
Mof_H 	H 	0.1761	0.8668	0.5337	0.081
Mof_H 	H 	0.1815	0.8636	0.4725	0.084
Mof_O 	O 	0.2797	0.9139	0.509	-0.361
Mof_O 	O 	0.2712	0.8297	0.5136	-0.354
Mof_Gd	Gd	-1.90014e-33	-2.83749e-33	0.25	1.503
Mof_Gd	Gd	-2.86293e-33	0.5	0.75	1.72
Mof_Gd	Gd	0.25	0.75	0.75	1.928
Mof_Gd	Gd	0.25	0.25	0.25	1.927
Mof_Gd	Gd	0.75	0.5	-0	1.72
Mof_Gd	Gd	0.75	-5.67498e-33	0.5	1.72
Mof_Gd	Gd	0.5	0.25	0.5	1.927
Mof_Gd	Gd	0.5	0.75	-0	1.72
Mof_Gd	Gd	0.25	0	-0	1.503
Mof_Gd	Gd	0.75	0.25	0.75	1.928
Mof_Gd	Gd	-3.80028e-33	0.75	0.5	1.72
Mof_Gd	Gd	0.5	0.5	0.25	1.927
Mof_Gd	Gd	-2.83749e-33	0.25	-0	1.503
Mof_Gd	Gd	0.75	0.75	0.25	1.928
Mof_Gd	Gd	0.5	-5.67498e-33	0.75	1.72
Mof_Gd	Gd	0.25	0.5	0.5	1.927
Mof_Gd	Gd	-8.53791e-33	-5.67498e-33	0.75	1.511
Mof_Gd	Gd	-1.04126e-32	0.5	0.25	1.715
Mof_Gd	Gd	0.75	0.25	0.25	1.927
Mof_Gd	Gd	0.75	0.75	0.75	1.929
Mof_Gd	Gd	0.25	0.5	-0	1.715
Mof_Gd	Gd	0.25	-5.67498e-33	0.5	1.715
Mof_Gd	Gd	0.5	0.75	0.5	1.928
Mof_Gd	Gd	0.5	0.25	-0	1.715
Mof_Gd	Gd	0.75	0	-0	1.511
Mof_Gd	Gd	0.25	0.75	0.25	1.927
Mof_Gd	Gd	-9.47526e-33	0.25	0.5	1.715
Mof_Gd	Gd	0.5	0.5	0.75	1.928
Mof_Gd	Gd	-1.135e-32	0.75	-0	1.511
Mof_Gd	Gd	0.25	0.25	0.75	1.927
Mof_Gd	Gd	0.5	-2.83749e-33	0.25	1.715
Mof_Gd	Gd	0.75	0.5	0.5	1.928
Mof_Mn	Mn	-1.04126e-32	0.75	0.25	0.866
Mof_Mn	Mn	0.5	0.75	0.75	1.005
Mof_Mn	Mn	0.25	-5.67498e-33	0.75	0.866
Mof_Mn	Mn	0.25	0.5	0.25	1.004
Mof_Mn	Mn	0.75	0.25	-0	0.866
Mof_Mn	Mn	0.75	0.75	0.5	1.005
Mof_Mn	Mn	0.5	0.5	0.5	1.005
Mof_Mn	Mn	0.5	0	-0	0.726
Mof_Mn	Mn	-5.67498e-33	0.5	-0	0.726
Mof_Mn	Mn	-3.80028e-33	-5.67498e-33	0.5	0.726
Mof_Mn	Mn	0.25	0.25	0.5	1.004
Mof_Mn	Mn	0.5	0.25	0.75	1.005
Mof_Mn	Mn	-4.73763e-33	0.25	0.25	0.863
Mof_Mn	Mn	0.75	0.5	0.25	1.005
Mof_Mn	Mn	0.75	-5.67498e-33	0.75	0.869
Mof_Mn	Mn	-0	0	-0	0.587
Mof_Mn	Mn	-9.47526e-33	0.5	0.5	0.865
Mof_Mn	Mn	0.5	-5.67498e-33	0.5	0.865
Mof_Mn	Mn	0.5	0.5	-0	0.865
Mof_Mn	Mn	0.25	0.75	0.5	1.005
Mof_Mn	Mn	0.25	0.25	-0	0.863
Mof_Mn	Mn	-8.53791e-33	0.25	0.75	0.866
Mof_Mn	Mn	0.5	0.25	0.25	1.004
Mof_Mn	Mn	0.75	-2.83749e-33	0.25	0.866
Mof_Mn	Mn	0.75	0.5	0.75	1.005
Mof_Mn	Mn	0.25	0.75	-0	0.866
Mof_Mn	Mn	0.5	0.75	0.25	1.005
Mof_Mn	Mn	-1.98879e-32	0.75	0.75	0.869
Mof_Mn	Mn	0.25	0.5	0.75	1.005
Mof_Mn	Mn	0.25	-2.83749e-33	0.25	0.863
Mof_Mn	Mn	0.75	0.25	0.5	1.005
Mof_Mn	Mn	0.75	0.75	-0	0.869
Mof_O 	O 	-1.06616e-32	0.9336	0.1836	-0.311
Mof_O 	O 	2.56309e-33	0.4336	0.6836	-0.333
Mof_O 	O 	0.5	0.9336	0.6836	-0.235
Mof_O 	O 	0.5	0.4336	0.1836	-0.254
Mof_O 	O 	0.25	0.8164	0.6836	-0.253
Mof_O 	O 	0.25	0.3164	0.1836	-0.254
Mof_O 	O 	0.75	0.8164	0.1836	-0.253
Mof_O 	O 	0.75	0.3164	0.6836	-0.253
Mof_O 	O 	0.75	0.4336	0.0664	-0.226
Mof_O 	O 	0.75	0.9336	0.5664	-0.234
Mof_O 	O 	0.25	0.4336	0.5664	-0.254
Mof_O 	O 	0.25	0.9336	0.0664	-0.207
Mof_O 	O 	0.5	0.3164	0.5664	-0.253
Mof_O 	O 	0.5	0.8164	0.0664	-0.226
Mof_O 	O 	-3.2979e-33	0.3164	0.0664	-0.307
Mof_O 	O 	-9.2263e-33	0.8164	0.5664	-0.331
Mof_O 	O 	0.1836	0	0.9336	-0.311
Mof_O 	O 	0.1836	0.5	0.4336	-0.254
Mof_O 	O 	0.6836	0	0.4336	-0.333
Mof_O 	O 	0.6836	0.5	0.9336	-0.235
Mof_O 	O 	0.6836	0.25	0.8164	-0.253
Mof_O 	O 	0.6836	0.75	0.3164	-0.253
Mof_O 	O 	0.1836	0.25	0.3164	-0.254
Mof_O 	O 	0.1836	0.75	0.8164	-0.253
Mof_O 	O 	0.0664	0.75	0.4336	-0.226
Mof_O 	O 	0.0664	0.25	0.9336	-0.207
Mof_O 	O 	0.5664	0.75	0.9336	-0.234
Mof_O 	O 	0.5664	0.25	0.4336	-0.254
Mof_O 	O 	0.5664	0.5	0.3164	-0.253
Mof_O 	O 	0.5664	0	0.8164	-0.331
Mof_O 	O 	0.0664	0.5	0.8164	-0.226
Mof_O 	O 	0.0664	-2.83749e-33	0.3164	-0.307
Mof_O 	O 	0.9336	0.1836	-0	-0.311
Mof_O 	O 	0.9336	0.6836	0.5	-0.235
Mof_O 	O 	0.4336	0.1836	0.5	-0.254
Mof_O 	O 	0.4336	0.6836	-0	-0.333
Mof_O 	O 	0.8164	0.6836	0.25	-0.253
Mof_O 	O 	0.8164	0.1836	0.75	-0.253
Mof_O 	O 	0.3164	0.6836	0.75	-0.253
Mof_O 	O 	0.3164	0.1836	0.25	-0.254
Mof_O 	O 	0.4336	0.0664	0.75	-0.226
Mof_O 	O 	0.4336	0.5664	0.25	-0.254
Mof_O 	O 	0.9336	0.0664	0.25	-0.207
Mof_O 	O 	0.9336	0.5664	0.75	-0.234
Mof_O 	O 	0.3164	0.5664	0.5	-0.253
Mof_O 	O 	0.3164	0.0664	-0	-0.307
Mof_O 	O 	0.8164	0.5664	-0	-0.331
Mof_O 	O 	0.8164	0.0664	0.5	-0.226
Mof_O 	O 	-2.61397e-33	0.0664	0.8164	-0.305
Mof_O 	O 	-4.48867e-33	0.5664	0.3164	-0.333
Mof_O 	O 	0.5	0.0664	0.3164	-0.226
Mof_O 	O 	0.5	0.5664	0.8164	-0.253
Mof_O 	O 	0.75	0.1836	0.3164	-0.253
Mof_O 	O 	0.75	0.6836	0.8164	-0.252
Mof_O 	O 	0.25	0.1836	0.8164	-0.254
Mof_O 	O 	0.25	0.6836	0.3164	-0.254
Mof_O 	O 	0.25	0.5664	0.9336	-0.234
Mof_O 	O 	0.25	0.0664	0.4336	-0.226
Mof_O 	O 	0.75	0.5664	0.4336	-0.253
Mof_O 	O 	0.75	0.0664	0.9336	-0.207
Mof_O 	O 	0.5	0.6836	0.4336	-0.253
Mof_O 	O 	0.5	0.1836	0.9336	-0.234
Mof_O 	O 	3.50044e-33	0.6836	0.9336	-0.31
Mof_O 	O 	-4.04924e-33	0.1836	0.4336	-0.334
Mof_O 	O 	0.8164	-7.09373e-34	0.0664	-0.305
Mof_O 	O 	0.8164	0.5	0.5664	-0.253
Mof_O 	O 	0.3164	0	0.5664	-0.333
Mof_O 	O 	0.3164	0.5	0.0664	-0.226
Mof_O 	O 	0.3164	0.75	0.1836	-0.253
Mof_O 	O 	0.3164	0.25	0.6836	-0.254
Mof_O 	O 	0.8164	0.75	0.6836	-0.252
Mof_O 	O 	0.8164	0.25	0.1836	-0.254
Mof_O 	O 	0.9336	0.25	0.5664	-0.234
Mof_O 	O 	0.9336	0.75	0.0664	-0.207
Mof_O 	O 	0.4336	0.25	0.0664	-0.226
Mof_O 	O 	0.4336	0.75	0.5664	-0.253
Mof_O 	O 	0.4336	0.5	0.6836	-0.253
Mof_O 	O 	0.4336	-1.41875e-33	0.1836	-0.334
Mof_O 	O 	0.9336	0.5	0.1836	-0.234
Mof_O 	O 	0.9336	0	0.6836	-0.31
Mof_O 	O 	0.0664	0.8164	-0	-0.305
Mof_O 	O 	0.0664	0.3164	0.5	-0.226
Mof_O 	O 	0.5664	0.8164	0.5	-0.253
Mof_O 	O 	0.5664	0.3164	-0	-0.333
Mof_O 	O 	0.1836	0.3164	0.75	-0.253
Mof_O 	O 	0.1836	0.8164	0.25	-0.254
Mof_O 	O 	0.6836	0.3164	0.25	-0.254
Mof_O 	O 	0.6836	0.8164	0.75	-0.252
Mof_O 	O 	0.5664	0.9336	0.25	-0.234
Mof_O 	O 	0.5664	0.4336	0.75	-0.253
Mof_O 	O 	0.0664	0.9336	0.75	-0.207
Mof_O 	O 	0.0664	0.4336	0.25	-0.226
Mof_O 	O 	0.6836	0.4336	0.5	-0.253
Mof_O 	O 	0.6836	0.9336	-0	-0.31
Mof_O 	O 	0.1836	0.4336	-0	-0.334
Mof_O 	O 	0.1836	0.9336	0.5	-0.234
_end
