data_functionalizedCrystal
_audit_creation_method	'EQeq! by Chris Wilmer'
_symmetry_space_group_name_H-M	'P1'
_symmetry_Int_Tables_number	1
_symmetry_cell_setting	triclinic
loop_
_symmetry_equiv_pos_as_xyz
  x,y,z
_cell_length_a	11.691
_cell_length_b	13.492
_cell_length_c	20.615
_cell_angle_alpha	89.274
_cell_angle_beta	76.749
_cell_angle_gamma	66.93
loop_
_atom_site_label
_atom_site_type_symbol
_atom_site_fract_x
_atom_site_fract_y
_atom_site_fract_z
_atom_site_charge
Mof_Mo	Mo	0.00318	0.73687	0.4723	1.749
Mof_Mo	Mo	0.73584	0.94053	0.58372	1.965
Mof_Mo	Mo	0.79362	0.96588	0.40969	2.532
Mof_Mo	Mo	0.77365	0.23151	0.44623	1.832
Mof_Mo	Mo	0.95693	0.95393	0.67253	1.989
Mof_Mo	Mo	0.7436	0.19599	0.61967	1.865
Mof_O 	O 	0.913	0.9346	0.4928	-0.458
Mof_O 	O 	0.9029	0.0171	0.5673	-0.436
Mof_O 	O 	0.8561	0.7973	0.5432	-0.746
Mof_O 	O 	0.9191	0.9833	0.3413	-0.797
Mof_O 	O 	0.719	0.982	0.5038	-0.795
Mof_O 	O 	0.8356	0.9127	0.6495	-0.79
Mof_O 	O 	0.1422	0.7384	0.3975	-0.743
Mof_O 	O 	0.897	0.819	0.4134	-0.786
Mof_O 	O 	0.9072	0.179	0.3651	-0.722
Mof_O 	O 	0.8373	0.1006	0.6751	-0.759
Mof_O 	O 	0.6693	0.0895	0.61	-0.736
Mof_O 	O 	0.9352	0.0461	0.4447	-0.453
Mof_O 	O 	0.1176	0.7089	0.5278	-0.765
Mof_O 	O 	0.6954	0.2378	0.5375	-0.752
Mof_O 	O 	0.7186	0.1232	0.4265	-0.851
Mof_O 	O 	0.6954	0.9488	0.366	-0.85
Mof_O 	O 	0.092	0.882	0.4822	-0.426
Mof_Cu	Cu	0.5303	0.1911	0.37319	0.804
Mof_Cl	Cl	0.618	0.1402	0.269	-0.804
Mof_Cu	Cu	0.5123	0.3125	0.21833	0.847
Mof_Cu	Cu	0.2905	0.8536	0.10913	0.82
Mof_Cu	Cu	0.6827	0.9388	0.26475	0.872
Mof_Cu	Cu	0.8717	0.5212	0.34411	0.818
Mof_N 	N 	0.4206	0.27	0.4556	-0.269
Mof_N 	N 	0.7717	0.4538	0.3046	-0.241
Mof_N 	N 	0.3256	0.3771	0.2677	-0.243
Mof_N 	N 	0.8648	0.891	0.2155	-0.236
Mof_N 	N 	0.6298	0.1899	0.9852	-0.237
Mof_N 	N 	0.7491	0.6167	0.4242	-0.256
Mof_N 	N 	0.1158	0.8578	0.1503	-0.234
Mof_N 	N 	0.5497	0.2604	0.1215	-0.222
Mof_N 	N 	0.3811	0.8829	0.1735	-0.252
Mof_N 	N 	0.6245	0.3762	0.2498	-0.222
Mof_N 	N 	0.0561	0.4651	0.3221	-0.259
Mof_N 	N 	0.5387	0.9177	0.2437	-0.241
Mof_C 	C 	0.7517	0.3206	0.2394	-0.034
Mof_H 	H 	0.7922	0.2558	0.2125	0.01
Mof_C 	C 	0.8242	0.3604	0.2693	0.003
Mof_H 	H 	0.9113	0.3192	0.2638	-0.018
Mof_C 	C 	0.734	0.572	0.4832	-0.015
Mof_H 	H 	0.7842	0.4991	0.483	-0.05
Mof_C 	C 	0.409	0.222	0.5152	-0.014
Mof_H 	H 	0.4575	0.1486	0.5159	-0.024
Mof_C 	C 	0.671	0.7201	0.4278	0.005
Mof_H 	H 	0.6726	0.7549	0.3886	-0.021
Mof_C 	C 	0.9638	0.8291	0.2369	0.05
Mof_H 	H 	0.9509	0.7944	0.2754	-0.018
Mof_C 	C 	0.5705	0.2981	0.0088	-0.035
Mof_H 	H 	0.5587	0.3506	0.9785	-0.004
Mof_C 	C 	0.894	0.935	0.1589	0.025
Mof_H 	H 	0.827	0.9829	0.1426	0.002
Mof_C 	C 	0.2626	0.319	0.3027	0
Mof_H 	H 	0.31	0.2479	0.3098	-0.056
Mof_C 	C 	0.596	0.1559	0.1014	-0.007
Mof_H 	H 	0.5995	0.1055	0.1329	0.005
Mof_C 	C 	0.0902	0.8132	0.203	-0.023
Mof_H 	H 	0.1576	0.768	0.2202	-0.015
Mof_C 	C 	0.5772	0.4719	0.2834	-0.023
Mof_H 	H 	0.4915	0.5164	0.2873	-0.032
Mof_C 	C 	0.0175	0.9143	0.1232	-0.055
Mof_H 	H 	0.0325	0.9389	0.081	0.003
Mof_C 	C 	0.4518	0.998	0.2203	0.008
Mof_H 	H 	0.4437	0.0686	0.2288	-0.037
Mof_C 	C 	0.6474	0.508	0.3123	-0.023
Mof_H 	H 	0.6068	0.5735	0.3386	-0.03
Mof_C 	C 	0.124	0.5217	0.2877	-0.048
Mof_H 	H 	0.0788	0.5931	0.2802	-0.011
Mof_C 	C 	0.5416	0.8204	0.2332	-0.022
Mof_H 	H 	0.5996	0.7614	0.2486	-0.024
Mof_C 	C 	0.2503	0.4789	0.2649	0.01
Mof_H 	H 	0.2888	0.5242	0.2453	-0.028
Mof_C 	C 	0.5282	0.3298	0.077	0.012
Mof_H 	H 	0.4833	0.4029	0.0911	-0.022
Mof_C 	C 	0.3742	0.982	0.1844	0.037
Mof_H 	H 	0.3171	0.0402	0.1678	-0.072
Mof_C 	C 	0.638	0.1225	0.0348	-0.01
Mof_H 	H 	0.6751	0.0485	0.0227	-0.016
Mof_C 	C 	0.1338	0.3608	0.3275	-0.037
Mof_H 	H 	0.0965	0.3162	0.3494	-0.009
Mof_C 	C 	0.4588	0.8049	0.1993	-0
Mof_H 	H 	0.4593	0.7362	0.1951	-0.037
Mof_C 	C 	0.345	0.377	0.4574	-0.047
Mof_H 	H 	0.3485	0.414	0.4191	-0.029
Mof_O 	O 	0.684	0.951	0.4967	-0.095
Mof_Mo	Mo	0.99682	0.26313	0.5277	1.861
Mof_Mo	Mo	0.26416	0.05947	0.41628	1.888
Mof_Mo	Mo	0.20638	0.03412	0.59031	2.49
Mof_Mo	Mo	0.22635	0.76849	0.55377	1.834
Mof_Mo	Mo	0.04307	0.04607	0.32747	1.762
Mof_Mo	Mo	0.2564	0.80401	0.38033	1.844
Mof_O 	O 	0.087	0.0654	0.5072	-0.498
Mof_O 	O 	0.0971	0.9829	0.4327	-0.402
Mof_O 	O 	0.1439	0.2027	0.4568	-0.77
Mof_O 	O 	0.0809	0.0167	0.6587	-0.87
Mof_O 	O 	0.281	0.018	0.4962	-0.796
Mof_O 	O 	0.1644	0.0873	0.3505	-0.77
Mof_O 	O 	0.8578	0.2616	0.6025	-0.751
Mof_O 	O 	0.103	0.181	0.5866	-0.816
Mof_O 	O 	0.0928	0.821	0.6349	-0.771
Mof_O 	O 	0.1627	0.8994	0.3249	-0.718
Mof_O 	O 	0.3307	0.9105	0.39	-0.7
Mof_O 	O 	0.0648	0.9539	0.5553	-0.447
Mof_O 	O 	0.8824	0.2911	0.4722	-0.771
Mof_O 	O 	0.3046	0.7622	0.4625	-0.746
Mof_O 	O 	0.2814	0.8768	0.5735	-0.826
Mof_O 	O 	0.3046	0.0512	0.634	-0.858
Mof_O 	O 	0.908	0.118	0.5178	-0.418
Mof_Cu	Cu	0.4697	0.8089	0.62681	0.808
Mof_Cl	Cl	0.382	0.8598	0.731	-0.784
Mof_Cu	Cu	0.4877	0.6875	0.78167	0.847
Mof_Cu	Cu	0.7095	0.1464	0.89087	0.816
Mof_Cu	Cu	0.3173	0.0612	0.73525	0.86
Mof_Cu	Cu	0.1283	0.4788	0.65589	0.803
Mof_N 	N 	0.5794	0.73	0.5444	-0.267
Mof_N 	N 	0.2283	0.5462	0.6954	-0.246
Mof_N 	N 	0.6744	0.6229	0.7323	-0.243
Mof_N 	N 	0.1352	0.109	0.7845	-0.211
Mof_N 	N 	0.3702	0.8101	0.0148	-0.236
Mof_N 	N 	0.2509	0.3833	0.5758	-0.26
Mof_N 	N 	0.8842	0.1422	0.8497	-0.268
Mof_N 	N 	0.4503	0.7396	0.8785	-0.221
Mof_N 	N 	0.6189	0.1171	0.8265	-0.246
Mof_N 	N 	0.3755	0.6238	0.7502	-0.222
Mof_N 	N 	0.9439	0.5349	0.6779	-0.243
Mof_N 	N 	0.4613	0.0823	0.7563	-0.24
Mof_C 	C 	0.2483	0.6794	0.7606	-0.039
Mof_H 	H 	0.2078	0.7442	0.7875	0.009
Mof_C 	C 	0.1758	0.6396	0.7307	0.005
Mof_H 	H 	0.0887	0.6808	0.7362	-0.033
Mof_C 	C 	0.266	0.428	0.5168	-0.02
Mof_H 	H 	0.2158	0.5009	0.517	-0.052
Mof_C 	C 	0.591	0.778	0.4848	-0.017
Mof_H 	H 	0.5425	0.8514	0.4841	-0.015
Mof_C 	C 	0.329	0.2799	0.5722	0.001
Mof_H 	H 	0.3274	0.2451	0.6114	-0.023
Mof_C 	C 	0.0362	0.1709	0.7631	-0.051
Mof_H 	H 	0.0491	0.2056	0.7246	0.003
Mof_C 	C 	0.4295	0.7019	0.9912	-0.031
Mof_H 	H 	0.4413	0.6494	0.0215	-0.006
Mof_C 	C 	0.106	0.065	0.8411	-0.081
Mof_H 	H 	0.173	0.0171	0.8574	0.014
Mof_C 	C 	0.7374	0.681	0.6973	0.004
Mof_H 	H 	0.69	0.7521	0.6902	-0.055
Mof_C 	C 	0.404	0.8441	0.8986	-0.007
Mof_H 	H 	0.4005	0.8945	0.8671	0.014
Mof_C 	C 	0.9098	0.1868	0.797	0.072
Mof_H 	H 	0.8424	0.232	0.7798	-0.043
Mof_C 	C 	0.4228	0.5281	0.7166	-0.025
Mof_H 	H 	0.5085	0.4836	0.7127	-0.031
Mof_C 	C 	0.9825	0.0857	0.8768	0.041
Mof_H 	H 	0.9675	0.0611	0.919	-0.027
Mof_C 	C 	0.5482	0.002	0.7797	-0.052
Mof_H 	H 	0.5563	0.9314	0.7712	0.011
Mof_C 	C 	0.3526	0.492	0.6877	-0.023
Mof_H 	H 	0.3932	0.4265	0.6614	-0.031
Mof_C 	C 	0.876	0.4783	0.7123	-0.047
Mof_H 	H 	0.9212	0.4069	0.7198	0.002
Mof_C 	C 	0.4584	0.1796	0.7668	-0.023
Mof_H 	H 	0.4004	0.2386	0.7514	-0.027
Mof_C 	C 	0.7497	0.5211	0.7351	0.014
Mof_H 	H 	0.7112	0.4758	0.7547	-0.028
Mof_C 	C 	0.4718	0.6702	0.923	0.011
Mof_H 	H 	0.5167	0.5971	0.9089	-0.02
Mof_C 	C 	0.6258	0.018	0.8156	-0.029
Mof_H 	H 	0.6829	0.9598	0.8322	-0.016
Mof_C 	C 	0.362	0.8775	0.9652	-0.006
Mof_H 	H 	0.3249	0.9515	0.9773	-0.007
Mof_C 	C 	0.8662	0.6392	0.6725	-0.034
Mof_H 	H 	0.9035	0.6838	0.6506	0.002
Mof_C 	C 	0.5412	0.1951	0.8007	-0.004
Mof_H 	H 	0.5407	0.2638	0.8049	-0.037
Mof_C 	C 	0.655	0.623	0.5426	-0.047
Mof_H 	H 	0.6515	0.586	0.5809	-0.029
Mof_O 	O 	0.316	0.049	0.5033	-0.097
Mof_P 	P 	-1.95932e-17	0	0.5	1.071
_end
