data_functionalizedCrystal
_audit_creation_method	'EQeq! by Chris Wilmer'
_symmetry_space_group_name_H-M	'P1'
_symmetry_Int_Tables_number	1
_symmetry_cell_setting	triclinic
loop_
_symmetry_equiv_pos_as_xyz
  x,y,z
_cell_length_a	4.925
_cell_length_b	22.0972
_cell_length_c	12.9038
_cell_angle_alpha	90
_cell_angle_beta	99.245
_cell_angle_gamma	90
loop_
_atom_site_label
_atom_site_type_symbol
_atom_site_fract_x
_atom_site_fract_y
_atom_site_fract_z
_atom_site_charge
Mof_C 	C 	0.5905	0.7757	0.0508	-0.569
Mof_H 	H 	0.791	0.772	0.0592	0.22
Mof_H 	H 	0.54	0.815	0.018	0.242
Mof_C 	C 	0.1282	0.4887	0.2318	-0.686
Mof_H 	H 	0.027	0.5027	0.284	0.268
Mof_H 	H 	0.302	0.4743	0.266	0.257
Mof_C 	C 	0.9739	0.4381	0.1704	0.557
Mof_C 	C 	0.5045	0.7744	0.1574	0.51
Mof_O 	O 	0.5333	0.6553	0.0155	-0.573
Mof_O 	O 	0.1274	0.7246	0.9531	-0.438
Mof_O 	O 	0.535	0.7221	0.8581	-0.433
Mof_O 	O 	0.894	0.57655	0.1055	-0.531
Mof_O 	O 	0.3138	0.5245	0.054	-0.554
Mof_O 	O 	0.3639	0.5958	0.2104	-0.417
Mof_O 	O 	0.7208	0.4333	0.166	-0.501
Mof_O 	O 	0.1201	0.402	0.1226	-0.63
Mof_O 	O 	0.4319	0.8242	0.1937	-0.48
Mof_O 	O 	0.5057	0.7259	0.2073	-0.457
Mof_O 	O 	0.9805	0.6605	0.2872	-0.157
Mof_O 	O 	0.996	0.7024	0.1962	-0.236
Mof_O 	O 	0.846	0.6196	0.335	-0.187
Mof_P 	P 	0.4349	0.71574	0.96464	0.511
Mof_P 	P 	0.1795	0.55041	0.14435	0.547
Mof_Zn	Zn	0.67299	0.64296	0.17289	1.256
Mof_Zn	Zn	0.59232	0.56676	0.96815	1.235
Mof_Zn	Zn	0.8831	0.6866	0.84028	1.242
Mof_C 	C 	0.9095	0.2757	0.4492	-0.569
Mof_H 	H 	0.709	0.272	0.4408	0.22
Mof_H 	H 	0.96	0.315	0.482	0.242
Mof_C 	C 	0.3718	0.9887	0.2682	-0.682
Mof_H 	H 	0.473	0.0027	0.216	0.267
Mof_H 	H 	0.198	0.9743	0.234	0.257
Mof_C 	C 	0.5261	0.9381	0.3296	0.555
Mof_C 	C 	0.9955	0.2744	0.3426	0.51
Mof_O 	O 	0.9667	0.1553	0.4845	-0.574
Mof_O 	O 	0.3726	0.2246	0.5469	-0.438
Mof_O 	O 	0.965	0.2221	0.6419	-0.433
Mof_O 	O 	0.606	0.07655	0.3945	-0.531
Mof_O 	O 	0.1862	0.0245	0.446	-0.553
Mof_O 	O 	0.1361	0.0958	0.2896	-0.416
Mof_O 	O 	0.7792	0.9333	0.334	-0.5
Mof_O 	O 	0.3799	0.902	0.3774	-0.629
Mof_O 	O 	0.0681	0.3242	0.3063	-0.481
Mof_O 	O 	0.9943	0.2259	0.2927	-0.457
Mof_O 	O 	0.5195	0.1605	0.2128	-0.157
Mof_O 	O 	0.504	0.2024	0.3038	-0.236
Mof_O 	O 	0.654	0.1196	0.165	-0.187
Mof_P 	P 	0.0651	0.21574	0.53536	0.513
Mof_P 	P 	0.3205	0.05041	0.35565	0.547
Mof_Zn	Zn	0.82701	0.14296	0.32711	1.256
Mof_Zn	Zn	0.90768	0.06676	0.53185	1.235
Mof_Zn	Zn	0.6169	0.1866	0.65972	1.242
Mof_C 	C 	0.4095	0.2243	0.9492	-0.568
Mof_H 	H 	0.209	0.228	0.9408	0.221
Mof_H 	H 	0.46	0.185	0.982	0.243
Mof_C 	C 	0.8718	0.5113	0.7682	-0.685
Mof_H 	H 	0.973	0.4973	0.716	0.269
Mof_H 	H 	0.698	0.5257	0.734	0.258
Mof_C 	C 	0.0261	0.5619	0.8296	0.557
Mof_C 	C 	0.4955	0.2256	0.8426	0.51
Mof_O 	O 	0.4667	0.3447	0.9845	-0.573
Mof_O 	O 	0.8726	0.2754	0.0469	-0.438
Mof_O 	O 	0.465	0.2779	0.1419	-0.433
Mof_O 	O 	0.106	0.42345	0.8945	-0.531
Mof_O 	O 	0.6862	0.4755	0.946	-0.554
Mof_O 	O 	0.6361	0.4042	0.7896	-0.417
Mof_O 	O 	0.2792	0.5667	0.834	-0.501
Mof_O 	O 	0.8799	0.598	0.8774	-0.63
Mof_O 	O 	0.5681	0.1758	0.8063	-0.48
Mof_O 	O 	0.4943	0.2741	0.7927	-0.457
Mof_O 	O 	0.0195	0.3395	0.7128	-0.157
Mof_O 	O 	0.004	0.2976	0.8038	-0.236
Mof_O 	O 	0.154	0.3804	0.665	-0.187
Mof_P 	P 	0.5651	0.28426	0.03536	0.511
Mof_P 	P 	0.8205	0.44959	0.85565	0.547
Mof_Zn	Zn	0.32701	0.35704	0.82711	1.256
Mof_Zn	Zn	0.40768	0.43324	0.03185	1.235
Mof_Zn	Zn	0.1169	0.3134	0.15972	1.242
Mof_C 	C 	0.0905	0.7243	0.5508	-0.569
Mof_H 	H 	0.291	0.728	0.5592	0.22
Mof_H 	H 	0.04	0.685	0.518	0.242
Mof_C 	C 	0.6282	0.0113	0.7318	-0.682
Mof_H 	H 	0.527	0.9973	0.784	0.267
Mof_H 	H 	0.802	0.0257	0.766	0.257
Mof_C 	C 	0.4739	0.0619	0.6704	0.555
Mof_C 	C 	0.0045	0.7256	0.6574	0.51
Mof_O 	O 	0.0333	0.8447	0.5155	-0.574
Mof_O 	O 	0.6274	0.7754	0.4531	-0.438
Mof_O 	O 	0.035	0.7779	0.3581	-0.433
Mof_O 	O 	0.394	0.92345	0.6055	-0.531
Mof_O 	O 	0.8138	0.9755	0.554	-0.553
Mof_O 	O 	0.8639	0.9042	0.7104	-0.416
Mof_O 	O 	0.2208	0.0667	0.666	-0.5
Mof_O 	O 	0.6201	0.098	0.6226	-0.629
Mof_O 	O 	0.9319	0.6758	0.6937	-0.481
Mof_O 	O 	0.0057	0.7741	0.7073	-0.457
Mof_O 	O 	0.4805	0.8395	0.7872	-0.157
Mof_O 	O 	0.496	0.7976	0.6962	-0.236
Mof_O 	O 	0.346	0.8804	0.835	-0.187
Mof_P 	P 	0.9349	0.78426	0.46464	0.513
Mof_P 	P 	0.6795	0.94959	0.64435	0.547
Mof_Zn	Zn	0.17299	0.85704	0.67289	1.256
Mof_Zn	Zn	0.09232	0.93324	0.46815	1.235
Mof_Zn	Zn	0.3831	0.8134	0.34028	1.242
_end
