# CIF file generated by openbabel 3.1.0, see https://openbabel.org
data_I
_chemical_name_common 'image0'
_cell_length_a 13.1302
_cell_length_b 13.1302
_cell_length_c 17.4559
_cell_angle_alpha 90
_cell_angle_beta 90
_cell_angle_gamma 120
_space_group_name_H-M_alt 'P 1'
_space_group_name_Hall 'P 1'
loop_
    _symmetry_equiv_pos_as_xyz
    x,y,z
loop_
    _atom_site_label
    _atom_site_type_symbol
    _atom_site_fract_x
    _atom_site_fract_y
    _atom_site_fract_z
    _atom_site_occupancy
    Al1      Al       0.29204    0.85678    0.45859    1.000
    P1       P        0.16009    0.97326    0.37118    1.000
    H1       H        0.25000    0.05500    0.34130    1.000
    P2       P        0.12623    0.63092    0.55515    1.000
    H2       H        0.19100    0.69200    0.62400    1.000
    O1       O        0.19040    0.87950    0.39237    1.000
    O2       O        0.13120    0.02490    0.44015    1.000
    O3       O        0.06530    0.92630    0.30983    1.000
    O4       O        0.15660    0.72480    0.49440    1.000
    O5       O        0.99670    0.57470    0.57520    1.000
    O6       O        0.16470    0.54450    0.53450    1.000
    O7       O        0.32010    0.77150    0.38440    1.000
    Al2      Al       0.14322    0.43526    0.45859    1.000
    P3       P        0.02674    0.18683    0.37118    1.000
    H3       H        0.94500    0.19500    0.34130    1.000
    P4       P        0.36908    0.49531    0.55515    1.000
    H4       H        0.30800    0.49900    0.62400    1.000
    O8       O        0.12050    0.31090    0.39237    1.000
    O9       O        0.97510    0.10630    0.44015    1.000
    O10      O        0.07370    0.13900    0.30983    1.000
    O11      O        0.27520    0.43180    0.49440    1.000
    O12      O        0.42530    0.42200    0.57520    1.000
    O13      O        0.45550    0.62020    0.53450    1.000
    O14      O        0.22850    0.54860    0.38440    1.000
    Al3      Al       0.56474    0.70796    0.45859    1.000
    P5       P        0.81317    0.83991    0.37118    1.000
    H5       H        0.80500    0.75000    0.34130    1.000
    P6       P        0.50469    0.87377    0.55515    1.000
    H6       H        0.50100    0.80900    0.62400    1.000
    O15      O        0.68910    0.80960    0.39237    1.000
    O16      O        0.89370    0.86880    0.44015    1.000
    O17      O        0.86100    0.93470    0.30983    1.000
    O18      O        0.56820    0.84340    0.49440    1.000
    O19      O        0.57800    0.00330    0.57520    1.000
    O20      O        0.37980    0.83530    0.53450    1.000
    O21      O        0.45140    0.67990    0.38440    1.000
    Al4      Al       0.85678    0.29204    0.04141    1.000
    P7       P        0.97326    0.16009    0.12882    1.000
    H7       H        0.05500    0.25000    0.15870    1.000
    P8       P        0.63092    0.12623    0.94485    1.000
    H8       H        0.69200    0.19100    0.87600    1.000
    O22      O        0.87950    0.19040    0.10763    1.000
    O23      O        0.02490    0.13120    0.05985    1.000
    O24      O        0.92630    0.06530    0.19017    1.000
    O25      O        0.72480    0.15660    0.00560    1.000
    O26      O        0.57470    0.99670    0.92480    1.000
    O27      O        0.54450    0.16470    0.96550    1.000
    O28      O        0.77150    0.32010    0.11560    1.000
    Al5      Al       0.43526    0.14322    0.04141    1.000
    P9       P        0.18683    0.02674    0.12882    1.000
    H9       H        0.19500    0.94500    0.15870    1.000
    P10      P        0.49531    0.36908    0.94485    1.000
    H10      H        0.49900    0.30800    0.87600    1.000
    O29      O        0.31090    0.12050    0.10763    1.000
    O30      O        0.10630    0.97510    0.05985    1.000
    O31      O        0.13900    0.07370    0.19017    1.000
    O32      O        0.43180    0.27520    0.00560    1.000
    O33      O        0.42200    0.42530    0.92480    1.000
    O34      O        0.62020    0.45550    0.96550    1.000
    O35      O        0.54860    0.22850    0.11560    1.000
    Al6      Al       0.70796    0.56474    0.04141    1.000
    P11      P        0.83991    0.81317    0.12882    1.000
    H11      H        0.75000    0.80500    0.15870    1.000
    P12      P        0.87377    0.50469    0.94485    1.000
    H12      H        0.80900    0.50100    0.87600    1.000
    O36      O        0.80960    0.68910    0.10763    1.000
    O37      O        0.86880    0.89370    0.05985    1.000
    O38      O        0.93470    0.86100    0.19017    1.000
    O39      O        0.84340    0.56820    0.00560    1.000
    O40      O        0.00330    0.57800    0.92480    1.000
    O41      O        0.83530    0.37980    0.96550    1.000
    O42      O        0.67990    0.45140    0.11560    1.000
    Al7      Al       0.70796    0.14322    0.54141    1.000
    P13      P        0.83991    0.02674    0.62882    1.000
    H13      H        0.75000    0.94500    0.65870    1.000
    P14      P        0.87377    0.36908    0.44485    1.000
    H14      H        0.80900    0.30800    0.37600    1.000
    O43      O        0.80960    0.12050    0.60763    1.000
    O44      O        0.86880    0.97510    0.55985    1.000
    O45      O        0.93470    0.07370    0.69017    1.000
    O46      O        0.84340    0.27520    0.50560    1.000
    O47      O        0.00330    0.42530    0.42480    1.000
    O48      O        0.83530    0.45550    0.46550    1.000
    O49      O        0.67990    0.22850    0.61560    1.000
    Al8      Al       0.85678    0.56474    0.54141    1.000
    P15      P        0.97326    0.81317    0.62882    1.000
    H15      H        0.05500    0.80500    0.65870    1.000
    P16      P        0.63092    0.50469    0.44485    1.000
    H16      H        0.69200    0.50100    0.37600    1.000
    O50      O        0.87950    0.68910    0.60763    1.000
    O51      O        0.02490    0.89370    0.55985    1.000
    O52      O        0.92630    0.86100    0.69017    1.000
    O53      O        0.72480    0.56820    0.50560    1.000
    O54      O        0.57470    0.57800    0.42480    1.000
    O55      O        0.54450    0.37980    0.46550    1.000
    O56      O        0.77150    0.45140    0.61560    1.000
    Al9      Al       0.43526    0.29204    0.54141    1.000
    P17      P        0.18683    0.16009    0.62882    1.000
    H17      H        0.19500    0.25000    0.65870    1.000
    P18      P        0.49531    0.12623    0.44485    1.000
    H18      H        0.49900    0.19100    0.37600    1.000
    O57      O        0.31090    0.19040    0.60763    1.000
    O58      O        0.10630    0.13120    0.55985    1.000
    O59      O        0.13900    0.06530    0.69017    1.000
    O60      O        0.43180    0.15660    0.50560    1.000
    O61      O        0.42200    0.99670    0.42480    1.000
    O62      O        0.62020    0.16470    0.46550    1.000
    O63      O        0.54860    0.32010    0.61560    1.000
    Al10     Al       0.14322    0.70796    0.95859    1.000
    P19      P        0.02674    0.83991    0.87118    1.000
    H19      H        0.94500    0.75000    0.84130    1.000
    P20      P        0.36908    0.87377    0.05515    1.000
    H20      H        0.30800    0.80900    0.12400    1.000
    O64      O        0.12050    0.80960    0.89237    1.000
    O65      O        0.97510    0.86880    0.94015    1.000
    O66      O        0.07370    0.93470    0.80983    1.000
    O67      O        0.27520    0.84340    0.99440    1.000
    O68      O        0.42530    0.00330    0.07520    1.000
    O69      O        0.45550    0.83530    0.03450    1.000
    O70      O        0.22850    0.67990    0.88440    1.000
    Al11     Al       0.56474    0.85678    0.95859    1.000
    P21      P        0.81317    0.97326    0.87118    1.000
    H21      H        0.80500    0.05500    0.84130    1.000
    P22      P        0.50469    0.63092    0.05515    1.000
    H22      H        0.50100    0.69200    0.12400    1.000
    O71      O        0.68910    0.87950    0.89237    1.000
    O72      O        0.89370    0.02490    0.94015    1.000
    O73      O        0.86100    0.92630    0.80983    1.000
    O74      O        0.56820    0.72480    0.99440    1.000
    O75      O        0.57800    0.57470    0.07520    1.000
    O76      O        0.37980    0.54450    0.03450    1.000
    O77      O        0.45140    0.77150    0.88440    1.000
    Al12     Al       0.29204    0.43526    0.95859    1.000
    P23      P        0.16009    0.18683    0.87118    1.000
    H23      H        0.25000    0.19500    0.84130    1.000
    P24      P        0.12623    0.49531    0.05515    1.000
    H24      H        0.19100    0.49900    0.12400    1.000
    O78      O        0.19040    0.31090    0.89237    1.000
    O79      O        0.13120    0.10630    0.94015    1.000
    O80      O        0.06530    0.13900    0.80983    1.000
    O81      O        0.15660    0.43180    0.99440    1.000
    O82      O        0.99670    0.42200    0.07520    1.000
    O83      O        0.16470    0.62020    0.03450    1.000
    O84      O        0.32010    0.54860    0.88440    1.000
    Al13     Al       0.00000    0.00000    0.25000    1.000
    Al14     Al       0.00000    0.00000    0.75000    1.000
    Al15     Al       0.00000    0.00000    0.50000    1.000
    Al16     Al       0.00000    0.00000    0.00000    1.000
    P25      P        0.33333    0.66667    0.36305    1.000
    H25      H        0.33333    0.66667    0.28100    1.000
    P26      P        0.66667    0.33333    0.13695    1.000
    H26      H        0.66667    0.33333    0.21900    1.000
    P27      P        0.66667    0.33333    0.63695    1.000
    H27      H        0.66667    0.33333    0.71900    1.000
    P28      P        0.33333    0.66667    0.86305    1.000
    H28      H        0.33333    0.66667    0.78100    1.000
