# CIF file generated by openbabel 3.1.0, see https://openbabel.org
data_I
_chemical_name_common 'image0'
_cell_length_a 5.653
_cell_length_b 6.627
_cell_length_c 9.391
_cell_angle_alpha 70.788
_cell_angle_beta 75.836
_cell_angle_gamma 89.68
_space_group_name_H-M_alt 'P 1'
_space_group_name_Hall 'P 1'
loop_
    _symmetry_equiv_pos_as_xyz
    x,y,z
loop_
    _atom_site_label
    _atom_site_type_symbol
    _atom_site_fract_x
    _atom_site_fract_y
    _atom_site_fract_z
    _atom_site_occupancy
    In1      In       0.28640    0.33170    0.83940    1.000
    P1       P        0.30600    0.79020    0.92400    1.000
    O1       O        0.27700    0.65400    0.82460    1.000
    O2       O        0.44780    0.24020    0.03050    1.000
    O3       O        0.90700    0.25500    0.93130    1.000
    O4       O        0.68400    0.97490    0.18990    1.000
    O5       O        0.18910    0.44190    0.60450    1.000
    O6       O        0.63990    0.42600    0.65500    1.000
    C1       C        0.37200    0.50600    0.48740    1.000
    In2      In       0.71360    0.66830    0.16060    1.000
    P2       P        0.69400    0.20980    0.07600    1.000
    O7       O        0.72300    0.34600    0.17540    1.000
    O8       O        0.55220    0.75980    0.96950    1.000
    O9       O        0.09300    0.74500    0.06870    1.000
    O10      O        0.31600    0.02510    0.81010    1.000
    O11      O        0.81090    0.55810    0.39550    1.000
    O12      O        0.36010    0.57400    0.34500    1.000
    C2       C        0.62800    0.49400    0.51260    1.000
