data_functionalizedCrystal
_audit_creation_method	'EQeq! by Chris Wilmer'
_symmetry_space_group_name_H-M	'P1'
_symmetry_Int_Tables_number	1
_symmetry_cell_setting	triclinic
loop_
_symmetry_equiv_pos_as_xyz
  x,y,z
_cell_length_a	19.278
_cell_length_b	19.593
_cell_length_c	20.046
_cell_angle_alpha	70.65
_cell_angle_beta	70.05
_cell_angle_gamma	69.86
loop_
_atom_site_label
_atom_site_type_symbol
_atom_site_fract_x
_atom_site_fract_y
_atom_site_fract_z
_atom_site_charge
Mof_Zn	Zn	0.62542	0.96252	0.64227	1.218
Mof_Zn	Zn	0.05795	0.53071	0.22475	1.222
Mof_Zn	Zn	0.18755	0.54172	0.07652	1.211
Mof_Zn	Zn	0.21662	0.54682	0.22407	1.216
Mof_Zn	Zn	0.63617	0.11752	0.66458	1.198
Mof_Zn	Zn	0.64438	0.96572	0.78882	1.211
Mof_Zn	Zn	0.207	0.39467	0.20803	1.213
Mof_Zn	Zn	0.7795	0.97259	0.65219	1.207
Mof_H 	H 	0.9306	0.6691	0.3516	0.046
Mof_H 	H 	0.4722	0.7402	0.0462	0.061
Mof_H 	H 	0.4496	0.1338	0.3864	0.063
Mof_H 	H 	0.3153	0.2417	0.0753	0.062
Mof_H 	H 	0.9189	0.8299	0.5215	0.059
Mof_H 	H 	0.5121	0.0655	0.4751	0.041
Mof_H 	H 	0.3229	0.4301	0.9115	0.03
Mof_H 	H 	0.4041	0.3723	0.4777	0.057
Mof_H 	H 	0.4643	0.2381	0.8003	0.042
Mof_H 	H 	0.3819	0.1167	0.0456	0.058
Mof_H 	H 	0.7974	0.7302	0.428	0.058
Mof_H 	H 	0.3265	0.677	0.9409	0.054
Mof_H 	H 	0.1178	0.6966	0.3711	0.026
Mof_H 	H 	0.9215	0.1056	0.4666	0.058
Mof_H 	H 	0.7915	0.7626	0.0641	0.067
Mof_H 	H 	0.0459	0.7628	0.4567	0.07
Mof_H 	H 	0.0957	0.2282	0.2957	0.04
Mof_H 	H 	0.4007	0.3625	0.8288	0.058
Mof_H 	H 	0.4648	0.0495	0.9625	0.041
Mof_H 	H 	0.7985	0.3604	0.4485	0.056
Mof_H 	H 	0.0328	0.1376	0.3763	0.065
Mof_H 	H 	0.3335	0.4427	0.3934	0.035
Mof_H 	H 	0.4822	0.252	0.535	0.051
Mof_H 	H 	0.9577	0.8615	0.7652	0.036
Mof_H 	H 	0.3814	0.7528	0.8186	0.061
Mof_H 	H 	0.773	0.8377	0.9388	0.058
Mof_H 	H 	0.7262	0.8113	0.4979	0.042
Mof_H 	H 	0.3903	0.6658	0.1171	0.037
Mof_H 	H 	0.9098	0.3923	0.3581	0.045
Mof_H 	H 	0.0563	0.7085	0.9615	0.046
Mof_H 	H 	0.0371	0.7858	0.8387	0.061
Mof_H 	H 	0.873	0.6759	0.1285	0.033
Mof_H 	H 	0.5289	0.8125	0.9215	0.056
Mof_H 	H 	0.462	0.8248	0.746	0.035
Mof_H 	H 	0.366	0.2538	0.3315	0.058
Mof_H 	H 	0.7356	0.2698	0.529	0.027
Mof_C 	C 	0.0639	0.7045	0.3859	0.039
Mof_C 	C 	0.4587	0.807	0.7969	0.022
Mof_C 	C 	0.4726	0.2284	0.5058	-0.031
Mof_C 	C 	0.8223	0.7521	0.4457	-0.078
Mof_C 	C 	0.7707	0.8772	0.5709	0.396
Mof_C 	C 	0.3821	0.3377	0.8782	-0.094
Mof_C 	C 	0.3111	0.342	0.0025	-0.102
Mof_C 	C 	0.3744	0.2784	0.3606	-0.03
Mof_C 	C 	0.8226	0.1792	0.5054	-0.087
Mof_C 	C 	0.8706	0.7832	0.9647	0.029
Mof_C 	C 	0.5022	0.1524	0.5134	-0.089
Mof_C 	C 	0.3316	0.2652	0.025	-0.034
Mof_C 	C 	0.5338	0.0934	0.822	0.375
Mof_C 	C 	0.4487	0.1026	0.9471	0.019
Mof_C 	C 	0.9534	0.6888	0.3737	-0.006
Mof_C 	C 	0.3547	0.3904	0.3976	0.014
Mof_C 	C 	0.4498	0.2142	0.8507	-0.026
Mof_C 	C 	0.8178	0.8243	0.522	-0.087
Mof_C 	C 	0.0207	0.7455	0.4347	-0.107
Mof_C 	C 	0.3376	0.377	0.9271	0.027
Mof_C 	C 	0.0753	0.6241	0.305	0.412
Mof_C 	C 	0.8028	0.9027	0.8001	0.343
Mof_C 	C 	0.3935	0.685	0.0662	0.011
Mof_C 	C 	0.8974	0.2868	0.4097	0.012
Mof_C 	C 	0.8445	0.7496	0.0406	-0.097
Mof_C 	C 	0.4427	0.7282	0.0243	-0.082
Mof_C 	C 	0.8544	0.8558	0.847	-0.085
Mof_C 	C 	0.3432	0.3546	0.3518	-0.093
Mof_C 	C 	0.4021	0.7357	0.916	0.028
Mof_C 	C 	0.4764	0.1386	0.8729	-0.102
Mof_C 	C 	0.8952	0.8086	0.5018	-0.038
Mof_C 	C 	0.9036	0.7345	0.4241	0.006
Mof_C 	C 	0.7803	0.7969	0.4887	0.013
Mof_C 	C 	0.9339	0.2111	0.415	0.037
Mof_C 	C 	0.5585	0.8733	0.7811	0.391
Mof_C 	C 	0.4531	0.1585	0.4182	-0.087
Mof_C 	C 	0.27	0.3876	0.0593	0.41
Mof_C 	C 	0.3967	0.3481	0.4476	-0.088
Mof_C 	C 	0.4497	0.7552	0.9473	0.019
Mof_C 	C 	0.0025	0.7174	0.9808	-0.02
Mof_C 	C 	0.7872	0.1181	0.5587	0.373
Mof_C 	C 	0.9833	0.7977	0.8587	-0.086
Mof_C 	C 	0.3758	0.2214	0.9755	0.024
Mof_C 	C 	0.4918	0.1181	0.4695	0.021
Mof_C 	C 	0.9414	0.7641	0.4549	0.038
Mof_C 	C 	0.5044	0.8252	0.8285	-0.094
Mof_C 	C 	0.4	0.1423	0.9965	-0.082
Mof_C 	C 	0.0545	0.3725	0.2783	0.384
Mof_C 	C 	0.2961	0.3982	0.2991	0.375
Mof_C 	C 	0.4172	0.2368	0.4097	0.025
Mof_C 	C 	0.4016	0.2576	0.9003	0.017
Mof_C 	C 	0.7861	0.2548	0.5	0.013
Mof_C 	C 	0.4111	0.7644	0.8406	-0.091
Mof_C 	C 	0.355	0.6918	0.9615	-0.036
Mof_C 	C 	0.9373	0.8408	0.8154	0.011
Mof_C 	C 	0.9348	0.3406	0.3618	-0.015
Mof_C 	C 	0.0277	0.673	0.3567	-0.12
Mof_C 	C 	0.9716	0.6808	0.0529	-0.108
Mof_C 	C 	0.0452	0.2431	0.3247	0.034
Mof_C 	C 	0.4986	0.7996	0.9012	-0.025
Mof_C 	C 	0.8269	0.8265	0.9193	-0.039
Mof_C 	C 	0.0268	0.6288	0.0986	0.41
Mof_C 	C 	0.8235	0.3086	0.4521	-0.084
Mof_C 	C 	0.4285	0.272	0.4558	0.023
Mof_C 	C 	0.0087	0.3187	0.3193	-0.112
Mof_C 	C 	0.8965	0.1573	0.4629	-0.046
Mof_C 	C 	0.9519	0.7686	0.9365	0.01
Mof_C 	C 	0.2934	0.6221	0.0815	0.355
Mof_C 	C 	0.8938	0.6996	0.0794	0.035
Mof_C 	C 	0.5488	0.1075	0.5688	0.381
Mof_C 	C 	0.3466	0.6683	0.0347	-0.086
Mof_C 	C 	0.0078	0.1893	0.3726	-0.102
Mof_O 	O 	0.2581	0.3532	0.1239	-0.518
Mof_O 	O 	0.1442	0.6131	0.2861	-0.511
Mof_O 	O 	0.7	0.8964	0.5818	-0.504
Mof_O 	O 	0.7188	0.1441	0.5816	-0.536
Mof_O 	O 	0.2603	0.6	0.0506	-0.495
Mof_O 	O 	0.7291	0.9191	0.8316	-0.495
Mof_O 	O 	0.807	0.8945	0.6019	-0.509
Mof_O 	O 	0.5664	0.0267	0.8501	-0.495
Mof_O 	O 	0.2468	0.4577	0.0347	-0.535
Mof_O 	O 	0.0396	0.5882	0.289	-0.529
Mof_O 	O 	0.0952	0.6236	0.0691	-0.541
Mof_O 	O 	0.2865	0.6039	0.1518	-0.474
Mof_O 	O 	0.1689	0.5037	0.1837	-0.943
Mof_O 	O 	0.0235	0.4419	0.2617	-0.522
Mof_O 	O 	0.8278	0.0495	0.5787	-0.483
Mof_O 	O 	0.275	0.4695	0.289	-0.495
Mof_O 	O 	0.1269	0.3429	0.2628	-0.491
Mof_O 	O 	0.6016	0.8814	0.8122	-0.499
Mof_O 	O 	0.6702	0.0052	0.6852	-0.958
Mof_O 	O 	0.2778	0.3623	0.2684	-0.498
Mof_O 	O 	0.8301	0.9211	0.7308	-0.498
Mof_O 	O 	0.5583	0.9013	0.7162	-0.502
Mof_O 	O 	0.5663	0.1408	0.601	-0.484
Mof_O 	O 	0.5477	0.1237	0.7546	-0.516
Mof_O 	O 	0.9963	0.5967	0.1607	-0.513
Mof_O 	O 	0.5655	0.0357	0.5786	-0.485
Mof_Zn	Zn	0.37458	0.03748	0.35773	1.217
Mof_Zn	Zn	0.35562	0.03428	0.21118	1.21
Mof_Zn	Zn	0.78338	0.45318	0.77593	1.215
Mof_Zn	Zn	0.94205	0.46929	0.77525	1.221
Mof_Zn	Zn	0.793	0.60533	0.79197	1.213
Mof_Zn	Zn	0.2205	0.02741	0.34781	1.207
Mof_Zn	Zn	0.36383	0.88248	0.33542	1.197
Mof_Zn	Zn	0.81245	0.45828	0.92348	1.21
Mof_H 	H 	0.6771	0.5699	0.0885	0.03
Mof_H 	H 	0.9043	0.7718	0.7043	0.04
Mof_H 	H 	0.127	0.3241	0.8715	0.033
Mof_H 	H 	0.227	0.1623	0.0612	0.058
Mof_H 	H 	0.4711	0.1875	0.0785	0.056
Mof_H 	H 	0.2085	0.2374	0.9359	0.067
Mof_H 	H 	0.9629	0.2142	0.1613	0.061
Mof_H 	H 	0.5278	0.2598	0.9538	0.061
Mof_H 	H 	0.6181	0.8833	0.9544	0.058
Mof_H 	H 	0.5959	0.6277	0.5223	0.057
Mof_H 	H 	0.6665	0.5573	0.6066	0.035
Mof_H 	H 	0.6186	0.2472	0.1814	0.061
Mof_H 	H 	0.8822	0.3034	0.6289	0.026
Mof_H 	H 	0.5357	0.7619	0.1997	0.042
Mof_H 	H 	0.6735	0.323	0.0591	0.054
Mof_H 	H 	0.5993	0.6375	0.1712	0.058
Mof_H 	H 	0.2015	0.6396	0.5515	0.056
Mof_H 	H 	0.9437	0.2915	0.0385	0.046
Mof_H 	H 	0.5352	0.9505	0.0375	0.041
Mof_H 	H 	0.6097	0.3342	0.8829	0.037
Mof_H 	H 	0.2738	0.1887	0.5021	0.042
Mof_H 	H 	0.6847	0.7583	0.9247	0.062
Mof_H 	H 	0.0785	0.8944	0.5334	0.058
Mof_H 	H 	0.4879	0.9345	0.5249	0.041
Mof_H 	H 	0.5504	0.8662	0.6136	0.063
Mof_H 	H 	0.0694	0.3309	0.6484	0.046
Mof_H 	H 	0.5178	0.748	0.465	0.051
Mof_H 	H 	0.634	0.7462	0.6685	0.058
Mof_H 	H 	0.9672	0.8624	0.6237	0.065
Mof_H 	H 	0.0902	0.6077	0.6419	0.045
Mof_H 	H 	0.0423	0.1385	0.2348	0.036
Mof_H 	H 	0.9541	0.2372	0.5433	0.07
Mof_H 	H 	0.2644	0.7302	0.471	0.027
Mof_H 	H 	0.2026	0.2698	0.572	0.058
Mof_H 	H 	0.0811	0.1701	0.4785	0.059
Mof_H 	H 	0.538	0.1752	0.254	0.035
Mof_C 	C 	0.9913	0.6813	0.6807	-0.112
Mof_C 	C 	0.6256	0.7216	0.6394	-0.03
Mof_C 	C 	0.1972	0.0973	0.1999	0.343
Mof_C 	C 	0.1774	0.8208	0.4946	-0.087
Mof_C 	C 	0.1731	0.1735	0.0807	-0.039
Mof_C 	C 	0.2128	0.8819	0.4413	0.373
Mof_C 	C 	0.5274	0.7716	0.4942	-0.031
Mof_C 	C 	0.6453	0.6096	0.6024	0.014
Mof_C 	C 	0.6624	0.623	0.0729	0.027
Mof_C 	C 	0.5513	0.8974	0.0529	0.019
Mof_C 	C 	0.4512	0.8925	0.4312	0.381
Mof_C 	C 	0.5828	0.7632	0.5903	0.025
Mof_C 	C 	0.6033	0.6519	0.5524	-0.088
Mof_C 	C 	0.4662	0.9066	0.178	0.375
Mof_C 	C 	0.1026	0.7132	0.5903	0.012
Mof_C 	C 	0.9548	0.7569	0.6753	0.034
Mof_C 	C 	0.0652	0.6594	0.6382	-0.015
Mof_C 	C 	0.5715	0.728	0.5442	0.023
Mof_C 	C 	0.9723	0.327	0.6433	-0.12
Mof_C 	C 	0.7039	0.6018	0.7009	0.375
Mof_C 	C 	0.9922	0.8107	0.6274	-0.102
Mof_C 	C 	0.6534	0.3317	0.9653	-0.086
Mof_C 	C 	0.5502	0.7858	0.1493	-0.026
Mof_C 	C 	0.2197	0.2031	0.5113	0.013
Mof_C 	C 	0.0481	0.2314	0.0635	0.01
Mof_C 	C 	0.0661	0.7889	0.585	0.037
Mof_C 	C 	0.4978	0.8476	0.4866	-0.089
Mof_C 	C 	0.5014	0.2004	0.0988	-0.025
Mof_C 	C 	0.1777	0.2479	0.5543	-0.078
Mof_C 	C 	0.645	0.3082	0.0385	-0.036
Mof_C 	C 	0.0627	0.1592	0.1846	0.011
Mof_C 	C 	0.1035	0.8427	0.5371	-0.046
Mof_C 	C 	0.6242	0.7786	0.0245	0.024
Mof_C 	C 	0.1822	0.1757	0.478	-0.087
Mof_C 	C 	0.0964	0.2655	0.5759	0.006
Mof_C 	C 	0.1048	0.1914	0.4982	-0.038
Mof_C 	C 	0.5413	0.193	0.2031	0.022
Mof_C 	C 	0.9975	0.2826	0.0192	-0.02
Mof_C 	C 	0.9361	0.2955	0.6141	0.039
Mof_C 	C 	0.9247	0.3759	0.695	0.412
Mof_C 	C 	0.6684	0.7348	0.975	-0.034
Mof_C 	C 	0.5984	0.7424	0.0997	0.017
Mof_C 	C 	0.0586	0.2359	0.5451	0.038
Mof_C 	C 	0.1294	0.2168	0.0353	0.029
Mof_C 	C 	0.4415	0.1267	0.2189	0.391
Mof_C 	C 	0.7066	0.3779	0.9185	0.355
Mof_C 	C 	0.6065	0.315	0.9338	0.011
Mof_C 	C 	0.4956	0.1748	0.1715	-0.094
Mof_C 	C 	0.5573	0.2718	0.9757	-0.082
Mof_C 	C 	0.9455	0.6275	0.7217	0.384
Mof_C 	C 	0.73	0.6124	0.9407	0.41
Mof_C 	C 	0.5082	0.8819	0.5305	0.021
Mof_C 	C 	0.9793	0.2545	0.5653	-0.107
Mof_C 	C 	0.0466	0.3112	0.6263	-0.006
Mof_C 	C 	0.5236	0.8614	0.1271	-0.102
Mof_C 	C 	0.5503	0.2448	0.0527	0.019
Mof_C 	C 	0.2293	0.1228	0.4291	0.396
Mof_C 	C 	0.1456	0.1442	0.153	-0.085
Mof_C 	C 	0.1555	0.2504	0.9594	-0.097
Mof_C 	C 	0.9732	0.3712	0.9014	0.41
Mof_C 	C 	0.6179	0.6623	0.1218	-0.094
Mof_C 	C 	0.5889	0.2356	0.1594	-0.091
Mof_C 	C 	0.5469	0.8415	0.5818	-0.087
Mof_C 	C 	0.2139	0.7452	0.5	0.013
Mof_C 	C 	0.5979	0.2643	0.084	0.028
Mof_C 	C 	0.1765	0.6914	0.5479	-0.084
Mof_C 	C 	0.1062	0.3004	0.9206	0.035
Mof_C 	C 	0.0167	0.2023	0.1413	-0.086
Mof_C 	C 	0.6	0.8577	0.0035	-0.082
Mof_C 	C 	0.6889	0.658	0.9975	-0.102
Mof_C 	C 	0.6568	0.6454	0.6482	-0.093
Mof_C 	C 	0.0284	0.3192	0.9471	-0.108
Mof_O 	O 	0.7532	0.5423	0.9653	-0.535
Mof_O 	O 	0.0037	0.4033	0.8393	-0.513
Mof_O 	O 	0.193	0.1055	0.3981	-0.509
Mof_O 	O 	0.2709	0.0809	0.1684	-0.495
Mof_O 	O 	0.7222	0.6377	0.7316	-0.498
Mof_O 	O 	0.8311	0.4963	0.8163	-0.943
Mof_O 	O 	0.4345	0.9643	0.4214	-0.485
Mof_O 	O 	0.4417	0.0987	0.2838	-0.502
Mof_O 	O 	0.3	0.1036	0.4182	-0.504
Mof_O 	O 	0.1699	0.0789	0.2692	-0.498
Mof_O 	O 	0.7397	0.4	0.9494	-0.495
Mof_O 	O 	0.4336	0.9733	0.1499	-0.495
Mof_O 	O 	0.1722	0.9505	0.4213	-0.483
Mof_O 	O 	0.9765	0.5581	0.7383	-0.522
Mof_O 	O 	0.7419	0.6468	0.8761	-0.518
Mof_O 	O 	0.9048	0.3764	0.9309	-0.541
Mof_O 	O 	0.4337	0.8592	0.399	-0.484
Mof_O 	O 	0.4523	0.8763	0.2454	-0.516
Mof_O 	O 	0.3298	0.9948	0.3148	-0.958
Mof_O 	O 	0.3984	0.1186	0.1878	-0.499
Mof_O 	O 	0.8731	0.6571	0.7372	-0.491
Mof_O 	O 	0.7135	0.3961	0.8482	-0.474
Mof_O 	O 	0.9604	0.4118	0.711	-0.529
Mof_O 	O 	0.8558	0.3869	0.7139	-0.511
Mof_O 	O 	0.725	0.5305	0.711	-0.495
Mof_O 	O 	0.2812	0.8559	0.4184	-0.536
_end
