data_functionalizedCrystal
_audit_creation_method	'EQeq! by Chris Wilmer'
_symmetry_space_group_name_H-M	'P1'
_symmetry_Int_Tables_number	1
_symmetry_cell_setting	triclinic
loop_
_symmetry_equiv_pos_as_xyz
  x,y,z
_cell_length_a	21.9415
_cell_length_b	7.7878
_cell_length_c	19.6649
_cell_angle_alpha	90
_cell_angle_beta	90
_cell_angle_gamma	90
loop_
_atom_site_label
_atom_site_type_symbol
_atom_site_fract_x
_atom_site_fract_y
_atom_site_fract_z
_atom_site_charge
Mof_Pr	Pr	0.28128	0.57803	0.05564	2.546
Mof_O 	O 	0.16737	0.5539	0.05631	-0.615
Mof_O 	O 	0.24907	0.8333	0.98071	-0.737
Mof_O 	O 	0.13899	0.2857	0.07558	-0.639
Mof_O 	O 	0.32081	0.6691	0.93922	-0.539
Mof_O 	O 	0.26276	0.6924	0.62526	-0.73
Mof_O 	O 	0.32003	0.5033	0.67525	-0.506
Mof_C 	C 	0.2914	0.8042	0.9371	0.502
Mof_C 	C 	0.1276	0.4404	0.0685	0.612
Mof_C 	C 	0.3538	0.8957	0.8329	0.053
Mof_C 	C 	0.3046	0.9406	0.8851	-0.422
Mof_H 	H 	0.3169	0.0441	0.9088	0.13
Mof_H 	H 	0.2671	0.9663	0.861	0.144
Mof_C 	C 	0.06175	0.4955	0.0709	-0.477
Mof_H 	H 	0.0591	0.6144	0.0853	0.152
Mof_H 	H 	0.0397	0.4256	0.1035	0.163
Mof_C 	C 	0.2988	0.6493	0.6729	0.457
Mof_C 	C 	0.03345	0.4756	0.0011	0.018
Mof_H 	H 	0.0556	0.547	0.9691	0.011
Mof_H 	H 	0.0378	0.3572	0.9866	0.015
Mof_C 	C 	0.3502	0.2609	0.2836	-0.153
Mof_C 	C 	0.3091	0.7848	0.785	0.213
Mof_C 	C 	0.3353	0.7816	0.7138	0.096
Mof_C 	C 	0.2989	0.211	0.2275	-0.292
Mof_Pr	Pr	0.21872	0.92197	0.55564	2.546
Mof_O 	O 	0.33263	0.9461	0.55631	-0.616
Mof_O 	O 	0.25093	0.6667	0.48071	-0.739
Mof_O 	O 	0.36101	0.2143	0.57558	-0.64
Mof_O 	O 	0.17919	0.8309	0.43922	-0.539
Mof_O 	O 	0.23724	0.8076	0.12526	-0.728
Mof_O 	O 	0.17997	0.9967	0.17525	-0.503
Mof_C 	C 	0.2086	0.6958	0.4371	0.502
Mof_C 	C 	0.3724	0.0596	0.5685	0.617
Mof_C 	C 	0.1462	0.6043	0.3329	0.053
Mof_C 	C 	0.1954	0.5594	0.3851	-0.416
Mof_H 	H 	0.1831	0.4559	0.4088	0.126
Mof_H 	H 	0.2329	0.5337	0.361	0.143
Mof_C 	C 	0.43825	0.0045	0.5709	-0.483
Mof_H 	H 	0.4409	0.8856	0.5853	0.153
Mof_H 	H 	0.4603	0.0744	0.6035	0.167
Mof_C 	C 	0.2012	0.8507	0.1729	0.456
Mof_C 	C 	0.46655	0.0244	0.5011	0.033
Mof_H 	H 	0.4444	0.953	0.4691	0.003
Mof_H 	H 	0.4622	0.1428	0.4866	0.006
Mof_C 	C 	0.1498	0.2391	0.7836	-0.148
Mof_C 	C 	0.1909	0.7152	0.285	0.209
Mof_C 	C 	0.1647	0.7184	0.2138	0.092
Mof_C 	C 	0.2011	0.289	0.7275	-0.285
Mof_Pr	Pr	0.71872	0.57803	0.44436	2.55
Mof_O 	O 	0.83263	0.5539	0.44369	-0.615
Mof_O 	O 	0.75093	0.8333	0.51929	-0.738
Mof_O 	O 	0.86101	0.2857	0.42442	-0.64
Mof_O 	O 	0.67919	0.6691	0.56078	-0.54
Mof_O 	O 	0.73724	0.6924	0.87474	-0.729
Mof_O 	O 	0.67997	0.5033	0.82475	-0.505
Mof_C 	C 	0.7086	0.8042	0.5629	0.502
Mof_C 	C 	0.8724	0.4404	0.4315	0.616
Mof_C 	C 	0.6462	0.8957	0.6671	0.053
Mof_C 	C 	0.6954	0.9406	0.6149	-0.418
Mof_H 	H 	0.6831	0.0441	0.5912	0.127
Mof_H 	H 	0.7329	0.9663	0.639	0.143
Mof_C 	C 	0.93825	0.4955	0.4291	-0.486
Mof_H 	H 	0.9409	0.6144	0.4147	0.155
Mof_H 	H 	0.9603	0.4256	0.3965	0.167
Mof_C 	C 	0.7012	0.6493	0.8271	0.457
Mof_C 	C 	0.96655	0.4756	0.4989	0.034
Mof_H 	H 	0.9444	0.547	0.5309	0.003
Mof_H 	H 	0.9622	0.3572	0.5134	0.006
Mof_C 	C 	0.6498	0.2609	0.2164	-0.154
Mof_C 	C 	0.6909	0.7848	0.715	0.211
Mof_C 	C 	0.6647	0.7816	0.7862	0.094
Mof_C 	C 	0.7011	0.211	0.2725	-0.295
Mof_Pr	Pr	0.78128	0.92197	0.94436	2.535
Mof_O 	O 	0.66737	0.9461	0.94369	-0.617
Mof_O 	O 	0.74907	0.6667	0.01929	-0.735
Mof_O 	O 	0.63899	0.2143	0.92442	-0.64
Mof_O 	O 	0.82081	0.8309	0.06078	-0.536
Mof_O 	O 	0.76276	0.8076	0.37474	-0.729
Mof_O 	O 	0.82003	0.9967	0.32475	-0.504
Mof_C 	C 	0.7914	0.6958	0.0629	0.501
Mof_C 	C 	0.6276	0.0596	0.9315	0.619
Mof_C 	C 	0.8538	0.6043	0.1671	0.054
Mof_C 	C 	0.8046	0.5594	0.1149	-0.416
Mof_H 	H 	0.8169	0.4559	0.0912	0.126
Mof_H 	H 	0.7671	0.5337	0.139	0.143
Mof_C 	C 	0.56175	0.0045	0.9291	-0.481
Mof_H 	H 	0.5591	0.8856	0.9147	0.151
Mof_H 	H 	0.5397	0.0744	0.8965	0.166
Mof_C 	C 	0.7988	0.8507	0.3271	0.456
Mof_C 	C 	0.53345	0.0244	0.9989	0.035
Mof_H 	H 	0.5556	0.953	0.0309	0.004
Mof_H 	H 	0.5378	0.1428	0.0134	0.004
Mof_C 	C 	0.8502	0.2391	0.7164	-0.151
Mof_C 	C 	0.8091	0.7152	0.215	0.205
Mof_C 	C 	0.8353	0.7184	0.2862	0.089
Mof_C 	C 	0.7989	0.289	0.7725	-0.289
Mof_Pr	Pr	0.71872	0.42197	0.94436	2.547
Mof_O 	O 	0.83263	0.4461	0.94369	-0.614
Mof_O 	O 	0.75093	0.1667	0.01929	-0.737
Mof_O 	O 	0.86101	0.7143	0.92442	-0.639
Mof_O 	O 	0.67919	0.3309	0.06078	-0.539
Mof_O 	O 	0.73724	0.3076	0.37474	-0.73
Mof_O 	O 	0.67997	0.4967	0.32475	-0.506
Mof_C 	C 	0.7086	0.1958	0.0629	0.502
Mof_C 	C 	0.8724	0.5596	0.9315	0.612
Mof_C 	C 	0.6462	0.1043	0.1671	0.053
Mof_C 	C 	0.6954	0.0594	0.1149	-0.422
Mof_H 	H 	0.6831	0.9559	0.0912	0.13
Mof_H 	H 	0.7329	0.0337	0.139	0.144
Mof_C 	C 	0.93825	0.5045	0.9291	-0.477
Mof_H 	H 	0.9409	0.3856	0.9147	0.152
Mof_H 	H 	0.9603	0.5744	0.8965	0.163
Mof_C 	C 	0.7012	0.3507	0.3271	0.457
Mof_C 	C 	0.96655	0.5244	0.9989	0.018
Mof_H 	H 	0.9444	0.453	0.0309	0.011
Mof_H 	H 	0.9622	0.6428	0.0134	0.015
Mof_C 	C 	0.6498	0.7391	0.7164	-0.153
Mof_C 	C 	0.6909	0.2152	0.215	0.213
Mof_C 	C 	0.6647	0.2184	0.2862	0.096
Mof_C 	C 	0.7011	0.789	0.7725	-0.292
Mof_Pr	Pr	0.78128	0.07803	0.44436	2.546
Mof_O 	O 	0.66737	0.0539	0.44369	-0.616
Mof_O 	O 	0.74907	0.3333	0.51929	-0.739
Mof_O 	O 	0.63899	0.7857	0.42442	-0.64
Mof_O 	O 	0.82081	0.1691	0.56078	-0.539
Mof_O 	O 	0.76276	0.1924	0.87474	-0.728
Mof_O 	O 	0.82003	0.0033	0.82475	-0.503
Mof_C 	C 	0.7914	0.3042	0.5629	0.502
Mof_C 	C 	0.6276	0.9404	0.4315	0.617
Mof_C 	C 	0.8538	0.3957	0.6671	0.053
Mof_C 	C 	0.8046	0.4406	0.6149	-0.416
Mof_H 	H 	0.8169	0.5441	0.5912	0.126
Mof_H 	H 	0.7671	0.4663	0.639	0.143
Mof_C 	C 	0.56175	0.9955	0.4291	-0.483
Mof_H 	H 	0.5591	0.1144	0.4147	0.153
Mof_H 	H 	0.5397	0.9256	0.3965	0.167
Mof_C 	C 	0.7988	0.1493	0.8271	0.456
Mof_C 	C 	0.53345	0.9756	0.4989	0.033
Mof_H 	H 	0.5556	0.047	0.5309	0.003
Mof_H 	H 	0.5378	0.8572	0.5134	0.006
Mof_C 	C 	0.8502	0.7609	0.2164	-0.148
Mof_C 	C 	0.8091	0.2848	0.715	0.209
Mof_C 	C 	0.8353	0.2816	0.7862	0.092
Mof_C 	C 	0.7989	0.711	0.2725	-0.285
Mof_Pr	Pr	0.28128	0.42197	0.55564	2.55
Mof_O 	O 	0.16737	0.4461	0.55631	-0.615
Mof_O 	O 	0.24907	0.1667	0.48071	-0.738
Mof_O 	O 	0.13899	0.7143	0.57558	-0.64
Mof_O 	O 	0.32081	0.3309	0.43922	-0.54
Mof_O 	O 	0.26276	0.3076	0.12526	-0.729
Mof_O 	O 	0.32003	0.4967	0.17525	-0.505
Mof_C 	C 	0.2914	0.1958	0.4371	0.502
Mof_C 	C 	0.1276	0.5596	0.5685	0.616
Mof_C 	C 	0.3538	0.1043	0.3329	0.053
Mof_C 	C 	0.3046	0.0594	0.3851	-0.418
Mof_H 	H 	0.3169	0.9559	0.4088	0.127
Mof_H 	H 	0.2671	0.0337	0.361	0.143
Mof_C 	C 	0.06175	0.5045	0.5709	-0.486
Mof_H 	H 	0.0591	0.3856	0.5853	0.155
Mof_H 	H 	0.0397	0.5744	0.6035	0.167
Mof_C 	C 	0.2988	0.3507	0.1729	0.457
Mof_C 	C 	0.03345	0.5244	0.5011	0.034
Mof_H 	H 	0.0556	0.453	0.4691	0.003
Mof_H 	H 	0.0378	0.6428	0.4866	0.006
Mof_C 	C 	0.3502	0.7391	0.7836	-0.154
Mof_C 	C 	0.3091	0.2152	0.285	0.211
Mof_C 	C 	0.3353	0.2184	0.2138	0.094
Mof_C 	C 	0.2989	0.789	0.7275	-0.295
Mof_Pr	Pr	0.21872	0.07803	0.05564	2.535
Mof_O 	O 	0.33263	0.0539	0.05631	-0.617
Mof_O 	O 	0.25093	0.3333	0.98071	-0.735
Mof_O 	O 	0.36101	0.7857	0.07558	-0.64
Mof_O 	O 	0.17919	0.1691	0.93922	-0.536
Mof_O 	O 	0.23724	0.1924	0.62526	-0.729
Mof_O 	O 	0.17997	0.0033	0.67525	-0.504
Mof_C 	C 	0.2086	0.3042	0.9371	0.501
Mof_C 	C 	0.3724	0.9404	0.0685	0.619
Mof_C 	C 	0.1462	0.3957	0.8329	0.054
Mof_C 	C 	0.1954	0.4406	0.8851	-0.416
Mof_H 	H 	0.1831	0.5441	0.9088	0.126
Mof_H 	H 	0.2329	0.4663	0.861	0.143
Mof_C 	C 	0.43825	0.9955	0.0709	-0.481
Mof_H 	H 	0.4409	0.1144	0.0853	0.151
Mof_H 	H 	0.4603	0.9256	0.1035	0.166
Mof_C 	C 	0.2012	0.1493	0.6729	0.456
Mof_C 	C 	0.46655	0.9756	0.0011	0.035
Mof_H 	H 	0.4444	0.047	0.9691	0.004
Mof_H 	H 	0.4622	0.8572	0.9866	0.004
Mof_C 	C 	0.1498	0.7609	0.2836	-0.151
Mof_C 	C 	0.1909	0.2848	0.785	0.205
Mof_C 	C 	0.1647	0.2816	0.7138	0.089
Mof_C 	C 	0.2011	0.711	0.2275	-0.289
_end
