# CIF file generated by openbabel 3.1.0, see https://openbabel.org
data_I
_chemical_name_common 'image0'
_cell_length_a 13.261
_cell_length_b 15.134
_cell_length_c 15.547
_cell_angle_alpha 90
_cell_angle_beta 93.449
_cell_angle_gamma 90
_space_group_name_H-M_alt 'P 1'
_space_group_name_Hall 'P 1'
loop_
    _symmetry_equiv_pos_as_xyz
    x,y,z
loop_
    _atom_site_label
    _atom_site_type_symbol
    _atom_site_fract_x
    _atom_site_fract_y
    _atom_site_fract_z
    _atom_site_occupancy
    Cu1      Cu       0.94971    0.18875    0.10240    1.000
    C1       C        0.58360    0.32290    0.76040    1.000
    H1       H        0.55970    0.38060    0.76250    1.000
    C2       C        0.65270    0.29440    0.82380    1.000
    H2       H        0.67490    0.33280    0.86770    1.000
    C3       C        0.68880    0.21010    0.82260    1.000
    C4       C        0.65440    0.15560    0.75470    1.000
    H3       H        0.67730    0.09780    0.75070    1.000
    C5       C        0.58590    0.18960    0.69420    1.000
    H4       H        0.56330    0.15310    0.64890    1.000
    C6       C        0.76320    0.17680    0.88660    1.000
    C7       C        0.31110    0.25800    0.73050    1.000
    H5       H        0.32910    0.31290    0.75340    1.000
    C8       C        0.25060    0.20470    0.77620    1.000
    H6       H        0.22650    0.22480    0.82770    1.000
    C9       C        0.22520    0.12200    0.74660    1.000
    C10      C        0.26110    0.09760    0.66750    1.000
    H7       H        0.24510    0.04280    0.64330    1.000
    C11      C        0.32040    0.15620    0.62620    1.000
    H8       H        0.34450    0.13850    0.57400    1.000
    C12      C        0.16380    0.06250    0.79430    1.000
    N1       N        0.54980    0.27090    0.69600    1.000
    N2       N        0.79430    0.22140    0.95790    1.000
    N3       N        0.86030    0.16670    0.99540    1.000
    N4       N        0.87140    0.09300    0.95130    1.000
    N5       N        0.80820    0.09800    0.88090    1.000
    N6       N        0.34580    0.23520    0.65460    1.000
    N7       N        0.11600    0.08730    0.86400    1.000
    N8       N        0.07250    0.01420    0.89040    1.000
    N9       N        0.09320    0.94690    0.84010    1.000
    N10      N        0.15170    0.97580    0.77810    1.000
    N11      N        0.05500    0.11710    0.05010    1.000
    N12      N        0.14260    0.13370    0.05780    1.000
    N13      N        0.22510    0.15170    0.06430    1.000
    Cu2      Cu       0.55029    0.68875    0.39760    1.000
    C13      C        0.91640    0.82290    0.73960    1.000
    H9       H        0.94030    0.88060    0.73750    1.000
    C14      C        0.84730    0.79440    0.67620    1.000
    H10      H        0.82510    0.83280    0.63230    1.000
    C15      C        0.81120    0.71010    0.67740    1.000
    C16      C        0.84560    0.65560    0.74530    1.000
    H11      H        0.82270    0.59780    0.74930    1.000
    C17      C        0.91410    0.68960    0.80580    1.000
    H12      H        0.93670    0.65310    0.85110    1.000
    C18      C        0.73680    0.67680    0.61340    1.000
    C19      C        0.18890    0.75800    0.76950    1.000
    H13      H        0.17090    0.81290    0.74660    1.000
    C20      C        0.24940    0.70470    0.72380    1.000
    H14      H        0.27350    0.72480    0.67230    1.000
    C21      C        0.27480    0.62200    0.75340    1.000
    C22      C        0.23890    0.59760    0.83250    1.000
    H15      H        0.25490    0.54280    0.85670    1.000
    C23      C        0.17960    0.65620    0.87380    1.000
    H16      H        0.15550    0.63850    0.92600    1.000
    C24      C        0.33620    0.56250    0.70570    1.000
    N14      N        0.95020    0.77090    0.80400    1.000
    N15      N        0.70570    0.72140    0.54210    1.000
    N16      N        0.63970    0.66670    0.50460    1.000
    N17      N        0.62860    0.59300    0.54870    1.000
    N18      N        0.69180    0.59800    0.61910    1.000
    N19      N        0.15420    0.73520    0.84540    1.000
    N20      N        0.38400    0.58730    0.63600    1.000
    N21      N        0.42750    0.51420    0.60960    1.000
    N22      N        0.40680    0.44690    0.65990    1.000
    N23      N        0.34830    0.47580    0.72190    1.000
    N24      N        0.44500    0.61710    0.44990    1.000
    N25      N        0.35740    0.63370    0.44220    1.000
    N26      N        0.27490    0.65170    0.43570    1.000
    Cu3      Cu       0.05029    0.81125    0.89760    1.000
    C25      C        0.41640    0.67710    0.23960    1.000
    H17      H        0.44030    0.61940    0.23750    1.000
    C26      C        0.34730    0.70560    0.17620    1.000
    H18      H        0.32510    0.66720    0.13230    1.000
    C27      C        0.31120    0.78990    0.17740    1.000
    C28      C        0.34560    0.84440    0.24530    1.000
    H19      H        0.32270    0.90220    0.24930    1.000
    C29      C        0.41410    0.81040    0.30580    1.000
    H20      H        0.43670    0.84690    0.35110    1.000
    C30      C        0.23680    0.82320    0.11340    1.000
    C31      C        0.68890    0.74200    0.26950    1.000
    H21      H        0.67090    0.68710    0.24660    1.000
    C32      C        0.74940    0.79530    0.22380    1.000
    H22      H        0.77350    0.77520    0.17230    1.000
    C33      C        0.77480    0.87800    0.25340    1.000
    C34      C        0.73890    0.90240    0.33250    1.000
    H23      H        0.75490    0.95720    0.35670    1.000
    C35      C        0.67960    0.84380    0.37380    1.000
    H24      H        0.65550    0.86150    0.42600    1.000
    C36      C        0.83620    0.93750    0.20570    1.000
    N27      N        0.45020    0.72910    0.30400    1.000
    N28      N        0.20570    0.77860    0.04210    1.000
    N29      N        0.13970    0.83330    0.00460    1.000
    N30      N        0.12860    0.90700    0.04870    1.000
    N31      N        0.19180    0.90200    0.11910    1.000
    N32      N        0.65420    0.76480    0.34540    1.000
    N33      N        0.88400    0.91270    0.13600    1.000
    N34      N        0.92750    0.98580    0.10960    1.000
    N35      N        0.90680    0.05310    0.15990    1.000
    N36      N        0.84830    0.02420    0.22190    1.000
    N37      N        0.94500    0.88290    0.94990    1.000
    N38      N        0.85740    0.86630    0.94220    1.000
    N39      N        0.77490    0.84830    0.93570    1.000
    Cu4      Cu       0.44971    0.31125    0.60240    1.000
    C37      C        0.08360    0.17710    0.26040    1.000
    H25      H        0.05970    0.11940    0.26250    1.000
    C38      C        0.15270    0.20560    0.32380    1.000
    H26      H        0.17490    0.16720    0.36770    1.000
    C39      C        0.18880    0.28990    0.32260    1.000
    C40      C        0.15440    0.34440    0.25470    1.000
    H27      H        0.17730    0.40220    0.25070    1.000
    C41      C        0.08590    0.31040    0.19420    1.000
    H28      H        0.06330    0.34690    0.14890    1.000
    C42      C        0.26320    0.32320    0.38660    1.000
    C43      C        0.81110    0.24200    0.23050    1.000
    H29      H        0.82910    0.18710    0.25340    1.000
    C44      C        0.75060    0.29530    0.27620    1.000
    H30      H        0.72650    0.27520    0.32770    1.000
    C45      C        0.72520    0.37800    0.24660    1.000
    C46      C        0.76110    0.40240    0.16750    1.000
    H31      H        0.74510    0.45720    0.14330    1.000
    C47      C        0.82040    0.34380    0.12620    1.000
    H32      H        0.84450    0.36150    0.07400    1.000
    C48      C        0.66380    0.43750    0.29430    1.000
    N40      N        0.04980    0.22910    0.19600    1.000
    N41      N        0.29430    0.27860    0.45790    1.000
    N42      N        0.36030    0.33330    0.49540    1.000
    N43      N        0.37140    0.40700    0.45130    1.000
    N44      N        0.30820    0.40200    0.38090    1.000
    N45      N        0.84580    0.26480    0.15460    1.000
    N46      N        0.61600    0.41270    0.36400    1.000
    N47      N        0.57250    0.48580    0.39040    1.000
    N48      N        0.59320    0.55310    0.34010    1.000
    N49      N        0.65170    0.52420    0.27810    1.000
    N50      N        0.55500    0.38290    0.55010    1.000
    N51      N        0.64260    0.36630    0.55780    1.000
    N52      N        0.72510    0.34830    0.56430    1.000
    Cu5      Cu       0.00000    0.00000    0.00000    1.000
    Cu6      Cu       0.50000    0.50000    0.50000    1.000
