# CIF file generated by openbabel 3.1.0, see https://openbabel.org
data_I
_chemical_name_common 'CIPCUB_clean'
_cell_length_a 13.4071
_cell_length_b 15.794
_cell_length_c 17.8147
_cell_angle_alpha 93.021
_cell_angle_beta 90
_cell_angle_gamma 90
_space_group_name_H-M_alt 'P 1'
_space_group_name_Hall 'P 1'
loop_
    _symmetry_equiv_pos_as_xyz
    x,y,z
loop_
    _atom_site_label
    _atom_site_type_symbol
    _atom_site_fract_x
    _atom_site_fract_y
    _atom_site_fract_z
    _atom_site_occupancy
    Cd1      Cd       0.01316    0.74651    0.26068    1.000
    Cd2      Cd       0.51316    0.25349    0.23932    1.000
    Ag1      Ag       0.26962    0.70157    0.63086    1.000
    Ag2      Ag       0.76962    0.29843    0.86914    1.000
    H1       H        0.12780    0.85550    0.39820    1.000
    H2       H        0.61780    0.08690    0.44010    1.000
    H3       H        0.73190    0.22690    0.03700    1.000
    H4       H        0.89180    0.57380    0.05440    1.000
    H5       H        0.47310    0.10260    0.67320    1.000
    H6       H        0.62780    0.14450    0.10180    1.000
    H7       H        0.80090    0.88590    0.43740    1.000
    H8       H        0.90120    0.95280    0.58480    1.000
    H9       H        0.97310    0.89740    0.82680    1.000
    H10      H        0.26350    0.98220    0.24820    1.000
    H11      H        0.58580    0.18400    0.61470    1.000
    H12      H        0.99050    0.91180    0.45920    1.000
    H13      H        0.70810    0.25560    0.68650    1.000
    H14      H        0.75700    0.50560    0.24350    1.000
    H15      H        0.11780    0.91310    0.05990    1.000
    H16      H        0.39930    0.05110    0.79080    1.000
    H17      H        0.23190    0.77310    0.46300    1.000
    H18      H        0.89930    0.94890    0.70920    1.000
    H19      H        0.08580    0.81600    0.88530    1.000
    H20      H        0.39180    0.42620    0.44560    1.000
    H21      H        0.40120    0.04720    0.91520    1.000
    H22      H        0.25700    0.49440    0.25650    1.000
    H23      H        0.30090    0.11410    0.06260    1.000
    H24      H        0.19750    0.61890    0.45250    1.000
    H25      H        0.69750    0.38110    0.04750    1.000
    H26      H        0.76350    0.01780    0.25180    1.000
    H27      H        0.20810    0.74440    0.81350    1.000
    H28      H        0.49050    0.08820    0.04080    1.000
    C1       C        0.59660    0.16950    0.89850    1.000
    C2       C        0.94830    0.91870    0.68210    1.000
    C3       C        0.14810    0.62280    0.30650    1.000
    C4       C        0.65980    0.04960    0.41310    1.000
    C5       C        0.63110    0.13220    0.29980    1.000
    C6       C        0.17950    0.80000    0.48870    1.000
    C7       C        0.33060    0.44750    0.34370    1.000
    C8       C        0.36580    0.11650    0.20610    1.000
    C9       C        0.11710    0.84760    0.44900    1.000
    C10      C        0.51770    0.12890    0.77870    1.000
    C11      C        0.01770    0.87110    0.72130    1.000
    C12      C        0.38580    0.37940    0.29930    1.000
    C13      C        0.15880    0.77430    0.78950    1.000
    C14      C        0.74900    0.00890    0.30180    1.000
    C15      C        0.71590    0.43530    0.15230    1.000
    C16      C        0.65880    0.22570    0.71050    1.000
    C17      C        0.09660    0.83050    0.60150    1.000
    C18      C        0.13110    0.86780    0.20020    1.000
    C19      C        0.59090    0.17600    0.81950    1.000
    C20      C        0.29450    0.05660    0.16320    1.000
    C21      C        0.52710    0.12110    0.93720    1.000
    C22      C        0.08690    0.81910    0.83330    1.000
    C23      C        0.23170    0.57680    0.42460    1.000
    C24      C        0.68150    0.06160    0.34080    1.000
    C25      C        0.53840    0.11660    0.01390    1.000
    C26      C        0.34790    0.46070    0.42080    1.000
    C27      C        0.70130    0.98020    0.44670    1.000
    C28      C        0.02710    0.87890    0.56280    1.000
    C29      C        0.79890    0.47460    0.04110    1.000
    C30      C        0.44830    0.08130    0.81790    1.000
    C31      C        0.24900    0.99110    0.19820    1.000
    C32      C        0.77040    0.92910    0.41220    1.000
    C33      C        0.95020    0.92210    0.60840    1.000
    C34      C        0.58690    0.18090    0.66670    1.000
    C35      C        0.20130    0.01980    0.05330    1.000
    C36      C        0.61710    0.15240    0.05100    1.000
    C37      C        0.67950    0.20000    0.01130    1.000
    C38      C        0.09090    0.82400    0.68050    1.000
    C39      C        0.45020    0.07790    0.89160    1.000
    C40      C        0.84790    0.53930    0.07920    1.000
    C41      C        0.03840    0.88340    0.48610    1.000
    C42      C        0.15980    0.95040    0.08690    1.000
    C43      C        0.26620    0.50140    0.30820    1.000
    C44      C        0.79450    0.94340    0.33680    1.000
    C45      C        0.51980    0.13340    0.70190    1.000
    C46      C        0.18150    0.93840    0.15920    1.000
    C47      C        0.86580    0.88350    0.29390    1.000
    C48      C        0.27040    0.07090    0.08780    1.000
    C49      C        0.21590    0.56470    0.34770    1.000
    C50      C        0.29890    0.52540    0.45890    1.000
    C51      C        0.73170    0.42320    0.07540    1.000
    C52      C        0.01980    0.86660    0.79810    1.000
    C53      C        0.76620    0.49860    0.19180    1.000
    C54      C        0.88580    0.62060    0.20070    1.000
    C55      C        0.83060    0.55250    0.15630    1.000
    C56      C        0.64810    0.37720    0.19350    1.000
    I1       I        0.83135    0.45598    0.92471    1.000
    I2       I        0.16028    0.04104    0.93957    1.000
    I3       I        0.33135    0.54402    0.57529    1.000
    I4       I        0.66028    0.95896    0.56043    1.000
    N1       N        0.67150    0.21150    0.93640    1.000
    N2       N        0.65830    0.22650    0.78400    1.000
    N3       N        0.15830    0.77350    0.71600    1.000
    N4       N        0.17150    0.78850    0.56360    1.000
    O1       O        0.40720    0.17290    0.16880    1.000
    O2       O        0.13880    0.61500    0.23830    1.000
    O3       O        0.42770    0.32170    0.33610    1.000
    O4       O        0.37760    0.10810    0.27480    1.000
    O5       O        0.63880    0.38500    0.26170    1.000
    O6       O        0.09230    0.80740    0.15840    1.000
    O7       O        0.90720    0.82710    0.33120    1.000
    O8       O        0.12450    0.87140    0.26780    1.000
    O9       O        0.60270    0.32070    0.15300    1.000
    O10      O        0.62450    0.12860    0.23220    1.000
    O11      O        0.59230    0.19260    0.34160    1.000
    O12      O        0.39270    0.38000    0.22890    1.000
    O13      O        0.87760    0.89190    0.22520    1.000
    O14      O        0.10270    0.67930    0.34700    1.000
    O15      O        0.89270    0.62000    0.27110    1.000
    O16      O        0.92770    0.67830    0.16390    1.000
    Cd3      Cd       0.48684    0.74651    0.76068    1.000
    Cd4      Cd       0.98684    0.25349    0.73932    1.000
    Ag3      Ag       0.73038    0.29843    0.36914    1.000
    Ag4      Ag       0.23038    0.70157    0.13086    1.000
    H29      H        0.30250    0.61890    0.95250    1.000
    H30      H        0.19910    0.11410    0.56260    1.000
    H31      H        0.10820    0.42620    0.94560    1.000
    H32      H        0.60820    0.57380    0.55440    1.000
    H33      H        0.76810    0.22690    0.53700    1.000
    H34      H        0.09880    0.04720    0.41520    1.000
    H35      H        0.69910    0.88590    0.93740    1.000
    H36      H        0.10070    0.05110    0.29080    1.000
    H37      H        0.37220    0.85550    0.89820    1.000
    H38      H        0.87220    0.14450    0.60180    1.000
    H39      H        0.29190    0.74440    0.31350    1.000
    H40      H        0.41420    0.81600    0.38530    1.000
    H41      H        0.23650    0.98220    0.74820    1.000
    H42      H        0.59880    0.95280    0.08480    1.000
    H43      H        0.88220    0.08690    0.94010    1.000
    H44      H        0.50950    0.91180    0.95920    1.000
    H45      H        0.73650    0.01780    0.75180    1.000
    H46      H        0.02690    0.10260    0.17320    1.000
    H47      H        0.00950    0.08820    0.54080    1.000
    H48      H        0.52690    0.89740    0.32680    1.000
    H49      H        0.60070    0.94890    0.20920    1.000
    H50      H        0.26810    0.77310    0.96300    1.000
    H51      H        0.80250    0.38110    0.54750    1.000
    H52      H        0.74300    0.50560    0.74350    1.000
    H53      H        0.91420    0.18400    0.11470    1.000
    H54      H        0.79190    0.25560    0.18650    1.000
    H55      H        0.24300    0.49440    0.75650    1.000
    H56      H        0.38220    0.91310    0.55990    1.000
    C57      C        0.32050    0.80000    0.98870    1.000
    C58      C        0.61420    0.62060    0.70070    1.000
    C59      C        0.35190    0.62280    0.80650    1.000
    C60      C        0.63420    0.88350    0.79390    1.000
    C61      C        0.79870    0.98020    0.94670    1.000
    C62      C        0.40910    0.82400    0.18050    1.000
    C63      C        0.28410    0.56470    0.84770    1.000
    C64      C        0.05170    0.08130    0.31790    1.000
    C65      C        0.54980    0.92210    0.10840    1.000
    C66      C        0.34020    0.95040    0.58690    1.000
    C67      C        0.22960    0.07090    0.58780    1.000
    C68      C        0.46160    0.88340    0.98610    1.000
    C69      C        0.98020    0.13340    0.20190    1.000
    C70      C        0.82050    0.20000    0.51130    1.000
    C71      C        0.84020    0.04960    0.91310    1.000
    C72      C        0.78410    0.43530    0.65230    1.000
    C73      C        0.76830    0.42320    0.57540    1.000
    C74      C        0.20550    0.05660    0.66320    1.000
    C75      C        0.11420    0.37940    0.79930    1.000
    C76      C        0.36890    0.86780    0.70020    1.000
    C77      C        0.04980    0.07790    0.39160    1.000
    C78      C        0.55170    0.91870    0.18210    1.000
    C79      C        0.15210    0.46070    0.92080    1.000
    C80      C        0.86890    0.13220    0.79980    1.000
    C81      C        0.48230    0.87110    0.22130    1.000
    C82      C        0.91310    0.18090    0.16670    1.000
    C83      C        0.98230    0.12890    0.27870    1.000
    C84      C        0.88290    0.15240    0.55100    1.000
    C85      C        0.13420    0.11650    0.70610    1.000
    C86      C        0.70110    0.47460    0.54110    1.000
    C87      C        0.41310    0.81910    0.33330    1.000
    C88      C        0.38290    0.84760    0.94900    1.000
    C89      C        0.75100    0.00890    0.80180    1.000
    C90      C        0.34120    0.77430    0.28950    1.000
    C91      C        0.90910    0.17600    0.31950    1.000
    C92      C        0.70550    0.94340    0.83680    1.000
    C93      C        0.47290    0.87890    0.06280    1.000
    C94      C        0.25100    0.99110    0.69820    1.000
    C95      C        0.72960    0.92910    0.91220    1.000
    C96      C        0.97290    0.12110    0.43720    1.000
    C97      C        0.90340    0.16950    0.39850    1.000
    C98      C        0.66940    0.55250    0.65630    1.000
    C99      C        0.23380    0.50140    0.80820    1.000
    C100     C        0.16940    0.44750    0.84370    1.000
    C101     C        0.48020    0.86660    0.29810    1.000
    C102     C        0.85190    0.37720    0.69350    1.000
    C103     C        0.84120    0.22570    0.21050    1.000
    C104     C        0.81850    0.06160    0.84080    1.000
    C105     C        0.31850    0.93840    0.65920    1.000
    C106     C        0.20110    0.52540    0.95890    1.000
    C107     C        0.96160    0.11660    0.51390    1.000
    C108     C        0.65210    0.53930    0.57920    1.000
    C109     C        0.26830    0.57680    0.92460    1.000
    C110     C        0.40340    0.83050    0.10150    1.000
    C111     C        0.73380    0.49860    0.69180    1.000
    C112     C        0.29870    0.01980    0.55330    1.000
    I5       I        0.83972    0.95896    0.06043    1.000
    I6       I        0.16865    0.54402    0.07529    1.000
    I7       I        0.33972    0.04104    0.43957    1.000
    I8       I        0.66865    0.45598    0.42471    1.000
    N5       N        0.82850    0.21150    0.43640    1.000
    N6       N        0.84170    0.22650    0.28400    1.000
    N7       N        0.32850    0.78850    0.06360    1.000
    N8       N        0.34170    0.77350    0.21600    1.000
    O17      O        0.37550    0.87140    0.76780    1.000
    O18      O        0.87550    0.12860    0.73220    1.000
    O19      O        0.36120    0.61500    0.73830    1.000
    O20      O        0.40770    0.80740    0.65840    1.000
    O21      O        0.09280    0.17290    0.66880    1.000
    O22      O        0.90770    0.19260    0.84160    1.000
    O23      O        0.12240    0.10810    0.77480    1.000
    O24      O        0.89730    0.32070    0.65300    1.000
    O25      O        0.57230    0.67830    0.66390    1.000
    O26      O        0.10730    0.38000    0.72890    1.000
    O27      O        0.60730    0.62000    0.77110    1.000
    O28      O        0.39730    0.67930    0.84700    1.000
    O29      O        0.62240    0.89190    0.72520    1.000
    O30      O        0.59280    0.82710    0.83120    1.000
    O31      O        0.86120    0.38500    0.76170    1.000
    O32      O        0.07230    0.32170    0.83610    1.000
