data_functionalizedCrystal
_audit_creation_method	'EQeq! by Chris Wilmer'
_symmetry_space_group_name_H-M	'P1'
_symmetry_Int_Tables_number	1
_symmetry_cell_setting	triclinic
loop_
_symmetry_equiv_pos_as_xyz
  x,y,z
_cell_length_a	7.3192
_cell_length_b	7.3192
_cell_length_c	24.381
_cell_angle_alpha	90
_cell_angle_beta	90
_cell_angle_gamma	120
loop_
_atom_site_label
_atom_site_type_symbol
_atom_site_fract_x
_atom_site_fract_y
_atom_site_fract_z
_atom_site_charge
Mof_O 	O 	0.3381	0.4514	0.13246	-0.358
Mof_O 	O 	0.9212	0.2979	0.9644	-0.3
Mof_O 	O 	0.1409	0.4195	0.03423	-0.349
Mof_C 	C 	0.0314	0.4311	0.999	0.42
Mof_H 	H 	0.0296	0.5572	0.9978	-0.079
Mof_O 	O 	0.5486	0.8867	0.46579	-0.321
Mof_O 	O 	0.7021	0.6233	0.29773	-0.323
Mof_O 	O 	0.5805	0.7214	0.36756	-0.331
Mof_C 	C 	0.5689	0.6003	0.33233	0.451
Mof_H 	H 	0.4428	0.4724	0.33113	-0.087
Mof_O 	O 	0.1133	0.6619	0.79913	-0.342
Mof_O 	O 	0.3767	0.0788	0.63107	-0.355
Mof_O 	O 	0.2786	0.8591	0.7009	-0.349
Mof_C 	C 	0.3997	0.9686	0.66567	0.483
Mof_H 	H 	0.5276	0.9704	0.66447	-0.088
Mof_O 	O 	0.6619	0.5486	0.63246	-0.346
Mof_O 	O 	0.0788	0.7021	0.4644	-0.348
Mof_O 	O 	0.8591	0.5805	0.53423	-0.342
Mof_C 	C 	0.9686	0.5689	0.499	0.482
Mof_H 	H 	0.9704	0.4428	0.4978	-0.09
Mof_O 	O 	0.4514	0.1133	0.96579	-0.333
Mof_O 	O 	0.2979	0.3767	0.79773	-0.337
Mof_O 	O 	0.4195	0.2786	0.86756	-0.346
Mof_C 	C 	0.4311	0.3997	0.83233	0.451
Mof_H 	H 	0.5572	0.5276	0.83113	-0.082
Mof_O 	O 	0.8867	0.3381	0.29913	-0.329
Mof_O 	O 	0.6233	0.9212	0.13107	-0.294
Mof_O 	O 	0.7214	0.1409	0.2009	-0.327
Mof_C 	C 	0.6003	0.0314	0.16567	0.398
Mof_H 	H 	0.4724	0.0296	0.16447	-0.078
Mof_O 	O 	0.4514	0.3381	0.20087	-0.359
Mof_O 	O 	0.2979	0.9212	0.36893	-0.3
Mof_O 	O 	0.4195	0.1409	0.2991	-0.335
Mof_C 	C 	0.4311	0.0314	0.33433	0.398
Mof_H 	H 	0.5572	0.0296	0.33553	-0.075
Mof_O 	O 	0.8867	0.5486	0.86754	-0.32
Mof_O 	O 	0.6233	0.7021	0.0356	-0.319
Mof_O 	O 	0.7214	0.5805	0.96577	-0.316
Mof_C 	C 	0.6003	0.5689	0.001	0.426
Mof_H 	H 	0.4724	0.4428	0.0022	-0.083
Mof_O 	O 	0.6619	0.1133	0.53421	-0.343
Mof_O 	O 	0.0788	0.3767	0.70227	-0.356
Mof_O 	O 	0.8591	0.2786	0.63244	-0.349
Mof_C 	C 	0.9686	0.3997	0.66767	0.485
Mof_H 	H 	0.9704	0.5276	0.66887	-0.088
Mof_O 	O 	0.5486	0.6619	0.70087	-0.346
Mof_O 	O 	0.7021	0.0788	0.86893	-0.345
Mof_O 	O 	0.5805	0.8591	0.7991	-0.341
Mof_C 	C 	0.5689	0.9686	0.83433	0.48
Mof_H 	H 	0.4428	0.9704	0.83553	-0.089
Mof_O 	O 	0.1133	0.4514	0.36754	-0.349
Mof_O 	O 	0.3767	0.2979	0.5356	-0.337
Mof_O 	O 	0.2786	0.4195	0.46577	-0.347
Mof_C 	C 	0.3997	0.4311	0.501	0.451
Mof_H 	H 	0.5276	0.5572	0.5022	-0.082
Mof_O 	O 	0.3381	0.8867	0.03421	-0.325
Mof_O 	O 	0.9212	0.6233	0.20227	-0.293
Mof_O 	O 	0.1409	0.7214	0.13244	-0.328
Mof_C 	C 	0.0314	0.6003	0.16767	0.399
Mof_H 	H 	0.0296	0.4724	0.16887	-0.078
Mof_Cu	Cu	0.36459	0.6823	0.08333	0.957
Mof_Cu	Cu	0.3177	0.68229	0.41667	0.958
Mof_Cu	Cu	0.31771	0.63541	0.75	0.959
Mof_Cu	Cu	0.63541	0.3177	0.58333	0.959
Mof_Cu	Cu	0.6823	0.3177	0.91667	0.958
Mof_Cu	Cu	0.68229	0.36459	0.25	0.958
Mof_C 	C 	0.4727	0.4727	0.16667	0.441
Mof_H 	H 	0.5997	0.5997	0.16667	-0.081
Mof_C 	C 	0.5273	-4.46345e-32	0.5	0.394
Mof_H 	H 	0.4003	-4.46345e-32	0.5	-0.078
Mof_C 	C 	6.20816e-17	0.5273	0.83333	0.393
Mof_H 	H 	1.18276e-17	0.4003	0.83333	-0.078
Mof_C 	C 	0.5273	0.5273	0.66667	0.437
Mof_H 	H 	0.4003	0.4003	0.66667	-0.086
Mof_C 	C 	0.4727	0	-0	0.374
Mof_H 	H 	0.5997	0	-0	-0.073
Mof_C 	C 	1.47827e-17	0.4727	0.33333	0.398
Mof_H 	H 	6.50367e-17	0.5997	0.33333	-0.077
_end
