# CIF file generated by openbabel 3.1.0, see https://openbabel.org
data_I
_chemical_name_common 'image0'
_cell_length_a 34.9245
_cell_length_b 14.9263
_cell_length_c 29.7839
_cell_angle_alpha 90
_cell_angle_beta 101.228
_cell_angle_gamma 90
_space_group_name_H-M_alt 'P 1'
_space_group_name_Hall 'P 1'
loop_
    _symmetry_equiv_pos_as_xyz
    x,y,z
loop_
    _atom_site_label
    _atom_site_type_symbol
    _atom_site_fract_x
    _atom_site_fract_y
    _atom_site_fract_z
    _atom_site_occupancy
    Zn1      Zn       0.92093    0.63095    0.90887    1.000
    I1       I        0.88566    0.74368    0.94919    1.000
    I2       I        0.97514    0.65440    0.86524    1.000
    N1       N        0.88023    0.55950    0.86222    1.000
    C1       C        0.85079    0.59800    0.83500    1.000
    H1       H        0.84530    0.65910    0.84030    1.000
    C2       C        0.82747    0.55430    0.79930    1.000
    H2       H        0.80680    0.58510    0.78000    1.000
    C3       C        0.83439    0.46510    0.79160    1.000
    C4       C        0.86400    0.42350    0.82190    1.000
    H3       H        0.86880    0.36130    0.81930    1.000
    C5       C        0.88620    0.47290    0.85550    1.000
    H4       H        0.90710    0.44400    0.87540    1.000
    N2       N        0.66997    0.53590    0.60208    1.000
    C6       C        0.69018    0.57800    0.63850    1.000
    H5       H        0.68370    0.63820    0.64410    1.000
    C7       C        0.71998    0.53780    0.66830    1.000
    H6       H        0.73430    0.57030    0.69350    1.000
    C8       C        0.72910    0.44850    0.66140    1.000
    C9       C        0.70817    0.40440    0.62370    1.000
    H7       H        0.71370    0.34370    0.61780    1.000
    C10      C        0.67893    0.45060    0.59460    1.000
    H8       H        0.66470    0.42060    0.56850    1.000
    N3       N        0.81447    0.99930    0.72257    1.000
    C11      C        0.84050    0.05490    0.74740    1.000
    H9       H        0.86260    0.03030    0.76730    1.000
    C12      C        0.83610    0.14750    0.74490    1.000
    H10      H        0.85530    0.18570    0.76200    1.000
    C13      C        0.80346    0.18290    0.71710    1.000
    C14      C        0.77735    0.12550    0.69120    1.000
    H11      H        0.75510    0.14820    0.67080    1.000
    C15      C        0.78378    0.03390    0.69530    1.000
    H12      H        0.76530    0.99460    0.67770    1.000
    C16      C        0.81071    0.41330    0.75385    1.000
    N4       N        0.78123    0.45450    0.72688    1.000
    C17      C        0.76141    0.40360    0.69362    1.000
    N5       N        0.76738    0.31660    0.68708    1.000
    C18      C        0.79682    0.28160    0.71770    1.000
    N6       N        0.82037    0.32680    0.75010    1.000
    N7       N        0.58103    0.51350    0.55293    1.000
    C19      C        0.56740    0.50140    0.59110    1.000
    H13      H        0.57990    0.53140    0.61820    1.000
    C20      C        0.53580    0.44670    0.59310    1.000
    H14      H        0.52610    0.44040    0.62070    1.000
    C21      C        0.51859    0.40130    0.55360    1.000
    C22      C        0.53331    0.41180    0.51480    1.000
    H15      H        0.52190    0.38060    0.48760    1.000
    C23      C        0.56502    0.46820    0.51490    1.000
    H16      H        0.57540    0.47470    0.48790    1.000
    N8       N        0.35999    0.34390    0.68139    1.000
    C24      C        0.39290    0.39020    0.68460    1.000
    H17      H        0.39900    0.43410    0.70810    1.000
    C25      C        0.41860    0.37730    0.65540    1.000
    H18      H        0.44200    0.41130    0.65880    1.000
    C26      C        0.40981    0.31420    0.62120    1.000
    C27      C        0.37500    0.26660    0.61720    1.000
    H19      H        0.36780    0.22280    0.59390    1.000
    C28      C        0.35110    0.28480    0.64800    1.000
    H20      H        0.32720    0.25320    0.64510    1.000
    N9       N        0.43837    0.97290    0.45486    1.000
    C29      C        0.46636    0.03140    0.45064    1.000
    H21      H        0.48280    0.01840    0.42950    1.000
    C30      C        0.47257    0.10940    0.47538    1.000
    H22      H        0.49270    0.14960    0.47120    1.000
    C31      C        0.44901    0.12830    0.50644    1.000
    C32      C        0.42110    0.06670    0.51280    1.000
    H23      H        0.40520    0.07750    0.53470    1.000
    C33      C        0.41650    0.98960    0.48720    1.000
    H24      H        0.39770    0.94680    0.49210    1.000
    C34      C        0.48563    0.33980    0.55579    1.000
    N10      N        0.46410    0.35660    0.58718    1.000
    C35      C        0.43576    0.29820    0.58850    1.000
    N11      N        0.42955    0.22340    0.56277    1.000
    C36      C        0.45327    0.21320    0.53343    1.000
    Zn2      Zn       0.62718    0.60060    0.55617    1.000
    N12      N        0.48094    0.27080    0.52677    1.000
    Zn3      Zn       0.82640    0.86350    0.73010    1.000
    I3       I        0.60689    0.73858    0.59365    1.000
    I4       I        0.65064    0.58931    0.48145    1.000
    I5       I        0.76497    0.77170    0.70192    1.000
    I6       I        0.86745    0.84268    0.80924    1.000
    Zn4      Zn       0.63010    0.59610    0.55090    1.000
    I7       I        0.61610    0.74240    0.58380    1.000
    I8       I        0.65270    0.57320    0.47440    1.000
    Zn5      Zn       0.82020    0.86100    0.72440    1.000
    I9       I        0.75690    0.78690    0.69090    1.000
    I10      I        0.86390    0.83210    0.79840    1.000
    Zn6      Zn       0.42093    0.13095    0.90887    1.000
    I11      I        0.38566    0.24368    0.94919    1.000
    I12      I        0.47514    0.15440    0.86524    1.000
    N13      N        0.38023    0.05950    0.86222    1.000
    C37      C        0.35079    0.09800    0.83500    1.000
    H25      H        0.34530    0.15910    0.84030    1.000
    C38      C        0.32747    0.05430    0.79930    1.000
    H26      H        0.30680    0.08510    0.78000    1.000
    C39      C        0.33439    0.96510    0.79160    1.000
    C40      C        0.36400    0.92350    0.82190    1.000
    H27      H        0.36880    0.86130    0.81930    1.000
    C41      C        0.38620    0.97290    0.85550    1.000
    H28      H        0.40710    0.94400    0.87540    1.000
    N14      N        0.16997    0.03590    0.60208    1.000
    C42      C        0.19018    0.07800    0.63850    1.000
    H29      H        0.18370    0.13820    0.64410    1.000
    C43      C        0.21998    0.03780    0.66830    1.000
    H30      H        0.23430    0.07030    0.69350    1.000
    C44      C        0.22910    0.94850    0.66140    1.000
    C45      C        0.20817    0.90440    0.62370    1.000
    H31      H        0.21370    0.84370    0.61780    1.000
    C46      C        0.17893    0.95060    0.59460    1.000
    H32      H        0.16470    0.92060    0.56850    1.000
    N15      N        0.31447    0.49930    0.72257    1.000
    C47      C        0.34050    0.55490    0.74740    1.000
    H33      H        0.36260    0.53030    0.76730    1.000
    C48      C        0.33610    0.64750    0.74490    1.000
    H34      H        0.35530    0.68570    0.76200    1.000
    C49      C        0.30346    0.68290    0.71710    1.000
    C50      C        0.27735    0.62550    0.69120    1.000
    H35      H        0.25510    0.64820    0.67080    1.000
    C51      C        0.28378    0.53390    0.69530    1.000
    H36      H        0.26530    0.49460    0.67770    1.000
    C52      C        0.31071    0.91330    0.75385    1.000
    N16      N        0.28123    0.95450    0.72688    1.000
    C53      C        0.26141    0.90360    0.69362    1.000
    N17      N        0.26738    0.81660    0.68708    1.000
    C54      C        0.29682    0.78160    0.71770    1.000
    N18      N        0.32037    0.82680    0.75010    1.000
    N19      N        0.08103    0.01350    0.55293    1.000
    C55      C        0.06740    0.00140    0.59110    1.000
    H37      H        0.07990    0.03140    0.61820    1.000
    C56      C        0.03580    0.94670    0.59310    1.000
    H38      H        0.02610    0.94040    0.62070    1.000
    C57      C        0.01859    0.90130    0.55360    1.000
    C58      C        0.03331    0.91180    0.51480    1.000
    H39      H        0.02190    0.88060    0.48760    1.000
    C59      C        0.06502    0.96820    0.51490    1.000
    H40      H        0.07540    0.97470    0.48790    1.000
    N20      N        0.85999    0.84390    0.68139    1.000
    C60      C        0.89290    0.89020    0.68460    1.000
    H41      H        0.89900    0.93410    0.70810    1.000
    C61      C        0.91860    0.87730    0.65540    1.000
    H42      H        0.94200    0.91130    0.65880    1.000
    C62      C        0.90981    0.81420    0.62120    1.000
    C63      C        0.87500    0.76660    0.61720    1.000
    H43      H        0.86780    0.72280    0.59390    1.000
    C64      C        0.85110    0.78480    0.64800    1.000
    H44      H        0.82720    0.75320    0.64510    1.000
    N21      N        0.93837    0.47290    0.45486    1.000
    C65      C        0.96636    0.53140    0.45064    1.000
    H45      H        0.98280    0.51840    0.42950    1.000
    C66      C        0.97257    0.60940    0.47538    1.000
    H46      H        0.99270    0.64960    0.47120    1.000
    C67      C        0.94901    0.62830    0.50644    1.000
    C68      C        0.92110    0.56670    0.51280    1.000
    H47      H        0.90520    0.57750    0.53470    1.000
    C69      C        0.91650    0.48960    0.48720    1.000
    H48      H        0.89770    0.44680    0.49210    1.000
    C70      C        0.98563    0.83980    0.55579    1.000
    N22      N        0.96410    0.85660    0.58718    1.000
    C71      C        0.93576    0.79820    0.58850    1.000
    N23      N        0.92955    0.72340    0.56277    1.000
    C72      C        0.95327    0.71320    0.53343    1.000
    Zn7      Zn       0.12718    0.10060    0.55617    1.000
    N24      N        0.98094    0.77080    0.52677    1.000
    Zn8      Zn       0.32640    0.36350    0.73010    1.000
    I13      I        0.10689    0.23858    0.59365    1.000
    I14      I        0.15064    0.08931    0.48145    1.000
    I15      I        0.26497    0.27170    0.70192    1.000
    I16      I        0.36745    0.34268    0.80924    1.000
    Zn9      Zn       0.13010    0.09610    0.55090    1.000
    I17      I        0.11610    0.24240    0.58380    1.000
    I18      I        0.15270    0.07320    0.47440    1.000
    Zn10     Zn       0.32020    0.36100    0.72440    1.000
    I19      I        0.25690    0.28690    0.69090    1.000
    I20      I        0.36390    0.33210    0.79840    1.000
    Zn11     Zn       0.92093    0.36905    0.40887    1.000
    I21      I        0.88566    0.25632    0.44919    1.000
    I22      I        0.97514    0.34560    0.36524    1.000
    N25      N        0.88023    0.44050    0.36222    1.000
    C73      C        0.85079    0.40200    0.33500    1.000
    H49      H        0.84530    0.34090    0.34030    1.000
    C74      C        0.82747    0.44570    0.29930    1.000
    H50      H        0.80680    0.41490    0.28000    1.000
    C75      C        0.83439    0.53490    0.29160    1.000
    C76      C        0.86400    0.57650    0.32190    1.000
    H51      H        0.86880    0.63870    0.31930    1.000
    C77      C        0.88620    0.52710    0.35550    1.000
    H52      H        0.90710    0.55600    0.37540    1.000
    N26      N        0.66997    0.46410    0.10208    1.000
    C78      C        0.69018    0.42200    0.13850    1.000
    H53      H        0.68370    0.36180    0.14410    1.000
    C79      C        0.71998    0.46220    0.16830    1.000
    H54      H        0.73430    0.42970    0.19350    1.000
    C80      C        0.72910    0.55150    0.16140    1.000
    C81      C        0.70817    0.59560    0.12370    1.000
    H55      H        0.71370    0.65630    0.11780    1.000
    C82      C        0.67893    0.54940    0.09460    1.000
    H56      H        0.66470    0.57940    0.06850    1.000
    N27      N        0.81447    0.00070    0.22257    1.000
    C83      C        0.84050    0.94510    0.24740    1.000
    H57      H        0.86260    0.96970    0.26730    1.000
    C84      C        0.83610    0.85250    0.24490    1.000
    H58      H        0.85530    0.81430    0.26200    1.000
    C85      C        0.80346    0.81710    0.21710    1.000
    C86      C        0.77735    0.87450    0.19120    1.000
    H59      H        0.75510    0.85180    0.17080    1.000
    C87      C        0.78378    0.96610    0.19530    1.000
    H60      H        0.76530    0.00540    0.17770    1.000
    C88      C        0.81071    0.58670    0.25385    1.000
    N28      N        0.78123    0.54550    0.22688    1.000
    C89      C        0.76141    0.59640    0.19362    1.000
    N29      N        0.76738    0.68340    0.18708    1.000
    C90      C        0.79682    0.71840    0.21770    1.000
    N30      N        0.82037    0.67320    0.25010    1.000
    N31      N        0.58103    0.48650    0.05293    1.000
    C91      C        0.56740    0.49860    0.09110    1.000
    H61      H        0.57990    0.46860    0.11820    1.000
    C92      C        0.53580    0.55330    0.09310    1.000
    H62      H        0.52610    0.55960    0.12070    1.000
    C93      C        0.51859    0.59870    0.05360    1.000
    C94      C        0.53331    0.58820    0.01480    1.000
    H63      H        0.52190    0.61940    0.98760    1.000
    C95      C        0.56502    0.53180    0.01490    1.000
    H64      H        0.57540    0.52530    0.98790    1.000
    N32      N        0.35999    0.65610    0.18139    1.000
    C96      C        0.39290    0.60980    0.18460    1.000
    H65      H        0.39900    0.56590    0.20810    1.000
    C97      C        0.41860    0.62270    0.15540    1.000
    H66      H        0.44200    0.58870    0.15880    1.000
    C98      C        0.40981    0.68580    0.12120    1.000
    C99      C        0.37500    0.73340    0.11720    1.000
    H67      H        0.36780    0.77720    0.09390    1.000
    C100     C        0.35110    0.71520    0.14800    1.000
    H68      H        0.32720    0.74680    0.14510    1.000
    N33      N        0.43837    0.02710    0.95486    1.000
    C101     C        0.46636    0.96860    0.95064    1.000
    H69      H        0.48280    0.98160    0.92950    1.000
    C102     C        0.47257    0.89060    0.97538    1.000
    H70      H        0.49270    0.85040    0.97120    1.000
    C103     C        0.44901    0.87170    0.00644    1.000
    C104     C        0.42110    0.93330    0.01280    1.000
    H71      H        0.40520    0.92250    0.03470    1.000
    C105     C        0.41650    0.01040    0.98720    1.000
    H72      H        0.39770    0.05320    0.99210    1.000
    C106     C        0.48563    0.66020    0.05579    1.000
    N34      N        0.46410    0.64340    0.08718    1.000
    C107     C        0.43576    0.70180    0.08850    1.000
    N35      N        0.42955    0.77660    0.06277    1.000
    C108     C        0.45327    0.78680    0.03343    1.000
    Zn12     Zn       0.62718    0.39940    0.05617    1.000
    N36      N        0.48094    0.72920    0.02677    1.000
    Zn13     Zn       0.82640    0.13650    0.23010    1.000
    I23      I        0.60689    0.26142    0.09365    1.000
    I24      I        0.65064    0.41069    0.98145    1.000
    I25      I        0.76497    0.22830    0.20192    1.000
    I26      I        0.86745    0.15732    0.30924    1.000
    Zn14     Zn       0.63010    0.40390    0.05090    1.000
    I27      I        0.61610    0.25760    0.08380    1.000
    I28      I        0.65270    0.42680    0.97440    1.000
    Zn15     Zn       0.82020    0.13900    0.22440    1.000
    I29      I        0.75690    0.21310    0.19090    1.000
    I30      I        0.86390    0.16790    0.29840    1.000
    Zn16     Zn       0.42093    0.86905    0.40887    1.000
    I31      I        0.38566    0.75632    0.44919    1.000
    I32      I        0.47514    0.84560    0.36524    1.000
    N37      N        0.38023    0.94050    0.36222    1.000
    C109     C        0.35079    0.90200    0.33500    1.000
    H73      H        0.34530    0.84090    0.34030    1.000
    C110     C        0.32747    0.94570    0.29930    1.000
    H74      H        0.30680    0.91490    0.28000    1.000
    C111     C        0.33439    0.03490    0.29160    1.000
    C112     C        0.36400    0.07650    0.32190    1.000
    H75      H        0.36880    0.13870    0.31930    1.000
    C113     C        0.38620    0.02710    0.35550    1.000
    H76      H        0.40710    0.05600    0.37540    1.000
    N38      N        0.16997    0.96410    0.10208    1.000
    C114     C        0.19018    0.92200    0.13850    1.000
    H77      H        0.18370    0.86180    0.14410    1.000
    C115     C        0.21998    0.96220    0.16830    1.000
    H78      H        0.23430    0.92970    0.19350    1.000
    C116     C        0.22910    0.05150    0.16140    1.000
    C117     C        0.20817    0.09560    0.12370    1.000
    H79      H        0.21370    0.15630    0.11780    1.000
    C118     C        0.17893    0.04940    0.09460    1.000
    H80      H        0.16470    0.07940    0.06850    1.000
    N39      N        0.31447    0.50070    0.22257    1.000
    C119     C        0.34050    0.44510    0.24740    1.000
    H81      H        0.36260    0.46970    0.26730    1.000
    C120     C        0.33610    0.35250    0.24490    1.000
    H82      H        0.35530    0.31430    0.26200    1.000
    C121     C        0.30346    0.31710    0.21710    1.000
    C122     C        0.27735    0.37450    0.19120    1.000
    H83      H        0.25510    0.35180    0.17080    1.000
    C123     C        0.28378    0.46610    0.19530    1.000
    H84      H        0.26530    0.50540    0.17770    1.000
    C124     C        0.31071    0.08670    0.25385    1.000
    N40      N        0.28123    0.04550    0.22688    1.000
    C125     C        0.26141    0.09640    0.19362    1.000
    N41      N        0.26738    0.18340    0.18708    1.000
    C126     C        0.29682    0.21840    0.21770    1.000
    N42      N        0.32037    0.17320    0.25010    1.000
    N43      N        0.08103    0.98650    0.05293    1.000
    C127     C        0.06740    0.99860    0.09110    1.000
    H85      H        0.07990    0.96860    0.11820    1.000
    C128     C        0.03580    0.05330    0.09310    1.000
    H86      H        0.02610    0.05960    0.12070    1.000
    C129     C        0.01859    0.09870    0.05360    1.000
    C130     C        0.03331    0.08820    0.01480    1.000
    H87      H        0.02190    0.11940    0.98760    1.000
    C131     C        0.06502    0.03180    0.01490    1.000
    H88      H        0.07540    0.02530    0.98790    1.000
    N44      N        0.85999    0.15610    0.18139    1.000
    C132     C        0.89290    0.10980    0.18460    1.000
    H89      H        0.89900    0.06590    0.20810    1.000
    C133     C        0.91860    0.12270    0.15540    1.000
    H90      H        0.94200    0.08870    0.15880    1.000
    C134     C        0.90981    0.18580    0.12120    1.000
    C135     C        0.87500    0.23340    0.11720    1.000
    H91      H        0.86780    0.27720    0.09390    1.000
    C136     C        0.85110    0.21520    0.14800    1.000
    H92      H        0.82720    0.24680    0.14510    1.000
    N45      N        0.93837    0.52710    0.95486    1.000
    C137     C        0.96636    0.46860    0.95064    1.000
    H93      H        0.98280    0.48160    0.92950    1.000
    C138     C        0.97257    0.39060    0.97538    1.000
    H94      H        0.99270    0.35040    0.97120    1.000
    C139     C        0.94901    0.37170    0.00644    1.000
    C140     C        0.92110    0.43330    0.01280    1.000
    H95      H        0.90520    0.42250    0.03470    1.000
    C141     C        0.91650    0.51040    0.98720    1.000
    H96      H        0.89770    0.55320    0.99210    1.000
    C142     C        0.98563    0.16020    0.05579    1.000
    N46      N        0.96410    0.14340    0.08718    1.000
    C143     C        0.93576    0.20180    0.08850    1.000
    N47      N        0.92955    0.27660    0.06277    1.000
    C144     C        0.95327    0.28680    0.03343    1.000
    Zn17     Zn       0.12718    0.89940    0.05617    1.000
    N48      N        0.98094    0.22920    0.02677    1.000
    Zn18     Zn       0.32640    0.63650    0.23010    1.000
    I33      I        0.10689    0.76142    0.09365    1.000
    I34      I        0.15064    0.91069    0.98145    1.000
    I35      I        0.26497    0.72830    0.20192    1.000
    I36      I        0.36745    0.65732    0.30924    1.000
    Zn19     Zn       0.13010    0.90390    0.05090    1.000
    I37      I        0.11610    0.75760    0.08380    1.000
    I38      I        0.15270    0.92680    0.97440    1.000
    Zn20     Zn       0.32020    0.63900    0.22440    1.000
    I39      I        0.25690    0.71310    0.19090    1.000
    I40      I        0.36390    0.66790    0.29840    1.000
    Zn21     Zn       0.07907    0.63095    0.59113    1.000
    I41      I        0.11434    0.74368    0.55081    1.000
    I42      I        0.02486    0.65440    0.63476    1.000
    N49      N        0.11977    0.55950    0.63778    1.000
    C145     C        0.14921    0.59800    0.66500    1.000
    H97      H        0.15470    0.65910    0.65970    1.000
    C146     C        0.17253    0.55430    0.70070    1.000
    H98      H        0.19320    0.58510    0.72000    1.000
    C147     C        0.16561    0.46510    0.70840    1.000
    C148     C        0.13600    0.42350    0.67810    1.000
    H99      H        0.13120    0.36130    0.68070    1.000
    C149     C        0.11380    0.47290    0.64450    1.000
    H100     H        0.09290    0.44400    0.62460    1.000
    N50      N        0.33003    0.53590    0.89792    1.000
    C150     C        0.30982    0.57800    0.86150    1.000
    H101     H        0.31630    0.63820    0.85590    1.000
    C151     C        0.28002    0.53780    0.83170    1.000
    H102     H        0.26570    0.57030    0.80650    1.000
    C152     C        0.27090    0.44850    0.83860    1.000
    C153     C        0.29183    0.40440    0.87630    1.000
    H103     H        0.28630    0.34370    0.88220    1.000
    C154     C        0.32107    0.45060    0.90540    1.000
    H104     H        0.33530    0.42060    0.93150    1.000
    N51      N        0.18553    0.99930    0.77743    1.000
    C155     C        0.15950    0.05490    0.75260    1.000
    H105     H        0.13740    0.03030    0.73270    1.000
    C156     C        0.16390    0.14750    0.75510    1.000
    H106     H        0.14470    0.18570    0.73800    1.000
    C157     C        0.19654    0.18290    0.78290    1.000
    C158     C        0.22265    0.12550    0.80880    1.000
    H107     H        0.24490    0.14820    0.82920    1.000
    C159     C        0.21622    0.03390    0.80470    1.000
    H108     H        0.23470    0.99460    0.82230    1.000
    C160     C        0.18929    0.41330    0.74615    1.000
    N52      N        0.21877    0.45450    0.77312    1.000
    C161     C        0.23859    0.40360    0.80638    1.000
    N53      N        0.23262    0.31660    0.81292    1.000
    C162     C        0.20318    0.28160    0.78230    1.000
    N54      N        0.17963    0.32680    0.74990    1.000
    N55      N        0.41897    0.51350    0.94707    1.000
    C163     C        0.43260    0.50140    0.90890    1.000
    H109     H        0.42010    0.53140    0.88180    1.000
    C164     C        0.46420    0.44670    0.90690    1.000
    H110     H        0.47390    0.44040    0.87930    1.000
    C165     C        0.48141    0.40130    0.94640    1.000
    C166     C        0.46669    0.41180    0.98520    1.000
    H111     H        0.47810    0.38060    0.01240    1.000
    C167     C        0.43498    0.46820    0.98510    1.000
    H112     H        0.42460    0.47470    0.01210    1.000
    N56      N        0.64001    0.34390    0.81861    1.000
    C168     C        0.60710    0.39020    0.81540    1.000
    H113     H        0.60100    0.43410    0.79190    1.000
    C169     C        0.58140    0.37730    0.84460    1.000
    H114     H        0.55800    0.41130    0.84120    1.000
    C170     C        0.59019    0.31420    0.87880    1.000
    C171     C        0.62500    0.26660    0.88280    1.000
    H115     H        0.63220    0.22280    0.90610    1.000
    C172     C        0.64890    0.28480    0.85200    1.000
    H116     H        0.67280    0.25320    0.85490    1.000
    N57      N        0.56163    0.97290    0.04514    1.000
    C173     C        0.53364    0.03140    0.04936    1.000
    H117     H        0.51720    0.01840    0.07050    1.000
    C174     C        0.52743    0.10940    0.02462    1.000
    H118     H        0.50730    0.14960    0.02880    1.000
    C175     C        0.55099    0.12830    0.99356    1.000
    C176     C        0.57890    0.06670    0.98720    1.000
    H119     H        0.59480    0.07750    0.96530    1.000
    C177     C        0.58350    0.98960    0.01280    1.000
    H120     H        0.60230    0.94680    0.00790    1.000
    C178     C        0.51437    0.33980    0.94421    1.000
    N58      N        0.53590    0.35660    0.91282    1.000
    C179     C        0.56424    0.29820    0.91150    1.000
    N59      N        0.57045    0.22340    0.93723    1.000
    C180     C        0.54673    0.21320    0.96657    1.000
    Zn22     Zn       0.37282    0.60060    0.94383    1.000
    N60      N        0.51906    0.27080    0.97323    1.000
    Zn23     Zn       0.17360    0.86350    0.76990    1.000
    I43      I        0.39311    0.73858    0.90635    1.000
    I44      I        0.34936    0.58931    0.01855    1.000
    I45      I        0.23503    0.77170    0.79808    1.000
    I46      I        0.13255    0.84268    0.69076    1.000
    Zn24     Zn       0.36990    0.59610    0.94910    1.000
    I47      I        0.38390    0.74240    0.91620    1.000
    I48      I        0.34730    0.57320    0.02560    1.000
    Zn25     Zn       0.17980    0.86100    0.77560    1.000
    I49      I        0.24310    0.78690    0.80910    1.000
    I50      I        0.13610    0.83210    0.70160    1.000
    Zn26     Zn       0.57907    0.13095    0.59113    1.000
    I51      I        0.61434    0.24368    0.55081    1.000
    I52      I        0.52486    0.15440    0.63476    1.000
    N61      N        0.61977    0.05950    0.63778    1.000
    C181     C        0.64921    0.09800    0.66500    1.000
    H121     H        0.65470    0.15910    0.65970    1.000
    C182     C        0.67253    0.05430    0.70070    1.000
    H122     H        0.69320    0.08510    0.72000    1.000
    C183     C        0.66561    0.96510    0.70840    1.000
    C184     C        0.63600    0.92350    0.67810    1.000
    H123     H        0.63120    0.86130    0.68070    1.000
    C185     C        0.61380    0.97290    0.64450    1.000
    H124     H        0.59290    0.94400    0.62460    1.000
    N62      N        0.83003    0.03590    0.89792    1.000
    C186     C        0.80982    0.07800    0.86150    1.000
    H125     H        0.81630    0.13820    0.85590    1.000
    C187     C        0.78002    0.03780    0.83170    1.000
    H126     H        0.76570    0.07030    0.80650    1.000
    C188     C        0.77090    0.94850    0.83860    1.000
    C189     C        0.79183    0.90440    0.87630    1.000
    H127     H        0.78630    0.84370    0.88220    1.000
    C190     C        0.82107    0.95060    0.90540    1.000
    H128     H        0.83530    0.92060    0.93150    1.000
    N63      N        0.68553    0.49930    0.77743    1.000
    C191     C        0.65950    0.55490    0.75260    1.000
    H129     H        0.63740    0.53030    0.73270    1.000
    C192     C        0.66390    0.64750    0.75510    1.000
    H130     H        0.64470    0.68570    0.73800    1.000
    C193     C        0.69654    0.68290    0.78290    1.000
    C194     C        0.72265    0.62550    0.80880    1.000
    H131     H        0.74490    0.64820    0.82920    1.000
    C195     C        0.71622    0.53390    0.80470    1.000
    H132     H        0.73470    0.49460    0.82230    1.000
    C196     C        0.68929    0.91330    0.74615    1.000
    N64      N        0.71877    0.95450    0.77312    1.000
    C197     C        0.73859    0.90360    0.80638    1.000
    N65      N        0.73262    0.81660    0.81292    1.000
    C198     C        0.70318    0.78160    0.78230    1.000
    N66      N        0.67963    0.82680    0.74990    1.000
    N67      N        0.91897    0.01350    0.94707    1.000
    C199     C        0.93260    0.00140    0.90890    1.000
    H133     H        0.92010    0.03140    0.88180    1.000
    C200     C        0.96420    0.94670    0.90690    1.000
    H134     H        0.97390    0.94040    0.87930    1.000
    C201     C        0.98141    0.90130    0.94640    1.000
    C202     C        0.96669    0.91180    0.98520    1.000
    H135     H        0.97810    0.88060    0.01240    1.000
    C203     C        0.93498    0.96820    0.98510    1.000
    H136     H        0.92460    0.97470    0.01210    1.000
    N68      N        0.14001    0.84390    0.81861    1.000
    C204     C        0.10710    0.89020    0.81540    1.000
    H137     H        0.10100    0.93410    0.79190    1.000
    C205     C        0.08140    0.87730    0.84460    1.000
    H138     H        0.05800    0.91130    0.84120    1.000
    C206     C        0.09019    0.81420    0.87880    1.000
    C207     C        0.12500    0.76660    0.88280    1.000
    H139     H        0.13220    0.72280    0.90610    1.000
    C208     C        0.14890    0.78480    0.85200    1.000
    H140     H        0.17280    0.75320    0.85490    1.000
    N69      N        0.06163    0.47290    0.04514    1.000
    C209     C        0.03364    0.53140    0.04936    1.000
    H141     H        0.01720    0.51840    0.07050    1.000
    C210     C        0.02743    0.60940    0.02462    1.000
    H142     H        0.00730    0.64960    0.02880    1.000
    C211     C        0.05099    0.62830    0.99356    1.000
    C212     C        0.07890    0.56670    0.98720    1.000
    H143     H        0.09480    0.57750    0.96530    1.000
    C213     C        0.08350    0.48960    0.01280    1.000
    H144     H        0.10230    0.44680    0.00790    1.000
    C214     C        0.01437    0.83980    0.94421    1.000
    N70      N        0.03590    0.85660    0.91282    1.000
    C215     C        0.06424    0.79820    0.91150    1.000
    N71      N        0.07045    0.72340    0.93723    1.000
    C216     C        0.04673    0.71320    0.96657    1.000
    Zn27     Zn       0.87282    0.10060    0.94383    1.000
    N72      N        0.01906    0.77080    0.97323    1.000
    Zn28     Zn       0.67360    0.36350    0.76990    1.000
    I53      I        0.89311    0.23858    0.90635    1.000
    I54      I        0.84936    0.08931    0.01855    1.000
    I55      I        0.73503    0.27170    0.79808    1.000
    I56      I        0.63255    0.34268    0.69076    1.000
    Zn29     Zn       0.86990    0.09610    0.94910    1.000
    I57      I        0.88390    0.24240    0.91620    1.000
    I58      I        0.84730    0.07320    0.02560    1.000
    Zn30     Zn       0.67980    0.36100    0.77560    1.000
    I59      I        0.74310    0.28690    0.80910    1.000
    I60      I        0.63610    0.33210    0.70160    1.000
    Zn31     Zn       0.07907    0.36905    0.09113    1.000
    I61      I        0.11434    0.25632    0.05081    1.000
    I62      I        0.02486    0.34560    0.13476    1.000
    N73      N        0.11977    0.44050    0.13778    1.000
    C217     C        0.14921    0.40200    0.16500    1.000
    H145     H        0.15470    0.34090    0.15970    1.000
    C218     C        0.17253    0.44570    0.20070    1.000
    H146     H        0.19320    0.41490    0.22000    1.000
    C219     C        0.16561    0.53490    0.20840    1.000
    C220     C        0.13600    0.57650    0.17810    1.000
    H147     H        0.13120    0.63870    0.18070    1.000
    C221     C        0.11380    0.52710    0.14450    1.000
    H148     H        0.09290    0.55600    0.12460    1.000
    N74      N        0.33003    0.46410    0.39792    1.000
    C222     C        0.30982    0.42200    0.36150    1.000
    H149     H        0.31630    0.36180    0.35590    1.000
    C223     C        0.28002    0.46220    0.33170    1.000
    H150     H        0.26570    0.42970    0.30650    1.000
    C224     C        0.27090    0.55150    0.33860    1.000
    C225     C        0.29183    0.59560    0.37630    1.000
    H151     H        0.28630    0.65630    0.38220    1.000
    C226     C        0.32107    0.54940    0.40540    1.000
    H152     H        0.33530    0.57940    0.43150    1.000
    N75      N        0.18553    0.00070    0.27743    1.000
    C227     C        0.15950    0.94510    0.25260    1.000
    H153     H        0.13740    0.96970    0.23270    1.000
    C228     C        0.16390    0.85250    0.25510    1.000
    H154     H        0.14470    0.81430    0.23800    1.000
    C229     C        0.19654    0.81710    0.28290    1.000
    C230     C        0.22265    0.87450    0.30880    1.000
    H155     H        0.24490    0.85180    0.32920    1.000
    C231     C        0.21622    0.96610    0.30470    1.000
    H156     H        0.23470    0.00540    0.32230    1.000
    C232     C        0.18929    0.58670    0.24615    1.000
    N76      N        0.21877    0.54550    0.27312    1.000
    C233     C        0.23859    0.59640    0.30638    1.000
    N77      N        0.23262    0.68340    0.31292    1.000
    C234     C        0.20318    0.71840    0.28230    1.000
    N78      N        0.17963    0.67320    0.24990    1.000
    N79      N        0.41897    0.48650    0.44707    1.000
    C235     C        0.43260    0.49860    0.40890    1.000
    H157     H        0.42010    0.46860    0.38180    1.000
    C236     C        0.46420    0.55330    0.40690    1.000
    H158     H        0.47390    0.55960    0.37930    1.000
    C237     C        0.48141    0.59870    0.44640    1.000
    C238     C        0.46669    0.58820    0.48520    1.000
    H159     H        0.47810    0.61940    0.51240    1.000
    C239     C        0.43498    0.53180    0.48510    1.000
    H160     H        0.42460    0.52530    0.51210    1.000
    N80      N        0.64001    0.65610    0.31861    1.000
    C240     C        0.60710    0.60980    0.31540    1.000
    H161     H        0.60100    0.56590    0.29190    1.000
    C241     C        0.58140    0.62270    0.34460    1.000
    H162     H        0.55800    0.58870    0.34120    1.000
    C242     C        0.59019    0.68580    0.37880    1.000
    C243     C        0.62500    0.73340    0.38280    1.000
    H163     H        0.63220    0.77720    0.40610    1.000
    C244     C        0.64890    0.71520    0.35200    1.000
    H164     H        0.67280    0.74680    0.35490    1.000
    N81      N        0.56163    0.02710    0.54514    1.000
    C245     C        0.53364    0.96860    0.54936    1.000
    H165     H        0.51720    0.98160    0.57050    1.000
    C246     C        0.52743    0.89060    0.52462    1.000
    H166     H        0.50730    0.85040    0.52880    1.000
    C247     C        0.55099    0.87170    0.49356    1.000
    C248     C        0.57890    0.93330    0.48720    1.000
    H167     H        0.59480    0.92250    0.46530    1.000
    C249     C        0.58350    0.01040    0.51280    1.000
    H168     H        0.60230    0.05320    0.50790    1.000
    C250     C        0.51437    0.66020    0.44421    1.000
    N82      N        0.53590    0.64340    0.41282    1.000
    C251     C        0.56424    0.70180    0.41150    1.000
    N83      N        0.57045    0.77660    0.43723    1.000
    C252     C        0.54673    0.78680    0.46657    1.000
    Zn32     Zn       0.37282    0.39940    0.44383    1.000
    N84      N        0.51906    0.72920    0.47323    1.000
    Zn33     Zn       0.17360    0.13650    0.26990    1.000
    I63      I        0.39311    0.26142    0.40635    1.000
    I64      I        0.34936    0.41069    0.51855    1.000
    I65      I        0.23503    0.22830    0.29808    1.000
    I66      I        0.13255    0.15732    0.19076    1.000
    Zn34     Zn       0.36990    0.40390    0.44910    1.000
    I67      I        0.38390    0.25760    0.41620    1.000
    I68      I        0.34730    0.42680    0.52560    1.000
    Zn35     Zn       0.17980    0.13900    0.27560    1.000
    I69      I        0.24310    0.21310    0.30910    1.000
    I70      I        0.13610    0.16790    0.20160    1.000
    Zn36     Zn       0.57907    0.86905    0.09113    1.000
    I71      I        0.61434    0.75632    0.05081    1.000
    I72      I        0.52486    0.84560    0.13476    1.000
    N85      N        0.61977    0.94050    0.13778    1.000
    C253     C        0.64921    0.90200    0.16500    1.000
    H169     H        0.65470    0.84090    0.15970    1.000
    C254     C        0.67253    0.94570    0.20070    1.000
    H170     H        0.69320    0.91490    0.22000    1.000
    C255     C        0.66561    0.03490    0.20840    1.000
    C256     C        0.63600    0.07650    0.17810    1.000
    H171     H        0.63120    0.13870    0.18070    1.000
    C257     C        0.61380    0.02710    0.14450    1.000
    H172     H        0.59290    0.05600    0.12460    1.000
    N86      N        0.83003    0.96410    0.39792    1.000
    C258     C        0.80982    0.92200    0.36150    1.000
    H173     H        0.81630    0.86180    0.35590    1.000
    C259     C        0.78002    0.96220    0.33170    1.000
    H174     H        0.76570    0.92970    0.30650    1.000
    C260     C        0.77090    0.05150    0.33860    1.000
    C261     C        0.79183    0.09560    0.37630    1.000
    H175     H        0.78630    0.15630    0.38220    1.000
    C262     C        0.82107    0.04940    0.40540    1.000
    H176     H        0.83530    0.07940    0.43150    1.000
    N87      N        0.68553    0.50070    0.27743    1.000
    C263     C        0.65950    0.44510    0.25260    1.000
    H177     H        0.63740    0.46970    0.23270    1.000
    C264     C        0.66390    0.35250    0.25510    1.000
    H178     H        0.64470    0.31430    0.23800    1.000
    C265     C        0.69654    0.31710    0.28290    1.000
    C266     C        0.72265    0.37450    0.30880    1.000
    H179     H        0.74490    0.35180    0.32920    1.000
    C267     C        0.71622    0.46610    0.30470    1.000
    H180     H        0.73470    0.50540    0.32230    1.000
    C268     C        0.68929    0.08670    0.24615    1.000
    N88      N        0.71877    0.04550    0.27312    1.000
    C269     C        0.73859    0.09640    0.30638    1.000
    N89      N        0.73262    0.18340    0.31292    1.000
    C270     C        0.70318    0.21840    0.28230    1.000
    N90      N        0.67963    0.17320    0.24990    1.000
    N91      N        0.91897    0.98650    0.44707    1.000
    C271     C        0.93260    0.99860    0.40890    1.000
    H181     H        0.92010    0.96860    0.38180    1.000
    C272     C        0.96420    0.05330    0.40690    1.000
    H182     H        0.97390    0.05960    0.37930    1.000
    C273     C        0.98141    0.09870    0.44640    1.000
    C274     C        0.96669    0.08820    0.48520    1.000
    H183     H        0.97810    0.11940    0.51240    1.000
    C275     C        0.93498    0.03180    0.48510    1.000
    H184     H        0.92460    0.02530    0.51210    1.000
    N92      N        0.14001    0.15610    0.31861    1.000
    C276     C        0.10710    0.10980    0.31540    1.000
    H185     H        0.10100    0.06590    0.29190    1.000
    C277     C        0.08140    0.12270    0.34460    1.000
    H186     H        0.05800    0.08870    0.34120    1.000
    C278     C        0.09019    0.18580    0.37880    1.000
    C279     C        0.12500    0.23340    0.38280    1.000
    H187     H        0.13220    0.27720    0.40610    1.000
    C280     C        0.14890    0.21520    0.35200    1.000
    H188     H        0.17280    0.24680    0.35490    1.000
    N93      N        0.06163    0.52710    0.54514    1.000
    C281     C        0.03364    0.46860    0.54936    1.000
    H189     H        0.01720    0.48160    0.57050    1.000
    C282     C        0.02743    0.39060    0.52462    1.000
    H190     H        0.00730    0.35040    0.52880    1.000
    C283     C        0.05099    0.37170    0.49356    1.000
    C284     C        0.07890    0.43330    0.48720    1.000
    H191     H        0.09480    0.42250    0.46530    1.000
    C285     C        0.08350    0.51040    0.51280    1.000
    H192     H        0.10230    0.55320    0.50790    1.000
    C286     C        0.01437    0.16020    0.44421    1.000
    N94      N        0.03590    0.14340    0.41282    1.000
    C287     C        0.06424    0.20180    0.41150    1.000
    N95      N        0.07045    0.27660    0.43723    1.000
    C288     C        0.04673    0.28680    0.46657    1.000
    Zn37     Zn       0.87282    0.89940    0.44383    1.000
    N96      N        0.01906    0.22920    0.47323    1.000
    Zn38     Zn       0.67360    0.63650    0.26990    1.000
    I73      I        0.89311    0.76142    0.40635    1.000
    I74      I        0.84936    0.91069    0.51855    1.000
    I75      I        0.73503    0.72830    0.29808    1.000
    I76      I        0.63255    0.65732    0.19076    1.000
    Zn39     Zn       0.86990    0.90390    0.44910    1.000
    I77      I        0.88390    0.75760    0.41620    1.000
    I78      I        0.84730    0.92680    0.52560    1.000
    Zn40     Zn       0.67980    0.63900    0.27560    1.000
    I79      I        0.74310    0.71310    0.30910    1.000
    I80      I        0.63610    0.66790    0.20160    1.000
