data_functionalizedCrystal
_audit_creation_method	'EQeq! by Chris Wilmer'
_symmetry_space_group_name_H-M	'P1'
_symmetry_Int_Tables_number	1
_symmetry_cell_setting	triclinic
loop_
_symmetry_equiv_pos_as_xyz
  x,y,z
_cell_length_a	20.483
_cell_length_b	20.483
_cell_length_c	20.483
_cell_angle_alpha	90
_cell_angle_beta	90
_cell_angle_gamma	90
loop_
_atom_site_label
_atom_site_type_symbol
_atom_site_fract_x
_atom_site_fract_y
_atom_site_fract_z
_atom_site_charge
Mof_Zn	Zn	0.60872	0.84965	0.82729	1.23
Mof_Zn	Zn	0.44002	0.75388	0.98928	1.225
Mof_Zn	Zn	0.48448	0.88522	0.90397	1.149
Mof_Zn	Zn	0.89128	0.15035	0.32729	1.23
Mof_Zn	Zn	0.05998	0.24612	0.48928	1.225
Mof_Zn	Zn	0.01552	0.11478	0.40397	1.15
Mof_Zn	Zn	0.39128	0.34965	0.67271	1.23
Mof_Zn	Zn	0.55998	0.25388	0.51072	1.224
Mof_Zn	Zn	0.51552	0.38522	0.59603	1.149
Mof_Zn	Zn	0.10872	0.65035	0.17271	1.23
Mof_Zn	Zn	0.94002	0.74612	0.01072	1.223
Mof_Zn	Zn	0.98448	0.61478	0.09603	1.149
Mof_Zn	Zn	0.82729	0.60872	0.84965	1.229
Mof_Zn	Zn	0.98928	0.44002	0.75388	1.224
Mof_Zn	Zn	0.90397	0.48448	0.88522	1.148
Mof_Zn	Zn	0.32729	0.89128	0.15035	1.229
Mof_Zn	Zn	0.48928	0.05998	0.24612	1.224
Mof_Zn	Zn	0.40397	0.01552	0.11478	1.149
Mof_Zn	Zn	0.67271	0.39128	0.34965	1.229
Mof_Zn	Zn	0.51072	0.55998	0.25388	1.223
Mof_Zn	Zn	0.59603	0.51552	0.38522	1.148
Mof_Zn	Zn	0.17271	0.10872	0.65035	1.229
Mof_Zn	Zn	0.01072	0.94002	0.74612	1.222
Mof_Zn	Zn	0.09603	0.98448	0.61478	1.148
Mof_Zn	Zn	0.84965	0.82729	0.60872	1.229
Mof_Zn	Zn	0.75388	0.98928	0.44002	1.224
Mof_Zn	Zn	0.88522	0.90397	0.48448	1.148
Mof_Zn	Zn	0.15035	0.32729	0.89128	1.229
Mof_Zn	Zn	0.24612	0.48928	0.05998	1.224
Mof_Zn	Zn	0.11478	0.40397	0.01552	1.149
Mof_Zn	Zn	0.34965	0.67271	0.39128	1.229
Mof_Zn	Zn	0.25388	0.51072	0.55998	1.223
Mof_Zn	Zn	0.38522	0.59603	0.51552	1.148
Mof_Zn	Zn	0.65035	0.17271	0.10872	1.229
Mof_Zn	Zn	0.74612	0.01072	0.94002	1.222
Mof_Zn	Zn	0.61478	0.09603	0.98448	1.148
Mof_Zn	Zn	0.39128	0.15035	0.17271	1.229
Mof_Zn	Zn	0.55998	0.24612	0.01072	1.224
Mof_Zn	Zn	0.51552	0.11478	0.09603	1.148
Mof_Zn	Zn	0.10872	0.84965	0.67271	1.229
Mof_Zn	Zn	0.94002	0.75388	0.51072	1.224
Mof_Zn	Zn	0.98448	0.88522	0.59603	1.149
Mof_Zn	Zn	0.60872	0.65035	0.32729	1.229
Mof_Zn	Zn	0.44002	0.74612	0.48928	1.223
Mof_Zn	Zn	0.48448	0.61478	0.40397	1.148
Mof_Zn	Zn	0.89128	0.34965	0.82729	1.229
Mof_Zn	Zn	0.05998	0.25388	0.98928	1.222
Mof_Zn	Zn	0.01552	0.38522	0.90397	1.148
Mof_Zn	Zn	0.17271	0.39128	0.15035	1.229
Mof_Zn	Zn	0.01072	0.55998	0.24612	1.224
Mof_Zn	Zn	0.09603	0.51552	0.11478	1.148
Mof_Zn	Zn	0.67271	0.10872	0.84965	1.229
Mof_Zn	Zn	0.51072	0.94002	0.75388	1.224
Mof_Zn	Zn	0.59603	0.98448	0.88522	1.149
Mof_Zn	Zn	0.32729	0.60872	0.65035	1.229
Mof_Zn	Zn	0.48928	0.44002	0.74612	1.223
Mof_Zn	Zn	0.40397	0.48448	0.61478	1.148
Mof_Zn	Zn	0.82729	0.89128	0.34965	1.229
Mof_Zn	Zn	0.98928	0.05998	0.25388	1.222
Mof_Zn	Zn	0.90397	0.01552	0.38522	1.148
Mof_Zn	Zn	0.15035	0.17271	0.39128	1.229
Mof_Zn	Zn	0.24612	0.01072	0.55998	1.224
Mof_Zn	Zn	0.11478	0.09603	0.51552	1.148
Mof_Zn	Zn	0.84965	0.67271	0.10872	1.229
Mof_Zn	Zn	0.75388	0.51072	0.94002	1.224
Mof_Zn	Zn	0.88522	0.59603	0.98448	1.149
Mof_Zn	Zn	0.65035	0.32729	0.60872	1.229
Mof_Zn	Zn	0.74612	0.48928	0.44002	1.223
Mof_Zn	Zn	0.61478	0.40397	0.48448	1.148
Mof_Zn	Zn	0.34965	0.82729	0.89128	1.229
Mof_Zn	Zn	0.25388	0.98928	0.05998	1.222
Mof_Zn	Zn	0.38522	0.90397	0.01552	1.148
Mof_H 	H 	0.6222	0.6957	0.8874	0.07
Mof_H 	H 	0.6595	0.6905	0.0047	0.093
Mof_H 	H 	0.6939	0.7969	0.0098	0.055
Mof_H 	H 	0.768	0.7951	0.8937	0.087
Mof_H 	H 	0.8778	0.3043	0.3874	0.07
Mof_H 	H 	0.8405	0.3095	0.5047	0.094
Mof_H 	H 	0.8061	0.2031	0.5098	0.058
Mof_H 	H 	0.732	0.2049	0.3937	0.086
Mof_H 	H 	0.3778	0.1957	0.6126	0.07
Mof_H 	H 	0.3405	0.1905	0.4953	0.094
Mof_H 	H 	0.3061	0.2969	0.4902	0.058
Mof_H 	H 	0.232	0.2951	0.6063	0.086
Mof_H 	H 	0.1222	0.8043	0.1126	0.07
Mof_H 	H 	0.1595	0.8095	0.9953	0.094
Mof_H 	H 	0.1939	0.7031	0.9902	0.058
Mof_H 	H 	0.268	0.7049	0.1063	0.086
Mof_H 	H 	0.8874	0.6222	0.6957	0.07
Mof_H 	H 	0.0047	0.6595	0.6905	0.093
Mof_H 	H 	0.0098	0.6939	0.7969	0.055
Mof_H 	H 	0.8937	0.768	0.7951	0.087
Mof_H 	H 	0.3874	0.8778	0.3043	0.07
Mof_H 	H 	0.5047	0.8405	0.3095	0.094
Mof_H 	H 	0.5098	0.8061	0.2031	0.058
Mof_H 	H 	0.3937	0.732	0.2049	0.086
Mof_H 	H 	0.6126	0.3778	0.1957	0.07
Mof_H 	H 	0.4953	0.3405	0.1905	0.094
Mof_H 	H 	0.4902	0.3061	0.2969	0.058
Mof_H 	H 	0.6063	0.232	0.2951	0.086
Mof_H 	H 	0.1126	0.1222	0.8043	0.07
Mof_H 	H 	0.9953	0.1595	0.8095	0.094
Mof_H 	H 	0.9902	0.1939	0.7031	0.058
Mof_H 	H 	0.1063	0.268	0.7049	0.086
Mof_H 	H 	0.6957	0.8874	0.6222	0.07
Mof_H 	H 	0.6905	0.0047	0.6595	0.093
Mof_H 	H 	0.7969	0.0098	0.6939	0.055
Mof_H 	H 	0.7951	0.8937	0.768	0.087
Mof_H 	H 	0.3043	0.3874	0.8778	0.07
Mof_H 	H 	0.3095	0.5047	0.8405	0.094
Mof_H 	H 	0.2031	0.5098	0.8061	0.058
Mof_H 	H 	0.2049	0.3937	0.732	0.086
Mof_H 	H 	0.1957	0.6126	0.3778	0.07
Mof_H 	H 	0.1905	0.4953	0.3405	0.094
Mof_H 	H 	0.2969	0.4902	0.3061	0.058
Mof_H 	H 	0.2951	0.6063	0.232	0.086
Mof_H 	H 	0.8043	0.1126	0.1222	0.07
Mof_H 	H 	0.8095	0.9953	0.1595	0.094
Mof_H 	H 	0.7031	0.9902	0.1939	0.058
Mof_H 	H 	0.7049	0.1063	0.268	0.086
Mof_H 	H 	0.3778	0.3043	0.1126	0.07
Mof_H 	H 	0.3405	0.3095	0.9953	0.093
Mof_H 	H 	0.3061	0.2031	0.9902	0.055
Mof_H 	H 	0.232	0.2049	0.1063	0.087
Mof_H 	H 	0.1222	0.6957	0.6126	0.07
Mof_H 	H 	0.1595	0.6905	0.4953	0.094
Mof_H 	H 	0.1939	0.7969	0.4902	0.058
Mof_H 	H 	0.268	0.7951	0.6063	0.086
Mof_H 	H 	0.6222	0.8043	0.3874	0.07
Mof_H 	H 	0.6595	0.8095	0.5047	0.094
Mof_H 	H 	0.6939	0.7031	0.5098	0.058
Mof_H 	H 	0.768	0.7049	0.3937	0.086
Mof_H 	H 	0.8778	0.1957	0.8874	0.07
Mof_H 	H 	0.8405	0.1905	0.0047	0.094
Mof_H 	H 	0.8061	0.2969	0.0098	0.058
Mof_H 	H 	0.732	0.2951	0.8937	0.086
Mof_H 	H 	0.1126	0.3778	0.3043	0.07
Mof_H 	H 	0.9953	0.3405	0.3095	0.093
Mof_H 	H 	0.9902	0.3061	0.2031	0.055
Mof_H 	H 	0.1063	0.232	0.2049	0.087
Mof_H 	H 	0.6126	0.1222	0.6957	0.07
Mof_H 	H 	0.4953	0.1595	0.6905	0.094
Mof_H 	H 	0.4902	0.1939	0.7969	0.058
Mof_H 	H 	0.6063	0.268	0.7951	0.086
Mof_H 	H 	0.3874	0.6222	0.8043	0.07
Mof_H 	H 	0.5047	0.6595	0.8095	0.094
Mof_H 	H 	0.5098	0.6939	0.7031	0.058
Mof_H 	H 	0.3937	0.768	0.7049	0.086
Mof_H 	H 	0.8874	0.8778	0.1957	0.07
Mof_H 	H 	0.0047	0.8405	0.1905	0.094
Mof_H 	H 	0.0098	0.8061	0.2969	0.058
Mof_H 	H 	0.8937	0.732	0.2951	0.086
Mof_H 	H 	0.3043	0.1126	0.3778	0.07
Mof_H 	H 	0.3095	0.9953	0.3405	0.093
Mof_H 	H 	0.2031	0.9902	0.3061	0.055
Mof_H 	H 	0.2049	0.1063	0.232	0.087
Mof_H 	H 	0.6957	0.6126	0.1222	0.07
Mof_H 	H 	0.6905	0.4953	0.1595	0.094
Mof_H 	H 	0.7969	0.4902	0.1939	0.058
Mof_H 	H 	0.7951	0.6063	0.268	0.086
Mof_H 	H 	0.8043	0.3874	0.6222	0.07
Mof_H 	H 	0.8095	0.5047	0.6595	0.094
Mof_H 	H 	0.7031	0.5098	0.6939	0.058
Mof_H 	H 	0.7049	0.3937	0.768	0.086
Mof_H 	H 	0.1957	0.8874	0.8778	0.07
Mof_H 	H 	0.1905	0.0047	0.8405	0.094
Mof_H 	H 	0.2969	0.0098	0.8061	0.058
Mof_H 	H 	0.2951	0.8937	0.732	0.086
Mof_C 	C 	0.6353	0.732	0.9157	-0.053
Mof_C 	C 	0.5741	0.7649	0.9428	0.417
Mof_C 	C 	0.682	0.7074	0.9659	-0.119
Mof_C 	C 	0.7223	0.6549	0.9322	0.394
Mof_C 	C 	0.7204	0.7696	0.9808	-0.072
Mof_C 	C 	0.7859	0.7561	0.015	0.358
Mof_C 	C 	0.7262	0.8046	0.9148	-0.057
Mof_C 	C 	0.715	0.8779	0.9208	0.39
Mof_C 	C 	0.8647	0.268	0.4157	-0.053
Mof_C 	C 	0.9259	0.2351	0.4428	0.417
Mof_C 	C 	0.818	0.2926	0.4659	-0.12
Mof_C 	C 	0.7777	0.3451	0.4322	0.394
Mof_C 	C 	0.7796	0.2304	0.4808	-0.08
Mof_C 	C 	0.7141	0.2439	0.515	0.366
Mof_C 	C 	0.7738	0.1954	0.4148	-0.055
Mof_C 	C 	0.785	0.1221	0.4208	0.389
Mof_C 	C 	0.3647	0.232	0.5843	-0.053
Mof_C 	C 	0.4259	0.2649	0.5572	0.417
Mof_C 	C 	0.318	0.2074	0.5341	-0.12
Mof_C 	C 	0.2777	0.1549	0.5678	0.394
Mof_C 	C 	0.2796	0.2696	0.5192	-0.08
Mof_C 	C 	0.2141	0.2561	0.485	0.366
Mof_C 	C 	0.2738	0.3046	0.5852	-0.055
Mof_C 	C 	0.285	0.3779	0.5792	0.389
Mof_C 	C 	0.1353	0.768	0.0843	-0.053
Mof_C 	C 	0.0741	0.7351	0.0572	0.417
Mof_C 	C 	0.182	0.7926	0.0341	-0.12
Mof_C 	C 	0.2223	0.8451	0.0678	0.394
Mof_C 	C 	0.2204	0.7304	0.0192	-0.079
Mof_C 	C 	0.2859	0.7439	0.985	0.366
Mof_C 	C 	0.2262	0.6954	0.0852	-0.055
Mof_C 	C 	0.215	0.6221	0.0792	0.389
Mof_C 	C 	0.9157	0.6353	0.732	-0.053
Mof_C 	C 	0.9428	0.5741	0.7649	0.417
Mof_C 	C 	0.9659	0.682	0.7074	-0.119
Mof_C 	C 	0.9322	0.7223	0.6549	0.394
Mof_C 	C 	0.9808	0.7204	0.7696	-0.072
Mof_C 	C 	0.015	0.7859	0.7561	0.358
Mof_C 	C 	0.9148	0.7262	0.8046	-0.057
Mof_C 	C 	0.9208	0.715	0.8779	0.39
Mof_C 	C 	0.4157	0.8647	0.268	-0.053
Mof_C 	C 	0.4428	0.9259	0.2351	0.417
Mof_C 	C 	0.4659	0.818	0.2926	-0.12
Mof_C 	C 	0.4322	0.7777	0.3451	0.394
Mof_C 	C 	0.4808	0.7796	0.2304	-0.08
Mof_C 	C 	0.515	0.7141	0.2439	0.366
Mof_C 	C 	0.4148	0.7738	0.1954	-0.055
Mof_C 	C 	0.4208	0.785	0.1221	0.389
Mof_C 	C 	0.5843	0.3647	0.232	-0.053
Mof_C 	C 	0.5572	0.4259	0.2649	0.417
Mof_C 	C 	0.5341	0.318	0.2074	-0.12
Mof_C 	C 	0.5678	0.2777	0.1549	0.394
Mof_C 	C 	0.5192	0.2796	0.2696	-0.08
Mof_C 	C 	0.485	0.2141	0.2561	0.366
Mof_C 	C 	0.5852	0.2738	0.3046	-0.055
Mof_C 	C 	0.5792	0.285	0.3779	0.389
Mof_C 	C 	0.0843	0.1353	0.768	-0.053
Mof_C 	C 	0.0572	0.0741	0.7351	0.417
Mof_C 	C 	0.0341	0.182	0.7926	-0.12
Mof_C 	C 	0.0678	0.2223	0.8451	0.394
Mof_C 	C 	0.0192	0.2204	0.7304	-0.079
Mof_C 	C 	0.985	0.2859	0.7439	0.366
Mof_C 	C 	0.0852	0.2262	0.6954	-0.055
Mof_C 	C 	0.0792	0.215	0.6221	0.389
Mof_C 	C 	0.732	0.9157	0.6353	-0.053
Mof_C 	C 	0.7649	0.9428	0.5741	0.417
Mof_C 	C 	0.7074	0.9659	0.682	-0.119
Mof_C 	C 	0.6549	0.9322	0.7223	0.394
Mof_C 	C 	0.7696	0.9808	0.7204	-0.072
Mof_C 	C 	0.7561	0.015	0.7859	0.358
Mof_C 	C 	0.8046	0.9148	0.7262	-0.057
Mof_C 	C 	0.8779	0.9208	0.715	0.39
Mof_C 	C 	0.268	0.4157	0.8647	-0.053
Mof_C 	C 	0.2351	0.4428	0.9259	0.417
Mof_C 	C 	0.2926	0.4659	0.818	-0.12
Mof_C 	C 	0.3451	0.4322	0.7777	0.394
Mof_C 	C 	0.2304	0.4808	0.7796	-0.08
Mof_C 	C 	0.2439	0.515	0.7141	0.366
Mof_C 	C 	0.1954	0.4148	0.7738	-0.055
Mof_C 	C 	0.1221	0.4208	0.785	0.389
Mof_C 	C 	0.232	0.5843	0.3647	-0.053
Mof_C 	C 	0.2649	0.5572	0.4259	0.417
Mof_C 	C 	0.2074	0.5341	0.318	-0.12
Mof_C 	C 	0.1549	0.5678	0.2777	0.394
Mof_C 	C 	0.2696	0.5192	0.2796	-0.08
Mof_C 	C 	0.2561	0.485	0.2141	0.366
Mof_C 	C 	0.3046	0.5852	0.2738	-0.055
Mof_C 	C 	0.3779	0.5792	0.285	0.389
Mof_C 	C 	0.768	0.0843	0.1353	-0.053
Mof_C 	C 	0.7351	0.0572	0.0741	0.417
Mof_C 	C 	0.7926	0.0341	0.182	-0.12
Mof_C 	C 	0.8451	0.0678	0.2223	0.394
Mof_C 	C 	0.7304	0.0192	0.2204	-0.079
Mof_C 	C 	0.7439	0.985	0.2859	0.366
Mof_C 	C 	0.6954	0.0852	0.2262	-0.055
Mof_C 	C 	0.6221	0.0792	0.215	0.389
Mof_C 	C 	0.3647	0.268	0.0843	-0.053
Mof_C 	C 	0.4259	0.2351	0.0572	0.417
Mof_C 	C 	0.318	0.2926	0.0341	-0.119
Mof_C 	C 	0.2777	0.3451	0.0678	0.394
Mof_C 	C 	0.2796	0.2304	0.0192	-0.072
Mof_C 	C 	0.2141	0.2439	0.985	0.358
Mof_C 	C 	0.2738	0.1954	0.0852	-0.057
Mof_C 	C 	0.285	0.1221	0.0792	0.39
Mof_C 	C 	0.1353	0.732	0.5843	-0.053
Mof_C 	C 	0.0741	0.7649	0.5572	0.417
Mof_C 	C 	0.182	0.7074	0.5341	-0.12
Mof_C 	C 	0.2223	0.6549	0.5678	0.394
Mof_C 	C 	0.2204	0.7696	0.5192	-0.08
Mof_C 	C 	0.2859	0.7561	0.485	0.366
Mof_C 	C 	0.2262	0.8046	0.5852	-0.055
Mof_C 	C 	0.215	0.8779	0.5792	0.389
Mof_C 	C 	0.6353	0.768	0.4157	-0.053
Mof_C 	C 	0.5741	0.7351	0.4428	0.417
Mof_C 	C 	0.682	0.7926	0.4659	-0.12
Mof_C 	C 	0.7223	0.8451	0.4322	0.394
Mof_C 	C 	0.7204	0.7304	0.4808	-0.08
Mof_C 	C 	0.7859	0.7439	0.515	0.366
Mof_C 	C 	0.7262	0.6954	0.4148	-0.055
Mof_C 	C 	0.715	0.6221	0.4208	0.389
Mof_C 	C 	0.8647	0.232	0.9157	-0.053
Mof_C 	C 	0.9259	0.2649	0.9428	0.417
Mof_C 	C 	0.818	0.2074	0.9659	-0.12
Mof_C 	C 	0.7777	0.1549	0.9322	0.394
Mof_C 	C 	0.7796	0.2696	0.9808	-0.079
Mof_C 	C 	0.7141	0.2561	0.015	0.366
Mof_C 	C 	0.7738	0.3046	0.9148	-0.055
Mof_C 	C 	0.785	0.3779	0.9208	0.389
Mof_C 	C 	0.0843	0.3647	0.268	-0.053
Mof_C 	C 	0.0572	0.4259	0.2351	0.417
Mof_C 	C 	0.0341	0.318	0.2926	-0.119
Mof_C 	C 	0.0678	0.2777	0.3451	0.394
Mof_C 	C 	0.0192	0.2796	0.2304	-0.072
Mof_C 	C 	0.985	0.2141	0.2439	0.358
Mof_C 	C 	0.0852	0.2738	0.1954	-0.057
Mof_C 	C 	0.0792	0.285	0.1221	0.39
Mof_C 	C 	0.5843	0.1353	0.732	-0.053
Mof_C 	C 	0.5572	0.0741	0.7649	0.417
Mof_C 	C 	0.5341	0.182	0.7074	-0.12
Mof_C 	C 	0.5678	0.2223	0.6549	0.394
Mof_C 	C 	0.5192	0.2204	0.7696	-0.08
Mof_C 	C 	0.485	0.2859	0.7561	0.366
Mof_C 	C 	0.5852	0.2262	0.8046	-0.055
Mof_C 	C 	0.5792	0.215	0.8779	0.389
Mof_C 	C 	0.4157	0.6353	0.768	-0.053
Mof_C 	C 	0.4428	0.5741	0.7351	0.417
Mof_C 	C 	0.4659	0.682	0.7926	-0.12
Mof_C 	C 	0.4322	0.7223	0.8451	0.394
Mof_C 	C 	0.4808	0.7204	0.7304	-0.08
Mof_C 	C 	0.515	0.7859	0.7439	0.366
Mof_C 	C 	0.4148	0.7262	0.6954	-0.055
Mof_C 	C 	0.4208	0.715	0.6221	0.389
Mof_C 	C 	0.9157	0.8647	0.232	-0.053
Mof_C 	C 	0.9428	0.9259	0.2649	0.417
Mof_C 	C 	0.9659	0.818	0.2074	-0.12
Mof_C 	C 	0.9322	0.7777	0.1549	0.394
Mof_C 	C 	0.9808	0.7796	0.2696	-0.079
Mof_C 	C 	0.015	0.7141	0.2561	0.366
Mof_C 	C 	0.9148	0.7738	0.3046	-0.055
Mof_C 	C 	0.9208	0.785	0.3779	0.389
Mof_C 	C 	0.268	0.0843	0.3647	-0.053
Mof_C 	C 	0.2351	0.0572	0.4259	0.417
Mof_C 	C 	0.2926	0.0341	0.318	-0.119
Mof_C 	C 	0.3451	0.0678	0.2777	0.394
Mof_C 	C 	0.2304	0.0192	0.2796	-0.072
Mof_C 	C 	0.2439	0.985	0.2141	0.358
Mof_C 	C 	0.1954	0.0852	0.2738	-0.057
Mof_C 	C 	0.1221	0.0792	0.285	0.39
Mof_C 	C 	0.732	0.5843	0.1353	-0.053
Mof_C 	C 	0.7649	0.5572	0.0741	0.417
Mof_C 	C 	0.7074	0.5341	0.182	-0.12
Mof_C 	C 	0.6549	0.5678	0.2223	0.394
Mof_C 	C 	0.7696	0.5192	0.2204	-0.08
Mof_C 	C 	0.7561	0.485	0.2859	0.366
Mof_C 	C 	0.8046	0.5852	0.2262	-0.055
Mof_C 	C 	0.8779	0.5792	0.215	0.389
Mof_C 	C 	0.768	0.4157	0.6353	-0.053
Mof_C 	C 	0.7351	0.4428	0.5741	0.417
Mof_C 	C 	0.7926	0.4659	0.682	-0.12
Mof_C 	C 	0.8451	0.4322	0.7223	0.394
Mof_C 	C 	0.7304	0.4808	0.7204	-0.08
Mof_C 	C 	0.7439	0.515	0.7859	0.366
Mof_C 	C 	0.6954	0.4148	0.7262	-0.055
Mof_C 	C 	0.6221	0.4208	0.715	0.389
Mof_C 	C 	0.232	0.9157	0.8647	-0.053
Mof_C 	C 	0.2649	0.9428	0.9259	0.417
Mof_C 	C 	0.2074	0.9659	0.818	-0.12
Mof_C 	C 	0.1549	0.9322	0.7777	0.394
Mof_C 	C 	0.2696	0.9808	0.7796	-0.079
Mof_C 	C 	0.2561	0.015	0.7141	0.366
Mof_C 	C 	0.3046	0.9148	0.7738	-0.055
Mof_C 	C 	0.3779	0.9208	0.785	0.389
Mof_O 	O 	0.6717	0.7801	0.8766	-0.261
Mof_O 	O 	0.5564	0.8144	0.9135	-0.639
Mof_O 	O 	0.5431	0.7368	0.9862	-0.438
Mof_O 	O 	0.7018	0.5949	0.9438	-0.447
Mof_O 	O 	0.7673	0.6683	0.8979	-0.496
Mof_O 	O 	0.7805	0.7224	0.0657	-0.473
Mof_O 	O 	0.839	0.7774	0.993	-0.411
Mof_O 	O 	0.7589	0.9125	0.948	-0.426
Mof_O 	O 	0.6633	0.9026	0.9018	-0.614
Mof_O 	O 	0.5437	0.9215	0.8414	-0.954
Mof_O 	O 	0.8283	0.2199	0.3766	-0.261
Mof_O 	O 	0.9436	0.1856	0.4135	-0.64
Mof_O 	O 	0.9569	0.2632	0.4862	-0.439
Mof_O 	O 	0.7982	0.4051	0.4438	-0.447
Mof_O 	O 	0.7327	0.3317	0.3979	-0.496
Mof_O 	O 	0.7195	0.2776	0.5657	-0.474
Mof_O 	O 	0.661	0.2226	0.493	-0.415
Mof_O 	O 	0.7411	0.0875	0.448	-0.428
Mof_O 	O 	0.8367	0.0974	0.4018	-0.615
Mof_O 	O 	0.9563	0.0785	0.3414	-0.955
Mof_O 	O 	0.3283	0.2801	0.6234	-0.261
Mof_O 	O 	0.4436	0.3144	0.5865	-0.639
Mof_O 	O 	0.4569	0.2368	0.5138	-0.439
Mof_O 	O 	0.2982	0.0949	0.5562	-0.447
Mof_O 	O 	0.2327	0.1683	0.6021	-0.496
Mof_O 	O 	0.2195	0.2224	0.4343	-0.474
Mof_O 	O 	0.161	0.2774	0.507	-0.415
Mof_O 	O 	0.2411	0.4125	0.552	-0.428
Mof_O 	O 	0.3367	0.4026	0.5982	-0.615
Mof_O 	O 	0.4563	0.4215	0.6586	-0.954
Mof_O 	O 	0.1717	0.7199	0.1234	-0.261
Mof_O 	O 	0.0564	0.6856	0.0865	-0.639
Mof_O 	O 	0.0431	0.7632	0.0138	-0.439
Mof_O 	O 	0.2018	0.9051	0.0562	-0.448
Mof_O 	O 	0.2673	0.8317	0.1021	-0.496
Mof_O 	O 	0.2805	0.7776	0.9343	-0.474
Mof_O 	O 	0.339	0.7226	0.007	-0.415
Mof_O 	O 	0.2589	0.5875	0.052	-0.428
Mof_O 	O 	0.1633	0.5974	0.0982	-0.615
Mof_O 	O 	0.0437	0.5785	0.1586	-0.954
Mof_O 	O 	0.8766	0.6717	0.7801	-0.261
Mof_O 	O 	0.9135	0.5564	0.8144	-0.639
Mof_O 	O 	0.9862	0.5431	0.7368	-0.438
Mof_O 	O 	0.9438	0.7018	0.5949	-0.447
Mof_O 	O 	0.8979	0.7673	0.6683	-0.496
Mof_O 	O 	0.0657	0.7805	0.7224	-0.473
Mof_O 	O 	0.993	0.839	0.7774	-0.411
Mof_O 	O 	0.948	0.7589	0.9125	-0.426
Mof_O 	O 	0.9018	0.6633	0.9026	-0.614
Mof_O 	O 	0.8414	0.5437	0.9215	-0.954
Mof_O 	O 	0.3766	0.8283	0.2199	-0.261
Mof_O 	O 	0.4135	0.9436	0.1856	-0.64
Mof_O 	O 	0.4862	0.9569	0.2632	-0.439
Mof_O 	O 	0.4438	0.7982	0.4051	-0.447
Mof_O 	O 	0.3979	0.7327	0.3317	-0.496
Mof_O 	O 	0.5657	0.7195	0.2776	-0.474
Mof_O 	O 	0.493	0.661	0.2226	-0.415
Mof_O 	O 	0.448	0.7411	0.0875	-0.428
Mof_O 	O 	0.4018	0.8367	0.0974	-0.615
Mof_O 	O 	0.3414	0.9563	0.0785	-0.955
Mof_O 	O 	0.6234	0.3283	0.2801	-0.261
Mof_O 	O 	0.5865	0.4436	0.3144	-0.639
Mof_O 	O 	0.5138	0.4569	0.2368	-0.439
Mof_O 	O 	0.5562	0.2982	0.0949	-0.447
Mof_O 	O 	0.6021	0.2327	0.1683	-0.496
Mof_O 	O 	0.4343	0.2195	0.2224	-0.474
Mof_O 	O 	0.507	0.161	0.2774	-0.415
Mof_O 	O 	0.552	0.2411	0.4125	-0.428
Mof_O 	O 	0.5982	0.3367	0.4026	-0.615
Mof_O 	O 	0.6586	0.4563	0.4215	-0.954
Mof_O 	O 	0.1234	0.1717	0.7199	-0.261
Mof_O 	O 	0.0865	0.0564	0.6856	-0.639
Mof_O 	O 	0.0138	0.0431	0.7632	-0.439
Mof_O 	O 	0.0562	0.2018	0.9051	-0.448
Mof_O 	O 	0.1021	0.2673	0.8317	-0.496
Mof_O 	O 	0.9343	0.2805	0.7776	-0.474
Mof_O 	O 	0.007	0.339	0.7226	-0.415
Mof_O 	O 	0.052	0.2589	0.5875	-0.428
Mof_O 	O 	0.0982	0.1633	0.5974	-0.615
Mof_O 	O 	0.1586	0.0437	0.5785	-0.954
Mof_O 	O 	0.7801	0.8766	0.6717	-0.261
Mof_O 	O 	0.8144	0.9135	0.5564	-0.639
Mof_O 	O 	0.7368	0.9862	0.5431	-0.438
Mof_O 	O 	0.5949	0.9438	0.7018	-0.447
Mof_O 	O 	0.6683	0.8979	0.7673	-0.496
Mof_O 	O 	0.7224	0.0657	0.7805	-0.473
Mof_O 	O 	0.7774	0.993	0.839	-0.411
Mof_O 	O 	0.9125	0.948	0.7589	-0.426
Mof_O 	O 	0.9026	0.9018	0.6633	-0.614
Mof_O 	O 	0.9215	0.8414	0.5437	-0.954
Mof_O 	O 	0.2199	0.3766	0.8283	-0.261
Mof_O 	O 	0.1856	0.4135	0.9436	-0.64
Mof_O 	O 	0.2632	0.4862	0.9569	-0.439
Mof_O 	O 	0.4051	0.4438	0.7982	-0.447
Mof_O 	O 	0.3317	0.3979	0.7327	-0.496
Mof_O 	O 	0.2776	0.5657	0.7195	-0.474
Mof_O 	O 	0.2226	0.493	0.661	-0.415
Mof_O 	O 	0.0875	0.448	0.7411	-0.428
Mof_O 	O 	0.0974	0.4018	0.8367	-0.615
Mof_O 	O 	0.0785	0.3414	0.9563	-0.955
Mof_O 	O 	0.2801	0.6234	0.3283	-0.261
Mof_O 	O 	0.3144	0.5865	0.4436	-0.639
Mof_O 	O 	0.2368	0.5138	0.4569	-0.439
Mof_O 	O 	0.0949	0.5562	0.2982	-0.447
Mof_O 	O 	0.1683	0.6021	0.2327	-0.496
Mof_O 	O 	0.2224	0.4343	0.2195	-0.474
Mof_O 	O 	0.2774	0.507	0.161	-0.415
Mof_O 	O 	0.4125	0.552	0.2411	-0.428
Mof_O 	O 	0.4026	0.5982	0.3367	-0.615
Mof_O 	O 	0.4215	0.6586	0.4563	-0.954
Mof_O 	O 	0.7199	0.1234	0.1717	-0.261
Mof_O 	O 	0.6856	0.0865	0.0564	-0.639
Mof_O 	O 	0.7632	0.0138	0.0431	-0.439
Mof_O 	O 	0.9051	0.0562	0.2018	-0.448
Mof_O 	O 	0.8317	0.1021	0.2673	-0.496
Mof_O 	O 	0.7776	0.9343	0.2805	-0.474
Mof_O 	O 	0.7226	0.007	0.339	-0.415
Mof_O 	O 	0.5875	0.052	0.2589	-0.428
Mof_O 	O 	0.5974	0.0982	0.1633	-0.615
Mof_O 	O 	0.5785	0.1586	0.0437	-0.954
Mof_O 	O 	0.3283	0.2199	0.1234	-0.261
Mof_O 	O 	0.4436	0.1856	0.0865	-0.639
Mof_O 	O 	0.4569	0.2632	0.0138	-0.438
Mof_O 	O 	0.2982	0.4051	0.0562	-0.447
Mof_O 	O 	0.2327	0.3317	0.1021	-0.496
Mof_O 	O 	0.2195	0.2776	0.9343	-0.473
Mof_O 	O 	0.161	0.2226	0.007	-0.411
Mof_O 	O 	0.2411	0.0875	0.052	-0.426
Mof_O 	O 	0.3367	0.0974	0.0982	-0.614
Mof_O 	O 	0.4563	0.0785	0.1586	-0.954
Mof_O 	O 	0.1717	0.7801	0.6234	-0.261
Mof_O 	O 	0.0564	0.8144	0.5865	-0.64
Mof_O 	O 	0.0431	0.7368	0.5138	-0.439
Mof_O 	O 	0.2018	0.5949	0.5562	-0.447
Mof_O 	O 	0.2673	0.6683	0.6021	-0.496
Mof_O 	O 	0.2805	0.7224	0.4343	-0.474
Mof_O 	O 	0.339	0.7774	0.507	-0.415
Mof_O 	O 	0.2589	0.9125	0.552	-0.428
Mof_O 	O 	0.1633	0.9026	0.5982	-0.615
Mof_O 	O 	0.0437	0.9215	0.6586	-0.955
Mof_O 	O 	0.6717	0.7199	0.3766	-0.261
Mof_O 	O 	0.5564	0.6856	0.4135	-0.639
Mof_O 	O 	0.5431	0.7632	0.4862	-0.439
Mof_O 	O 	0.7018	0.9051	0.4438	-0.447
Mof_O 	O 	0.7673	0.8317	0.3979	-0.496
Mof_O 	O 	0.7805	0.7776	0.5657	-0.474
Mof_O 	O 	0.839	0.7226	0.493	-0.415
Mof_O 	O 	0.7589	0.5875	0.448	-0.428
Mof_O 	O 	0.6633	0.5974	0.4018	-0.615
Mof_O 	O 	0.5437	0.5785	0.3414	-0.954
Mof_O 	O 	0.8283	0.2801	0.8766	-0.261
Mof_O 	O 	0.9436	0.3144	0.9135	-0.639
Mof_O 	O 	0.9569	0.2368	0.9862	-0.439
Mof_O 	O 	0.7982	0.0949	0.9438	-0.448
Mof_O 	O 	0.7327	0.1683	0.8979	-0.496
Mof_O 	O 	0.7195	0.2224	0.0657	-0.474
Mof_O 	O 	0.661	0.2774	0.993	-0.415
Mof_O 	O 	0.7411	0.4125	0.948	-0.428
Mof_O 	O 	0.8367	0.4026	0.9018	-0.615
Mof_O 	O 	0.9563	0.4215	0.8414	-0.954
Mof_O 	O 	0.1234	0.3283	0.2199	-0.261
Mof_O 	O 	0.0865	0.4436	0.1856	-0.639
Mof_O 	O 	0.0138	0.4569	0.2632	-0.438
Mof_O 	O 	0.0562	0.2982	0.4051	-0.447
Mof_O 	O 	0.1021	0.2327	0.3317	-0.496
Mof_O 	O 	0.9343	0.2195	0.2776	-0.473
Mof_O 	O 	0.007	0.161	0.2226	-0.411
Mof_O 	O 	0.052	0.2411	0.0875	-0.426
Mof_O 	O 	0.0982	0.3367	0.0974	-0.614
Mof_O 	O 	0.1586	0.4563	0.0785	-0.954
Mof_O 	O 	0.6234	0.1717	0.7801	-0.261
Mof_O 	O 	0.5865	0.0564	0.8144	-0.64
Mof_O 	O 	0.5138	0.0431	0.7368	-0.439
Mof_O 	O 	0.5562	0.2018	0.5949	-0.447
Mof_O 	O 	0.6021	0.2673	0.6683	-0.496
Mof_O 	O 	0.4343	0.2805	0.7224	-0.474
Mof_O 	O 	0.507	0.339	0.7774	-0.415
Mof_O 	O 	0.552	0.2589	0.9125	-0.428
Mof_O 	O 	0.5982	0.1633	0.9026	-0.615
Mof_O 	O 	0.6586	0.0437	0.9215	-0.955
Mof_O 	O 	0.3766	0.6717	0.7199	-0.261
Mof_O 	O 	0.4135	0.5564	0.6856	-0.639
Mof_O 	O 	0.4862	0.5431	0.7632	-0.439
Mof_O 	O 	0.4438	0.7018	0.9051	-0.447
Mof_O 	O 	0.3979	0.7673	0.8317	-0.496
Mof_O 	O 	0.5657	0.7805	0.7776	-0.474
Mof_O 	O 	0.493	0.839	0.7226	-0.415
Mof_O 	O 	0.448	0.7589	0.5875	-0.428
Mof_O 	O 	0.4018	0.6633	0.5974	-0.615
Mof_O 	O 	0.3414	0.5437	0.5785	-0.954
Mof_O 	O 	0.8766	0.8283	0.2801	-0.261
Mof_O 	O 	0.9135	0.9436	0.3144	-0.639
Mof_O 	O 	0.9862	0.9569	0.2368	-0.439
Mof_O 	O 	0.9438	0.7982	0.0949	-0.448
Mof_O 	O 	0.8979	0.7327	0.1683	-0.496
Mof_O 	O 	0.0657	0.7195	0.2224	-0.474
Mof_O 	O 	0.993	0.661	0.2774	-0.415
Mof_O 	O 	0.948	0.7411	0.4125	-0.428
Mof_O 	O 	0.9018	0.8367	0.4026	-0.615
Mof_O 	O 	0.8414	0.9563	0.4215	-0.954
Mof_O 	O 	0.2199	0.1234	0.3283	-0.261
Mof_O 	O 	0.1856	0.0865	0.4436	-0.639
Mof_O 	O 	0.2632	0.0138	0.4569	-0.438
Mof_O 	O 	0.4051	0.0562	0.2982	-0.447
Mof_O 	O 	0.3317	0.1021	0.2327	-0.496
Mof_O 	O 	0.2776	0.9343	0.2195	-0.473
Mof_O 	O 	0.2226	0.007	0.161	-0.411
Mof_O 	O 	0.0875	0.052	0.2411	-0.426
Mof_O 	O 	0.0974	0.0982	0.3367	-0.614
Mof_O 	O 	0.0785	0.1586	0.4563	-0.954
Mof_O 	O 	0.7801	0.6234	0.1717	-0.261
Mof_O 	O 	0.8144	0.5865	0.0564	-0.64
Mof_O 	O 	0.7368	0.5138	0.0431	-0.439
Mof_O 	O 	0.5949	0.5562	0.2018	-0.447
Mof_O 	O 	0.6683	0.6021	0.2673	-0.496
Mof_O 	O 	0.7224	0.4343	0.2805	-0.474
Mof_O 	O 	0.7774	0.507	0.339	-0.415
Mof_O 	O 	0.9125	0.552	0.2589	-0.428
Mof_O 	O 	0.9026	0.5982	0.1633	-0.615
Mof_O 	O 	0.9215	0.6586	0.0437	-0.955
Mof_O 	O 	0.7199	0.3766	0.6717	-0.261
Mof_O 	O 	0.6856	0.4135	0.5564	-0.639
Mof_O 	O 	0.7632	0.4862	0.5431	-0.439
Mof_O 	O 	0.9051	0.4438	0.7018	-0.447
Mof_O 	O 	0.8317	0.3979	0.7673	-0.496
Mof_O 	O 	0.7776	0.5657	0.7805	-0.474
Mof_O 	O 	0.7226	0.493	0.839	-0.415
Mof_O 	O 	0.5875	0.448	0.7589	-0.428
Mof_O 	O 	0.5974	0.4018	0.6633	-0.615
Mof_O 	O 	0.5785	0.3414	0.5437	-0.954
Mof_O 	O 	0.2801	0.8766	0.8283	-0.261
Mof_O 	O 	0.3144	0.9135	0.9436	-0.639
Mof_O 	O 	0.2368	0.9862	0.9569	-0.439
Mof_O 	O 	0.0949	0.9438	0.7982	-0.448
Mof_O 	O 	0.1683	0.8979	0.7327	-0.496
Mof_O 	O 	0.2224	0.0657	0.7195	-0.474
Mof_O 	O 	0.2774	0.993	0.661	-0.415
Mof_O 	O 	0.4125	0.948	0.7411	-0.428
Mof_O 	O 	0.4026	0.9018	0.8367	-0.615
Mof_O 	O 	0.4215	0.8414	0.9563	-0.954
_end
