data_functionalizedCrystal
_audit_creation_method	'EQeq! by Chris Wilmer'
_symmetry_space_group_name_H-M	'P1'
_symmetry_Int_Tables_number	1
_symmetry_cell_setting	triclinic
loop_
_symmetry_equiv_pos_as_xyz
  x,y,z
_cell_length_a	26.4022
_cell_length_b	26.4022
_cell_length_c	26.4022
_cell_angle_alpha	90
_cell_angle_beta	90
_cell_angle_gamma	90
loop_
_atom_site_label
_atom_site_type_symbol
_atom_site_fract_x
_atom_site_fract_y
_atom_site_fract_z
_atom_site_charge
Mof_O 	O 	0.81666	0.94744	0.24319	-0.369
Mof_O 	O 	0.81666	0.44744	0.74319	-0.397
Mof_O 	O 	0.31666	0.94744	0.74319	-0.371
Mof_O 	O 	0.31666	0.44744	0.24319	-0.406
Mof_O 	O 	0.18334	0.05256	0.24319	-0.427
Mof_O 	O 	0.18334	0.55256	0.74319	-0.407
Mof_O 	O 	0.68334	0.05256	0.74319	-0.419
Mof_O 	O 	0.68334	0.55256	0.24319	-0.406
Mof_O 	O 	0.18334	0.94744	0.75681	-0.377
Mof_O 	O 	0.18334	0.44744	0.25681	-0.412
Mof_O 	O 	0.68334	0.94744	0.25681	-0.376
Mof_O 	O 	0.68334	0.44744	0.75681	-0.404
Mof_O 	O 	0.81666	0.05256	0.75681	-0.415
Mof_O 	O 	0.81666	0.55256	0.25681	-0.402
Mof_O 	O 	0.31666	0.05256	0.25681	-0.424
Mof_O 	O 	0.31666	0.55256	0.75681	-0.404
Mof_O 	O 	0.24319	0.81666	0.94744	-0.37
Mof_O 	O 	0.24319	0.31666	0.44744	-0.407
Mof_O 	O 	0.74319	0.81666	0.44744	-0.398
Mof_O 	O 	0.74319	0.31666	0.94744	-0.372
Mof_O 	O 	0.24319	0.18334	0.05256	-0.428
Mof_O 	O 	0.24319	0.68334	0.55256	-0.407
Mof_O 	O 	0.74319	0.18334	0.55256	-0.408
Mof_O 	O 	0.74319	0.68334	0.05256	-0.42
Mof_O 	O 	0.75681	0.18334	0.94744	-0.378
Mof_O 	O 	0.75681	0.68334	0.44744	-0.404
Mof_O 	O 	0.25681	0.18334	0.44744	-0.412
Mof_O 	O 	0.25681	0.68334	0.94744	-0.376
Mof_O 	O 	0.75681	0.81666	0.05256	-0.415
Mof_O 	O 	0.75681	0.31666	0.55256	-0.404
Mof_O 	O 	0.25681	0.81666	0.55256	-0.402
Mof_O 	O 	0.25681	0.31666	0.05256	-0.424
Mof_O 	O 	0.94744	0.24319	0.81666	-0.37
Mof_O 	O 	0.94744	0.74319	0.31666	-0.372
Mof_O 	O 	0.44744	0.24319	0.31666	-0.407
Mof_O 	O 	0.44744	0.74319	0.81666	-0.398
Mof_O 	O 	0.05256	0.24319	0.18334	-0.428
Mof_O 	O 	0.05256	0.74319	0.68334	-0.42
Mof_O 	O 	0.55256	0.24319	0.68334	-0.407
Mof_O 	O 	0.55256	0.74319	0.18334	-0.408
Mof_O 	O 	0.94744	0.75681	0.18334	-0.378
Mof_O 	O 	0.94744	0.25681	0.68334	-0.376
Mof_O 	O 	0.44744	0.75681	0.68334	-0.404
Mof_O 	O 	0.44744	0.25681	0.18334	-0.412
Mof_O 	O 	0.05256	0.75681	0.81666	-0.415
Mof_O 	O 	0.05256	0.25681	0.31666	-0.424
Mof_O 	O 	0.55256	0.75681	0.31666	-0.404
Mof_O 	O 	0.55256	0.25681	0.81666	-0.402
Mof_O 	O 	0.94744	0.81666	0.75681	-0.367
Mof_O 	O 	0.94744	0.31666	0.25681	-0.376
Mof_O 	O 	0.44744	0.81666	0.25681	-0.402
Mof_O 	O 	0.44744	0.31666	0.75681	-0.404
Mof_O 	O 	0.05256	0.18334	0.75681	-0.425
Mof_O 	O 	0.05256	0.68334	0.25681	-0.424
Mof_O 	O 	0.55256	0.18334	0.25681	-0.412
Mof_O 	O 	0.55256	0.68334	0.75681	-0.404
Mof_O 	O 	0.94744	0.18334	0.24319	-0.38
Mof_O 	O 	0.94744	0.68334	0.74319	-0.372
Mof_O 	O 	0.44744	0.18334	0.74319	-0.408
Mof_O 	O 	0.44744	0.68334	0.24319	-0.407
Mof_O 	O 	0.05256	0.81666	0.24319	-0.418
Mof_O 	O 	0.05256	0.31666	0.74319	-0.42
Mof_O 	O 	0.55256	0.81666	0.74319	-0.398
Mof_O 	O 	0.55256	0.31666	0.24319	-0.407
Mof_O 	O 	0.81666	0.24319	0.05256	-0.418
Mof_O 	O 	0.81666	0.74319	0.55256	-0.398
Mof_O 	O 	0.31666	0.24319	0.55256	-0.407
Mof_O 	O 	0.31666	0.74319	0.05256	-0.42
Mof_O 	O 	0.18334	0.24319	0.94744	-0.38
Mof_O 	O 	0.18334	0.74319	0.44744	-0.408
Mof_O 	O 	0.68334	0.24319	0.44744	-0.407
Mof_O 	O 	0.68334	0.74319	0.94744	-0.372
Mof_O 	O 	0.18334	0.75681	0.05256	-0.425
Mof_O 	O 	0.18334	0.25681	0.55256	-0.412
Mof_O 	O 	0.68334	0.75681	0.55256	-0.404
Mof_O 	O 	0.68334	0.25681	0.05256	-0.424
Mof_O 	O 	0.81666	0.75681	0.94744	-0.367
Mof_O 	O 	0.81666	0.25681	0.44744	-0.402
Mof_O 	O 	0.31666	0.75681	0.44744	-0.404
Mof_O 	O 	0.31666	0.25681	0.94744	-0.376
Mof_O 	O 	0.24319	0.94744	0.18334	-0.38
Mof_O 	O 	0.24319	0.44744	0.68334	-0.407
Mof_O 	O 	0.74319	0.94744	0.68334	-0.372
Mof_O 	O 	0.74319	0.44744	0.18334	-0.408
Mof_O 	O 	0.24319	0.05256	0.81666	-0.418
Mof_O 	O 	0.24319	0.55256	0.31666	-0.407
Mof_O 	O 	0.74319	0.05256	0.31666	-0.42
Mof_O 	O 	0.74319	0.55256	0.81666	-0.398
Mof_O 	O 	0.75681	0.94744	0.81666	-0.367
Mof_O 	O 	0.75681	0.44744	0.31666	-0.404
Mof_O 	O 	0.25681	0.94744	0.31666	-0.376
Mof_O 	O 	0.25681	0.44744	0.81666	-0.402
Mof_O 	O 	0.75681	0.05256	0.18334	-0.425
Mof_O 	O 	0.75681	0.55256	0.68334	-0.404
Mof_O 	O 	0.25681	0.05256	0.68334	-0.424
Mof_O 	O 	0.25681	0.55256	0.18334	-0.412
Mof_O 	O 	0.18334	0.05256	0.75681	-0.425
Mof_O 	O 	0.18334	0.55256	0.25681	-0.412
Mof_O 	O 	0.68334	0.05256	0.25681	-0.424
Mof_O 	O 	0.68334	0.55256	0.75681	-0.404
Mof_O 	O 	0.81666	0.94744	0.75681	-0.367
Mof_O 	O 	0.81666	0.44744	0.25681	-0.402
Mof_O 	O 	0.31666	0.94744	0.25681	-0.376
Mof_O 	O 	0.31666	0.44744	0.75681	-0.404
Mof_O 	O 	0.81666	0.05256	0.24319	-0.418
Mof_O 	O 	0.81666	0.55256	0.74319	-0.398
Mof_O 	O 	0.31666	0.05256	0.74319	-0.42
Mof_O 	O 	0.31666	0.55256	0.24319	-0.407
Mof_O 	O 	0.18334	0.94744	0.24319	-0.38
Mof_O 	O 	0.18334	0.44744	0.74319	-0.408
Mof_O 	O 	0.68334	0.94744	0.74319	-0.372
Mof_O 	O 	0.68334	0.44744	0.24319	-0.407
Mof_O 	O 	0.75681	0.18334	0.05256	-0.425
Mof_O 	O 	0.75681	0.68334	0.55256	-0.404
Mof_O 	O 	0.25681	0.18334	0.55256	-0.412
Mof_O 	O 	0.25681	0.68334	0.05256	-0.424
Mof_O 	O 	0.75681	0.81666	0.94744	-0.367
Mof_O 	O 	0.75681	0.31666	0.44744	-0.404
Mof_O 	O 	0.25681	0.81666	0.44744	-0.402
Mof_O 	O 	0.25681	0.31666	0.94744	-0.376
Mof_O 	O 	0.24319	0.81666	0.05256	-0.418
Mof_O 	O 	0.24319	0.31666	0.55256	-0.407
Mof_O 	O 	0.74319	0.81666	0.55256	-0.398
Mof_O 	O 	0.74319	0.31666	0.05256	-0.42
Mof_O 	O 	0.24319	0.18334	0.94744	-0.38
Mof_O 	O 	0.24319	0.68334	0.44744	-0.407
Mof_O 	O 	0.74319	0.18334	0.44744	-0.408
Mof_O 	O 	0.74319	0.68334	0.94744	-0.372
Mof_O 	O 	0.05256	0.75681	0.18334	-0.425
Mof_O 	O 	0.05256	0.25681	0.68334	-0.424
Mof_O 	O 	0.55256	0.75681	0.68334	-0.404
Mof_O 	O 	0.55256	0.25681	0.18334	-0.412
Mof_O 	O 	0.94744	0.75681	0.81666	-0.367
Mof_O 	O 	0.94744	0.25681	0.31666	-0.376
Mof_O 	O 	0.44744	0.75681	0.31666	-0.404
Mof_O 	O 	0.44744	0.25681	0.81666	-0.402
Mof_O 	O 	0.05256	0.24319	0.81666	-0.418
Mof_O 	O 	0.05256	0.74319	0.31666	-0.42
Mof_O 	O 	0.55256	0.24319	0.31666	-0.407
Mof_O 	O 	0.55256	0.74319	0.81666	-0.398
Mof_O 	O 	0.94744	0.24319	0.18334	-0.38
Mof_O 	O 	0.94744	0.74319	0.68334	-0.372
Mof_O 	O 	0.44744	0.24319	0.68334	-0.407
Mof_O 	O 	0.44744	0.74319	0.18334	-0.408
Mof_O 	O 	0.05256	0.18334	0.24319	-0.428
Mof_O 	O 	0.05256	0.68334	0.74319	-0.42
Mof_O 	O 	0.55256	0.18334	0.74319	-0.408
Mof_O 	O 	0.55256	0.68334	0.24319	-0.407
Mof_O 	O 	0.94744	0.81666	0.24319	-0.37
Mof_O 	O 	0.94744	0.31666	0.74319	-0.372
Mof_O 	O 	0.44744	0.81666	0.74319	-0.398
Mof_O 	O 	0.44744	0.31666	0.24319	-0.407
Mof_O 	O 	0.05256	0.81666	0.75681	-0.415
Mof_O 	O 	0.05256	0.31666	0.25681	-0.424
Mof_O 	O 	0.55256	0.81666	0.25681	-0.402
Mof_O 	O 	0.55256	0.31666	0.75681	-0.404
Mof_O 	O 	0.94744	0.18334	0.75681	-0.378
Mof_O 	O 	0.94744	0.68334	0.25681	-0.376
Mof_O 	O 	0.44744	0.18334	0.25681	-0.412
Mof_O 	O 	0.44744	0.68334	0.75681	-0.404
Mof_O 	O 	0.18334	0.75681	0.94744	-0.378
Mof_O 	O 	0.18334	0.25681	0.44744	-0.412
Mof_O 	O 	0.68334	0.75681	0.44744	-0.404
Mof_O 	O 	0.68334	0.25681	0.94744	-0.376
Mof_O 	O 	0.81666	0.75681	0.05256	-0.415
Mof_O 	O 	0.81666	0.25681	0.55256	-0.402
Mof_O 	O 	0.31666	0.75681	0.55256	-0.404
Mof_O 	O 	0.31666	0.25681	0.05256	-0.424
Mof_O 	O 	0.81666	0.24319	0.94744	-0.37
Mof_O 	O 	0.81666	0.74319	0.44744	-0.398
Mof_O 	O 	0.31666	0.24319	0.44744	-0.407
Mof_O 	O 	0.31666	0.74319	0.94744	-0.372
Mof_O 	O 	0.18334	0.24319	0.05256	-0.428
Mof_O 	O 	0.18334	0.74319	0.55256	-0.408
Mof_O 	O 	0.68334	0.24319	0.55256	-0.407
Mof_O 	O 	0.68334	0.74319	0.05256	-0.42
Mof_O 	O 	0.75681	0.05256	0.81666	-0.415
Mof_O 	O 	0.75681	0.55256	0.31666	-0.404
Mof_O 	O 	0.25681	0.05256	0.31666	-0.424
Mof_O 	O 	0.25681	0.55256	0.81666	-0.402
Mof_O 	O 	0.75681	0.94744	0.18334	-0.378
Mof_O 	O 	0.75681	0.44744	0.68334	-0.404
Mof_O 	O 	0.25681	0.94744	0.68334	-0.376
Mof_O 	O 	0.25681	0.44744	0.18334	-0.412
Mof_O 	O 	0.24319	0.05256	0.18334	-0.428
Mof_O 	O 	0.24319	0.55256	0.68334	-0.407
Mof_O 	O 	0.74319	0.05256	0.68334	-0.42
Mof_O 	O 	0.74319	0.55256	0.18334	-0.408
Mof_O 	O 	0.24319	0.94744	0.81666	-0.37
Mof_O 	O 	0.24319	0.44744	0.31666	-0.407
Mof_O 	O 	0.74319	0.94744	0.31666	-0.372
Mof_O 	O 	0.74319	0.44744	0.81666	-0.398
Mof_Cu	Cu	0.78491	-2.74322e-33	0.28491	0.877
Mof_Cu	Cu	0.78491	0.5	0.78491	0.908
Mof_Cu	Cu	0.21509	-2.74322e-33	0.28491	0.874
Mof_Cu	Cu	0.21509	0.5	0.78491	0.904
Mof_Cu	Cu	0.21509	0	0.71509	0.874
Mof_Cu	Cu	0.21509	0.5	0.21509	0.901
Mof_Cu	Cu	0.78491	0	0.71509	0.877
Mof_Cu	Cu	0.78491	0.5	0.21509	0.904
Mof_Cu	Cu	0.28491	0.78491	-0	0.877
Mof_Cu	Cu	0.28491	0.28491	0.5	0.904
Mof_Cu	Cu	0.28491	0.21509	-0	0.874
Mof_Cu	Cu	0.28491	0.71509	0.5	0.904
Mof_Cu	Cu	0.71509	0.21509	-0	0.874
Mof_Cu	Cu	0.71509	0.71509	0.5	0.904
Mof_Cu	Cu	0.71509	0.78491	-0	0.877
Mof_Cu	Cu	0.71509	0.28491	0.5	0.904
Mof_Cu	Cu	1.94022e-32	0.28491	0.78491	0.877
Mof_Cu	Cu	0.5	0.28491	0.28491	0.904
Mof_Cu	Cu	3.54967e-33	0.28491	0.21509	0.874
Mof_Cu	Cu	0.5	0.28491	0.71509	0.904
Mof_Cu	Cu	8.06458e-34	0.71509	0.21509	0.874
Mof_Cu	Cu	0.5	0.71509	0.71509	0.904
Mof_Cu	Cu	1.39158e-32	0.71509	0.78491	0.877
Mof_Cu	Cu	0.5	0.71509	0.28491	0.904
Mof_Cu	Cu	1.3654e-32	0.78491	0.71509	0.877
Mof_Cu	Cu	0.5	0.78491	0.21509	0.904
Mof_Cu	Cu	-2.80527e-33	0.21509	0.71509	0.874
Mof_Cu	Cu	0.5	0.21509	0.21509	0.901
Mof_Cu	Cu	1.06824e-33	0.21509	0.28491	0.874
Mof_Cu	Cu	0.5	0.21509	0.78491	0.904
Mof_Cu	Cu	1.47843e-32	0.78491	0.28491	0.877
Mof_Cu	Cu	0.5	0.78491	0.78491	0.908
Mof_Cu	Cu	0.78491	0.28491	-0	0.877
Mof_Cu	Cu	0.78491	0.78491	0.5	0.908
Mof_Cu	Cu	0.21509	0.28491	-0	0.874
Mof_Cu	Cu	0.21509	0.78491	0.5	0.904
Mof_Cu	Cu	0.21509	0.71509	-0	0.874
Mof_Cu	Cu	0.21509	0.21509	0.5	0.901
Mof_Cu	Cu	0.78491	0.71509	-0	0.877
Mof_Cu	Cu	0.78491	0.21509	0.5	0.904
Mof_Cu	Cu	0.28491	2.74322e-33	0.21509	0.874
Mof_Cu	Cu	0.28491	0.5	0.71509	0.904
Mof_Cu	Cu	0.28491	1.09729e-32	0.78491	0.877
Mof_Cu	Cu	0.28491	0.5	0.28491	0.904
Mof_Cu	Cu	0.71509	1.09729e-32	0.78491	0.877
Mof_Cu	Cu	0.71509	0.5	0.28491	0.904
Mof_Cu	Cu	0.71509	2.74322e-33	0.21509	0.874
Mof_Cu	Cu	0.71509	0.5	0.71509	0.904
Mof_C 	C 	0.79723	0.9314	0.20277	0.363
Mof_C 	C 	0.82256	0.8877	0.17744	-0.098
Mof_C 	C 	0.79723	0.4314	0.70277	0.367
Mof_C 	C 	0.82256	0.3877	0.67744	-0.104
Mof_C 	C 	0.29723	0.9314	0.70277	0.363
Mof_C 	C 	0.32256	0.8877	0.67744	-0.099
Mof_C 	C 	0.29723	0.4314	0.20277	0.372
Mof_C 	C 	0.32256	0.3877	0.17744	-0.121
Mof_C 	C 	0.20277	0.0686	0.20277	0.373
Mof_C 	C 	0.17744	0.1123	0.17744	-0.135
Mof_C 	C 	0.20277	0.5686	0.70277	0.37
Mof_C 	C 	0.17744	0.6123	0.67744	-0.117
Mof_C 	C 	0.70277	0.0686	0.70277	0.369
Mof_C 	C 	0.67744	0.1123	0.67744	-0.12
Mof_C 	C 	0.70277	0.5686	0.20277	0.37
Mof_C 	C 	0.67744	0.6123	0.17744	-0.117
Mof_C 	C 	0.20277	0.9314	0.79723	0.363
Mof_C 	C 	0.17744	0.8877	0.82256	-0.098
Mof_C 	C 	0.20277	0.4314	0.29723	0.372
Mof_C 	C 	0.17744	0.3877	0.32256	-0.121
Mof_C 	C 	0.70277	0.9314	0.29723	0.363
Mof_C 	C 	0.67744	0.8877	0.32256	-0.099
Mof_C 	C 	0.70277	0.4314	0.79723	0.367
Mof_C 	C 	0.67744	0.3877	0.82256	-0.104
Mof_C 	C 	0.79723	0.0686	0.79723	0.368
Mof_C 	C 	0.82256	0.1123	0.82256	-0.108
Mof_C 	C 	0.79723	0.5686	0.29723	0.369
Mof_C 	C 	0.82256	0.6123	0.32256	-0.106
Mof_C 	C 	0.29723	0.0686	0.29723	0.372
Mof_C 	C 	0.32256	0.1123	0.32256	-0.125
Mof_C 	C 	0.29723	0.5686	0.79723	0.369
Mof_C 	C 	0.32256	0.6123	0.82256	-0.106
Mof_C 	C 	0.20277	0.79723	0.9314	0.363
Mof_C 	C 	0.17744	0.82256	0.8877	-0.098
Mof_C 	C 	0.20277	0.29723	0.4314	0.372
Mof_C 	C 	0.17744	0.32256	0.3877	-0.121
Mof_C 	C 	0.70277	0.79723	0.4314	0.367
Mof_C 	C 	0.67744	0.82256	0.3877	-0.104
Mof_C 	C 	0.70277	0.29723	0.9314	0.363
Mof_C 	C 	0.67744	0.32256	0.8877	-0.099
Mof_C 	C 	0.20277	0.20277	0.0686	0.373
Mof_C 	C 	0.17744	0.17744	0.1123	-0.135
Mof_C 	C 	0.20277	0.70277	0.5686	0.37
Mof_C 	C 	0.17744	0.67744	0.6123	-0.117
Mof_C 	C 	0.70277	0.20277	0.5686	0.37
Mof_C 	C 	0.67744	0.17744	0.6123	-0.117
Mof_C 	C 	0.70277	0.70277	0.0686	0.369
Mof_C 	C 	0.67744	0.67744	0.1123	-0.12
Mof_C 	C 	0.79723	0.20277	0.9314	0.363
Mof_C 	C 	0.82256	0.17744	0.8877	-0.098
Mof_C 	C 	0.79723	0.70277	0.4314	0.367
Mof_C 	C 	0.82256	0.67744	0.3877	-0.104
Mof_C 	C 	0.29723	0.20277	0.4314	0.372
Mof_C 	C 	0.32256	0.17744	0.3877	-0.121
Mof_C 	C 	0.29723	0.70277	0.9314	0.363
Mof_C 	C 	0.32256	0.67744	0.8877	-0.099
Mof_C 	C 	0.79723	0.79723	0.0686	0.368
Mof_C 	C 	0.82256	0.82256	0.1123	-0.108
Mof_C 	C 	0.79723	0.29723	0.5686	0.369
Mof_C 	C 	0.82256	0.32256	0.6123	-0.106
Mof_C 	C 	0.29723	0.79723	0.5686	0.369
Mof_C 	C 	0.32256	0.82256	0.6123	-0.106
Mof_C 	C 	0.29723	0.29723	0.0686	0.372
Mof_C 	C 	0.32256	0.32256	0.1123	-0.125
Mof_C 	C 	0.9314	0.20277	0.79723	0.363
Mof_C 	C 	0.8877	0.17744	0.82256	-0.098
Mof_C 	C 	0.9314	0.70277	0.29723	0.363
Mof_C 	C 	0.8877	0.67744	0.32256	-0.099
Mof_C 	C 	0.4314	0.20277	0.29723	0.372
Mof_C 	C 	0.3877	0.17744	0.32256	-0.121
Mof_C 	C 	0.4314	0.70277	0.79723	0.367
Mof_C 	C 	0.3877	0.67744	0.82256	-0.104
Mof_C 	C 	0.0686	0.20277	0.20277	0.373
Mof_C 	C 	0.1123	0.17744	0.17744	-0.135
Mof_C 	C 	0.0686	0.70277	0.70277	0.369
Mof_C 	C 	0.1123	0.67744	0.67744	-0.12
Mof_C 	C 	0.5686	0.20277	0.70277	0.37
Mof_C 	C 	0.6123	0.17744	0.67744	-0.117
Mof_C 	C 	0.5686	0.70277	0.20277	0.37
Mof_C 	C 	0.6123	0.67744	0.17744	-0.117
Mof_C 	C 	0.9314	0.79723	0.20277	0.363
Mof_C 	C 	0.8877	0.82256	0.17744	-0.098
Mof_C 	C 	0.9314	0.29723	0.70277	0.363
Mof_C 	C 	0.8877	0.32256	0.67744	-0.099
Mof_C 	C 	0.4314	0.79723	0.70277	0.367
Mof_C 	C 	0.3877	0.82256	0.67744	-0.104
Mof_C 	C 	0.4314	0.29723	0.20277	0.372
Mof_C 	C 	0.3877	0.32256	0.17744	-0.121
Mof_C 	C 	0.0686	0.79723	0.79723	0.368
Mof_C 	C 	0.1123	0.82256	0.82256	-0.108
Mof_C 	C 	0.0686	0.29723	0.29723	0.372
Mof_C 	C 	0.1123	0.32256	0.32256	-0.125
Mof_C 	C 	0.5686	0.79723	0.29723	0.369
Mof_C 	C 	0.6123	0.82256	0.32256	-0.106
Mof_C 	C 	0.5686	0.29723	0.79723	0.369
Mof_C 	C 	0.6123	0.32256	0.82256	-0.106
Mof_C 	C 	0.9314	0.79723	0.79723	0.36
Mof_C 	C 	0.8877	0.82256	0.82256	-0.084
Mof_C 	C 	0.9314	0.29723	0.29723	0.365
Mof_C 	C 	0.8877	0.32256	0.32256	-0.102
Mof_C 	C 	0.4314	0.79723	0.29723	0.369
Mof_C 	C 	0.3877	0.82256	0.32256	-0.107
Mof_C 	C 	0.4314	0.29723	0.79723	0.369
Mof_C 	C 	0.3877	0.32256	0.82256	-0.107
Mof_C 	C 	0.0686	0.20277	0.79723	0.37
Mof_C 	C 	0.1123	0.17744	0.82256	-0.122
Mof_C 	C 	0.0686	0.70277	0.29723	0.371
Mof_C 	C 	0.1123	0.67744	0.32256	-0.123
Mof_C 	C 	0.5686	0.20277	0.29723	0.371
Mof_C 	C 	0.6123	0.17744	0.32256	-0.12
Mof_C 	C 	0.5686	0.70277	0.79723	0.367
Mof_C 	C 	0.6123	0.67744	0.82256	-0.103
Mof_C 	C 	0.9314	0.20277	0.20277	0.365
Mof_C 	C 	0.8877	0.17744	0.17744	-0.112
Mof_C 	C 	0.9314	0.70277	0.70277	0.361
Mof_C 	C 	0.8877	0.67744	0.67744	-0.097
Mof_C 	C 	0.4314	0.20277	0.70277	0.37
Mof_C 	C 	0.3877	0.17744	0.67744	-0.118
Mof_C 	C 	0.4314	0.70277	0.20277	0.37
Mof_C 	C 	0.3877	0.67744	0.17744	-0.118
Mof_C 	C 	0.0686	0.79723	0.20277	0.37
Mof_C 	C 	0.1123	0.82256	0.17744	-0.122
Mof_C 	C 	0.0686	0.29723	0.70277	0.371
Mof_C 	C 	0.1123	0.32256	0.67744	-0.123
Mof_C 	C 	0.5686	0.79723	0.70277	0.367
Mof_C 	C 	0.6123	0.82256	0.67744	-0.103
Mof_C 	C 	0.5686	0.29723	0.20277	0.371
Mof_C 	C 	0.6123	0.32256	0.17744	-0.12
Mof_C 	C 	0.79723	0.20277	0.0686	0.37
Mof_C 	C 	0.82256	0.17744	0.1123	-0.122
Mof_C 	C 	0.79723	0.70277	0.5686	0.367
Mof_C 	C 	0.82256	0.67744	0.6123	-0.103
Mof_C 	C 	0.29723	0.20277	0.5686	0.371
Mof_C 	C 	0.32256	0.17744	0.6123	-0.12
Mof_C 	C 	0.29723	0.70277	0.0686	0.371
Mof_C 	C 	0.32256	0.67744	0.1123	-0.123
Mof_C 	C 	0.20277	0.20277	0.9314	0.365
Mof_C 	C 	0.17744	0.17744	0.8877	-0.112
Mof_C 	C 	0.20277	0.70277	0.4314	0.37
Mof_C 	C 	0.17744	0.67744	0.3877	-0.118
Mof_C 	C 	0.70277	0.20277	0.4314	0.37
Mof_C 	C 	0.67744	0.17744	0.3877	-0.118
Mof_C 	C 	0.70277	0.70277	0.9314	0.361
Mof_C 	C 	0.67744	0.67744	0.8877	-0.097
Mof_C 	C 	0.20277	0.79723	0.0686	0.37
Mof_C 	C 	0.17744	0.82256	0.1123	-0.122
Mof_C 	C 	0.20277	0.29723	0.5686	0.371
Mof_C 	C 	0.17744	0.32256	0.6123	-0.12
Mof_C 	C 	0.70277	0.79723	0.5686	0.367
Mof_C 	C 	0.67744	0.82256	0.6123	-0.103
Mof_C 	C 	0.70277	0.29723	0.0686	0.371
Mof_C 	C 	0.67744	0.32256	0.1123	-0.123
Mof_C 	C 	0.79723	0.79723	0.9314	0.36
Mof_C 	C 	0.82256	0.82256	0.8877	-0.084
Mof_C 	C 	0.79723	0.29723	0.4314	0.369
Mof_C 	C 	0.82256	0.32256	0.3877	-0.107
Mof_C 	C 	0.29723	0.79723	0.4314	0.369
Mof_C 	C 	0.32256	0.82256	0.3877	-0.107
Mof_C 	C 	0.29723	0.29723	0.9314	0.365
Mof_C 	C 	0.32256	0.32256	0.8877	-0.102
Mof_C 	C 	0.20277	0.9314	0.20277	0.365
Mof_C 	C 	0.17744	0.8877	0.17744	-0.112
Mof_C 	C 	0.20277	0.4314	0.70277	0.37
Mof_C 	C 	0.17744	0.3877	0.67744	-0.118
Mof_C 	C 	0.70277	0.9314	0.70277	0.361
Mof_C 	C 	0.67744	0.8877	0.67744	-0.097
Mof_C 	C 	0.70277	0.4314	0.20277	0.37
Mof_C 	C 	0.67744	0.3877	0.17744	-0.118
Mof_C 	C 	0.20277	0.0686	0.79723	0.37
Mof_C 	C 	0.17744	0.1123	0.82256	-0.122
Mof_C 	C 	0.20277	0.5686	0.29723	0.371
Mof_C 	C 	0.17744	0.6123	0.32256	-0.12
Mof_C 	C 	0.70277	0.0686	0.29723	0.371
Mof_C 	C 	0.67744	0.1123	0.32256	-0.123
Mof_C 	C 	0.70277	0.5686	0.79723	0.367
Mof_C 	C 	0.67744	0.6123	0.82256	-0.103
Mof_C 	C 	0.79723	0.9314	0.79723	0.36
Mof_C 	C 	0.82256	0.8877	0.82256	-0.084
Mof_C 	C 	0.79723	0.4314	0.29723	0.369
Mof_C 	C 	0.82256	0.3877	0.32256	-0.107
Mof_C 	C 	0.29723	0.9314	0.29723	0.365
Mof_C 	C 	0.32256	0.8877	0.32256	-0.102
Mof_C 	C 	0.29723	0.4314	0.79723	0.369
Mof_C 	C 	0.32256	0.3877	0.82256	-0.107
Mof_C 	C 	0.79723	0.0686	0.20277	0.37
Mof_C 	C 	0.82256	0.1123	0.17744	-0.122
Mof_C 	C 	0.79723	0.5686	0.70277	0.367
Mof_C 	C 	0.82256	0.6123	0.67744	-0.103
Mof_C 	C 	0.29723	0.0686	0.70277	0.371
Mof_C 	C 	0.32256	0.1123	0.67744	-0.123
Mof_C 	C 	0.29723	0.5686	0.20277	0.371
Mof_C 	C 	0.32256	0.6123	0.17744	-0.12
Mof_C 	C 	0.86595	0.86595	0.1991	0.049
Mof_H 	H 	0.8803	0.8803	0.2279	0.06
Mof_C 	C 	0.86595	0.36595	0.6991	0.051
Mof_H 	H 	0.8803	0.3803	0.7279	0.055
Mof_C 	C 	0.36595	0.86595	0.6991	0.051
Mof_H 	H 	0.3803	0.8803	0.7279	0.055
Mof_C 	C 	0.36595	0.36595	0.1991	0.061
Mof_H 	H 	0.3803	0.3803	0.2279	0.043
Mof_C 	C 	0.13405	0.13405	0.1991	0.066
Mof_H 	H 	0.1197	0.1197	0.2279	0.029
Mof_C 	C 	0.13405	0.63405	0.6991	0.058
Mof_H 	H 	0.1197	0.6197	0.7279	0.041
Mof_C 	C 	0.63405	0.13405	0.6991	0.058
Mof_H 	H 	0.6197	0.1197	0.7279	0.041
Mof_C 	C 	0.63405	0.63405	0.1991	0.058
Mof_H 	H 	0.6197	0.6197	0.2279	0.044
Mof_C 	C 	0.13405	0.86595	0.8009	0.051
Mof_H 	H 	0.1197	0.8803	0.7721	0.049
Mof_C 	C 	0.13405	0.36595	0.3009	0.062
Mof_H 	H 	0.1197	0.3803	0.2721	0.036
Mof_C 	C 	0.63405	0.86595	0.3009	0.051
Mof_H 	H 	0.6197	0.8803	0.2721	0.052
Mof_C 	C 	0.63405	0.36595	0.8009	0.053
Mof_H 	H 	0.6197	0.3803	0.7721	0.048
Mof_C 	C 	0.86595	0.13405	0.8009	0.051
Mof_H 	H 	0.8803	0.1197	0.7721	0.049
Mof_C 	C 	0.86595	0.63405	0.3009	0.051
Mof_H 	H 	0.8803	0.6197	0.2721	0.052
Mof_C 	C 	0.36595	0.13405	0.3009	0.062
Mof_H 	H 	0.3803	0.1197	0.2721	0.036
Mof_C 	C 	0.36595	0.63405	0.8009	0.053
Mof_H 	H 	0.3803	0.6197	0.7721	0.048
Mof_C 	C 	0.1991	0.86595	0.86595	0.049
Mof_H 	H 	0.2279	0.8803	0.8803	0.06
Mof_C 	C 	0.1991	0.36595	0.36595	0.061
Mof_H 	H 	0.2279	0.3803	0.3803	0.043
Mof_C 	C 	0.6991	0.86595	0.36595	0.051
Mof_H 	H 	0.7279	0.8803	0.3803	0.055
Mof_C 	C 	0.6991	0.36595	0.86595	0.051
Mof_H 	H 	0.7279	0.3803	0.8803	0.055
Mof_C 	C 	0.1991	0.13405	0.13405	0.066
Mof_H 	H 	0.2279	0.1197	0.1197	0.029
Mof_C 	C 	0.1991	0.63405	0.63405	0.058
Mof_H 	H 	0.2279	0.6197	0.6197	0.044
Mof_C 	C 	0.6991	0.13405	0.63405	0.058
Mof_H 	H 	0.7279	0.1197	0.6197	0.041
Mof_C 	C 	0.6991	0.63405	0.13405	0.058
Mof_H 	H 	0.7279	0.6197	0.1197	0.041
Mof_C 	C 	0.8009	0.13405	0.86595	0.051
Mof_H 	H 	0.7721	0.1197	0.8803	0.049
Mof_C 	C 	0.8009	0.63405	0.36595	0.053
Mof_H 	H 	0.7721	0.6197	0.3803	0.048
Mof_C 	C 	0.3009	0.13405	0.36595	0.062
Mof_H 	H 	0.2721	0.1197	0.3803	0.036
Mof_C 	C 	0.3009	0.63405	0.86595	0.051
Mof_H 	H 	0.2721	0.6197	0.8803	0.052
Mof_C 	C 	0.8009	0.86595	0.13405	0.051
Mof_H 	H 	0.7721	0.8803	0.1197	0.049
Mof_C 	C 	0.8009	0.36595	0.63405	0.053
Mof_H 	H 	0.7721	0.3803	0.6197	0.048
Mof_C 	C 	0.3009	0.86595	0.63405	0.051
Mof_H 	H 	0.2721	0.8803	0.6197	0.052
Mof_C 	C 	0.3009	0.36595	0.13405	0.062
Mof_H 	H 	0.2721	0.3803	0.1197	0.036
Mof_C 	C 	0.86595	0.1991	0.86595	0.049
Mof_H 	H 	0.8803	0.2279	0.8803	0.06
Mof_C 	C 	0.86595	0.6991	0.36595	0.051
Mof_H 	H 	0.8803	0.7279	0.3803	0.055
Mof_C 	C 	0.36595	0.1991	0.36595	0.061
Mof_H 	H 	0.3803	0.2279	0.3803	0.043
Mof_C 	C 	0.36595	0.6991	0.86595	0.051
Mof_H 	H 	0.3803	0.7279	0.8803	0.055
Mof_C 	C 	0.13405	0.1991	0.13405	0.066
Mof_H 	H 	0.1197	0.2279	0.1197	0.029
Mof_C 	C 	0.13405	0.6991	0.63405	0.058
Mof_H 	H 	0.1197	0.7279	0.6197	0.041
Mof_C 	C 	0.63405	0.1991	0.63405	0.058
Mof_H 	H 	0.6197	0.2279	0.6197	0.044
Mof_C 	C 	0.63405	0.6991	0.13405	0.058
Mof_H 	H 	0.6197	0.7279	0.1197	0.041
Mof_C 	C 	0.86595	0.8009	0.13405	0.051
Mof_H 	H 	0.8803	0.7721	0.1197	0.049
Mof_C 	C 	0.86595	0.3009	0.63405	0.051
Mof_H 	H 	0.8803	0.2721	0.6197	0.052
Mof_C 	C 	0.36595	0.8009	0.63405	0.053
Mof_H 	H 	0.3803	0.7721	0.6197	0.048
Mof_C 	C 	0.36595	0.3009	0.13405	0.062
Mof_H 	H 	0.3803	0.2721	0.1197	0.036
Mof_C 	C 	0.13405	0.8009	0.86595	0.051
Mof_H 	H 	0.1197	0.7721	0.8803	0.049
Mof_C 	C 	0.13405	0.3009	0.36595	0.062
Mof_H 	H 	0.1197	0.2721	0.3803	0.036
Mof_C 	C 	0.63405	0.8009	0.36595	0.053
Mof_H 	H 	0.6197	0.7721	0.3803	0.048
Mof_C 	C 	0.63405	0.3009	0.86595	0.051
Mof_H 	H 	0.6197	0.2721	0.8803	0.052
Mof_C 	C 	0.86595	0.86595	0.8009	0.042
Mof_H 	H 	0.8803	0.8803	0.7721	0.064
Mof_C 	C 	0.86595	0.36595	0.3009	0.053
Mof_H 	H 	0.8803	0.3803	0.2721	0.051
Mof_C 	C 	0.36595	0.86595	0.3009	0.053
Mof_H 	H 	0.3803	0.8803	0.2721	0.051
Mof_C 	C 	0.36595	0.36595	0.8009	0.054
Mof_H 	H 	0.3803	0.3803	0.7721	0.047
Mof_C 	C 	0.13405	0.13405	0.8009	0.06
Mof_H 	H 	0.1197	0.1197	0.7721	0.034
Mof_C 	C 	0.13405	0.63405	0.3009	0.06
Mof_H 	H 	0.1197	0.6197	0.2721	0.037
Mof_C 	C 	0.63405	0.13405	0.3009	0.06
Mof_H 	H 	0.6197	0.1197	0.2721	0.037
Mof_C 	C 	0.63405	0.63405	0.8009	0.051
Mof_H 	H 	0.6197	0.6197	0.7721	0.048
Mof_C 	C 	0.86595	0.13405	0.1991	0.057
Mof_H 	H 	0.8803	0.1197	0.2279	0.044
Mof_C 	C 	0.86595	0.63405	0.6991	0.049
Mof_H 	H 	0.8803	0.6197	0.7279	0.056
Mof_C 	C 	0.36595	0.13405	0.6991	0.059
Mof_H 	H 	0.3803	0.1197	0.7279	0.04
Mof_C 	C 	0.36595	0.63405	0.1991	0.059
Mof_H 	H 	0.3803	0.6197	0.2279	0.043
Mof_C 	C 	0.13405	0.86595	0.1991	0.057
Mof_H 	H 	0.1197	0.8803	0.2279	0.044
Mof_C 	C 	0.13405	0.36595	0.6991	0.059
Mof_H 	H 	0.1197	0.3803	0.7279	0.04
Mof_C 	C 	0.63405	0.86595	0.6991	0.049
Mof_H 	H 	0.6197	0.8803	0.7279	0.056
Mof_C 	C 	0.63405	0.36595	0.1991	0.059
Mof_H 	H 	0.6197	0.3803	0.2279	0.043
Mof_C 	C 	0.86595	0.1991	0.13405	0.057
Mof_H 	H 	0.8803	0.2279	0.1197	0.044
Mof_C 	C 	0.86595	0.6991	0.63405	0.049
Mof_H 	H 	0.8803	0.7279	0.6197	0.056
Mof_C 	C 	0.36595	0.1991	0.63405	0.059
Mof_H 	H 	0.3803	0.2279	0.6197	0.043
Mof_C 	C 	0.36595	0.6991	0.13405	0.059
Mof_H 	H 	0.3803	0.7279	0.1197	0.04
Mof_C 	C 	0.13405	0.1991	0.86595	0.057
Mof_H 	H 	0.1197	0.2279	0.8803	0.044
Mof_C 	C 	0.13405	0.6991	0.36595	0.059
Mof_H 	H 	0.1197	0.7279	0.3803	0.04
Mof_C 	C 	0.63405	0.1991	0.36595	0.059
Mof_H 	H 	0.6197	0.2279	0.3803	0.043
Mof_C 	C 	0.63405	0.6991	0.86595	0.049
Mof_H 	H 	0.6197	0.7279	0.8803	0.056
Mof_C 	C 	0.13405	0.8009	0.13405	0.06
Mof_H 	H 	0.1197	0.7721	0.1197	0.034
Mof_C 	C 	0.13405	0.3009	0.63405	0.06
Mof_H 	H 	0.1197	0.2721	0.6197	0.037
Mof_C 	C 	0.63405	0.8009	0.63405	0.051
Mof_H 	H 	0.6197	0.7721	0.6197	0.048
Mof_C 	C 	0.63405	0.3009	0.13405	0.06
Mof_H 	H 	0.6197	0.2721	0.1197	0.037
Mof_C 	C 	0.86595	0.8009	0.86595	0.042
Mof_H 	H 	0.8803	0.7721	0.8803	0.064
Mof_C 	C 	0.86595	0.3009	0.36595	0.053
Mof_H 	H 	0.8803	0.2721	0.3803	0.051
Mof_C 	C 	0.36595	0.8009	0.36595	0.054
Mof_H 	H 	0.3803	0.7721	0.3803	0.047
Mof_C 	C 	0.36595	0.3009	0.86595	0.053
Mof_H 	H 	0.3803	0.2721	0.8803	0.051
Mof_C 	C 	0.1991	0.86595	0.13405	0.057
Mof_H 	H 	0.2279	0.8803	0.1197	0.044
Mof_C 	C 	0.1991	0.36595	0.63405	0.059
Mof_H 	H 	0.2279	0.3803	0.6197	0.043
Mof_C 	C 	0.6991	0.86595	0.63405	0.049
Mof_H 	H 	0.7279	0.8803	0.6197	0.056
Mof_C 	C 	0.6991	0.36595	0.13405	0.059
Mof_H 	H 	0.7279	0.3803	0.1197	0.04
Mof_C 	C 	0.1991	0.13405	0.86595	0.057
Mof_H 	H 	0.2279	0.1197	0.8803	0.044
Mof_C 	C 	0.1991	0.63405	0.36595	0.059
Mof_H 	H 	0.2279	0.6197	0.3803	0.043
Mof_C 	C 	0.6991	0.13405	0.36595	0.059
Mof_H 	H 	0.7279	0.1197	0.3803	0.04
Mof_C 	C 	0.6991	0.63405	0.86595	0.049
Mof_H 	H 	0.7279	0.6197	0.8803	0.056
Mof_C 	C 	0.8009	0.86595	0.86595	0.042
Mof_H 	H 	0.7721	0.8803	0.8803	0.064
Mof_C 	C 	0.8009	0.36595	0.36595	0.054
Mof_H 	H 	0.7721	0.3803	0.3803	0.047
Mof_C 	C 	0.3009	0.86595	0.36595	0.053
Mof_H 	H 	0.2721	0.8803	0.3803	0.051
Mof_C 	C 	0.3009	0.36595	0.86595	0.053
Mof_H 	H 	0.2721	0.3803	0.8803	0.051
Mof_C 	C 	0.8009	0.13405	0.13405	0.06
Mof_H 	H 	0.7721	0.1197	0.1197	0.034
Mof_C 	C 	0.8009	0.63405	0.63405	0.051
Mof_H 	H 	0.7721	0.6197	0.6197	0.048
Mof_C 	C 	0.3009	0.13405	0.63405	0.06
Mof_H 	H 	0.2721	0.1197	0.6197	0.037
Mof_C 	C 	0.3009	0.63405	0.13405	0.06
Mof_H 	H 	0.2721	0.6197	0.1197	0.037
_end
