data_functionalizedCrystal
_audit_creation_method	'EQeq! by Chris Wilmer'
_symmetry_space_group_name_H-M	'P1'
_symmetry_Int_Tables_number	1
_symmetry_cell_setting	triclinic
loop_
_symmetry_equiv_pos_as_xyz
  x,y,z
_cell_length_a	23.575
_cell_length_b	23.575
_cell_length_c	23.575
_cell_angle_alpha	90
_cell_angle_beta	90
_cell_angle_gamma	90
loop_
_atom_site_label
_atom_site_type_symbol
_atom_site_fract_x
_atom_site_fract_y
_atom_site_fract_z
_atom_site_charge
Mof_N 	N 	0.3632	0.4307	0.1478	-0.311
Mof_C 	C 	0.2098	0.5542	0.1688	-0.043
Mof_C 	C 	0.3524	0.3979	0.2016	-0.043
Mof_N 	N 	0.8632	0.9307	0.6478	-0.288
Mof_C 	C 	0.7098	0.0542	0.6688	-0.054
Mof_C 	C 	0.8524	0.8979	0.7016	-0.007
Mof_N 	N 	0.6368	0.5693	0.1478	-0.311
Mof_C 	C 	0.7902	0.4458	0.1688	-0.042
Mof_C 	C 	0.6476	0.6021	0.2016	-0.042
Mof_N 	N 	0.1368	0.0693	0.6478	-0.314
Mof_C 	C 	0.2902	0.9458	0.6688	0.018
Mof_C 	C 	0.1476	0.1021	0.7016	-0.054
Mof_N 	N 	0.6368	0.4307	0.8522	-0.309
Mof_C 	C 	0.7902	0.5542	0.8312	-0.028
Mof_C 	C 	0.6476	0.3979	0.7984	-0.042
Mof_N 	N 	0.1368	0.9307	0.3522	-0.287
Mof_C 	C 	0.2902	0.0542	0.3312	-0.055
Mof_C 	C 	0.1476	0.8979	0.2984	-0.024
Mof_N 	N 	0.3632	0.5693	0.8522	-0.309
Mof_C 	C 	0.2098	0.4458	0.8312	-0.03
Mof_C 	C 	0.3524	0.6021	0.7984	-0.042
Mof_N 	N 	0.8632	0.0693	0.3522	-0.316
Mof_C 	C 	0.7098	0.9458	0.3312	0.018
Mof_C 	C 	0.8524	0.1021	0.2984	-0.053
Mof_N 	N 	0.1478	0.3632	0.4307	-0.312
Mof_C 	C 	0.1688	0.2098	0.5542	-0.044
Mof_C 	C 	0.2016	0.3524	0.3979	-0.044
Mof_N 	N 	0.6478	0.8632	0.9307	-0.289
Mof_C 	C 	0.6688	0.7098	0.0542	-0.055
Mof_C 	C 	0.7016	0.8524	0.8979	-0.008
Mof_N 	N 	0.1478	0.6368	0.5693	-0.312
Mof_C 	C 	0.1688	0.7902	0.4458	-0.043
Mof_C 	C 	0.2016	0.6476	0.6021	-0.043
Mof_N 	N 	0.6478	0.1368	0.0693	-0.315
Mof_C 	C 	0.6688	0.2902	0.9458	0.017
Mof_C 	C 	0.7016	0.1476	0.1021	-0.055
Mof_N 	N 	0.8522	0.6368	0.4307	-0.31
Mof_C 	C 	0.8312	0.7902	0.5542	-0.029
Mof_C 	C 	0.7984	0.6476	0.3979	-0.043
Mof_N 	N 	0.3522	0.1368	0.9307	-0.288
Mof_C 	C 	0.3312	0.2902	0.0542	-0.056
Mof_C 	C 	0.2984	0.1476	0.8979	-0.025
Mof_N 	N 	0.8522	0.3632	0.5693	-0.31
Mof_C 	C 	0.8312	0.2098	0.4458	-0.031
Mof_C 	C 	0.7984	0.3524	0.6021	-0.043
Mof_N 	N 	0.3522	0.8632	0.0693	-0.316
Mof_C 	C 	0.3312	0.7098	0.9458	0.018
Mof_C 	C 	0.2984	0.8524	0.1021	-0.053
Mof_N 	N 	0.4307	0.1478	0.3632	-0.312
Mof_C 	C 	0.5542	0.1688	0.2098	-0.044
Mof_C 	C 	0.3979	0.2016	0.3524	-0.044
Mof_N 	N 	0.9307	0.6478	0.8632	-0.289
Mof_C 	C 	0.0542	0.6688	0.7098	-0.055
Mof_C 	C 	0.8979	0.7016	0.8524	-0.008
Mof_N 	N 	0.5693	0.1478	0.6368	-0.312
Mof_C 	C 	0.4458	0.1688	0.7902	-0.043
Mof_C 	C 	0.6021	0.2016	0.6476	-0.043
Mof_N 	N 	0.0693	0.6478	0.1368	-0.315
Mof_C 	C 	0.9458	0.6688	0.2902	0.017
Mof_C 	C 	0.1021	0.7016	0.1476	-0.055
Mof_N 	N 	0.4307	0.8522	0.6368	-0.31
Mof_C 	C 	0.5542	0.8312	0.7902	-0.029
Mof_C 	C 	0.3979	0.7984	0.6476	-0.043
Mof_N 	N 	0.9307	0.3522	0.1368	-0.288
Mof_C 	C 	0.0542	0.3312	0.2902	-0.056
Mof_C 	C 	0.8979	0.2984	0.1476	-0.025
Mof_N 	N 	0.5693	0.8522	0.3632	-0.31
Mof_C 	C 	0.4458	0.8312	0.2098	-0.031
Mof_C 	C 	0.6021	0.7984	0.3524	-0.043
Mof_N 	N 	0.0693	0.3522	0.8632	-0.316
Mof_C 	C 	0.9458	0.3312	0.7098	0.018
Mof_C 	C 	0.1021	0.2984	0.8524	-0.053
Mof_N 	N 	0.4307	0.3632	0.8522	-0.31
Mof_C 	C 	0.5542	0.2098	0.8312	-0.031
Mof_C 	C 	0.3979	0.3524	0.7984	-0.043
Mof_N 	N 	0.9307	0.8632	0.3522	-0.289
Mof_C 	C 	0.0542	0.7098	0.3312	-0.055
Mof_C 	C 	0.8979	0.8524	0.2984	-0.016
Mof_N 	N 	0.5693	0.6368	0.8522	-0.31
Mof_C 	C 	0.4458	0.7902	0.8312	-0.03
Mof_C 	C 	0.6021	0.6476	0.7984	-0.043
Mof_N 	N 	0.0693	0.1368	0.3522	-0.315
Mof_C 	C 	0.9458	0.2902	0.3312	0.017
Mof_C 	C 	0.1021	0.1476	0.2984	-0.063
Mof_N 	N 	0.4307	0.6368	0.1478	-0.312
Mof_C 	C 	0.5542	0.7902	0.1688	-0.043
Mof_C 	C 	0.3979	0.6476	0.2016	-0.043
Mof_N 	N 	0.9307	0.1368	0.6478	-0.288
Mof_C 	C 	0.0542	0.2902	0.6688	-0.055
Mof_C 	C 	0.8979	0.1476	0.7016	-0.018
Mof_N 	N 	0.5693	0.3632	0.1478	-0.312
Mof_C 	C 	0.4458	0.2098	0.1688	-0.045
Mof_C 	C 	0.6021	0.3524	0.2016	-0.043
Mof_N 	N 	0.0693	0.8632	0.6478	-0.316
Mof_C 	C 	0.9458	0.7098	0.6688	0.018
Mof_C 	C 	0.1021	0.8524	0.7016	-0.046
Mof_N 	N 	0.3632	0.1478	0.5693	-0.312
Mof_C 	C 	0.2098	0.1688	0.4458	-0.045
Mof_C 	C 	0.3524	0.2016	0.6021	-0.043
Mof_N 	N 	0.8632	0.6478	0.0693	-0.316
Mof_C 	C 	0.7098	0.6688	0.9458	0.018
Mof_C 	C 	0.8524	0.7016	0.1021	-0.046
Mof_N 	N 	0.6368	0.1478	0.4307	-0.312
Mof_C 	C 	0.7902	0.1688	0.5542	-0.043
Mof_C 	C 	0.6476	0.2016	0.3979	-0.043
Mof_N 	N 	0.1368	0.6478	0.9307	-0.288
Mof_C 	C 	0.2902	0.6688	0.0542	-0.055
Mof_C 	C 	0.1476	0.7016	0.8979	-0.018
Mof_N 	N 	0.6368	0.8522	0.5693	-0.31
Mof_C 	C 	0.7902	0.8312	0.4458	-0.03
Mof_C 	C 	0.6476	0.7984	0.6021	-0.043
Mof_N 	N 	0.1368	0.3522	0.0693	-0.315
Mof_C 	C 	0.2902	0.3312	0.9458	0.017
Mof_C 	C 	0.1476	0.2984	0.1021	-0.063
Mof_N 	N 	0.3632	0.8522	0.4307	-0.31
Mof_C 	C 	0.2098	0.8312	0.5542	-0.031
Mof_C 	C 	0.3524	0.7984	0.3979	-0.043
Mof_N 	N 	0.8632	0.3522	0.9307	-0.289
Mof_C 	C 	0.7098	0.3312	0.0542	-0.055
Mof_C 	C 	0.8524	0.2984	0.8979	-0.016
Mof_N 	N 	0.1478	0.4307	0.6368	-0.312
Mof_C 	C 	0.1688	0.5542	0.7902	-0.043
Mof_C 	C 	0.2016	0.3979	0.6476	-0.043
Mof_N 	N 	0.6478	0.9307	0.1368	-0.288
Mof_C 	C 	0.6688	0.0542	0.2902	-0.055
Mof_C 	C 	0.7016	0.8979	0.1476	-0.018
Mof_N 	N 	0.1478	0.5693	0.3632	-0.312
Mof_C 	C 	0.1688	0.4458	0.2098	-0.045
Mof_C 	C 	0.2016	0.6021	0.3524	-0.043
Mof_N 	N 	0.6478	0.0693	0.8632	-0.316
Mof_C 	C 	0.6688	0.9458	0.7098	0.018
Mof_C 	C 	0.7016	0.1021	0.8524	-0.046
Mof_N 	N 	0.8522	0.4307	0.3632	-0.31
Mof_C 	C 	0.8312	0.5542	0.2098	-0.031
Mof_C 	C 	0.7984	0.3979	0.3524	-0.043
Mof_N 	N 	0.3522	0.9307	0.8632	-0.289
Mof_C 	C 	0.3312	0.0542	0.7098	-0.055
Mof_C 	C 	0.2984	0.8979	0.8524	-0.016
Mof_N 	N 	0.8522	0.5693	0.6368	-0.31
Mof_C 	C 	0.8312	0.4458	0.7902	-0.03
Mof_C 	C 	0.7984	0.6021	0.6476	-0.043
Mof_N 	N 	0.3522	0.0693	0.1368	-0.315
Mof_C 	C 	0.3312	0.9458	0.2902	0.017
Mof_C 	C 	0.2984	0.1021	0.1476	-0.063
Mof_N 	N 	0.6368	0.5693	0.8522	-0.31
Mof_C 	C 	0.7902	0.4458	0.8312	-0.03
Mof_C 	C 	0.6476	0.6021	0.7984	-0.043
Mof_N 	N 	0.1368	0.0693	0.3522	-0.315
Mof_C 	C 	0.2902	0.9458	0.3312	0.017
Mof_C 	C 	0.1476	0.1021	0.2984	-0.063
Mof_N 	N 	0.3632	0.4307	0.8522	-0.31
Mof_C 	C 	0.2098	0.5542	0.8312	-0.031
Mof_C 	C 	0.3524	0.3979	0.7984	-0.043
Mof_N 	N 	0.8632	0.9307	0.3522	-0.289
Mof_C 	C 	0.7098	0.0542	0.3312	-0.055
Mof_C 	C 	0.8524	0.8979	0.2984	-0.016
Mof_N 	N 	0.3632	0.5693	0.1478	-0.312
Mof_C 	C 	0.2098	0.4458	0.1688	-0.045
Mof_C 	C 	0.3524	0.6021	0.2016	-0.043
Mof_N 	N 	0.8632	0.0693	0.6478	-0.316
Mof_C 	C 	0.7098	0.9458	0.6688	0.018
Mof_C 	C 	0.8524	0.1021	0.7016	-0.046
Mof_N 	N 	0.6368	0.4307	0.1478	-0.312
Mof_C 	C 	0.7902	0.5542	0.1688	-0.043
Mof_C 	C 	0.6476	0.3979	0.2016	-0.043
Mof_N 	N 	0.1368	0.9307	0.6478	-0.288
Mof_C 	C 	0.2902	0.0542	0.6688	-0.055
Mof_C 	C 	0.1476	0.8979	0.7016	-0.018
Mof_N 	N 	0.8522	0.6368	0.5693	-0.31
Mof_C 	C 	0.8312	0.7902	0.4458	-0.03
Mof_C 	C 	0.7984	0.6476	0.6021	-0.043
Mof_N 	N 	0.3522	0.1368	0.0693	-0.315
Mof_C 	C 	0.3312	0.2902	0.9458	0.017
Mof_C 	C 	0.2984	0.1476	0.1021	-0.063
Mof_N 	N 	0.8522	0.3632	0.4307	-0.31
Mof_C 	C 	0.8312	0.2098	0.5542	-0.031
Mof_C 	C 	0.7984	0.3524	0.3979	-0.043
Mof_N 	N 	0.3522	0.8632	0.9307	-0.289
Mof_C 	C 	0.3312	0.7098	0.0542	-0.055
Mof_C 	C 	0.2984	0.8524	0.8979	-0.016
Mof_N 	N 	0.1478	0.3632	0.5693	-0.312
Mof_C 	C 	0.1688	0.2098	0.4458	-0.045
Mof_C 	C 	0.2016	0.3524	0.6021	-0.043
Mof_N 	N 	0.6478	0.8632	0.0693	-0.316
Mof_C 	C 	0.6688	0.7098	0.9458	0.018
Mof_C 	C 	0.7016	0.8524	0.1021	-0.046
Mof_N 	N 	0.1478	0.6368	0.4307	-0.312
Mof_C 	C 	0.1688	0.7902	0.5542	-0.043
Mof_C 	C 	0.2016	0.6476	0.3979	-0.043
Mof_N 	N 	0.6478	0.1368	0.9307	-0.288
Mof_C 	C 	0.6688	0.2902	0.0542	-0.055
Mof_C 	C 	0.7016	0.1476	0.8979	-0.018
Mof_N 	N 	0.5693	0.8522	0.6368	-0.31
Mof_C 	C 	0.4458	0.8312	0.7902	-0.03
Mof_C 	C 	0.6021	0.7984	0.6476	-0.043
Mof_N 	N 	0.0693	0.3522	0.1368	-0.315
Mof_C 	C 	0.9458	0.3312	0.2902	0.017
Mof_C 	C 	0.1021	0.2984	0.1476	-0.063
Mof_N 	N 	0.4307	0.8522	0.3632	-0.31
Mof_C 	C 	0.5542	0.8312	0.2098	-0.031
Mof_C 	C 	0.3979	0.7984	0.3524	-0.043
Mof_N 	N 	0.9307	0.3522	0.8632	-0.289
Mof_C 	C 	0.0542	0.3312	0.7098	-0.055
Mof_C 	C 	0.8979	0.2984	0.8524	-0.016
Mof_N 	N 	0.5693	0.1478	0.3632	-0.312
Mof_C 	C 	0.4458	0.1688	0.2098	-0.045
Mof_C 	C 	0.6021	0.2016	0.3524	-0.043
Mof_N 	N 	0.0693	0.6478	0.8632	-0.316
Mof_C 	C 	0.9458	0.6688	0.7098	0.018
Mof_C 	C 	0.1021	0.7016	0.8524	-0.046
Mof_N 	N 	0.4307	0.1478	0.6368	-0.312
Mof_C 	C 	0.5542	0.1688	0.7902	-0.043
Mof_C 	C 	0.3979	0.2016	0.6476	-0.043
Mof_N 	N 	0.9307	0.6478	0.1368	-0.288
Mof_C 	C 	0.0542	0.6688	0.2902	-0.055
Mof_C 	C 	0.8979	0.7016	0.1476	-0.018
Mof_N 	N 	0.5693	0.6368	0.1478	-0.312
Mof_C 	C 	0.4458	0.7902	0.1688	-0.043
Mof_C 	C 	0.6021	0.6476	0.2016	-0.043
Mof_N 	N 	0.0693	0.1368	0.6478	-0.315
Mof_C 	C 	0.9458	0.2902	0.6688	0.017
Mof_C 	C 	0.1021	0.1476	0.7016	-0.055
Mof_N 	N 	0.4307	0.3632	0.1478	-0.312
Mof_C 	C 	0.5542	0.2098	0.1688	-0.044
Mof_C 	C 	0.3979	0.3524	0.2016	-0.044
Mof_N 	N 	0.9307	0.8632	0.6478	-0.289
Mof_C 	C 	0.0542	0.7098	0.6688	-0.055
Mof_C 	C 	0.8979	0.8524	0.7016	-0.008
Mof_N 	N 	0.5693	0.3632	0.8522	-0.31
Mof_C 	C 	0.4458	0.2098	0.8312	-0.031
Mof_C 	C 	0.6021	0.3524	0.7984	-0.043
Mof_N 	N 	0.0693	0.8632	0.3522	-0.316
Mof_C 	C 	0.9458	0.7098	0.3312	0.018
Mof_C 	C 	0.1021	0.8524	0.2984	-0.053
Mof_N 	N 	0.4307	0.6368	0.8522	-0.31
Mof_C 	C 	0.5542	0.7902	0.8312	-0.029
Mof_C 	C 	0.3979	0.6476	0.7984	-0.043
Mof_N 	N 	0.9307	0.1368	0.3522	-0.288
Mof_C 	C 	0.0542	0.2902	0.3312	-0.056
Mof_C 	C 	0.8979	0.1476	0.2984	-0.025
Mof_N 	N 	0.6368	0.8522	0.4307	-0.31
Mof_C 	C 	0.7902	0.8312	0.5542	-0.029
Mof_C 	C 	0.6476	0.7984	0.3979	-0.043
Mof_N 	N 	0.1368	0.3522	0.9307	-0.288
Mof_C 	C 	0.2902	0.3312	0.0542	-0.056
Mof_C 	C 	0.1476	0.2984	0.8979	-0.025
Mof_N 	N 	0.3632	0.8522	0.5693	-0.31
Mof_C 	C 	0.2098	0.8312	0.4458	-0.031
Mof_C 	C 	0.3524	0.7984	0.6021	-0.043
Mof_N 	N 	0.8632	0.3522	0.0693	-0.316
Mof_C 	C 	0.7098	0.3312	0.9458	0.018
Mof_C 	C 	0.8524	0.2984	0.1021	-0.053
Mof_N 	N 	0.3632	0.1478	0.4307	-0.312
Mof_C 	C 	0.2098	0.1688	0.5542	-0.044
Mof_C 	C 	0.3524	0.2016	0.3979	-0.044
Mof_N 	N 	0.8632	0.6478	0.9307	-0.289
Mof_C 	C 	0.7098	0.6688	0.0542	-0.055
Mof_C 	C 	0.8524	0.7016	0.8979	-0.008
Mof_N 	N 	0.6368	0.1478	0.5693	-0.312
Mof_C 	C 	0.7902	0.1688	0.4458	-0.043
Mof_C 	C 	0.6476	0.2016	0.6021	-0.043
Mof_N 	N 	0.1368	0.6478	0.0693	-0.315
Mof_C 	C 	0.2902	0.6688	0.9458	0.017
Mof_C 	C 	0.1476	0.7016	0.1021	-0.055
Mof_N 	N 	0.8522	0.5693	0.3632	-0.31
Mof_C 	C 	0.8312	0.4458	0.2098	-0.031
Mof_C 	C 	0.7984	0.6021	0.3524	-0.043
Mof_N 	N 	0.3522	0.0693	0.8632	-0.316
Mof_C 	C 	0.3312	0.9458	0.7098	0.018
Mof_C 	C 	0.2984	0.1021	0.8524	-0.053
Mof_N 	N 	0.8522	0.4307	0.6368	-0.31
Mof_C 	C 	0.8312	0.5542	0.7902	-0.029
Mof_C 	C 	0.7984	0.3979	0.6476	-0.043
Mof_N 	N 	0.3522	0.9307	0.1368	-0.288
Mof_C 	C 	0.3312	0.0542	0.2902	-0.056
Mof_C 	C 	0.2984	0.8979	0.1476	-0.025
Mof_N 	N 	0.1478	0.5693	0.6368	-0.312
Mof_C 	C 	0.1688	0.4458	0.7902	-0.043
Mof_C 	C 	0.2016	0.6021	0.6476	-0.043
Mof_N 	N 	0.6478	0.0693	0.1368	-0.315
Mof_C 	C 	0.6688	0.9458	0.2902	0.017
Mof_C 	C 	0.7016	0.1021	0.1476	-0.055
Mof_N 	N 	0.1478	0.4307	0.3632	-0.312
Mof_C 	C 	0.1688	0.5542	0.2098	-0.044
Mof_C 	C 	0.2016	0.3979	0.3524	-0.044
Mof_N 	N 	0.6478	0.9307	0.8632	-0.289
Mof_C 	C 	0.6688	0.0542	0.7098	-0.055
Mof_C 	C 	0.7016	0.8979	0.8524	-0.008
Mof_W 	W 	0.25	0.5	-0	1.235
Mof_W 	W 	0.75	0.5	-0	1.238
Mof_W 	W 	1.8747e-33	0.25	0.5	1.235
Mof_W 	W 	1.8747e-33	0.75	0.5	1.238
Mof_W 	W 	0.5	0.25	-0	1.235
Mof_W 	W 	0.5	0	0.25	1.235
Mof_W 	W 	0.5	0	0.75	1.238
Mof_W 	W 	0.5	0.75	-0	1.238
Mof_W 	W 	0.25	0	0.5	1.235
Mof_W 	W 	0.75	0	0.5	1.238
Mof_W 	W 	2.81205e-33	0.5	0.75	1.238
Mof_W 	W 	9.3735e-34	0.5	0.25	1.235
Mof_Zn	Zn	0.31984	0.5	0.13859	1.19
Mof_N 	N 	0.2493	0.5	0.184	-0.312
Mof_O 	O 	0.293	0.5	0.0591	-0.639
Mof_Zn	Zn	0.81984	0	0.63859	1.175
Mof_N 	N 	0.7493	0	0.684	-0.338
Mof_O 	O 	0.793	-3.85323e-33	0.5591	-0.652
Mof_Zn	Zn	0.68016	0.5	0.13859	1.19
Mof_N 	N 	0.7507	0.5	0.184	-0.311
Mof_O 	O 	0.707	0.5	0.0591	-0.639
Mof_Zn	Zn	0.18016	0	0.63859	1.171
Mof_N 	N 	0.2507	0	0.684	-0.339
Mof_O 	O 	0.207	-3.85323e-33	0.5591	-0.66
Mof_Zn	Zn	0.68016	0.5	0.86141	1.194
Mof_N 	N 	0.7507	0.5	0.816	-0.31
Mof_O 	O 	0.707	0.5	0.9409	-0.565
Mof_Zn	Zn	0.18016	0	0.36141	1.17
Mof_N 	N 	0.2507	0	0.316	-0.338
Mof_O 	O 	0.207	0	0.4409	-0.66
Mof_Zn	Zn	0.31984	0.5	0.86141	1.194
Mof_N 	N 	0.2493	0.5	0.816	-0.311
Mof_O 	O 	0.293	0.5	0.9409	-0.565
Mof_Zn	Zn	0.81984	0	0.36141	1.174
Mof_N 	N 	0.7493	0	0.316	-0.338
Mof_O 	O 	0.793	0	0.4409	-0.652
Mof_Zn	Zn	0.13859	0.31984	0.5	1.19
Mof_N 	N 	0.184	0.2493	0.5	-0.312
Mof_O 	O 	0.0591	0.293	0.5	-0.639
Mof_Zn	Zn	0.63859	0.81984	-0	1.175
Mof_N 	N 	0.684	0.7493	-0	-0.338
Mof_O 	O 	0.5591	0.793	-0	-0.652
Mof_Zn	Zn	0.13859	0.68016	0.5	1.19
Mof_N 	N 	0.184	0.7507	0.5	-0.311
Mof_O 	O 	0.0591	0.707	0.5	-0.639
Mof_Zn	Zn	0.63859	0.18016	-0	1.171
Mof_N 	N 	0.684	0.2507	-0	-0.339
Mof_O 	O 	0.5591	0.207	-0	-0.66
Mof_Zn	Zn	0.86141	0.68016	0.5	1.194
Mof_N 	N 	0.816	0.7507	0.5	-0.31
Mof_O 	O 	0.9409	0.707	0.5	-0.565
Mof_Zn	Zn	0.36141	0.18016	-0	1.17
Mof_N 	N 	0.316	0.2507	-0	-0.338
Mof_O 	O 	0.4409	0.207	-0	-0.66
Mof_Zn	Zn	0.86141	0.31984	0.5	1.194
Mof_N 	N 	0.816	0.2493	0.5	-0.311
Mof_O 	O 	0.9409	0.293	0.5	-0.565
Mof_Zn	Zn	0.36141	0.81984	-0	1.174
Mof_N 	N 	0.316	0.7493	-0	-0.338
Mof_O 	O 	0.4409	0.793	-0	-0.652
Mof_Zn	Zn	0.5	0.13859	0.31984	1.19
Mof_N 	N 	0.5	0.184	0.2493	-0.312
Mof_O 	O 	0.5	0.0591	0.293	-0.639
Mof_Zn	Zn	3.07391e-33	0.63859	0.81984	1.175
Mof_N 	N 	2.80943e-33	0.684	0.7493	-0.338
Mof_O 	O 	-1.24397e-32	0.5591	0.793	-0.652
Mof_Zn	Zn	0.5	0.13859	0.68016	1.19
Mof_N 	N 	0.5	0.184	0.7507	-0.311
Mof_O 	O 	0.5	0.0591	0.707	-0.639
Mof_Zn	Zn	-1.25112e-33	0.63859	0.18016	1.171
Mof_N 	N 	2.86659e-33	0.684	0.2507	-0.339
Mof_O 	O 	7.76126e-34	0.5591	0.207	-0.66
Mof_Zn	Zn	0.5	0.86141	0.68016	1.194
Mof_N 	N 	0.5	0.816	0.7507	-0.31
Mof_O 	O 	0.5	0.9409	0.707	-0.565
Mof_Zn	Zn	2.60211e-33	0.36141	0.18016	1.17
Mof_N 	N 	-4.83988e-33	0.316	0.2507	-0.338
Mof_O 	O 	-6.93034e-33	0.4409	0.207	-0.66
Mof_Zn	Zn	0.5	0.86141	0.31984	1.194
Mof_N 	N 	0.5	0.816	0.2493	-0.311
Mof_O 	O 	0.5	0.9409	0.293	-0.565
Mof_Zn	Zn	3.07391e-33	0.36141	0.81984	1.174
Mof_N 	N 	2.80943e-33	0.316	0.7493	-0.338
Mof_O 	O 	2.97327e-33	0.4409	0.793	-0.652
Mof_Zn	Zn	0.5	0.31984	0.86141	1.194
Mof_N 	N 	0.5	0.2493	0.816	-0.311
Mof_O 	O 	0.5	0.293	0.9409	-0.565
Mof_Zn	Zn	9.06154e-33	0.81984	0.36141	1.174
Mof_N 	N 	5.03804e-33	0.7493	0.316	-0.338
Mof_O 	O 	1.65311e-33	0.793	0.4409	-0.652
Mof_Zn	Zn	0.5	0.68016	0.86141	1.194
Mof_N 	N 	0.5	0.7507	0.816	-0.31
Mof_O 	O 	0.5	0.707	0.9409	-0.565
Mof_Zn	Zn	1.35507e-33	0.18016	0.36141	1.17
Mof_N 	N 	-6.52166e-33	0.2507	0.316	-0.338
Mof_O 	O 	-6.05336e-33	0.207	0.4409	-0.66
Mof_Zn	Zn	0.5	0.68016	0.13859	1.19
Mof_N 	N 	0.5	0.7507	0.184	-0.311
Mof_O 	O 	0.5	0.707	0.0591	-0.639
Mof_Zn	Zn	-5.31214e-33	0.18016	0.63859	1.171
Mof_N 	N 	2.56459e-33	0.2507	0.684	-0.339
Mof_O 	O 	2.09629e-33	0.207	0.5591	-0.66
Mof_Zn	Zn	0.5	0.31984	0.13859	1.19
Mof_N 	N 	0.5	0.2493	0.184	-0.312
Mof_O 	O 	0.5	0.293	0.0591	-0.639
Mof_Zn	Zn	1.01008e-32	0.81984	0.63859	1.175
Mof_N 	N 	2.56459e-33	0.7493	0.684	-0.338
Mof_O 	O 	-5.61018e-33	0.793	0.5591	-0.652
Mof_Zn	Zn	0.31984	0.13859	0.5	1.19
Mof_N 	N 	0.2493	0.184	0.5	-0.312
Mof_O 	O 	0.293	0.0591	0.5	-0.639
Mof_Zn	Zn	0.81984	0.63859	-0	1.175
Mof_N 	N 	0.7493	0.684	-0	-0.338
Mof_O 	O 	0.793	0.5591	-0	-0.652
Mof_Zn	Zn	0.68016	0.13859	0.5	1.19
Mof_N 	N 	0.7507	0.184	0.5	-0.311
Mof_O 	O 	0.707	0.0591	0.5	-0.639
Mof_Zn	Zn	0.18016	0.63859	-0	1.171
Mof_N 	N 	0.2507	0.684	-0	-0.339
Mof_O 	O 	0.207	0.5591	-0	-0.66
Mof_Zn	Zn	0.68016	0.86141	0.5	1.194
Mof_N 	N 	0.7507	0.816	0.5	-0.31
Mof_O 	O 	0.707	0.9409	0.5	-0.565
Mof_Zn	Zn	0.18016	0.36141	-0	1.17
Mof_N 	N 	0.2507	0.316	-0	-0.338
Mof_O 	O 	0.207	0.4409	-0	-0.66
Mof_Zn	Zn	0.31984	0.86141	0.5	1.194
Mof_N 	N 	0.2493	0.816	0.5	-0.311
Mof_O 	O 	0.293	0.9409	0.5	-0.565
Mof_Zn	Zn	0.81984	0.36141	-0	1.174
Mof_N 	N 	0.7493	0.316	-0	-0.338
Mof_O 	O 	0.793	0.4409	-0	-0.652
Mof_Zn	Zn	0.13859	0.5	0.68016	1.19
Mof_N 	N 	0.184	0.5	0.7507	-0.311
Mof_O 	O 	0.0591	0.5	0.707	-0.639
Mof_Zn	Zn	0.63859	-1.92662e-33	0.18016	1.171
Mof_N 	N 	0.684	-1.92662e-33	0.2507	-0.339
Mof_O 	O 	0.5591	-1.92662e-33	0.207	-0.66
Mof_Zn	Zn	0.13859	0.5	0.31984	1.19
Mof_N 	N 	0.184	0.5	0.2493	-0.312
Mof_O 	O 	0.0591	0.5	0.293	-0.639
Mof_Zn	Zn	0.63859	0	0.81984	1.175
Mof_N 	N 	0.684	0	0.7493	-0.338
Mof_O 	O 	0.5591	0	0.793	-0.652
Mof_Zn	Zn	0.86141	0.5	0.31984	1.194
Mof_N 	N 	0.816	0.5	0.2493	-0.311
Mof_O 	O 	0.9409	0.5	0.293	-0.565
Mof_Zn	Zn	0.36141	0	0.81984	1.174
Mof_N 	N 	0.316	0	0.7493	-0.338
Mof_O 	O 	0.4409	0	0.793	-0.652
Mof_Zn	Zn	0.86141	0.5	0.68016	1.194
Mof_N 	N 	0.816	0.5	0.7507	-0.31
Mof_O 	O 	0.9409	0.5	0.707	-0.565
Mof_Zn	Zn	0.36141	-1.92662e-33	0.18016	1.17
Mof_N 	N 	0.316	-1.92662e-33	0.2507	-0.338
Mof_O 	O 	0.4409	-1.92662e-33	0.207	-0.66
Mof_C 	C 	0.2293	0.5	0.2293	0.19
Mof_C 	C 	0.7293	0	0.7293	0.15
Mof_C 	C 	0.7707	0.5	0.2293	0.188
Mof_C 	C 	0.2707	0	0.7293	0.143
Mof_C 	C 	0.7707	0.5	0.7707	0.186
Mof_C 	C 	0.2707	-1.92662e-33	0.2707	0.136
Mof_C 	C 	0.2293	0.5	0.7707	0.188
Mof_C 	C 	0.7293	-1.92662e-33	0.2707	0.143
Mof_C 	C 	0.2293	0.2293	0.5	0.19
Mof_C 	C 	0.7293	0.7293	-0	0.15
Mof_C 	C 	0.2293	0.7707	0.5	0.188
Mof_C 	C 	0.7293	0.2707	-0	0.143
Mof_C 	C 	0.7707	0.7707	0.5	0.186
Mof_C 	C 	0.2707	0.2707	-0	0.136
Mof_C 	C 	0.7707	0.2293	0.5	0.188
Mof_C 	C 	0.2707	0.7293	-0	0.143
Mof_C 	C 	0.5	0.2293	0.2293	0.19
Mof_C 	C 	2.73444e-33	0.7293	0.7293	0.15
Mof_C 	C 	0.5	0.2293	0.7707	0.188
Mof_C 	C 	2.94158e-33	0.7293	0.2707	0.143
Mof_C 	C 	0.5	0.7707	0.7707	0.186
Mof_C 	C 	-2.83827e-33	0.2707	0.2707	0.136
Mof_C 	C 	0.5	0.7707	0.2293	0.188
Mof_C 	C 	2.73444e-33	0.2707	0.7293	0.143
Mof_C 	C 	0.4091	0.4091	0.1388	0.11
Mof_C 	C 	0.9091	0.9091	0.6388	0.177
Mof_C 	C 	0.5909	0.5909	0.1388	0.11
Mof_C 	C 	0.0909	0.0909	0.6388	0.086
Mof_C 	C 	0.5909	0.4091	0.8612	0.136
Mof_C 	C 	0.0909	0.9091	0.3612	0.129
Mof_C 	C 	0.4091	0.5909	0.8612	0.136
Mof_C 	C 	0.9091	0.0909	0.3612	0.129
Mof_C 	C 	0.1388	0.4091	0.4091	0.11
Mof_C 	C 	0.6388	0.9091	0.9091	0.177
Mof_C 	C 	0.1388	0.5909	0.5909	0.11
Mof_C 	C 	0.6388	0.0909	0.0909	0.086
Mof_C 	C 	0.8612	0.5909	0.4091	0.136
Mof_C 	C 	0.3612	0.0909	0.9091	0.129
Mof_C 	C 	0.8612	0.4091	0.5909	0.136
Mof_C 	C 	0.3612	0.9091	0.0909	0.129
Mof_C 	C 	0.4091	0.1388	0.4091	0.11
Mof_C 	C 	0.9091	0.6388	0.9091	0.177
Mof_C 	C 	0.5909	0.1388	0.5909	0.11
Mof_C 	C 	0.0909	0.6388	0.0909	0.086
Mof_C 	C 	0.4091	0.8612	0.5909	0.136
Mof_C 	C 	0.9091	0.3612	0.0909	0.129
Mof_C 	C 	0.5909	0.8612	0.4091	0.136
Mof_C 	C 	0.0909	0.3612	0.9091	0.129
Mof_C 	C 	0.4091	0.4091	0.8612	0.136
Mof_C 	C 	0.9091	0.9091	0.3612	0.175
Mof_C 	C 	0.5909	0.5909	0.8612	0.136
Mof_C 	C 	0.0909	0.0909	0.3612	0.083
Mof_C 	C 	0.4091	0.5909	0.1388	0.11
Mof_C 	C 	0.9091	0.0909	0.6388	0.131
Mof_C 	C 	0.5909	0.4091	0.1388	0.11
Mof_C 	C 	0.0909	0.9091	0.6388	0.131
Mof_C 	C 	0.4091	0.1388	0.5909	0.11
Mof_C 	C 	0.9091	0.6388	0.0909	0.131
Mof_C 	C 	0.5909	0.1388	0.4091	0.11
Mof_C 	C 	0.0909	0.6388	0.9091	0.131
Mof_C 	C 	0.5909	0.8612	0.5909	0.136
Mof_C 	C 	0.0909	0.3612	0.0909	0.083
Mof_C 	C 	0.4091	0.8612	0.4091	0.136
Mof_C 	C 	0.9091	0.3612	0.9091	0.175
Mof_C 	C 	0.1388	0.4091	0.5909	0.11
Mof_C 	C 	0.6388	0.9091	0.0909	0.131
Mof_C 	C 	0.1388	0.5909	0.4091	0.11
Mof_C 	C 	0.6388	0.0909	0.9091	0.131
Mof_C 	C 	0.8612	0.4091	0.4091	0.136
Mof_C 	C 	0.3612	0.9091	0.9091	0.175
Mof_C 	C 	0.8612	0.5909	0.5909	0.136
Mof_C 	C 	0.3612	0.0909	0.0909	0.083
_end
