# CIF file generated by openbabel 3.1.0, see https://openbabel.org
data_I
_chemical_name_common 'image0'
_cell_length_a 17.201
_cell_length_b 23.81
_cell_length_c 13.601
_cell_angle_alpha 90
_cell_angle_beta 90
_cell_angle_gamma 90
_space_group_name_H-M_alt 'P 1'
_space_group_name_Hall 'P 1'
loop_
    _symmetry_equiv_pos_as_xyz
    x,y,z
loop_
    _atom_site_label
    _atom_site_type_symbol
    _atom_site_fract_x
    _atom_site_fract_y
    _atom_site_fract_z
    _atom_site_occupancy
    Co1      Co       0.35195    0.57257    0.51642    1.000
    O1       O        0.35710    0.49356    0.46560    1.000
    O2       O        0.30920    0.54821    0.34890    1.000
    O3       O        0.52800    0.09460    0.04770    1.000
    O4       O        0.61430    0.15810    0.01890    1.000
    O5       O        0.32750    0.31364    0.12380    1.000
    N1       N        0.40310    0.55496    0.65020    1.000
    N2       N        0.47370    0.50403    0.75140    1.000
    N3       N        0.63850    0.36994    0.87450    1.000
    N4       N        0.74030    0.40645    0.94920    1.000
    C1       C        0.33340    0.45160    0.30990    1.000
    C2       C        0.29710    0.45360    0.22060    1.000
    H1       H        0.27170    0.48630    0.20160    1.000
    C3       C        0.29740    0.40750    0.15740    1.000
    H2       H        0.27210    0.40920    0.09700    1.000
    C4       C        0.33560    0.35940    0.18590    1.000
    C5       C        0.37330    0.35670    0.27520    1.000
    H3       H        0.39890    0.32400    0.29410    1.000
    C6       C        0.37250    0.40290    0.33640    1.000
    H4       H        0.39860    0.40150    0.39620    1.000
    C7       C        0.33220    0.50060    0.37690    1.000
    C8       C        0.38660    0.27450    0.11270    1.000
    C9       C        0.36330    0.22030    0.09660    1.000
    H5       H        0.31050    0.21210    0.09880    1.000
    C10      C        0.41450    0.17800    0.07750    1.000
    H6       H        0.39750    0.14120    0.06940    1.000
    C11      C        0.49200    0.19140    0.07050    1.000
    C12      C        0.51850    0.24550    0.08740    1.000
    H7       H        0.57120    0.25380    0.08300    1.000
    C13      C        0.46350    0.28870    0.11170    1.000
    H8       H        0.47970    0.32510    0.12630    1.000
    C14      C        0.55150    0.14270    0.04180    1.000
    C15      C        0.44290    0.50810    0.66160    1.000
    H9       H        0.44890    0.48110    0.61280    1.000
    C16      C        0.45370    0.55180    0.79990    1.000
    H10      H        0.46730    0.56140    0.86390    1.000
    C17      C        0.40990    0.58320    0.73660    1.000
    H11      H        0.38830    0.61810    0.75050    1.000
    C18      C        0.51910    0.45740    0.78920    1.000
    H12      H        0.54640    0.46940    0.84790    1.000
    H13      H        0.55770    0.44680    0.74060    1.000
    C19      C        0.46940    0.40590    0.81390    1.000
    C20      C        0.50490    0.35350    0.81890    1.000
    C21      C        0.45950    0.30670    0.84290    1.000
    H14      H        0.48260    0.27140    0.84600    1.000
    C22      C        0.37980    0.31210    0.86230    1.000
    H15      H        0.35010    0.28050    0.87670    1.000
    C23      C        0.34590    0.36430    0.86010    1.000
    H16      H        0.29350    0.36850    0.87520    1.000
    C24      C        0.39100    0.41080    0.83490    1.000
    H17      H        0.36780    0.44600    0.83210    1.000
    C25      C        0.59020    0.34530    0.79760    1.000
    H18      H        0.60120    0.30540    0.79260    1.000
    H19      H        0.60280    0.36250    0.73490    1.000
    C26      C        0.70920    0.39090    0.86470    1.000
    H20      H        0.73450    0.39430    0.80460    1.000
    C27      C        0.68470    0.39470    0.01570    1.000
    H21      H        0.68850    0.40150    0.08290    1.000
    C28      C        0.62210    0.37140    0.97060    1.000
    H22      H        0.57670    0.35890    0.00060    1.000
    Co2      Co       0.14805    0.92743    0.51642    1.000
    O6       O        0.14290    0.00644    0.46560    1.000
    O7       O        0.19080    0.95179    0.34890    1.000
    O8       O        0.97200    0.40540    0.04770    1.000
    O9       O        0.88570    0.34190    0.01890    1.000
    O10      O        0.17250    0.18636    0.12380    1.000
    N5       N        0.09690    0.94504    0.65020    1.000
    N6       N        0.02630    0.99597    0.75140    1.000
    N7       N        0.86150    0.13006    0.87450    1.000
    N8       N        0.75970    0.09355    0.94920    1.000
    C29      C        0.16660    0.04840    0.30990    1.000
    C30      C        0.20290    0.04640    0.22060    1.000
    H23      H        0.22830    0.01370    0.20160    1.000
    C31      C        0.20260    0.09250    0.15740    1.000
    H24      H        0.22790    0.09080    0.09700    1.000
    C32      C        0.16440    0.14060    0.18590    1.000
    C33      C        0.12670    0.14330    0.27520    1.000
    H25      H        0.10110    0.17600    0.29410    1.000
    C34      C        0.12750    0.09710    0.33640    1.000
    H26      H        0.10140    0.09850    0.39620    1.000
    C35      C        0.16780    0.99940    0.37690    1.000
    C36      C        0.11340    0.22550    0.11270    1.000
    C37      C        0.13670    0.27970    0.09660    1.000
    H27      H        0.18950    0.28790    0.09880    1.000
    C38      C        0.08550    0.32200    0.07750    1.000
    H28      H        0.10250    0.35880    0.06940    1.000
    C39      C        0.00800    0.30860    0.07050    1.000
    C40      C        0.98150    0.25450    0.08740    1.000
    H29      H        0.92880    0.24620    0.08300    1.000
    C41      C        0.03650    0.21130    0.11170    1.000
    H30      H        0.02030    0.17490    0.12630    1.000
    C42      C        0.94850    0.35730    0.04180    1.000
    C43      C        0.05710    0.99190    0.66160    1.000
    H31      H        0.05110    0.01890    0.61280    1.000
    C44      C        0.04630    0.94820    0.79990    1.000
    H32      H        0.03270    0.93860    0.86390    1.000
    C45      C        0.09010    0.91680    0.73660    1.000
    H33      H        0.11170    0.88190    0.75050    1.000
    C46      C        0.98090    0.04260    0.78920    1.000
    H34      H        0.95360    0.03060    0.84790    1.000
    H35      H        0.94230    0.05320    0.74060    1.000
    C47      C        0.03060    0.09410    0.81390    1.000
    C48      C        0.99510    0.14650    0.81890    1.000
    C49      C        0.04050    0.19330    0.84290    1.000
    H36      H        0.01740    0.22860    0.84600    1.000
    C50      C        0.12020    0.18790    0.86230    1.000
    H37      H        0.14990    0.21950    0.87670    1.000
    C51      C        0.15410    0.13570    0.86010    1.000
    H38      H        0.20650    0.13150    0.87520    1.000
    C52      C        0.10900    0.08920    0.83490    1.000
    H39      H        0.13220    0.05400    0.83210    1.000
    C53      C        0.90980    0.15470    0.79760    1.000
    H40      H        0.89880    0.19460    0.79260    1.000
    H41      H        0.89720    0.13750    0.73490    1.000
    C54      C        0.79080    0.10910    0.86470    1.000
    H42      H        0.76550    0.10570    0.80460    1.000
    C55      C        0.81530    0.10530    0.01570    1.000
    H43      H        0.81150    0.09850    0.08290    1.000
    C56      C        0.87790    0.12860    0.97060    1.000
    H44      H        0.92330    0.14110    0.00060    1.000
    Co3      Co       0.64805    0.07257    0.98358    1.000
    O11      O        0.64290    0.99356    0.03440    1.000
    O12      O        0.69080    0.04821    0.15110    1.000
    O13      O        0.47200    0.59460    0.45230    1.000
    O14      O        0.38570    0.65810    0.48110    1.000
    O15      O        0.67250    0.81364    0.37620    1.000
    N9       N        0.59690    0.05496    0.84980    1.000
    N10      N        0.52630    0.00403    0.74860    1.000
    N11      N        0.36150    0.86994    0.62550    1.000
    N12      N        0.25970    0.90645    0.55080    1.000
    C57      C        0.66660    0.95160    0.19010    1.000
    C58      C        0.70290    0.95360    0.27940    1.000
    H45      H        0.72830    0.98630    0.29840    1.000
    C59      C        0.70260    0.90750    0.34260    1.000
    H46      H        0.72790    0.90920    0.40300    1.000
    C60      C        0.66440    0.85940    0.31410    1.000
    C61      C        0.62670    0.85670    0.22480    1.000
    H47      H        0.60110    0.82400    0.20590    1.000
    C62      C        0.62750    0.90290    0.16360    1.000
    H48      H        0.60140    0.90150    0.10380    1.000
    C63      C        0.66780    0.00060    0.12310    1.000
    C64      C        0.61340    0.77450    0.38730    1.000
    C65      C        0.63670    0.72030    0.40340    1.000
    H49      H        0.68950    0.71210    0.40120    1.000
    C66      C        0.58550    0.67800    0.42250    1.000
    H50      H        0.60250    0.64120    0.43060    1.000
    C67      C        0.50800    0.69140    0.42950    1.000
    C68      C        0.48150    0.74550    0.41260    1.000
    H51      H        0.42880    0.75380    0.41700    1.000
    C69      C        0.53650    0.78870    0.38830    1.000
    H52      H        0.52030    0.82510    0.37370    1.000
    C70      C        0.44850    0.64270    0.45820    1.000
    C71      C        0.55710    0.00810    0.83840    1.000
    H53      H        0.55110    0.98110    0.88720    1.000
    C72      C        0.54630    0.05180    0.70010    1.000
    H54      H        0.53270    0.06140    0.63610    1.000
    C73      C        0.59010    0.08320    0.76340    1.000
    H55      H        0.61170    0.11810    0.74950    1.000
    C74      C        0.48090    0.95740    0.71080    1.000
    H56      H        0.45360    0.96940    0.65210    1.000
    H57      H        0.44230    0.94680    0.75940    1.000
    C75      C        0.53060    0.90590    0.68610    1.000
    C76      C        0.49510    0.85350    0.68110    1.000
    C77      C        0.54050    0.80670    0.65710    1.000
    H58      H        0.51740    0.77140    0.65400    1.000
    C78      C        0.62020    0.81210    0.63770    1.000
    H59      H        0.64990    0.78050    0.62330    1.000
    C79      C        0.65410    0.86430    0.63990    1.000
    H60      H        0.70650    0.86850    0.62480    1.000
    C80      C        0.60900    0.91080    0.66510    1.000
    H61      H        0.63220    0.94600    0.66790    1.000
    C81      C        0.40980    0.84530    0.70240    1.000
    H62      H        0.39880    0.80540    0.70740    1.000
    H63      H        0.39720    0.86250    0.76510    1.000
    C82      C        0.29080    0.89090    0.63530    1.000
    H64      H        0.26550    0.89430    0.69540    1.000
    C83      C        0.31530    0.89470    0.48430    1.000
    H65      H        0.31150    0.90150    0.41710    1.000
    C84      C        0.37790    0.87140    0.52940    1.000
    H66      H        0.42330    0.85890    0.49940    1.000
    Co4      Co       0.85195    0.42743    0.98358    1.000
    O16      O        0.85710    0.50644    0.03440    1.000
    O17      O        0.80920    0.45179    0.15110    1.000
    O18      O        0.02800    0.90540    0.45230    1.000
    O19      O        0.11430    0.84190    0.48110    1.000
    O20      O        0.82750    0.68636    0.37620    1.000
    N13      N        0.90310    0.44504    0.84980    1.000
    N14      N        0.97370    0.49597    0.74860    1.000
    N15      N        0.13850    0.63006    0.62550    1.000
    N16      N        0.24030    0.59355    0.55080    1.000
    C85      C        0.83340    0.54840    0.19010    1.000
    C86      C        0.79710    0.54640    0.27940    1.000
    H67      H        0.77170    0.51370    0.29840    1.000
    C87      C        0.79740    0.59250    0.34260    1.000
    H68      H        0.77210    0.59080    0.40300    1.000
    C88      C        0.83560    0.64060    0.31410    1.000
    C89      C        0.87330    0.64330    0.22480    1.000
    H69      H        0.89890    0.67600    0.20590    1.000
    C90      C        0.87250    0.59710    0.16360    1.000
    H70      H        0.89860    0.59850    0.10380    1.000
    C91      C        0.83220    0.49940    0.12310    1.000
    C92      C        0.88660    0.72550    0.38730    1.000
    C93      C        0.86330    0.77970    0.40340    1.000
    H71      H        0.81050    0.78790    0.40120    1.000
    C94      C        0.91450    0.82200    0.42250    1.000
    H72      H        0.89750    0.85880    0.43060    1.000
    C95      C        0.99200    0.80860    0.42950    1.000
    C96      C        0.01850    0.75450    0.41260    1.000
    H73      H        0.07120    0.74620    0.41700    1.000
    C97      C        0.96350    0.71130    0.38830    1.000
    H74      H        0.97970    0.67490    0.37370    1.000
    C98      C        0.05150    0.85730    0.45820    1.000
    C99      C        0.94290    0.49190    0.83840    1.000
    H75      H        0.94890    0.51890    0.88720    1.000
    C100     C        0.95370    0.44820    0.70010    1.000
    H76      H        0.96730    0.43860    0.63610    1.000
    C101     C        0.90990    0.41680    0.76340    1.000
    H77      H        0.88830    0.38190    0.74950    1.000
    C102     C        0.01910    0.54260    0.71080    1.000
    H78      H        0.04640    0.53060    0.65210    1.000
    H79      H        0.05770    0.55320    0.75940    1.000
    C103     C        0.96940    0.59410    0.68610    1.000
    C104     C        0.00490    0.64650    0.68110    1.000
    C105     C        0.95950    0.69330    0.65710    1.000
    H80      H        0.98260    0.72860    0.65400    1.000
    C106     C        0.87980    0.68790    0.63770    1.000
    H81      H        0.85010    0.71950    0.62330    1.000
    C107     C        0.84590    0.63570    0.63990    1.000
    H82      H        0.79350    0.63150    0.62480    1.000
    C108     C        0.89100    0.58920    0.66510    1.000
    H83      H        0.86780    0.55400    0.66790    1.000
    C109     C        0.09020    0.65470    0.70240    1.000
    H84      H        0.10120    0.69460    0.70740    1.000
    H85      H        0.10280    0.63750    0.76510    1.000
    C110     C        0.20920    0.60910    0.63530    1.000
    H86      H        0.23450    0.60570    0.69540    1.000
    C111     C        0.18470    0.60530    0.48430    1.000
    H87      H        0.18850    0.59850    0.41710    1.000
    C112     C        0.12210    0.62860    0.52940    1.000
    H88      H        0.07670    0.64110    0.49940    1.000
    Co5      Co       0.64805    0.42743    0.48358    1.000
    O21      O        0.64290    0.50644    0.53440    1.000
    O22      O        0.69080    0.45179    0.65110    1.000
    O23      O        0.47200    0.90540    0.95230    1.000
    O24      O        0.38570    0.84190    0.98110    1.000
    O25      O        0.67250    0.68636    0.87620    1.000
    N17      N        0.59690    0.44504    0.34980    1.000
    N18      N        0.52630    0.49597    0.24860    1.000
    N19      N        0.36150    0.63006    0.12550    1.000
    N20      N        0.25970    0.59355    0.05080    1.000
    C113     C        0.66660    0.54840    0.69010    1.000
    C114     C        0.70290    0.54640    0.77940    1.000
    H89      H        0.72830    0.51370    0.79840    1.000
    C115     C        0.70260    0.59250    0.84260    1.000
    H90      H        0.72790    0.59080    0.90300    1.000
    C116     C        0.66440    0.64060    0.81410    1.000
    C117     C        0.62670    0.64330    0.72480    1.000
    H91      H        0.60110    0.67600    0.70590    1.000
    C118     C        0.62750    0.59710    0.66360    1.000
    H92      H        0.60140    0.59850    0.60380    1.000
    C119     C        0.66780    0.49940    0.62310    1.000
    C120     C        0.61340    0.72550    0.88730    1.000
    C121     C        0.63670    0.77970    0.90340    1.000
    H93      H        0.68950    0.78790    0.90120    1.000
    C122     C        0.58550    0.82200    0.92250    1.000
    H94      H        0.60250    0.85880    0.93060    1.000
    C123     C        0.50800    0.80860    0.92950    1.000
    C124     C        0.48150    0.75450    0.91260    1.000
    H95      H        0.42880    0.74620    0.91700    1.000
    C125     C        0.53650    0.71130    0.88830    1.000
    H96      H        0.52030    0.67490    0.87370    1.000
    C126     C        0.44850    0.85730    0.95820    1.000
    C127     C        0.55710    0.49190    0.33840    1.000
    H97      H        0.55110    0.51890    0.38720    1.000
    C128     C        0.54630    0.44820    0.20010    1.000
    H98      H        0.53270    0.43860    0.13610    1.000
    C129     C        0.59010    0.41680    0.26340    1.000
    H99      H        0.61170    0.38190    0.24950    1.000
    C130     C        0.48090    0.54260    0.21080    1.000
    H100     H        0.45360    0.53060    0.15210    1.000
    H101     H        0.44230    0.55320    0.25940    1.000
    C131     C        0.53060    0.59410    0.18610    1.000
    C132     C        0.49510    0.64650    0.18110    1.000
    C133     C        0.54050    0.69330    0.15710    1.000
    H102     H        0.51740    0.72860    0.15400    1.000
    C134     C        0.62020    0.68790    0.13770    1.000
    H103     H        0.64990    0.71950    0.12330    1.000
    C135     C        0.65410    0.63570    0.13990    1.000
    H104     H        0.70650    0.63150    0.12480    1.000
    C136     C        0.60900    0.58920    0.16510    1.000
    H105     H        0.63220    0.55400    0.16790    1.000
    C137     C        0.40980    0.65470    0.20240    1.000
    H106     H        0.39880    0.69460    0.20740    1.000
    H107     H        0.39720    0.63750    0.26510    1.000
    C138     C        0.29080    0.60910    0.13530    1.000
    H108     H        0.26550    0.60570    0.19540    1.000
    C139     C        0.31530    0.60530    0.98430    1.000
    H109     H        0.31150    0.59850    0.91710    1.000
    C140     C        0.37790    0.62860    0.02940    1.000
    H110     H        0.42330    0.64110    0.99940    1.000
    Co6      Co       0.85195    0.07257    0.48358    1.000
    O26      O        0.85710    0.99356    0.53440    1.000
    O27      O        0.80920    0.04821    0.65110    1.000
    O28      O        0.02800    0.59460    0.95230    1.000
    O29      O        0.11430    0.65810    0.98110    1.000
    O30      O        0.82750    0.81364    0.87620    1.000
    N21      N        0.90310    0.05496    0.34980    1.000
    N22      N        0.97370    0.00403    0.24860    1.000
    N23      N        0.13850    0.86994    0.12550    1.000
    N24      N        0.24030    0.90645    0.05080    1.000
    C141     C        0.83340    0.95160    0.69010    1.000
    C142     C        0.79710    0.95360    0.77940    1.000
    H111     H        0.77170    0.98630    0.79840    1.000
    C143     C        0.79740    0.90750    0.84260    1.000
    H112     H        0.77210    0.90920    0.90300    1.000
    C144     C        0.83560    0.85940    0.81410    1.000
    C145     C        0.87330    0.85670    0.72480    1.000
    H113     H        0.89890    0.82400    0.70590    1.000
    C146     C        0.87250    0.90290    0.66360    1.000
    H114     H        0.89860    0.90150    0.60380    1.000
    C147     C        0.83220    0.00060    0.62310    1.000
    C148     C        0.88660    0.77450    0.88730    1.000
    C149     C        0.86330    0.72030    0.90340    1.000
    H115     H        0.81050    0.71210    0.90120    1.000
    C150     C        0.91450    0.67800    0.92250    1.000
    H116     H        0.89750    0.64120    0.93060    1.000
    C151     C        0.99200    0.69140    0.92950    1.000
    C152     C        0.01850    0.74550    0.91260    1.000
    H117     H        0.07120    0.75380    0.91700    1.000
    C153     C        0.96350    0.78870    0.88830    1.000
    H118     H        0.97970    0.82510    0.87370    1.000
    C154     C        0.05150    0.64270    0.95820    1.000
    C155     C        0.94290    0.00810    0.33840    1.000
    H119     H        0.94890    0.98110    0.38720    1.000
    C156     C        0.95370    0.05180    0.20010    1.000
    H120     H        0.96730    0.06140    0.13610    1.000
    C157     C        0.90990    0.08320    0.26340    1.000
    H121     H        0.88830    0.11810    0.24950    1.000
    C158     C        0.01910    0.95740    0.21080    1.000
    H122     H        0.04640    0.96940    0.15210    1.000
    H123     H        0.05770    0.94680    0.25940    1.000
    C159     C        0.96940    0.90590    0.18610    1.000
    C160     C        0.00490    0.85350    0.18110    1.000
    C161     C        0.95950    0.80670    0.15710    1.000
    H124     H        0.98260    0.77140    0.15400    1.000
    C162     C        0.87980    0.81210    0.13770    1.000
    H125     H        0.85010    0.78050    0.12330    1.000
    C163     C        0.84590    0.86430    0.13990    1.000
    H126     H        0.79350    0.86850    0.12480    1.000
    C164     C        0.89100    0.91080    0.16510    1.000
    H127     H        0.86780    0.94600    0.16790    1.000
    C165     C        0.09020    0.84530    0.20240    1.000
    H128     H        0.10120    0.80540    0.20740    1.000
    H129     H        0.10280    0.86250    0.26510    1.000
    C166     C        0.20920    0.89090    0.13530    1.000
    H130     H        0.23450    0.89430    0.19540    1.000
    C167     C        0.18470    0.89470    0.98430    1.000
    H131     H        0.18850    0.90150    0.91710    1.000
    C168     C        0.12210    0.87140    0.02940    1.000
    H132     H        0.07670    0.85890    0.99940    1.000
    Co7      Co       0.35195    0.92743    0.01642    1.000
    O31      O        0.35710    0.00644    0.96560    1.000
    O32      O        0.30920    0.95179    0.84890    1.000
    O33      O        0.52800    0.40540    0.54770    1.000
    O34      O        0.61430    0.34190    0.51890    1.000
    O35      O        0.32750    0.18636    0.62380    1.000
    N25      N        0.40310    0.94504    0.15020    1.000
    N26      N        0.47370    0.99597    0.25140    1.000
    N27      N        0.63850    0.13006    0.37450    1.000
    N28      N        0.74030    0.09355    0.44920    1.000
    C169     C        0.33340    0.04840    0.80990    1.000
    C170     C        0.29710    0.04640    0.72060    1.000
    H133     H        0.27170    0.01370    0.70160    1.000
    C171     C        0.29740    0.09250    0.65740    1.000
    H134     H        0.27210    0.09080    0.59700    1.000
    C172     C        0.33560    0.14060    0.68590    1.000
    C173     C        0.37330    0.14330    0.77520    1.000
    H135     H        0.39890    0.17600    0.79410    1.000
    C174     C        0.37250    0.09710    0.83640    1.000
    H136     H        0.39860    0.09850    0.89620    1.000
    C175     C        0.33220    0.99940    0.87690    1.000
    C176     C        0.38660    0.22550    0.61270    1.000
    C177     C        0.36330    0.27970    0.59660    1.000
    H137     H        0.31050    0.28790    0.59880    1.000
    C178     C        0.41450    0.32200    0.57750    1.000
    H138     H        0.39750    0.35880    0.56940    1.000
    C179     C        0.49200    0.30860    0.57050    1.000
    C180     C        0.51850    0.25450    0.58740    1.000
    H139     H        0.57120    0.24620    0.58300    1.000
    C181     C        0.46350    0.21130    0.61170    1.000
    H140     H        0.47970    0.17490    0.62630    1.000
    C182     C        0.55150    0.35730    0.54180    1.000
    C183     C        0.44290    0.99190    0.16160    1.000
    H141     H        0.44890    0.01890    0.11280    1.000
    C184     C        0.45370    0.94820    0.29990    1.000
    H142     H        0.46730    0.93860    0.36390    1.000
    C185     C        0.40990    0.91680    0.23660    1.000
    H143     H        0.38830    0.88190    0.25050    1.000
    C186     C        0.51910    0.04260    0.28920    1.000
    H144     H        0.54640    0.03060    0.34790    1.000
    H145     H        0.55770    0.05320    0.24060    1.000
    C187     C        0.46940    0.09410    0.31390    1.000
    C188     C        0.50490    0.14650    0.31890    1.000
    C189     C        0.45950    0.19330    0.34290    1.000
    H146     H        0.48260    0.22860    0.34600    1.000
    C190     C        0.37980    0.18790    0.36230    1.000
    H147     H        0.35010    0.21950    0.37670    1.000
    C191     C        0.34590    0.13570    0.36010    1.000
    H148     H        0.29350    0.13150    0.37520    1.000
    C192     C        0.39100    0.08920    0.33490    1.000
    H149     H        0.36780    0.05400    0.33210    1.000
    C193     C        0.59020    0.15470    0.29760    1.000
    H150     H        0.60120    0.19460    0.29260    1.000
    H151     H        0.60280    0.13750    0.23490    1.000
    C194     C        0.70920    0.10910    0.36470    1.000
    H152     H        0.73450    0.10570    0.30460    1.000
    C195     C        0.68470    0.10530    0.51570    1.000
    H153     H        0.68850    0.09850    0.58290    1.000
    C196     C        0.62210    0.12860    0.47060    1.000
    H154     H        0.57670    0.14110    0.50060    1.000
    Co8      Co       0.14805    0.57257    0.01642    1.000
    O36      O        0.14290    0.49356    0.96560    1.000
    O37      O        0.19080    0.54821    0.84890    1.000
    O38      O        0.97200    0.09460    0.54770    1.000
    O39      O        0.88570    0.15810    0.51890    1.000
    O40      O        0.17250    0.31364    0.62380    1.000
    N29      N        0.09690    0.55496    0.15020    1.000
    N30      N        0.02630    0.50403    0.25140    1.000
    N31      N        0.86150    0.36994    0.37450    1.000
    N32      N        0.75970    0.40645    0.44920    1.000
    C197     C        0.16660    0.45160    0.80990    1.000
    C198     C        0.20290    0.45360    0.72060    1.000
    H155     H        0.22830    0.48630    0.70160    1.000
    C199     C        0.20260    0.40750    0.65740    1.000
    H156     H        0.22790    0.40920    0.59700    1.000
    C200     C        0.16440    0.35940    0.68590    1.000
    C201     C        0.12670    0.35670    0.77520    1.000
    H157     H        0.10110    0.32400    0.79410    1.000
    C202     C        0.12750    0.40290    0.83640    1.000
    H158     H        0.10140    0.40150    0.89620    1.000
    C203     C        0.16780    0.50060    0.87690    1.000
    C204     C        0.11340    0.27450    0.61270    1.000
    C205     C        0.13670    0.22030    0.59660    1.000
    H159     H        0.18950    0.21210    0.59880    1.000
    C206     C        0.08550    0.17800    0.57750    1.000
    H160     H        0.10250    0.14120    0.56940    1.000
    C207     C        0.00800    0.19140    0.57050    1.000
    C208     C        0.98150    0.24550    0.58740    1.000
    H161     H        0.92880    0.25380    0.58300    1.000
    C209     C        0.03650    0.28870    0.61170    1.000
    H162     H        0.02030    0.32510    0.62630    1.000
    C210     C        0.94850    0.14270    0.54180    1.000
    C211     C        0.05710    0.50810    0.16160    1.000
    H163     H        0.05110    0.48110    0.11280    1.000
    C212     C        0.04630    0.55180    0.29990    1.000
    H164     H        0.03270    0.56140    0.36390    1.000
    C213     C        0.09010    0.58320    0.23660    1.000
    H165     H        0.11170    0.61810    0.25050    1.000
    C214     C        0.98090    0.45740    0.28920    1.000
    H166     H        0.95360    0.46940    0.34790    1.000
    H167     H        0.94230    0.44680    0.24060    1.000
    C215     C        0.03060    0.40590    0.31390    1.000
    C216     C        0.99510    0.35350    0.31890    1.000
    C217     C        0.04050    0.30670    0.34290    1.000
    H168     H        0.01740    0.27140    0.34600    1.000
    C218     C        0.12020    0.31210    0.36230    1.000
    H169     H        0.14990    0.28050    0.37670    1.000
    C219     C        0.15410    0.36430    0.36010    1.000
    H170     H        0.20650    0.36850    0.37520    1.000
    C220     C        0.10900    0.41080    0.33490    1.000
    H171     H        0.13220    0.44600    0.33210    1.000
    C221     C        0.90980    0.34530    0.29760    1.000
    H172     H        0.89880    0.30540    0.29260    1.000
    H173     H        0.89720    0.36250    0.23490    1.000
    C222     C        0.79080    0.39090    0.36470    1.000
    H174     H        0.76550    0.39430    0.30460    1.000
    C223     C        0.81530    0.39470    0.51570    1.000
    H175     H        0.81150    0.40150    0.58290    1.000
    C224     C        0.87790    0.37140    0.47060    1.000
    H176     H        0.92330    0.35890    0.50060    1.000
