data_functionalizedCrystal
_audit_creation_method	'EQeq! by Chris Wilmer'
_symmetry_space_group_name_H-M	'P1'
_symmetry_Int_Tables_number	1
_symmetry_cell_setting	triclinic
loop_
_symmetry_equiv_pos_as_xyz
  x,y,z
_cell_length_a	19.4281
_cell_length_b	26.8587
_cell_length_c	34.727
_cell_angle_alpha	90
_cell_angle_beta	90
_cell_angle_gamma	90
loop_
_atom_site_label
_atom_site_type_symbol
_atom_site_fract_x
_atom_site_fract_y
_atom_site_fract_z
_atom_site_charge
Mof_K 	K 	0.56064	0.63482	0.48373	1.907
Mof_Nd	Nd	0.74386	0.55814	0.93202	1.041
Mof_Nd	Nd	0.74277	0.56895	0.25988	0.911
Mof_Pt	Pt	0.75291	0.56444	0.09628	0.077
Mof_Pt	Pt	0.99205	0.56166	0.84474	0.166
Mof_Pt	Pt	0.50065	0.56362	0.83943	0.079
Mof_Pt	Pt	0.24478	0.55765	0.09495	0.087
Mof_C 	C 	0.6518	0.5649	0.0984	-0.047
Mof_C 	C 	0.7489	0.562	0.0392	-0.02
Mof_C 	C 	0.8555	0.5622	0.0942	-0.048
Mof_C 	C 	0.7576	0.5687	0.153	-0.044
Mof_C 	C 	0.0395	0.5605	0.8951	-0.089
Mof_C 	C 	0.0823	0.5678	0.8167	-0.079
Mof_C 	C 	0.9466	0.5619	0.7939	-0.095
Mof_C 	C 	0.902	0.5549	0.8712	-0.06
Mof_C 	C 	0.5867	0.563	0.8713	-0.012
Mof_C 	C 	0.5601	0.5638	0.7925	-0.032
Mof_C 	C 	0.4187	0.5654	0.8074	-0.034
Mof_C 	C 	0.4445	0.5632	0.8877	-0.03
Mof_C 	C 	0.1753	0.5614	0.134	-0.113
Mof_C 	C 	0.3154	0.5551	0.1377	-0.098
Mof_C 	C 	0.3155	0.5543	0.0558	-0.077
Mof_C 	C 	0.1727	0.5585	0.053	-0.087
Mof_N 	N 	0.5926	0.5586	0.1003	-0.325
Mof_N 	N 	0.7466	0.5606	0.006	-0.263
Mof_N 	N 	0.9144	0.5635	0.0907	-0.332
Mof_N 	N 	0.7616	0.5707	0.1862	-0.276
Mof_N 	N 	0.0699	0.5635	0.9231	-0.302
Mof_N 	N 	0.1305	0.5678	0.7995	-0.279
Mof_N 	N 	0.9232	0.5593	0.7628	-0.356
Mof_N 	N 	0.851	0.5519	0.8879	-0.279
Mof_N 	N 	0.636	0.563	0.888	-0.279
Mof_N 	N 	0.5916	0.5655	0.7656	-0.218
Mof_N 	N 	0.369	0.5676	0.7867	-0.258
Mof_N 	N 	0.4146	0.5618	0.9151	-0.201
Mof_N 	N 	0.1315	0.5614	0.1574	-0.22
Mof_N 	N 	0.3496	0.5527	0.1627	-0.376
Mof_N 	N 	0.3584	0.5484	0.032	-0.19
Mof_N 	N 	0.1277	0.5589	0.0313	-0.407
Mof_O 	O 	0.4591	0.5569	0.4839	-0.682
Mof_K 	K 	0.56064	0.13482	0.98373	1.823
Mof_Nd	Nd	0.74386	0.05814	0.43202	1.023
Mof_Nd	Nd	0.74277	0.06895	0.75988	0.864
Mof_Pt	Pt	0.75291	0.06444	0.59628	0.058
Mof_Pt	Pt	0.99205	0.06166	0.34474	0.148
Mof_Pt	Pt	0.50065	0.06362	0.33943	0.058
Mof_Pt	Pt	0.24478	0.05765	0.59495	0.064
Mof_C 	C 	0.6518	0.0649	0.5984	-0.054
Mof_C 	C 	0.7489	0.062	0.5392	-0.03
Mof_C 	C 	0.8555	0.0622	0.5942	-0.056
Mof_C 	C 	0.7576	0.0687	0.653	-0.05
Mof_C 	C 	0.0395	0.0605	0.3951	-0.104
Mof_C 	C 	0.0823	0.0678	0.3167	-0.091
Mof_C 	C 	0.9466	0.0619	0.2939	-0.103
Mof_C 	C 	0.902	0.0549	0.3712	-0.071
Mof_C 	C 	0.5867	0.063	0.3713	-0.021
Mof_C 	C 	0.5601	0.0638	0.2925	-0.043
Mof_C 	C 	0.4187	0.0654	0.3074	-0.045
Mof_C 	C 	0.4445	0.0632	0.3877	-0.039
Mof_C 	C 	0.1753	0.0614	0.634	-0.117
Mof_C 	C 	0.3154	0.0551	0.6377	-0.104
Mof_C 	C 	0.3155	0.0543	0.5558	-0.088
Mof_C 	C 	0.1727	0.0585	0.553	-0.096
Mof_N 	N 	0.5926	0.0586	0.6003	-0.319
Mof_N 	N 	0.7466	0.0606	0.506	-0.276
Mof_N 	N 	0.9144	0.0635	0.5907	-0.317
Mof_N 	N 	0.7616	0.0707	0.6862	-0.277
Mof_N 	N 	0.0699	0.0635	0.4231	-0.313
Mof_N 	N 	0.1305	0.0678	0.2995	-0.281
Mof_N 	N 	0.9232	0.0593	0.2628	-0.358
Mof_N 	N 	0.851	0.0519	0.3879	-0.284
Mof_N 	N 	0.636	0.063	0.388	-0.282
Mof_N 	N 	0.5916	0.0655	0.2656	-0.226
Mof_N 	N 	0.369	0.0676	0.2867	-0.262
Mof_N 	N 	0.4146	0.0618	0.4151	-0.207
Mof_N 	N 	0.1315	0.0614	0.6574	-0.225
Mof_N 	N 	0.3496	0.0527	0.6627	-0.374
Mof_N 	N 	0.3584	0.0484	0.532	-0.205
Mof_N 	N 	0.1277	0.0589	0.5313	-0.411
Mof_O 	O 	0.4591	0.0569	0.9839	-0.684
Mof_K 	K 	0.06064	0.63482	0.98373	1.74
Mof_Nd	Nd	0.24386	0.55814	0.43202	1.062
Mof_Nd	Nd	0.24277	0.56895	0.75988	0.905
Mof_Pt	Pt	0.25291	0.56444	0.59628	0.075
Mof_Pt	Pt	0.49205	0.56166	0.34474	0.063
Mof_Pt	Pt	0.00065	0.56362	0.33943	-0.024
Mof_Pt	Pt	0.74478	0.55765	0.59495	0.088
Mof_C 	C 	0.1518	0.5649	0.5984	-0.049
Mof_C 	C 	0.2489	0.562	0.5392	-0.026
Mof_C 	C 	0.3555	0.5622	0.5942	-0.055
Mof_C 	C 	0.2576	0.5687	0.653	-0.043
Mof_C 	C 	0.5395	0.5605	0.3951	-0.037
Mof_C 	C 	0.5823	0.5678	0.3167	-0.036
Mof_C 	C 	0.4466	0.5619	0.2939	-0.092
Mof_C 	C 	0.402	0.5549	0.3712	-0.05
Mof_C 	C 	0.0867	0.563	0.3713	-0.001
Mof_C 	C 	0.0601	0.5638	0.2925	-0.031
Mof_C 	C 	0.9187	0.5654	0.3074	0.011
Mof_C 	C 	0.9445	0.5632	0.3877	0.024
Mof_C 	C 	0.6753	0.5614	0.634	-0.113
Mof_C 	C 	0.8154	0.5551	0.6377	-0.092
Mof_C 	C 	0.8155	0.5543	0.5558	-0.076
Mof_C 	C 	0.6727	0.5585	0.553	-0.092
Mof_N 	N 	0.0926	0.5586	0.6003	-0.323
Mof_N 	N 	0.2466	0.5606	0.506	-0.276
Mof_N 	N 	0.4144	0.5635	0.5907	-0.354
Mof_N 	N 	0.2616	0.5707	0.6862	-0.276
Mof_N 	N 	0.5699	0.5635	0.4231	-0.318
Mof_N 	N 	0.6305	0.5678	0.2995	-0.29
Mof_N 	N 	0.4232	0.5593	0.2628	-0.367
Mof_N 	N 	0.351	0.5519	0.3879	-0.285
Mof_N 	N 	0.136	0.563	0.388	-0.284
Mof_N 	N 	0.0916	0.5655	0.2656	-0.228
Mof_N 	N 	0.869	0.5676	0.2867	-0.267
Mof_N 	N 	0.9146	0.5618	0.4151	-0.203
Mof_N 	N 	0.6315	0.5614	0.6574	-0.213
Mof_N 	N 	0.8496	0.5527	0.6627	-0.365
Mof_N 	N 	0.8584	0.5484	0.532	-0.188
Mof_N 	N 	0.6277	0.5589	0.5313	-0.426
Mof_O 	O 	0.9591	0.5569	0.9839	-0.642
Mof_K 	K 	0.06064	0.13482	0.48373	1.849
Mof_Nd	Nd	0.24386	0.05814	0.93202	0.978
Mof_Nd	Nd	0.24277	0.06895	0.25988	0.852
Mof_Pt	Pt	0.25291	0.06444	0.09628	0.056
Mof_Pt	Pt	0.49205	0.06166	0.84474	0.043
Mof_Pt	Pt	0.00065	0.06362	0.83943	-0.045
Mof_Pt	Pt	0.74478	0.05765	0.09495	0.067
Mof_C 	C 	0.1518	0.0649	0.0984	-0.056
Mof_C 	C 	0.2489	0.062	0.0392	-0.033
Mof_C 	C 	0.3555	0.0622	0.0942	-0.062
Mof_C 	C 	0.2576	0.0687	0.153	-0.052
Mof_C 	C 	0.5395	0.0605	0.8951	-0.048
Mof_C 	C 	0.5823	0.0678	0.8167	-0.044
Mof_C 	C 	0.4466	0.0619	0.7939	-0.1
Mof_C 	C 	0.402	0.0549	0.8712	-0.061
Mof_C 	C 	0.0867	0.063	0.8713	-0.014
Mof_C 	C 	0.0601	0.0638	0.7925	-0.041
Mof_C 	C 	0.9187	0.0654	0.8074	0.001
Mof_C 	C 	0.9445	0.0632	0.8877	0.013
Mof_C 	C 	0.6753	0.0614	0.134	-0.118
Mof_C 	C 	0.8154	0.0551	0.1377	-0.098
Mof_C 	C 	0.8155	0.0543	0.0558	-0.081
Mof_C 	C 	0.6727	0.0585	0.053	-0.096
Mof_N 	N 	0.0926	0.0586	0.1003	-0.317
Mof_N 	N 	0.2466	0.0606	0.006	-0.267
Mof_N 	N 	0.4144	0.0635	0.0907	-0.347
Mof_N 	N 	0.2616	0.0707	0.1862	-0.277
Mof_N 	N 	0.5699	0.0635	0.9231	-0.321
Mof_N 	N 	0.6305	0.0678	0.7995	-0.292
Mof_N 	N 	0.4232	0.0593	0.7628	-0.369
Mof_N 	N 	0.351	0.0519	0.8879	-0.287
Mof_N 	N 	0.136	0.063	0.888	-0.286
Mof_N 	N 	0.0916	0.0655	0.7656	-0.235
Mof_N 	N 	0.869	0.0676	0.7867	-0.27
Mof_N 	N 	0.9146	0.0618	0.9151	-0.218
Mof_N 	N 	0.6315	0.0614	0.1574	-0.22
Mof_N 	N 	0.8496	0.0527	0.1627	-0.362
Mof_N 	N 	0.8584	0.0484	0.032	-0.193
Mof_N 	N 	0.6277	0.0589	0.0313	-0.413
Mof_O 	O 	0.9591	0.0569	0.4839	-0.619
Mof_K 	K 	0.43936	0.36518	0.48373	1.91
Mof_Nd	Nd	0.25614	0.44186	0.93202	1.036
Mof_Nd	Nd	0.25723	0.43105	0.25988	0.905
Mof_Pt	Pt	0.24709	0.43556	0.09628	0.076
Mof_Pt	Pt	0.00795	0.43834	0.84474	-0.037
Mof_Pt	Pt	0.49935	0.43638	0.83943	0.079
Mof_Pt	Pt	0.75522	0.44235	0.09495	0.09
Mof_C 	C 	0.3482	0.4351	0.0984	-0.046
Mof_C 	C 	0.2511	0.438	0.0392	-0.022
Mof_C 	C 	0.1445	0.4378	0.0942	-0.054
Mof_C 	C 	0.2424	0.4313	0.153	-0.045
Mof_C 	C 	0.9605	0.4395	0.8951	0.016
Mof_C 	C 	0.9177	0.4322	0.8167	0.011
Mof_C 	C 	0.0534	0.4381	0.7939	-0.087
Mof_C 	C 	0.098	0.4451	0.8712	-0.04
Mof_C 	C 	0.4133	0.437	0.8713	-0.011
Mof_C 	C 	0.4399	0.4362	0.7925	-0.031
Mof_C 	C 	0.5813	0.4346	0.8074	-0.034
Mof_C 	C 	0.5555	0.4368	0.8877	-0.03
Mof_C 	C 	0.8247	0.4386	0.134	-0.107
Mof_C 	C 	0.6846	0.4449	0.1377	-0.099
Mof_C 	C 	0.6845	0.4457	0.0558	-0.079
Mof_C 	C 	0.8273	0.4415	0.053	-0.083
Mof_N 	N 	0.4074	0.4414	0.1003	-0.325
Mof_N 	N 	0.2534	0.4394	0.006	-0.264
Mof_N 	N 	0.0856	0.4365	0.0907	-0.353
Mof_N 	N 	0.2384	0.4293	0.1862	-0.277
Mof_N 	N 	0.9301	0.4365	0.9231	-0.326
Mof_N 	N 	0.8695	0.4322	0.7995	-0.298
Mof_N 	N 	0.0768	0.4407	0.7628	-0.372
Mof_N 	N 	0.149	0.4481	0.8879	-0.288
Mof_N 	N 	0.364	0.437	0.888	-0.278
Mof_N 	N 	0.4084	0.4345	0.7656	-0.217
Mof_N 	N 	0.631	0.4324	0.7867	-0.26
Mof_N 	N 	0.5854	0.4382	0.9151	-0.202
Mof_N 	N 	0.8685	0.4386	0.1574	-0.202
Mof_N 	N 	0.6504	0.4473	0.1627	-0.377
Mof_N 	N 	0.6416	0.4516	0.032	-0.19
Mof_N 	N 	0.8723	0.4411	0.0313	-0.408
Mof_O 	O 	0.5409	0.4431	0.4839	-0.682
Mof_K 	K 	0.43936	0.86518	0.98373	1.867
Mof_Nd	Nd	0.25614	0.94186	0.43202	1.126
Mof_Nd	Nd	0.25723	0.93105	0.75988	0.969
Mof_Pt	Pt	0.24709	0.93556	0.59628	0.1
Mof_Pt	Pt	0.00795	0.93834	0.34474	-0.013
Mof_Pt	Pt	0.49935	0.93638	0.33943	0.1
Mof_Pt	Pt	0.75522	0.94235	0.59495	0.114
Mof_C 	C 	0.3482	0.9351	0.5984	-0.034
Mof_C 	C 	0.2511	0.938	0.5392	-0.009
Mof_C 	C 	0.1445	0.9378	0.5942	-0.039
Mof_C 	C 	0.2424	0.9313	0.653	-0.03
Mof_C 	C 	0.9605	0.9395	0.3951	0.025
Mof_C 	C 	0.9177	0.9322	0.3167	0.021
Mof_C 	C 	0.0534	0.9381	0.2939	-0.077
Mof_C 	C 	0.098	0.9451	0.3712	-0.029
Mof_C 	C 	0.4133	0.937	0.3713	0.003
Mof_C 	C 	0.4399	0.9362	0.2925	-0.021
Mof_C 	C 	0.5813	0.9346	0.3074	-0.023
Mof_C 	C 	0.5555	0.9368	0.3877	-0.018
Mof_C 	C 	0.8247	0.9386	0.634	-0.094
Mof_C 	C 	0.6846	0.9449	0.6377	-0.082
Mof_C 	C 	0.6845	0.9457	0.5558	-0.067
Mof_C 	C 	0.8273	0.9415	0.553	-0.068
Mof_N 	N 	0.4074	0.9414	0.6003	-0.298
Mof_N 	N 	0.2534	0.9394	0.506	-0.271
Mof_N 	N 	0.0856	0.9365	0.5907	-0.322
Mof_N 	N 	0.2384	0.9293	0.6862	-0.273
Mof_N 	N 	0.9301	0.9365	0.4231	-0.323
Mof_N 	N 	0.8695	0.9322	0.2995	-0.295
Mof_N 	N 	0.0768	0.9407	0.2628	-0.361
Mof_N 	N 	0.149	0.9481	0.3879	-0.287
Mof_N 	N 	0.364	0.937	0.388	-0.277
Mof_N 	N 	0.4084	0.9345	0.2656	-0.209
Mof_N 	N 	0.631	0.9324	0.2867	-0.257
Mof_N 	N 	0.5854	0.9382	0.4151	-0.186
Mof_N 	N 	0.8685	0.9386	0.6574	-0.19
Mof_N 	N 	0.6504	0.9473	0.6627	-0.359
Mof_N 	N 	0.6416	0.9516	0.532	-0.179
Mof_N 	N 	0.8723	0.9411	0.5313	-0.396
Mof_O 	O 	0.5409	0.9431	0.9839	-0.656
Mof_K 	K 	0.93936	0.36518	0.98373	1.942
Mof_Nd	Nd	0.75614	0.44186	0.43202	1.081
Mof_Nd	Nd	0.75723	0.43105	0.75988	0.921
Mof_Pt	Pt	0.74709	0.43556	0.59628	0.078
Mof_Pt	Pt	0.50795	0.43834	0.34474	0.063
Mof_Pt	Pt	0.99935	0.43638	0.33943	0.185
Mof_Pt	Pt	0.25522	0.44235	0.59495	0.086
Mof_C 	C 	0.8482	0.4351	0.5984	-0.04
Mof_C 	C 	0.7511	0.438	0.5392	-0.022
Mof_C 	C 	0.6445	0.4378	0.5942	-0.055
Mof_C 	C 	0.7424	0.4313	0.653	-0.041
Mof_C 	C 	0.4605	0.4395	0.3951	-0.037
Mof_C 	C 	0.4177	0.4322	0.3167	-0.035
Mof_C 	C 	0.5534	0.4381	0.2939	-0.092
Mof_C 	C 	0.598	0.4451	0.3712	-0.05
Mof_C 	C 	0.9133	0.437	0.3713	-0.018
Mof_C 	C 	0.9399	0.4362	0.2925	-0.033
Mof_C 	C 	0.0813	0.4346	0.3074	-0.08
Mof_C 	C 	0.0555	0.4368	0.3877	-0.081
Mof_C 	C 	0.3247	0.4386	0.634	-0.111
Mof_C 	C 	0.1846	0.4449	0.6377	-0.096
Mof_C 	C 	0.1845	0.4457	0.5558	-0.08
Mof_C 	C 	0.3273	0.4415	0.553	-0.091
Mof_N 	N 	0.9074	0.4414	0.6003	-0.3
Mof_N 	N 	0.7534	0.4394	0.506	-0.274
Mof_N 	N 	0.5856	0.4365	0.5907	-0.354
Mof_N 	N 	0.7384	0.4293	0.6862	-0.276
Mof_N 	N 	0.4301	0.4365	0.4231	-0.318
Mof_N 	N 	0.3695	0.4322	0.2995	-0.289
Mof_N 	N 	0.5768	0.4407	0.2628	-0.368
Mof_N 	N 	0.649	0.4481	0.3879	-0.287
Mof_N 	N 	0.864	0.437	0.388	-0.274
Mof_N 	N 	0.9084	0.4345	0.2656	-0.207
Mof_N 	N 	0.131	0.4324	0.2867	-0.25
Mof_N 	N 	0.0854	0.4382	0.4151	-0.19
Mof_N 	N 	0.3685	0.4386	0.6574	-0.212
Mof_N 	N 	0.1504	0.4473	0.6627	-0.372
Mof_N 	N 	0.1416	0.4516	0.532	-0.197
Mof_N 	N 	0.3723	0.4411	0.5313	-0.426
Mof_O 	O 	0.0409	0.4431	0.9839	-0.707
Mof_K 	K 	0.93936	0.86518	0.48373	2.094
Mof_Nd	Nd	0.75614	0.94186	0.93202	1.103
Mof_Nd	Nd	0.75723	0.93105	0.25988	0.98
Mof_Pt	Pt	0.74709	0.93556	0.09628	0.103
Mof_Pt	Pt	0.50795	0.93834	0.84474	0.085
Mof_Pt	Pt	0.99935	0.93638	0.83943	0.2
Mof_Pt	Pt	0.25522	0.94235	0.09495	0.113
Mof_C 	C 	0.8482	0.9351	0.0984	-0.028
Mof_C 	C 	0.7511	0.938	0.0392	-0.005
Mof_C 	C 	0.6445	0.9378	0.0942	-0.04
Mof_C 	C 	0.7424	0.9313	0.153	-0.028
Mof_C 	C 	0.4605	0.9395	0.8951	-0.025
Mof_C 	C 	0.4177	0.9322	0.8167	-0.023
Mof_C 	C 	0.5534	0.9381	0.7939	-0.081
Mof_C 	C 	0.598	0.9451	0.8712	-0.038
Mof_C 	C 	0.9133	0.937	0.8713	-0.008
Mof_C 	C 	0.9399	0.9362	0.7925	-0.022
Mof_C 	C 	0.0813	0.9346	0.8074	-0.065
Mof_C 	C 	0.0555	0.9368	0.8877	-0.069
Mof_C 	C 	0.3247	0.9386	0.134	-0.099
Mof_C 	C 	0.1846	0.9449	0.1377	-0.081
Mof_C 	C 	0.1845	0.9457	0.0558	-0.062
Mof_C 	C 	0.3273	0.9415	0.053	-0.071
Mof_N 	N 	0.9074	0.9414	0.1003	-0.273
Mof_N 	N 	0.7534	0.9394	0.006	-0.259
Mof_N 	N 	0.5856	0.9365	0.0907	-0.331
Mof_N 	N 	0.7384	0.9293	0.1862	-0.272
Mof_N 	N 	0.4301	0.9365	0.9231	-0.306
Mof_N 	N 	0.3695	0.9322	0.7995	-0.285
Mof_N 	N 	0.5768	0.9407	0.7628	-0.357
Mof_N 	N 	0.649	0.9481	0.8879	-0.281
Mof_N 	N 	0.864	0.937	0.888	-0.271
Mof_N 	N 	0.9084	0.9345	0.7656	-0.199
Mof_N 	N 	0.131	0.9324	0.7867	-0.248
Mof_N 	N 	0.0854	0.9382	0.9151	-0.183
Mof_N 	N 	0.3685	0.9386	0.1574	-0.201
Mof_N 	N 	0.1504	0.9473	0.1627	-0.355
Mof_N 	N 	0.1416	0.9516	0.032	-0.177
Mof_N 	N 	0.3723	0.9411	0.0313	-0.397
Mof_O 	O 	0.0409	0.9431	0.4839	-0.656
Mof_K 	K 	0.81064	0.61518	0.73373	1.943
Mof_Nd	Nd	0.99386	0.69186	0.18202	1.164
Mof_Nd	Nd	0.99277	0.68105	0.50988	1.003
Mof_Pt	Pt	0.00291	0.68556	0.34628	-0.014
Mof_Pt	Pt	0.24205	0.68834	0.09474	0.062
Mof_Pt	Pt	0.75065	0.68638	0.08943	0.081
Mof_Pt	Pt	0.49478	0.69235	0.34495	0.086
Mof_C 	C 	0.9018	0.6851	0.3484	-0.005
Mof_C 	C 	0.9989	0.688	0.2892	0.032
Mof_C 	C 	0.1055	0.6878	0.3442	-0.045
Mof_C 	C 	0.0076	0.6813	0.403	-0.047
Mof_C 	C 	0.2895	0.6895	0.1451	-0.039
Mof_C 	C 	0.3323	0.6822	0.0667	-0.032
Mof_C 	C 	0.1966	0.6881	0.0439	-0.087
Mof_C 	C 	0.152	0.6951	0.1212	-0.049
Mof_C 	C 	0.8367	0.687	0.1213	-0.003
Mof_C 	C 	0.8101	0.6862	0.0425	-0.025
Mof_C 	C 	0.6687	0.6846	0.0574	-0.032
Mof_C 	C 	0.6945	0.6868	0.1377	-0.03
Mof_C 	C 	0.4253	0.6886	0.384	-0.112
Mof_C 	C 	0.5654	0.6949	0.3877	-0.098
Mof_C 	C 	0.5655	0.6957	0.3058	-0.081
Mof_C 	C 	0.4227	0.6915	0.303	-0.091
Mof_N 	N 	0.8426	0.6914	0.3503	-0.335
Mof_N 	N 	0.9966	0.6894	0.256	-0.284
Mof_N 	N 	0.1644	0.6865	0.3407	-0.358
Mof_N 	N 	0.0116	0.6793	0.4362	-0.304
Mof_N 	N 	0.3199	0.6865	0.1731	-0.318
Mof_N 	N 	0.3805	0.6822	0.0495	-0.29
Mof_N 	N 	0.1732	0.6907	0.0128	-0.348
Mof_N 	N 	0.101	0.6981	0.1379	-0.304
Mof_N 	N 	0.886	0.687	0.138	-0.28
Mof_N 	N 	0.8416	0.6845	0.0156	-0.2
Mof_N 	N 	0.619	0.6824	0.0367	-0.258
Mof_N 	N 	0.6646	0.6882	0.1651	-0.197
Mof_N 	N 	0.3815	0.6886	0.4074	-0.213
Mof_N 	N 	0.5996	0.6973	0.4127	-0.377
Mof_N 	N 	0.6084	0.7016	0.282	-0.195
Mof_N 	N 	0.3777	0.6911	0.2813	-0.425
Mof_O 	O 	0.7091	0.6931	0.7339	-0.684
Mof_K 	K 	0.81064	0.11518	0.23373	1.905
Mof_Nd	Nd	0.99386	0.19186	0.68202	1.163
Mof_Nd	Nd	0.99277	0.18105	0.00988	1.051
Mof_Pt	Pt	0.00291	0.18556	0.84628	-0.015
Mof_Pt	Pt	0.24205	0.18834	0.59474	0.063
Mof_Pt	Pt	0.75065	0.18638	0.58943	0.082
Mof_Pt	Pt	0.49478	0.19235	0.84495	0.088
Mof_C 	C 	0.9018	0.1851	0.8484	-0.004
Mof_C 	C 	0.9989	0.188	0.7892	0.035
Mof_C 	C 	0.1055	0.1878	0.8442	-0.045
Mof_C 	C 	0.0076	0.1813	0.903	-0.047
Mof_C 	C 	0.2895	0.1895	0.6451	-0.037
Mof_C 	C 	0.3323	0.1822	0.5667	-0.034
Mof_C 	C 	0.1966	0.1881	0.5439	-0.091
Mof_C 	C 	0.152	0.1951	0.6212	-0.049
Mof_C 	C 	0.8367	0.187	0.6213	-0.003
Mof_C 	C 	0.8101	0.1862	0.5425	-0.026
Mof_C 	C 	0.6687	0.1846	0.5574	-0.033
Mof_C 	C 	0.6945	0.1868	0.6377	-0.028
Mof_C 	C 	0.4253	0.1886	0.884	-0.111
Mof_C 	C 	0.5654	0.1949	0.8877	-0.097
Mof_C 	C 	0.5655	0.1957	0.8058	-0.079
Mof_C 	C 	0.4227	0.1915	0.803	-0.09
Mof_N 	N 	0.8426	0.1914	0.8503	-0.333
Mof_N 	N 	0.9966	0.1894	0.756	-0.284
Mof_N 	N 	0.1644	0.1865	0.8407	-0.358
Mof_N 	N 	0.0116	0.1793	0.9362	-0.314
Mof_N 	N 	0.3199	0.1865	0.6731	-0.314
Mof_N 	N 	0.3805	0.1822	0.5495	-0.289
Mof_N 	N 	0.1732	0.1907	0.5128	-0.364
Mof_N 	N 	0.101	0.1981	0.6379	-0.304
Mof_N 	N 	0.886	0.187	0.638	-0.28
Mof_N 	N 	0.8416	0.1845	0.5156	-0.208
Mof_N 	N 	0.619	0.1824	0.5367	-0.258
Mof_N 	N 	0.6646	0.1882	0.6651	-0.195
Mof_N 	N 	0.3815	0.1886	0.9074	-0.214
Mof_N 	N 	0.5996	0.1973	0.9127	-0.375
Mof_N 	N 	0.6084	0.2016	0.782	-0.193
Mof_N 	N 	0.3777	0.1911	0.7813	-0.423
Mof_O 	O 	0.7091	0.1931	0.2339	-0.683
Mof_K 	K 	0.31064	0.61518	0.23373	1.904
Mof_Nd	Nd	0.49386	0.69186	0.68202	1.073
Mof_Nd	Nd	0.49277	0.68105	0.00988	0.952
Mof_Pt	Pt	0.50291	0.68556	0.84628	0.074
Mof_Pt	Pt	0.74205	0.68834	0.59474	0.063
Mof_Pt	Pt	0.25065	0.68638	0.58943	0.077
Mof_Pt	Pt	0.99478	0.69235	0.84495	0.177
Mof_C 	C 	0.4018	0.6851	0.8484	-0.047
Mof_C 	C 	0.4989	0.688	0.7892	-0.024
Mof_C 	C 	0.6055	0.6878	0.8442	-0.056
Mof_C 	C 	0.5076	0.6813	0.903	-0.045
Mof_C 	C 	0.7895	0.6895	0.6451	-0.035
Mof_C 	C 	0.8323	0.6822	0.5667	-0.031
Mof_C 	C 	0.6966	0.6881	0.5439	-0.093
Mof_C 	C 	0.652	0.6951	0.6212	-0.05
Mof_C 	C 	0.3367	0.687	0.6213	-0.009
Mof_C 	C 	0.3101	0.6862	0.5425	-0.033
Mof_C 	C 	0.1687	0.6846	0.5574	-0.037
Mof_C 	C 	0.1945	0.6868	0.6377	-0.031
Mof_C 	C 	0.9253	0.6886	0.884	-0.118
Mof_C 	C 	0.0654	0.6949	0.8877	-0.143
Mof_C 	C 	0.0655	0.6957	0.8058	-0.127
Mof_C 	C 	0.9227	0.6915	0.803	-0.094
Mof_N 	N 	0.3426	0.6914	0.8503	-0.324
Mof_N 	N 	0.4966	0.6894	0.756	-0.275
Mof_N 	N 	0.6644	0.6865	0.8407	-0.355
Mof_N 	N 	0.5116	0.6793	0.9362	-0.287
Mof_N 	N 	0.8199	0.6865	0.6731	-0.314
Mof_N 	N 	0.8805	0.6822	0.5495	-0.293
Mof_N 	N 	0.6732	0.6907	0.5128	-0.367
Mof_N 	N 	0.601	0.6981	0.6379	-0.286
Mof_N 	N 	0.386	0.687	0.638	-0.279
Mof_N 	N 	0.3416	0.6845	0.5156	-0.218
Mof_N 	N 	0.119	0.6824	0.5367	-0.277
Mof_N 	N 	0.1646	0.6882	0.6651	-0.199
Mof_N 	N 	0.8815	0.6886	0.9074	-0.207
Mof_N 	N 	0.0996	0.6973	0.9127	-0.361
Mof_N 	N 	0.1084	0.7016	0.782	-0.186
Mof_N 	N 	0.8777	0.6911	0.7813	-0.422
Mof_O 	O 	0.2091	0.6931	0.2339	-0.688
Mof_K 	K 	0.31064	0.11518	0.73373	1.867
Mof_Nd	Nd	0.49386	0.19186	0.18202	1.068
Mof_Nd	Nd	0.49277	0.18105	0.50988	0.904
Mof_Pt	Pt	0.50291	0.18556	0.34628	0.077
Mof_Pt	Pt	0.74205	0.18834	0.09474	0.066
Mof_Pt	Pt	0.25065	0.18638	0.08943	0.08
Mof_Pt	Pt	0.99478	0.19235	0.34495	0.183
Mof_C 	C 	0.4018	0.1851	0.3484	-0.046
Mof_C 	C 	0.4989	0.188	0.2892	-0.024
Mof_C 	C 	0.6055	0.1878	0.3442	-0.055
Mof_C 	C 	0.5076	0.1813	0.403	-0.044
Mof_C 	C 	0.7895	0.1895	0.1451	-0.034
Mof_C 	C 	0.8323	0.1822	0.0667	-0.026
Mof_C 	C 	0.6966	0.1881	0.0439	-0.088
Mof_C 	C 	0.652	0.1951	0.1212	-0.048
Mof_C 	C 	0.3367	0.187	0.1213	-0.007
Mof_C 	C 	0.3101	0.1862	0.0425	-0.028
Mof_C 	C 	0.1687	0.1846	0.0574	-0.034
Mof_C 	C 	0.1945	0.1868	0.1377	-0.03
Mof_C 	C 	0.9253	0.1886	0.384	-0.119
Mof_C 	C 	0.0654	0.1949	0.3877	-0.147
Mof_C 	C 	0.0655	0.1957	0.3058	-0.129
Mof_C 	C 	0.9227	0.1915	0.303	-0.093
Mof_N 	N 	0.3426	0.1914	0.3503	-0.325
Mof_N 	N 	0.4966	0.1894	0.256	-0.275
Mof_N 	N 	0.6644	0.1865	0.3407	-0.355
Mof_N 	N 	0.5116	0.1793	0.4362	-0.277
Mof_N 	N 	0.8199	0.1865	0.1731	-0.311
Mof_N 	N 	0.8805	0.1822	0.0495	-0.293
Mof_N 	N 	0.6732	0.1907	0.0128	-0.353
Mof_N 	N 	0.601	0.1981	0.1379	-0.285
Mof_N 	N 	0.386	0.187	0.138	-0.279
Mof_N 	N 	0.3416	0.1845	0.0156	-0.208
Mof_N 	N 	0.119	0.1824	0.0367	-0.277
Mof_N 	N 	0.1646	0.1882	0.1651	-0.197
Mof_N 	N 	0.8815	0.1886	0.4074	-0.203
Mof_N 	N 	0.0996	0.1973	0.4127	-0.364
Mof_N 	N 	0.1084	0.2016	0.282	-0.185
Mof_N 	N 	0.8777	0.1911	0.2813	-0.42
Mof_O 	O 	0.2091	0.1931	0.7339	-0.685
Mof_K 	K 	0.68936	0.88482	0.73373	1.975
Mof_Nd	Nd	0.50614	0.80814	0.18202	1.08
Mof_Nd	Nd	0.50723	0.81895	0.50988	0.922
Mof_Pt	Pt	0.49709	0.81444	0.34628	0.073
Mof_Pt	Pt	0.25795	0.81166	0.09474	0.063
Mof_Pt	Pt	0.74935	0.81362	0.08943	0.081
Mof_Pt	Pt	0.00522	0.80765	0.34495	-0.004
Mof_C 	C 	0.5982	0.8149	0.3484	-0.047
Mof_C 	C 	0.5011	0.812	0.2892	-0.025
Mof_C 	C 	0.3945	0.8122	0.3442	-0.055
Mof_C 	C 	0.4924	0.8187	0.403	-0.044
Mof_C 	C 	0.2105	0.8105	0.1451	-0.038
Mof_C 	C 	0.1677	0.8178	0.0667	-0.034
Mof_C 	C 	0.3034	0.8119	0.0439	-0.087
Mof_C 	C 	0.348	0.8049	0.1212	-0.048
Mof_C 	C 	0.6633	0.813	0.1213	-0.009
Mof_C 	C 	0.6899	0.8138	0.0425	-0.028
Mof_C 	C 	0.8313	0.8154	0.0574	-0.026
Mof_C 	C 	0.8055	0.8132	0.1377	-0.025
Mof_C 	C 	0.0747	0.8114	0.384	-0.108
Mof_C 	C 	0.9346	0.8051	0.3877	-0.054
Mof_C 	C 	0.9345	0.8043	0.3058	-0.033
Mof_C 	C 	0.0773	0.8085	0.303	-0.089
Mof_N 	N 	0.6574	0.8086	0.3503	-0.326
Mof_N 	N 	0.5034	0.8106	0.256	-0.275
Mof_N 	N 	0.3356	0.8135	0.3407	-0.354
Mof_N 	N 	0.4884	0.8207	0.4362	-0.277
Mof_N 	N 	0.1801	0.8135	0.1731	-0.323
Mof_N 	N 	0.1195	0.8178	0.0495	-0.285
Mof_N 	N 	0.3268	0.8093	0.0128	-0.355
Mof_N 	N 	0.399	0.8019	0.1379	-0.285
Mof_N 	N 	0.614	0.813	0.138	-0.278
Mof_N 	N 	0.6584	0.8155	0.0156	-0.209
Mof_N 	N 	0.881	0.8176	0.0367	-0.239
Mof_N 	N 	0.8354	0.8118	0.1651	-0.192
Mof_N 	N 	0.1185	0.8114	0.4074	-0.223
Mof_N 	N 	0.9004	0.8027	0.4127	-0.394
Mof_N 	N 	0.8916	0.7984	0.282	-0.202
Mof_N 	N 	0.1223	0.8089	0.2813	-0.434
Mof_O 	O 	0.7909	0.8069	0.7339	-0.679
Mof_K 	K 	0.68936	0.38482	0.23373	1.914
Mof_Nd	Nd	0.50614	0.30814	0.68202	1.074
Mof_Nd	Nd	0.50723	0.31895	0.00988	0.954
Mof_Pt	Pt	0.49709	0.31444	0.84628	0.074
Mof_Pt	Pt	0.25795	0.31166	0.59474	0.063
Mof_Pt	Pt	0.74935	0.31362	0.58943	0.082
Mof_Pt	Pt	0.00522	0.30765	0.84495	-0.005
Mof_C 	C 	0.5982	0.3149	0.8484	-0.047
Mof_C 	C 	0.5011	0.312	0.7892	-0.024
Mof_C 	C 	0.3945	0.3122	0.8442	-0.055
Mof_C 	C 	0.4924	0.3187	0.903	-0.045
Mof_C 	C 	0.2105	0.3105	0.6451	-0.038
Mof_C 	C 	0.1677	0.3178	0.5667	-0.038
Mof_C 	C 	0.3034	0.3119	0.5439	-0.092
Mof_C 	C 	0.348	0.3049	0.6212	-0.049
Mof_C 	C 	0.6633	0.313	0.6213	-0.01
Mof_C 	C 	0.6899	0.3138	0.5425	-0.031
Mof_C 	C 	0.8313	0.3154	0.5574	-0.029
Mof_C 	C 	0.8055	0.3132	0.6377	-0.025
Mof_C 	C 	0.0747	0.3114	0.884	-0.105
Mof_C 	C 	0.9346	0.3051	0.8877	-0.05
Mof_C 	C 	0.9345	0.3043	0.8058	-0.031
Mof_C 	C 	0.0773	0.3085	0.803	-0.088
Mof_N 	N 	0.6574	0.3086	0.8503	-0.324
Mof_N 	N 	0.5034	0.3106	0.756	-0.275
Mof_N 	N 	0.3356	0.3135	0.8407	-0.354
Mof_N 	N 	0.4884	0.3207	0.9362	-0.287
Mof_N 	N 	0.1801	0.3135	0.6731	-0.321
Mof_N 	N 	0.1195	0.3178	0.5495	-0.285
Mof_N 	N 	0.3268	0.3093	0.5128	-0.367
Mof_N 	N 	0.399	0.3019	0.6379	-0.286
Mof_N 	N 	0.614	0.313	0.638	-0.279
Mof_N 	N 	0.6584	0.3155	0.5156	-0.217
Mof_N 	N 	0.881	0.3176	0.5367	-0.239
Mof_N 	N 	0.8354	0.3118	0.6651	-0.193
Mof_N 	N 	0.1185	0.3114	0.9074	-0.224
Mof_N 	N 	0.9004	0.3027	0.9127	-0.39
Mof_N 	N 	0.8916	0.2984	0.782	-0.201
Mof_N 	N 	0.1223	0.3089	0.7813	-0.431
Mof_O 	O 	0.7909	0.3069	0.2339	-0.675
Mof_K 	K 	0.18936	0.88482	0.23373	1.957
Mof_Nd	Nd	0.00614	0.80814	0.68202	1.003
Mof_Nd	Nd	0.00723	0.81895	0.00988	0.879
Mof_Pt	Pt	0.99709	0.81444	0.84628	0.161
Mof_Pt	Pt	0.75795	0.81166	0.59474	0.064
Mof_Pt	Pt	0.24935	0.81362	0.58943	0.076
Mof_Pt	Pt	0.50522	0.80765	0.84495	0.084
Mof_C 	C 	0.0982	0.8149	0.8484	-0.088
Mof_C 	C 	0.0011	0.812	0.7892	-0.079
Mof_C 	C 	0.8945	0.8122	0.8442	-0.066
Mof_C 	C 	0.9924	0.8187	0.903	-0.043
Mof_C 	C 	0.7105	0.8105	0.6451	-0.036
Mof_C 	C 	0.6677	0.8178	0.5667	-0.035
Mof_C 	C 	0.8034	0.8119	0.5439	-0.092
Mof_C 	C 	0.848	0.8049	0.6212	-0.047
Mof_C 	C 	0.1633	0.813	0.6213	-0.013
Mof_C 	C 	0.1899	0.8138	0.5425	-0.035
Mof_C 	C 	0.3313	0.8154	0.5574	-0.033
Mof_C 	C 	0.3055	0.8132	0.6377	-0.027
Mof_C 	C 	0.5747	0.8114	0.884	-0.113
Mof_C 	C 	0.4346	0.8051	0.8877	-0.098
Mof_C 	C 	0.4345	0.8043	0.8058	-0.08
Mof_C 	C 	0.5773	0.8085	0.803	-0.091
Mof_N 	N 	0.1574	0.8086	0.8503	-0.315
Mof_N 	N 	0.0034	0.8106	0.756	-0.267
Mof_N 	N 	0.8356	0.8135	0.8407	-0.351
Mof_N 	N 	0.9884	0.8207	0.9362	-0.261
Mof_N 	N 	0.6801	0.8135	0.6731	-0.32
Mof_N 	N 	0.6195	0.8178	0.5495	-0.288
Mof_N 	N 	0.8268	0.8093	0.5128	-0.378
Mof_N 	N 	0.899	0.8019	0.6379	-0.267
Mof_N 	N 	0.114	0.813	0.638	-0.277
Mof_N 	N 	0.1584	0.8155	0.5156	-0.226
Mof_N 	N 	0.381	0.8176	0.5367	-0.259
Mof_N 	N 	0.3354	0.8118	0.6651	-0.195
Mof_N 	N 	0.6185	0.8114	0.9074	-0.216
Mof_N 	N 	0.4004	0.8027	0.9127	-0.376
Mof_N 	N 	0.3916	0.7984	0.782	-0.194
Mof_N 	N 	0.6223	0.8089	0.7813	-0.43
Mof_O 	O 	0.2909	0.8069	0.2339	-0.684
Mof_K 	K 	0.18936	0.38482	0.73373	1.896
Mof_Nd	Nd	0.00614	0.30814	0.18202	0.993
Mof_Nd	Nd	0.00723	0.31895	0.50988	0.819
Mof_Pt	Pt	0.99709	0.31444	0.34628	0.169
Mof_Pt	Pt	0.75795	0.31166	0.09474	0.066
Mof_Pt	Pt	0.24935	0.31362	0.08943	0.079
Mof_Pt	Pt	0.50522	0.30765	0.34495	0.086
Mof_C 	C 	0.0982	0.3149	0.3484	-0.09
Mof_C 	C 	0.0011	0.312	0.2892	-0.082
Mof_C 	C 	0.8945	0.3122	0.3442	-0.065
Mof_C 	C 	0.9924	0.3187	0.403	-0.042
Mof_C 	C 	0.7105	0.3105	0.1451	-0.037
Mof_C 	C 	0.6677	0.3178	0.0667	-0.034
Mof_C 	C 	0.8034	0.3119	0.0439	-0.087
Mof_C 	C 	0.848	0.3049	0.1212	-0.046
Mof_C 	C 	0.1633	0.313	0.1213	-0.013
Mof_C 	C 	0.1899	0.3138	0.0425	-0.032
Mof_C 	C 	0.3313	0.3154	0.0574	-0.031
Mof_C 	C 	0.3055	0.3132	0.1377	-0.028
Mof_C 	C 	0.5747	0.3114	0.384	-0.112
Mof_C 	C 	0.4346	0.3051	0.3877	-0.098
Mof_C 	C 	0.4345	0.3043	0.3058	-0.081
Mof_C 	C 	0.5773	0.3085	0.303	-0.092
Mof_N 	N 	0.1574	0.3086	0.3503	-0.315
Mof_N 	N 	0.0034	0.3106	0.256	-0.267
Mof_N 	N 	0.8356	0.3135	0.3407	-0.35
Mof_N 	N 	0.9884	0.3207	0.4362	-0.249
Mof_N 	N 	0.6801	0.3135	0.1731	-0.318
Mof_N 	N 	0.6195	0.3178	0.0495	-0.29
Mof_N 	N 	0.8268	0.3093	0.0128	-0.36
Mof_N 	N 	0.899	0.3019	0.1379	-0.266
Mof_N 	N 	0.114	0.313	0.138	-0.277
Mof_N 	N 	0.1584	0.3155	0.0156	-0.217
Mof_N 	N 	0.381	0.3176	0.0367	-0.258
Mof_N 	N 	0.3354	0.3118	0.1651	-0.197
Mof_N 	N 	0.6185	0.3114	0.4074	-0.212
Mof_N 	N 	0.4004	0.3027	0.4127	-0.376
Mof_N 	N 	0.3916	0.2984	0.282	-0.194
Mof_N 	N 	0.6223	0.3089	0.2813	-0.427
Mof_O 	O 	0.2909	0.3069	0.7339	-0.68
Mof_K 	K 	0.5	0.5	0.14436	1.769
Mof_K 	K 	0.5	0.5	0.54515	2.255
Mof_K 	K 	0.5	0	0.64436	1.599
Mof_K 	K 	0.5	0	0.04515	2.124
Mof_K 	K 	-2.91148e-32	0.5	0.64436	1.634
Mof_K 	K 	-1.09046e-33	0.5	0.04515	2.167
Mof_K 	K 	9.67488e-34	2.78611e-33	0.14436	1.464
Mof_K 	K 	3.65355e-33	5.57221e-33	0.54515	1.844
Mof_K 	K 	0.75	0.75	0.39436	1.772
Mof_K 	K 	0.75	0.75	0.79515	2.25
Mof_K 	K 	0.75	0.25	0.89436	1.745
Mof_K 	K 	0.75	0.25	0.29515	2.265
Mof_K 	K 	0.25	0.75	0.89436	1.744
Mof_K 	K 	0.25	0.75	0.29515	2.239
Mof_K 	K 	0.25	0.25	0.39436	1.756
Mof_K 	K 	0.25	0.25	0.79515	2.249
_end
