data_functionalizedCrystal
_audit_creation_method	'EQeq! by Chris Wilmer'
_symmetry_space_group_name_H-M	'P1'
_symmetry_Int_Tables_number	1
_symmetry_cell_setting	triclinic
loop_
_symmetry_equiv_pos_as_xyz
  x,y,z
_cell_length_a	26.852
_cell_length_b	26.852
_cell_length_c	26.852
_cell_angle_alpha	109.471
_cell_angle_beta	109.471
_cell_angle_gamma	109.471
loop_
_atom_site_label
_atom_site_type_symbol
_atom_site_fract_x
_atom_site_fract_y
_atom_site_fract_z
_atom_site_charge
Mof_K 	K 	0.68884	0	0.31116	4.307
Mof_K 	K 	0.68884	0.37768	0.68884	4.808
Mof_K 	K 	0.31116	6.10223e-17	0.68884	4.307
Mof_K 	K 	0.31116	0.62232	0.31116	4.814
Mof_K 	K 	0.68884	0.31116	-0	4.307
Mof_K 	K 	0.31116	0.31116	0.62232	4.814
Mof_K 	K 	0.31116	0.68884	-0	4.307
Mof_K 	K 	0.68884	0.68884	0.37768	4.808
Mof_K 	K 	0.37768	0.68884	0.68884	4.808
Mof_K 	K 	6.10223e-17	0.31116	0.68884	4.307
Mof_K 	K 	0.62232	0.31116	0.31116	4.814
Mof_K 	K 	2.28834e-17	0.68884	0.31116	4.307
Mof_H 	H 	0.4643	0.9111	0.1286	0.002
Mof_H 	H 	0.5336	0.9126	0.2332	0.281
Mof_H 	H 	0.5723	0.999	0.2059	-0.073
Mof_H 	H 	0.631	0.0427	0.3333	-0.302
Mof_H 	H 	0.5367	0.015	0.2909	0.056
Mof_H 	H 	0.5503	0.0918	0.2311	-0.015
Mof_H 	H 	0.4323	0.0149	0.2196	0.043
Mof_H 	H 	0.4818	0.0714	0.131	0.126
Mof_H 	H 	0.4315	0.0962	0.2073	0.008
Mof_H 	H 	0.3937	0.0388	0.1397	-0.015
Mof_H 	H 	0.6026	0.1753	0.3041	-0.1
Mof_H 	H 	0.6349	0.1337	0.3682	0.154
Mof_H 	H 	0.65	0.2454	0.3964	-0.05
Mof_H 	H 	0.6187	0.2769	0.5098	-0.047
Mof_H 	H 	0.5584	0.1749	0.4167	0.029
Mof_H 	H 	0.584	0.2873	0.4159	-0.026
Mof_H 	H 	0.4776	0.1746	0.3252	0.048
Mof_H 	H 	0.5042	0.3255	0.3267	0.241
Mof_H 	H 	0.4613	0.2257	0.2754	-0.083
Mof_H 	H 	0.46	0.2526	0.3374	-0.037
Mof_H 	H 	0.7825	0.3357	0.8714	0.001
Mof_H 	H 	0.6794	0.3004	0.7668	0.282
Mof_H 	H 	0.7931	0.3664	0.7941	-0.078
Mof_H 	H 	0.7094	0.2977	0.6667	-0.325
Mof_H 	H 	0.7241	0.2458	0.7091	0.048
Mof_H 	H 	0.8607	0.3192	0.7689	0.012
Mof_H 	H 	0.7953	0.2127	0.7804	0.041
Mof_H 	H 	0.9404	0.3508	0.869	0.17
Mof_H 	H 	0.8889	0.2242	0.7927	0.045
Mof_H 	H 	0.8991	0.254	0.8603	0.057
Mof_H 	H 	0.8712	0.2985	0.6959	-0.08
Mof_H 	H 	0.7655	0.2667	0.6318	0.154
Mof_H 	H 	0.849	0.2536	0.6036	-0.032
Mof_H 	H 	0.7671	0.1089	0.4902	-0.025
Mof_H 	H 	0.7582	0.1417	0.5833	0.026
Mof_H 	H 	0.8714	0.1681	0.5841	-0.012
Mof_H 	H 	0.8494	0.1524	0.6748	0.048
Mof_H 	H 	0.9988	0.1775	0.6733	0.266
Mof_H 	H 	0.9503	0.1859	0.7246	-0.042
Mof_H 	H 	0.9152	0.1226	0.6626	-0.02
Mof_H 	H 	0.2175	0.0889	0.5532	-0.021
Mof_H 	H 	0.3206	0.0874	0.621	0.25
Mof_H 	H 	0.2069	0.001	0.5733	-0.064
Mof_H 	H 	0.2906	0.9573	0.5883	-0.242
Mof_H 	H 	0.2759	0.985	0.5217	0.045
Mof_H 	H 	0.1393	0.9082	0.4585	0.02
Mof_H 	H 	0.2047	0.9851	0.4174	0.047
Mof_H 	H 	0.0596	0.9286	0.4104	0.157
Mof_H 	H 	0.1111	0.9038	0.3353	0.034
Mof_H 	H 	0.1009	0.9612	0.3549	0.05
Mof_H 	H 	0.1288	0.8247	0.4273	-0.092
Mof_H 	H 	0.2345	0.8663	0.5012	0.161
Mof_H 	H 	0.151	0.7546	0.4046	-0.04
Mof_H 	H 	0.2329	0.7231	0.3418	-0.048
Mof_H 	H 	0.2418	0.8251	0.3835	0.044
Mof_H 	H 	0.1286	0.7127	0.2967	-0.02
Mof_H 	H 	0.1506	0.8254	0.303	0.058
Mof_H 	H 	0.0012	0.6745	0.1787	0.205
Mof_H 	H 	0.0497	0.7743	0.2356	-0.091
Mof_H 	H 	0.0848	0.7474	0.2074	-0.039
Mof_H 	H 	0.5357	0.6643	0.4468	-0.005
Mof_H 	H 	0.4664	0.6996	0.379	0.286
Mof_H 	H 	0.4277	0.6336	0.4267	-0.082
Mof_H 	H 	0.369	0.7023	0.4117	-0.322
Mof_H 	H 	0.4633	0.7542	0.4783	0.057
Mof_H 	H 	0.4497	0.6808	0.5415	0.002
Mof_H 	H 	0.5677	0.7873	0.5826	0.054
Mof_H 	H 	0.5182	0.6492	0.5896	0.152
Mof_H 	H 	0.5685	0.7758	0.6647	0.041
Mof_H 	H 	0.6063	0.746	0.6451	0.045
Mof_H 	H 	0.3974	0.7015	0.5727	-0.098
Mof_H 	H 	0.3651	0.7333	0.4988	0.156
Mof_H 	H 	0.35	0.7464	0.5954	-0.051
Mof_H 	H 	0.3813	0.8911	0.6582	-0.038
Mof_H 	H 	0.4416	0.8583	0.6165	0.047
Mof_H 	H 	0.416	0.8319	0.7033	-0.025
Mof_H 	H 	0.5224	0.8476	0.697	0.062
Mof_H 	H 	0.4958	0.8225	0.8213	0.247
Mof_H 	H 	0.5387	0.8141	0.7644	-0.062
Mof_H 	H 	0.54	0.8774	0.7926	-0.009
Mof_H 	H 	0.5532	0.2175	0.0889	-0.021
Mof_H 	H 	0.621	0.3206	0.0874	0.25
Mof_H 	H 	0.5733	0.2069	0.001	-0.064
Mof_H 	H 	0.5883	0.2906	0.9573	-0.242
Mof_H 	H 	0.5217	0.2759	0.985	0.045
Mof_H 	H 	0.4585	0.1393	0.9082	0.02
Mof_H 	H 	0.4174	0.2047	0.9851	0.047
Mof_H 	H 	0.4104	0.0596	0.9286	0.157
Mof_H 	H 	0.3353	0.1111	0.9038	0.034
Mof_H 	H 	0.3549	0.1009	0.9612	0.05
Mof_H 	H 	0.4273	0.1288	0.8247	-0.092
Mof_H 	H 	0.5012	0.2345	0.8663	0.161
Mof_H 	H 	0.4046	0.151	0.7546	-0.04
Mof_H 	H 	0.3418	0.2329	0.7231	-0.048
Mof_H 	H 	0.3835	0.2418	0.8251	0.044
Mof_H 	H 	0.2967	0.1286	0.7127	-0.02
Mof_H 	H 	0.303	0.1506	0.8254	0.058
Mof_H 	H 	0.1787	0.0012	0.6745	0.205
Mof_H 	H 	0.2356	0.0497	0.7743	-0.091
Mof_H 	H 	0.2074	0.0848	0.7474	-0.039
Mof_H 	H 	0.4468	0.5357	0.6643	-0.005
Mof_H 	H 	0.379	0.4664	0.6996	0.286
Mof_H 	H 	0.4267	0.4277	0.6336	-0.082
Mof_H 	H 	0.4117	0.369	0.7023	-0.322
Mof_H 	H 	0.4783	0.4633	0.7542	0.057
Mof_H 	H 	0.5415	0.4497	0.6808	0.002
Mof_H 	H 	0.5826	0.5677	0.7873	0.054
Mof_H 	H 	0.5896	0.5182	0.6492	0.152
Mof_H 	H 	0.6647	0.5685	0.7758	0.041
Mof_H 	H 	0.6451	0.6063	0.746	0.045
Mof_H 	H 	0.5727	0.3974	0.7015	-0.098
Mof_H 	H 	0.4988	0.3651	0.7333	0.156
Mof_H 	H 	0.5954	0.35	0.7464	-0.051
Mof_H 	H 	0.6582	0.3813	0.8911	-0.038
Mof_H 	H 	0.6165	0.4416	0.8583	0.047
Mof_H 	H 	0.7033	0.416	0.8319	-0.025
Mof_H 	H 	0.697	0.5224	0.8476	0.062
Mof_H 	H 	0.8213	0.4958	0.8225	0.247
Mof_H 	H 	0.7644	0.5387	0.8141	-0.062
Mof_H 	H 	0.7926	0.54	0.8774	-0.009
Mof_H 	H 	0.1286	0.4643	0.9111	0.003
Mof_H 	H 	0.2332	0.5336	0.9126	0.282
Mof_H 	H 	0.2059	0.5723	0.999	-0.072
Mof_H 	H 	0.3333	0.631	0.0427	-0.301
Mof_H 	H 	0.2909	0.5367	0.015	0.057
Mof_H 	H 	0.2311	0.5503	0.0918	-0.014
Mof_H 	H 	0.2196	0.4323	0.0149	0.044
Mof_H 	H 	0.131	0.4818	0.0714	0.127
Mof_H 	H 	0.2073	0.4315	0.0962	0.009
Mof_H 	H 	0.1397	0.3937	0.0388	-0.014
Mof_H 	H 	0.3041	0.6026	0.1753	-0.099
Mof_H 	H 	0.3682	0.6349	0.1337	0.155
Mof_H 	H 	0.3964	0.65	0.2454	-0.049
Mof_H 	H 	0.5098	0.6187	0.2769	-0.046
Mof_H 	H 	0.4167	0.5584	0.1749	0.03
Mof_H 	H 	0.4159	0.584	0.2873	-0.025
Mof_H 	H 	0.3252	0.4776	0.1746	0.049
Mof_H 	H 	0.3267	0.5042	0.3255	0.242
Mof_H 	H 	0.2754	0.4613	0.2257	-0.082
Mof_H 	H 	0.3374	0.46	0.2526	-0.036
Mof_H 	H 	0.8714	0.7825	0.3357	0.002
Mof_H 	H 	0.7668	0.6794	0.3004	0.283
Mof_H 	H 	0.7941	0.7931	0.3664	-0.077
Mof_H 	H 	0.6667	0.7094	0.2977	-0.324
Mof_H 	H 	0.7091	0.7241	0.2458	0.049
Mof_H 	H 	0.7689	0.8607	0.3192	0.013
Mof_H 	H 	0.7804	0.7953	0.2127	0.042
Mof_H 	H 	0.869	0.9404	0.3508	0.171
Mof_H 	H 	0.7927	0.8889	0.2242	0.046
Mof_H 	H 	0.8603	0.8991	0.254	0.058
Mof_H 	H 	0.6959	0.8712	0.2985	-0.079
Mof_H 	H 	0.6318	0.7655	0.2667	0.155
Mof_H 	H 	0.6036	0.849	0.2536	-0.031
Mof_H 	H 	0.4902	0.7671	0.1089	-0.024
Mof_H 	H 	0.5833	0.7582	0.1417	0.027
Mof_H 	H 	0.5841	0.8714	0.1681	-0.011
Mof_H 	H 	0.6748	0.8494	0.1524	0.048
Mof_H 	H 	0.6733	0.9988	0.1775	0.266
Mof_H 	H 	0.7246	0.9503	0.1859	-0.042
Mof_H 	H 	0.6626	0.9152	0.1226	-0.02
Mof_H 	H 	0.3357	0.8714	0.7825	0.002
Mof_H 	H 	0.3004	0.7668	0.6794	0.283
Mof_H 	H 	0.3664	0.7941	0.7931	-0.077
Mof_H 	H 	0.2977	0.6667	0.7094	-0.324
Mof_H 	H 	0.2458	0.7091	0.7241	0.049
Mof_H 	H 	0.3192	0.7689	0.8607	0.013
Mof_H 	H 	0.2127	0.7804	0.7953	0.042
Mof_H 	H 	0.3508	0.869	0.9404	0.171
Mof_H 	H 	0.2242	0.7927	0.8889	0.046
Mof_H 	H 	0.254	0.8603	0.8991	0.058
Mof_H 	H 	0.2985	0.6959	0.8712	-0.079
Mof_H 	H 	0.2667	0.6318	0.7655	0.155
Mof_H 	H 	0.2536	0.6036	0.849	-0.031
Mof_H 	H 	0.1089	0.4902	0.7671	-0.024
Mof_H 	H 	0.1417	0.5833	0.7582	0.027
Mof_H 	H 	0.1681	0.5841	0.8714	-0.011
Mof_H 	H 	0.1524	0.6748	0.8494	0.048
Mof_H 	H 	0.1775	0.6733	0.9988	0.266
Mof_H 	H 	0.1859	0.7246	0.9503	-0.042
Mof_H 	H 	0.1226	0.6626	0.9152	-0.02
Mof_H 	H 	0.9111	0.1286	0.4643	0.003
Mof_H 	H 	0.9126	0.2332	0.5336	0.282
Mof_H 	H 	0.999	0.2059	0.5723	-0.072
Mof_H 	H 	0.0427	0.3333	0.631	-0.301
Mof_H 	H 	0.015	0.2909	0.5367	0.057
Mof_H 	H 	0.0918	0.2311	0.5503	-0.014
Mof_H 	H 	0.0149	0.2196	0.4323	0.044
Mof_H 	H 	0.0714	0.131	0.4818	0.127
Mof_H 	H 	0.0962	0.2073	0.4315	0.009
Mof_H 	H 	0.0388	0.1397	0.3937	-0.014
Mof_H 	H 	0.1753	0.3041	0.6026	-0.099
Mof_H 	H 	0.1337	0.3682	0.6349	0.155
Mof_H 	H 	0.2454	0.3964	0.65	-0.049
Mof_H 	H 	0.2769	0.5098	0.6187	-0.046
Mof_H 	H 	0.1749	0.4167	0.5584	0.03
Mof_H 	H 	0.2873	0.4159	0.584	-0.025
Mof_H 	H 	0.1746	0.3252	0.4776	0.049
Mof_H 	H 	0.3255	0.3267	0.5042	0.242
Mof_H 	H 	0.2257	0.2754	0.4613	-0.082
Mof_H 	H 	0.2526	0.3374	0.46	-0.036
Mof_H 	H 	0.6643	0.4468	0.5357	-0.005
Mof_H 	H 	0.6996	0.379	0.4664	0.286
Mof_H 	H 	0.6336	0.4267	0.4277	-0.082
Mof_H 	H 	0.7023	0.4117	0.369	-0.322
Mof_H 	H 	0.7542	0.4783	0.4633	0.057
Mof_H 	H 	0.6808	0.5415	0.4497	0.002
Mof_H 	H 	0.7873	0.5826	0.5677	0.054
Mof_H 	H 	0.6492	0.5896	0.5182	0.152
Mof_H 	H 	0.7758	0.6647	0.5685	0.041
Mof_H 	H 	0.746	0.6451	0.6063	0.045
Mof_H 	H 	0.7015	0.5727	0.3974	-0.098
Mof_H 	H 	0.7333	0.4988	0.3651	0.156
Mof_H 	H 	0.7464	0.5954	0.35	-0.051
Mof_H 	H 	0.8911	0.6582	0.3813	-0.038
Mof_H 	H 	0.8583	0.6165	0.4416	0.047
Mof_H 	H 	0.8319	0.7033	0.416	-0.025
Mof_H 	H 	0.8476	0.697	0.5224	0.062
Mof_H 	H 	0.8225	0.8213	0.4958	0.247
Mof_H 	H 	0.8141	0.7644	0.5387	-0.062
Mof_H 	H 	0.8774	0.7926	0.54	-0.009
Mof_H 	H 	0.0889	0.5532	0.2175	-0.021
Mof_H 	H 	0.0874	0.621	0.3206	0.25
Mof_H 	H 	0.001	0.5733	0.2069	-0.064
Mof_H 	H 	0.9573	0.5883	0.2906	-0.242
Mof_H 	H 	0.985	0.5217	0.2759	0.045
Mof_H 	H 	0.9082	0.4585	0.1393	0.02
Mof_H 	H 	0.9851	0.4174	0.2047	0.047
Mof_H 	H 	0.9286	0.4104	0.0596	0.157
Mof_H 	H 	0.9038	0.3353	0.1111	0.034
Mof_H 	H 	0.9612	0.3549	0.1009	0.05
Mof_H 	H 	0.8247	0.4273	0.1288	-0.092
Mof_H 	H 	0.8663	0.5012	0.2345	0.161
Mof_H 	H 	0.7546	0.4046	0.151	-0.04
Mof_H 	H 	0.7231	0.3418	0.2329	-0.048
Mof_H 	H 	0.8251	0.3835	0.2418	0.044
Mof_H 	H 	0.7127	0.2967	0.1286	-0.02
Mof_H 	H 	0.8254	0.303	0.1506	0.058
Mof_H 	H 	0.6745	0.1787	0.0012	0.205
Mof_H 	H 	0.7743	0.2356	0.0497	-0.091
Mof_H 	H 	0.7474	0.2074	0.0848	-0.039
Mof_H 	H 	0.0889	0.5357	0.8714	-0.013
Mof_H 	H 	0.0874	0.4664	0.7668	0.25
Mof_H 	H 	0.001	0.4277	0.7941	-0.061
Mof_H 	H 	0.9573	0.369	0.6667	-0.242
Mof_H 	H 	0.985	0.4633	0.7091	0.045
Mof_H 	H 	0.9082	0.4497	0.7689	0.024
Mof_H 	H 	0.9851	0.5677	0.7804	0.049
Mof_H 	H 	0.9286	0.5182	0.869	0.176
Mof_H 	H 	0.9038	0.5685	0.7927	0.055
Mof_H 	H 	0.9612	0.6063	0.8603	0.082
Mof_H 	H 	0.8247	0.3974	0.6959	-0.096
Mof_H 	H 	0.8663	0.3651	0.6318	0.16
Mof_H 	H 	0.7546	0.35	0.6036	-0.051
Mof_H 	H 	0.7231	0.3813	0.4902	-0.048
Mof_H 	H 	0.8251	0.4416	0.5833	0.044
Mof_H 	H 	0.7127	0.416	0.5841	-0.027
Mof_H 	H 	0.8254	0.5224	0.6748	0.061
Mof_H 	H 	0.6745	0.4958	0.6733	0.244
Mof_H 	H 	0.7743	0.5387	0.7246	-0.068
Mof_H 	H 	0.7474	0.54	0.6626	-0.023
Mof_H 	H 	0.6643	0.2175	0.1286	-0.011
Mof_H 	H 	0.6996	0.3206	0.2332	0.286
Mof_H 	H 	0.6336	0.2069	0.2059	-0.085
Mof_H 	H 	0.7023	0.2906	0.3333	-0.322
Mof_H 	H 	0.7542	0.2759	0.2909	0.057
Mof_H 	H 	0.6808	0.1393	0.2311	-0.002
Mof_H 	H 	0.7873	0.2047	0.2196	0.051
Mof_H 	H 	0.6492	0.0596	0.131	0.132
Mof_H 	H 	0.7758	0.1111	0.2073	0.021
Mof_H 	H 	0.746	0.1009	0.1397	0.012
Mof_H 	H 	0.7015	0.1288	0.3041	-0.094
Mof_H 	H 	0.7333	0.2345	0.3682	0.156
Mof_H 	H 	0.7464	0.151	0.3964	-0.039
Mof_H 	H 	0.8911	0.2329	0.5098	-0.038
Mof_H 	H 	0.8583	0.2418	0.4167	0.047
Mof_H 	H 	0.8319	0.1286	0.4159	-0.018
Mof_H 	H 	0.8476	0.1506	0.3252	0.059
Mof_H 	H 	0.8225	0.0012	0.3267	0.207
Mof_H 	H 	0.8141	0.0497	0.2754	-0.085
Mof_H 	H 	0.8774	0.0848	0.3374	-0.025
Mof_H 	H 	0.9111	0.7825	0.4468	0.009
Mof_H 	H 	0.9126	0.6794	0.379	0.282
Mof_H 	H 	0.999	0.7931	0.4267	-0.069
Mof_H 	H 	0.0427	0.7094	0.4117	-0.301
Mof_H 	H 	0.015	0.7241	0.4783	0.057
Mof_H 	H 	0.0918	0.8607	0.5415	-0.004
Mof_H 	H 	0.0149	0.7953	0.5826	0.045
Mof_H 	H 	0.0714	0.9404	0.5896	0.147
Mof_H 	H 	0.0962	0.8889	0.6647	0.033
Mof_H 	H 	0.0388	0.8991	0.6451	0.021
Mof_H 	H 	0.1753	0.8712	0.5727	-0.079
Mof_H 	H 	0.1337	0.7655	0.4988	0.155
Mof_H 	H 	0.2454	0.849	0.5954	-0.031
Mof_H 	H 	0.2769	0.7671	0.6582	-0.046
Mof_H 	H 	0.1749	0.7582	0.6165	0.03
Mof_H 	H 	0.2873	0.8714	0.7033	-0.01
Mof_H 	H 	0.1746	0.8494	0.697	0.049
Mof_H 	H 	0.3255	0.9988	0.8213	0.268
Mof_H 	H 	0.2257	0.9503	0.7644	-0.036
Mof_H 	H 	0.2526	0.9152	0.7926	-0.007
Mof_H 	H 	0.3357	0.4643	0.5532	-0.006
Mof_H 	H 	0.3004	0.5336	0.621	0.283
Mof_H 	H 	0.3664	0.5723	0.5733	-0.081
Mof_H 	H 	0.2977	0.631	0.5883	-0.324
Mof_H 	H 	0.2458	0.5367	0.5217	0.049
Mof_H 	H 	0.3192	0.5503	0.4585	0.003
Mof_H 	H 	0.2127	0.4323	0.4174	0.04
Mof_H 	H 	0.3508	0.4818	0.4104	0.151
Mof_H 	H 	0.2242	0.4315	0.3353	0.022
Mof_H 	H 	0.254	0.3937	0.3549	0.022
Mof_H 	H 	0.2985	0.6026	0.4273	-0.099
Mof_H 	H 	0.2667	0.6349	0.5012	0.155
Mof_H 	H 	0.2536	0.65	0.4046	-0.049
Mof_H 	H 	0.1089	0.6187	0.3418	-0.024
Mof_H 	H 	0.1417	0.5584	0.3835	0.027
Mof_H 	H 	0.1681	0.584	0.2967	-0.026
Mof_H 	H 	0.1524	0.4776	0.303	0.048
Mof_H 	H 	0.1775	0.5042	0.1787	0.239
Mof_H 	H 	0.1859	0.4613	0.2356	-0.088
Mof_H 	H 	0.1226	0.46	0.2074	-0.049
Mof_H 	H 	0.7825	0.4468	0.9111	0.009
Mof_H 	H 	0.6794	0.379	0.9126	0.282
Mof_H 	H 	0.7931	0.4267	0.999	-0.069
Mof_H 	H 	0.7094	0.4117	0.0427	-0.301
Mof_H 	H 	0.7241	0.4783	0.015	0.057
Mof_H 	H 	0.8607	0.5415	0.0918	-0.004
Mof_H 	H 	0.7953	0.5826	0.0149	0.045
Mof_H 	H 	0.9404	0.5896	0.0714	0.147
Mof_H 	H 	0.8889	0.6647	0.0962	0.033
Mof_H 	H 	0.8991	0.6451	0.0388	0.021
Mof_H 	H 	0.8712	0.5727	0.1753	-0.079
Mof_H 	H 	0.7655	0.4988	0.1337	0.155
Mof_H 	H 	0.849	0.5954	0.2454	-0.031
Mof_H 	H 	0.7671	0.6582	0.2769	-0.046
Mof_H 	H 	0.7582	0.6165	0.1749	0.03
Mof_H 	H 	0.8714	0.7033	0.2873	-0.01
Mof_H 	H 	0.8494	0.697	0.1746	0.049
Mof_H 	H 	0.9988	0.8213	0.3255	0.268
Mof_H 	H 	0.9503	0.7644	0.2257	-0.036
Mof_H 	H 	0.9152	0.7926	0.2526	-0.007
Mof_H 	H 	0.4643	0.5532	0.3357	-0.006
Mof_H 	H 	0.5336	0.621	0.3004	0.283
Mof_H 	H 	0.5723	0.5733	0.3664	-0.081
Mof_H 	H 	0.631	0.5883	0.2977	-0.324
Mof_H 	H 	0.5367	0.5217	0.2458	0.049
Mof_H 	H 	0.5503	0.4585	0.3192	0.003
Mof_H 	H 	0.4323	0.4174	0.2127	0.04
Mof_H 	H 	0.4818	0.4104	0.3508	0.151
Mof_H 	H 	0.4315	0.3353	0.2242	0.022
Mof_H 	H 	0.3937	0.3549	0.254	0.022
Mof_H 	H 	0.6026	0.4273	0.2985	-0.099
Mof_H 	H 	0.6349	0.5012	0.2667	0.155
Mof_H 	H 	0.65	0.4046	0.2536	-0.049
Mof_H 	H 	0.6187	0.3418	0.1089	-0.024
Mof_H 	H 	0.5584	0.3835	0.1417	0.027
Mof_H 	H 	0.584	0.2967	0.1681	-0.026
Mof_H 	H 	0.4776	0.303	0.1524	0.048
Mof_H 	H 	0.5042	0.1787	0.1775	0.239
Mof_H 	H 	0.4613	0.2356	0.1859	-0.088
Mof_H 	H 	0.46	0.2074	0.1226	-0.049
Mof_H 	H 	0.5357	0.8714	0.0889	-0.013
Mof_H 	H 	0.4664	0.7668	0.0874	0.25
Mof_H 	H 	0.4277	0.7941	0.001	-0.061
Mof_H 	H 	0.369	0.6667	0.9573	-0.242
Mof_H 	H 	0.4633	0.7091	0.985	0.045
Mof_H 	H 	0.4497	0.7689	0.9082	0.024
Mof_H 	H 	0.5677	0.7804	0.9851	0.049
Mof_H 	H 	0.5182	0.869	0.9286	0.176
Mof_H 	H 	0.5685	0.7927	0.9038	0.055
Mof_H 	H 	0.6063	0.8603	0.9612	0.082
Mof_H 	H 	0.3974	0.6959	0.8247	-0.096
Mof_H 	H 	0.3651	0.6318	0.8663	0.16
Mof_H 	H 	0.35	0.6036	0.7546	-0.051
Mof_H 	H 	0.3813	0.4902	0.7231	-0.048
Mof_H 	H 	0.4416	0.5833	0.8251	0.044
Mof_H 	H 	0.416	0.5841	0.7127	-0.027
Mof_H 	H 	0.5224	0.6748	0.8254	0.061
Mof_H 	H 	0.4958	0.6733	0.6745	0.244
Mof_H 	H 	0.5387	0.7246	0.7743	-0.068
Mof_H 	H 	0.54	0.6626	0.7474	-0.023
Mof_H 	H 	0.2175	0.1286	0.6643	-0.011
Mof_H 	H 	0.3206	0.2332	0.6996	0.286
Mof_H 	H 	0.2069	0.2059	0.6336	-0.085
Mof_H 	H 	0.2906	0.3333	0.7023	-0.322
Mof_H 	H 	0.2759	0.2909	0.7542	0.057
Mof_H 	H 	0.1393	0.2311	0.6808	-0.002
Mof_H 	H 	0.2047	0.2196	0.7873	0.051
Mof_H 	H 	0.0596	0.131	0.6492	0.132
Mof_H 	H 	0.1111	0.2073	0.7758	0.021
Mof_H 	H 	0.1009	0.1397	0.746	0.012
Mof_H 	H 	0.1288	0.3041	0.7015	-0.094
Mof_H 	H 	0.2345	0.3682	0.7333	0.156
Mof_H 	H 	0.151	0.3964	0.7464	-0.039
Mof_H 	H 	0.2329	0.5098	0.8911	-0.038
Mof_H 	H 	0.2418	0.4167	0.8583	0.047
Mof_H 	H 	0.1286	0.4159	0.8319	-0.018
Mof_H 	H 	0.1506	0.3252	0.8476	0.059
Mof_H 	H 	0.0012	0.3267	0.8225	0.207
Mof_H 	H 	0.0497	0.2754	0.8141	-0.085
Mof_H 	H 	0.0848	0.3374	0.8774	-0.025
Mof_H 	H 	0.1286	0.6643	0.2175	-0.011
Mof_H 	H 	0.2332	0.6996	0.3206	0.286
Mof_H 	H 	0.2059	0.6336	0.2069	-0.085
Mof_H 	H 	0.3333	0.7023	0.2906	-0.322
Mof_H 	H 	0.2909	0.7542	0.2759	0.057
Mof_H 	H 	0.2311	0.6808	0.1393	-0.002
Mof_H 	H 	0.2196	0.7873	0.2047	0.051
Mof_H 	H 	0.131	0.6492	0.0596	0.132
Mof_H 	H 	0.2073	0.7758	0.1111	0.021
Mof_H 	H 	0.1397	0.746	0.1009	0.012
Mof_H 	H 	0.3041	0.7015	0.1288	-0.094
Mof_H 	H 	0.3682	0.7333	0.2345	0.156
Mof_H 	H 	0.3964	0.7464	0.151	-0.039
Mof_H 	H 	0.5098	0.8911	0.2329	-0.038
Mof_H 	H 	0.4167	0.8583	0.2418	0.047
Mof_H 	H 	0.4159	0.8319	0.1286	-0.018
Mof_H 	H 	0.3252	0.8476	0.1506	0.059
Mof_H 	H 	0.3267	0.8225	0.0012	0.207
Mof_H 	H 	0.2754	0.8141	0.0497	-0.085
Mof_H 	H 	0.3374	0.8774	0.0848	-0.025
Mof_H 	H 	0.8714	0.0889	0.5357	-0.013
Mof_H 	H 	0.7668	0.0874	0.4664	0.25
Mof_H 	H 	0.7941	0.001	0.4277	-0.061
Mof_H 	H 	0.6667	0.9573	0.369	-0.242
Mof_H 	H 	0.7091	0.985	0.4633	0.045
Mof_H 	H 	0.7689	0.9082	0.4497	0.024
Mof_H 	H 	0.7804	0.9851	0.5677	0.049
Mof_H 	H 	0.869	0.9286	0.5182	0.176
Mof_H 	H 	0.7927	0.9038	0.5685	0.055
Mof_H 	H 	0.8603	0.9612	0.6063	0.082
Mof_H 	H 	0.6959	0.8247	0.3974	-0.096
Mof_H 	H 	0.6318	0.8663	0.3651	0.16
Mof_H 	H 	0.6036	0.7546	0.35	-0.051
Mof_H 	H 	0.4902	0.7231	0.3813	-0.048
Mof_H 	H 	0.5833	0.8251	0.4416	0.044
Mof_H 	H 	0.5841	0.7127	0.416	-0.027
Mof_H 	H 	0.6748	0.8254	0.5224	0.061
Mof_H 	H 	0.6733	0.6745	0.4958	0.244
Mof_H 	H 	0.7246	0.7743	0.5387	-0.068
Mof_H 	H 	0.6626	0.7474	0.54	-0.023
Mof_H 	H 	0.5532	0.3357	0.4643	-0.006
Mof_H 	H 	0.621	0.3004	0.5336	0.283
Mof_H 	H 	0.5733	0.3664	0.5723	-0.081
Mof_H 	H 	0.5883	0.2977	0.631	-0.324
Mof_H 	H 	0.5217	0.2458	0.5367	0.049
Mof_H 	H 	0.4585	0.3192	0.5503	0.003
Mof_H 	H 	0.4174	0.2127	0.4323	0.04
Mof_H 	H 	0.4104	0.3508	0.4818	0.151
Mof_H 	H 	0.3353	0.2242	0.4315	0.022
Mof_H 	H 	0.3549	0.254	0.3937	0.022
Mof_H 	H 	0.4273	0.2985	0.6026	-0.099
Mof_H 	H 	0.5012	0.2667	0.6349	0.155
Mof_H 	H 	0.4046	0.2536	0.65	-0.049
Mof_H 	H 	0.3418	0.1089	0.6187	-0.024
Mof_H 	H 	0.3835	0.1417	0.5584	0.027
Mof_H 	H 	0.2967	0.1681	0.584	-0.026
Mof_H 	H 	0.303	0.1524	0.4776	0.048
Mof_H 	H 	0.1787	0.1775	0.5042	0.239
Mof_H 	H 	0.2356	0.1859	0.4613	-0.088
Mof_H 	H 	0.2074	0.1226	0.46	-0.049
Mof_H 	H 	0.4468	0.9111	0.7825	0.009
Mof_H 	H 	0.379	0.9126	0.6794	0.282
Mof_H 	H 	0.4267	0.999	0.7931	-0.069
Mof_H 	H 	0.4117	0.0427	0.7094	-0.301
Mof_H 	H 	0.4783	0.015	0.7241	0.057
Mof_H 	H 	0.5415	0.0918	0.8607	-0.004
Mof_H 	H 	0.5826	0.0149	0.7953	0.045
Mof_H 	H 	0.5896	0.0714	0.9404	0.147
Mof_H 	H 	0.6647	0.0962	0.8889	0.033
Mof_H 	H 	0.6451	0.0388	0.8991	0.021
Mof_H 	H 	0.5727	0.1753	0.8712	-0.079
Mof_H 	H 	0.4988	0.1337	0.7655	0.155
Mof_H 	H 	0.5954	0.2454	0.849	-0.031
Mof_H 	H 	0.6582	0.2769	0.7671	-0.046
Mof_H 	H 	0.6165	0.1749	0.7582	0.03
Mof_H 	H 	0.7033	0.2873	0.8714	-0.01
Mof_H 	H 	0.697	0.1746	0.8494	0.049
Mof_H 	H 	0.8213	0.3255	0.9988	0.268
Mof_H 	H 	0.7644	0.2257	0.9503	-0.036
Mof_H 	H 	0.7926	0.2526	0.9152	-0.007
Mof_C 	C 	0.4719	0.9444	0.1661	0.161
Mof_C 	C 	0.5485	0.9812	0.2233	0.306
Mof_C 	C 	0.5585	0.0313	0.2712	-0.169
Mof_C 	C 	0.5282	0.0712	0.2482	0.121
Mof_C 	C 	0.4558	0.0308	0.201	-0.072
Mof_C 	C 	0.4347	0.0667	0.1764	0.071
Mof_C 	C 	0.5789	0.1766	0.3259	0.205
Mof_C 	C 	0.6181	0.2047	0.3848	-0.022
Mof_C 	C 	0.5885	0.2155	0.426	0.075
Mof_C 	C 	0.5535	0.245	0.4027	0.043
Mof_C 	C 	0.5114	0.2153	0.3387	-0.018
Mof_C 	C 	0.4871	0.2492	0.3205	0.261
Mof_C 	C 	0.7783	0.3058	0.8339	0.19
Mof_C 	C 	0.7579	0.3252	0.7767	0.196
Mof_C 	C 	0.7601	0.2873	0.7288	-0.055
Mof_C 	C 	0.823	0.28	0.7518	0.086
Mof_C 	C 	0.8298	0.2548	0.799	0.026
Mof_C 	C 	0.8903	0.2583	0.8236	0.009
Mof_C 	C 	0.8507	0.253	0.6741	0.196
Mof_C 	C 	0.8199	0.2333	0.6152	-0.022
Mof_C 	C 	0.7895	0.1625	0.574	0.08
Mof_C 	C 	0.8423	0.1508	0.5973	0.038
Mof_C 	C 	0.8766	0.1727	0.6613	-0.006
Mof_C 	C 	0.9287	0.1666	0.6795	0.226
Mof_C 	C 	0.2217	0.0556	0.5275	0.233
Mof_C 	C 	0.2421	0.0188	0.5673	0.055
Mof_C 	C 	0.2399	0.9687	0.5272	0.077
Mof_C 	C 	0.177	0.9288	0.457	0.059
Mof_C 	C 	0.1702	0.9692	0.425	0.1
Mof_C 	C 	0.1097	0.9333	0.368	0
Mof_C 	C 	0.1493	0.8234	0.4023	0.195
Mof_C 	C 	0.1801	0.7953	0.4134	-0.017
Mof_C 	C 	0.2105	0.7845	0.373	0.069
Mof_C 	C 	0.1577	0.755	0.3085	0.048
Mof_C 	C 	0.1234	0.7847	0.2961	-0.024
Mof_C 	C 	0.0713	0.7508	0.2379	0.258
Mof_C 	C 	0.5281	0.6942	0.4725	0.192
Mof_C 	C 	0.4515	0.6748	0.4327	0.2
Mof_C 	C 	0.4415	0.7127	0.4728	-0.06
Mof_C 	C 	0.4718	0.72	0.543	0.093
Mof_C 	C 	0.5442	0.7452	0.575	0.019
Mof_C 	C 	0.5653	0.7417	0.632	0.021
Mof_C 	C 	0.4211	0.747	0.5977	0.199
Mof_C 	C 	0.3819	0.7667	0.5866	-0.016
Mof_C 	C 	0.4115	0.8375	0.627	0.07
Mof_C 	C 	0.4465	0.8492	0.6915	0.04
Mof_C 	C 	0.4886	0.8273	0.7039	-0.009
Mof_C 	C 	0.5129	0.8334	0.7621	0.241
Mof_C 	C 	0.5275	0.2217	0.0556	0.233
Mof_C 	C 	0.5673	0.2421	0.0188	0.055
Mof_C 	C 	0.5272	0.2399	0.9687	0.077
Mof_C 	C 	0.457	0.177	0.9288	0.059
Mof_C 	C 	0.425	0.1702	0.9692	0.1
Mof_C 	C 	0.368	0.1097	0.9333	0
Mof_C 	C 	0.4023	0.1493	0.8234	0.195
Mof_C 	C 	0.4134	0.1801	0.7953	-0.017
Mof_C 	C 	0.373	0.2105	0.7845	0.069
Mof_C 	C 	0.3085	0.1577	0.755	0.048
Mof_C 	C 	0.2961	0.1234	0.7847	-0.024
Mof_C 	C 	0.2379	0.0713	0.7508	0.258
Mof_C 	C 	0.4725	0.5281	0.6942	0.192
Mof_C 	C 	0.4327	0.4515	0.6748	0.2
Mof_C 	C 	0.4728	0.4415	0.7127	-0.06
Mof_C 	C 	0.543	0.4718	0.72	0.093
Mof_C 	C 	0.575	0.5442	0.7452	0.019
Mof_C 	C 	0.632	0.5653	0.7417	0.021
Mof_C 	C 	0.5977	0.4211	0.747	0.199
Mof_C 	C 	0.5866	0.3819	0.7667	-0.016
Mof_C 	C 	0.627	0.4115	0.8375	0.07
Mof_C 	C 	0.6915	0.4465	0.8492	0.04
Mof_C 	C 	0.7039	0.4886	0.8273	-0.009
Mof_C 	C 	0.7621	0.5129	0.8334	0.241
Mof_C 	C 	0.1661	0.4719	0.9444	0.161
Mof_C 	C 	0.2233	0.5485	0.9812	0.306
Mof_C 	C 	0.2712	0.5585	0.0313	-0.169
Mof_C 	C 	0.2482	0.5282	0.0712	0.121
Mof_C 	C 	0.201	0.4558	0.0308	-0.072
Mof_C 	C 	0.1764	0.4347	0.0667	0.071
Mof_C 	C 	0.3259	0.5789	0.1766	0.205
Mof_C 	C 	0.3848	0.6181	0.2047	-0.022
Mof_C 	C 	0.426	0.5885	0.2155	0.075
Mof_C 	C 	0.4027	0.5535	0.245	0.043
Mof_C 	C 	0.3387	0.5114	0.2153	-0.018
Mof_C 	C 	0.3205	0.4871	0.2492	0.261
Mof_C 	C 	0.8339	0.7783	0.3058	0.19
Mof_C 	C 	0.7767	0.7579	0.3252	0.196
Mof_C 	C 	0.7288	0.7601	0.2873	-0.055
Mof_C 	C 	0.7518	0.823	0.28	0.086
Mof_C 	C 	0.799	0.8298	0.2548	0.026
Mof_C 	C 	0.8236	0.8903	0.2583	0.009
Mof_C 	C 	0.6741	0.8507	0.253	0.196
Mof_C 	C 	0.6152	0.8199	0.2333	-0.022
Mof_C 	C 	0.574	0.7895	0.1625	0.08
Mof_C 	C 	0.5973	0.8423	0.1508	0.038
Mof_C 	C 	0.6613	0.8766	0.1727	-0.006
Mof_C 	C 	0.6795	0.9287	0.1666	0.226
Mof_C 	C 	0.3058	0.8339	0.7783	0.19
Mof_C 	C 	0.3252	0.7767	0.7579	0.196
Mof_C 	C 	0.2873	0.7288	0.7601	-0.055
Mof_C 	C 	0.28	0.7518	0.823	0.086
Mof_C 	C 	0.2548	0.799	0.8298	0.026
Mof_C 	C 	0.2583	0.8236	0.8903	0.009
Mof_C 	C 	0.253	0.6741	0.8507	0.196
Mof_C 	C 	0.2333	0.6152	0.8199	-0.022
Mof_C 	C 	0.1625	0.574	0.7895	0.08
Mof_C 	C 	0.1508	0.5973	0.8423	0.038
Mof_C 	C 	0.1727	0.6613	0.8766	-0.006
Mof_C 	C 	0.1666	0.6795	0.9287	0.226
Mof_C 	C 	0.9444	0.1661	0.4719	0.161
Mof_C 	C 	0.9812	0.2233	0.5485	0.306
Mof_C 	C 	0.0313	0.2712	0.5585	-0.169
Mof_C 	C 	0.0712	0.2482	0.5282	0.121
Mof_C 	C 	0.0308	0.201	0.4558	-0.072
Mof_C 	C 	0.0667	0.1764	0.4347	0.071
Mof_C 	C 	0.1766	0.3259	0.5789	0.205
Mof_C 	C 	0.2047	0.3848	0.6181	-0.022
Mof_C 	C 	0.2155	0.426	0.5885	0.075
Mof_C 	C 	0.245	0.4027	0.5535	0.043
Mof_C 	C 	0.2153	0.3387	0.5114	-0.018
Mof_C 	C 	0.2492	0.3205	0.4871	0.261
Mof_C 	C 	0.6942	0.4725	0.5281	0.192
Mof_C 	C 	0.6748	0.4327	0.4515	0.2
Mof_C 	C 	0.7127	0.4728	0.4415	-0.06
Mof_C 	C 	0.72	0.543	0.4718	0.093
Mof_C 	C 	0.7452	0.575	0.5442	0.019
Mof_C 	C 	0.7417	0.632	0.5653	0.021
Mof_C 	C 	0.747	0.5977	0.4211	0.199
Mof_C 	C 	0.7667	0.5866	0.3819	-0.016
Mof_C 	C 	0.8375	0.627	0.4115	0.07
Mof_C 	C 	0.8492	0.6915	0.4465	0.04
Mof_C 	C 	0.8273	0.7039	0.4886	-0.009
Mof_C 	C 	0.8334	0.7621	0.5129	0.241
Mof_C 	C 	0.0556	0.5275	0.2217	0.233
Mof_C 	C 	0.0188	0.5673	0.2421	0.055
Mof_C 	C 	0.9687	0.5272	0.2399	0.077
Mof_C 	C 	0.9288	0.457	0.177	0.059
Mof_C 	C 	0.9692	0.425	0.1702	0.1
Mof_C 	C 	0.9333	0.368	0.1097	0
Mof_C 	C 	0.8234	0.4023	0.1493	0.195
Mof_C 	C 	0.7953	0.4134	0.1801	-0.017
Mof_C 	C 	0.7845	0.373	0.2105	0.069
Mof_C 	C 	0.755	0.3085	0.1577	0.048
Mof_C 	C 	0.7847	0.2961	0.1234	-0.024
Mof_C 	C 	0.7508	0.2379	0.0713	0.258
Mof_C 	C 	0.0556	0.5281	0.8339	0.228
Mof_C 	C 	0.0188	0.4515	0.7767	0.055
Mof_C 	C 	0.9687	0.4415	0.7288	0.078
Mof_C 	C 	0.9288	0.4718	0.7518	0.057
Mof_C 	C 	0.9692	0.5442	0.799	0.108
Mof_C 	C 	0.9333	0.5653	0.8236	-0.018
Mof_C 	C 	0.8234	0.4211	0.6741	0.194
Mof_C 	C 	0.7953	0.3819	0.6152	-0.014
Mof_C 	C 	0.7845	0.4115	0.574	0.068
Mof_C 	C 	0.755	0.4465	0.5973	0.048
Mof_C 	C 	0.7847	0.4886	0.6613	-0.018
Mof_C 	C 	0.7508	0.5129	0.6795	0.253
Mof_C 	C 	0.6942	0.2217	0.1661	0.194
Mof_C 	C 	0.6748	0.2421	0.2233	0.2
Mof_C 	C 	0.7127	0.2399	0.2712	-0.062
Mof_C 	C 	0.72	0.177	0.2482	0.096
Mof_C 	C 	0.7452	0.1702	0.201	0.01
Mof_C 	C 	0.7417	0.1097	0.1764	0.04
Mof_C 	C 	0.747	0.1493	0.3259	0.2
Mof_C 	C 	0.7667	0.1801	0.3848	-0.019
Mof_C 	C 	0.8375	0.2105	0.426	0.071
Mof_C 	C 	0.8492	0.1577	0.4027	0.04
Mof_C 	C 	0.8273	0.1234	0.3387	-0.015
Mof_C 	C 	0.8334	0.0713	0.3205	0.246
Mof_C 	C 	0.9444	0.7783	0.4725	0.16
Mof_C 	C 	0.9812	0.7579	0.4327	0.303
Mof_C 	C 	0.0313	0.7601	0.4728	-0.165
Mof_C 	C 	0.0712	0.823	0.543	0.114
Mof_C 	C 	0.0308	0.8298	0.575	-0.059
Mof_C 	C 	0.0667	0.8903	0.632	0.046
Mof_C 	C 	0.1766	0.8507	0.5977	0.198
Mof_C 	C 	0.2047	0.8199	0.5866	-0.023
Mof_C 	C 	0.2155	0.7895	0.627	0.079
Mof_C 	C 	0.245	0.8423	0.6915	0.033
Mof_C 	C 	0.2153	0.8766	0.7039	0.002
Mof_C 	C 	0.2492	0.9287	0.7621	0.215
Mof_C 	C 	0.3058	0.4719	0.5275	0.195
Mof_C 	C 	0.3252	0.5485	0.5673	0.197
Mof_C 	C 	0.2873	0.5585	0.5272	-0.057
Mof_C 	C 	0.28	0.5282	0.457	0.092
Mof_C 	C 	0.2548	0.4558	0.425	0.014
Mof_C 	C 	0.2583	0.4347	0.368	0.034
Mof_C 	C 	0.253	0.5789	0.4023	0.202
Mof_C 	C 	0.2333	0.6181	0.4134	-0.02
Mof_C 	C 	0.1625	0.5885	0.373	0.075
Mof_C 	C 	0.1508	0.5535	0.3085	0.049
Mof_C 	C 	0.1727	0.5114	0.2961	-0.025
Mof_C 	C 	0.1666	0.4871	0.2379	0.272
Mof_C 	C 	0.7783	0.4725	0.9444	0.16
Mof_C 	C 	0.7579	0.4327	0.9812	0.303
Mof_C 	C 	0.7601	0.4728	0.0313	-0.165
Mof_C 	C 	0.823	0.543	0.0712	0.114
Mof_C 	C 	0.8298	0.575	0.0308	-0.059
Mof_C 	C 	0.8903	0.632	0.0667	0.046
Mof_C 	C 	0.8507	0.5977	0.1766	0.198
Mof_C 	C 	0.8199	0.5866	0.2047	-0.023
Mof_C 	C 	0.7895	0.627	0.2155	0.079
Mof_C 	C 	0.8423	0.6915	0.245	0.033
Mof_C 	C 	0.8766	0.7039	0.2153	0.002
Mof_C 	C 	0.9287	0.7621	0.2492	0.215
Mof_C 	C 	0.4719	0.5275	0.3058	0.195
Mof_C 	C 	0.5485	0.5673	0.3252	0.197
Mof_C 	C 	0.5585	0.5272	0.2873	-0.057
Mof_C 	C 	0.5282	0.457	0.28	0.092
Mof_C 	C 	0.4558	0.425	0.2548	0.014
Mof_C 	C 	0.4347	0.368	0.2583	0.034
Mof_C 	C 	0.5789	0.4023	0.253	0.202
Mof_C 	C 	0.6181	0.4134	0.2333	-0.02
Mof_C 	C 	0.5885	0.373	0.1625	0.075
Mof_C 	C 	0.5535	0.3085	0.1508	0.049
Mof_C 	C 	0.5114	0.2961	0.1727	-0.025
Mof_C 	C 	0.4871	0.2379	0.1666	0.272
Mof_C 	C 	0.5281	0.8339	0.0556	0.228
Mof_C 	C 	0.4515	0.7767	0.0188	0.055
Mof_C 	C 	0.4415	0.7288	0.9687	0.078
Mof_C 	C 	0.4718	0.7518	0.9288	0.057
Mof_C 	C 	0.5442	0.799	0.9692	0.108
Mof_C 	C 	0.5653	0.8236	0.9333	-0.018
Mof_C 	C 	0.4211	0.6741	0.8234	0.194
Mof_C 	C 	0.3819	0.6152	0.7953	-0.014
Mof_C 	C 	0.4115	0.574	0.7845	0.068
Mof_C 	C 	0.4465	0.5973	0.755	0.048
Mof_C 	C 	0.4886	0.6613	0.7847	-0.018
Mof_C 	C 	0.5129	0.6795	0.7508	0.253
Mof_C 	C 	0.2217	0.1661	0.6942	0.194
Mof_C 	C 	0.2421	0.2233	0.6748	0.2
Mof_C 	C 	0.2399	0.2712	0.7127	-0.062
Mof_C 	C 	0.177	0.2482	0.72	0.096
Mof_C 	C 	0.1702	0.201	0.7452	0.01
Mof_C 	C 	0.1097	0.1764	0.7417	0.04
Mof_C 	C 	0.1493	0.3259	0.747	0.2
Mof_C 	C 	0.1801	0.3848	0.7667	-0.019
Mof_C 	C 	0.2105	0.426	0.8375	0.071
Mof_C 	C 	0.1577	0.4027	0.8492	0.04
Mof_C 	C 	0.1234	0.3387	0.8273	-0.015
Mof_C 	C 	0.0713	0.3205	0.8334	0.246
Mof_C 	C 	0.1661	0.6942	0.2217	0.194
Mof_C 	C 	0.2233	0.6748	0.2421	0.2
Mof_C 	C 	0.2712	0.7127	0.2399	-0.062
Mof_C 	C 	0.2482	0.72	0.177	0.096
Mof_C 	C 	0.201	0.7452	0.1702	0.01
Mof_C 	C 	0.1764	0.7417	0.1097	0.04
Mof_C 	C 	0.3259	0.747	0.1493	0.2
Mof_C 	C 	0.3848	0.7667	0.1801	-0.019
Mof_C 	C 	0.426	0.8375	0.2105	0.071
Mof_C 	C 	0.4027	0.8492	0.1577	0.04
Mof_C 	C 	0.3387	0.8273	0.1234	-0.015
Mof_C 	C 	0.3205	0.8334	0.0713	0.246
Mof_C 	C 	0.8339	0.0556	0.5281	0.228
Mof_C 	C 	0.7767	0.0188	0.4515	0.055
Mof_C 	C 	0.7288	0.9687	0.4415	0.078
Mof_C 	C 	0.7518	0.9288	0.4718	0.057
Mof_C 	C 	0.799	0.9692	0.5442	0.108
Mof_C 	C 	0.8236	0.9333	0.5653	-0.018
Mof_C 	C 	0.6741	0.8234	0.4211	0.194
Mof_C 	C 	0.6152	0.7953	0.3819	-0.014
Mof_C 	C 	0.574	0.7845	0.4115	0.068
Mof_C 	C 	0.5973	0.755	0.4465	0.048
Mof_C 	C 	0.6613	0.7847	0.4886	-0.018
Mof_C 	C 	0.6795	0.7508	0.5129	0.253
Mof_C 	C 	0.5275	0.3058	0.4719	0.195
Mof_C 	C 	0.5673	0.3252	0.5485	0.197
Mof_C 	C 	0.5272	0.2873	0.5585	-0.057
Mof_C 	C 	0.457	0.28	0.5282	0.092
Mof_C 	C 	0.425	0.2548	0.4558	0.014
Mof_C 	C 	0.368	0.2583	0.4347	0.034
Mof_C 	C 	0.4023	0.253	0.5789	0.202
Mof_C 	C 	0.4134	0.2333	0.6181	-0.02
Mof_C 	C 	0.373	0.1625	0.5885	0.075
Mof_C 	C 	0.3085	0.1508	0.5535	0.049
Mof_C 	C 	0.2961	0.1727	0.5114	-0.025
Mof_C 	C 	0.2379	0.1666	0.4871	0.272
Mof_C 	C 	0.4725	0.9444	0.7783	0.16
Mof_C 	C 	0.4327	0.9812	0.7579	0.303
Mof_C 	C 	0.4728	0.0313	0.7601	-0.165
Mof_C 	C 	0.543	0.0712	0.823	0.114
Mof_C 	C 	0.575	0.0308	0.8298	-0.059
Mof_C 	C 	0.632	0.0667	0.8903	0.046
Mof_C 	C 	0.5977	0.1766	0.8507	0.198
Mof_C 	C 	0.5866	0.2047	0.8199	-0.023
Mof_C 	C 	0.627	0.2155	0.7895	0.079
Mof_C 	C 	0.6915	0.245	0.8423	0.033
Mof_C 	C 	0.7039	0.2153	0.8766	0.002
Mof_C 	C 	0.7621	0.2492	0.9287	0.215
Mof_O 	O 	0.4549	0.9801	0.1524	-0.158
Mof_O 	O 	0.5642	0.9417	0.2299	-0.724
Mof_O 	O 	0.6197	0.0655	0.3142	-0.277
Mof_O 	O 	0.53418	0.11558	0.302	-0.229
Mof_O 	O 	0.477	0.1002	0.1602	-0.32
Mof_O 	O 	0.54479	0.20749	0.3083	-0.568
Mof_O 	O 	0.6497	0.1724	0.4039	-0.235
Mof_O 	O 	0.631	0.2499	0.4889	-0.206
Mof_O 	O 	0.44215	0.91905	0.1923	-0.199
Mof_O 	O 	0.5261	0.3041	0.3362	-0.725
Mof_O 	O 	0.8277	0.3025	0.8476	-0.22
Mof_O 	O 	0.7118	0.3343	0.7701	-0.76
Mof_O 	O 	0.7513	0.3055	0.6858	-0.299
Mof_O 	O 	0.81358	0.23218	0.698	-0.22
Mof_O 	O 	0.94	0.3168	0.8398	-0.265
Mof_O 	O 	0.89919	0.23649	0.6917	-0.511
Mof_O 	O 	0.7685	0.2458	0.5961	-0.234
Mof_O 	O 	0.761	0.1421	0.5111	-0.215
Mof_O 	O 	0.72675	0.24985	0.8077	-0.225
Mof_O 	O 	0.9679	0.1899	0.6638	-0.657
Mof_O 	O 	0.1723	0.0199	0.4748	-0.313
Mof_O 	O 	0.2882	0.0583	0.6225	-0.686
Mof_O 	O 	0.2487	0.9345	0.5542	-0.317
Mof_O 	O 	0.18642	0.88442	0.4186	-0.211
Mof_O 	O 	0.06	0.8998	0.3768	-0.326
Mof_O 	O 	0.10081	0.79251	0.3373	-0.538
Mof_O 	O 	0.2315	0.8276	0.4773	-0.231
Mof_O 	O 	0.239	0.7501	0.3811	-0.198
Mof_O 	O 	0.27325	0.08095	0.5231	-0.255
Mof_O 	O 	0.0321	0.6959	0.222	-0.695
Mof_O 	O 	0.5451	0.6975	0.5252	-0.229
Mof_O 	O 	0.4358	0.6657	0.3775	-0.762
Mof_O 	O 	0.3803	0.6945	0.4458	-0.297
Mof_O 	O 	0.46582	0.76782	0.5814	-0.216
Mof_O 	O 	0.523	0.6832	0.6232	-0.302
Mof_O 	O 	0.45521	0.76351	0.6627	-0.567
Mof_O 	O 	0.3503	0.7542	0.5227	-0.232
Mof_O 	O 	0.369	0.8579	0.6189	-0.195
Mof_O 	O 	0.55785	0.75015	0.4769	-0.224
Mof_O 	O 	0.4739	0.8101	0.778	-0.718
Mof_O 	O 	0.4748	0.1723	0.0199	-0.313
Mof_O 	O 	0.6225	0.2882	0.0583	-0.686
Mof_O 	O 	0.5542	0.2487	0.9345	-0.317
Mof_O 	O 	0.4186	0.18642	0.88442	-0.211
Mof_O 	O 	0.3768	0.06	0.8998	-0.326
Mof_O 	O 	0.3373	0.10081	0.79251	-0.538
Mof_O 	O 	0.4773	0.2315	0.8276	-0.231
Mof_O 	O 	0.3811	0.239	0.7501	-0.198
Mof_O 	O 	0.5231	0.27325	0.08095	-0.255
Mof_O 	O 	0.222	0.0321	0.6959	-0.695
Mof_O 	O 	0.5252	0.5451	0.6975	-0.229
Mof_O 	O 	0.3775	0.4358	0.6657	-0.762
Mof_O 	O 	0.4458	0.3803	0.6945	-0.297
Mof_O 	O 	0.5814	0.46582	0.76782	-0.216
Mof_O 	O 	0.6232	0.523	0.6832	-0.302
Mof_O 	O 	0.6627	0.45521	0.76351	-0.567
Mof_O 	O 	0.5227	0.3503	0.7542	-0.232
Mof_O 	O 	0.6189	0.369	0.8579	-0.195
Mof_O 	O 	0.4769	0.55785	0.75015	-0.224
Mof_O 	O 	0.778	0.4739	0.8101	-0.718
Mof_O 	O 	0.1524	0.4549	0.9801	-0.158
Mof_O 	O 	0.2299	0.5642	0.9417	-0.724
Mof_O 	O 	0.3142	0.6197	0.0655	-0.277
Mof_O 	O 	0.302	0.53418	0.11558	-0.229
Mof_O 	O 	0.1602	0.477	0.1002	-0.32
Mof_O 	O 	0.3083	0.54479	0.20749	-0.568
Mof_O 	O 	0.4039	0.6497	0.1724	-0.235
Mof_O 	O 	0.4889	0.631	0.2499	-0.206
Mof_O 	O 	0.1923	0.44215	0.91905	-0.199
Mof_O 	O 	0.3362	0.5261	0.3041	-0.725
Mof_O 	O 	0.8476	0.8277	0.3025	-0.22
Mof_O 	O 	0.7701	0.7118	0.3343	-0.76
Mof_O 	O 	0.6858	0.7513	0.3055	-0.299
Mof_O 	O 	0.698	0.81358	0.23218	-0.22
Mof_O 	O 	0.8398	0.94	0.3168	-0.265
Mof_O 	O 	0.6917	0.89919	0.23649	-0.511
Mof_O 	O 	0.5961	0.7685	0.2458	-0.234
Mof_O 	O 	0.5111	0.761	0.1421	-0.215
Mof_O 	O 	0.8077	0.72675	0.24985	-0.225
Mof_O 	O 	0.6638	0.9679	0.1899	-0.657
Mof_O 	O 	0.3025	0.8476	0.8277	-0.22
Mof_O 	O 	0.3343	0.7701	0.7118	-0.76
Mof_O 	O 	0.3055	0.6858	0.7513	-0.299
Mof_O 	O 	0.23218	0.698	0.81358	-0.22
Mof_O 	O 	0.3168	0.8398	0.94	-0.265
Mof_O 	O 	0.23649	0.6917	0.89919	-0.511
Mof_O 	O 	0.2458	0.5961	0.7685	-0.234
Mof_O 	O 	0.1421	0.5111	0.761	-0.215
Mof_O 	O 	0.24985	0.8077	0.72675	-0.225
Mof_O 	O 	0.1899	0.6638	0.9679	-0.657
Mof_O 	O 	0.9801	0.1524	0.4549	-0.158
Mof_O 	O 	0.9417	0.2299	0.5642	-0.724
Mof_O 	O 	0.0655	0.3142	0.6197	-0.277
Mof_O 	O 	0.11558	0.302	0.53418	-0.229
Mof_O 	O 	0.1002	0.1602	0.477	-0.32
Mof_O 	O 	0.20749	0.3083	0.54479	-0.568
Mof_O 	O 	0.1724	0.4039	0.6497	-0.235
Mof_O 	O 	0.2499	0.4889	0.631	-0.206
Mof_O 	O 	0.91905	0.1923	0.44215	-0.199
Mof_O 	O 	0.3041	0.3362	0.5261	-0.725
Mof_O 	O 	0.6975	0.5252	0.5451	-0.229
Mof_O 	O 	0.6657	0.3775	0.4358	-0.762
Mof_O 	O 	0.6945	0.4458	0.3803	-0.297
Mof_O 	O 	0.76782	0.5814	0.46582	-0.216
Mof_O 	O 	0.6832	0.6232	0.523	-0.302
Mof_O 	O 	0.76351	0.6627	0.45521	-0.567
Mof_O 	O 	0.7542	0.5227	0.3503	-0.232
Mof_O 	O 	0.8579	0.6189	0.369	-0.195
Mof_O 	O 	0.75015	0.4769	0.55785	-0.224
Mof_O 	O 	0.8101	0.778	0.4739	-0.718
Mof_O 	O 	0.0199	0.4748	0.1723	-0.313
Mof_O 	O 	0.0583	0.6225	0.2882	-0.686
Mof_O 	O 	0.9345	0.5542	0.2487	-0.317
Mof_O 	O 	0.88442	0.4186	0.18642	-0.211
Mof_O 	O 	0.8998	0.3768	0.06	-0.326
Mof_O 	O 	0.79251	0.3373	0.10081	-0.538
Mof_O 	O 	0.8276	0.4773	0.2315	-0.231
Mof_O 	O 	0.7501	0.3811	0.239	-0.198
Mof_O 	O 	0.08095	0.5231	0.27325	-0.255
Mof_O 	O 	0.6959	0.222	0.0321	-0.695
Mof_O 	O 	0.0199	0.5451	0.8476	-0.301
Mof_O 	O 	0.0583	0.4358	0.7701	-0.686
Mof_O 	O 	0.9345	0.3803	0.6858	-0.317
Mof_O 	O 	0.88442	0.46582	0.698	-0.209
Mof_O 	O 	0.8998	0.523	0.8398	-0.291
Mof_O 	O 	0.79251	0.45521	0.6917	-0.565
Mof_O 	O 	0.8276	0.3503	0.5961	-0.232
Mof_O 	O 	0.7501	0.369	0.5111	-0.198
Mof_O 	O 	0.08095	0.55785	0.8077	-0.25
Mof_O 	O 	0.6959	0.4739	0.6638	-0.722
Mof_O 	O 	0.6975	0.1723	0.1524	-0.24
Mof_O 	O 	0.6657	0.2882	0.2299	-0.762
Mof_O 	O 	0.6945	0.2487	0.3142	-0.297
Mof_O 	O 	0.76782	0.18642	0.302	-0.219
Mof_O 	O 	0.6832	0.06	0.1602	-0.338
Mof_O 	O 	0.76351	0.10081	0.3083	-0.541
Mof_O 	O 	0.7542	0.2315	0.4039	-0.231
Mof_O 	O 	0.8579	0.239	0.4889	-0.194
Mof_O 	O 	0.75015	0.27325	0.1923	-0.225
Mof_O 	O 	0.8101	0.0321	0.3362	-0.691
Mof_O 	O 	0.9801	0.8277	0.5252	-0.149
Mof_O 	O 	0.9417	0.7118	0.3775	-0.724
Mof_O 	O 	0.0655	0.7513	0.4458	-0.277
Mof_O 	O 	0.11558	0.81358	0.5814	-0.225
Mof_O 	O 	0.1002	0.94	0.6232	-0.276
Mof_O 	O 	0.20749	0.89919	0.6627	-0.513
Mof_O 	O 	0.1724	0.7685	0.5227	-0.234
Mof_O 	O 	0.2499	0.761	0.6189	-0.206
Mof_O 	O 	0.91905	0.72675	0.4769	-0.198
Mof_O 	O 	0.3041	0.9679	0.778	-0.654
Mof_O 	O 	0.3025	0.4549	0.4748	-0.232
Mof_O 	O 	0.3343	0.5642	0.6225	-0.76
Mof_O 	O 	0.3055	0.6197	0.5542	-0.299
Mof_O 	O 	0.23218	0.53418	0.4186	-0.224
Mof_O 	O 	0.3168	0.477	0.3768	-0.309
Mof_O 	O 	0.23649	0.54479	0.3373	-0.566
Mof_O 	O 	0.2458	0.6497	0.4773	-0.235
Mof_O 	O 	0.1421	0.631	0.3811	-0.215
Mof_O 	O 	0.24985	0.44215	0.5231	-0.23
Mof_O 	O 	0.1899	0.5261	0.222	-0.729
Mof_O 	O 	0.8277	0.5252	0.9801	-0.149
Mof_O 	O 	0.7118	0.3775	0.9417	-0.724
Mof_O 	O 	0.7513	0.4458	0.0655	-0.277
Mof_O 	O 	0.81358	0.5814	0.11558	-0.225
Mof_O 	O 	0.94	0.6232	0.1002	-0.276
Mof_O 	O 	0.89919	0.6627	0.20749	-0.513
Mof_O 	O 	0.7685	0.5227	0.1724	-0.234
Mof_O 	O 	0.761	0.6189	0.2499	-0.206
Mof_O 	O 	0.72675	0.4769	0.91905	-0.198
Mof_O 	O 	0.9679	0.778	0.3041	-0.654
Mof_O 	O 	0.4549	0.4748	0.3025	-0.232
Mof_O 	O 	0.5642	0.6225	0.3343	-0.76
Mof_O 	O 	0.6197	0.5542	0.3055	-0.299
Mof_O 	O 	0.53418	0.4186	0.23218	-0.224
Mof_O 	O 	0.477	0.3768	0.3168	-0.309
Mof_O 	O 	0.54479	0.3373	0.23649	-0.566
Mof_O 	O 	0.6497	0.4773	0.2458	-0.235
Mof_O 	O 	0.631	0.3811	0.1421	-0.215
Mof_O 	O 	0.44215	0.5231	0.24985	-0.23
Mof_O 	O 	0.5261	0.222	0.1899	-0.729
Mof_O 	O 	0.5451	0.8476	0.0199	-0.301
Mof_O 	O 	0.4358	0.7701	0.0583	-0.686
Mof_O 	O 	0.3803	0.6858	0.9345	-0.317
Mof_O 	O 	0.46582	0.698	0.88442	-0.209
Mof_O 	O 	0.523	0.8398	0.8998	-0.291
Mof_O 	O 	0.45521	0.6917	0.79251	-0.565
Mof_O 	O 	0.3503	0.5961	0.8276	-0.232
Mof_O 	O 	0.369	0.5111	0.7501	-0.198
Mof_O 	O 	0.55785	0.8077	0.08095	-0.25
Mof_O 	O 	0.4739	0.6638	0.6959	-0.722
Mof_O 	O 	0.1723	0.1524	0.6975	-0.24
Mof_O 	O 	0.2882	0.2299	0.6657	-0.762
Mof_O 	O 	0.2487	0.3142	0.6945	-0.297
Mof_O 	O 	0.18642	0.302	0.76782	-0.219
Mof_O 	O 	0.06	0.1602	0.6832	-0.338
Mof_O 	O 	0.10081	0.3083	0.76351	-0.541
Mof_O 	O 	0.2315	0.4039	0.7542	-0.231
Mof_O 	O 	0.239	0.4889	0.8579	-0.194
Mof_O 	O 	0.27325	0.1923	0.75015	-0.225
Mof_O 	O 	0.0321	0.3362	0.8101	-0.691
Mof_O 	O 	0.1524	0.6975	0.1723	-0.24
Mof_O 	O 	0.2299	0.6657	0.2882	-0.762
Mof_O 	O 	0.3142	0.6945	0.2487	-0.297
Mof_O 	O 	0.302	0.76782	0.18642	-0.219
Mof_O 	O 	0.1602	0.6832	0.06	-0.338
Mof_O 	O 	0.3083	0.76351	0.10081	-0.541
Mof_O 	O 	0.4039	0.7542	0.2315	-0.231
Mof_O 	O 	0.4889	0.8579	0.239	-0.194
Mof_O 	O 	0.1923	0.75015	0.27325	-0.225
Mof_O 	O 	0.3362	0.8101	0.0321	-0.691
Mof_O 	O 	0.8476	0.0199	0.5451	-0.301
Mof_O 	O 	0.7701	0.0583	0.4358	-0.686
Mof_O 	O 	0.6858	0.9345	0.3803	-0.317
Mof_O 	O 	0.698	0.88442	0.46582	-0.209
Mof_O 	O 	0.8398	0.8998	0.523	-0.291
Mof_O 	O 	0.6917	0.79251	0.45521	-0.565
Mof_O 	O 	0.5961	0.8276	0.3503	-0.232
Mof_O 	O 	0.5111	0.7501	0.369	-0.198
Mof_O 	O 	0.8077	0.08095	0.55785	-0.25
Mof_O 	O 	0.6638	0.6959	0.4739	-0.722
Mof_O 	O 	0.4748	0.3025	0.4549	-0.232
Mof_O 	O 	0.6225	0.3343	0.5642	-0.76
Mof_O 	O 	0.5542	0.3055	0.6197	-0.299
Mof_O 	O 	0.4186	0.23218	0.53418	-0.224
Mof_O 	O 	0.3768	0.3168	0.477	-0.309
Mof_O 	O 	0.3373	0.23649	0.54479	-0.566
Mof_O 	O 	0.4773	0.2458	0.6497	-0.235
Mof_O 	O 	0.3811	0.1421	0.631	-0.215
Mof_O 	O 	0.5231	0.24985	0.44215	-0.23
Mof_O 	O 	0.222	0.1899	0.5261	-0.729
Mof_O 	O 	0.5252	0.9801	0.8277	-0.149
Mof_O 	O 	0.3775	0.9417	0.7118	-0.724
Mof_O 	O 	0.4458	0.0655	0.7513	-0.277
Mof_O 	O 	0.5814	0.11558	0.81358	-0.225
Mof_O 	O 	0.6232	0.1002	0.94	-0.276
Mof_O 	O 	0.6627	0.20749	0.89919	-0.513
Mof_O 	O 	0.5227	0.1724	0.7685	-0.234
Mof_O 	O 	0.6189	0.2499	0.761	-0.206
Mof_O 	O 	0.4769	0.91905	0.72675	-0.198
Mof_O 	O 	0.778	0.3041	0.9679	-0.654
_end
