data_functionalizedCrystal
_audit_creation_method	'EQeq! by Chris Wilmer'
_symmetry_space_group_name_H-M	'P1'
_symmetry_Int_Tables_number	1
_symmetry_cell_setting	triclinic
loop_
_symmetry_equiv_pos_as_xyz
  x,y,z
_cell_length_a	23.7046
_cell_length_b	15.7987
_cell_length_c	16.2398
_cell_angle_alpha	90
_cell_angle_beta	124.204
_cell_angle_gamma	90
loop_
_atom_site_label
_atom_site_type_symbol
_atom_site_fract_x
_atom_site_fract_y
_atom_site_fract_z
_atom_site_charge
Mof_Pr	Pr	0.81085	0.8293	0.62146	2.29
Mof_C 	C 	0.1278	0.4631	0.3225	-0.182
Mof_C 	C 	0.1399	0.545	0.3591	0.043
Mof_H 	H 	0.1766	0.5562	0.4259	0.035
Mof_C 	C 	0.0983	0.6108	0.298	-0.018
Mof_C 	C 	0.0441	0.5947	0.2001	0.184
Mof_C 	C 	0.0311	0.512	0.1653	-0.194
Mof_H 	H 	0.9933	0.5002	0.0995	0.106
Mof_C 	C 	0.0726	0.4469	0.2257	0.109
Mof_H 	H 	0.0634	0.3905	0.2011	0.004
Mof_C 	C 	0.018	0.6903	0.0729	0.177
Mof_C 	C 	0.0837	0.687	0.0958	-0.096
Mof_H 	H 	0.1191	0.661	0.1557	0.088
Mof_C 	C 	0.09766	0.7221	0.0306	-0.096
Mof_C 	C 	0.04522	0.7581	0.9412	0.005
Mof_H 	H 	0.0543	0.7802	0.8953	0.004
Mof_C 	C 	0.97928	0.7613	0.9195	-0.038
Mof_C 	C 	0.96551	0.7276	0.9858	-0.119
Mof_H 	H 	0.9208	0.7303	0.9715	0.108
Mof_C 	C 	0.1758	0.3924	0.3868	0.505
Mof_C 	C 	0.17012	0.7199	0.0608	0.429
Mof_C 	C 	0.92194	0.7987	0.8233	0.296
Mof_N 	N 	0.1145	0.6959	0.3404	0.013
Mof_O 	O 	0.16684	0.32285	0.3436	-0.542
Mof_O 	O 	0.22042	0.40942	0.476	-0.58
Mof_O 	O 	0.151	0.7023	0.4315	-0.12
Mof_O 	O 	0.0918	0.7569	0.2854	-0.114
Mof_O 	O 	0.21266	0.6782	0.1369	-0.506
Mof_O 	O 	0.18734	0.75944	0.0105	-0.648
Mof_O 	O 	0.9339	0.82467	0.7607	-0.486
Mof_O 	O 	0.86339	0.80175	0.80648	-0.432
Mof_O 	O 	0.00074	0.6572	0.1354	-0.223
Mof_Pr	Pr	0.31085	0.3293	0.62146	2.29
Mof_C 	C 	0.6278	0.9631	0.3225	-0.182
Mof_C 	C 	0.6399	0.045	0.3591	0.043
Mof_H 	H 	0.6766	0.0562	0.4259	0.036
Mof_C 	C 	0.5983	0.1108	0.298	-0.019
Mof_C 	C 	0.5441	0.0947	0.2001	0.186
Mof_C 	C 	0.5311	0.012	0.1653	-0.2
Mof_H 	H 	0.4933	0.0002	0.0995	0.109
Mof_C 	C 	0.5726	0.9469	0.2257	0.114
Mof_H 	H 	0.5634	0.8905	0.2011	0.003
Mof_C 	C 	0.518	0.1903	0.0729	0.169
Mof_C 	C 	0.5837	0.187	0.0958	-0.089
Mof_H 	H 	0.6191	0.161	0.1557	0.085
Mof_C 	C 	0.59766	0.2221	0.0306	-0.107
Mof_C 	C 	0.54522	0.2581	0.9412	0.019
Mof_H 	H 	0.5543	0.2802	0.8953	0.001
Mof_C 	C 	0.47928	0.2613	0.9195	-0.046
Mof_C 	C 	0.46551	0.2276	0.9858	-0.11
Mof_H 	H 	0.4208	0.2303	0.9715	0.106
Mof_C 	C 	0.6758	0.8924	0.3868	0.505
Mof_C 	C 	0.67012	0.2199	0.0608	0.433
Mof_C 	C 	0.42194	0.2987	0.8233	0.299
Mof_N 	N 	0.6145	0.1959	0.3404	0.013
Mof_O 	O 	0.66684	0.82285	0.3436	-0.542
Mof_O 	O 	0.72042	0.90942	0.476	-0.58
Mof_O 	O 	0.651	0.2023	0.4315	-0.12
Mof_O 	O 	0.5918	0.2569	0.2854	-0.114
Mof_O 	O 	0.71266	0.1782	0.1369	-0.507
Mof_O 	O 	0.68734	0.25944	0.0105	-0.652
Mof_O 	O 	0.4339	0.32467	0.7607	-0.487
Mof_O 	O 	0.36339	0.30175	0.80648	-0.432
Mof_O 	O 	0.50074	0.1572	0.1354	-0.222
Mof_Pr	Pr	0.18915	0.8293	0.87854	2.284
Mof_C 	C 	0.8722	0.4631	0.1775	-0.183
Mof_C 	C 	0.8601	0.545	0.1409	0.044
Mof_H 	H 	0.8234	0.5562	0.0741	0.035
Mof_C 	C 	0.9017	0.6108	0.202	-0.019
Mof_C 	C 	0.9559	0.5947	0.2999	0.185
Mof_C 	C 	0.9689	0.512	0.3347	-0.198
Mof_H 	H 	0.0067	0.5002	0.4005	0.109
Mof_C 	C 	0.9274	0.4469	0.2743	0.111
Mof_H 	H 	0.9366	0.3905	0.2989	0.003
Mof_C 	C 	0.982	0.6903	0.4271	0.172
Mof_C 	C 	0.9163	0.687	0.4042	-0.092
Mof_H 	H 	0.8809	0.661	0.3443	0.086
Mof_C 	C 	0.90234	0.7221	0.4694	-0.103
Mof_C 	C 	0.95478	0.7581	0.5588	0.015
Mof_H 	H 	0.9457	0.7802	0.6047	0.002
Mof_C 	C 	0.02072	0.7613	0.5805	-0.044
Mof_C 	C 	0.03449	0.7276	0.5142	-0.114
Mof_H 	H 	0.0792	0.7303	0.5285	0.107
Mof_C 	C 	0.8242	0.3924	0.1132	0.505
Mof_C 	C 	0.82988	0.7199	0.4392	0.432
Mof_C 	C 	0.07806	0.7987	0.6767	0.298
Mof_N 	N 	0.8855	0.6959	0.1596	0.013
Mof_O 	O 	0.83316	0.32285	0.1564	-0.542
Mof_O 	O 	0.77958	0.40942	0.024	-0.581
Mof_O 	O 	0.849	0.7023	0.0685	-0.12
Mof_O 	O 	0.9082	0.7569	0.2146	-0.114
Mof_O 	O 	0.78734	0.6782	0.3631	-0.507
Mof_O 	O 	0.81266	0.75944	0.4895	-0.651
Mof_O 	O 	0.0661	0.82467	0.7393	-0.487
Mof_O 	O 	0.13661	0.80175	0.69352	-0.432
Mof_O 	O 	0.99926	0.6572	0.3646	-0.223
Mof_Pr	Pr	0.68915	0.3293	0.87854	2.293
Mof_C 	C 	0.3722	0.9631	0.1775	-0.18
Mof_C 	C 	0.3601	0.045	0.1409	0.041
Mof_H 	H 	0.3234	0.0562	0.0741	0.035
Mof_C 	C 	0.4017	0.1108	0.202	-0.018
Mof_C 	C 	0.4559	0.0947	0.2999	0.185
Mof_C 	C 	0.4689	0.012	0.3347	-0.198
Mof_H 	H 	0.5067	0.0002	0.4005	0.109
Mof_C 	C 	0.4274	0.9469	0.2743	0.111
Mof_H 	H 	0.4366	0.8905	0.2989	0.004
Mof_C 	C 	0.482	0.1903	0.4271	0.172
Mof_C 	C 	0.4163	0.187	0.4042	-0.092
Mof_H 	H 	0.3809	0.161	0.3443	0.086
Mof_C 	C 	0.40234	0.2221	0.4694	-0.103
Mof_C 	C 	0.45478	0.2581	0.5588	0.014
Mof_H 	H 	0.4457	0.2802	0.6047	0.002
Mof_C 	C 	0.52072	0.2613	0.5805	-0.043
Mof_C 	C 	0.53449	0.2276	0.5142	-0.115
Mof_H 	H 	0.5792	0.2303	0.5285	0.107
Mof_C 	C 	0.3242	0.8924	0.1132	0.505
Mof_C 	C 	0.32988	0.2199	0.4392	0.432
Mof_C 	C 	0.57806	0.2987	0.6767	0.298
Mof_N 	N 	0.3855	0.1959	0.1596	0.013
Mof_O 	O 	0.33316	0.82285	0.1564	-0.542
Mof_O 	O 	0.27958	0.90942	0.024	-0.578
Mof_O 	O 	0.349	0.2023	0.0685	-0.12
Mof_O 	O 	0.4082	0.2569	0.2146	-0.114
Mof_O 	O 	0.28734	0.1782	0.3631	-0.507
Mof_O 	O 	0.31266	0.25944	0.4895	-0.651
Mof_O 	O 	0.5661	0.32467	0.7393	-0.487
Mof_O 	O 	0.63661	0.30175	0.69352	-0.432
Mof_O 	O 	0.49926	0.1572	0.3646	-0.222
Mof_Pr	Pr	0.18915	0.1707	0.37854	2.29
Mof_C 	C 	0.8722	0.5369	0.6775	-0.182
Mof_C 	C 	0.8601	0.455	0.6409	0.043
Mof_H 	H 	0.8234	0.4438	0.5741	0.035
Mof_C 	C 	0.9017	0.3892	0.702	-0.018
Mof_C 	C 	0.9559	0.4053	0.7999	0.184
Mof_C 	C 	0.9689	0.488	0.8347	-0.194
Mof_H 	H 	0.0067	0.4998	0.9005	0.106
Mof_C 	C 	0.9274	0.5531	0.7743	0.109
Mof_H 	H 	0.9366	0.6095	0.7989	0.004
Mof_C 	C 	0.982	0.3097	0.9271	0.177
Mof_C 	C 	0.9163	0.313	0.9042	-0.096
Mof_H 	H 	0.8809	0.339	0.8443	0.088
Mof_C 	C 	0.90234	0.2779	0.9694	-0.096
Mof_C 	C 	0.95478	0.2419	0.0588	0.005
Mof_H 	H 	0.9457	0.2198	0.1047	0.004
Mof_C 	C 	0.02072	0.2387	0.0805	-0.038
Mof_C 	C 	0.03449	0.2724	0.0142	-0.119
Mof_H 	H 	0.0792	0.2697	0.0285	0.108
Mof_C 	C 	0.8242	0.6076	0.6132	0.505
Mof_C 	C 	0.82988	0.2801	0.9392	0.429
Mof_C 	C 	0.07806	0.2013	0.1767	0.296
Mof_N 	N 	0.8855	0.3041	0.6596	0.013
Mof_O 	O 	0.83316	0.67715	0.6564	-0.542
Mof_O 	O 	0.77958	0.59058	0.524	-0.58
Mof_O 	O 	0.849	0.2977	0.5685	-0.12
Mof_O 	O 	0.9082	0.2431	0.7146	-0.114
Mof_O 	O 	0.78734	0.3218	0.8631	-0.506
Mof_O 	O 	0.81266	0.24056	0.9895	-0.648
Mof_O 	O 	0.0661	0.17533	0.2393	-0.486
Mof_O 	O 	0.13661	0.19825	0.19352	-0.432
Mof_O 	O 	0.99926	0.3428	0.8646	-0.223
Mof_Pr	Pr	0.68915	0.6707	0.37854	2.29
Mof_C 	C 	0.3722	0.0369	0.6775	-0.182
Mof_C 	C 	0.3601	0.955	0.6409	0.043
Mof_H 	H 	0.3234	0.9438	0.5741	0.036
Mof_C 	C 	0.4017	0.8892	0.702	-0.019
Mof_C 	C 	0.4559	0.9053	0.7999	0.186
Mof_C 	C 	0.4689	0.988	0.8347	-0.2
Mof_H 	H 	0.5067	0.9998	0.9005	0.109
Mof_C 	C 	0.4274	0.0531	0.7743	0.114
Mof_H 	H 	0.4366	0.1095	0.7989	0.003
Mof_C 	C 	0.482	0.8097	0.9271	0.169
Mof_C 	C 	0.4163	0.813	0.9042	-0.089
Mof_H 	H 	0.3809	0.839	0.8443	0.085
Mof_C 	C 	0.40234	0.7779	0.9694	-0.107
Mof_C 	C 	0.45478	0.7419	0.0588	0.019
Mof_H 	H 	0.4457	0.7198	0.1047	0.001
Mof_C 	C 	0.52072	0.7387	0.0805	-0.046
Mof_C 	C 	0.53449	0.7724	0.0142	-0.11
Mof_H 	H 	0.5792	0.7697	0.0285	0.106
Mof_C 	C 	0.3242	0.1076	0.6132	0.505
Mof_C 	C 	0.32988	0.7801	0.9392	0.433
Mof_C 	C 	0.57806	0.7013	0.1767	0.299
Mof_N 	N 	0.3855	0.8041	0.6596	0.013
Mof_O 	O 	0.33316	0.17715	0.6564	-0.542
Mof_O 	O 	0.27958	0.09058	0.524	-0.58
Mof_O 	O 	0.349	0.7977	0.5685	-0.12
Mof_O 	O 	0.4082	0.7431	0.7146	-0.114
Mof_O 	O 	0.28734	0.8218	0.8631	-0.507
Mof_O 	O 	0.31266	0.74056	0.9895	-0.652
Mof_O 	O 	0.5661	0.67533	0.2393	-0.487
Mof_O 	O 	0.63661	0.69825	0.19352	-0.432
Mof_O 	O 	0.49926	0.8428	0.8646	-0.222
Mof_Pr	Pr	0.81085	0.1707	0.12146	2.284
Mof_C 	C 	0.1278	0.5369	0.8225	-0.183
Mof_C 	C 	0.1399	0.455	0.8591	0.044
Mof_H 	H 	0.1766	0.4438	0.9259	0.035
Mof_C 	C 	0.0983	0.3892	0.798	-0.019
Mof_C 	C 	0.0441	0.4053	0.7001	0.185
Mof_C 	C 	0.0311	0.488	0.6653	-0.198
Mof_H 	H 	0.9933	0.4998	0.5995	0.109
Mof_C 	C 	0.0726	0.5531	0.7257	0.111
Mof_H 	H 	0.0634	0.6095	0.7011	0.003
Mof_C 	C 	0.018	0.3097	0.5729	0.172
Mof_C 	C 	0.0837	0.313	0.5958	-0.092
Mof_H 	H 	0.1191	0.339	0.6557	0.086
Mof_C 	C 	0.09766	0.2779	0.5306	-0.103
Mof_C 	C 	0.04522	0.2419	0.4412	0.015
Mof_H 	H 	0.0543	0.2198	0.3953	0.002
Mof_C 	C 	0.97928	0.2387	0.4195	-0.044
Mof_C 	C 	0.96551	0.2724	0.4858	-0.114
Mof_H 	H 	0.9208	0.2697	0.4715	0.107
Mof_C 	C 	0.1758	0.6076	0.8868	0.505
Mof_C 	C 	0.17012	0.2801	0.5608	0.432
Mof_C 	C 	0.92194	0.2013	0.3233	0.298
Mof_N 	N 	0.1145	0.3041	0.8404	0.013
Mof_O 	O 	0.16684	0.67715	0.8436	-0.542
Mof_O 	O 	0.22042	0.59058	0.976	-0.581
Mof_O 	O 	0.151	0.2977	0.9315	-0.12
Mof_O 	O 	0.0918	0.2431	0.7854	-0.114
Mof_O 	O 	0.21266	0.3218	0.6369	-0.507
Mof_O 	O 	0.18734	0.24056	0.5105	-0.651
Mof_O 	O 	0.9339	0.17533	0.2607	-0.487
Mof_O 	O 	0.86339	0.19825	0.30648	-0.432
Mof_O 	O 	0.00074	0.3428	0.6354	-0.223
Mof_Pr	Pr	0.31085	0.6707	0.12146	2.293
Mof_C 	C 	0.6278	0.0369	0.8225	-0.18
Mof_C 	C 	0.6399	0.955	0.8591	0.041
Mof_H 	H 	0.6766	0.9438	0.9259	0.035
Mof_C 	C 	0.5983	0.8892	0.798	-0.018
Mof_C 	C 	0.5441	0.9053	0.7001	0.185
Mof_C 	C 	0.5311	0.988	0.6653	-0.198
Mof_H 	H 	0.4933	0.9998	0.5995	0.109
Mof_C 	C 	0.5726	0.0531	0.7257	0.111
Mof_H 	H 	0.5634	0.1095	0.7011	0.004
Mof_C 	C 	0.518	0.8097	0.5729	0.172
Mof_C 	C 	0.5837	0.813	0.5958	-0.092
Mof_H 	H 	0.6191	0.839	0.6557	0.086
Mof_C 	C 	0.59766	0.7779	0.5306	-0.103
Mof_C 	C 	0.54522	0.7419	0.4412	0.014
Mof_H 	H 	0.5543	0.7198	0.3953	0.002
Mof_C 	C 	0.47928	0.7387	0.4195	-0.043
Mof_C 	C 	0.46551	0.7724	0.4858	-0.115
Mof_H 	H 	0.4208	0.7697	0.4715	0.107
Mof_C 	C 	0.6758	0.1076	0.8868	0.505
Mof_C 	C 	0.67012	0.7801	0.5608	0.432
Mof_C 	C 	0.42194	0.7013	0.3233	0.298
Mof_N 	N 	0.6145	0.8041	0.8404	0.013
Mof_O 	O 	0.66684	0.17715	0.8436	-0.542
Mof_O 	O 	0.72042	0.09058	0.976	-0.578
Mof_O 	O 	0.651	0.7977	0.9315	-0.12
Mof_O 	O 	0.5918	0.7431	0.7854	-0.114
Mof_O 	O 	0.71266	0.8218	0.6369	-0.507
Mof_O 	O 	0.68734	0.74056	0.5105	-0.651
Mof_O 	O 	0.4339	0.67533	0.2607	-0.487
Mof_O 	O 	0.36339	0.69825	0.30648	-0.432
Mof_O 	O 	0.50074	0.8428	0.6354	-0.222
_end
