# CIF file generated by openbabel 3.1.0, see https://openbabel.org
data_I
_chemical_name_common 'image0'
_cell_length_a 17.2316
_cell_length_b 16.7585
_cell_length_c 21.2567
_cell_angle_alpha 90
_cell_angle_beta 106.996
_cell_angle_gamma 90
_space_group_name_H-M_alt 'P 1'
_space_group_name_Hall 'P 1'
loop_
    _symmetry_equiv_pos_as_xyz
    x,y,z
loop_
    _atom_site_label
    _atom_site_type_symbol
    _atom_site_fract_x
    _atom_site_fract_y
    _atom_site_fract_z
    _atom_site_occupancy
    Tb1      Tb       0.47942    0.56529    0.57109    1.000
    C1       C        0.31620    0.09240    0.67800    1.000
    H1       H        0.32280    0.13770    0.70430    1.000
    C2       C        0.23930    0.07730    0.63200    1.000
    H2       H        0.19530    0.11060    0.62950    1.000
    C3       C        0.23170    0.01340    0.59180    1.000
    C4       C        0.30000    0.96520    0.59660    1.000
    H3       H        0.29670    0.92300    0.56750    1.000
    C5       C        0.37160    0.98050    0.64410    1.000
    C6       C        0.15580    0.99260    0.53820    1.000
    C7       C        0.44490    0.93150    0.65240    1.000
    C8       C        0.43860    0.85280    0.62600    1.000
    H4       H        0.38830    0.83040    0.60530    1.000
    C9       C        0.50890    0.81100    0.63210    1.000
    C10      C        0.58400    0.84800    0.66310    1.000
    H5       H        0.63270    0.82220    0.66600    1.000
    C11      C        0.58330    0.92330    0.68900    1.000
    H6       H        0.63270    0.94710    0.71040    1.000
    C12      C        0.50340    0.72730    0.60860    1.000
    C13      C        0.53290    0.15430    0.63560    1.000
    H7       H        0.54180    0.10450    0.61950    1.000
    C14      C        0.53170    0.21980    0.59670    1.000
    H8       H        0.54160    0.21510    0.55620    1.000
    C15      C        0.51560    0.29220    0.61950    1.000
    C16      C        0.50350    0.29910    0.67950    1.000
    H9       H        0.49360    0.34870    0.69530    1.000
    C17      C        0.50610    0.22970    0.71740    1.000
    C18      C        0.51150    0.36860    0.57670    1.000
    N1       N        0.37900    0.04360    0.68460    1.000
    N2       N        0.51520    0.96400    0.68490    1.000
    N3       N        0.52210    0.15790    0.69500    1.000
    O1       O        0.15910    0.94380    0.49560    1.000
    O2       O        0.08990    0.02670    0.53840    1.000
    O3       O        0.53260    0.36050    0.52570    1.000
    O4       O        0.48950    0.42960    0.59810    1.000
    O5       O        0.43540    0.69250    0.59710    1.000
    O6       O        0.56470    0.69200    0.60160    1.000
    Tb2      Tb       0.97942    0.06529    0.57109    1.000
    C19      C        0.81620    0.59240    0.67800    1.000
    H10      H        0.82280    0.63770    0.70430    1.000
    C20      C        0.73930    0.57730    0.63200    1.000
    H11      H        0.69530    0.61060    0.62950    1.000
    C21      C        0.73170    0.51340    0.59180    1.000
    C22      C        0.80000    0.46520    0.59660    1.000
    H12      H        0.79670    0.42300    0.56750    1.000
    C23      C        0.87160    0.48050    0.64410    1.000
    C24      C        0.65580    0.49260    0.53820    1.000
    C25      C        0.94490    0.43150    0.65240    1.000
    C26      C        0.93860    0.35280    0.62600    1.000
    H13      H        0.88830    0.33040    0.60530    1.000
    C27      C        0.00890    0.31100    0.63210    1.000
    C28      C        0.08400    0.34800    0.66310    1.000
    H14      H        0.13270    0.32220    0.66600    1.000
    C29      C        0.08330    0.42330    0.68900    1.000
    H15      H        0.13270    0.44710    0.71040    1.000
    C30      C        0.00340    0.22730    0.60860    1.000
    C31      C        0.03290    0.65430    0.63560    1.000
    H16      H        0.04180    0.60450    0.61950    1.000
    C32      C        0.03170    0.71980    0.59670    1.000
    H17      H        0.04160    0.71510    0.55620    1.000
    C33      C        0.01560    0.79220    0.61950    1.000
    C34      C        0.00350    0.79910    0.67950    1.000
    H18      H        0.99360    0.84870    0.69530    1.000
    C35      C        0.00610    0.72970    0.71740    1.000
    C36      C        0.01150    0.86860    0.57670    1.000
    N4       N        0.87900    0.54360    0.68460    1.000
    N5       N        0.01520    0.46400    0.68490    1.000
    N6       N        0.02210    0.65790    0.69500    1.000
    O7       O        0.65910    0.44380    0.49560    1.000
    O8       O        0.58990    0.52670    0.53840    1.000
    O9       O        0.03260    0.86050    0.52570    1.000
    O10      O        0.98950    0.92960    0.59810    1.000
    O11      O        0.93540    0.19250    0.59710    1.000
    O12      O        0.06470    0.19200    0.60160    1.000
    Tb3      Tb       0.52058    0.56529    0.92891    1.000
    C37      C        0.68380    0.09240    0.82200    1.000
    H19      H        0.67720    0.13770    0.79570    1.000
    C38      C        0.76070    0.07730    0.86800    1.000
    H20      H        0.80470    0.11060    0.87050    1.000
    C39      C        0.76830    0.01340    0.90820    1.000
    C40      C        0.70000    0.96520    0.90340    1.000
    H21      H        0.70330    0.92300    0.93250    1.000
    C41      C        0.62840    0.98050    0.85590    1.000
    C42      C        0.84420    0.99260    0.96180    1.000
    C43      C        0.55510    0.93150    0.84760    1.000
    C44      C        0.56140    0.85280    0.87400    1.000
    H22      H        0.61170    0.83040    0.89470    1.000
    C45      C        0.49110    0.81100    0.86790    1.000
    C46      C        0.41600    0.84800    0.83690    1.000
    H23      H        0.36730    0.82220    0.83400    1.000
    C47      C        0.41670    0.92330    0.81100    1.000
    H24      H        0.36730    0.94710    0.78960    1.000
    C48      C        0.49660    0.72730    0.89140    1.000
    C49      C        0.46710    0.15430    0.86440    1.000
    H25      H        0.45820    0.10450    0.88050    1.000
    C50      C        0.46830    0.21980    0.90330    1.000
    H26      H        0.45840    0.21510    0.94380    1.000
    C51      C        0.48440    0.29220    0.88050    1.000
    C52      C        0.49650    0.29910    0.82050    1.000
    H27      H        0.50640    0.34870    0.80470    1.000
    C53      C        0.49390    0.22970    0.78260    1.000
    C54      C        0.48850    0.36860    0.92330    1.000
    N7       N        0.62100    0.04360    0.81540    1.000
    N8       N        0.48480    0.96400    0.81510    1.000
    N9       N        0.47790    0.15790    0.80500    1.000
    O13      O        0.84090    0.94380    0.00440    1.000
    O14      O        0.91010    0.02670    0.96160    1.000
    O15      O        0.46740    0.36050    0.97430    1.000
    O16      O        0.51050    0.42960    0.90190    1.000
    O17      O        0.56460    0.69250    0.90290    1.000
    O18      O        0.43530    0.69200    0.89840    1.000
    Tb4      Tb       0.02058    0.06529    0.92891    1.000
    C55      C        0.18380    0.59240    0.82200    1.000
    H28      H        0.17720    0.63770    0.79570    1.000
    C56      C        0.26070    0.57730    0.86800    1.000
    H29      H        0.30470    0.61060    0.87050    1.000
    C57      C        0.26830    0.51340    0.90820    1.000
    C58      C        0.20000    0.46520    0.90340    1.000
    H30      H        0.20330    0.42300    0.93250    1.000
    C59      C        0.12840    0.48050    0.85590    1.000
    C60      C        0.34420    0.49260    0.96180    1.000
    C61      C        0.05510    0.43150    0.84760    1.000
    C62      C        0.06140    0.35280    0.87400    1.000
    H31      H        0.11170    0.33040    0.89470    1.000
    C63      C        0.99110    0.31100    0.86790    1.000
    C64      C        0.91600    0.34800    0.83690    1.000
    H32      H        0.86730    0.32220    0.83400    1.000
    C65      C        0.91670    0.42330    0.81100    1.000
    H33      H        0.86730    0.44710    0.78960    1.000
    C66      C        0.99660    0.22730    0.89140    1.000
    C67      C        0.96710    0.65430    0.86440    1.000
    H34      H        0.95820    0.60450    0.88050    1.000
    C68      C        0.96830    0.71980    0.90330    1.000
    H35      H        0.95840    0.71510    0.94380    1.000
    C69      C        0.98440    0.79220    0.88050    1.000
    C70      C        0.99650    0.79910    0.82050    1.000
    H36      H        0.00640    0.84870    0.80470    1.000
    C71      C        0.99390    0.72970    0.78260    1.000
    C72      C        0.98850    0.86860    0.92330    1.000
    N10      N        0.12100    0.54360    0.81540    1.000
    N11      N        0.98480    0.46400    0.81510    1.000
    N12      N        0.97790    0.65790    0.80500    1.000
    O19      O        0.34090    0.44380    0.00440    1.000
    O20      O        0.41010    0.52670    0.96160    1.000
    O21      O        0.96740    0.86050    0.97430    1.000
    O22      O        0.01050    0.92960    0.90190    1.000
    O23      O        0.06460    0.19250    0.90290    1.000
    O24      O        0.93530    0.19200    0.89840    1.000
    Tb5      Tb       0.52058    0.43471    0.42891    1.000
    C73      C        0.68380    0.90760    0.32200    1.000
    H37      H        0.67720    0.86230    0.29570    1.000
    C74      C        0.76070    0.92270    0.36800    1.000
    H38      H        0.80470    0.88940    0.37050    1.000
    C75      C        0.76830    0.98660    0.40820    1.000
    C76      C        0.70000    0.03480    0.40340    1.000
    H39      H        0.70330    0.07700    0.43250    1.000
    C77      C        0.62840    0.01950    0.35590    1.000
    C78      C        0.84420    0.00740    0.46180    1.000
    C79      C        0.55510    0.06850    0.34760    1.000
    C80      C        0.56140    0.14720    0.37400    1.000
    H40      H        0.61170    0.16960    0.39470    1.000
    C81      C        0.49110    0.18900    0.36790    1.000
    C82      C        0.41600    0.15200    0.33690    1.000
    H41      H        0.36730    0.17780    0.33400    1.000
    C83      C        0.41670    0.07670    0.31100    1.000
    H42      H        0.36730    0.05290    0.28960    1.000
    C84      C        0.49660    0.27270    0.39140    1.000
    C85      C        0.46710    0.84570    0.36440    1.000
    H43      H        0.45820    0.89550    0.38050    1.000
    C86      C        0.46830    0.78020    0.40330    1.000
    H44      H        0.45840    0.78490    0.44380    1.000
    C87      C        0.48440    0.70780    0.38050    1.000
    C88      C        0.49650    0.70090    0.32050    1.000
    H45      H        0.50640    0.65130    0.30470    1.000
    C89      C        0.49390    0.77030    0.28260    1.000
    C90      C        0.48850    0.63140    0.42330    1.000
    N13      N        0.62100    0.95640    0.31540    1.000
    N14      N        0.48480    0.03600    0.31510    1.000
    N15      N        0.47790    0.84210    0.30500    1.000
    O25      O        0.84090    0.05620    0.50440    1.000
    O26      O        0.91010    0.97330    0.46160    1.000
    O27      O        0.46740    0.63950    0.47430    1.000
    O28      O        0.51050    0.57040    0.40190    1.000
    O29      O        0.56460    0.30750    0.40290    1.000
    O30      O        0.43530    0.30800    0.39840    1.000
    Tb6      Tb       0.02058    0.93471    0.42891    1.000
    C91      C        0.18380    0.40760    0.32200    1.000
    H46      H        0.17720    0.36230    0.29570    1.000
    C92      C        0.26070    0.42270    0.36800    1.000
    H47      H        0.30470    0.38940    0.37050    1.000
    C93      C        0.26830    0.48660    0.40820    1.000
    C94      C        0.20000    0.53480    0.40340    1.000
    H48      H        0.20330    0.57700    0.43250    1.000
    C95      C        0.12840    0.51950    0.35590    1.000
    C96      C        0.34420    0.50740    0.46180    1.000
    C97      C        0.05510    0.56850    0.34760    1.000
    C98      C        0.06140    0.64720    0.37400    1.000
    H49      H        0.11170    0.66960    0.39470    1.000
    C99      C        0.99110    0.68900    0.36790    1.000
    C100     C        0.91600    0.65200    0.33690    1.000
    H50      H        0.86730    0.67780    0.33400    1.000
    C101     C        0.91670    0.57670    0.31100    1.000
    H51      H        0.86730    0.55290    0.28960    1.000
    C102     C        0.99660    0.77270    0.39140    1.000
    C103     C        0.96710    0.34570    0.36440    1.000
    H52      H        0.95820    0.39550    0.38050    1.000
    C104     C        0.96830    0.28020    0.40330    1.000
    H53      H        0.95840    0.28490    0.44380    1.000
    C105     C        0.98440    0.20780    0.38050    1.000
    C106     C        0.99650    0.20090    0.32050    1.000
    H54      H        0.00640    0.15130    0.30470    1.000
    C107     C        0.99390    0.27030    0.28260    1.000
    C108     C        0.98850    0.13140    0.42330    1.000
    N16      N        0.12100    0.45640    0.31540    1.000
    N17      N        0.98480    0.53600    0.31510    1.000
    N18      N        0.97790    0.34210    0.30500    1.000
    O31      O        0.34090    0.55620    0.50440    1.000
    O32      O        0.41010    0.47330    0.46160    1.000
    O33      O        0.96740    0.13950    0.47430    1.000
    O34      O        0.01050    0.07040    0.40190    1.000
    O35      O        0.06460    0.80750    0.40290    1.000
    O36      O        0.93530    0.80800    0.39840    1.000
    Tb7      Tb       0.47942    0.43471    0.07109    1.000
    C109     C        0.31620    0.90760    0.17800    1.000
    H55      H        0.32280    0.86230    0.20430    1.000
    C110     C        0.23930    0.92270    0.13200    1.000
    H56      H        0.19530    0.88940    0.12950    1.000
    C111     C        0.23170    0.98660    0.09180    1.000
    C112     C        0.30000    0.03480    0.09660    1.000
    H57      H        0.29670    0.07700    0.06750    1.000
    C113     C        0.37160    0.01950    0.14410    1.000
    C114     C        0.15580    0.00740    0.03820    1.000
    C115     C        0.44490    0.06850    0.15240    1.000
    C116     C        0.43860    0.14720    0.12600    1.000
    H58      H        0.38830    0.16960    0.10530    1.000
    C117     C        0.50890    0.18900    0.13210    1.000
    C118     C        0.58400    0.15200    0.16310    1.000
    H59      H        0.63270    0.17780    0.16600    1.000
    C119     C        0.58330    0.07670    0.18900    1.000
    H60      H        0.63270    0.05290    0.21040    1.000
    C120     C        0.50340    0.27270    0.10860    1.000
    C121     C        0.53290    0.84570    0.13560    1.000
    H61      H        0.54180    0.89550    0.11950    1.000
    C122     C        0.53170    0.78020    0.09670    1.000
    H62      H        0.54160    0.78490    0.05620    1.000
    C123     C        0.51560    0.70780    0.11950    1.000
    C124     C        0.50350    0.70090    0.17950    1.000
    H63      H        0.49360    0.65130    0.19530    1.000
    C125     C        0.50610    0.77030    0.21740    1.000
    C126     C        0.51150    0.63140    0.07670    1.000
    N19      N        0.37900    0.95640    0.18460    1.000
    N20      N        0.51520    0.03600    0.18490    1.000
    N21      N        0.52210    0.84210    0.19500    1.000
    O37      O        0.15910    0.05620    0.99560    1.000
    O38      O        0.08990    0.97330    0.03840    1.000
    O39      O        0.53260    0.63950    0.02570    1.000
    O40      O        0.48950    0.57040    0.09810    1.000
    O41      O        0.43540    0.30750    0.09710    1.000
    O42      O        0.56470    0.30800    0.10160    1.000
    Tb8      Tb       0.97942    0.93471    0.07109    1.000
    C127     C        0.81620    0.40760    0.17800    1.000
    H64      H        0.82280    0.36230    0.20430    1.000
    C128     C        0.73930    0.42270    0.13200    1.000
    H65      H        0.69530    0.38940    0.12950    1.000
    C129     C        0.73170    0.48660    0.09180    1.000
    C130     C        0.80000    0.53480    0.09660    1.000
    H66      H        0.79670    0.57700    0.06750    1.000
    C131     C        0.87160    0.51950    0.14410    1.000
    C132     C        0.65580    0.50740    0.03820    1.000
    C133     C        0.94490    0.56850    0.15240    1.000
    C134     C        0.93860    0.64720    0.12600    1.000
    H67      H        0.88830    0.66960    0.10530    1.000
    C135     C        0.00890    0.68900    0.13210    1.000
    C136     C        0.08400    0.65200    0.16310    1.000
    H68      H        0.13270    0.67780    0.16600    1.000
    C137     C        0.08330    0.57670    0.18900    1.000
    H69      H        0.13270    0.55290    0.21040    1.000
    C138     C        0.00340    0.77270    0.10860    1.000
    C139     C        0.03290    0.34570    0.13560    1.000
    H70      H        0.04180    0.39550    0.11950    1.000
    C140     C        0.03170    0.28020    0.09670    1.000
    H71      H        0.04160    0.28490    0.05620    1.000
    C141     C        0.01560    0.20780    0.11950    1.000
    C142     C        0.00350    0.20090    0.17950    1.000
    H72      H        0.99360    0.15130    0.19530    1.000
    C143     C        0.00610    0.27030    0.21740    1.000
    C144     C        0.01150    0.13140    0.07670    1.000
    N22      N        0.87900    0.45640    0.18460    1.000
    N23      N        0.01520    0.53600    0.18490    1.000
    N24      N        0.02210    0.34210    0.19500    1.000
    O43      O        0.65910    0.55620    0.99560    1.000
    O44      O        0.58990    0.47330    0.03840    1.000
    O45      O        0.03260    0.13950    0.02570    1.000
    O46      O        0.98950    0.07040    0.09810    1.000
    O47      O        0.93540    0.80750    0.09710    1.000
    O48      O        0.06470    0.80800    0.10160    1.000
    Zn1      Zn       0.50000    0.05995    0.75000    1.000
    Zn2      Zn       0.00000    0.55995    0.75000    1.000
    Zn3      Zn       0.50000    0.94005    0.25000    1.000
    Zn4      Zn       0.00000    0.44005    0.25000    1.000
