# CIF file generated by openbabel 3.1.0, see https://openbabel.org
data_I
_chemical_name_common 'image0'
_cell_length_a 7.119
_cell_length_b 14.1051
_cell_length_c 17.698
_cell_angle_alpha 90
_cell_angle_beta 90
_cell_angle_gamma 90
_space_group_name_H-M_alt 'P 1'
_space_group_name_Hall 'P 1'
loop_
    _symmetry_equiv_pos_as_xyz
    x,y,z
loop_
    _atom_site_label
    _atom_site_type_symbol
    _atom_site_fract_x
    _atom_site_fract_y
    _atom_site_fract_z
    _atom_site_occupancy
    O1       O        0.82610    0.23020    0.88780    1.000
    C1       C        0.83250    0.04500    0.98410    1.000
    H1       H        0.71880    0.07470    0.97350    1.000
    O2       O        0.32610    0.73020    0.88780    1.000
    C2       C        0.33250    0.54500    0.98410    1.000
    H2       H        0.21880    0.57470    0.97350    1.000
    O3       O        0.17390    0.76980    0.38780    1.000
    C3       C        0.16750    0.95500    0.48410    1.000
    H3       H        0.28120    0.92530    0.47350    1.000
    O4       O        0.67390    0.26980    0.38780    1.000
    C4       C        0.66750    0.45500    0.48410    1.000
    H4       H        0.78120    0.42530    0.47350    1.000
    O5       O        0.17390    0.23020    0.61220    1.000
    C5       C        0.16750    0.04500    0.51590    1.000
    H5       H        0.28120    0.07470    0.52650    1.000
    O6       O        0.67390    0.73020    0.61220    1.000
    C6       C        0.66750    0.54500    0.51590    1.000
    H6       H        0.78120    0.57470    0.52650    1.000
    O7       O        0.82610    0.76980    0.11220    1.000
    C7       C        0.83250    0.95500    0.01590    1.000
    H7       H        0.71880    0.92530    0.02650    1.000
    O8       O        0.32610    0.26980    0.11220    1.000
    C8       C        0.33250    0.45500    0.01590    1.000
    H8       H        0.21880    0.42530    0.02650    1.000
    O9       O        0.17390    0.76980    0.11220    1.000
    C9       C        0.16750    0.95500    0.01590    1.000
    H9       H        0.28120    0.92530    0.02650    1.000
    O10      O        0.67390    0.26980    0.11220    1.000
    C10      C        0.66750    0.45500    0.01590    1.000
    H10      H        0.78120    0.42530    0.02650    1.000
    O11      O        0.82610    0.23020    0.61220    1.000
    C11      C        0.83250    0.04500    0.51590    1.000
    H11      H        0.71880    0.07470    0.52650    1.000
    O12      O        0.32610    0.73020    0.61220    1.000
    C12      C        0.33250    0.54500    0.51590    1.000
    H12      H        0.21880    0.57470    0.52650    1.000
    O13      O        0.82610    0.76980    0.38780    1.000
    C13      C        0.83250    0.95500    0.48410    1.000
    H13      H        0.71880    0.92530    0.47350    1.000
    O14      O        0.32610    0.26980    0.38780    1.000
    C14      C        0.33250    0.45500    0.48410    1.000
    H14      H        0.21880    0.42530    0.47350    1.000
    O15      O        0.17390    0.23020    0.88780    1.000
    C15      C        0.16750    0.04500    0.98410    1.000
    H15      H        0.28120    0.07470    0.97350    1.000
    O16      O        0.67390    0.73020    0.88780    1.000
    C16      C        0.66750    0.54500    0.98410    1.000
    H16      H        0.78120    0.57470    0.97350    1.000
    U1       U        0.50000    0.23000    0.86501    1.000
    U2       U        0.00000    0.73000    0.86501    1.000
    U3       U        0.50000    0.77000    0.36501    1.000
    U4       U        0.00000    0.27000    0.36501    1.000
    U5       U        0.50000    0.23000    0.63499    1.000
    U6       U        0.00000    0.73000    0.63499    1.000
    U7       U        0.50000    0.77000    0.13499    1.000
    U8       U        0.00000    0.27000    0.13499    1.000
    Sr1      Sr       0.00000    0.27511    0.75000    1.000
    Sr2      Sr       0.50000    0.77511    0.75000    1.000
    Sr3      Sr       0.00000    0.72489    0.25000    1.000
    Sr4      Sr       0.50000    0.22489    0.25000    1.000
    P1       P        0.00000    0.21240    0.93622    1.000
    O17      O        0.00000    0.27440    0.00670    1.000
    C17      C        0.00000    0.09140    0.96780    1.000
    P2       P        0.50000    0.71240    0.93622    1.000
    O18      O        0.50000    0.77440    0.00670    1.000
    C18      C        0.50000    0.59140    0.96780    1.000
    P3       P        0.00000    0.78760    0.43622    1.000
    O19      O        0.00000    0.72560    0.50670    1.000
    C19      C        0.00000    0.90860    0.46780    1.000
    P4       P        0.50000    0.28760    0.43622    1.000
    O20      O        0.50000    0.22560    0.50670    1.000
    C20      C        0.50000    0.40860    0.46780    1.000
    P5       P        0.00000    0.21240    0.56378    1.000
    O21      O        0.00000    0.27440    0.49330    1.000
    C21      C        0.00000    0.09140    0.53220    1.000
    P6       P        0.50000    0.71240    0.56378    1.000
    O22      O        0.50000    0.77440    0.49330    1.000
    C22      C        0.50000    0.59140    0.53220    1.000
    P7       P        0.00000    0.78760    0.06378    1.000
    O23      O        0.00000    0.72560    0.99330    1.000
    C23      C        0.00000    0.90860    0.03220    1.000
    P8       P        0.50000    0.28760    0.06378    1.000
    O24      O        0.50000    0.22560    0.99330    1.000
    C24      C        0.50000    0.40860    0.03220    1.000
    O25      O        0.67160    0.23350    0.75000    1.000
    O26      O        0.17160    0.73350    0.75000    1.000
    O27      O        0.32840    0.76650    0.25000    1.000
    O28      O        0.82840    0.26650    0.25000    1.000
    O29      O        0.32840    0.23350    0.75000    1.000
    O30      O        0.82840    0.73350    0.75000    1.000
    O31      O        0.67160    0.76650    0.25000    1.000
    O32      O        0.17160    0.26650    0.25000    1.000
