data_functionalizedCrystal
_audit_creation_method	'EQeq! by Chris Wilmer'
_symmetry_space_group_name_H-M	'P1'
_symmetry_Int_Tables_number	1
_symmetry_cell_setting	triclinic
loop_
_symmetry_equiv_pos_as_xyz
  x,y,z
_cell_length_a	10.4405
_cell_length_b	13.3926
_cell_length_c	20.454
_cell_angle_alpha	90
_cell_angle_beta	90
_cell_angle_gamma	94.425
loop_
_atom_site_label
_atom_site_type_symbol
_atom_site_fract_x
_atom_site_fract_y
_atom_site_fract_z
_atom_site_charge
Mof_Zn	Zn	0.25341	0.56273	0.1031	1.216
Mof_Zn	Zn	0.75341	0.06273	0.3969	1.216
Mof_Zn	Zn	0.24659	0.93727	0.6031	1.216
Mof_Zn	Zn	0.74659	0.43727	0.8969	1.216
Mof_H 	H 	0.7074	0.655	0.6911	0.058
Mof_H 	H 	0.6236	0.0638	0.1432	0.167
Mof_H 	H 	0.4132	0.5328	0.5475	0.046
Mof_H 	H 	0.8115	0.2215	0.0003	0.163
Mof_H 	H 	0.5868	0.4672	0.4525	0.046
Mof_H 	H 	0.5287	0.2717	0.9485	-0.005
Mof_H 	H 	0.3115	0.7215	0.4997	0.163
Mof_H 	H 	0.7972	0.658	0.2979	-0.054
Mof_H 	H 	0.4561	0.2675	0.158	0.156
Mof_H 	H 	0.243	0.8524	0.7811	-0.046
Mof_H 	H 	0.757	0.1476	0.2189	-0.046
Mof_H 	H 	0.7926	0.845	0.1911	0.058
Mof_H 	H 	0.9713	0.2283	0.4485	-0.005
Mof_H 	H 	0.8605	0.9188	0.8651	0.164
Mof_H 	H 	0.0842	0.7345	0.8133	0.156
Mof_H 	H 	0.1885	0.7785	0.9997	0.163
Mof_H 	H 	0.257	0.6476	0.2811	-0.046
Mof_H 	H 	0.9158	0.2655	0.1867	0.156
Mof_H 	H 	0.9508	0.6089	0.8469	-0.01
Mof_H 	H 	0.9342	0.7497	0.1372	0.053
Mof_H 	H 	0.3605	0.4188	0.6349	0.164
Mof_H 	H 	0.515	0.1798	0.472	0.004
Mof_H 	H 	0.2972	0.158	0.2021	-0.053
Mof_H 	H 	0.477	0.5381	0.4365	0.044
Mof_H 	H 	0.4717	0.0396	0.0626	0.046
Mof_H 	H 	0.528	0.4296	0.1081	0.005
Mof_H 	H 	0.523	0.4619	0.5635	0.044
Mof_H 	H 	0.5842	0.2345	0.6867	0.156
Mof_H 	H 	0.0492	0.3911	0.1531	-0.01
Mof_H 	H 	0.2028	0.342	0.7021	-0.054
Mof_H 	H 	0.3764	0.9362	0.8568	0.166
Mof_H 	H 	0.2984	0.2274	0.9808	0.171
Mof_H 	H 	0.9717	0.5396	0.4374	0.046
Mof_H 	H 	0.5708	0.958	0.0514	0.045
Mof_H 	H 	0.5658	0.7503	0.6372	0.054
Mof_H 	H 	0.015	0.6798	0.028	0.003
Mof_H 	H 	0.0875	0.9964	0.2806	0.058
Mof_H 	H 	0.5875	0.4964	0.2194	0.058
Mof_H 	H 	0.27	0.5965	0.7246	0.051
Mof_H 	H 	0.028	0.9296	0.3919	0.005
Mof_H 	H 	0.4713	0.7283	0.0515	-0.005
Mof_H 	H 	0.977	0.0381	0.0635	0.043
Mof_H 	H 	0.4292	0.042	0.9486	0.045
Mof_H 	H 	0.4342	0.2497	0.3628	0.054
Mof_H 	H 	0.4125	0.5036	0.7806	0.058
Mof_H 	H 	0.0868	0.9672	0.0475	0.043
Mof_H 	H 	0.73	0.4035	0.2754	0.051
Mof_H 	H 	0.972	0.0704	0.6081	0.005
Mof_H 	H 	0.5439	0.7325	0.842	0.156
Mof_H 	H 	0.6885	0.2785	0.5003	0.163
Mof_H 	H 	0.2074	0.155	0.8089	0.058
Mof_H 	H 	0.9561	0.7675	0.342	0.156
Mof_H 	H 	0.9132	0.0328	0.9525	0.043
Mof_H 	H 	0.2016	0.2726	0.4808	0.172
Mof_H 	H 	0.0658	0.2503	0.8628	0.053
Mof_H 	H 	0.7984	0.7274	0.5192	0.172
Mof_H 	H 	0.4158	0.7655	0.3133	0.156
Mof_H 	H 	0.77	0.0965	0.7754	0.051
Mof_H 	H 	0.0287	0.7717	0.5515	-0.005
Mof_H 	H 	0.1395	0.0812	0.1349	0.164
Mof_H 	H 	0.7016	0.7726	0.0192	0.171
Mof_H 	H 	0.485	0.8202	0.528	0.004
Mof_H 	H 	0.0283	0.4604	0.5626	0.046
Mof_H 	H 	0.5492	0.8911	0.3469	-0.01
Mof_H 	H 	0.2926	0.345	0.3089	0.057
Mof_H 	H 	0.472	0.5704	0.8919	0.005
Mof_H 	H 	0.9125	0.0036	0.7194	0.058
Mof_H 	H 	0.5283	0.9604	0.9374	0.046
Mof_H 	H 	0.6395	0.5812	0.3651	0.164
Mof_H 	H 	0.0708	0.458	0.4486	0.047
Mof_H 	H 	0.9292	0.542	0.5514	0.047
Mof_H 	H 	0.1236	0.5638	0.3568	0.165
Mof_H 	H 	0.023	0.9619	0.9365	0.043
Mof_H 	H 	0.0439	0.2325	0.658	0.156
Mof_H 	H 	0.985	0.3202	0.972	0.003
Mof_H 	H 	0.4508	0.1089	0.6531	-0.01
Mof_H 	H 	0.23	0.9035	0.2246	0.051
Mof_H 	H 	0.743	0.3524	0.7189	-0.046
Mof_H 	H 	0.7028	0.842	0.7979	-0.053
Mof_H 	H 	0.8764	0.4362	0.6432	0.165
Mof_C 	C 	0.0347	0.2014	0.83331	-0.012
Mof_C 	C 	0.795	0.36579	0.56443	0.332
Mof_C 	C 	0.358	0.61008	0.71905	-0.022
Mof_C 	C 	0.0325	0.5147	0.46807	0.014
Mof_C 	C 	0.6075	0.7632	0.86861	-0.331
Mof_C 	C 	0.9515	0.093	0.56665	0.102
Mof_C 	C 	0.858	0.11008	0.78095	-0.021
Mof_C 	C 	0.1371	0.7675	0.84435	-0.327
Mof_C 	C 	0.536	0.51857	0.47003	0.019
Mof_C 	C 	0.4437	0.55387	0.75208	-0.034
Mof_C 	C 	0.168	0.023	0.71415	0.311
Mof_C 	C 	0.5743	0.57157	0.74322	-0.059
Mof_C 	C 	0.142	0.88992	0.21905	-0.021
Mof_C 	C 	0.6849	0.2446	0.35198	0.327
Mof_C 	C 	0.6371	0.2675	0.65565	-0.327
Mof_C 	C 	0.879	0.25385	0.09084	0.273
Mof_C 	C 	0.3151	0.7554	0.64802	0.327
Mof_C 	C 	0.9653	0.7986	0.16669	-0.012
Mof_C 	C 	0.1083	0.24406	0.56571	0.278
Mof_C 	C 	0.4257	0.42843	0.25678	-0.059
Mof_C 	C 	0.9517	0.17956	0.48004	0.127
Mof_C 	C 	0.8925	0.7368	0.36861	-0.332
Mof_C 	C 	0.5563	0.44613	0.24792	-0.034
Mof_C 	C 	0.0563	0.94613	0.25208	-0.036
Mof_C 	C 	0.202	0.3286	0.65749	0.253
Mof_C 	C 	0.2986	0.21202	0.02512	-0.354
Mof_C 	C 	0.6083	0.74406	0.93429	0.277
Mof_C 	C 	0.9459	0.6109	0.8923	0.128
Mof_C 	C 	0.0196	0.3508	0.0095	0.108
Mof_C 	C 	0.832	0.977	0.28585	0.311
Mof_C 	C 	0.1197	0.1445	0.80099	-0.034
Mof_C 	C 	0.4653	0.2986	0.33331	-0.014
Mof_C 	C 	0.6993	0.29398	0.54435	-0.34
Mof_C 	C 	0.1075	0.2632	0.63139	-0.332
Mof_C 	C 	0.2678	0.662	0.32536	0.251
Mof_C 	C 	0.5347	0.7014	0.66669	-0.014
Mof_C 	C 	0.7678	0.162	0.17464	0.251
Mof_C 	C 	0.9804	0.6492	0.9905	0.108
Mof_C 	C 	0.3007	0.70602	0.45565	-0.34
Mof_C 	C 	0.4515	0.593	0.93335	0.103
Mof_C 	C 	0.1849	0.7446	0.14802	0.328
Mof_C 	C 	0.7964	0.8748	0.88286	-0.356
Mof_C 	C 	0.4675	0.9853	0.96807	0.016
Mof_C 	C 	0.702	0.8286	0.84251	0.252
Mof_C 	C 	0.298	0.1714	0.15749	0.252
Mof_C 	C 	0.4045	0.68669	0.67759	-0.071
Mof_C 	C 	0.3629	0.7325	0.34435	-0.327
Mof_C 	C 	0.4517	0.67956	0.01996	0.126
Mof_C 	C 	0.4459	0.1109	0.6077	0.128
Mof_C 	C 	0.705	0.6443	0.44856	0.353
Mof_C 	C 	0.5485	0.407	0.06665	0.103
Mof_C 	C 	0.205	0.63421	0.43557	0.332
Mof_C 	C 	0.2322	0.838	0.82536	0.251
Mof_C 	C 	0.668	0.523	0.78585	0.312
Mof_C 	C 	0.2036	0.1252	0.11714	-0.356
Mof_C 	C 	0.2964	0.3748	0.61714	-0.357
Mof_C 	C 	0.464	0.48143	0.52997	0.019
Mof_C 	C 	0.3125	0.8884	0.8703	-0.347
Mof_C 	C 	0.5325	0.0147	0.03193	0.016
Mof_C 	C 	0.3917	0.25594	0.06571	0.277
Mof_C 	C 	0.1875	0.6116	0.3703	-0.347
Mof_C 	C 	0.7986	0.71202	0.47488	-0.356
Mof_C 	C 	0.0955	0.81331	0.17759	-0.072
Mof_C 	C 	0.7014	0.78798	0.97488	-0.354
Mof_C 	C 	0.295	0.3557	0.55144	0.353
Mof_C 	C 	0.0483	0.82044	0.51996	0.127
Mof_C 	C 	0.8125	0.3884	0.6297	-0.347
Mof_C 	C 	0.5955	0.31331	0.32241	-0.071
Mof_C 	C 	0.0541	0.3891	0.1077	0.128
Mof_C 	C 	0.9045	0.18669	0.82241	-0.072
Mof_C 	C 	0.3925	0.2368	0.13139	-0.331
Mof_C 	C 	0.7322	0.338	0.67464	0.251
Mof_C 	C 	0.8629	0.2325	0.15565	-0.327
Mof_C 	C 	0.2014	0.28798	0.52512	-0.356
Mof_C 	C 	0.8803	0.8555	0.19901	-0.034
Mof_C 	C 	0.7036	0.6252	0.38286	-0.357
Mof_C 	C 	0.3803	0.3555	0.30099	-0.033
Mof_C 	C 	0.295	0.86579	0.93557	0.333
Mof_C 	C 	0.121	0.74615	0.90916	0.273
Mof_C 	C 	0.1993	0.79398	0.95565	-0.34
Mof_C 	C 	0.6197	0.6445	0.69901	-0.033
Mof_C 	C 	0.642	0.38992	0.28095	-0.022
Mof_C 	C 	0.5483	0.32044	0.98004	0.126
Mof_C 	C 	0.964	0.98143	0.97003	0.022
Mof_C 	C 	0.8917	0.75594	0.43429	0.278
Mof_C 	C 	0.0485	0.907	0.43335	0.102
Mof_C 	C 	0.332	0.477	0.21415	0.312
Mof_C 	C 	0.4804	0.1492	0.5095	0.106
Mof_C 	C 	0.795	0.8557	0.94856	0.353
Mof_C 	C 	0.621	0.24615	0.59084	0.273
Mof_C 	C 	0.0743	0.07157	0.75678	-0.057
Mof_C 	C 	0.705	0.13421	0.06443	0.333
Mof_C 	C 	0.798	0.6714	0.34251	0.253
Mof_C 	C 	0.8007	0.20602	0.04435	-0.34
Mof_C 	C 	0.379	0.75385	0.40916	0.273
Mof_C 	C 	0.6875	0.1116	0.1297	-0.347
Mof_C 	C 	0.5541	0.8891	0.3923	0.128
Mof_C 	C 	0.205	0.1443	0.05144	0.353
Mof_C 	C 	0.9437	0.05387	0.74792	-0.036
Mof_C 	C 	0.9675	0.4853	0.53193	0.014
Mof_C 	C 	0.8151	0.2554	0.85198	0.328
Mof_C 	C 	0.5196	0.8508	0.4905	0.106
Mof_C 	C 	0.036	0.01857	0.02997	0.022
Mof_C 	C 	0.9257	0.92843	0.24322	-0.057
Mof_N 	N 	0.1343	0.44548	0.07354	-0.236
Mof_N 	N 	0.3646	0.54895	0.97044	-0.105
Mof_N 	N 	0.1359	0.89451	0.52644	-0.237
Mof_N 	N 	0.9905	0.82401	0.46172	-0.184
Mof_N 	N 	0.0095	0.17599	0.53828	-0.184
Mof_N 	N 	0.1354	0.95105	0.47044	-0.105
Mof_N 	N 	0.521	0.17256	0.57033	-0.184
Mof_N 	N 	0.8869	0.57851	0.99108	-0.103
Mof_N 	N 	0.6359	0.39451	0.97356	-0.237
Mof_N 	N 	0.979	0.32744	0.07033	-0.184
Mof_N 	N 	0.5095	0.67599	0.96172	-0.184
Mof_N 	N 	0.8641	0.10549	0.47356	-0.237
Mof_N 	N 	0.8657	0.55452	0.92646	-0.236
Mof_N 	N 	0.4905	0.32401	0.03828	-0.184
Mof_N 	N 	0.6343	0.94548	0.42646	-0.236
Mof_N 	N 	0.3869	0.07851	0.50892	-0.103
Mof_N 	N 	0.8646	0.04895	0.52956	-0.105
Mof_N 	N 	0.1131	0.42149	0.00892	-0.103
Mof_N 	N 	0.479	0.82744	0.42967	-0.184
Mof_N 	N 	0.6131	0.92149	0.49108	-0.103
Mof_N 	N 	0.3641	0.60549	0.02644	-0.237
Mof_N 	N 	0.6354	0.45105	0.02956	-0.105
Mof_N 	N 	0.3657	0.05452	0.57354	-0.236
Mof_N 	N 	0.021	0.67256	0.92967	-0.184
Mof_O 	O 	0.61703	0.60315	0.49175	-0.263
Mof_O 	O 	0.3015	0.76556	0.14672	-0.305
Mof_O 	O 	0.78403	0.53457	0.77605	-0.311
Mof_O 	O 	0.62985	0.09221	0.0146	-0.252
Mof_O 	O 	0.71597	0.96543	0.27605	-0.311
Mof_O 	O 	0.13388	0.66118	0.12663	-0.452
Mof_O 	O 	0.37015	0.90779	0.9854	-0.252
Mof_O 	O 	0.1985	0.73444	0.64672	-0.304
Mof_O 	O 	0.38297	0.39685	0.50825	-0.263
Mof_O 	O 	0.21597	0.46543	0.22395	-0.311
Mof_O 	O 	0.87015	0.40779	0.5146	-0.251
Mof_O 	O 	0.88297	0.89685	0.99175	-0.263
Mof_O 	O 	0.12985	0.59221	0.4854	-0.251
Mof_O 	O 	0.86612	0.33882	0.87337	-0.452
Mof_O 	O 	0.6985	0.23444	0.85328	-0.305
Mof_O 	O 	0.88215	0.02952	0.33335	-0.444
Mof_O 	O 	0.61785	0.47048	0.83335	-0.444
Mof_O 	O 	0.63388	0.16118	0.37337	-0.452
Mof_O 	O 	0.11703	0.10315	0.00825	-0.263
Mof_O 	O 	0.8015	0.26556	0.35328	-0.304
Mof_O 	O 	0.38215	0.52952	0.16665	-0.444
Mof_O 	O 	0.28403	0.03457	0.72395	-0.311
Mof_O 	O 	0.36612	0.83882	0.62663	-0.452
Mof_O 	O 	0.11785	0.97048	0.66665	-0.444
_end
