# CIF file generated by openbabel 3.1.0, see https://openbabel.org
data_I
_chemical_name_common 'image0'
_cell_length_a 10.608
_cell_length_b 24.651
_cell_length_c 7.239
_cell_angle_alpha 90
_cell_angle_beta 95.291
_cell_angle_gamma 90
_space_group_name_H-M_alt 'P 1'
_space_group_name_Hall 'P 1'
loop_
    _symmetry_equiv_pos_as_xyz
    x,y,z
loop_
    _atom_site_label
    _atom_site_type_symbol
    _atom_site_fract_x
    _atom_site_fract_y
    _atom_site_fract_z
    _atom_site_occupancy
    O1       O        0.83400    0.69080    0.23420    1.000
    N1       N        0.50140    0.86670    0.09860    1.000
    N2       N        0.49920    0.91870    0.16100    1.000
    C1       C        0.61330    0.69110    0.24310    1.000
    C2       C        0.73530    0.66190    0.23560    1.000
    C3       C        0.61210    0.74790    0.24290    1.000
    H1       H        0.68770    0.76680    0.23790    1.000
    O2       O        0.74030    0.61220    0.23370    1.000
    O3       O        0.54520    0.94970    0.75690    1.000
    H2       H        0.62570    0.94970    0.76780    1.000
    O4       O        0.33400    0.19080    0.23420    1.000
    N3       N        0.00140    0.36670    0.09860    1.000
    N4       N        0.99920    0.41870    0.16100    1.000
    C4       C        0.11330    0.19110    0.24310    1.000
    C5       C        0.23530    0.16190    0.23560    1.000
    C6       C        0.11210    0.24790    0.24290    1.000
    H3       H        0.18770    0.26680    0.23790    1.000
    O5       O        0.24030    0.11220    0.23370    1.000
    O6       O        0.04520    0.44970    0.75690    1.000
    H4       H        0.12570    0.44970    0.76780    1.000
    O7       O        0.16600    0.69080    0.26580    1.000
    N5       N        0.49860    0.86670    0.40140    1.000
    N6       N        0.50080    0.91870    0.33900    1.000
    C7       C        0.38670    0.69110    0.25690    1.000
    C8       C        0.26470    0.66190    0.26440    1.000
    C9       C        0.38790    0.74790    0.25710    1.000
    H5       H        0.31230    0.76680    0.26210    1.000
    O8       O        0.25970    0.61220    0.26630    1.000
    O9       O        0.45480    0.94970    0.74310    1.000
    H6       H        0.37430    0.94970    0.73220    1.000
    O10      O        0.66600    0.19080    0.26580    1.000
    N7       N        0.99860    0.36670    0.40140    1.000
    N8       N        0.00080    0.41870    0.33900    1.000
    C10      C        0.88670    0.19110    0.25690    1.000
    C11      C        0.76470    0.16190    0.26440    1.000
    C12      C        0.88790    0.24790    0.25710    1.000
    H7       H        0.81230    0.26680    0.26210    1.000
    O11      O        0.75970    0.11220    0.26630    1.000
    O12      O        0.95480    0.44970    0.74310    1.000
    H8       H        0.87430    0.44970    0.73220    1.000
    O13      O        0.16600    0.30920    0.76580    1.000
    N9       N        0.49860    0.13330    0.90140    1.000
    N10      N        0.50080    0.08130    0.83900    1.000
    C13      C        0.38670    0.30890    0.75690    1.000
    C14      C        0.26470    0.33810    0.76440    1.000
    C15      C        0.38790    0.25210    0.75710    1.000
    H9       H        0.31230    0.23320    0.76210    1.000
    O14      O        0.25970    0.38780    0.76630    1.000
    O15      O        0.45480    0.05030    0.24310    1.000
    H10      H        0.37430    0.05030    0.23220    1.000
    O16      O        0.66600    0.80920    0.76580    1.000
    N11      N        0.99860    0.63330    0.90140    1.000
    N12      N        0.00080    0.58130    0.83900    1.000
    C16      C        0.88670    0.80890    0.75690    1.000
    C17      C        0.76470    0.83810    0.76440    1.000
    C18      C        0.88790    0.75210    0.75710    1.000
    H11      H        0.81230    0.73320    0.76210    1.000
    O17      O        0.75970    0.88780    0.76630    1.000
    O18      O        0.95480    0.55030    0.24310    1.000
    H12      H        0.87430    0.55030    0.23220    1.000
    O19      O        0.83400    0.30920    0.73420    1.000
    N13      N        0.50140    0.13330    0.59860    1.000
    N14      N        0.49920    0.08130    0.66100    1.000
    C19      C        0.61330    0.30890    0.74310    1.000
    C20      C        0.73530    0.33810    0.73560    1.000
    C21      C        0.61210    0.25210    0.74290    1.000
    H13      H        0.68770    0.23320    0.73790    1.000
    O20      O        0.74030    0.38780    0.73370    1.000
    O21      O        0.54520    0.05030    0.25690    1.000
    H14      H        0.62570    0.05030    0.26780    1.000
    O22      O        0.33400    0.80920    0.73420    1.000
    N15      N        0.00140    0.63330    0.59860    1.000
    N16      N        0.99920    0.58130    0.66100    1.000
    C22      C        0.11330    0.80890    0.74310    1.000
    C23      C        0.23530    0.83810    0.73560    1.000
    C24      C        0.11210    0.75210    0.74290    1.000
    H15      H        0.18770    0.73320    0.73790    1.000
    O23      O        0.24030    0.88780    0.73370    1.000
    O24      O        0.04520    0.55030    0.25690    1.000
    H16      H        0.12570    0.55030    0.26780    1.000
    Cd1      Cd       0.50000    0.86152    0.75000    1.000
    Cd2      Cd       0.00000    0.36152    0.75000    1.000
    Cd3      Cd       0.50000    0.13848    0.25000    1.000
    Cd4      Cd       0.00000    0.63848    0.25000    1.000
    Cd5      Cd       0.50000    0.00000    0.00000    1.000
    Cd6      Cd       0.00000    0.50000    0.00000    1.000
    Cd7      Cd       0.50000    0.00000    0.50000    1.000
    Cd8      Cd       0.00000    0.50000    0.50000    1.000
    C25      C        0.50000    0.77650    0.25000    1.000
    C26      C        0.50000    0.66370    0.25000    1.000
    H17      H        0.50000    0.62600    0.25000    1.000
    C27      C        0.50000    0.83640    0.25000    1.000
    C28      C        0.00000    0.27650    0.25000    1.000
    C29      C        0.00000    0.16370    0.25000    1.000
    H18      H        0.00000    0.12600    0.25000    1.000
    C30      C        0.00000    0.33640    0.25000    1.000
    C31      C        0.50000    0.22350    0.75000    1.000
    C32      C        0.50000    0.33630    0.75000    1.000
    H19      H        0.50000    0.37400    0.75000    1.000
    C33      C        0.50000    0.16360    0.75000    1.000
    C34      C        0.00000    0.72350    0.75000    1.000
    C35      C        0.00000    0.83630    0.75000    1.000
    H20      H        0.00000    0.87400    0.75000    1.000
    C36      C        0.00000    0.66360    0.75000    1.000
