data_functionalizedCrystal
_audit_creation_method	'EQeq! by Chris Wilmer'
_symmetry_space_group_name_H-M	'P1'
_symmetry_Int_Tables_number	1
_symmetry_cell_setting	triclinic
loop_
_symmetry_equiv_pos_as_xyz
  x,y,z
_cell_length_a	12.3214
_cell_length_b	12.3214
_cell_length_c	26.0026
_cell_angle_alpha	90
_cell_angle_beta	90
_cell_angle_gamma	90
loop_
_atom_site_label
_atom_site_type_symbol
_atom_site_fract_x
_atom_site_fract_y
_atom_site_fract_z
_atom_site_charge
Mof_Co	Co	0.19367	0.29859	0.31598	1.112
Mof_C 	C 	0.1766	0.3819	0.4044	0.313
Mof_C 	C 	0.1704	0.442	0.454	-0.117
Mof_C 	C 	0.161	0.5559	0.4544	0.049
Mof_H 	H 	0.1578	0.5949	0.4238	0.02
Mof_C 	C 	0.2957	0.0113	0.2537	0.08
Mof_H 	H 	0.3174	0.9695	0.2258	-0.034
Mof_C 	C 	0.2497	0.058	0.3279	0.197
Mof_N 	N 	0.246	0.1477	0.29954	-0.266
Mof_N 	N 	0.2814	0.9702	0.301	-0.279
Mof_N 	N 	0.2214	0.0549	0.3787	-0.347
Mof_H 	H 	0.1998	0.1131	0.3939	0.154
Mof_H 	H 	0.2252	0.9949	0.3955	0.162
Mof_N 	N 	0.2763	0.1158	0.25042	-0.243
Mof_O 	O 	0.1689	0.2812	0.4035	-0.401
Mof_O 	O 	0.1888	0.4365	0.36294	-0.42
Mof_Co	Co	0.69367	0.79859	0.81598	1.113
Mof_C 	C 	0.6766	0.8819	0.9044	0.314
Mof_C 	C 	0.6704	0.942	0.954	-0.115
Mof_C 	C 	0.661	0.0559	0.9544	0.055
Mof_H 	H 	0.6578	0.0949	0.9238	0.018
Mof_C 	C 	0.7957	0.5113	0.7537	0.08
Mof_H 	H 	0.8174	0.4695	0.7258	-0.034
Mof_C 	C 	0.7497	0.558	0.8279	0.197
Mof_N 	N 	0.746	0.6477	0.79954	-0.266
Mof_N 	N 	0.7814	0.4702	0.801	-0.279
Mof_N 	N 	0.7214	0.5549	0.8787	-0.347
Mof_H 	H 	0.6998	0.6131	0.8939	0.154
Mof_H 	H 	0.7252	0.4949	0.8955	0.162
Mof_N 	N 	0.7763	0.6158	0.75042	-0.243
Mof_O 	O 	0.6689	0.7812	0.9035	-0.401
Mof_O 	O 	0.6888	0.9365	0.86294	-0.42
Mof_Co	Co	0.80633	0.70141	0.31598	1.113
Mof_C 	C 	0.8234	0.6181	0.4044	0.314
Mof_C 	C 	0.8296	0.558	0.454	-0.116
Mof_C 	C 	0.839	0.4441	0.4544	0.05
Mof_H 	H 	0.8422	0.4051	0.4238	0.02
Mof_C 	C 	0.7043	0.9887	0.2537	0.08
Mof_H 	H 	0.6826	0.0305	0.2258	-0.034
Mof_C 	C 	0.7503	0.942	0.3279	0.197
Mof_N 	N 	0.754	0.8523	0.29954	-0.266
Mof_N 	N 	0.7186	0.0298	0.301	-0.279
Mof_N 	N 	0.7786	0.9451	0.3787	-0.347
Mof_H 	H 	0.8002	0.8869	0.3939	0.154
Mof_H 	H 	0.7748	0.0051	0.3955	0.162
Mof_N 	N 	0.7237	0.8842	0.25042	-0.243
Mof_O 	O 	0.8311	0.7188	0.4035	-0.401
Mof_O 	O 	0.8112	0.5635	0.36294	-0.42
Mof_Co	Co	0.30633	0.20141	0.81598	1.113
Mof_C 	C 	0.3234	0.1181	0.9044	0.314
Mof_C 	C 	0.3296	0.058	0.954	-0.115
Mof_C 	C 	0.339	0.9441	0.9544	0.055
Mof_H 	H 	0.3422	0.9051	0.9238	0.018
Mof_C 	C 	0.2043	0.4887	0.7537	0.08
Mof_H 	H 	0.1826	0.5305	0.7258	-0.034
Mof_C 	C 	0.2503	0.442	0.8279	0.197
Mof_N 	N 	0.254	0.3523	0.79954	-0.266
Mof_N 	N 	0.2186	0.5298	0.801	-0.279
Mof_N 	N 	0.2786	0.4451	0.8787	-0.347
Mof_H 	H 	0.3002	0.3869	0.8939	0.154
Mof_H 	H 	0.2748	0.5051	0.8955	0.162
Mof_N 	N 	0.2237	0.3842	0.75042	-0.243
Mof_O 	O 	0.3311	0.2188	0.9035	-0.401
Mof_O 	O 	0.3112	0.0635	0.86294	-0.42
Mof_Co	Co	0.70141	0.19367	0.31598	1.113
Mof_C 	C 	0.6181	0.1766	0.4044	0.314
Mof_C 	C 	0.558	0.1704	0.454	-0.116
Mof_C 	C 	0.4441	0.161	0.4544	0.05
Mof_H 	H 	0.4051	0.1578	0.4238	0.02
Mof_C 	C 	0.9887	0.2957	0.2537	0.08
Mof_H 	H 	0.0305	0.3174	0.2258	-0.034
Mof_C 	C 	0.942	0.2497	0.3279	0.197
Mof_N 	N 	0.8523	0.246	0.29954	-0.266
Mof_N 	N 	0.0298	0.2814	0.301	-0.279
Mof_N 	N 	0.9451	0.2214	0.3787	-0.347
Mof_H 	H 	0.8869	0.1998	0.3939	0.154
Mof_H 	H 	0.0051	0.2252	0.3955	0.162
Mof_N 	N 	0.8842	0.2763	0.25042	-0.243
Mof_O 	O 	0.7188	0.1689	0.4035	-0.401
Mof_O 	O 	0.5635	0.1888	0.36294	-0.42
Mof_Co	Co	0.20141	0.69367	0.81598	1.113
Mof_C 	C 	0.1181	0.6766	0.9044	0.314
Mof_C 	C 	0.058	0.6704	0.954	-0.115
Mof_C 	C 	0.9441	0.661	0.9544	0.055
Mof_H 	H 	0.9051	0.6578	0.9238	0.018
Mof_C 	C 	0.4887	0.7957	0.7537	0.08
Mof_H 	H 	0.5305	0.8174	0.7258	-0.034
Mof_C 	C 	0.442	0.7497	0.8279	0.197
Mof_N 	N 	0.3523	0.746	0.79954	-0.266
Mof_N 	N 	0.5298	0.7814	0.801	-0.279
Mof_N 	N 	0.4451	0.7214	0.8787	-0.347
Mof_H 	H 	0.3869	0.6998	0.8939	0.154
Mof_H 	H 	0.5051	0.7252	0.8955	0.162
Mof_N 	N 	0.3842	0.7763	0.75042	-0.243
Mof_O 	O 	0.2188	0.6689	0.9035	-0.401
Mof_O 	O 	0.0635	0.6888	0.86294	-0.42
Mof_Co	Co	0.29859	0.80633	0.31598	1.113
Mof_C 	C 	0.3819	0.8234	0.4044	0.314
Mof_C 	C 	0.442	0.8296	0.454	-0.116
Mof_C 	C 	0.5559	0.839	0.4544	0.05
Mof_H 	H 	0.5949	0.8422	0.4238	0.02
Mof_C 	C 	0.0113	0.7043	0.2537	0.08
Mof_H 	H 	0.9695	0.6826	0.2258	-0.034
Mof_C 	C 	0.058	0.7503	0.3279	0.197
Mof_N 	N 	0.1477	0.754	0.29954	-0.266
Mof_N 	N 	0.9702	0.7186	0.301	-0.279
Mof_N 	N 	0.0549	0.7786	0.3787	-0.347
Mof_H 	H 	0.1131	0.8002	0.3939	0.154
Mof_H 	H 	0.9949	0.7748	0.3955	0.162
Mof_N 	N 	0.1158	0.7237	0.25042	-0.243
Mof_O 	O 	0.2812	0.8311	0.4035	-0.401
Mof_O 	O 	0.4365	0.8112	0.36294	-0.42
Mof_Co	Co	0.79859	0.30633	0.81598	1.113
Mof_C 	C 	0.8819	0.3234	0.9044	0.314
Mof_C 	C 	0.942	0.3296	0.954	-0.115
Mof_C 	C 	0.0559	0.339	0.9544	0.055
Mof_H 	H 	0.0949	0.3422	0.9238	0.018
Mof_C 	C 	0.5113	0.2043	0.7537	0.08
Mof_H 	H 	0.4695	0.1826	0.7258	-0.034
Mof_C 	C 	0.558	0.2503	0.8279	0.197
Mof_N 	N 	0.6477	0.254	0.79954	-0.266
Mof_N 	N 	0.4702	0.2186	0.801	-0.279
Mof_N 	N 	0.5549	0.2786	0.8787	-0.347
Mof_H 	H 	0.6131	0.3002	0.8939	0.154
Mof_H 	H 	0.4949	0.2748	0.8955	0.162
Mof_N 	N 	0.6158	0.2237	0.75042	-0.243
Mof_O 	O 	0.7812	0.3311	0.9035	-0.401
Mof_O 	O 	0.9365	0.3112	0.86294	-0.42
Mof_Co	Co	0.80633	0.70141	0.68402	1.113
Mof_C 	C 	0.8234	0.6181	0.5956	0.314
Mof_C 	C 	0.8296	0.558	0.546	-0.116
Mof_C 	C 	0.839	0.4441	0.5456	0.05
Mof_H 	H 	0.8422	0.4051	0.5762	0.02
Mof_C 	C 	0.7043	0.9887	0.7463	0.08
Mof_H 	H 	0.6826	0.0305	0.7742	-0.034
Mof_C 	C 	0.7503	0.942	0.6721	0.197
Mof_N 	N 	0.754	0.8523	0.70046	-0.266
Mof_N 	N 	0.7186	0.0298	0.699	-0.279
Mof_N 	N 	0.7786	0.9451	0.6213	-0.347
Mof_H 	H 	0.8002	0.8869	0.6061	0.154
Mof_H 	H 	0.7748	0.0051	0.6045	0.162
Mof_N 	N 	0.7237	0.8842	0.74958	-0.243
Mof_O 	O 	0.8311	0.7188	0.5965	-0.401
Mof_O 	O 	0.8112	0.5635	0.63706	-0.42
Mof_Co	Co	0.30633	0.20141	0.18402	1.113
Mof_C 	C 	0.3234	0.1181	0.0956	0.315
Mof_C 	C 	0.3296	0.058	0.046	-0.117
Mof_C 	C 	0.339	0.9441	0.0456	0.053
Mof_H 	H 	0.3422	0.9051	0.0762	0.019
Mof_C 	C 	0.2043	0.4887	0.2463	0.08
Mof_H 	H 	0.1826	0.5305	0.2742	-0.034
Mof_C 	C 	0.2503	0.442	0.1721	0.197
Mof_N 	N 	0.254	0.3523	0.20046	-0.266
Mof_N 	N 	0.2186	0.5298	0.199	-0.279
Mof_N 	N 	0.2786	0.4451	0.1213	-0.347
Mof_H 	H 	0.3002	0.3869	0.1061	0.154
Mof_H 	H 	0.2748	0.5051	0.1045	0.162
Mof_N 	N 	0.2237	0.3842	0.24958	-0.243
Mof_O 	O 	0.3311	0.2188	0.0965	-0.401
Mof_O 	O 	0.3112	0.0635	0.13706	-0.42
Mof_Co	Co	0.19367	0.29859	0.68402	1.113
Mof_C 	C 	0.1766	0.3819	0.5956	0.314
Mof_C 	C 	0.1704	0.442	0.546	-0.116
Mof_C 	C 	0.161	0.5559	0.5456	0.05
Mof_H 	H 	0.1578	0.5949	0.5762	0.02
Mof_C 	C 	0.2957	0.0113	0.7463	0.08
Mof_H 	H 	0.3174	0.9695	0.7742	-0.034
Mof_C 	C 	0.2497	0.058	0.6721	0.197
Mof_N 	N 	0.246	0.1477	0.70046	-0.266
Mof_N 	N 	0.2814	0.9702	0.699	-0.279
Mof_N 	N 	0.2214	0.0549	0.6213	-0.347
Mof_H 	H 	0.1998	0.1131	0.6061	0.154
Mof_H 	H 	0.2252	0.9949	0.6045	0.162
Mof_N 	N 	0.2763	0.1158	0.74958	-0.243
Mof_O 	O 	0.1689	0.2812	0.5965	-0.401
Mof_O 	O 	0.1888	0.4365	0.63706	-0.42
Mof_Co	Co	0.69367	0.79859	0.18402	1.113
Mof_C 	C 	0.6766	0.8819	0.0956	0.315
Mof_C 	C 	0.6704	0.942	0.046	-0.117
Mof_C 	C 	0.661	0.0559	0.0456	0.053
Mof_H 	H 	0.6578	0.0949	0.0762	0.019
Mof_C 	C 	0.7957	0.5113	0.2463	0.08
Mof_H 	H 	0.8174	0.4695	0.2742	-0.034
Mof_C 	C 	0.7497	0.558	0.1721	0.197
Mof_N 	N 	0.746	0.6477	0.20046	-0.266
Mof_N 	N 	0.7814	0.4702	0.199	-0.279
Mof_N 	N 	0.7214	0.5549	0.1213	-0.347
Mof_H 	H 	0.6998	0.6131	0.1061	0.154
Mof_H 	H 	0.7252	0.4949	0.1045	0.162
Mof_N 	N 	0.7763	0.6158	0.24958	-0.243
Mof_O 	O 	0.6689	0.7812	0.0965	-0.401
Mof_O 	O 	0.6888	0.9365	0.13706	-0.42
Mof_Co	Co	0.29859	0.80633	0.68402	1.113
Mof_C 	C 	0.3819	0.8234	0.5956	0.314
Mof_C 	C 	0.442	0.8296	0.546	-0.116
Mof_C 	C 	0.5559	0.839	0.5456	0.05
Mof_H 	H 	0.5949	0.8422	0.5762	0.02
Mof_C 	C 	0.0113	0.7043	0.7463	0.08
Mof_H 	H 	0.9695	0.6826	0.7742	-0.034
Mof_C 	C 	0.058	0.7503	0.6721	0.197
Mof_N 	N 	0.1477	0.754	0.70046	-0.266
Mof_N 	N 	0.9702	0.7186	0.699	-0.279
Mof_N 	N 	0.0549	0.7786	0.6213	-0.347
Mof_H 	H 	0.1131	0.8002	0.6061	0.154
Mof_H 	H 	0.9949	0.7748	0.6045	0.162
Mof_N 	N 	0.1158	0.7237	0.74958	-0.243
Mof_O 	O 	0.2812	0.8311	0.5965	-0.401
Mof_O 	O 	0.4365	0.8112	0.63706	-0.42
Mof_Co	Co	0.79859	0.30633	0.18402	1.113
Mof_C 	C 	0.8819	0.3234	0.0956	0.315
Mof_C 	C 	0.942	0.3296	0.046	-0.117
Mof_C 	C 	0.0559	0.339	0.0456	0.053
Mof_H 	H 	0.0949	0.3422	0.0762	0.019
Mof_C 	C 	0.5113	0.2043	0.2463	0.08
Mof_H 	H 	0.4695	0.1826	0.2742	-0.034
Mof_C 	C 	0.558	0.2503	0.1721	0.197
Mof_N 	N 	0.6477	0.254	0.20046	-0.266
Mof_N 	N 	0.4702	0.2186	0.199	-0.279
Mof_N 	N 	0.5549	0.2786	0.1213	-0.347
Mof_H 	H 	0.6131	0.3002	0.1061	0.154
Mof_H 	H 	0.4949	0.2748	0.1045	0.162
Mof_N 	N 	0.6158	0.2237	0.24958	-0.243
Mof_O 	O 	0.7812	0.3311	0.0965	-0.401
Mof_O 	O 	0.9365	0.3112	0.13706	-0.42
Mof_Co	Co	0.70141	0.19367	0.68402	1.113
Mof_C 	C 	0.6181	0.1766	0.5956	0.314
Mof_C 	C 	0.558	0.1704	0.546	-0.116
Mof_C 	C 	0.4441	0.161	0.5456	0.05
Mof_H 	H 	0.4051	0.1578	0.5762	0.02
Mof_C 	C 	0.9887	0.2957	0.7463	0.08
Mof_H 	H 	0.0305	0.3174	0.7742	-0.034
Mof_C 	C 	0.942	0.2497	0.6721	0.197
Mof_N 	N 	0.8523	0.246	0.70046	-0.266
Mof_N 	N 	0.0298	0.2814	0.699	-0.279
Mof_N 	N 	0.9451	0.2214	0.6213	-0.347
Mof_H 	H 	0.8869	0.1998	0.6061	0.154
Mof_H 	H 	0.0051	0.2252	0.6045	0.162
Mof_N 	N 	0.8842	0.2763	0.74958	-0.243
Mof_O 	O 	0.7188	0.1689	0.5965	-0.401
Mof_O 	O 	0.5635	0.1888	0.63706	-0.42
Mof_Co	Co	0.20141	0.69367	0.18402	1.113
Mof_C 	C 	0.1181	0.6766	0.0956	0.315
Mof_C 	C 	0.058	0.6704	0.046	-0.117
Mof_C 	C 	0.9441	0.661	0.0456	0.053
Mof_H 	H 	0.9051	0.6578	0.0762	0.019
Mof_C 	C 	0.4887	0.7957	0.2463	0.08
Mof_H 	H 	0.5305	0.8174	0.2742	-0.034
Mof_C 	C 	0.442	0.7497	0.1721	0.197
Mof_N 	N 	0.3523	0.746	0.20046	-0.266
Mof_N 	N 	0.5298	0.7814	0.199	-0.279
Mof_N 	N 	0.4451	0.7214	0.1213	-0.347
Mof_H 	H 	0.3869	0.6998	0.1061	0.154
Mof_H 	H 	0.5051	0.7252	0.1045	0.162
Mof_N 	N 	0.3842	0.7763	0.24958	-0.243
Mof_O 	O 	0.2188	0.6689	0.0965	-0.401
Mof_O 	O 	0.0635	0.6888	0.13706	-0.42
Mof_C 	C 	0.1724	0.3858	0.5	0.049
Mof_H 	H 	0.1752	0.3104	0.5	0.031
Mof_C 	C 	0.1566	0.6069	0.5	-0.121
Mof_H 	H 	0.1502	0.6821	0.5	0.074
Mof_C 	C 	0.6724	0.8858	-0	0.047
Mof_H 	H 	0.6752	0.8104	-0	0.031
Mof_C 	C 	0.6566	0.1069	-0	-0.128
Mof_H 	H 	0.6502	0.1821	-0	0.076
Mof_C 	C 	0.8276	0.6142	0.5	0.049
Mof_H 	H 	0.8248	0.6896	0.5	0.031
Mof_C 	C 	0.8434	0.3931	0.5	-0.121
Mof_H 	H 	0.8498	0.3179	0.5	0.074
Mof_C 	C 	0.3276	0.1142	-0	0.047
Mof_H 	H 	0.3248	0.1896	-0	0.031
Mof_C 	C 	0.3434	0.8931	-0	-0.128
Mof_H 	H 	0.3498	0.8179	-0	0.076
Mof_C 	C 	0.6142	0.1724	0.5	0.049
Mof_H 	H 	0.6896	0.1752	0.5	0.031
Mof_C 	C 	0.3931	0.1566	0.5	-0.121
Mof_H 	H 	0.3179	0.1502	0.5	0.074
Mof_C 	C 	0.1142	0.6724	-0	0.047
Mof_H 	H 	0.1896	0.6752	-0	0.031
Mof_C 	C 	0.8931	0.6566	-0	-0.128
Mof_H 	H 	0.8179	0.6502	-0	0.076
Mof_C 	C 	0.3858	0.8276	0.5	0.049
Mof_H 	H 	0.3104	0.8248	0.5	0.031
Mof_C 	C 	0.6069	0.8434	0.5	-0.121
Mof_H 	H 	0.6821	0.8498	0.5	0.074
Mof_C 	C 	0.8858	0.3276	-0	0.047
Mof_H 	H 	0.8104	0.3248	-0	0.031
Mof_C 	C 	0.1069	0.3434	-0	-0.128
Mof_H 	H 	0.1821	0.3498	-0	0.076
_end
