data_functionalizedCrystal
_audit_creation_method	'EQeq! by Chris Wilmer'
_symmetry_space_group_name_H-M	'P1'
_symmetry_Int_Tables_number	1
_symmetry_cell_setting	triclinic
loop_
_symmetry_equiv_pos_as_xyz
  x,y,z
_cell_length_a	6.8127
_cell_length_b	13.7142
_cell_length_c	16.0701
_cell_angle_alpha	90
_cell_angle_beta	90
_cell_angle_gamma	90
loop_
_atom_site_label
_atom_site_type_symbol
_atom_site_fract_x
_atom_site_fract_y
_atom_site_fract_z
_atom_site_charge
Mof_V 	V 	0.43417	0.76462	0.00141	1.833
Mof_V 	V 	0.06583	0.23538	0.50141	1.831
Mof_V 	V 	0.56583	0.26462	0.49859	1.834
Mof_V 	V 	0.93417	0.73538	0.99859	1.833
Mof_H 	H 	0.967	0.4571	0.6761	0.06
Mof_H 	H 	0.9464	0.566	0.7857	0.051
Mof_H 	H 	0.5279	0.6081	0.7755	0.056
Mof_H 	H 	0.5486	0.5009	0.6648	0.056
Mof_H 	H 	0.533	0.5429	0.1761	0.058
Mof_H 	H 	0.5536	0.434	0.2857	0.055
Mof_H 	H 	0.9721	0.3919	0.2755	0.06
Mof_H 	H 	0.9514	0.4991	0.1648	0.055
Mof_H 	H 	0.033	0.9571	0.8239	0.069
Mof_H 	H 	0.0536	0.066	0.7143	0.045
Mof_H 	H 	0.4721	0.1081	0.7245	0.053
Mof_H 	H 	0.4514	0.0009	0.8352	0.058
Mof_H 	H 	0.467	0.0429	0.3239	0.058
Mof_H 	H 	0.4464	0.934	0.2143	0.054
Mof_H 	H 	0.0279	0.8919	0.2245	0.057
Mof_H 	H 	0.0486	0.9991	0.3352	0.057
Mof_C 	C 	0.2758	0.38864	0.59585	0.427
Mof_C 	C 	0.2609	0.46563	0.66145	-0.083
Mof_C 	C 	0.08	0.48665	0.69663	-0.016
Mof_C 	C 	0.0679	0.55168	0.76233	-0.001
Mof_C 	C 	0.2358	0.5955	0.7934	-0.091
Mof_C 	C 	0.4155	0.57704	0.75607	-0.005
Mof_C 	C 	0.428	0.51266	0.69005	-0.012
Mof_C 	C 	0.223	0.65783	0.86938	0.43
Mof_C 	C 	0.2242	0.61136	0.09585	0.427
Mof_C 	C 	0.2391	0.53437	0.16145	-0.086
Mof_C 	C 	0.42	0.51335	0.19663	-0.009
Mof_C 	C 	0.4321	0.44832	0.26233	-0.009
Mof_C 	C 	0.2642	0.4045	0.2934	-0.086
Mof_C 	C 	0.0845	0.42296	0.25607	-0.013
Mof_C 	C 	0.072	0.48734	0.19005	-0.008
Mof_C 	C 	0.277	0.34217	0.36938	0.429
Mof_C 	C 	0.7242	0.88864	0.90415	0.423
Mof_C 	C 	0.7391	0.96563	0.83855	-0.073
Mof_C 	C 	0.92	0.98665	0.80337	-0.034
Mof_C 	C 	0.9321	0.05168	0.73767	0.014
Mof_C 	C 	0.7642	0.0955	0.7066	-0.099
Mof_C 	C 	0.5845	0.07704	0.74393	0.003
Mof_C 	C 	0.572	0.01266	0.80995	-0.02
Mof_C 	C 	0.777	0.15783	0.63062	0.433
Mof_C 	C 	0.7758	0.11136	0.40415	0.426
Mof_C 	C 	0.7609	0.03437	0.33855	-0.081
Mof_C 	C 	0.58	0.01335	0.30337	-0.014
Mof_C 	C 	0.5679	0.94832	0.23767	-0.005
Mof_C 	C 	0.7358	0.9045	0.2066	-0.089
Mof_C 	C 	0.9155	0.92296	0.24393	-0.007
Mof_C 	C 	0.928	0.98734	0.30995	-0.014
Mof_C 	C 	0.723	0.84217	0.13062	0.43
Mof_O 	O 	0.21608	0.80953	0.00983	-0.674
Mof_O 	O 	0.44412	0.36597	0.5708	-0.512
Mof_O 	O 	0.38318	0.689	0.89881	-0.501
Mof_O 	O 	0.05606	0.67296	0.89933	-0.512
Mof_O 	O 	0.11665	0.35088	0.57168	-0.504
Mof_O 	O 	0.28392	0.19047	0.50983	-0.676
Mof_O 	O 	0.05588	0.63403	0.0708	-0.512
Mof_O 	O 	0.11682	0.311	0.39881	-0.503
Mof_O 	O 	0.44394	0.32704	0.39933	-0.515
Mof_O 	O 	0.38335	0.64912	0.07168	-0.503
Mof_O 	O 	0.78392	0.30953	0.49017	-0.674
Mof_O 	O 	0.55588	0.86597	0.9292	-0.51
Mof_O 	O 	0.61682	0.189	0.60119	-0.503
Mof_O 	O 	0.94394	0.17296	0.60067	-0.514
Mof_O 	O 	0.88335	0.85088	0.92832	-0.503
Mof_O 	O 	0.71608	0.69047	0.99017	-0.674
Mof_O 	O 	0.94412	0.13403	0.4292	-0.51
Mof_O 	O 	0.88318	0.811	0.10119	-0.502
Mof_O 	O 	0.55606	0.82704	0.10067	-0.515
Mof_O 	O 	0.61665	0.14912	0.42832	-0.503
_end
