data_functionalizedCrystal
_audit_creation_method	'EQeq! by Chris Wilmer'
_symmetry_space_group_name_H-M	'P1'
_symmetry_Int_Tables_number	1
_symmetry_cell_setting	triclinic
loop_
_symmetry_equiv_pos_as_xyz
  x,y,z
_cell_length_a	15.692
_cell_length_b	8.8335
_cell_length_c	9.529
_cell_angle_alpha	90
_cell_angle_beta	125.56
_cell_angle_gamma	90
loop_
_atom_site_label
_atom_site_type_symbol
_atom_site_fract_x
_atom_site_fract_y
_atom_site_fract_z
_atom_site_charge
Mof_N 	N 	0.20422	0.0339	0.0846	-0.078
Mof_N 	N 	0.2487	0.968	0.2163	-0.02
Mof_N 	N 	0.29283	0.8989	0.3452	-0.067
Mof_N 	N 	0.42276	0.2287	0.2428	-0.069
Mof_N 	N 	0.70422	0.5339	0.0846	-0.081
Mof_N 	N 	0.7487	0.468	0.2163	-0.021
Mof_N 	N 	0.79283	0.3989	0.3452	-0.07
Mof_N 	N 	0.92276	0.7287	0.2428	-0.078
Mof_N 	N 	0.79578	0.0339	0.4154	-0.068
Mof_N 	N 	0.7513	0.968	0.2837	-0.02
Mof_N 	N 	0.70717	0.8989	0.1548	-0.077
Mof_N 	N 	0.57724	0.2287	0.2572	-0.074
Mof_N 	N 	0.29578	0.5339	0.4154	-0.065
Mof_N 	N 	0.2513	0.468	0.2837	-0.018
Mof_N 	N 	0.20717	0.3989	0.1548	-0.075
Mof_N 	N 	0.07724	0.7287	0.2572	-0.072
Mof_N 	N 	0.79578	0.9661	0.9154	-0.037
Mof_N 	N 	0.7513	0.032	0.7837	-0.01
Mof_N 	N 	0.70717	0.1011	0.6548	-0.06
Mof_N 	N 	0.57724	0.7713	0.7572	-0.046
Mof_N 	N 	0.29578	0.4661	0.9154	-0.034
Mof_N 	N 	0.2513	0.532	0.7837	-0.009
Mof_N 	N 	0.20717	0.6011	0.6548	-0.058
Mof_N 	N 	0.07724	0.2713	0.7572	-0.045
Mof_N 	N 	0.20422	0.9661	0.5846	-0.061
Mof_N 	N 	0.2487	0.032	0.7163	-0.01
Mof_N 	N 	0.29283	0.1011	0.8452	-0.038
Mof_N 	N 	0.42276	0.7713	0.7428	-0.053
Mof_N 	N 	0.70422	0.4661	0.5846	-0.063
Mof_N 	N 	0.7487	0.532	0.7163	-0.012
Mof_N 	N 	0.79283	0.6011	0.8452	-0.04
Mof_N 	N 	0.92276	0.2713	0.7428	-0.063
Mof_Cd	Cd	0.25	0.25	-0	0.381
Mof_Cd	Cd	0.75	0.25	0.5	0.439
Mof_Cd	Cd	0.75	0.75	-0	0.377
Mof_Cd	Cd	0.25	0.75	0.5	0.443
Mof_N 	N 	0.5	0.23	0.25	-0.024
Mof_N 	N 	1.32251e-17	0.73	0.25	-0.014
Mof_N 	N 	0.5	0.77	0.75	-0.01
Mof_N 	N 	2.7007e-33	0.27	0.75	0
_end
