data_functionalizedCrystal
_audit_creation_method	'EQeq! by Chris Wilmer'
_symmetry_space_group_name_H-M	'P1'
_symmetry_Int_Tables_number	1
_symmetry_cell_setting	triclinic
loop_
_symmetry_equiv_pos_as_xyz
  x,y,z
_cell_length_a	13.873
_cell_length_b	13.873
_cell_length_c	18.455
_cell_angle_alpha	90
_cell_angle_beta	90
_cell_angle_gamma	120
loop_
_atom_site_label
_atom_site_type_symbol
_atom_site_fract_x
_atom_site_fract_y
_atom_site_fract_z
_atom_site_charge
Mof_O 	O 	0.3489	0.4879	0.3363	-0.727
Mof_C 	C 	0.3966	0.4254	0.4661	-0.012
Mof_H 	H 	0.3287	0.3777	0.4442	0.008
Mof_O 	O 	0.5121	0.861	0.3363	-0.733
Mof_C 	C 	0.5746	0.9712	0.4661	0.235
Mof_H 	H 	0.6223	0.951	0.4442	-0.043
Mof_O 	O 	0.139	0.6511	0.3363	-0.719
Mof_C 	C 	0.0288	0.6034	0.4661	-0.25
Mof_H 	H 	0.049	0.6713	0.4442	0.087
Mof_O 	O 	0.6511	0.5121	0.8363	-0.725
Mof_C 	C 	0.6034	0.5746	0.9661	-0.006
Mof_H 	H 	0.6713	0.6223	0.9442	0.026
Mof_O 	O 	0.4879	0.139	0.8363	-0.719
Mof_C 	C 	0.4254	0.0288	0.9661	-0.252
Mof_H 	H 	0.3777	0.049	0.9442	0.077
Mof_O 	O 	0.861	0.3489	0.8363	-0.732
Mof_C 	C 	0.9712	0.3966	0.9661	0.234
Mof_H 	H 	0.951	0.3287	0.9442	-0.05
Mof_O 	O 	0.4879	0.3489	0.6637	-0.726
Mof_C 	C 	0.4254	0.3966	0.5339	-0.011
Mof_H 	H 	0.3777	0.3287	0.5558	0.009
Mof_O 	O 	0.861	0.5121	0.6637	-0.732
Mof_C 	C 	0.9712	0.5746	0.5339	0.236
Mof_H 	H 	0.951	0.6223	0.5558	-0.042
Mof_O 	O 	0.6511	0.139	0.6637	-0.719
Mof_C 	C 	0.6034	0.0288	0.5339	-0.25
Mof_H 	H 	0.6713	0.049	0.5558	0.087
Mof_O 	O 	0.5121	0.6511	0.1637	-0.725
Mof_C 	C 	0.5746	0.6034	0.0339	-0.006
Mof_H 	H 	0.6223	0.6713	0.0558	0.026
Mof_O 	O 	0.139	0.4879	0.1637	-0.719
Mof_C 	C 	0.0288	0.4254	0.0339	-0.252
Mof_H 	H 	0.049	0.3777	0.0558	0.077
Mof_O 	O 	0.3489	0.861	0.1637	-0.732
Mof_C 	C 	0.3966	0.9712	0.0339	0.234
Mof_H 	H 	0.3287	0.951	0.0558	-0.05
Mof_O 	O 	0.6511	0.5121	0.6637	-0.725
Mof_C 	C 	0.6034	0.5746	0.5339	-0.006
Mof_H 	H 	0.6713	0.6223	0.5558	0.027
Mof_O 	O 	0.4879	0.139	0.6637	-0.719
Mof_C 	C 	0.4254	0.0288	0.5339	-0.255
Mof_H 	H 	0.3777	0.049	0.5558	0.078
Mof_O 	O 	0.861	0.3489	0.6637	-0.732
Mof_C 	C 	0.9712	0.3966	0.5339	0.237
Mof_H 	H 	0.951	0.3287	0.5558	-0.051
Mof_O 	O 	0.3489	0.4879	0.1637	-0.726
Mof_C 	C 	0.3966	0.4254	0.0339	-0.011
Mof_H 	H 	0.3287	0.3777	0.0558	0.009
Mof_O 	O 	0.5121	0.861	0.1637	-0.732
Mof_C 	C 	0.5746	0.9712	0.0339	0.233
Mof_H 	H 	0.6223	0.951	0.0558	-0.041
Mof_O 	O 	0.139	0.6511	0.1637	-0.719
Mof_C 	C 	0.0288	0.6034	0.0339	-0.247
Mof_H 	H 	0.049	0.6713	0.0558	0.086
Mof_O 	O 	0.5121	0.6511	0.3363	-0.725
Mof_C 	C 	0.5746	0.6034	0.4661	-0.006
Mof_H 	H 	0.6223	0.6713	0.4442	0.027
Mof_O 	O 	0.139	0.4879	0.3363	-0.719
Mof_C 	C 	0.0288	0.4254	0.4661	-0.255
Mof_H 	H 	0.049	0.3777	0.4442	0.078
Mof_O 	O 	0.3489	0.861	0.3363	-0.732
Mof_C 	C 	0.3966	0.9712	0.4661	0.237
Mof_H 	H 	0.3287	0.951	0.4442	-0.051
Mof_O 	O 	0.4879	0.3489	0.8363	-0.726
Mof_C 	C 	0.4254	0.3966	0.9661	-0.011
Mof_H 	H 	0.3777	0.3287	0.9442	0.009
Mof_O 	O 	0.861	0.5121	0.8363	-0.732
Mof_C 	C 	0.9712	0.5746	0.9661	0.233
Mof_H 	H 	0.951	0.6223	0.9442	-0.041
Mof_O 	O 	0.6511	0.139	0.8363	-0.719
Mof_C 	C 	0.6034	0.0288	0.9661	-0.247
Mof_H 	H 	0.6713	0.049	0.9442	0.086
Mof_In	In	0.24877	0.49754	0.25	2.686
Mof_N 	N 	0.1583	0.3166	0.25	-0.457
Mof_In	In	0.50246	0.75123	0.25	2.735
Mof_N 	N 	0.6834	0.8417	0.25	-0.452
Mof_In	In	0.24877	0.75123	0.25	2.711
Mof_N 	N 	0.1583	0.8417	0.25	-0.454
Mof_In	In	0.75123	0.50246	0.75	2.735
Mof_N 	N 	0.8417	0.6834	0.75	-0.452
Mof_In	In	0.49754	0.24877	0.75	2.686
Mof_N 	N 	0.3166	0.1583	0.75	-0.457
Mof_In	In	0.75123	0.24877	0.75	2.711
Mof_N 	N 	0.8417	0.1583	0.75	-0.454
Mof_O 	O 	0.33333	0.66667	0.25	-1.421
Mof_O 	O 	0.66667	0.33333	0.75	-1.421
Mof_C 	C 	0.1245	0.249	0.198	0.213
Mof_N 	N 	0.074	0.148	0.2133	-0.266
Mof_H 	H 	0.13645	0.2729	0.1504	-0.125
Mof_C 	C 	0.751	0.8755	0.198	0.231
Mof_N 	N 	0.852	0.926	0.2133	-0.194
Mof_H 	H 	0.7271	0.86355	0.1504	-0.092
Mof_C 	C 	0.1245	0.8755	0.198	0.223
Mof_N 	N 	0.074	0.926	0.2133	-0.227
Mof_H 	H 	0.13645	0.86355	0.1504	-0.107
Mof_C 	C 	0.8755	0.751	0.698	0.231
Mof_N 	N 	0.926	0.852	0.7133	-0.194
Mof_H 	H 	0.86355	0.7271	0.6504	-0.092
Mof_C 	C 	0.249	0.1245	0.698	0.213
Mof_N 	N 	0.148	0.074	0.7133	-0.266
Mof_H 	H 	0.2729	0.13645	0.6504	-0.125
Mof_C 	C 	0.8755	0.1245	0.698	0.223
Mof_N 	N 	0.926	0.074	0.7133	-0.227
Mof_H 	H 	0.86355	0.13645	0.6504	-0.107
Mof_C 	C 	0.249	0.1245	0.802	0.213
Mof_N 	N 	0.148	0.074	0.7867	-0.266
Mof_H 	H 	0.2729	0.13645	0.8496	-0.125
Mof_C 	C 	0.8755	0.751	0.802	0.231
Mof_N 	N 	0.926	0.852	0.7867	-0.194
Mof_H 	H 	0.86355	0.7271	0.8496	-0.092
Mof_C 	C 	0.8755	0.1245	0.802	0.223
Mof_N 	N 	0.926	0.074	0.7867	-0.227
Mof_H 	H 	0.86355	0.13645	0.8496	-0.107
Mof_C 	C 	0.751	0.8755	0.302	0.231
Mof_N 	N 	0.852	0.926	0.2867	-0.194
Mof_H 	H 	0.7271	0.86355	0.3496	-0.092
Mof_C 	C 	0.1245	0.249	0.302	0.213
Mof_N 	N 	0.074	0.148	0.2867	-0.266
Mof_H 	H 	0.13645	0.2729	0.3496	-0.125
Mof_C 	C 	0.1245	0.8755	0.302	0.223
Mof_N 	N 	0.074	0.926	0.2867	-0.227
Mof_H 	H 	0.13645	0.86355	0.3496	-0.107
Mof_C 	C 	0.4414	0.5586	0.3624	0.558
Mof_C 	C 	0.4727	0.5273	0.4328	-0.15
Mof_C 	C 	0.4414	0.8828	0.3624	0.614
Mof_C 	C 	0.4727	0.9454	0.4328	-0.282
Mof_C 	C 	0.1172	0.5586	0.3624	0.502
Mof_C 	C 	0.0546	0.5273	0.4328	-0.018
Mof_C 	C 	0.5586	0.4414	0.8624	0.558
Mof_C 	C 	0.5273	0.4727	0.9328	-0.15
Mof_C 	C 	0.5586	0.1172	0.8624	0.503
Mof_C 	C 	0.5273	0.0546	0.9328	-0.019
Mof_C 	C 	0.8828	0.4414	0.8624	0.613
Mof_C 	C 	0.9454	0.4727	0.9328	-0.28
Mof_C 	C 	0.5586	0.4414	0.6376	0.558
Mof_C 	C 	0.5273	0.4727	0.5672	-0.15
Mof_C 	C 	0.8828	0.4414	0.6376	0.614
Mof_C 	C 	0.9454	0.4727	0.5672	-0.282
Mof_C 	C 	0.5586	0.1172	0.6376	0.502
Mof_C 	C 	0.5273	0.0546	0.5672	-0.018
Mof_C 	C 	0.4414	0.5586	0.1376	0.558
Mof_C 	C 	0.4727	0.5273	0.0672	-0.15
Mof_C 	C 	0.1172	0.5586	0.1376	0.503
Mof_C 	C 	0.0546	0.5273	0.0672	-0.019
Mof_C 	C 	0.4414	0.8828	0.1376	0.613
Mof_C 	C 	0.4727	0.9454	0.0672	-0.28
Mof_In	In	-2.05166e-33	0	0.1339	0.742
Mof_In	In	-0	1.64133e-32	0.6339	0.741
Mof_In	In	-8.20663e-33	0	0.8661	0.742
Mof_In	In	-0	0	0.3661	0.741
_end
