# CIF file generated by openbabel 3.1.0, see https://openbabel.org
data_I
_chemical_name_common 'image0'
_cell_length_a 24.585
_cell_length_b 13.1726
_cell_length_c 14.829
_cell_angle_alpha 90
_cell_angle_beta 96.419
_cell_angle_gamma 90
_space_group_name_H-M_alt 'P 1'
_space_group_name_Hall 'P 1'
loop_
    _symmetry_equiv_pos_as_xyz
    x,y,z
loop_
    _atom_site_label
    _atom_site_type_symbol
    _atom_site_fract_x
    _atom_site_fract_y
    _atom_site_fract_z
    _atom_site_occupancy
    Sm1      Sm       0.32828    0.79240    0.03005    1.000
    C1       C        0.57377    0.27130    0.04140    1.000
    C2       C        0.52319    0.30420    0.08120    1.000
    C3       C        0.48898    0.23530    0.11640    1.000
    H1       H        0.49890    0.16730    0.12080    1.000
    C4       C        0.43999    0.26650    0.14510    1.000
    H2       H        0.41740    0.21910    0.16880    1.000
    C5       C        0.42409    0.36750    0.13912    1.000
    C6       C        0.45947    0.43690    0.10700    1.000
    H3       H        0.45020    0.50540    0.10410    1.000
    C7       C        0.50867    0.40510    0.07890    1.000
    H4       H        0.53220    0.45280    0.05820    1.000
    C8       C        0.36936    0.39940    0.16287    1.000
    C9       C        0.34707    0.35270    0.23498    1.000
    H5       H        0.36770    0.30500    0.27020    1.000
    C10      C        0.29453    0.37630    0.25501    1.000
    C11      C        0.26314    0.44530    0.20127    1.000
    H6       H        0.22730    0.45840    0.21200    1.000
    C12      C        0.28541    0.49502    0.13125    1.000
    C13      C        0.33858    0.47340    0.11347    1.000
    H7       H        0.35370    0.50870    0.06810    1.000
    C14      C        0.25120    0.56990    0.07461    1.000
    C15      C        0.27310    0.32590    0.33492    1.000
    O1       O        0.58729    0.17832    0.04450    1.000
    O2       O        0.60148    0.33526    0.00481    1.000
    O3       O        0.27413    0.64483    0.04006    1.000
    O4       O        0.20082    0.55726    0.06179    1.000
    O5       O        0.22590    0.34945    0.35257    1.000
    O6       O        0.30406    0.26352    0.37793    1.000
    Sm2      Sm       0.82827    0.29240    0.03005    1.000
    C16      C        0.07377    0.77130    0.04140    1.000
    C17      C        0.02319    0.80420    0.08120    1.000
    C18      C        0.98898    0.73530    0.11640    1.000
    H8       H        0.99890    0.66730    0.12080    1.000
    C19      C        0.93999    0.76650    0.14510    1.000
    H9       H        0.91740    0.71910    0.16880    1.000
    C20      C        0.92409    0.86750    0.13912    1.000
    C21      C        0.95947    0.93690    0.10700    1.000
    H10      H        0.95020    0.00540    0.10410    1.000
    C22      C        0.00867    0.90510    0.07890    1.000
    H11      H        0.03220    0.95280    0.05820    1.000
    C23      C        0.86936    0.89940    0.16287    1.000
    C24      C        0.84707    0.85270    0.23498    1.000
    H12      H        0.86770    0.80500    0.27020    1.000
    C25      C        0.79453    0.87630    0.25501    1.000
    C26      C        0.76314    0.94530    0.20127    1.000
    H13      H        0.72730    0.95840    0.21200    1.000
    C27      C        0.78541    0.99502    0.13125    1.000
    C28      C        0.83858    0.97340    0.11347    1.000
    H14      H        0.85370    0.00870    0.06810    1.000
    C29      C        0.75120    0.06990    0.07461    1.000
    C30      C        0.77310    0.82590    0.33492    1.000
    O7       O        0.08729    0.67832    0.04450    1.000
    O8       O        0.10148    0.83526    0.00481    1.000
    O9       O        0.77413    0.14483    0.04006    1.000
    O10      O        0.70082    0.05726    0.06179    1.000
    O11      O        0.72590    0.84945    0.35257    1.000
    O12      O        0.80406    0.76352    0.37793    1.000
    Sm3      Sm       0.67172    0.79240    0.46995    1.000
    C31      C        0.42623    0.27130    0.45860    1.000
    C32      C        0.47681    0.30420    0.41880    1.000
    C33      C        0.51102    0.23530    0.38360    1.000
    H15      H        0.50110    0.16730    0.37920    1.000
    C34      C        0.56001    0.26650    0.35490    1.000
    H16      H        0.58260    0.21910    0.33120    1.000
    C35      C        0.57591    0.36750    0.36088    1.000
    C36      C        0.54053    0.43690    0.39300    1.000
    H17      H        0.54980    0.50540    0.39590    1.000
    C37      C        0.49133    0.40510    0.42110    1.000
    H18      H        0.46780    0.45280    0.44180    1.000
    C38      C        0.63064    0.39940    0.33713    1.000
    C39      C        0.65293    0.35270    0.26502    1.000
    H19      H        0.63230    0.30500    0.22980    1.000
    C40      C        0.70547    0.37630    0.24499    1.000
    C41      C        0.73686    0.44530    0.29873    1.000
    H20      H        0.77270    0.45840    0.28800    1.000
    C42      C        0.71459    0.49502    0.36875    1.000
    C43      C        0.66142    0.47340    0.38653    1.000
    H21      H        0.64630    0.50870    0.43190    1.000
    C44      C        0.74880    0.56990    0.42539    1.000
    C45      C        0.72690    0.32590    0.16508    1.000
    O13      O        0.41271    0.17832    0.45550    1.000
    O14      O        0.39852    0.33526    0.49519    1.000
    O15      O        0.72587    0.64483    0.45994    1.000
    O16      O        0.79918    0.55726    0.43821    1.000
    O17      O        0.77410    0.34945    0.14743    1.000
    O18      O        0.69594    0.26352    0.12207    1.000
    Sm4      Sm       0.17172    0.29240    0.46995    1.000
    C46      C        0.92623    0.77130    0.45860    1.000
    C47      C        0.97681    0.80420    0.41880    1.000
    C48      C        0.01102    0.73530    0.38360    1.000
    H22      H        0.00110    0.66730    0.37920    1.000
    C49      C        0.06001    0.76650    0.35490    1.000
    H23      H        0.08260    0.71910    0.33120    1.000
    C50      C        0.07591    0.86750    0.36088    1.000
    C51      C        0.04053    0.93690    0.39300    1.000
    H24      H        0.04980    0.00540    0.39590    1.000
    C52      C        0.99133    0.90510    0.42110    1.000
    H25      H        0.96780    0.95280    0.44180    1.000
    C53      C        0.13064    0.89940    0.33713    1.000
    C54      C        0.15293    0.85270    0.26502    1.000
    H26      H        0.13230    0.80500    0.22980    1.000
    C55      C        0.20547    0.87630    0.24499    1.000
    C56      C        0.23686    0.94530    0.29873    1.000
    H27      H        0.27270    0.95840    0.28800    1.000
    C57      C        0.21459    0.99502    0.36875    1.000
    C58      C        0.16142    0.97340    0.38653    1.000
    H28      H        0.14630    0.00870    0.43190    1.000
    C59      C        0.24880    0.06990    0.42539    1.000
    C60      C        0.22690    0.82590    0.16508    1.000
    O19      O        0.91271    0.67832    0.45550    1.000
    O20      O        0.89852    0.83526    0.49519    1.000
    O21      O        0.22587    0.14483    0.45994    1.000
    O22      O        0.29918    0.05726    0.43821    1.000
    O23      O        0.27410    0.84945    0.14743    1.000
    O24      O        0.19594    0.76352    0.12207    1.000
    Sm5      Sm       0.67172    0.20760    0.96994    1.000
    C61      C        0.42623    0.72870    0.95860    1.000
    C62      C        0.47681    0.69580    0.91880    1.000
    C63      C        0.51102    0.76470    0.88360    1.000
    H29      H        0.50110    0.83270    0.87920    1.000
    C64      C        0.56001    0.73350    0.85490    1.000
    H30      H        0.58260    0.78090    0.83120    1.000
    C65      C        0.57591    0.63250    0.86088    1.000
    C66      C        0.54053    0.56310    0.89300    1.000
    H31      H        0.54980    0.49460    0.89590    1.000
    C67      C        0.49133    0.59490    0.92110    1.000
    H32      H        0.46780    0.54720    0.94180    1.000
    C68      C        0.63064    0.60060    0.83713    1.000
    C69      C        0.65293    0.64730    0.76502    1.000
    H33      H        0.63230    0.69500    0.72980    1.000
    C70      C        0.70547    0.62370    0.74499    1.000
    C71      C        0.73686    0.55470    0.79873    1.000
    H34      H        0.77270    0.54160    0.78800    1.000
    C72      C        0.71459    0.50498    0.86875    1.000
    C73      C        0.66142    0.52660    0.88653    1.000
    H35      H        0.64630    0.49130    0.93190    1.000
    C74      C        0.74880    0.43010    0.92539    1.000
    C75      C        0.72690    0.67410    0.66508    1.000
    O25      O        0.41271    0.82168    0.95550    1.000
    O26      O        0.39852    0.66474    0.99519    1.000
    O27      O        0.72587    0.35517    0.95994    1.000
    O28      O        0.79918    0.44274    0.93821    1.000
    O29      O        0.77410    0.65055    0.64743    1.000
    O30      O        0.69594    0.73648    0.62207    1.000
    Sm6      Sm       0.17172    0.70760    0.96995    1.000
    C76      C        0.92623    0.22870    0.95860    1.000
    C77      C        0.97681    0.19580    0.91880    1.000
    C78      C        0.01102    0.26470    0.88360    1.000
    H36      H        0.00110    0.33270    0.87920    1.000
    C79      C        0.06001    0.23350    0.85490    1.000
    H37      H        0.08260    0.28090    0.83120    1.000
    C80      C        0.07591    0.13250    0.86088    1.000
    C81      C        0.04053    0.06310    0.89300    1.000
    H38      H        0.04980    0.99460    0.89590    1.000
    C82      C        0.99133    0.09490    0.92110    1.000
    H39      H        0.96780    0.04720    0.94180    1.000
    C83      C        0.13064    0.10060    0.83713    1.000
    C84      C        0.15293    0.14730    0.76502    1.000
    H40      H        0.13230    0.19500    0.72980    1.000
    C85      C        0.20547    0.12370    0.74499    1.000
    C86      C        0.23686    0.05470    0.79873    1.000
    H41      H        0.27270    0.04160    0.78800    1.000
    C87      C        0.21459    0.00498    0.86875    1.000
    C88      C        0.16142    0.02660    0.88653    1.000
    H42      H        0.14630    0.99130    0.93190    1.000
    C89      C        0.24880    0.93010    0.92539    1.000
    C90      C        0.22690    0.17410    0.66508    1.000
    O31      O        0.91271    0.32168    0.95550    1.000
    O32      O        0.89852    0.16474    0.99519    1.000
    O33      O        0.22587    0.85517    0.95994    1.000
    O34      O        0.29918    0.94274    0.93821    1.000
    O35      O        0.27410    0.15055    0.64743    1.000
    O36      O        0.19594    0.23648    0.62207    1.000
    Sm7      Sm       0.32828    0.20760    0.53005    1.000
    C91      C        0.57377    0.72870    0.54140    1.000
    C92      C        0.52319    0.69580    0.58120    1.000
    C93      C        0.48898    0.76470    0.61640    1.000
    H43      H        0.49890    0.83270    0.62080    1.000
    C94      C        0.43999    0.73350    0.64510    1.000
    H44      H        0.41740    0.78090    0.66880    1.000
    C95      C        0.42409    0.63250    0.63912    1.000
    C96      C        0.45947    0.56310    0.60700    1.000
    H45      H        0.45020    0.49460    0.60410    1.000
    C97      C        0.50867    0.59490    0.57890    1.000
    H46      H        0.53220    0.54720    0.55820    1.000
    C98      C        0.36936    0.60060    0.66287    1.000
    C99      C        0.34707    0.64730    0.73498    1.000
    H47      H        0.36770    0.69500    0.77020    1.000
    C100     C        0.29453    0.62370    0.75501    1.000
    C101     C        0.26314    0.55470    0.70127    1.000
    H48      H        0.22730    0.54160    0.71200    1.000
    C102     C        0.28541    0.50498    0.63125    1.000
    C103     C        0.33858    0.52660    0.61347    1.000
    H49      H        0.35370    0.49130    0.56810    1.000
    C104     C        0.25120    0.43010    0.57461    1.000
    C105     C        0.27310    0.67410    0.83492    1.000
    O37      O        0.58729    0.82168    0.54450    1.000
    O38      O        0.60148    0.66474    0.50481    1.000
    O39      O        0.27413    0.35517    0.54006    1.000
    O40      O        0.20082    0.44274    0.56179    1.000
    O41      O        0.22590    0.65055    0.85257    1.000
    O42      O        0.30406    0.73648    0.87793    1.000
    Sm8      Sm       0.82827    0.70760    0.53005    1.000
    C106     C        0.07377    0.22870    0.54140    1.000
    C107     C        0.02319    0.19580    0.58120    1.000
    C108     C        0.98898    0.26470    0.61640    1.000
    H50      H        0.99890    0.33270    0.62080    1.000
    C109     C        0.93999    0.23350    0.64510    1.000
    H51      H        0.91740    0.28090    0.66880    1.000
    C110     C        0.92409    0.13250    0.63912    1.000
    C111     C        0.95947    0.06310    0.60700    1.000
    H52      H        0.95020    0.99460    0.60410    1.000
    C112     C        0.00867    0.09490    0.57890    1.000
    H53      H        0.03220    0.04720    0.55820    1.000
    C113     C        0.86936    0.10060    0.66287    1.000
    C114     C        0.84707    0.14730    0.73498    1.000
    H54      H        0.86770    0.19500    0.77020    1.000
    C115     C        0.79453    0.12370    0.75501    1.000
    C116     C        0.76314    0.05470    0.70127    1.000
    H55      H        0.72730    0.04160    0.71200    1.000
    C117     C        0.78541    0.00498    0.63125    1.000
    C118     C        0.83858    0.02660    0.61347    1.000
    H56      H        0.85370    0.99130    0.56810    1.000
    C119     C        0.75120    0.93010    0.57461    1.000
    C120     C        0.77310    0.17410    0.83492    1.000
    O43      O        0.08729    0.32168    0.54450    1.000
    O44      O        0.10148    0.16474    0.50481    1.000
    O45      O        0.77413    0.85517    0.54006    1.000
    O46      O        0.70082    0.94274    0.56179    1.000
    O47      O        0.72590    0.15055    0.85257    1.000
    O48      O        0.80406    0.23648    0.87793    1.000
