data_functionalizedCrystal
_audit_creation_method	'EQeq! by Chris Wilmer'
_symmetry_space_group_name_H-M	'P1'
_symmetry_Int_Tables_number	1
_symmetry_cell_setting	triclinic
loop_
_symmetry_equiv_pos_as_xyz
  x,y,z
_cell_length_a	13.875
_cell_length_b	12.242
_cell_length_c	18.408
_cell_angle_alpha	90
_cell_angle_beta	129.934
_cell_angle_gamma	90
loop_
_atom_site_label
_atom_site_type_symbol
_atom_site_fract_x
_atom_site_fract_y
_atom_site_fract_z
_atom_site_charge
Mof_Cd	Cd	0.04397	0.14904	0.50913	0.46
Mof_N 	N 	0.3069	0.129	0.4528	-0.138
Mof_C 	C 	0.2702	0.1402	0.5046	0.094
Mof_H 	H 	0.3228	0.1622	0.5676	0.012
Mof_C 	C 	0.655	0.1506	0.612	-0.082
Mof_H 	H 	0.7241	0.1437	0.6761	0.066
Mof_O 	O 	0.8857	0.023	0.4048	-0.33
Mof_C 	C 	0.4312	0.1474	0.4852	0.088
Mof_C 	C 	0.6704	0.1753	0.5481	0.091
Mof_N 	N 	0.9464	0.1816	0.5695	-0.141
Mof_N 	N 	0.7945	0.1869	0.5773	-0.136
Mof_O 	O 	0.8996	0.8325	0.9765	-0.318
Mof_C 	C 	0.8258	0.1684	0.5226	0.107
Mof_H 	H 	0.7686	0.1485	0.4591	0.001
Mof_C 	C 	0.5342	0.136	0.5798	-0.074
Mof_H 	H 	0.5223	0.1183	0.6227	0.062
Mof_O 	O 	0.7536	0.8895	0.3302	-0.313
Mof_N 	N 	0.1505	0.116	0.4549	-0.136
Mof_O 	O 	0.072	0.7906	0.1185	-0.31
Mof_C 	C 	0.4483	0.1752	0.4221	-0.083
Mof_H 	H 	0.3793	0.1848	0.3584	0.066
Mof_C 	C 	0.9971	0.2044	0.6603	0.016
Mof_H 	H 	0.0822	0.2155	0.7104	0.025
Mof_C 	C 	0.9043	0.2086	0.6669	-0.011
Mof_H 	H 	0.9137	0.223	0.7207	0.038
Mof_C 	C 	0.2033	0.0952	0.3647	0
Mof_H 	H 	0.1996	0.0794	0.3136	0.028
Mof_C 	C 	0.1087	0.0891	0.3662	0.008
Mof_H 	H 	0.0266	0.0696	0.3149	0.029
Mof_C 	C 	0.5684	0.1891	0.4534	-0.075
Mof_H 	H 	0.5805	0.2076	0.4108	0.061
Mof_C 	C 	0.9841	0.856	0.0605	0.412
Mof_C 	C 	0.9884	0.9683	0.0983	-0.459
Mof_H 	H 	0.038	0.9629	0.1664	0.175
Mof_H 	H 	0.0316	0.0182	0.0868	0.179
Mof_C 	C 	0.6666	0.9643	0.1285	-0.301
Mof_H 	H 	0.6125	0.906	0.0852	0.122
Mof_H 	H 	0.7392	0.9291	0.1852	0.127
Mof_C 	C 	0.6903	0.0665	0.2549	-0.468
Mof_H 	H 	0.7391	0.1194	0.2513	0.185
Mof_H 	H 	0.6477	0.1057	0.2729	0.175
Mof_C 	C 	0.7808	0.9853	0.3331	0.423
Mof_C 	C 	0.7923	0.9414	0.0764	-0.302
Mof_H 	H 	0.7387	0.8903	0.0247	0.129
Mof_H 	H 	0.8511	0.9007	0.1347	0.124
Mof_C 	C 	0.863	0.0168	0.0567	0.272
Mof_H 	H 	0.8133	0.0259	0.9888	-0.041
Mof_H 	H 	0.875	0.0882	0.0842	-0.068
Mof_C 	C 	0.714	0.0196	0.085	0.099
Mof_H 	H 	0.7652	0.0818	0.1234	0.003
Mof_H 	H 	0.6436	0.0462	0.0224	-0.001
Mof_C 	C 	0.5932	0.0199	0.1587	0.183
Mof_H 	H 	0.5428	0.9662	0.1598	-0.019
Mof_H 	H 	0.5381	0.0771	0.1142	-0.03
Mof_C 	C 	0.099	0.482	0.389	-0.055
Mof_H 	H 	0.0489	0.4713	0.3218	0.019
Mof_H 	H 	0.1155	0.5597	0.3993	0.057
Mof_Cd	Cd	0.95603	0.64904	0.99087	0.461
Mof_N 	N 	0.6931	0.629	0.0472	-0.137
Mof_C 	C 	0.7298	0.6402	0.9954	0.092
Mof_H 	H 	0.6772	0.6622	0.9324	0.013
Mof_C 	C 	0.345	0.6506	0.888	-0.08
Mof_H 	H 	0.2759	0.6437	0.8239	0.065
Mof_O 	O 	0.1143	0.523	0.0952	-0.331
Mof_C 	C 	0.5688	0.6474	0.0148	0.09
Mof_C 	C 	0.3296	0.6753	0.9519	0.088
Mof_N 	N 	0.0536	0.6816	0.9305	-0.141
Mof_N 	N 	0.2055	0.6869	0.9227	-0.135
Mof_O 	O 	0.1004	0.3325	0.5235	-0.315
Mof_C 	C 	0.1742	0.6684	0.9774	0.105
Mof_H 	H 	0.2314	0.6485	0.0409	0.002
Mof_C 	C 	0.4658	0.636	0.9202	-0.077
Mof_H 	H 	0.4777	0.6183	0.8773	0.063
Mof_O 	O 	0.2464	0.3895	0.1698	-0.314
Mof_N 	N 	0.8495	0.616	0.0451	-0.135
Mof_O 	O 	0.928	0.2906	0.3815	-0.308
Mof_C 	C 	0.5517	0.6752	0.0779	-0.085
Mof_H 	H 	0.6207	0.6848	0.1416	0.067
Mof_C 	C 	0.0029	0.7044	0.8397	0.016
Mof_H 	H 	0.9178	0.7155	0.7896	0.025
Mof_C 	C 	0.0957	0.7086	0.8331	-0.012
Mof_H 	H 	0.0863	0.723	0.7793	0.039
Mof_C 	C 	0.7967	0.5952	0.1353	0.001
Mof_H 	H 	0.8004	0.5794	0.1864	0.028
Mof_C 	C 	0.8913	0.5891	0.1338	0.008
Mof_H 	H 	0.9734	0.5696	0.1851	0.03
Mof_C 	C 	0.4316	0.6891	0.0466	-0.072
Mof_H 	H 	0.4195	0.7076	0.0892	0.06
Mof_C 	C 	0.0159	0.356	0.4395	0.407
Mof_C 	C 	0.0116	0.4683	0.4017	-0.451
Mof_H 	H 	0.962	0.4629	0.3336	0.17
Mof_H 	H 	0.9684	0.5182	0.4132	0.179
Mof_C 	C 	0.3334	0.4643	0.3715	-0.31
Mof_H 	H 	0.3875	0.406	0.4148	0.124
Mof_H 	H 	0.2608	0.4291	0.3148	0.13
Mof_C 	C 	0.3097	0.5665	0.2451	-0.475
Mof_H 	H 	0.2609	0.6194	0.2487	0.187
Mof_H 	H 	0.3523	0.6057	0.2271	0.177
Mof_C 	C 	0.2192	0.4853	0.1669	0.426
Mof_C 	C 	0.2077	0.4414	0.4236	-0.305
Mof_H 	H 	0.2613	0.3903	0.4753	0.129
Mof_H 	H 	0.1489	0.4007	0.3653	0.123
Mof_C 	C 	0.137	0.5168	0.4433	0.228
Mof_H 	H 	0.1867	0.5259	0.5112	-0.027
Mof_H 	H 	0.125	0.5882	0.4158	-0.087
Mof_C 	C 	0.286	0.5196	0.415	0.106
Mof_H 	H 	0.2348	0.5818	0.3766	0
Mof_H 	H 	0.3564	0.5462	0.4776	-0.002
Mof_C 	C 	0.4068	0.5199	0.3413	0.194
Mof_H 	H 	0.4572	0.4662	0.3402	-0.023
Mof_H 	H 	0.4619	0.5771	0.3858	-0.033
Mof_C 	C 	0.901	0.982	0.111	-0.077
Mof_H 	H 	0.9511	0.9713	0.1782	0.027
Mof_H 	H 	0.8845	0.0597	0.1007	0.026
Mof_Cd	Cd	0.95603	0.85096	0.49087	0.461
Mof_N 	N 	0.6931	0.871	0.5472	-0.137
Mof_C 	C 	0.7298	0.8598	0.4954	0.094
Mof_H 	H 	0.6772	0.8378	0.4324	0.012
Mof_C 	C 	0.345	0.8494	0.388	-0.082
Mof_H 	H 	0.2759	0.8563	0.3239	0.066
Mof_O 	O 	0.1143	0.977	0.5952	-0.33
Mof_C 	C 	0.5688	0.8526	0.5148	0.088
Mof_C 	C 	0.3296	0.8247	0.4519	0.091
Mof_N 	N 	0.0536	0.8184	0.4305	-0.141
Mof_N 	N 	0.2055	0.8131	0.4227	-0.136
Mof_O 	O 	0.1004	0.1675	0.0235	-0.318
Mof_C 	C 	0.1742	0.8316	0.4774	0.107
Mof_H 	H 	0.2314	0.8515	0.5409	0.001
Mof_C 	C 	0.4658	0.864	0.4202	-0.074
Mof_H 	H 	0.4777	0.8817	0.3773	0.062
Mof_O 	O 	0.2464	0.1105	0.6698	-0.313
Mof_N 	N 	0.8495	0.884	0.5451	-0.136
Mof_O 	O 	0.928	0.2094	0.8815	-0.31
Mof_C 	C 	0.5517	0.8248	0.5779	-0.083
Mof_H 	H 	0.6207	0.8152	0.6416	0.066
Mof_C 	C 	0.0029	0.7956	0.3397	0.016
Mof_H 	H 	0.9178	0.7845	0.2896	0.025
Mof_C 	C 	0.0957	0.7914	0.3331	-0.011
Mof_H 	H 	0.0863	0.777	0.2793	0.038
Mof_C 	C 	0.7967	0.9048	0.6353	0
Mof_H 	H 	0.8004	0.9206	0.6864	0.028
Mof_C 	C 	0.8913	0.9109	0.6338	0.008
Mof_H 	H 	0.9734	0.9304	0.6851	0.029
Mof_C 	C 	0.4316	0.8109	0.5466	-0.075
Mof_H 	H 	0.4195	0.7924	0.5892	0.061
Mof_C 	C 	0.0159	0.144	0.9395	0.412
Mof_C 	C 	0.0116	0.0317	0.9017	-0.459
Mof_H 	H 	0.962	0.0371	0.8336	0.175
Mof_H 	H 	0.9684	0.9818	0.9132	0.179
Mof_C 	C 	0.3334	0.0357	0.8715	-0.301
Mof_H 	H 	0.3875	0.094	0.9148	0.122
Mof_H 	H 	0.2608	0.0709	0.8148	0.127
Mof_C 	C 	0.3097	0.9335	0.7451	-0.468
Mof_H 	H 	0.2609	0.8806	0.7487	0.185
Mof_H 	H 	0.3523	0.8943	0.7271	0.175
Mof_C 	C 	0.2192	0.0147	0.6669	0.423
Mof_C 	C 	0.2077	0.0586	0.9236	-0.302
Mof_H 	H 	0.2613	0.1097	0.9753	0.129
Mof_H 	H 	0.1489	0.0993	0.8653	0.124
Mof_C 	C 	0.137	0.9832	0.9433	0.272
Mof_H 	H 	0.1867	0.9741	0.0112	-0.041
Mof_H 	H 	0.125	0.9118	0.9158	-0.068
Mof_C 	C 	0.286	0.9804	0.915	0.099
Mof_H 	H 	0.2348	0.9182	0.8766	0.003
Mof_H 	H 	0.3564	0.9538	0.9776	-0.001
Mof_C 	C 	0.4068	0.9801	0.8413	0.183
Mof_H 	H 	0.4572	0.0338	0.8402	-0.019
Mof_H 	H 	0.4619	0.9229	0.8858	-0.03
Mof_C 	C 	0.901	0.518	0.611	-0.055
Mof_H 	H 	0.9511	0.5287	0.6782	0.019
Mof_H 	H 	0.8845	0.4403	0.6007	0.057
Mof_Cd	Cd	0.04397	0.35096	0.00913	0.461
Mof_N 	N 	0.3069	0.371	0.9528	-0.137
Mof_C 	C 	0.2702	0.3598	0.0046	0.092
Mof_H 	H 	0.3228	0.3378	0.0676	0.013
Mof_C 	C 	0.655	0.3494	0.112	-0.08
Mof_H 	H 	0.7241	0.3563	0.1761	0.065
Mof_O 	O 	0.8857	0.477	0.9048	-0.331
Mof_C 	C 	0.4312	0.3526	0.9852	0.09
Mof_C 	C 	0.6704	0.3247	0.0481	0.088
Mof_N 	N 	0.9464	0.3184	0.0695	-0.141
Mof_N 	N 	0.7945	0.3131	0.0773	-0.135
Mof_O 	O 	0.8996	0.6675	0.4765	-0.315
Mof_C 	C 	0.8258	0.3316	0.0226	0.105
Mof_H 	H 	0.7686	0.3515	0.9591	0.002
Mof_C 	C 	0.5342	0.364	0.0798	-0.077
Mof_H 	H 	0.5223	0.3817	0.1227	0.063
Mof_O 	O 	0.7536	0.6105	0.8302	-0.314
Mof_N 	N 	0.1505	0.384	0.9549	-0.135
Mof_O 	O 	0.072	0.7094	0.6185	-0.308
Mof_C 	C 	0.4483	0.3248	0.9221	-0.085
Mof_H 	H 	0.3793	0.3152	0.8584	0.067
Mof_C 	C 	0.9971	0.2956	0.1603	0.016
Mof_H 	H 	0.0822	0.2845	0.2104	0.025
Mof_C 	C 	0.9043	0.2914	0.1669	-0.012
Mof_H 	H 	0.9137	0.277	0.2207	0.039
Mof_C 	C 	0.2033	0.4048	0.8647	0.001
Mof_H 	H 	0.1996	0.4206	0.8136	0.028
Mof_C 	C 	0.1087	0.4109	0.8662	0.008
Mof_H 	H 	0.0266	0.4304	0.8149	0.03
Mof_C 	C 	0.5684	0.3109	0.9534	-0.072
Mof_H 	H 	0.5805	0.2924	0.9108	0.06
Mof_C 	C 	0.9841	0.644	0.5605	0.407
Mof_C 	C 	0.9884	0.5317	0.5983	-0.451
Mof_H 	H 	0.038	0.5371	0.6664	0.17
Mof_H 	H 	0.0316	0.4818	0.5868	0.179
Mof_C 	C 	0.6666	0.5357	0.6285	-0.31
Mof_H 	H 	0.6125	0.594	0.5852	0.124
Mof_H 	H 	0.7392	0.5709	0.6852	0.13
Mof_C 	C 	0.6903	0.4335	0.7549	-0.475
Mof_H 	H 	0.7391	0.3806	0.7513	0.187
Mof_H 	H 	0.6477	0.3943	0.7729	0.177
Mof_C 	C 	0.7808	0.5147	0.8331	0.426
Mof_C 	C 	0.7923	0.5586	0.5764	-0.305
Mof_H 	H 	0.7387	0.6097	0.5247	0.129
Mof_H 	H 	0.8511	0.5993	0.6347	0.123
Mof_C 	C 	0.863	0.4832	0.5567	0.228
Mof_H 	H 	0.8133	0.4741	0.4888	-0.027
Mof_H 	H 	0.875	0.4118	0.5842	-0.087
Mof_C 	C 	0.714	0.4804	0.585	0.106
Mof_H 	H 	0.7652	0.4182	0.6234	0
Mof_H 	H 	0.6436	0.4538	0.5224	-0.002
Mof_C 	C 	0.5932	0.4801	0.6587	0.194
Mof_H 	H 	0.5428	0.5338	0.6598	-0.023
Mof_H 	H 	0.5381	0.4229	0.6142	-0.033
Mof_C 	C 	0.099	0.018	0.889	-0.077
Mof_H 	H 	0.0489	0.0287	0.8218	0.027
Mof_H 	H 	0.1155	0.9403	0.8993	0.026
_end
