data_functionalizedCrystal
_audit_creation_method	'EQeq! by Chris Wilmer'
_symmetry_space_group_name_H-M	'P1'
_symmetry_Int_Tables_number	1
_symmetry_cell_setting	triclinic
loop_
_symmetry_equiv_pos_as_xyz
  x,y,z
_cell_length_a	12.7544
_cell_length_b	10.6828
_cell_length_c	15.4642
_cell_angle_alpha	90
_cell_angle_beta	90
_cell_angle_gamma	90
loop_
_atom_site_label
_atom_site_type_symbol
_atom_site_fract_x
_atom_site_fract_y
_atom_site_fract_z
_atom_site_charge
Mof_O 	O 	0.3605	0.2581	0.8472	-0.228
Mof_O 	O 	0.4128	0.4077	0.7577	-0.291
Mof_O 	O 	0.408	0.142	0.4369	-0.208
Mof_O 	O 	0.3833	0.9546	0.5032	-0.138
Mof_C 	C 	0.3061	0.2638	0.6971	-0.074
Mof_C 	C 	0.3619	0.2062	0.6308	0.02
Mof_H 	H 	0.4348	0.2079	0.6304	0.059
Mof_C 	C 	0.3058	0.1446	0.5634	-0.061
Mof_C 	C 	0.3747	0.3281	0.7649	0.564
Mof_C 	C 	0.3718	0.0899	0.4906	0.442
Mof_O 	O 	0.1546	0.8972	0.3177	-0.187
Mof_O 	O 	0.021	0.8428	0.2468	-0.125
Mof_O 	O 	0.033	0.6385	0.9787	-0.178
Mof_O 	O 	0.1624	0.5224	0.9367	-0.225
Mof_O 	O 	0.3605	0.7581	0.3472	-0.209
Mof_O 	O 	0.4128	0.9077	0.2577	-0.262
Mof_O 	O 	0.408	0.642	0.9369	-0.18
Mof_O 	O 	0.3833	0.4546	0.0032	-0.108
Mof_C 	C 	0.3061	0.7638	0.1971	-0.052
Mof_C 	C 	0.3619	0.7062	0.1308	0.003
Mof_H 	H 	0.4348	0.7079	0.1304	0.087
Mof_C 	C 	0.3058	0.6446	0.0634	0.004
Mof_C 	C 	0.3747	0.8281	0.2649	0.532
Mof_C 	C 	0.3718	0.5899	0.9906	0.357
Mof_O 	O 	0.1546	0.3972	0.8177	-0.213
Mof_O 	O 	0.021	0.3428	0.7468	-0.151
Mof_O 	O 	0.033	0.1385	0.4787	-0.158
Mof_O 	O 	0.1624	0.0224	0.4367	-0.254
Mof_O 	O 	0.6395	0.7419	0.8472	-0.213
Mof_O 	O 	0.5872	0.5923	0.7577	-0.295
Mof_O 	O 	0.592	0.858	0.4369	-0.22
Mof_O 	O 	0.6167	0.0454	0.5032	-0.229
Mof_C 	C 	0.6939	0.7362	0.6971	-0.08
Mof_C 	C 	0.6381	0.7938	0.6308	0.042
Mof_H 	H 	0.5652	0.7921	0.6304	0.061
Mof_C 	C 	0.6942	0.8554	0.5634	-0.06
Mof_C 	C 	0.6253	0.6719	0.7649	0.572
Mof_C 	C 	0.6282	0.9101	0.4906	0.485
Mof_O 	O 	0.8454	0.1028	0.3177	-0.206
Mof_O 	O 	0.979	0.1572	0.2468	-0.091
Mof_O 	O 	0.967	0.3615	0.9787	-0.121
Mof_O 	O 	0.8376	0.4776	0.9367	-0.214
Mof_O 	O 	0.6395	0.2419	0.3472	-0.213
Mof_O 	O 	0.5872	0.0923	0.2577	-0.302
Mof_O 	O 	0.592	0.358	0.9369	-0.187
Mof_O 	O 	0.6167	0.5454	0.0032	-0.105
Mof_C 	C 	0.6939	0.2362	0.1971	-0.08
Mof_C 	C 	0.6381	0.2938	0.1308	0.021
Mof_H 	H 	0.5652	0.2921	0.1304	0.073
Mof_C 	C 	0.6942	0.3554	0.0634	-0.012
Mof_C 	C 	0.6253	0.1719	0.2649	0.578
Mof_C 	C 	0.6282	0.4101	0.9906	0.366
Mof_O 	O 	0.8454	0.6028	0.8177	-0.198
Mof_O 	O 	0.979	0.6572	0.7468	-0.088
Mof_O 	O 	0.967	0.8615	0.4787	-0.079
Mof_O 	O 	0.8376	0.9776	0.4367	-0.165
Mof_O 	O 	0.8605	0.7419	0.8472	-0.195
Mof_O 	O 	0.9128	0.5923	0.7577	-0.27
Mof_O 	O 	0.908	0.858	0.4369	-0.203
Mof_O 	O 	0.8833	0.0454	0.5032	-0.202
Mof_C 	C 	0.8061	0.7362	0.6971	-0.052
Mof_C 	C 	0.8619	0.7938	0.6308	0.02
Mof_H 	H 	0.9348	0.7921	0.6304	0.081
Mof_C 	C 	0.8058	0.8554	0.5634	-0.035
Mof_C 	C 	0.8747	0.6719	0.7649	0.539
Mof_C 	C 	0.8718	0.9101	0.4906	0.46
Mof_O 	O 	0.6546	0.1028	0.3177	-0.223
Mof_O 	O 	0.521	0.1572	0.2468	-0.124
Mof_O 	O 	0.533	0.3615	0.9787	-0.157
Mof_O 	O 	0.6624	0.4776	0.9367	-0.228
Mof_O 	O 	0.8605	0.2419	0.3472	-0.194
Mof_O 	O 	0.9128	0.0923	0.2577	-0.277
Mof_O 	O 	0.908	0.358	0.9369	-0.17
Mof_O 	O 	0.8833	0.5454	0.0032	-0.081
Mof_C 	C 	0.8061	0.2362	0.1971	-0.051
Mof_C 	C 	0.8619	0.2938	0.1308	-0
Mof_H 	H 	0.9348	0.2921	0.1304	0.094
Mof_C 	C 	0.8058	0.3554	0.0634	0.012
Mof_C 	C 	0.8747	0.1719	0.2649	0.545
Mof_C 	C 	0.8718	0.4101	0.9906	0.343
Mof_O 	O 	0.6546	0.6028	0.8177	-0.214
Mof_O 	O 	0.521	0.6572	0.7468	-0.121
Mof_O 	O 	0.533	0.8615	0.4787	-0.113
Mof_O 	O 	0.6624	0.9776	0.4367	-0.177
Mof_O 	O 	0.1395	0.2581	0.8472	-0.241
Mof_O 	O 	0.0872	0.4077	0.7577	-0.297
Mof_O 	O 	0.092	0.142	0.4369	-0.21
Mof_O 	O 	0.1167	0.9546	0.5032	-0.155
Mof_C 	C 	0.1939	0.2638	0.6971	-0.088
Mof_C 	C 	0.1381	0.2062	0.6308	0.031
Mof_H 	H 	0.0652	0.2079	0.6304	0.043
Mof_C 	C 	0.1942	0.1446	0.5634	-0.075
Mof_C 	C 	0.1253	0.3281	0.7649	0.575
Mof_C 	C 	0.1282	0.0899	0.4906	0.451
Mof_O 	O 	0.3454	0.8972	0.3177	-0.185
Mof_O 	O 	0.479	0.8428	0.2468	-0.1
Mof_O 	O 	0.467	0.6385	0.9787	-0.151
Mof_O 	O 	0.3376	0.5224	0.9367	-0.224
Mof_O 	O 	0.1395	0.7581	0.3472	-0.221
Mof_O 	O 	0.0872	0.9077	0.2577	-0.266
Mof_O 	O 	0.092	0.642	0.9369	-0.182
Mof_O 	O 	0.1167	0.4546	0.0032	-0.127
Mof_C 	C 	0.1939	0.7638	0.1971	-0.066
Mof_C 	C 	0.1381	0.7062	0.1308	0.014
Mof_H 	H 	0.0652	0.7079	0.1304	0.07
Mof_C 	C 	0.1942	0.6446	0.0634	-0.01
Mof_C 	C 	0.1253	0.8281	0.2649	0.542
Mof_C 	C 	0.1282	0.5899	0.9906	0.367
Mof_O 	O 	0.3454	0.3972	0.8177	-0.211
Mof_O 	O 	0.479	0.3428	0.7468	-0.125
Mof_O 	O 	0.467	0.1385	0.4787	-0.129
Mof_O 	O 	0.3376	0.0224	0.4367	-0.252
Mof_Cd	Cd	0.25	0.33177	0.94619	0.484
Mof_Cd	Cd	0.25	0.83177	0.44619	0.557
Mof_Cd	Cd	0.75	0.66823	0.94619	0.514
Mof_Cd	Cd	0.75	0.16823	0.44619	0.541
Mof_Cd	Cd	0.5	0.5	0.86151	0.628
Mof_Cd	Cd	0.5	-5.99029e-33	0.36151	0.592
Mof_Cd	Cd	3.91642e-33	0.5	0.86151	0.565
Mof_Cd	Cd	-7.34201e-33	-5.99029e-33	0.36151	0.528
_end
