data_functionalizedCrystal
_audit_creation_method	'EQeq! by Chris Wilmer'
_symmetry_space_group_name_H-M	'P1'
_symmetry_Int_Tables_number	1
_symmetry_cell_setting	triclinic
loop_
_symmetry_equiv_pos_as_xyz
  x,y,z
_cell_length_a	11.6364
_cell_length_b	15.585
_cell_length_c	18.823
_cell_angle_alpha	86.423
_cell_angle_beta	82.869
_cell_angle_gamma	89.722
loop_
_atom_site_label
_atom_site_type_symbol
_atom_site_fract_x
_atom_site_fract_y
_atom_site_fract_z
_atom_site_charge
Mof_Zn	Zn	0.54991	0.74924	0.92986	1.213
Mof_C 	C 	0.4232	0.7163	0.3084	-1.216
Mof_Zn	Zn	0.5799	0.75647	0.77332	1.214
Mof_B 	B 	0.4592	0.7595	0.3851	0.811
Mof_H 	H 	0.4461	0.8278	0.3994	-0.293
Mof_B 	B 	0.564	0.7307	0.3138	0.877
Mof_H 	H 	0.6188	0.7806	0.2803	-0.311
Mof_B 	B 	0.5176	0.6375	0.2767	0.181
Mof_H 	H 	0.5414	0.6246	0.2188	-0.092
Mof_B 	B 	0.382	0.6129	0.3218	1.093
Mof_H 	H 	0.3144	0.5839	0.2932	-0.361
Mof_B 	B 	0.3436	0.689	0.3885	0.253
Mof_H 	H 	0.2527	0.7108	0.4041	-0.128
Mof_C 	C 	0.5737	0.7002	0.4025	-0.943
Mof_B 	B 	0.6193	0.6275	0.3386	0.067
Mof_H 	H 	0.7115	0.6087	0.3226	-0.066
Mof_B 	B 	0.5035	0.5548	0.3443	-0.458
Mof_H 	H 	0.5179	0.486	0.3318	0.078
Mof_B 	B 	0.3965	0.5831	0.4124	-0.495
Mof_H 	H 	0.3391	0.5333	0.4442	0.086
Mof_B 	B 	0.445	0.6731	0.4511	0.07
Mof_H 	H 	0.4215	0.6828	0.5096	-0.069
Mof_B 	B 	0.5437	0.5947	0.424	1.094
Mof_H 	H 	0.5867	0.5543	0.4643	-0.368
Mof_C 	C 	0.3629	0.7828	0.2573	1.365
Mof_H 	H 	0.375	0.8431	0.2703	-1.4
Mof_O 	O 	0.2457	0.7633	0.2646	0.096
Mof_H 	H 	0.236	0.7108	0.2767	0.035
Mof_C 	C 	0.4126	0.7715	0.1792	-0.481
Mof_C 	C 	0.4891	0.8304	0.1442	0.235
Mof_H 	H 	0.5138	0.8777	0.168	-0.04
Mof_C 	C 	0.5297	0.8197	0.0736	-0.113
Mof_H 	H 	0.5819	0.8616	0.0492	0.066
Mof_N 	N 	0.4999	0.7536	0.03682	-0.187
Mof_C 	C 	0.4234	0.6971	0.0704	-0.096
Mof_H 	H 	0.3989	0.6511	0.045	0.06
Mof_C 	C 	0.378	0.7037	0.1423	0.2
Mof_H 	H 	0.3242	0.6622	0.1655	-0.053
Mof_C 	C 	0.6756	0.7423	0.435	0.399
Mof_H 	H 	0.7467	0.7067	0.4245	-0.097
Mof_O 	O 	0.6969	0.8251	0.4022	-0.446
Mof_H 	H 	0.6964	0.8236	0.3577	0.218
Mof_C 	C 	0.6484	0.7465	0.5163	-0.075
Mof_C 	C 	0.5955	0.8146	0.5466	-0.048
Mof_H 	H 	0.571	0.8615	0.5176	0.051
Mof_C 	C 	0.5772	0.8153	0.6205	0.038
Mof_H 	H 	0.5401	0.8642	0.6406	0.005
Mof_N 	N 	0.6074	0.7535	0.6649	-0.24
Mof_C 	C 	0.6618	0.6864	0.634	0.02
Mof_H 	H 	0.686	0.6402	0.664	0.009
Mof_C 	C 	0.6836	0.6821	0.5608	-0.046
Mof_H 	H 	0.7235	0.6339	0.5412	0.03
Mof_O 	O 	0.4629	0.64198	0.91232	-0.461
Mof_C 	C 	0.4211	0.6288	0.8547	0.383
Mof_O 	O 	0.4408	0.67483	0.79698	-0.46
Mof_C 	C 	0.3449	0.552	0.8559	-0.134
Mof_C 	C 	0.3483	0.4851	0.9084	0.054
Mof_H 	H 	0.3986	0.4885	0.9442	0.026
Mof_C 	C 	0.278	0.4138	0.9081	-0.128
Mof_H 	H 	0.2826	0.3674	0.9428	0.079
Mof_C 	C 	0.2005	0.4089	0.8576	0.065
Mof_C 	C 	0.1977	0.4763	0.8055	-0.131
Mof_H 	H 	0.1451	0.4743	0.7709	0.071
Mof_C 	C 	0.2709	0.5458	0.8041	0.051
Mof_H 	H 	0.2706	0.5901	0.7671	0.02
Mof_C 	C 	0.1289	0.3303	0.8566	-0.019
Mof_C 	C 	0.1831	0.2507	0.8542	-0.058
Mof_H 	H 	0.2646	0.2486	0.8544	0.044
Mof_C 	C 	0.124	0.174	0.8515	-0.015
Mof_C 	C 	0.1916	0.0928	0.8486	0.067
Mof_C 	C 	0.257	0.072	0.7849	-0.123
Mof_H 	H 	0.2539	0.1083	0.7427	0.063
Mof_C 	C 	0.3266	0.9992	0.7817	0.05
Mof_H 	H 	0.3696	0.9856	0.7376	0.016
Mof_C 	C 	0.333	0.9468	0.8432	-0.128
Mof_C 	C 	0.2662	0.9655	0.9062	0.055
Mof_H 	H 	0.2682	0.9285	0.9481	0.025
Mof_C 	C 	0.1962	0.0381	0.9089	-0.124
Mof_H 	H 	0.1509	0.0503	0.9526	0.079
Mof_C 	C 	0.4131	0.8712	0.842	0.386
Mof_O 	O 	0.4748	0.85924	0.7831	-0.462
Mof_O 	O 	0.4144	0.82481	0.89887	-0.454
Mof_C 	C 	0.0018	0.1763	0.8529	-0.012
Mof_C 	C 	0.9306	0.0983	0.852	0.071
Mof_C 	C 	0.9555	0.0362	0.8021	-0.123
Mof_H 	H 	0.0231	0.0423	0.7682	0.075
Mof_C 	C 	0.884	0.9664	0.801	0.055
Mof_H 	H 	0.9016	0.9261	0.7654	0.024
Mof_C 	C 	0.7861	0.9536	0.8513	-0.129
Mof_C 	C 	0.7597	0.0162	0.9011	0.059
Mof_H 	H 	0.693	0.0097	0.9356	0.026
Mof_C 	C 	0.83	0.0872	0.9003	-0.123
Mof_H 	H 	0.8093	0.1298	0.9335	0.078
Mof_C 	C 	0.7087	0.8776	0.8518	0.39
Mof_O 	O 	0.7106	0.83861	0.79478	-0.45
Mof_O 	O 	0.6473	0.85682	0.91006	-0.466
Mof_C 	C 	0.9477	0.2561	0.8545	-0.06
Mof_H 	H 	0.8662	0.2583	0.8543	0.054
Mof_C 	C 	0.0078	0.333	0.8565	-0.012
Mof_C 	C 	0.9403	0.4143	0.8572	0.066
Mof_C 	C 	0.8766	0.4363	0.8013	-0.125
Mof_H 	H 	0.8801	0.4007	0.7619	0.066
Mof_C 	C 	0.8086	0.5083	0.8016	0.056
Mof_H 	H 	0.767	0.5222	0.7621	0.023
Mof_C 	C 	0.7992	0.5614	0.8585	-0.129
Mof_C 	C 	0.8641	0.5402	0.915	0.052
Mof_H 	H 	0.8601	0.5757	0.9545	0.026
Mof_C 	C 	0.9341	0.4679	0.9138	-0.119
Mof_H 	H 	0.9784	0.4549	0.9522	0.074
Mof_C 	C 	0.7211	0.6379	0.8594	0.387
Mof_O 	O 	0.6814	0.65708	0.80059	-0.47
Mof_O 	O 	0.6984	0.67608	0.91623	-0.452
Mof_H 	H 	0.2773	0.7726	0.2637	-0.47
Mof_O 	O 	0.3886	0.8765	0.2738	1.363
Mof_H 	H 	0.4008	0.907	0.2352	-0.382
Mof_Zn	Zn	0.45009	0.25076	0.07014	1.212
Mof_C 	C 	0.5768	0.2837	0.6916	-1.217
Mof_Zn	Zn	0.4201	0.24353	0.22668	1.213
Mof_B 	B 	0.5408	0.2405	0.6149	0.81
Mof_H 	H 	0.5539	0.1722	0.6006	-0.293
Mof_B 	B 	0.436	0.2693	0.6862	0.877
Mof_H 	H 	0.3812	0.2194	0.7197	-0.311
Mof_B 	B 	0.4824	0.3625	0.7233	0.181
Mof_H 	H 	0.4586	0.3754	0.7812	-0.092
Mof_B 	B 	0.618	0.3871	0.6782	1.093
Mof_H 	H 	0.6856	0.4161	0.7068	-0.361
Mof_B 	B 	0.6564	0.311	0.6115	0.253
Mof_H 	H 	0.7473	0.2892	0.5959	-0.128
Mof_C 	C 	0.4263	0.2998	0.5975	-0.943
Mof_B 	B 	0.3807	0.3725	0.6614	0.067
Mof_H 	H 	0.2885	0.3913	0.6774	-0.066
Mof_B 	B 	0.4965	0.4452	0.6557	-0.458
Mof_H 	H 	0.4821	0.514	0.6682	0.078
Mof_B 	B 	0.6035	0.4169	0.5876	-0.495
Mof_H 	H 	0.6609	0.4667	0.5558	0.086
Mof_B 	B 	0.555	0.3269	0.5489	0.07
Mof_H 	H 	0.5785	0.3172	0.4904	-0.069
Mof_B 	B 	0.4563	0.4053	0.576	1.094
Mof_H 	H 	0.4133	0.4457	0.5357	-0.368
Mof_C 	C 	0.6371	0.2172	0.7427	1.365
Mof_H 	H 	0.625	0.1569	0.7297	-1.4
Mof_O 	O 	0.7543	0.2367	0.7354	0.096
Mof_H 	H 	0.764	0.2892	0.7233	0.035
Mof_C 	C 	0.5874	0.2285	0.8208	-0.481
Mof_C 	C 	0.5109	0.1696	0.8558	0.235
Mof_H 	H 	0.4862	0.1223	0.832	-0.04
Mof_C 	C 	0.4703	0.1803	0.9264	-0.113
Mof_H 	H 	0.4181	0.1384	0.9508	0.066
Mof_N 	N 	0.5001	0.2464	0.96318	-0.187
Mof_C 	C 	0.5766	0.3029	0.9296	-0.096
Mof_H 	H 	0.6011	0.3489	0.955	0.06
Mof_C 	C 	0.622	0.2963	0.8577	0.2
Mof_H 	H 	0.6758	0.3378	0.8345	-0.053
Mof_C 	C 	0.3244	0.2577	0.565	0.399
Mof_H 	H 	0.2533	0.2933	0.5755	-0.097
Mof_O 	O 	0.3031	0.1749	0.5978	-0.446
Mof_H 	H 	0.3036	0.1764	0.6423	0.218
Mof_C 	C 	0.3516	0.2535	0.4837	-0.075
Mof_C 	C 	0.4045	0.1854	0.4534	-0.048
Mof_H 	H 	0.429	0.1385	0.4824	0.051
Mof_C 	C 	0.4228	0.1847	0.3795	0.038
Mof_H 	H 	0.4599	0.1358	0.3594	0.005
Mof_N 	N 	0.3926	0.2465	0.3351	-0.24
Mof_C 	C 	0.3382	0.3136	0.366	0.02
Mof_H 	H 	0.314	0.3598	0.336	0.009
Mof_C 	C 	0.3164	0.3179	0.4392	-0.046
Mof_H 	H 	0.2765	0.3661	0.4588	0.03
Mof_O 	O 	0.5371	0.35802	0.08768	-0.461
Mof_C 	C 	0.5789	0.3712	0.1453	0.383
Mof_O 	O 	0.5592	0.32517	0.20302	-0.46
Mof_C 	C 	0.6551	0.448	0.1441	-0.134
Mof_C 	C 	0.6517	0.5149	0.0916	0.054
Mof_H 	H 	0.6014	0.5115	0.0558	0.026
Mof_C 	C 	0.722	0.5862	0.0919	-0.128
Mof_H 	H 	0.7174	0.6326	0.0572	0.079
Mof_C 	C 	0.7995	0.5911	0.1424	0.065
Mof_C 	C 	0.8023	0.5237	0.1945	-0.131
Mof_H 	H 	0.8549	0.5257	0.2291	0.071
Mof_C 	C 	0.7291	0.4542	0.1959	0.051
Mof_H 	H 	0.7294	0.4099	0.2329	0.02
Mof_C 	C 	0.8711	0.6697	0.1434	-0.019
Mof_C 	C 	0.8169	0.7493	0.1458	-0.058
Mof_H 	H 	0.7354	0.7514	0.1456	0.044
Mof_C 	C 	0.876	0.826	0.1485	-0.015
Mof_C 	C 	0.8084	0.9072	0.1514	0.067
Mof_C 	C 	0.743	0.928	0.2151	-0.123
Mof_H 	H 	0.7461	0.8917	0.2573	0.063
Mof_C 	C 	0.6734	0.0008	0.2183	0.05
Mof_H 	H 	0.6304	0.0144	0.2624	0.016
Mof_C 	C 	0.667	0.0532	0.1568	-0.128
Mof_C 	C 	0.7338	0.0345	0.0938	0.055
Mof_H 	H 	0.7318	0.0715	0.0519	0.025
Mof_C 	C 	0.8038	0.9619	0.0911	-0.124
Mof_H 	H 	0.8491	0.9497	0.0474	0.079
Mof_C 	C 	0.5869	0.1288	0.158	0.386
Mof_O 	O 	0.5252	0.14076	0.2169	-0.462
Mof_O 	O 	0.5856	0.17519	0.10113	-0.454
Mof_C 	C 	0.9982	0.8237	0.1471	-0.012
Mof_C 	C 	0.0694	0.9017	0.148	0.071
Mof_C 	C 	0.0445	0.9638	0.1979	-0.123
Mof_H 	H 	0.9769	0.9577	0.2318	0.075
Mof_C 	C 	0.116	0.0336	0.199	0.055
Mof_H 	H 	0.0984	0.0739	0.2346	0.024
Mof_C 	C 	0.2139	0.0464	0.1487	-0.129
Mof_C 	C 	0.2403	0.9838	0.0989	0.059
Mof_H 	H 	0.307	0.9903	0.0644	0.026
Mof_C 	C 	0.17	0.9128	0.0997	-0.123
Mof_H 	H 	0.1907	0.8702	0.0665	0.078
Mof_C 	C 	0.2913	0.1224	0.1482	0.39
Mof_O 	O 	0.2894	0.16139	0.20522	-0.45
Mof_O 	O 	0.3527	0.14318	0.08994	-0.466
Mof_C 	C 	0.0523	0.7439	0.1455	-0.06
Mof_H 	H 	0.1338	0.7417	0.1457	0.054
Mof_C 	C 	0.9922	0.667	0.1435	-0.012
Mof_C 	C 	0.0597	0.5857	0.1428	0.066
Mof_C 	C 	0.1234	0.5637	0.1987	-0.125
Mof_H 	H 	0.1199	0.5993	0.2381	0.066
Mof_C 	C 	0.1914	0.4917	0.1984	0.056
Mof_H 	H 	0.233	0.4778	0.2379	0.023
Mof_C 	C 	0.2008	0.4386	0.1415	-0.129
Mof_C 	C 	0.1359	0.4598	0.085	0.052
Mof_H 	H 	0.1399	0.4243	0.0455	0.026
Mof_C 	C 	0.0659	0.5321	0.0862	-0.119
Mof_H 	H 	0.0216	0.5451	0.0478	0.074
Mof_C 	C 	0.2789	0.3621	0.1406	0.387
Mof_O 	O 	0.3186	0.34292	0.19941	-0.47
Mof_O 	O 	0.3016	0.32392	0.08377	-0.452
Mof_H 	H 	0.7227	0.2274	0.7363	-0.47
Mof_O 	O 	0.6114	0.1235	0.7262	1.363
Mof_H 	H 	0.5992	0.093	0.7648	-0.382
_end
