# CIF file generated by openbabel 3.1.0, see https://openbabel.org
data_I
_chemical_name_common 'image0'
_cell_length_a 10.1895
_cell_length_b 10.6838
_cell_length_c 6.2096
_cell_angle_alpha 90
_cell_angle_beta 114.389
_cell_angle_gamma 90
_space_group_name_H-M_alt 'P 1'
_space_group_name_Hall 'P 1'
loop_
    _symmetry_equiv_pos_as_xyz
    x,y,z
loop_
    _atom_site_label
    _atom_site_type_symbol
    _atom_site_fract_x
    _atom_site_fract_y
    _atom_site_fract_z
    _atom_site_occupancy
    N1       N        0.31040    0.10920    0.37960    1.000
    C1       C        0.31810    0.21100    0.54500    1.000
    H1       H        0.29490    0.14320    0.23500    1.000
    H2       H        0.23330    0.05840    0.35920    1.000
    H3       H        0.40140    0.26550    0.56800    1.000
    H4       H        0.33360    0.17460    0.70030    1.000
    N2       N        0.81040    0.60920    0.37960    1.000
    C2       C        0.81810    0.71100    0.54500    1.000
    H5       H        0.79490    0.64320    0.23500    1.000
    H6       H        0.73330    0.55840    0.35920    1.000
    H7       H        0.90140    0.76550    0.56800    1.000
    H8       H        0.83360    0.67460    0.70030    1.000
    N3       N        0.68960    0.10920    0.12040    1.000
    C3       C        0.68190    0.21100    0.95500    1.000
    H9       H        0.70510    0.14320    0.26500    1.000
    H10      H        0.76670    0.05840    0.14080    1.000
    H11      H        0.59860    0.26550    0.93200    1.000
    H12      H        0.66640    0.17460    0.79970    1.000
    N4       N        0.18960    0.60920    0.12040    1.000
    C4       C        0.18190    0.71100    0.95500    1.000
    H13      H        0.20510    0.64320    0.26500    1.000
    H14      H        0.26670    0.55840    0.14080    1.000
    H15      H        0.09860    0.76550    0.93200    1.000
    H16      H        0.16640    0.67460    0.79970    1.000
    N5       N        0.68960    0.89080    0.62040    1.000
    C5       C        0.68190    0.78900    0.45500    1.000
    H17      H        0.70510    0.85680    0.76500    1.000
    H18      H        0.76670    0.94160    0.64080    1.000
    H19      H        0.59860    0.73450    0.43200    1.000
    H20      H        0.66640    0.82540    0.29970    1.000
    N6       N        0.18960    0.39080    0.62040    1.000
    C6       C        0.18190    0.28900    0.45500    1.000
    H21      H        0.20510    0.35680    0.76500    1.000
    H22      H        0.26670    0.44160    0.64080    1.000
    H23      H        0.09860    0.23450    0.43200    1.000
    H24      H        0.16640    0.32540    0.29970    1.000
    N7       N        0.31040    0.89080    0.87960    1.000
    C7       C        0.31810    0.78900    0.04500    1.000
    H25      H        0.29490    0.85680    0.73500    1.000
    H26      H        0.23330    0.94160    0.85920    1.000
    H27      H        0.40140    0.73450    0.06800    1.000
    H28      H        0.33360    0.82540    0.20030    1.000
    N8       N        0.81040    0.39080    0.87960    1.000
    C8       C        0.81810    0.28900    0.04500    1.000
    H29      H        0.79490    0.35680    0.73500    1.000
    H30      H        0.73330    0.44160    0.85920    1.000
    H31      H        0.90140    0.23450    0.06800    1.000
    H32      H        0.83360    0.32540    0.20030    1.000
    Ag1      Ag       0.50000    0.00000    0.50000    1.000
    Ag2      Ag       0.00000    0.50000    0.50000    1.000
    Ag3      Ag       0.50000    0.00000    0.00000    1.000
    Ag4      Ag       0.00000    0.50000    0.00000    1.000
