# CIF file generated by openbabel 3.1.0, see https://openbabel.org
data_I
_chemical_name_common 'image0'
_cell_length_a 12.4391
_cell_length_b 20.6318
_cell_length_c 17.7916
_cell_angle_alpha 90
_cell_angle_beta 91.098
_cell_angle_gamma 90
_space_group_name_H-M_alt 'P 1'
_space_group_name_Hall 'P 1'
loop_
    _symmetry_equiv_pos_as_xyz
    x,y,z
loop_
    _atom_site_label
    _atom_site_type_symbol
    _atom_site_fract_x
    _atom_site_fract_y
    _atom_site_fract_z
    _atom_site_occupancy
    Zn1      Zn       0.33340    0.60902    0.22000    1.000
    Zn2      Zn       0.05212    0.62768    0.22160    1.000
    Zn3      Zn       0.80041    0.59572    0.24602    1.000
    O1       O        0.48220    0.58550    0.19470    1.000
    O2       O        0.35110    0.66110    0.31160    1.000
    O3       O        0.17860    0.66450    0.28810    1.000
    O4       O        0.29250    0.84650    0.62940    1.000
    O5       O        0.71720    0.02270    0.26490    1.000
    O6       O        0.89000    0.03692    0.29530    1.000
    O7       O        0.11380    0.83130    0.62690    1.000
    O8       O        0.96690    0.70930    0.24000    1.000
    O9       O        0.90420    0.59010    0.16320    1.000
    O10      O        0.99560    0.58870    0.32400    1.000
    O11      O        0.83080    0.55200    0.34090    1.000
    O12      O        0.79270    0.69000    0.26260    1.000
    O13      O        0.65550    0.57480    0.20920    1.000
    O14      O        0.84390    0.49000    0.17220    1.000
    C1       C        0.25620    0.67830    0.32780    1.000
    C2       C        0.24240    0.71780    0.39740    1.000
    C3       C        0.33190    0.73880    0.43920    1.000
    H1       H        0.40210    0.72840    0.42290    1.000
    C4       C        0.14080    0.73270    0.42130    1.000
    H2       H        0.07940    0.71940    0.39270    1.000
    C5       C        0.81230    0.00300    0.27830    1.000
    C6       C        0.20450    0.82560    0.60110    1.000
    C7       C        0.21760    0.78890    0.52870    1.000
    C8       C        0.31940    0.77460    0.50370    1.000
    H3       H        0.38090    0.78940    0.53110    1.000
    C9       C        0.12840    0.76740    0.48790    1.000
    H4       H        0.05830    0.77650    0.50540    1.000
    C10      C        0.87330    0.72670    0.25470    1.000
    C11      C        0.85920    0.79710    0.27240    1.000
    C12      C        0.94520    0.83940    0.26430    1.000
    H5       H        0.01510    0.82280    0.25560    1.000
    C13      C        0.92900    0.90590    0.26910    1.000
    H6       H        0.98780    0.93480    0.26360    1.000
    C14      C        0.82670    0.93010    0.28190    1.000
    C15      C        0.74070    0.88790    0.29000    1.000
    H7       H        0.67080    0.90440    0.29870    1.000
    C16      C        0.75690    0.82140    0.28520    1.000
    H8       H        0.69810    0.79250    0.29070    1.000
    C17      C        0.92810    0.55830    0.36030    1.000
    C18      C        0.96480    0.52750    0.43270    1.000
    C19      C        0.89270    0.49530    0.47710    1.000
    H9       H        0.81930    0.49190    0.46200    1.000
    C20      C        0.07070    0.53230    0.45510    1.000
    H10      H        0.11990    0.55460    0.42420    1.000
    C21      C        0.89590    0.53070    0.13920    1.000
    C22      C        0.95020    0.51540    0.06650    1.000
    C23      C        0.99250    0.56400    0.02330    1.000
    H11      H        0.98760    0.60780    0.03940    1.000
    C24      C        0.95750    0.45060    0.04400    1.000
    H12      H        0.92870    0.41700    0.07410    1.000
    C25      C        0.56920    0.59930    0.22400    1.000
    H13      H        0.56940    0.63200    0.26170    1.000
    C26      C        0.85270    0.79810    0.25580    1.000
    C27      C        0.93980    0.83700    0.27610    1.000
    H14      H        0.00800    0.81790    0.28640    1.000
    C28      C        0.92720    0.90380    0.28120    1.000
    H15      H        0.98670    0.93030    0.29500    1.000
    C29      C        0.82740    0.93170    0.26600    1.000
    C30      C        0.74030    0.89280    0.24580    1.000
    H16      H        0.67210    0.91190    0.23540    1.000
    C31      C        0.75290    0.82600    0.24070    1.000
    H17      H        0.69340    0.79950    0.22690    1.000
    Zn4      Zn       0.66660    0.10902    0.28000    1.000
    Zn5      Zn       0.94788    0.12768    0.27840    1.000
    Zn6      Zn       0.19959    0.09572    0.25398    1.000
    O15      O        0.51780    0.08550    0.30530    1.000
    O16      O        0.64890    0.16110    0.18840    1.000
    O17      O        0.82140    0.16450    0.21190    1.000
    O18      O        0.70750    0.34650    0.87060    1.000
    O19      O        0.28280    0.52270    0.23510    1.000
    O20      O        0.11000    0.53692    0.20470    1.000
    O21      O        0.88620    0.33130    0.87310    1.000
    O22      O        0.03310    0.20930    0.26000    1.000
    O23      O        0.09580    0.09010    0.33680    1.000
    O24      O        0.00440    0.08870    0.17600    1.000
    O25      O        0.16920    0.05200    0.15910    1.000
    O26      O        0.20730    0.19000    0.23740    1.000
    O27      O        0.34450    0.07480    0.29080    1.000
    O28      O        0.15610    0.99000    0.32780    1.000
    C32      C        0.74380    0.17830    0.17220    1.000
    C33      C        0.75760    0.21780    0.10260    1.000
    C34      C        0.66810    0.23880    0.06080    1.000
    H18      H        0.59790    0.22840    0.07710    1.000
    C35      C        0.85920    0.23270    0.07870    1.000
    H19      H        0.92060    0.21940    0.10730    1.000
    C36      C        0.18770    0.50300    0.22170    1.000
    C37      C        0.79550    0.32560    0.89890    1.000
    C38      C        0.78240    0.28890    0.97130    1.000
    C39      C        0.68060    0.27460    0.99630    1.000
    H20      H        0.61910    0.28940    0.96890    1.000
    C40      C        0.87160    0.26740    0.01210    1.000
    H21      H        0.94170    0.27650    0.99460    1.000
    C41      C        0.12670    0.22670    0.24530    1.000
    C42      C        0.14080    0.29710    0.22760    1.000
    C43      C        0.05480    0.33940    0.23570    1.000
    H22      H        0.98490    0.32280    0.24440    1.000
    C44      C        0.07100    0.40590    0.23090    1.000
    H23      H        0.01220    0.43480    0.23640    1.000
    C45      C        0.17330    0.43010    0.21810    1.000
    C46      C        0.25930    0.38790    0.21000    1.000
    H24      H        0.32920    0.40440    0.20130    1.000
    C47      C        0.24310    0.32140    0.21480    1.000
    H25      H        0.30190    0.29250    0.20930    1.000
    C48      C        0.07190    0.05830    0.13970    1.000
    C49      C        0.03520    0.02750    0.06730    1.000
    C50      C        0.10730    0.99530    0.02290    1.000
    H26      H        0.18070    0.99190    0.03800    1.000
    C51      C        0.92930    0.03230    0.04490    1.000
    H27      H        0.88010    0.05460    0.07580    1.000
    C52      C        0.10410    0.03070    0.36080    1.000
    C53      C        0.04980    0.01540    0.43350    1.000
    C54      C        0.00750    0.06400    0.47670    1.000
    H28      H        0.01240    0.10780    0.46060    1.000
    C55      C        0.04250    0.95060    0.45600    1.000
    H29      H        0.07130    0.91700    0.42590    1.000
    C56      C        0.43080    0.09930    0.27600    1.000
    H30      H        0.43060    0.13200    0.23830    1.000
    C57      C        0.14730    0.29810    0.24420    1.000
    C58      C        0.06020    0.33700    0.22390    1.000
    H31      H        0.99200    0.31790    0.21360    1.000
    C59      C        0.07280    0.40380    0.21880    1.000
    H32      H        0.01330    0.43030    0.20500    1.000
    C60      C        0.17260    0.43170    0.23400    1.000
    C61      C        0.25970    0.39280    0.25420    1.000
    H33      H        0.32790    0.41190    0.26460    1.000
    C62      C        0.24710    0.32600    0.25930    1.000
    H34      H        0.30660    0.29950    0.27310    1.000
    Zn7      Zn       0.66660    0.39098    0.78000    1.000
    Zn8      Zn       0.94788    0.37232    0.77840    1.000
    Zn9      Zn       0.19959    0.40428    0.75398    1.000
    O29      O        0.51780    0.41450    0.80530    1.000
    O30      O        0.64890    0.33890    0.68840    1.000
    O31      O        0.82140    0.33550    0.71190    1.000
    O32      O        0.70750    0.15350    0.37060    1.000
    O33      O        0.28280    0.97730    0.73510    1.000
    O34      O        0.11000    0.96308    0.70470    1.000
    O35      O        0.88620    0.16870    0.37310    1.000
    O36      O        0.03310    0.29070    0.76000    1.000
    O37      O        0.09580    0.40990    0.83680    1.000
    O38      O        0.00440    0.41130    0.67600    1.000
    O39      O        0.16920    0.44800    0.65910    1.000
    O40      O        0.20730    0.31000    0.73740    1.000
    O41      O        0.34450    0.42520    0.79080    1.000
    O42      O        0.15610    0.51000    0.82780    1.000
    C63      C        0.74380    0.32170    0.67220    1.000
    C64      C        0.75760    0.28220    0.60260    1.000
    C65      C        0.66810    0.26120    0.56080    1.000
    H35      H        0.59790    0.27160    0.57710    1.000
    C66      C        0.85920    0.26730    0.57870    1.000
    H36      H        0.92060    0.28060    0.60730    1.000
    C67      C        0.18770    0.99700    0.72170    1.000
    C68      C        0.79550    0.17440    0.39890    1.000
    C69      C        0.78240    0.21110    0.47130    1.000
    C70      C        0.68060    0.22540    0.49630    1.000
    H37      H        0.61910    0.21060    0.46890    1.000
    C71      C        0.87160    0.23260    0.51210    1.000
    H38      H        0.94170    0.22350    0.49460    1.000
    C72      C        0.12670    0.27330    0.74530    1.000
    C73      C        0.14080    0.20290    0.72760    1.000
    C74      C        0.05480    0.16060    0.73570    1.000
    H39      H        0.98490    0.17720    0.74440    1.000
    C75      C        0.07100    0.09410    0.73090    1.000
    H40      H        0.01220    0.06520    0.73640    1.000
    C76      C        0.17330    0.06990    0.71810    1.000
    C77      C        0.25930    0.11210    0.71000    1.000
    H41      H        0.32920    0.09560    0.70130    1.000
    C78      C        0.24310    0.17860    0.71480    1.000
    H42      H        0.30190    0.20750    0.70930    1.000
    C79      C        0.07190    0.44170    0.63970    1.000
    C80      C        0.03520    0.47250    0.56730    1.000
    C81      C        0.10730    0.50470    0.52290    1.000
    H43      H        0.18070    0.50810    0.53800    1.000
    C82      C        0.92930    0.46770    0.54490    1.000
    H44      H        0.88010    0.44540    0.57580    1.000
    C83      C        0.10410    0.46930    0.86080    1.000
    C84      C        0.04980    0.48460    0.93350    1.000
    C85      C        0.00750    0.43600    0.97670    1.000
    H45      H        0.01240    0.39220    0.96060    1.000
    C86      C        0.04250    0.54940    0.95600    1.000
    H46      H        0.07130    0.58300    0.92590    1.000
    C87      C        0.43080    0.40070    0.77600    1.000
    H47      H        0.43060    0.36800    0.73830    1.000
    C88      C        0.14730    0.20190    0.74420    1.000
    C89      C        0.06020    0.16300    0.72390    1.000
    H48      H        0.99200    0.18210    0.71360    1.000
    C90      C        0.07280    0.09620    0.71880    1.000
    H49      H        0.01330    0.06970    0.70500    1.000
    C91      C        0.17260    0.06830    0.73400    1.000
    C92      C        0.25970    0.10720    0.75420    1.000
    H50      H        0.32790    0.08810    0.76460    1.000
    C93      C        0.24710    0.17400    0.75930    1.000
    H51      H        0.30660    0.20050    0.77310    1.000
    Zn10     Zn       0.33340    0.89098    0.72000    1.000
    Zn11     Zn       0.05212    0.87232    0.72160    1.000
    Zn12     Zn       0.80041    0.90428    0.74602    1.000
    O43      O        0.48220    0.91450    0.69470    1.000
    O44      O        0.35110    0.83890    0.81160    1.000
    O45      O        0.17860    0.83550    0.78810    1.000
    O46      O        0.29250    0.65350    0.12940    1.000
    O47      O        0.71720    0.47730    0.76490    1.000
    O48      O        0.89000    0.46308    0.79530    1.000
    O49      O        0.11380    0.66870    0.12690    1.000
    O50      O        0.96690    0.79070    0.74000    1.000
    O51      O        0.90420    0.90990    0.66320    1.000
    O52      O        0.99560    0.91130    0.82400    1.000
    O53      O        0.83080    0.94800    0.84090    1.000
    O54      O        0.79270    0.81000    0.76260    1.000
    O55      O        0.65550    0.92520    0.70920    1.000
    O56      O        0.84390    0.01000    0.67220    1.000
    C94      C        0.25620    0.82170    0.82780    1.000
    C95      C        0.24240    0.78220    0.89740    1.000
    C96      C        0.33190    0.76120    0.93920    1.000
    H52      H        0.40210    0.77160    0.92290    1.000
    C97      C        0.14080    0.76730    0.92130    1.000
    H53      H        0.07940    0.78060    0.89270    1.000
    C98      C        0.81230    0.49700    0.77830    1.000
    C99      C        0.20450    0.67440    0.10110    1.000
    C100     C        0.21760    0.71110    0.02870    1.000
    C101     C        0.31940    0.72540    0.00370    1.000
    H54      H        0.38090    0.71060    0.03110    1.000
    C102     C        0.12840    0.73260    0.98790    1.000
    H55      H        0.05830    0.72350    0.00540    1.000
    C103     C        0.87330    0.77330    0.75470    1.000
    C104     C        0.85920    0.70290    0.77240    1.000
    C105     C        0.94520    0.66060    0.76430    1.000
    H56      H        0.01510    0.67720    0.75560    1.000
    C106     C        0.92900    0.59410    0.76910    1.000
    H57      H        0.98780    0.56520    0.76360    1.000
    C107     C        0.82670    0.56990    0.78190    1.000
    C108     C        0.74070    0.61210    0.79000    1.000
    H58      H        0.67080    0.59560    0.79870    1.000
    C109     C        0.75690    0.67860    0.78520    1.000
    H59      H        0.69810    0.70750    0.79070    1.000
    C110     C        0.92810    0.94170    0.86030    1.000
    C111     C        0.96480    0.97250    0.93270    1.000
    C112     C        0.89270    0.00470    0.97710    1.000
    H60      H        0.81930    0.00810    0.96200    1.000
    C113     C        0.07070    0.96770    0.95510    1.000
    H61      H        0.11990    0.94540    0.92420    1.000
    C114     C        0.89590    0.96930    0.63920    1.000
    C115     C        0.95020    0.98460    0.56650    1.000
    C116     C        0.99250    0.93600    0.52330    1.000
    H62      H        0.98760    0.89220    0.53940    1.000
    C117     C        0.95750    0.04940    0.54400    1.000
    H63      H        0.92870    0.08300    0.57410    1.000
    C118     C        0.56920    0.90070    0.72400    1.000
    H64      H        0.56940    0.86800    0.76170    1.000
    C119     C        0.85270    0.70190    0.75580    1.000
    C120     C        0.93980    0.66300    0.77610    1.000
    H65      H        0.00800    0.68210    0.78640    1.000
    C121     C        0.92720    0.59620    0.78120    1.000
    H66      H        0.98670    0.56970    0.79500    1.000
    C122     C        0.82740    0.56830    0.76600    1.000
    C123     C        0.74030    0.60720    0.74580    1.000
    H67      H        0.67210    0.58810    0.73540    1.000
    C124     C        0.75290    0.67400    0.74070    1.000
    H68      H        0.69340    0.70050    0.72690    1.000
