# CIF file generated by openbabel 3.1.0, see https://openbabel.org
data_I
_chemical_name_common 'GAMTUK_clean'
_cell_length_a 11.812
_cell_length_b 12.444
_cell_length_c 12.522
_cell_angle_alpha 118.949
_cell_angle_beta 108.3
_cell_angle_gamma 98.387
_space_group_name_H-M_alt 'P 1'
_space_group_name_Hall 'P 1'
loop_
    _symmetry_equiv_pos_as_xyz
    x,y,z
loop_
    _atom_site_label
    _atom_site_type_symbol
    _atom_site_fract_x
    _atom_site_fract_y
    _atom_site_fract_z
    _atom_site_occupancy
    Ce1      Ce       0.52169    0.82224    0.99015    1.000
    Ce2      Ce       0.80270    0.75667    0.23604    1.000
    Ce3      Ce       0.47831    0.17776    0.00985    1.000
    Ce4      Ce       0.19730    0.24333    0.76396    1.000
    H1       H        0.40720    0.55520    0.20500    1.000
    H2       H        0.15130    0.51020    0.34430    1.000
    H3       H        0.34210    0.87300    0.44760    1.000
    H4       H        0.50820    0.90840    0.39510    1.000
    H5       H        0.58140    0.80830    0.38320    1.000
    H6       H        0.31000    0.34500    0.22290    1.000
    H7       H        0.16110    0.32190    0.17710    1.000
    H8       H        0.15300    0.71810    0.53850    1.000
    H9       H        0.22080    0.85840    0.56970    1.000
    H10      H        0.43460    0.30350    0.48240    1.000
    H11      H        0.12340    0.99180    0.16250    1.000
    H12      H        0.08790    0.32740    0.41930    1.000
    H13      H        0.27360    0.52180    0.59180    1.000
    H14      H        0.41200    0.51810    0.60600    1.000
    H15      H        0.44520    0.07980    0.34540    1.000
    H16      H        0.32310    0.96750    0.20560    1.000
    H17      H        0.92540    0.03250    0.08350    1.000
    H18      H        0.91210    0.16640    0.18270    1.000
    H19      H        0.59280    0.44480    0.79500    1.000
    H20      H        0.84870    0.48980    0.65570    1.000
    H21      H        0.65790    0.12700    0.55240    1.000
    H22      H        0.49180    0.09160    0.60490    1.000
    H23      H        0.41860    0.19170    0.61680    1.000
    H24      H        0.69000    0.65500    0.77710    1.000
    H25      H        0.83890    0.67810    0.82290    1.000
    H26      H        0.84700    0.28190    0.46150    1.000
    H27      H        0.77920    0.14160    0.43030    1.000
    H28      H        0.56540    0.69650    0.51760    1.000
    H29      H        0.87660    0.00820    0.83750    1.000
    H30      H        0.91210    0.67260    0.58070    1.000
    H31      H        0.72640    0.47820    0.40820    1.000
    H32      H        0.58800    0.48190    0.39400    1.000
    H33      H        0.55480    0.92020    0.65460    1.000
    H34      H        0.67690    0.03250    0.79440    1.000
    H35      H        0.07460    0.96750    0.91650    1.000
    H36      H        0.08790    0.83360    0.81730    1.000
    C1       C        0.39180    0.72760    0.32880    1.000
    C2       C        0.36290    0.59300    0.25660    1.000
    C3       C        0.27060    0.51260    0.25840    1.000
    C4       C        0.21010    0.56500    0.33810    1.000
    C5       C        0.23730    0.70390    0.41150    1.000
    C6       C        0.32630    0.78130    0.40230    1.000
    C7       C        0.50160    0.81640    0.33650    1.000
    C8       C        0.49650    0.79400    0.20580    1.000
    C9       C        0.23900    0.36480    0.17770    1.000
    C10      C        0.21780    0.30890    0.03350    1.000
    C11      C        0.16830    0.76490    0.49620    1.000
    C12      C        0.04230    0.75410    0.40310    1.000
    C13      C        0.26980    0.33450    0.46870    1.000
    C14      C        0.34460    0.26430    0.42890    1.000
    C15      C        0.29160    0.13600    0.31110    1.000
    C16      C        0.16110    0.08090    0.23850    1.000
    C17      C        0.08220    0.14990    0.27170    1.000
    C18      C        0.13990    0.27880    0.39170    1.000
    C19      C        0.33110    0.47250    0.59860    1.000
    C20      C        0.35880    0.47600    0.72660    1.000
    C21      C        0.37380    0.06290    0.26490    1.000
    C22      C        0.42840    0.10000    0.18770    1.000
    C23      C        0.93860    0.09290    0.17810    1.000
    C24      C        0.84810    0.01870    0.20450    1.000
    C25      C        0.60820    0.27240    0.67120    1.000
    C26      C        0.63710    0.40700    0.74340    1.000
    C27      C        0.72940    0.48740    0.74160    1.000
    C28      C        0.78990    0.43500    0.66190    1.000
    C29      C        0.76270    0.29610    0.58850    1.000
    C30      C        0.67370    0.21870    0.59770    1.000
    C31      C        0.49840    0.18360    0.66350    1.000
    C32      C        0.50350    0.20600    0.79420    1.000
    C33      C        0.76100    0.63520    0.82230    1.000
    C34      C        0.78220    0.69110    0.96650    1.000
    C35      C        0.83170    0.23510    0.50380    1.000
    C36      C        0.95770    0.24590    0.59690    1.000
    C37      C        0.73020    0.66550    0.53130    1.000
    C38      C        0.65540    0.73570    0.57110    1.000
    C39      C        0.70840    0.86400    0.68890    1.000
    C40      C        0.83890    0.91910    0.76150    1.000
    C41      C        0.91780    0.85010    0.72830    1.000
    C42      C        0.86010    0.72120    0.60830    1.000
    C43      C        0.66890    0.52750    0.40140    1.000
    C44      C        0.64120    0.52400    0.27340    1.000
    C45      C        0.62620    0.93710    0.73510    1.000
    C46      C        0.57160    0.90000    0.81230    1.000
    C47      C        0.06140    0.90710    0.82190    1.000
    C48      C        0.15190    0.98130    0.79550    1.000
    O1       O        0.39700    0.76760    0.11230    1.000
    O2       O        0.60310    0.81370    0.19890    1.000
    O3       O        0.11510    0.29350    0.94620    1.000
    O4       O        0.30440    0.27690    0.99890    1.000
    O5       O        0.04190    0.83560    0.36910    1.000
    O6       O        0.93780    0.66480    0.35670    1.000
    O7       O        0.40920    0.58500    0.84160    1.000
    O8       O        0.33140    0.36870    0.71920    1.000
    O9       O        0.42640    0.20300    0.19270    1.000
    O10      O        0.47210    0.02280    0.11360    1.000
    O11      O        0.73310    0.00220    0.14350    1.000
    O12      O        0.88980    0.97520    0.27420    1.000
    O13      O        0.60300    0.23240    0.88770    1.000
    O14      O        0.39690    0.18630    0.80110    1.000
    O15      O        0.88490    0.70650    0.05380    1.000
    O16      O        0.69560    0.72310    0.00110    1.000
    O17      O        0.95810    0.16440    0.63090    1.000
    O18      O        0.06220    0.33520    0.64330    1.000
    O19      O        0.59080    0.41500    0.15840    1.000
    O20      O        0.66860    0.63130    0.28080    1.000
    O21      O        0.57360    0.79700    0.80730    1.000
    O22      O        0.52790    0.97720    0.88640    1.000
    O23      O        0.26690    0.99780    0.85650    1.000
    O24      O        0.11020    0.02480    0.72580    1.000
