# CIF file generated by openbabel 3.1.0, see https://openbabel.org
data_I
_chemical_name_common 'image0'
_cell_length_a 15.4313
_cell_length_b 15.4313
_cell_length_c 9.8884
_cell_angle_alpha 90
_cell_angle_beta 90
_cell_angle_gamma 90
_space_group_name_H-M_alt 'P 1'
_space_group_name_Hall 'P 1'
loop_
    _symmetry_equiv_pos_as_xyz
    x,y,z
loop_
    _atom_site_label
    _atom_site_type_symbol
    _atom_site_fract_x
    _atom_site_fract_y
    _atom_site_fract_z
    _atom_site_occupancy
    O1       O        0.53020    0.62812    0.12141    1.000
    C1       C        0.38575    0.75554    0.87950    1.000
    H1       H        0.41040    0.73800    0.79810    1.000
    C2       C        0.31064    0.80495    0.88080    1.000
    H2       H        0.28570    0.82110    0.79890    1.000
    O2       O        0.46980    0.37188    0.12141    1.000
    C3       C        0.61425    0.24446    0.87950    1.000
    H3       H        0.58960    0.26200    0.79810    1.000
    C4       C        0.68936    0.19505    0.88080    1.000
    H4       H        0.71430    0.17890    0.79890    1.000
    O3       O        0.37188    0.53020    0.12141    1.000
    C5       C        0.24446    0.38575    0.87950    1.000
    H5       H        0.26200    0.41040    0.79810    1.000
    C6       C        0.19505    0.31064    0.88080    1.000
    H6       H        0.17890    0.28570    0.79890    1.000
    O4       O        0.62812    0.46980    0.12141    1.000
    C7       C        0.75554    0.61425    0.87950    1.000
    H7       H        0.73800    0.58960    0.79810    1.000
    C8       C        0.80495    0.68936    0.88080    1.000
    H8       H        0.82110    0.71430    0.79890    1.000
    O5       O        0.46980    0.62812    0.37859    1.000
    C9       C        0.61425    0.75554    0.62050    1.000
    H9       H        0.58960    0.73800    0.70190    1.000
    C10      C        0.68936    0.80495    0.61920    1.000
    H10      H        0.71430    0.82110    0.70110    1.000
    O6       O        0.53020    0.37188    0.37859    1.000
    C11      C        0.38575    0.24446    0.62050    1.000
    H11      H        0.41040    0.26200    0.70190    1.000
    C12      C        0.31064    0.19505    0.61920    1.000
    H12      H        0.28570    0.17890    0.70110    1.000
    O7       O        0.62812    0.53020    0.37859    1.000
    C13      C        0.75554    0.38575    0.62050    1.000
    H13      H        0.73800    0.41040    0.70190    1.000
    C14      C        0.80495    0.31064    0.61920    1.000
    H14      H        0.82110    0.28570    0.70110    1.000
    O8       O        0.37188    0.46980    0.37859    1.000
    C15      C        0.24446    0.61425    0.62050    1.000
    H15      H        0.26200    0.58960    0.70190    1.000
    C16      C        0.19505    0.68936    0.61920    1.000
    H16      H        0.17890    0.71430    0.70110    1.000
    O9       O        0.46980    0.37188    0.87859    1.000
    C17      C        0.61425    0.24446    0.12050    1.000
    H17      H        0.58960    0.26200    0.20190    1.000
    C18      C        0.68936    0.19505    0.11920    1.000
    H18      H        0.71430    0.17890    0.20110    1.000
    O10      O        0.53020    0.62812    0.87859    1.000
    C19      C        0.38575    0.75554    0.12050    1.000
    H19      H        0.41040    0.73800    0.20190    1.000
    C20      C        0.31064    0.80495    0.11920    1.000
    H20      H        0.28570    0.82110    0.20110    1.000
    O11      O        0.62812    0.46980    0.87859    1.000
    C21      C        0.75554    0.61425    0.12050    1.000
    H21      H        0.73800    0.58960    0.20190    1.000
    C22      C        0.80495    0.68936    0.11920    1.000
    H22      H        0.82110    0.71430    0.20110    1.000
    O12      O        0.37188    0.53020    0.87859    1.000
    C23      C        0.24446    0.38575    0.12050    1.000
    H23      H        0.26200    0.41040    0.20190    1.000
    C24      C        0.19505    0.31064    0.11920    1.000
    H24      H        0.17890    0.28570    0.20110    1.000
    O13      O        0.53020    0.37188    0.62141    1.000
    C25      C        0.38575    0.24446    0.37950    1.000
    H25      H        0.41040    0.26200    0.29810    1.000
    C26      C        0.31064    0.19505    0.38080    1.000
    H26      H        0.28570    0.17890    0.29890    1.000
    O14      O        0.46980    0.62812    0.62141    1.000
    C27      C        0.61425    0.75554    0.37950    1.000
    H27      H        0.58960    0.73800    0.29810    1.000
    C28      C        0.68936    0.80495    0.38080    1.000
    H28      H        0.71430    0.82110    0.29890    1.000
    O15      O        0.37188    0.46980    0.62141    1.000
    C29      C        0.24446    0.61425    0.37950    1.000
    H29      H        0.26200    0.58960    0.29810    1.000
    C30      C        0.19505    0.68936    0.38080    1.000
    H30      H        0.17890    0.71430    0.29890    1.000
    O16      O        0.62812    0.53020    0.62141    1.000
    C31      C        0.75554    0.38575    0.37950    1.000
    H31      H        0.73800    0.41040    0.29810    1.000
    C32      C        0.80495    0.31064    0.38080    1.000
    H32      H        0.82110    0.28570    0.29890    1.000
    Eu1      Eu       0.50000    0.50000    0.25000    1.000
    Eu2      Eu       0.50000    0.50000    0.75000    1.000
    S1       S        0.52493    0.68037    0.00000    1.000
    N1       N        0.12913    0.03080    0.00000    1.000
    O17      O        0.58727    0.74880    0.00000    1.000
    C33      C        0.42290    0.73310    0.00000    1.000
    C34      C        0.27170    0.83100    0.00000    1.000
    C35      C        0.19040    0.88130    0.00000    1.000
    C36      C        0.19730    0.97340    0.00000    1.000
    C37      C        0.27710    0.02100    0.00000    1.000
    H33      H        0.33260    0.99750    0.00000    1.000
    C38      C        0.25730    0.10520    0.00000    1.000
    H34      H        0.29650    0.15090    0.00000    1.000
    C39      C        0.16600    0.11240    0.00000    1.000
    S2       S        0.47507    0.31963    0.00000    1.000
    N2       N        0.87087    0.96920    0.00000    1.000
    O18      O        0.41273    0.25120    0.00000    1.000
    C40      C        0.57710    0.26690    0.00000    1.000
    C41      C        0.72830    0.16900    0.00000    1.000
    C42      C        0.80960    0.11870    0.00000    1.000
    C43      C        0.80270    0.02660    0.00000    1.000
    C44      C        0.72290    0.97900    0.00000    1.000
    H35      H        0.66740    0.00250    0.00000    1.000
    C45      C        0.74270    0.89480    0.00000    1.000
    H36      H        0.70350    0.84910    0.00000    1.000
    C46      C        0.83400    0.88760    0.00000    1.000
    S3       S        0.31963    0.52493    0.00000    1.000
    N3       N        0.96920    0.12913    0.00000    1.000
    O19      O        0.25120    0.58727    0.00000    1.000
    C47      C        0.26690    0.42290    0.00000    1.000
    C48      C        0.16900    0.27170    0.00000    1.000
    C49      C        0.11870    0.19040    0.00000    1.000
    C50      C        0.02660    0.19730    0.00000    1.000
    C51      C        0.97900    0.27710    0.00000    1.000
    H37      H        0.00250    0.33260    0.00000    1.000
    C52      C        0.89480    0.25730    0.00000    1.000
    H38      H        0.84910    0.29650    0.00000    1.000
    C53      C        0.88760    0.16600    0.00000    1.000
    S4       S        0.68037    0.47507    0.00000    1.000
    N4       N        0.03080    0.87087    0.00000    1.000
    O20      O        0.74880    0.41273    0.00000    1.000
    C54      C        0.73310    0.57710    0.00000    1.000
    C55      C        0.83100    0.72830    0.00000    1.000
    C56      C        0.88130    0.80960    0.00000    1.000
    C57      C        0.97340    0.80270    0.00000    1.000
    C58      C        0.02100    0.72290    0.00000    1.000
    H39      H        0.99750    0.66740    0.00000    1.000
    C59      C        0.10520    0.74270    0.00000    1.000
    H40      H        0.15090    0.70350    0.00000    1.000
    C60      C        0.11240    0.83400    0.00000    1.000
    S5       S        0.47507    0.68037    0.50000    1.000
    N5       N        0.87087    0.03080    0.50000    1.000
    O21      O        0.41273    0.74880    0.50000    1.000
    C61      C        0.57710    0.73310    0.50000    1.000
    C62      C        0.72830    0.83100    0.50000    1.000
    C63      C        0.80960    0.88130    0.50000    1.000
    C64      C        0.80270    0.97340    0.50000    1.000
    C65      C        0.72290    0.02100    0.50000    1.000
    H41      H        0.66740    0.99750    0.50000    1.000
    C66      C        0.74270    0.10520    0.50000    1.000
    H42      H        0.70350    0.15090    0.50000    1.000
    C67      C        0.83400    0.11240    0.50000    1.000
    S6       S        0.52493    0.31963    0.50000    1.000
    N6       N        0.12913    0.96920    0.50000    1.000
    O22      O        0.58727    0.25120    0.50000    1.000
    C68      C        0.42290    0.26690    0.50000    1.000
    C69      C        0.27170    0.16900    0.50000    1.000
    C70      C        0.19040    0.11870    0.50000    1.000
    C71      C        0.19730    0.02660    0.50000    1.000
    C72      C        0.27710    0.97900    0.50000    1.000
    H43      H        0.33260    0.00250    0.50000    1.000
    C73      C        0.25730    0.89480    0.50000    1.000
    H44      H        0.29650    0.84910    0.50000    1.000
    C74      C        0.16600    0.88760    0.50000    1.000
    S7       S        0.68037    0.52493    0.50000    1.000
    N7       N        0.03080    0.12913    0.50000    1.000
    O23      O        0.74880    0.58727    0.50000    1.000
    C75      C        0.73310    0.42290    0.50000    1.000
    C76      C        0.83100    0.27170    0.50000    1.000
    C77      C        0.88130    0.19040    0.50000    1.000
    C78      C        0.97340    0.19730    0.50000    1.000
    C79      C        0.02100    0.27710    0.50000    1.000
    H45      H        0.99750    0.33260    0.50000    1.000
    C80      C        0.10520    0.25730    0.50000    1.000
    H46      H        0.15090    0.29650    0.50000    1.000
    C81      C        0.11240    0.16600    0.50000    1.000
    S8       S        0.31963    0.47507    0.50000    1.000
    N8       N        0.96920    0.87087    0.50000    1.000
    O24      O        0.25120    0.41273    0.50000    1.000
    C82      C        0.26690    0.57710    0.50000    1.000
    C83      C        0.16900    0.72830    0.50000    1.000
    C84      C        0.11870    0.80960    0.50000    1.000
    C85      C        0.02660    0.80270    0.50000    1.000
    C86      C        0.97900    0.72290    0.50000    1.000
    H47      H        0.00250    0.66740    0.50000    1.000
    C87      C        0.89480    0.74270    0.50000    1.000
    H48      H        0.84910    0.70350    0.50000    1.000
    C88      C        0.88760    0.83400    0.50000    1.000
