# CIF file generated by openbabel 3.1.0, see https://openbabel.org
data_I
_chemical_name_common 'image0'
_cell_length_a 21.3477
_cell_length_b 22.9862
_cell_length_c 24.297
_cell_angle_alpha 90
_cell_angle_beta 90
_cell_angle_gamma 90
_space_group_name_H-M_alt 'P 1'
_space_group_name_Hall 'P 1'
loop_
    _symmetry_equiv_pos_as_xyz
    x,y,z
loop_
    _atom_site_label
    _atom_site_type_symbol
    _atom_site_fract_x
    _atom_site_fract_y
    _atom_site_fract_z
    _atom_site_occupancy
    Zn1      Zn       0.93796    0.99819    0.21204    1.000
    N1       N        0.96110    0.06600    0.16610    1.000
    N2       N        0.99190    0.11960    0.09630    1.000
    N3       N        0.91910    0.06890    0.83640    1.000
    N4       N        0.88330    0.11850    0.90620    1.000
    N5       N        0.80540    0.23000    0.40560    1.000
    N6       N        0.75330    0.22940    0.48440    1.000
    N7       N        0.86350    0.02210    0.25570    1.000
    N8       N        0.77700    0.06870    0.27770    1.000
    C1       C        0.98410    0.06720    0.11460    1.000
    H1       H        0.99360    0.03320    0.09390    1.000
    C2       C        0.97480    0.15970    0.13640    1.000
    H2       H        0.97720    0.20100    0.13470    1.000
    C3       C        0.95410    0.12640    0.17840    1.000
    H3       H        0.93710    0.14120    0.21170    1.000
    C4       C        0.01670    0.13340    0.04100    1.000
    C5       C        0.97030    0.11770    0.99420    1.000
    C6       C        0.91510    0.16110    0.99430    1.000
    C7       C        0.85880    0.13300    0.96380    1.000
    C8       C        0.89290    0.06490    0.88430    1.000
    H4       H        0.88200    0.02930    0.90170    1.000
    C9       C        0.90210    0.15460    0.87200    1.000
    H5       H        0.90250    0.19560    0.87720    1.000
    C10      C        0.92290    0.12530    0.82400    1.000
    H6       H        0.93660    0.14210    0.79040    1.000
    C11      C        0.75530    0.25020    0.43160    1.000
    H7       H        0.72510    0.27540    0.41580    1.000
    C12      C        0.80800    0.19120    0.49020    1.000
    H8       H        0.81970    0.16780    0.52070    1.000
    C13      C        0.83680    0.19750    0.44270    1.000
    H9       H        0.87640    0.18040    0.43510    1.000
    C14      C        0.81820    0.24150    0.34670    1.000
    H10      H        0.78940    0.27230    0.33350    1.000
    H11      H        0.86160    0.25600    0.34270    1.000
    C15      C        0.80980    0.18640    0.31060    1.000
    H12      H        0.81580    0.19650    0.27140    1.000
    H13      H        0.84140    0.15680    0.32090    1.000
    C16      C        0.74370    0.16190    0.31940    1.000
    H14      H        0.71260    0.19380    0.31690    1.000
    H15      H        0.74060    0.14450    0.35650    1.000
    C17      C        0.72930    0.11530    0.27530    1.000
    H16      H        0.68720    0.09860    0.28190    1.000
    H17      H        0.72950    0.13340    0.23840    1.000
    C18      C        0.82420    0.06200    0.24060    1.000
    H18      H        0.82790    0.08400    0.20760    1.000
    C19      C        0.78580    0.02720    0.32040    1.000
    H19      H        0.76020    0.02020    0.35170    1.000
    C20      C        0.84120    0.99930    0.30500    1.000
    H20      H        0.86080    0.96900    0.32520    1.000
    C21      C        0.96590    0.15470    0.00100    1.000
    C22      C        0.90860    0.11350    0.00600    1.000
    Zn2      Zn       0.93796    0.49819    0.71204    1.000
    N9       N        0.96110    0.56600    0.66610    1.000
    N10      N        0.99190    0.61960    0.59630    1.000
    N11      N        0.91910    0.56890    0.33640    1.000
    N12      N        0.88330    0.61850    0.40620    1.000
    N13      N        0.80540    0.73000    0.90560    1.000
    N14      N        0.75330    0.72940    0.98440    1.000
    N15      N        0.86350    0.52210    0.75570    1.000
    N16      N        0.77700    0.56870    0.77770    1.000
    C23      C        0.98410    0.56720    0.61460    1.000
    H21      H        0.99360    0.53320    0.59390    1.000
    C24      C        0.97480    0.65970    0.63640    1.000
    H22      H        0.97720    0.70100    0.63470    1.000
    C25      C        0.95410    0.62640    0.67840    1.000
    H23      H        0.93710    0.64120    0.71170    1.000
    C26      C        0.01670    0.63340    0.54100    1.000
    C27      C        0.97030    0.61770    0.49420    1.000
    C28      C        0.91510    0.66110    0.49430    1.000
    C29      C        0.85880    0.63300    0.46380    1.000
    C30      C        0.89290    0.56490    0.38430    1.000
    H24      H        0.88200    0.52930    0.40170    1.000
    C31      C        0.90210    0.65460    0.37200    1.000
    H25      H        0.90250    0.69560    0.37720    1.000
    C32      C        0.92290    0.62530    0.32400    1.000
    H26      H        0.93660    0.64210    0.29040    1.000
    C33      C        0.75530    0.75020    0.93160    1.000
    H27      H        0.72510    0.77540    0.91580    1.000
    C34      C        0.80800    0.69120    0.99020    1.000
    H28      H        0.81970    0.66780    0.02070    1.000
    C35      C        0.83680    0.69750    0.94270    1.000
    H29      H        0.87640    0.68040    0.93510    1.000
    C36      C        0.81820    0.74150    0.84670    1.000
    H30      H        0.78940    0.77230    0.83350    1.000
    H31      H        0.86160    0.75600    0.84270    1.000
    C37      C        0.80980    0.68640    0.81060    1.000
    H32      H        0.81580    0.69650    0.77140    1.000
    H33      H        0.84140    0.65680    0.82090    1.000
    C38      C        0.74370    0.66190    0.81940    1.000
    H34      H        0.71260    0.69380    0.81690    1.000
    H35      H        0.74060    0.64450    0.85650    1.000
    C39      C        0.72930    0.61530    0.77530    1.000
    H36      H        0.68720    0.59860    0.78190    1.000
    H37      H        0.72950    0.63340    0.73840    1.000
    C40      C        0.82420    0.56200    0.74060    1.000
    H38      H        0.82790    0.58400    0.70760    1.000
    C41      C        0.78580    0.52720    0.82040    1.000
    H39      H        0.76020    0.52020    0.85170    1.000
    C42      C        0.84120    0.49930    0.80500    1.000
    H40      H        0.86080    0.46900    0.82520    1.000
    C43      C        0.96590    0.65470    0.50100    1.000
    C44      C        0.90860    0.61350    0.50600    1.000
    Zn3      Zn       0.43796    0.99819    0.71204    1.000
    N17      N        0.46110    0.06600    0.66610    1.000
    N18      N        0.49190    0.11960    0.59630    1.000
    N19      N        0.41910    0.06890    0.33640    1.000
    N20      N        0.38330    0.11850    0.40620    1.000
    N21      N        0.30540    0.23000    0.90560    1.000
    N22      N        0.25330    0.22940    0.98440    1.000
    N23      N        0.36350    0.02210    0.75570    1.000
    N24      N        0.27700    0.06870    0.77770    1.000
    C45      C        0.48410    0.06720    0.61460    1.000
    H41      H        0.49360    0.03320    0.59390    1.000
    C46      C        0.47480    0.15970    0.63640    1.000
    H42      H        0.47720    0.20100    0.63470    1.000
    C47      C        0.45410    0.12640    0.67840    1.000
    H43      H        0.43710    0.14120    0.71170    1.000
    C48      C        0.51670    0.13340    0.54100    1.000
    C49      C        0.47030    0.11770    0.49420    1.000
    C50      C        0.41510    0.16110    0.49430    1.000
    C51      C        0.35880    0.13300    0.46380    1.000
    C52      C        0.39290    0.06490    0.38430    1.000
    H44      H        0.38200    0.02930    0.40170    1.000
    C53      C        0.40210    0.15460    0.37200    1.000
    H45      H        0.40250    0.19560    0.37720    1.000
    C54      C        0.42290    0.12530    0.32400    1.000
    H46      H        0.43660    0.14210    0.29040    1.000
    C55      C        0.25530    0.25020    0.93160    1.000
    H47      H        0.22510    0.27540    0.91580    1.000
    C56      C        0.30800    0.19120    0.99020    1.000
    H48      H        0.31970    0.16780    0.02070    1.000
    C57      C        0.33680    0.19750    0.94270    1.000
    H49      H        0.37640    0.18040    0.93510    1.000
    C58      C        0.31820    0.24150    0.84670    1.000
    H50      H        0.28940    0.27230    0.83350    1.000
    H51      H        0.36160    0.25600    0.84270    1.000
    C59      C        0.30980    0.18640    0.81060    1.000
    H52      H        0.31580    0.19650    0.77140    1.000
    H53      H        0.34140    0.15680    0.82090    1.000
    C60      C        0.24370    0.16190    0.81940    1.000
    H54      H        0.21260    0.19380    0.81690    1.000
    H55      H        0.24060    0.14450    0.85650    1.000
    C61      C        0.22930    0.11530    0.77530    1.000
    H56      H        0.18720    0.09860    0.78190    1.000
    H57      H        0.22950    0.13340    0.73840    1.000
    C62      C        0.32420    0.06200    0.74060    1.000
    H58      H        0.32790    0.08400    0.70760    1.000
    C63      C        0.28580    0.02720    0.82040    1.000
    H59      H        0.26020    0.02020    0.85170    1.000
    C64      C        0.34120    0.99930    0.80500    1.000
    H60      H        0.36080    0.96900    0.82520    1.000
    C65      C        0.46590    0.15470    0.50100    1.000
    C66      C        0.40860    0.11350    0.50600    1.000
    Zn4      Zn       0.43796    0.49819    0.21204    1.000
    N25      N        0.46110    0.56600    0.16610    1.000
    N26      N        0.49190    0.61960    0.09630    1.000
    N27      N        0.41910    0.56890    0.83640    1.000
    N28      N        0.38330    0.61850    0.90620    1.000
    N29      N        0.30540    0.73000    0.40560    1.000
    N30      N        0.25330    0.72940    0.48440    1.000
    N31      N        0.36350    0.52210    0.25570    1.000
    N32      N        0.27700    0.56870    0.27770    1.000
    C67      C        0.48410    0.56720    0.11460    1.000
    H61      H        0.49360    0.53320    0.09390    1.000
    C68      C        0.47480    0.65970    0.13640    1.000
    H62      H        0.47720    0.70100    0.13470    1.000
    C69      C        0.45410    0.62640    0.17840    1.000
    H63      H        0.43710    0.64120    0.21170    1.000
    C70      C        0.51670    0.63340    0.04100    1.000
    C71      C        0.47030    0.61770    0.99420    1.000
    C72      C        0.41510    0.66110    0.99430    1.000
    C73      C        0.35880    0.63300    0.96380    1.000
    C74      C        0.39290    0.56490    0.88430    1.000
    H64      H        0.38200    0.52930    0.90170    1.000
    C75      C        0.40210    0.65460    0.87200    1.000
    H65      H        0.40250    0.69560    0.87720    1.000
    C76      C        0.42290    0.62530    0.82400    1.000
    H66      H        0.43660    0.64210    0.79040    1.000
    C77      C        0.25530    0.75020    0.43160    1.000
    H67      H        0.22510    0.77540    0.41580    1.000
    C78      C        0.30800    0.69120    0.49020    1.000
    H68      H        0.31970    0.66780    0.52070    1.000
    C79      C        0.33680    0.69750    0.44270    1.000
    H69      H        0.37640    0.68040    0.43510    1.000
    C80      C        0.31820    0.74150    0.34670    1.000
    H70      H        0.28940    0.77230    0.33350    1.000
    H71      H        0.36160    0.75600    0.34270    1.000
    C81      C        0.30980    0.68640    0.31060    1.000
    H72      H        0.31580    0.69650    0.27140    1.000
    H73      H        0.34140    0.65680    0.32090    1.000
    C82      C        0.24370    0.66190    0.31940    1.000
    H74      H        0.21260    0.69380    0.31690    1.000
    H75      H        0.24060    0.64450    0.35650    1.000
    C83      C        0.22930    0.61530    0.27530    1.000
    H76      H        0.18720    0.59860    0.28190    1.000
    H77      H        0.22950    0.63340    0.23840    1.000
    C84      C        0.32420    0.56200    0.24060    1.000
    H78      H        0.32790    0.58400    0.20760    1.000
    C85      C        0.28580    0.52720    0.32040    1.000
    H79      H        0.26020    0.52020    0.35170    1.000
    C86      C        0.34120    0.49930    0.30500    1.000
    H80      H        0.36080    0.46900    0.32520    1.000
    C87      C        0.46590    0.65470    0.00100    1.000
    C88      C        0.40860    0.61350    0.00600    1.000
    Zn5      Zn       0.93796    0.00181    0.78796    1.000
    N33      N        0.96110    0.93400    0.83390    1.000
    N34      N        0.99190    0.88040    0.90370    1.000
    N35      N        0.91910    0.93110    0.16360    1.000
    N36      N        0.88330    0.88150    0.09380    1.000
    N37      N        0.80540    0.77000    0.59440    1.000
    N38      N        0.75330    0.77060    0.51560    1.000
    N39      N        0.86350    0.97790    0.74430    1.000
    N40      N        0.77700    0.93130    0.72230    1.000
    C89      C        0.98410    0.93280    0.88540    1.000
    H81      H        0.99360    0.96680    0.90610    1.000
    C90      C        0.97480    0.84030    0.86360    1.000
    H82      H        0.97720    0.79900    0.86530    1.000
    C91      C        0.95410    0.87360    0.82160    1.000
    H83      H        0.93710    0.85880    0.78830    1.000
    C92      C        0.01670    0.86660    0.95900    1.000
    C93      C        0.97030    0.88230    0.00580    1.000
    C94      C        0.91510    0.83890    0.00570    1.000
    C95      C        0.85880    0.86700    0.03620    1.000
    C96      C        0.89290    0.93510    0.11570    1.000
    H84      H        0.88200    0.97070    0.09830    1.000
    C97      C        0.90210    0.84540    0.12800    1.000
    H85      H        0.90250    0.80440    0.12280    1.000
    C98      C        0.92290    0.87470    0.17600    1.000
    H86      H        0.93660    0.85790    0.20960    1.000
    C99      C        0.75530    0.74980    0.56840    1.000
    H87      H        0.72510    0.72460    0.58420    1.000
    C100     C        0.80800    0.80880    0.50980    1.000
    H88      H        0.81970    0.83220    0.47930    1.000
    C101     C        0.83680    0.80250    0.55730    1.000
    H89      H        0.87640    0.81960    0.56490    1.000
    C102     C        0.81820    0.75850    0.65330    1.000
    H90      H        0.78940    0.72770    0.66650    1.000
    H91      H        0.86160    0.74400    0.65730    1.000
    C103     C        0.80980    0.81360    0.68940    1.000
    H92      H        0.81580    0.80350    0.72860    1.000
    H93      H        0.84140    0.84320    0.67910    1.000
    C104     C        0.74370    0.83810    0.68060    1.000
    H94      H        0.71260    0.80620    0.68310    1.000
    H95      H        0.74060    0.85550    0.64350    1.000
    C105     C        0.72930    0.88470    0.72470    1.000
    H96      H        0.68720    0.90140    0.71810    1.000
    H97      H        0.72950    0.86660    0.76160    1.000
    C106     C        0.82420    0.93800    0.75940    1.000
    H98      H        0.82790    0.91600    0.79240    1.000
    C107     C        0.78580    0.97280    0.67960    1.000
    H99      H        0.76020    0.97980    0.64830    1.000
    C108     C        0.84120    0.00070    0.69500    1.000
    H100     H        0.86080    0.03100    0.67480    1.000
    C109     C        0.96590    0.84530    0.99900    1.000
    C110     C        0.90860    0.88650    0.99400    1.000
    Zn6      Zn       0.93796    0.50181    0.28796    1.000
    N41      N        0.96110    0.43400    0.33390    1.000
    N42      N        0.99190    0.38040    0.40370    1.000
    N43      N        0.91910    0.43110    0.66360    1.000
    N44      N        0.88330    0.38150    0.59380    1.000
    N45      N        0.80540    0.27000    0.09440    1.000
    N46      N        0.75330    0.27060    0.01560    1.000
    N47      N        0.86350    0.47790    0.24430    1.000
    N48      N        0.77700    0.43130    0.22230    1.000
    C111     C        0.98410    0.43280    0.38540    1.000
    H101     H        0.99360    0.46680    0.40610    1.000
    C112     C        0.97480    0.34030    0.36360    1.000
    H102     H        0.97720    0.29900    0.36530    1.000
    C113     C        0.95410    0.37360    0.32160    1.000
    H103     H        0.93710    0.35880    0.28830    1.000
    C114     C        0.01670    0.36660    0.45900    1.000
    C115     C        0.97030    0.38230    0.50580    1.000
    C116     C        0.91510    0.33890    0.50570    1.000
    C117     C        0.85880    0.36700    0.53620    1.000
    C118     C        0.89290    0.43510    0.61570    1.000
    H104     H        0.88200    0.47070    0.59830    1.000
    C119     C        0.90210    0.34540    0.62800    1.000
    H105     H        0.90250    0.30440    0.62280    1.000
    C120     C        0.92290    0.37470    0.67600    1.000
    H106     H        0.93660    0.35790    0.70960    1.000
    C121     C        0.75530    0.24980    0.06840    1.000
    H107     H        0.72510    0.22460    0.08420    1.000
    C122     C        0.80800    0.30880    0.00980    1.000
    H108     H        0.81970    0.33220    0.97930    1.000
    C123     C        0.83680    0.30250    0.05730    1.000
    H109     H        0.87640    0.31960    0.06490    1.000
    C124     C        0.81820    0.25850    0.15330    1.000
    H110     H        0.78940    0.22770    0.16650    1.000
    H111     H        0.86160    0.24400    0.15730    1.000
    C125     C        0.80980    0.31360    0.18940    1.000
    H112     H        0.81580    0.30350    0.22860    1.000
    H113     H        0.84140    0.34320    0.17910    1.000
    C126     C        0.74370    0.33810    0.18060    1.000
    H114     H        0.71260    0.30620    0.18310    1.000
    H115     H        0.74060    0.35550    0.14350    1.000
    C127     C        0.72930    0.38470    0.22470    1.000
    H116     H        0.68720    0.40140    0.21810    1.000
    H117     H        0.72950    0.36660    0.26160    1.000
    C128     C        0.82420    0.43800    0.25940    1.000
    H118     H        0.82790    0.41600    0.29240    1.000
    C129     C        0.78580    0.47280    0.17960    1.000
    H119     H        0.76020    0.47980    0.14830    1.000
    C130     C        0.84120    0.50070    0.19500    1.000
    H120     H        0.86080    0.53100    0.17480    1.000
    C131     C        0.96590    0.34530    0.49900    1.000
    C132     C        0.90860    0.38650    0.49400    1.000
    Zn7      Zn       0.43796    0.00181    0.28796    1.000
    N49      N        0.46110    0.93400    0.33390    1.000
    N50      N        0.49190    0.88040    0.40370    1.000
    N51      N        0.41910    0.93110    0.66360    1.000
    N52      N        0.38330    0.88150    0.59380    1.000
    N53      N        0.30540    0.77000    0.09440    1.000
    N54      N        0.25330    0.77060    0.01560    1.000
    N55      N        0.36350    0.97790    0.24430    1.000
    N56      N        0.27700    0.93130    0.22230    1.000
    C133     C        0.48410    0.93280    0.38540    1.000
    H121     H        0.49360    0.96680    0.40610    1.000
    C134     C        0.47480    0.84030    0.36360    1.000
    H122     H        0.47720    0.79900    0.36530    1.000
    C135     C        0.45410    0.87360    0.32160    1.000
    H123     H        0.43710    0.85880    0.28830    1.000
    C136     C        0.51670    0.86660    0.45900    1.000
    C137     C        0.47030    0.88230    0.50580    1.000
    C138     C        0.41510    0.83890    0.50570    1.000
    C139     C        0.35880    0.86700    0.53620    1.000
    C140     C        0.39290    0.93510    0.61570    1.000
    H124     H        0.38200    0.97070    0.59830    1.000
    C141     C        0.40210    0.84540    0.62800    1.000
    H125     H        0.40250    0.80440    0.62280    1.000
    C142     C        0.42290    0.87470    0.67600    1.000
    H126     H        0.43660    0.85790    0.70960    1.000
    C143     C        0.25530    0.74980    0.06840    1.000
    H127     H        0.22510    0.72460    0.08420    1.000
    C144     C        0.30800    0.80880    0.00980    1.000
    H128     H        0.31970    0.83220    0.97930    1.000
    C145     C        0.33680    0.80250    0.05730    1.000
    H129     H        0.37640    0.81960    0.06490    1.000
    C146     C        0.31820    0.75850    0.15330    1.000
    H130     H        0.28940    0.72770    0.16650    1.000
    H131     H        0.36160    0.74400    0.15730    1.000
    C147     C        0.30980    0.81360    0.18940    1.000
    H132     H        0.31580    0.80350    0.22860    1.000
    H133     H        0.34140    0.84320    0.17910    1.000
    C148     C        0.24370    0.83810    0.18060    1.000
    H134     H        0.21260    0.80620    0.18310    1.000
    H135     H        0.24060    0.85550    0.14350    1.000
    C149     C        0.22930    0.88470    0.22470    1.000
    H136     H        0.18720    0.90140    0.21810    1.000
    H137     H        0.22950    0.86660    0.26160    1.000
    C150     C        0.32420    0.93800    0.25940    1.000
    H138     H        0.32790    0.91600    0.29240    1.000
    C151     C        0.28580    0.97280    0.17960    1.000
    H139     H        0.26020    0.97980    0.14830    1.000
    C152     C        0.34120    0.00070    0.19500    1.000
    H140     H        0.36080    0.03100    0.17480    1.000
    C153     C        0.46590    0.84530    0.49900    1.000
    C154     C        0.40860    0.88650    0.49400    1.000
    Zn8      Zn       0.43796    0.50181    0.78796    1.000
    N57      N        0.46110    0.43400    0.83390    1.000
    N58      N        0.49190    0.38040    0.90370    1.000
    N59      N        0.41910    0.43110    0.16360    1.000
    N60      N        0.38330    0.38150    0.09380    1.000
    N61      N        0.30540    0.27000    0.59440    1.000
    N62      N        0.25330    0.27060    0.51560    1.000
    N63      N        0.36350    0.47790    0.74430    1.000
    N64      N        0.27700    0.43130    0.72230    1.000
    C155     C        0.48410    0.43280    0.88540    1.000
    H141     H        0.49360    0.46680    0.90610    1.000
    C156     C        0.47480    0.34030    0.86360    1.000
    H142     H        0.47720    0.29900    0.86530    1.000
    C157     C        0.45410    0.37360    0.82160    1.000
    H143     H        0.43710    0.35880    0.78830    1.000
    C158     C        0.51670    0.36660    0.95900    1.000
    C159     C        0.47030    0.38230    0.00580    1.000
    C160     C        0.41510    0.33890    0.00570    1.000
    C161     C        0.35880    0.36700    0.03620    1.000
    C162     C        0.39290    0.43510    0.11570    1.000
    H144     H        0.38200    0.47070    0.09830    1.000
    C163     C        0.40210    0.34540    0.12800    1.000
    H145     H        0.40250    0.30440    0.12280    1.000
    C164     C        0.42290    0.37470    0.17600    1.000
    H146     H        0.43660    0.35790    0.20960    1.000
    C165     C        0.25530    0.24980    0.56840    1.000
    H147     H        0.22510    0.22460    0.58420    1.000
    C166     C        0.30800    0.30880    0.50980    1.000
    H148     H        0.31970    0.33220    0.47930    1.000
    C167     C        0.33680    0.30250    0.55730    1.000
    H149     H        0.37640    0.31960    0.56490    1.000
    C168     C        0.31820    0.25850    0.65330    1.000
    H150     H        0.28940    0.22770    0.66650    1.000
    H151     H        0.36160    0.24400    0.65730    1.000
    C169     C        0.30980    0.31360    0.68940    1.000
    H152     H        0.31580    0.30350    0.72860    1.000
    H153     H        0.34140    0.34320    0.67910    1.000
    C170     C        0.24370    0.33810    0.68060    1.000
    H154     H        0.21260    0.30620    0.68310    1.000
    H155     H        0.24060    0.35550    0.64350    1.000
    C171     C        0.22930    0.38470    0.72470    1.000
    H156     H        0.18720    0.40140    0.71810    1.000
    H157     H        0.22950    0.36660    0.76160    1.000
    C172     C        0.32420    0.43800    0.75940    1.000
    H158     H        0.32790    0.41600    0.79240    1.000
    C173     C        0.28580    0.47280    0.67960    1.000
    H159     H        0.26020    0.47980    0.64830    1.000
    C174     C        0.34120    0.50070    0.69500    1.000
    H160     H        0.36080    0.53100    0.67480    1.000
    C175     C        0.46590    0.34530    0.99900    1.000
    C176     C        0.40860    0.38650    0.99400    1.000
    Zn9      Zn       0.68796    0.74819    0.03796    1.000
    N65      N        0.71110    0.81600    0.08390    1.000
    N66      N        0.74190    0.86960    0.15370    1.000
    N67      N        0.66910    0.81890    0.41360    1.000
    N68      N        0.63330    0.86850    0.34380    1.000
    N69      N        0.55540    0.98000    0.84440    1.000
    N70      N        0.50330    0.97940    0.76560    1.000
    N71      N        0.61350    0.77210    0.99430    1.000
    N72      N        0.52700    0.81870    0.97230    1.000
    C177     C        0.73410    0.81720    0.13540    1.000
    H161     H        0.74360    0.78320    0.15610    1.000
    C178     C        0.72480    0.90970    0.11360    1.000
    H162     H        0.72720    0.95100    0.11530    1.000
    C179     C        0.70410    0.87640    0.07160    1.000
    H163     H        0.68710    0.89120    0.03830    1.000
    C180     C        0.76670    0.88340    0.20900    1.000
    C181     C        0.72030    0.86770    0.25580    1.000
    C182     C        0.66510    0.91110    0.25570    1.000
    C183     C        0.60880    0.88300    0.28620    1.000
    C184     C        0.64290    0.81490    0.36570    1.000
    H164     H        0.63200    0.77930    0.34830    1.000
    C185     C        0.65210    0.90460    0.37800    1.000
    H165     H        0.65250    0.94560    0.37280    1.000
    C186     C        0.67290    0.87530    0.42600    1.000
    H166     H        0.68660    0.89210    0.45960    1.000
    C187     C        0.50530    0.00020    0.81840    1.000
    H167     H        0.47510    0.02540    0.83420    1.000
    C188     C        0.55800    0.94120    0.75980    1.000
    H168     H        0.56970    0.91780    0.72930    1.000
    C189     C        0.58680    0.94750    0.80730    1.000
    H169     H        0.62640    0.93040    0.81490    1.000
    C190     C        0.56820    0.99150    0.90330    1.000
    H170     H        0.53940    0.02230    0.91650    1.000
    H171     H        0.61160    0.00600    0.90730    1.000
    C191     C        0.55980    0.93640    0.93940    1.000
    H172     H        0.56580    0.94650    0.97860    1.000
    H173     H        0.59140    0.90680    0.92910    1.000
    C192     C        0.49370    0.91190    0.93060    1.000
    H174     H        0.46260    0.94380    0.93310    1.000
    H175     H        0.49060    0.89450    0.89350    1.000
    C193     C        0.47930    0.86530    0.97470    1.000
    H176     H        0.43720    0.84860    0.96810    1.000
    H177     H        0.47950    0.88340    0.01160    1.000
    C194     C        0.57420    0.81200    0.00940    1.000
    H178     H        0.57790    0.83400    0.04240    1.000
    C195     C        0.53580    0.77720    0.92960    1.000
    H179     H        0.51020    0.77020    0.89830    1.000
    C196     C        0.59120    0.74930    0.94500    1.000
    H180     H        0.61080    0.71900    0.92480    1.000
    C197     C        0.71590    0.90470    0.24900    1.000
    C198     C        0.65860    0.86350    0.24400    1.000
    Zn10     Zn       0.68796    0.24819    0.53796    1.000
    N73      N        0.71110    0.31600    0.58390    1.000
    N74      N        0.74190    0.36960    0.65370    1.000
    N75      N        0.66910    0.31890    0.91360    1.000
    N76      N        0.63330    0.36850    0.84380    1.000
    N77      N        0.55540    0.48000    0.34440    1.000
    N78      N        0.50330    0.47940    0.26560    1.000
    N79      N        0.61350    0.27210    0.49430    1.000
    N80      N        0.52700    0.31870    0.47230    1.000
    C199     C        0.73410    0.31720    0.63540    1.000
    H181     H        0.74360    0.28320    0.65610    1.000
    C200     C        0.72480    0.40970    0.61360    1.000
    H182     H        0.72720    0.45100    0.61530    1.000
    C201     C        0.70410    0.37640    0.57160    1.000
    H183     H        0.68710    0.39120    0.53830    1.000
    C202     C        0.76670    0.38340    0.70900    1.000
    C203     C        0.72030    0.36770    0.75580    1.000
    C204     C        0.66510    0.41110    0.75570    1.000
    C205     C        0.60880    0.38300    0.78620    1.000
    C206     C        0.64290    0.31490    0.86570    1.000
    H184     H        0.63200    0.27930    0.84830    1.000
    C207     C        0.65210    0.40460    0.87800    1.000
    H185     H        0.65250    0.44560    0.87280    1.000
    C208     C        0.67290    0.37530    0.92600    1.000
    H186     H        0.68660    0.39210    0.95960    1.000
    C209     C        0.50530    0.50020    0.31840    1.000
    H187     H        0.47510    0.52540    0.33420    1.000
    C210     C        0.55800    0.44120    0.25980    1.000
    H188     H        0.56970    0.41780    0.22930    1.000
    C211     C        0.58680    0.44750    0.30730    1.000
    H189     H        0.62640    0.43040    0.31490    1.000
    C212     C        0.56820    0.49150    0.40330    1.000
    H190     H        0.53940    0.52230    0.41650    1.000
    H191     H        0.61160    0.50600    0.40730    1.000
    C213     C        0.55980    0.43640    0.43940    1.000
    H192     H        0.56580    0.44650    0.47860    1.000
    H193     H        0.59140    0.40680    0.42910    1.000
    C214     C        0.49370    0.41190    0.43060    1.000
    H194     H        0.46260    0.44380    0.43310    1.000
    H195     H        0.49060    0.39450    0.39350    1.000
    C215     C        0.47930    0.36530    0.47470    1.000
    H196     H        0.43720    0.34860    0.46810    1.000
    H197     H        0.47950    0.38340    0.51160    1.000
    C216     C        0.57420    0.31200    0.50940    1.000
    H198     H        0.57790    0.33400    0.54240    1.000
    C217     C        0.53580    0.27720    0.42960    1.000
    H199     H        0.51020    0.27020    0.39830    1.000
    C218     C        0.59120    0.24930    0.44500    1.000
    H200     H        0.61080    0.21900    0.42480    1.000
    C219     C        0.71590    0.40470    0.74900    1.000
    C220     C        0.65860    0.36350    0.74400    1.000
    Zn11     Zn       0.18796    0.74819    0.53796    1.000
    N81      N        0.21110    0.81600    0.58390    1.000
    N82      N        0.24190    0.86960    0.65370    1.000
    N83      N        0.16910    0.81890    0.91360    1.000
    N84      N        0.13330    0.86850    0.84380    1.000
    N85      N        0.05540    0.98000    0.34440    1.000
    N86      N        0.00330    0.97940    0.26560    1.000
    N87      N        0.11350    0.77210    0.49430    1.000
    N88      N        0.02700    0.81870    0.47230    1.000
    C221     C        0.23410    0.81720    0.63540    1.000
    H201     H        0.24360    0.78320    0.65610    1.000
    C222     C        0.22480    0.90970    0.61360    1.000
    H202     H        0.22720    0.95100    0.61530    1.000
    C223     C        0.20410    0.87640    0.57160    1.000
    H203     H        0.18710    0.89120    0.53830    1.000
    C224     C        0.26670    0.88340    0.70900    1.000
    C225     C        0.22030    0.86770    0.75580    1.000
    C226     C        0.16510    0.91110    0.75570    1.000
    C227     C        0.10880    0.88300    0.78620    1.000
    C228     C        0.14290    0.81490    0.86570    1.000
    H204     H        0.13200    0.77930    0.84830    1.000
    C229     C        0.15210    0.90460    0.87800    1.000
    H205     H        0.15250    0.94560    0.87280    1.000
    C230     C        0.17290    0.87530    0.92600    1.000
    H206     H        0.18660    0.89210    0.95960    1.000
    C231     C        0.00530    0.00020    0.31840    1.000
    H207     H        0.97510    0.02540    0.33420    1.000
    C232     C        0.05800    0.94120    0.25980    1.000
    H208     H        0.06970    0.91780    0.22930    1.000
    C233     C        0.08680    0.94750    0.30730    1.000
    H209     H        0.12640    0.93040    0.31490    1.000
    C234     C        0.06820    0.99150    0.40330    1.000
    H210     H        0.03940    0.02230    0.41650    1.000
    H211     H        0.11160    0.00600    0.40730    1.000
    C235     C        0.05980    0.93640    0.43940    1.000
    H212     H        0.06580    0.94650    0.47860    1.000
    H213     H        0.09140    0.90680    0.42910    1.000
    C236     C        0.99370    0.91190    0.43060    1.000
    H214     H        0.96260    0.94380    0.43310    1.000
    H215     H        0.99060    0.89450    0.39350    1.000
    C237     C        0.97930    0.86530    0.47470    1.000
    H216     H        0.93720    0.84860    0.46810    1.000
    H217     H        0.97950    0.88340    0.51160    1.000
    C238     C        0.07420    0.81200    0.50940    1.000
    H218     H        0.07790    0.83400    0.54240    1.000
    C239     C        0.03580    0.77720    0.42960    1.000
    H219     H        0.01020    0.77020    0.39830    1.000
    C240     C        0.09120    0.74930    0.44500    1.000
    H220     H        0.11080    0.71900    0.42480    1.000
    C241     C        0.21590    0.90470    0.74900    1.000
    C242     C        0.15860    0.86350    0.74400    1.000
    Zn12     Zn       0.18796    0.24819    0.03796    1.000
    N89      N        0.21110    0.31600    0.08390    1.000
    N90      N        0.24190    0.36960    0.15370    1.000
    N91      N        0.16910    0.31890    0.41360    1.000
    N92      N        0.13330    0.36850    0.34380    1.000
    N93      N        0.05540    0.48000    0.84440    1.000
    N94      N        0.00330    0.47940    0.76560    1.000
    N95      N        0.11350    0.27210    0.99430    1.000
    N96      N        0.02700    0.31870    0.97230    1.000
    C243     C        0.23410    0.31720    0.13540    1.000
    H221     H        0.24360    0.28320    0.15610    1.000
    C244     C        0.22480    0.40970    0.11360    1.000
    H222     H        0.22720    0.45100    0.11530    1.000
    C245     C        0.20410    0.37640    0.07160    1.000
    H223     H        0.18710    0.39120    0.03830    1.000
    C246     C        0.26670    0.38340    0.20900    1.000
    C247     C        0.22030    0.36770    0.25580    1.000
    C248     C        0.16510    0.41110    0.25570    1.000
    C249     C        0.10880    0.38300    0.28620    1.000
    C250     C        0.14290    0.31490    0.36570    1.000
    H224     H        0.13200    0.27930    0.34830    1.000
    C251     C        0.15210    0.40460    0.37800    1.000
    H225     H        0.15250    0.44560    0.37280    1.000
    C252     C        0.17290    0.37530    0.42600    1.000
    H226     H        0.18660    0.39210    0.45960    1.000
    C253     C        0.00530    0.50020    0.81840    1.000
    H227     H        0.97510    0.52540    0.83420    1.000
    C254     C        0.05800    0.44120    0.75980    1.000
    H228     H        0.06970    0.41780    0.72930    1.000
    C255     C        0.08680    0.44750    0.80730    1.000
    H229     H        0.12640    0.43040    0.81490    1.000
    C256     C        0.06820    0.49150    0.90330    1.000
    H230     H        0.03940    0.52230    0.91650    1.000
    H231     H        0.11160    0.50600    0.90730    1.000
    C257     C        0.05980    0.43640    0.93940    1.000
    H232     H        0.06580    0.44650    0.97860    1.000
    H233     H        0.09140    0.40680    0.92910    1.000
    C258     C        0.99370    0.41190    0.93060    1.000
    H234     H        0.96260    0.44380    0.93310    1.000
    H235     H        0.99060    0.39450    0.89350    1.000
    C259     C        0.97930    0.36530    0.97470    1.000
    H236     H        0.93720    0.34860    0.96810    1.000
    H237     H        0.97950    0.38340    0.01160    1.000
    C260     C        0.07420    0.31200    0.00940    1.000
    H238     H        0.07790    0.33400    0.04240    1.000
    C261     C        0.03580    0.27720    0.92960    1.000
    H239     H        0.01020    0.27020    0.89830    1.000
    C262     C        0.09120    0.24930    0.94500    1.000
    H240     H        0.11080    0.21900    0.92480    1.000
    C263     C        0.21590    0.40470    0.24900    1.000
    C264     C        0.15860    0.36350    0.24400    1.000
    Zn13     Zn       0.68796    0.75181    0.46204    1.000
    N97      N        0.71110    0.68400    0.41610    1.000
    N98      N        0.74190    0.63040    0.34630    1.000
    N99      N        0.66910    0.68110    0.08640    1.000
    N100     N        0.63330    0.63150    0.15620    1.000
    N101     N        0.55540    0.52000    0.65560    1.000
    N102     N        0.50330    0.52060    0.73440    1.000
    N103     N        0.61350    0.72790    0.50570    1.000
    N104     N        0.52700    0.68130    0.52770    1.000
    C265     C        0.73410    0.68280    0.36460    1.000
    H241     H        0.74360    0.71680    0.34390    1.000
    C266     C        0.72480    0.59030    0.38640    1.000
    H242     H        0.72720    0.54900    0.38470    1.000
    C267     C        0.70410    0.62360    0.42840    1.000
    H243     H        0.68710    0.60880    0.46170    1.000
    C268     C        0.76670    0.61660    0.29100    1.000
    C269     C        0.72030    0.63230    0.24420    1.000
    C270     C        0.66510    0.58890    0.24430    1.000
    C271     C        0.60880    0.61700    0.21380    1.000
    C272     C        0.64290    0.68510    0.13430    1.000
    H244     H        0.63200    0.72070    0.15170    1.000
    C273     C        0.65210    0.59540    0.12200    1.000
    H245     H        0.65250    0.55440    0.12720    1.000
    C274     C        0.67290    0.62470    0.07400    1.000
    H246     H        0.68660    0.60790    0.04040    1.000
    C275     C        0.50530    0.49980    0.68160    1.000
    H247     H        0.47510    0.47460    0.66580    1.000
    C276     C        0.55800    0.55880    0.74020    1.000
    H248     H        0.56970    0.58220    0.77070    1.000
    C277     C        0.58680    0.55250    0.69270    1.000
    H249     H        0.62640    0.56960    0.68510    1.000
    C278     C        0.56820    0.50850    0.59670    1.000
    H250     H        0.53940    0.47770    0.58350    1.000
    H251     H        0.61160    0.49400    0.59270    1.000
    C279     C        0.55980    0.56360    0.56060    1.000
    H252     H        0.56580    0.55350    0.52140    1.000
    H253     H        0.59140    0.59320    0.57090    1.000
    C280     C        0.49370    0.58810    0.56940    1.000
    H254     H        0.46260    0.55620    0.56690    1.000
    H255     H        0.49060    0.60550    0.60650    1.000
    C281     C        0.47930    0.63470    0.52530    1.000
    H256     H        0.43720    0.65140    0.53190    1.000
    H257     H        0.47950    0.61660    0.48840    1.000
    C282     C        0.57420    0.68800    0.49060    1.000
    H258     H        0.57790    0.66600    0.45760    1.000
    C283     C        0.53580    0.72280    0.57040    1.000
    H259     H        0.51020    0.72980    0.60170    1.000
    C284     C        0.59120    0.75070    0.55500    1.000
    H260     H        0.61080    0.78100    0.57520    1.000
    C285     C        0.71590    0.59530    0.25100    1.000
    C286     C        0.65860    0.63650    0.25600    1.000
    Zn14     Zn       0.68796    0.25181    0.96204    1.000
    N105     N        0.71110    0.18400    0.91610    1.000
    N106     N        0.74190    0.13040    0.84630    1.000
    N107     N        0.66910    0.18110    0.58640    1.000
    N108     N        0.63330    0.13150    0.65620    1.000
    N109     N        0.55540    0.02000    0.15560    1.000
    N110     N        0.50330    0.02060    0.23440    1.000
    N111     N        0.61350    0.22790    0.00570    1.000
    N112     N        0.52700    0.18130    0.02770    1.000
    C287     C        0.73410    0.18280    0.86460    1.000
    H261     H        0.74360    0.21680    0.84390    1.000
    C288     C        0.72480    0.09030    0.88640    1.000
    H262     H        0.72720    0.04900    0.88470    1.000
    C289     C        0.70410    0.12360    0.92840    1.000
    H263     H        0.68710    0.10880    0.96170    1.000
    C290     C        0.76670    0.11660    0.79100    1.000
    C291     C        0.72030    0.13230    0.74420    1.000
    C292     C        0.66510    0.08890    0.74430    1.000
    C293     C        0.60880    0.11700    0.71380    1.000
    C294     C        0.64290    0.18510    0.63430    1.000
    H264     H        0.63200    0.22070    0.65170    1.000
    C295     C        0.65210    0.09540    0.62200    1.000
    H265     H        0.65250    0.05440    0.62720    1.000
    C296     C        0.67290    0.12470    0.57400    1.000
    H266     H        0.68660    0.10790    0.54040    1.000
    C297     C        0.50530    0.99980    0.18160    1.000
    H267     H        0.47510    0.97460    0.16580    1.000
    C298     C        0.55800    0.05880    0.24020    1.000
    H268     H        0.56970    0.08220    0.27070    1.000
    C299     C        0.58680    0.05250    0.19270    1.000
    H269     H        0.62640    0.06960    0.18510    1.000
    C300     C        0.56820    0.00850    0.09670    1.000
    H270     H        0.53940    0.97770    0.08350    1.000
    H271     H        0.61160    0.99400    0.09270    1.000
    C301     C        0.55980    0.06360    0.06060    1.000
    H272     H        0.56580    0.05350    0.02140    1.000
    H273     H        0.59140    0.09320    0.07090    1.000
    C302     C        0.49370    0.08810    0.06940    1.000
    H274     H        0.46260    0.05620    0.06690    1.000
    H275     H        0.49060    0.10550    0.10650    1.000
    C303     C        0.47930    0.13470    0.02530    1.000
    H276     H        0.43720    0.15140    0.03190    1.000
    H277     H        0.47950    0.11660    0.98840    1.000
    C304     C        0.57420    0.18800    0.99060    1.000
    H278     H        0.57790    0.16600    0.95760    1.000
    C305     C        0.53580    0.22280    0.07040    1.000
    H279     H        0.51020    0.22980    0.10170    1.000
    C306     C        0.59120    0.25070    0.05500    1.000
    H280     H        0.61080    0.28100    0.07520    1.000
    C307     C        0.71590    0.09530    0.75100    1.000
    C308     C        0.65860    0.13650    0.75600    1.000
    Zn15     Zn       0.18796    0.75181    0.96204    1.000
    N113     N        0.21110    0.68400    0.91610    1.000
    N114     N        0.24190    0.63040    0.84630    1.000
    N115     N        0.16910    0.68110    0.58640    1.000
    N116     N        0.13330    0.63150    0.65620    1.000
    N117     N        0.05540    0.52000    0.15560    1.000
    N118     N        0.00330    0.52060    0.23440    1.000
    N119     N        0.11350    0.72790    0.00570    1.000
    N120     N        0.02700    0.68130    0.02770    1.000
    C309     C        0.23410    0.68280    0.86460    1.000
    H281     H        0.24360    0.71680    0.84390    1.000
    C310     C        0.22480    0.59030    0.88640    1.000
    H282     H        0.22720    0.54900    0.88470    1.000
    C311     C        0.20410    0.62360    0.92840    1.000
    H283     H        0.18710    0.60880    0.96170    1.000
    C312     C        0.26670    0.61660    0.79100    1.000
    C313     C        0.22030    0.63230    0.74420    1.000
    C314     C        0.16510    0.58890    0.74430    1.000
    C315     C        0.10880    0.61700    0.71380    1.000
    C316     C        0.14290    0.68510    0.63430    1.000
    H284     H        0.13200    0.72070    0.65170    1.000
    C317     C        0.15210    0.59540    0.62200    1.000
    H285     H        0.15250    0.55440    0.62720    1.000
    C318     C        0.17290    0.62470    0.57400    1.000
    H286     H        0.18660    0.60790    0.54040    1.000
    C319     C        0.00530    0.49980    0.18160    1.000
    H287     H        0.97510    0.47460    0.16580    1.000
    C320     C        0.05800    0.55880    0.24020    1.000
    H288     H        0.06970    0.58220    0.27070    1.000
    C321     C        0.08680    0.55250    0.19270    1.000
    H289     H        0.12640    0.56960    0.18510    1.000
    C322     C        0.06820    0.50850    0.09670    1.000
    H290     H        0.03940    0.47770    0.08350    1.000
    H291     H        0.11160    0.49400    0.09270    1.000
    C323     C        0.05980    0.56360    0.06060    1.000
    H292     H        0.06580    0.55350    0.02140    1.000
    H293     H        0.09140    0.59320    0.07090    1.000
    C324     C        0.99370    0.58810    0.06940    1.000
    H294     H        0.96260    0.55620    0.06690    1.000
    H295     H        0.99060    0.60550    0.10650    1.000
    C325     C        0.97930    0.63470    0.02530    1.000
    H296     H        0.93720    0.65140    0.03190    1.000
    H297     H        0.97950    0.61660    0.98840    1.000
    C326     C        0.07420    0.68800    0.99060    1.000
    H298     H        0.07790    0.66600    0.95760    1.000
    C327     C        0.03580    0.72280    0.07040    1.000
    H299     H        0.01020    0.72980    0.10170    1.000
    C328     C        0.09120    0.75070    0.05500    1.000
    H300     H        0.11080    0.78100    0.07520    1.000
    C329     C        0.21590    0.59530    0.75100    1.000
    C330     C        0.15860    0.63650    0.75600    1.000
    Zn16     Zn       0.18796    0.25181    0.46204    1.000
    N121     N        0.21110    0.18400    0.41610    1.000
    N122     N        0.24190    0.13040    0.34630    1.000
    N123     N        0.16910    0.18110    0.08640    1.000
    N124     N        0.13330    0.13150    0.15620    1.000
    N125     N        0.05540    0.02000    0.65560    1.000
    N126     N        0.00330    0.02060    0.73440    1.000
    N127     N        0.11350    0.22790    0.50570    1.000
    N128     N        0.02700    0.18130    0.52770    1.000
    C331     C        0.23410    0.18280    0.36460    1.000
    H301     H        0.24360    0.21680    0.34390    1.000
    C332     C        0.22480    0.09030    0.38640    1.000
    H302     H        0.22720    0.04900    0.38470    1.000
    C333     C        0.20410    0.12360    0.42840    1.000
    H303     H        0.18710    0.10880    0.46170    1.000
    C334     C        0.26670    0.11660    0.29100    1.000
    C335     C        0.22030    0.13230    0.24420    1.000
    C336     C        0.16510    0.08890    0.24430    1.000
    C337     C        0.10880    0.11700    0.21380    1.000
    C338     C        0.14290    0.18510    0.13430    1.000
    H304     H        0.13200    0.22070    0.15170    1.000
    C339     C        0.15210    0.09540    0.12200    1.000
    H305     H        0.15250    0.05440    0.12720    1.000
    C340     C        0.17290    0.12470    0.07400    1.000
    H306     H        0.18660    0.10790    0.04040    1.000
    C341     C        0.00530    0.99980    0.68160    1.000
    H307     H        0.97510    0.97460    0.66580    1.000
    C342     C        0.05800    0.05880    0.74020    1.000
    H308     H        0.06970    0.08220    0.77070    1.000
    C343     C        0.08680    0.05250    0.69270    1.000
    H309     H        0.12640    0.06960    0.68510    1.000
    C344     C        0.06820    0.00850    0.59670    1.000
    H310     H        0.03940    0.97770    0.58350    1.000
    H311     H        0.11160    0.99400    0.59270    1.000
    C345     C        0.05980    0.06360    0.56060    1.000
    H312     H        0.06580    0.05350    0.52140    1.000
    H313     H        0.09140    0.09320    0.57090    1.000
    C346     C        0.99370    0.08810    0.56940    1.000
    H314     H        0.96260    0.05620    0.56690    1.000
    H315     H        0.99060    0.10550    0.60650    1.000
    C347     C        0.97930    0.13470    0.52530    1.000
    H316     H        0.93720    0.15140    0.53190    1.000
    H317     H        0.97950    0.11660    0.48840    1.000
    C348     C        0.07420    0.18800    0.49060    1.000
    H318     H        0.07790    0.16600    0.45760    1.000
    C349     C        0.03580    0.22280    0.57040    1.000
    H319     H        0.01020    0.22980    0.60170    1.000
    C350     C        0.09120    0.25070    0.55500    1.000
    H320     H        0.11080    0.28100    0.57520    1.000
    C351     C        0.21590    0.09530    0.25100    1.000
    C352     C        0.15860    0.13650    0.25600    1.000
