# CIF file generated by openbabel 3.1.0, see https://openbabel.org
data_I
_chemical_name_common 'image0'
_cell_length_a 10.8001
_cell_length_b 11.6288
_cell_length_c 25.3183
_cell_angle_alpha 89.094
_cell_angle_beta 87.425
_cell_angle_gamma 78.44
_space_group_name_H-M_alt 'P 1'
_space_group_name_Hall 'P 1'
loop_
    _symmetry_equiv_pos_as_xyz
    x,y,z
loop_
    _atom_site_label
    _atom_site_type_symbol
    _atom_site_fract_x
    _atom_site_fract_y
    _atom_site_fract_z
    _atom_site_occupancy
    Ag1      Ag       0.74095    0.06095    0.00639    1.000
    Ag2      Ag       0.49776    0.05057    0.10954    1.000
    Ag3      Ag       0.48760    0.02851    0.01078    1.000
    Ag4      Ag       0.52754    0.19291    0.93139    1.000
    Ag5      Ag       0.58117    0.28413    0.03260    1.000
    Ag6      Ag       0.62310    0.42934    0.93438    1.000
    Ag7      Ag       0.59421    0.42486    0.57389    1.000
    Ag8      Ag       0.50041    0.19189    0.56557    1.000
    Ag9      Ag       0.59570    0.29161    0.47084    1.000
    Ag10     Ag       0.73828    0.06418    0.49852    1.000
    Ag11     Ag       0.48082    0.04717    0.47810    1.000
    Ag12     Ag       0.47822    0.93093    0.57658    1.000
    Ag13     Ag       0.44760    0.95390    0.63393    1.000
    Ag14     Ag       0.02278    0.33082    0.74956    1.000
    C1       C        0.93250    0.28560    0.86210    1.000
    H1       H        0.85720    0.32010    0.84680    1.000
    C2       C        0.92640    0.24370    0.91350    1.000
    C3       C        0.03660    0.19080    0.93670    1.000
    H2       H        0.03560    0.16340    0.97140    1.000
    C4       C        0.15040    0.17940    0.90640    1.000
    C5       C        0.14770    0.22630    0.85570    1.000
    H3       H        0.22380    0.22080    0.83630    1.000
    C6       C        0.80480    0.25100    0.94090    1.000
    C7       C        0.70530    0.24120    0.96350    1.000
    C8       C        0.73010    0.87800    0.07230    1.000
    C9       C        0.62900    0.92560    0.05720    1.000
    C10      C        0.12390    0.22050    0.64200    1.000
    H4       H        0.19960    0.21480    0.65890    1.000
    C11      C        0.12740    0.17490    0.59190    1.000
    C12      C        0.01470    0.18470    0.56640    1.000
    H5       H        0.01410    0.15710    0.53210    1.000
    C13      C        0.90260    0.23690    0.59320    1.000
    C14      C        0.90790    0.27980    0.64340    1.000
    H6       H        0.83300    0.31510    0.66110    1.000
    C15      C        0.78420    0.24340    0.56880    1.000
    C16      C        0.68800    0.23930    0.54570    1.000
    C17      C        0.24710    0.11680    0.56890    1.000
    C18      C        0.35320    0.06850    0.55380    1.000
    C19      C        0.30820    0.45130    0.56470    1.000
    C20      C        0.16910    0.51580    0.56600    1.000
    C21      C        0.66260    0.54830    0.07550    1.000
    C22      C        0.79710    0.48500    0.08040    1.000
    C23      C        0.33370    0.30370    0.42070    1.000
    C24      C        0.20280    0.37030    0.40460    1.000
    F1       F        0.13860    0.54260    0.61650    1.000
    F2       F        0.09130    0.45350    0.55940    1.000
    F3       F        0.14500    0.61150    0.54260    1.000
    F4       F        0.87810    0.54610    0.07220    1.000
    F5       F        0.83220    0.38910    0.05590    1.000
    F6       F        0.81770    0.45580    0.13170    1.000
    F7       F        0.20240    0.36900    0.35330    1.000
    F8       F        0.11180    0.32240    0.42090    1.000
    F9       F        0.17720    0.47550    0.41820    1.000
    N1       N        0.04020    0.27940    0.83320    1.000
    N2       N        0.01720    0.27240    0.66730    1.000
    O1       O        0.32480    0.34990    0.57550    1.000
    O2       O        0.38880    0.50950    0.55290    1.000
    O3       O        0.59210    0.49020    0.05610    1.000
    O4       O        0.36370    0.35120    0.90790    1.000
    O5       O        0.34280    0.19490    0.42250    1.000
    O6       O        0.58930    0.63640    0.56890    1.000
    Ag15     Ag       0.25905    0.93905    0.99361    1.000
    Ag16     Ag       0.50224    0.94943    0.89046    1.000
    Ag17     Ag       0.51240    0.97149    0.98922    1.000
    Ag18     Ag       0.47246    0.80709    0.06861    1.000
    Ag19     Ag       0.41883    0.71587    0.96740    1.000
    Ag20     Ag       0.37690    0.57066    0.06562    1.000
    Ag21     Ag       0.40579    0.57514    0.42611    1.000
    Ag22     Ag       0.49959    0.80811    0.43443    1.000
    Ag23     Ag       0.40430    0.70839    0.52916    1.000
    Ag24     Ag       0.26172    0.93582    0.50148    1.000
    Ag25     Ag       0.51918    0.95283    0.52190    1.000
    Ag26     Ag       0.52178    0.06907    0.42342    1.000
    Ag27     Ag       0.55240    0.04610    0.36607    1.000
    Ag28     Ag       0.97722    0.66918    0.25044    1.000
    C25      C        0.06750    0.71440    0.13790    1.000
    H7       H        0.14280    0.67990    0.15320    1.000
    C26      C        0.07360    0.75630    0.08650    1.000
    C27      C        0.96340    0.80920    0.06330    1.000
    H8       H        0.96440    0.83660    0.02860    1.000
    C28      C        0.84960    0.82060    0.09360    1.000
    C29      C        0.85230    0.77370    0.14430    1.000
    H9       H        0.77620    0.77920    0.16370    1.000
    C30      C        0.19520    0.74900    0.05910    1.000
    C31      C        0.29470    0.75880    0.03650    1.000
    C32      C        0.26990    0.12200    0.92770    1.000
    C33      C        0.37100    0.07440    0.94280    1.000
    C34      C        0.87610    0.77950    0.35800    1.000
    H10      H        0.80040    0.78520    0.34110    1.000
    C35      C        0.87260    0.82510    0.40810    1.000
    C36      C        0.98530    0.81530    0.43360    1.000
    H11      H        0.98590    0.84290    0.46790    1.000
    C37      C        0.09740    0.76310    0.40680    1.000
    C38      C        0.09210    0.72020    0.35660    1.000
    H12      H        0.16700    0.68490    0.33890    1.000
    C39      C        0.21580    0.75660    0.43120    1.000
    C40      C        0.31200    0.76070    0.45430    1.000
    C41      C        0.75290    0.88320    0.43110    1.000
    C42      C        0.64680    0.93150    0.44620    1.000
    C43      C        0.69180    0.54870    0.43530    1.000
    C44      C        0.83090    0.48420    0.43400    1.000
    C45      C        0.33740    0.45170    0.92450    1.000
    C46      C        0.20290    0.51500    0.91960    1.000
    C47      C        0.66630    0.69630    0.57930    1.000
    C48      C        0.79720    0.62970    0.59540    1.000
    F10      F        0.86140    0.45740    0.38350    1.000
    F11      F        0.90870    0.54650    0.44060    1.000
    F12      F        0.85500    0.38850    0.45740    1.000
    F13      F        0.12190    0.45390    0.92780    1.000
    F14      F        0.16780    0.61090    0.94410    1.000
    F15      F        0.18230    0.54420    0.86830    1.000
    F16      F        0.79760    0.63100    0.64670    1.000
    F17      F        0.88820    0.67760    0.57910    1.000
    F18      F        0.82280    0.52450    0.58180    1.000
    N3       N        0.95980    0.72060    0.16680    1.000
    N4       N        0.98280    0.72760    0.33270    1.000
    O7       O        0.67520    0.65010    0.42450    1.000
    O8       O        0.61120    0.49050    0.44710    1.000
    O9       O        0.40790    0.50980    0.94390    1.000
    O10      O        0.63630    0.64880    0.09210    1.000
    O11      O        0.65720    0.80510    0.57750    1.000
    O12      O        0.41070    0.36360    0.43110    1.000
