data_functionalizedCrystal
_audit_creation_method	'EQeq! by Chris Wilmer'
_symmetry_space_group_name_H-M	'P1'
_symmetry_Int_Tables_number	1
_symmetry_cell_setting	triclinic
loop_
_symmetry_equiv_pos_as_xyz
  x,y,z
_cell_length_a	25.882
_cell_length_b	25.882
_cell_length_c	25.882
_cell_angle_alpha	90
_cell_angle_beta	90
_cell_angle_gamma	90
loop_
_atom_site_label
_atom_site_type_symbol
_atom_site_fract_x
_atom_site_fract_y
_atom_site_fract_z
_atom_site_charge
Mof_Zn	Zn	0.29337	0.29337	0.20663	1.211
Mof_Zn	Zn	0.70663	0.70663	0.20663	1.211
Mof_Zn	Zn	0.20663	0.20663	0.20663	1.211
Mof_Zn	Zn	0.70663	0.29337	0.79337	1.211
Mof_Zn	Zn	0.20663	0.29337	0.29337	1.211
Mof_Zn	Zn	0.29337	0.70663	0.79337	1.211
Mof_Zn	Zn	0.29337	0.20663	0.29337	1.211
Mof_Zn	Zn	0.20663	0.79337	0.79337	1.211
Mof_Zn	Zn	0.20663	0.70663	0.70663	1.211
Mof_Zn	Zn	0.79337	0.70663	0.29337	1.211
Mof_Zn	Zn	0.79337	0.20663	0.79337	1.211
Mof_Zn	Zn	0.79337	0.29337	0.70663	1.211
Mof_Zn	Zn	0.79337	0.79337	0.20663	1.211
Mof_Zn	Zn	0.70663	0.20663	0.70663	1.211
Mof_Zn	Zn	0.29337	0.79337	0.70663	1.211
Mof_Zn	Zn	0.70663	0.79337	0.29337	1.211
Mof_Zn	Zn	0.29337	0.29337	0.79337	1.211
Mof_Zn	Zn	0.70663	0.70663	0.79337	1.211
Mof_Zn	Zn	0.70663	0.20663	0.29337	1.211
Mof_Zn	Zn	0.20663	0.70663	0.29337	1.211
Mof_Zn	Zn	0.29337	0.70663	0.20663	1.211
Mof_Zn	Zn	0.70663	0.29337	0.20663	1.211
Mof_Zn	Zn	0.20663	0.79337	0.20663	1.211
Mof_Zn	Zn	0.29337	0.20663	0.70663	1.211
Mof_Zn	Zn	0.20663	0.20663	0.79337	1.211
Mof_Zn	Zn	0.70663	0.79337	0.70663	1.211
Mof_Zn	Zn	0.20663	0.29337	0.70663	1.211
Mof_Zn	Zn	0.29337	0.79337	0.29337	1.211
Mof_Zn	Zn	0.79337	0.29337	0.29337	1.211
Mof_Zn	Zn	0.79337	0.79337	0.79337	1.211
Mof_Zn	Zn	0.79337	0.70663	0.70663	1.211
Mof_Zn	Zn	0.79337	0.20663	0.20663	1.211
Mof_O 	O 	0.25	0.25	0.25	-0.963
Mof_O 	O 	0.75	0.75	0.25	-0.963
Mof_O 	O 	0.75	0.25	0.75	-0.963
Mof_O 	O 	0.25	0.75	0.75	-0.963
Mof_O 	O 	0.25	0.25	0.75	-0.963
Mof_O 	O 	0.75	0.75	0.75	-0.963
Mof_O 	O 	0.75	0.25	0.25	-0.963
Mof_O 	O 	0.25	0.75	0.25	-0.963
Mof_O 	O 	0.2804	0.36667	0.2196	-0.513
Mof_C 	C 	0.28309	0.473	0.21691	-0.013
Mof_H 	H 	0.3055	0.4546	0.1945	0.049
Mof_O 	O 	0.2804	0.86667	0.7196	-0.513
Mof_C 	C 	0.28309	0.973	0.71691	-0.013
Mof_H 	H 	0.3055	0.9546	0.6945	0.049
Mof_O 	O 	0.7196	0.63333	0.2196	-0.513
Mof_C 	C 	0.71691	0.527	0.21691	-0.013
Mof_H 	H 	0.6945	0.5454	0.1945	0.048
Mof_O 	O 	0.7196	0.13333	0.7196	-0.514
Mof_C 	C 	0.71691	0.027	0.71691	-0.014
Mof_H 	H 	0.6945	0.0454	0.6945	0.048
Mof_O 	O 	0.2196	0.13333	0.2196	-0.514
Mof_C 	C 	0.21691	0.027	0.21691	-0.014
Mof_H 	H 	0.1945	0.0454	0.1945	0.048
Mof_O 	O 	0.7196	0.36667	0.7804	-0.514
Mof_C 	C 	0.71691	0.473	0.78309	-0.014
Mof_H 	H 	0.6945	0.4546	0.8055	0.048
Mof_O 	O 	0.7196	0.86667	0.2804	-0.514
Mof_C 	C 	0.71691	0.973	0.28309	-0.014
Mof_H 	H 	0.6945	0.9546	0.3055	0.048
Mof_O 	O 	0.2196	0.36667	0.2804	-0.514
Mof_C 	C 	0.21691	0.473	0.28309	-0.014
Mof_H 	H 	0.1945	0.4546	0.3055	0.048
Mof_O 	O 	0.2804	0.63333	0.7804	-0.514
Mof_C 	C 	0.28309	0.527	0.78309	-0.014
Mof_H 	H 	0.3055	0.5454	0.8055	0.048
Mof_O 	O 	0.2804	0.13333	0.2804	-0.514
Mof_C 	C 	0.28309	0.027	0.28309	-0.014
Mof_H 	H 	0.3055	0.0454	0.3055	0.048
Mof_O 	O 	0.2196	0.2804	0.36667	-0.514
Mof_C 	C 	0.21691	0.28309	0.473	-0.014
Mof_H 	H 	0.1945	0.3055	0.4546	0.048
Mof_O 	O 	0.2196	0.7804	0.86667	-0.514
Mof_C 	C 	0.21691	0.78309	0.973	-0.014
Mof_H 	H 	0.1945	0.8055	0.9546	0.048
Mof_O 	O 	0.2196	0.7196	0.63333	-0.514
Mof_C 	C 	0.21691	0.71691	0.527	-0.014
Mof_H 	H 	0.1945	0.6945	0.5454	0.048
Mof_O 	O 	0.2196	0.2196	0.13333	-0.514
Mof_C 	C 	0.21691	0.21691	0.027	-0.014
Mof_H 	H 	0.1945	0.1945	0.0454	0.048
Mof_O 	O 	0.7804	0.7196	0.36667	-0.514
Mof_C 	C 	0.78309	0.71691	0.473	-0.014
Mof_H 	H 	0.8055	0.6945	0.4546	0.048
Mof_O 	O 	0.7804	0.2196	0.86667	-0.514
Mof_C 	C 	0.78309	0.21691	0.973	-0.014
Mof_H 	H 	0.8055	0.1945	0.9546	0.048
Mof_O 	O 	0.2804	0.2196	0.36667	-0.514
Mof_C 	C 	0.28309	0.21691	0.473	-0.014
Mof_H 	H 	0.3055	0.1945	0.4546	0.048
Mof_O 	O 	0.7804	0.2804	0.63333	-0.514
Mof_C 	C 	0.78309	0.28309	0.527	-0.014
Mof_H 	H 	0.8055	0.3055	0.5454	0.048
Mof_O 	O 	0.7804	0.7804	0.13333	-0.514
Mof_C 	C 	0.78309	0.78309	0.027	-0.014
Mof_H 	H 	0.8055	0.8055	0.0454	0.048
Mof_O 	O 	0.2804	0.2804	0.13333	-0.514
Mof_C 	C 	0.28309	0.28309	0.027	-0.014
Mof_H 	H 	0.3055	0.3055	0.0454	0.048
Mof_O 	O 	0.36667	0.2196	0.2804	-0.514
Mof_C 	C 	0.473	0.21691	0.28309	-0.014
Mof_H 	H 	0.4546	0.1945	0.3055	0.048
Mof_O 	O 	0.86667	0.2196	0.7804	-0.514
Mof_C 	C 	0.973	0.21691	0.78309	-0.014
Mof_H 	H 	0.9546	0.1945	0.8055	0.048
Mof_O 	O 	0.63333	0.2196	0.7196	-0.514
Mof_C 	C 	0.527	0.21691	0.71691	-0.014
Mof_H 	H 	0.5454	0.1945	0.6945	0.048
Mof_O 	O 	0.13333	0.2196	0.2196	-0.514
Mof_C 	C 	0.027	0.21691	0.21691	-0.014
Mof_H 	H 	0.0454	0.1945	0.1945	0.048
Mof_O 	O 	0.36667	0.7804	0.7196	-0.514
Mof_C 	C 	0.473	0.78309	0.71691	-0.014
Mof_H 	H 	0.4546	0.8055	0.6945	0.048
Mof_O 	O 	0.36667	0.2804	0.2196	-0.514
Mof_C 	C 	0.473	0.28309	0.21691	-0.014
Mof_H 	H 	0.4546	0.3055	0.1945	0.048
Mof_O 	O 	0.86667	0.7804	0.2196	-0.514
Mof_C 	C 	0.973	0.78309	0.21691	-0.014
Mof_H 	H 	0.9546	0.8055	0.1945	0.048
Mof_O 	O 	0.63333	0.7804	0.2804	-0.514
Mof_C 	C 	0.527	0.78309	0.28309	-0.014
Mof_H 	H 	0.5454	0.8055	0.3055	0.048
Mof_O 	O 	0.13333	0.7804	0.7804	-0.514
Mof_C 	C 	0.027	0.78309	0.78309	-0.014
Mof_H 	H 	0.0454	0.8055	0.8055	0.048
Mof_O 	O 	0.13333	0.2804	0.2804	-0.514
Mof_C 	C 	0.027	0.28309	0.28309	-0.014
Mof_H 	H 	0.0454	0.3055	0.3055	0.048
Mof_O 	O 	0.36667	0.2804	0.7804	-0.514
Mof_C 	C 	0.473	0.28309	0.78309	-0.014
Mof_H 	H 	0.4546	0.3055	0.8055	0.048
Mof_O 	O 	0.86667	0.2804	0.2804	-0.514
Mof_C 	C 	0.973	0.28309	0.28309	-0.014
Mof_H 	H 	0.9546	0.3055	0.3055	0.048
Mof_O 	O 	0.63333	0.7196	0.7804	-0.514
Mof_C 	C 	0.527	0.71691	0.78309	-0.014
Mof_H 	H 	0.5454	0.6945	0.8055	0.048
Mof_O 	O 	0.63333	0.2196	0.2804	-0.514
Mof_C 	C 	0.527	0.21691	0.28309	-0.014
Mof_H 	H 	0.5454	0.1945	0.3055	0.048
Mof_O 	O 	0.13333	0.7196	0.2804	-0.514
Mof_C 	C 	0.027	0.71691	0.28309	-0.014
Mof_H 	H 	0.0454	0.6945	0.3055	0.048
Mof_O 	O 	0.36667	0.7196	0.2196	-0.514
Mof_C 	C 	0.473	0.71691	0.21691	-0.014
Mof_H 	H 	0.4546	0.6945	0.1945	0.048
Mof_O 	O 	0.86667	0.7196	0.7196	-0.514
Mof_C 	C 	0.973	0.71691	0.71691	-0.014
Mof_H 	H 	0.9546	0.6945	0.6945	0.048
Mof_O 	O 	0.86667	0.2196	0.2196	-0.514
Mof_C 	C 	0.973	0.21691	0.21691	-0.014
Mof_H 	H 	0.9546	0.1945	0.1945	0.048
Mof_O 	O 	0.63333	0.2804	0.2196	-0.514
Mof_C 	C 	0.527	0.28309	0.21691	-0.014
Mof_H 	H 	0.5454	0.3055	0.1945	0.048
Mof_O 	O 	0.13333	0.2804	0.7196	-0.514
Mof_C 	C 	0.027	0.28309	0.71691	-0.014
Mof_H 	H 	0.0454	0.3055	0.6945	0.048
Mof_O 	O 	0.2804	0.2196	0.63333	-0.514
Mof_C 	C 	0.28309	0.21691	0.527	-0.014
Mof_H 	H 	0.3055	0.1945	0.5454	0.048
Mof_O 	O 	0.2804	0.7196	0.13333	-0.514
Mof_C 	C 	0.28309	0.71691	0.027	-0.014
Mof_H 	H 	0.3055	0.6945	0.0454	0.048
Mof_O 	O 	0.7196	0.2196	0.36667	-0.514
Mof_C 	C 	0.71691	0.21691	0.473	-0.014
Mof_H 	H 	0.6945	0.1945	0.4546	0.048
Mof_O 	O 	0.7196	0.7196	0.86667	-0.514
Mof_C 	C 	0.71691	0.71691	0.973	-0.014
Mof_H 	H 	0.6945	0.6945	0.9546	0.048
Mof_O 	O 	0.2196	0.2196	0.86667	-0.514
Mof_C 	C 	0.21691	0.21691	0.973	-0.014
Mof_H 	H 	0.1945	0.1945	0.9546	0.048
Mof_O 	O 	0.7196	0.7804	0.63333	-0.514
Mof_C 	C 	0.71691	0.78309	0.527	-0.014
Mof_H 	H 	0.6945	0.8055	0.5454	0.048
Mof_O 	O 	0.7196	0.2804	0.13333	-0.514
Mof_C 	C 	0.71691	0.28309	0.027	-0.014
Mof_H 	H 	0.6945	0.3055	0.0454	0.048
Mof_O 	O 	0.2196	0.2804	0.63333	-0.514
Mof_C 	C 	0.21691	0.28309	0.527	-0.014
Mof_H 	H 	0.1945	0.3055	0.5454	0.048
Mof_O 	O 	0.2804	0.7804	0.36667	-0.514
Mof_C 	C 	0.28309	0.78309	0.473	-0.014
Mof_H 	H 	0.3055	0.8055	0.4546	0.048
Mof_O 	O 	0.2804	0.2804	0.86667	-0.514
Mof_C 	C 	0.28309	0.28309	0.973	-0.014
Mof_H 	H 	0.3055	0.3055	0.9546	0.048
Mof_O 	O 	0.2196	0.36667	0.7196	-0.514
Mof_C 	C 	0.21691	0.473	0.71691	-0.014
Mof_H 	H 	0.1945	0.4546	0.6945	0.048
Mof_O 	O 	0.2196	0.86667	0.2196	-0.514
Mof_C 	C 	0.21691	0.973	0.21691	-0.014
Mof_H 	H 	0.1945	0.9546	0.1945	0.048
Mof_O 	O 	0.2196	0.63333	0.2804	-0.514
Mof_C 	C 	0.21691	0.527	0.28309	-0.014
Mof_H 	H 	0.1945	0.5454	0.3055	0.048
Mof_O 	O 	0.2196	0.13333	0.7804	-0.514
Mof_C 	C 	0.21691	0.027	0.78309	-0.014
Mof_H 	H 	0.1945	0.0454	0.8055	0.048
Mof_O 	O 	0.7804	0.36667	0.2804	-0.514
Mof_C 	C 	0.78309	0.473	0.28309	-0.014
Mof_H 	H 	0.8055	0.4546	0.3055	0.048
Mof_O 	O 	0.7804	0.86667	0.7804	-0.514
Mof_C 	C 	0.78309	0.973	0.78309	-0.014
Mof_H 	H 	0.8055	0.9546	0.8055	0.048
Mof_O 	O 	0.2804	0.86667	0.2804	-0.514
Mof_C 	C 	0.28309	0.973	0.28309	-0.014
Mof_H 	H 	0.3055	0.9546	0.3055	0.048
Mof_O 	O 	0.7804	0.63333	0.7196	-0.514
Mof_C 	C 	0.78309	0.527	0.71691	-0.014
Mof_H 	H 	0.8055	0.5454	0.6945	0.048
Mof_O 	O 	0.7804	0.13333	0.2196	-0.514
Mof_C 	C 	0.78309	0.027	0.21691	-0.014
Mof_H 	H 	0.8055	0.0454	0.1945	0.048
Mof_O 	O 	0.2804	0.63333	0.2196	-0.514
Mof_C 	C 	0.28309	0.527	0.21691	-0.014
Mof_H 	H 	0.3055	0.5454	0.1945	0.048
Mof_O 	O 	0.7196	0.63333	0.7804	-0.514
Mof_C 	C 	0.71691	0.527	0.78309	-0.014
Mof_H 	H 	0.6945	0.5454	0.8055	0.048
Mof_O 	O 	0.7196	0.13333	0.2804	-0.514
Mof_C 	C 	0.71691	0.027	0.28309	-0.014
Mof_H 	H 	0.6945	0.0454	0.3055	0.048
Mof_O 	O 	0.2804	0.36667	0.7804	-0.514
Mof_C 	C 	0.28309	0.473	0.78309	-0.014
Mof_H 	H 	0.3055	0.4546	0.8055	0.048
Mof_O 	O 	0.2804	0.13333	0.7196	-0.514
Mof_C 	C 	0.28309	0.027	0.71691	-0.014
Mof_H 	H 	0.3055	0.0454	0.6945	0.048
Mof_O 	O 	0.7196	0.36667	0.2196	-0.514
Mof_C 	C 	0.71691	0.473	0.21691	-0.014
Mof_H 	H 	0.6945	0.4546	0.1945	0.048
Mof_O 	O 	0.7196	0.86667	0.7196	-0.514
Mof_C 	C 	0.71691	0.973	0.71691	-0.014
Mof_H 	H 	0.6945	0.9546	0.6945	0.048
Mof_O 	O 	0.7804	0.7196	0.63333	-0.514
Mof_C 	C 	0.78309	0.71691	0.527	-0.014
Mof_H 	H 	0.8055	0.6945	0.5454	0.048
Mof_O 	O 	0.7804	0.2196	0.13333	-0.514
Mof_C 	C 	0.78309	0.21691	0.027	-0.014
Mof_H 	H 	0.8055	0.1945	0.0454	0.048
Mof_O 	O 	0.7804	0.2804	0.36667	-0.514
Mof_C 	C 	0.78309	0.28309	0.473	-0.014
Mof_H 	H 	0.8055	0.3055	0.4546	0.048
Mof_O 	O 	0.7804	0.7804	0.86667	-0.514
Mof_C 	C 	0.78309	0.78309	0.973	-0.014
Mof_H 	H 	0.8055	0.8055	0.9546	0.048
Mof_O 	O 	0.2196	0.7804	0.13333	-0.514
Mof_C 	C 	0.21691	0.78309	0.027	-0.014
Mof_H 	H 	0.1945	0.8055	0.0454	0.048
Mof_O 	O 	0.2196	0.7196	0.36667	-0.514
Mof_C 	C 	0.21691	0.71691	0.473	-0.014
Mof_H 	H 	0.1945	0.6945	0.4546	0.048
Mof_O 	O 	0.63333	0.7804	0.7196	-0.514
Mof_C 	C 	0.527	0.78309	0.71691	-0.014
Mof_H 	H 	0.5454	0.8055	0.6945	0.048
Mof_O 	O 	0.13333	0.7804	0.2196	-0.514
Mof_C 	C 	0.027	0.78309	0.21691	-0.014
Mof_H 	H 	0.0454	0.8055	0.1945	0.048
Mof_O 	O 	0.36667	0.7804	0.2804	-0.514
Mof_C 	C 	0.473	0.78309	0.28309	-0.014
Mof_H 	H 	0.4546	0.8055	0.3055	0.048
Mof_O 	O 	0.86667	0.7804	0.7804	-0.514
Mof_C 	C 	0.973	0.78309	0.78309	-0.014
Mof_H 	H 	0.9546	0.8055	0.8055	0.048
Mof_O 	O 	0.13333	0.2196	0.7804	-0.514
Mof_C 	C 	0.027	0.21691	0.78309	-0.014
Mof_H 	H 	0.0454	0.1945	0.8055	0.048
Mof_O 	O 	0.36667	0.2196	0.7196	-0.514
Mof_C 	C 	0.473	0.21691	0.71691	-0.014
Mof_H 	H 	0.4546	0.1945	0.6945	0.048
Mof_O 	O 	0.63333	0.7196	0.2196	-0.514
Mof_C 	C 	0.527	0.71691	0.21691	-0.014
Mof_H 	H 	0.5454	0.6945	0.1945	0.048
Mof_O 	O 	0.13333	0.7196	0.7196	-0.514
Mof_C 	C 	0.027	0.71691	0.71691	-0.014
Mof_H 	H 	0.0454	0.6945	0.6945	0.048
Mof_O 	O 	0.86667	0.2804	0.7196	-0.514
Mof_C 	C 	0.973	0.28309	0.71691	-0.014
Mof_H 	H 	0.9546	0.3055	0.6945	0.048
Mof_O 	O 	0.63333	0.2804	0.7804	-0.514
Mof_C 	C 	0.527	0.28309	0.78309	-0.014
Mof_H 	H 	0.5454	0.3055	0.8055	0.048
Mof_O 	O 	0.36667	0.7196	0.7804	-0.514
Mof_C 	C 	0.473	0.71691	0.78309	-0.014
Mof_H 	H 	0.4546	0.6945	0.8055	0.048
Mof_O 	O 	0.86667	0.7196	0.2804	-0.514
Mof_C 	C 	0.973	0.71691	0.28309	-0.014
Mof_H 	H 	0.9546	0.6945	0.3055	0.048
Mof_O 	O 	0.7196	0.7804	0.36667	-0.514
Mof_C 	C 	0.71691	0.78309	0.473	-0.014
Mof_H 	H 	0.6945	0.8055	0.4546	0.048
Mof_O 	O 	0.7196	0.2804	0.86667	-0.514
Mof_C 	C 	0.71691	0.28309	0.973	-0.014
Mof_H 	H 	0.6945	0.3055	0.9546	0.048
Mof_O 	O 	0.2804	0.7804	0.63333	-0.514
Mof_C 	C 	0.28309	0.78309	0.527	-0.014
Mof_H 	H 	0.3055	0.8055	0.5454	0.048
Mof_O 	O 	0.2804	0.7196	0.86667	-0.514
Mof_C 	C 	0.28309	0.71691	0.973	-0.014
Mof_H 	H 	0.3055	0.6945	0.9546	0.048
Mof_O 	O 	0.7196	0.2196	0.63333	-0.514
Mof_C 	C 	0.71691	0.21691	0.527	-0.014
Mof_H 	H 	0.6945	0.1945	0.5454	0.048
Mof_O 	O 	0.7196	0.7196	0.13333	-0.514
Mof_C 	C 	0.71691	0.71691	0.027	-0.014
Mof_H 	H 	0.6945	0.6945	0.0454	0.048
Mof_O 	O 	0.7804	0.63333	0.2804	-0.514
Mof_C 	C 	0.78309	0.527	0.28309	-0.014
Mof_H 	H 	0.8055	0.5454	0.3055	0.048
Mof_O 	O 	0.7804	0.13333	0.7804	-0.514
Mof_C 	C 	0.78309	0.027	0.78309	-0.014
Mof_H 	H 	0.8055	0.0454	0.8055	0.048
Mof_O 	O 	0.7804	0.36667	0.7196	-0.514
Mof_C 	C 	0.78309	0.473	0.71691	-0.014
Mof_H 	H 	0.8055	0.4546	0.6945	0.048
Mof_O 	O 	0.7804	0.86667	0.2196	-0.514
Mof_C 	C 	0.78309	0.973	0.21691	-0.014
Mof_H 	H 	0.8055	0.9546	0.1945	0.048
Mof_O 	O 	0.2196	0.63333	0.7196	-0.514
Mof_C 	C 	0.21691	0.527	0.71691	-0.014
Mof_H 	H 	0.1945	0.5454	0.6945	0.048
Mof_O 	O 	0.2196	0.86667	0.7804	-0.514
Mof_C 	C 	0.21691	0.973	0.78309	-0.014
Mof_H 	H 	0.1945	0.9546	0.8055	0.048
Mof_C 	C 	0.25	0.3883	0.25	0.404
Mof_C 	C 	0.25	0.4464	0.25	-0.091
Mof_C 	C 	0.25	0.8883	0.75	0.404
Mof_C 	C 	0.25	0.9464	0.75	-0.091
Mof_C 	C 	0.75	0.6117	0.25	0.404
Mof_C 	C 	0.75	0.5536	0.25	-0.091
Mof_C 	C 	0.75	0.1117	0.75	0.404
Mof_C 	C 	0.75	0.0536	0.75	-0.091
Mof_C 	C 	0.25	0.1117	0.25	0.404
Mof_C 	C 	0.25	0.0536	0.25	-0.091
Mof_C 	C 	0.75	0.3883	0.75	0.404
Mof_C 	C 	0.75	0.4464	0.75	-0.091
Mof_C 	C 	0.75	0.8883	0.25	0.404
Mof_C 	C 	0.75	0.9464	0.25	-0.091
Mof_C 	C 	0.25	0.6117	0.75	0.404
Mof_C 	C 	0.25	0.5536	0.75	-0.091
Mof_C 	C 	0.25	0.25	0.3883	0.404
Mof_C 	C 	0.25	0.25	0.4464	-0.091
Mof_C 	C 	0.25	0.75	0.8883	0.404
Mof_C 	C 	0.25	0.75	0.9464	-0.091
Mof_C 	C 	0.25	0.75	0.6117	0.404
Mof_C 	C 	0.25	0.75	0.5536	-0.091
Mof_C 	C 	0.25	0.25	0.1117	0.404
Mof_C 	C 	0.25	0.25	0.0536	-0.091
Mof_C 	C 	0.75	0.75	0.3883	0.404
Mof_C 	C 	0.75	0.75	0.4464	-0.091
Mof_C 	C 	0.75	0.25	0.8883	0.404
Mof_C 	C 	0.75	0.25	0.9464	-0.091
Mof_C 	C 	0.75	0.25	0.6117	0.404
Mof_C 	C 	0.75	0.25	0.5536	-0.091
Mof_C 	C 	0.75	0.75	0.1117	0.404
Mof_C 	C 	0.75	0.75	0.0536	-0.091
Mof_C 	C 	0.3883	0.25	0.25	0.404
Mof_C 	C 	0.4464	0.25	0.25	-0.091
Mof_C 	C 	0.8883	0.25	0.75	0.404
Mof_C 	C 	0.9464	0.25	0.75	-0.091
Mof_C 	C 	0.6117	0.25	0.75	0.404
Mof_C 	C 	0.5536	0.25	0.75	-0.091
Mof_C 	C 	0.1117	0.25	0.25	0.404
Mof_C 	C 	0.0536	0.25	0.25	-0.091
Mof_C 	C 	0.3883	0.75	0.75	0.404
Mof_C 	C 	0.4464	0.75	0.75	-0.091
Mof_C 	C 	0.8883	0.75	0.25	0.404
Mof_C 	C 	0.9464	0.75	0.25	-0.091
Mof_C 	C 	0.6117	0.75	0.25	0.404
Mof_C 	C 	0.5536	0.75	0.25	-0.091
Mof_C 	C 	0.1117	0.75	0.75	0.404
Mof_C 	C 	0.0536	0.75	0.75	-0.091
Mof_C 	C 	0.3883	0.25	0.75	0.404
Mof_C 	C 	0.4464	0.25	0.75	-0.091
Mof_C 	C 	0.8883	0.25	0.25	0.404
Mof_C 	C 	0.9464	0.25	0.25	-0.091
Mof_C 	C 	0.6117	0.75	0.75	0.404
Mof_C 	C 	0.5536	0.75	0.75	-0.091
Mof_C 	C 	0.6117	0.25	0.25	0.404
Mof_C 	C 	0.5536	0.25	0.25	-0.091
Mof_C 	C 	0.1117	0.75	0.25	0.404
Mof_C 	C 	0.0536	0.75	0.25	-0.091
Mof_C 	C 	0.3883	0.75	0.25	0.404
Mof_C 	C 	0.4464	0.75	0.25	-0.091
Mof_C 	C 	0.8883	0.75	0.75	0.404
Mof_C 	C 	0.9464	0.75	0.75	-0.091
Mof_C 	C 	0.1117	0.25	0.75	0.404
Mof_C 	C 	0.0536	0.25	0.75	-0.091
Mof_C 	C 	0.25	0.25	0.6117	0.404
Mof_C 	C 	0.25	0.25	0.5536	-0.091
Mof_C 	C 	0.25	0.75	0.1117	0.404
Mof_C 	C 	0.25	0.75	0.0536	-0.091
Mof_C 	C 	0.75	0.25	0.3883	0.404
Mof_C 	C 	0.75	0.25	0.4464	-0.091
Mof_C 	C 	0.75	0.75	0.8883	0.404
Mof_C 	C 	0.75	0.75	0.9464	-0.091
Mof_C 	C 	0.25	0.25	0.8883	0.404
Mof_C 	C 	0.25	0.25	0.9464	-0.091
Mof_C 	C 	0.75	0.75	0.6117	0.404
Mof_C 	C 	0.75	0.75	0.5536	-0.091
Mof_C 	C 	0.75	0.25	0.1117	0.404
Mof_C 	C 	0.75	0.25	0.0536	-0.091
Mof_C 	C 	0.25	0.75	0.3883	0.404
Mof_C 	C 	0.25	0.75	0.4464	-0.091
Mof_C 	C 	0.25	0.3883	0.75	0.404
Mof_C 	C 	0.25	0.4464	0.75	-0.091
Mof_C 	C 	0.25	0.8883	0.25	0.404
Mof_C 	C 	0.25	0.9464	0.25	-0.091
Mof_C 	C 	0.25	0.6117	0.25	0.404
Mof_C 	C 	0.25	0.5536	0.25	-0.091
Mof_C 	C 	0.25	0.1117	0.75	0.404
Mof_C 	C 	0.25	0.0536	0.75	-0.091
Mof_C 	C 	0.75	0.3883	0.25	0.404
Mof_C 	C 	0.75	0.4464	0.25	-0.091
Mof_C 	C 	0.75	0.8883	0.75	0.404
Mof_C 	C 	0.75	0.9464	0.75	-0.091
Mof_C 	C 	0.75	0.6117	0.75	0.404
Mof_C 	C 	0.75	0.5536	0.75	-0.091
Mof_C 	C 	0.75	0.1117	0.25	0.404
Mof_C 	C 	0.75	0.0536	0.25	-0.091
_end
