data_functionalizedCrystal
_audit_creation_method	'EQeq! by Chris Wilmer'
_symmetry_space_group_name_H-M	'P1'
_symmetry_Int_Tables_number	1
_symmetry_cell_setting	triclinic
loop_
_symmetry_equiv_pos_as_xyz
  x,y,z
_cell_length_a	26.981
_cell_length_b	26.981
_cell_length_c	26.981
_cell_angle_alpha	90
_cell_angle_beta	90
_cell_angle_gamma	90
loop_
_atom_site_label
_atom_site_type_symbol
_atom_site_fract_x
_atom_site_fract_y
_atom_site_fract_z
_atom_site_charge
Mof_O 	O 	0.44758	0.05017	0.14885	-0.426
Mof_O 	O 	0.44845	0.04924	0.2314	-0.431
Mof_C 	C 	0.2947	0.14573	0.19784	0.035
Mof_C 	C 	0.43056	0.06214	0.19069	0.371
Mof_C 	C 	0.36014	0.10708	0.1494	0.035
Mof_H 	H 	0.3737	0.0989	0.1184	0.02
Mof_C 	C 	0.31963	0.13002	0.24125	-0.111
Mof_H 	H 	0.306	0.1371	0.2725	0.071
Mof_C 	C 	0.31543	0.134	0.15189	-0.109
Mof_H 	H 	0.2996	0.1442	0.1226	0.056
Mof_C 	C 	0.3639	0.10425	0.23807	0.039
Mof_H 	H 	0.3803	0.0946	0.2672	0.03
Mof_C 	C 	0.21665	0.17007	0.24191	-0.106
Mof_H 	H 	0.2212	0.143	0.2634	0.063
Mof_C 	C 	0.38429	0.09257	0.19237	-0.122
Mof_C 	C 	0.24962	0.17733	0.20248	0.037
Mof_O 	O 	0.55242	0.94983	0.14885	-0.384
Mof_O 	O 	0.55155	0.95076	0.2314	-0.39
Mof_C 	C 	0.7053	0.85427	0.19784	0.034
Mof_C 	C 	0.56944	0.93786	0.19069	0.365
Mof_C 	C 	0.63986	0.89292	0.1494	0.031
Mof_H 	H 	0.6263	0.9011	0.1184	0.035
Mof_C 	C 	0.68037	0.86998	0.24125	-0.097
Mof_H 	H 	0.694	0.8629	0.2725	0.071
Mof_C 	C 	0.68457	0.866	0.15189	-0.095
Mof_H 	H 	0.7004	0.8558	0.1226	0.063
Mof_C 	C 	0.6361	0.89575	0.23807	0.033
Mof_H 	H 	0.6197	0.9054	0.2672	0.043
Mof_C 	C 	0.78335	0.82993	0.24191	-0.112
Mof_H 	H 	0.7788	0.857	0.2634	0.075
Mof_C 	C 	0.61571	0.90743	0.19237	-0.101
Mof_C 	C 	0.75038	0.82267	0.20248	0.051
Mof_O 	O 	0.55242	0.05017	0.85115	-0.414
Mof_O 	O 	0.55155	0.04924	0.7686	-0.431
Mof_C 	C 	0.7053	0.14573	0.80216	0.036
Mof_C 	C 	0.56944	0.06214	0.80931	0.367
Mof_C 	C 	0.63986	0.10708	0.8506	0.034
Mof_H 	H 	0.6263	0.0989	0.8816	0.035
Mof_C 	C 	0.68037	0.13002	0.75875	-0.108
Mof_H 	H 	0.694	0.1371	0.7275	0.07
Mof_C 	C 	0.68457	0.134	0.84811	-0.104
Mof_H 	H 	0.7004	0.1442	0.8774	0.072
Mof_C 	C 	0.6361	0.10425	0.76193	0.036
Mof_H 	H 	0.6197	0.0946	0.7328	0.03
Mof_C 	C 	0.78335	0.17007	0.75809	-0.111
Mof_H 	H 	0.7788	0.143	0.7366	0.068
Mof_C 	C 	0.61571	0.09257	0.80763	-0.116
Mof_C 	C 	0.75038	0.17733	0.79752	0.048
Mof_O 	O 	0.44758	0.94983	0.85115	-0.372
Mof_O 	O 	0.44845	0.95076	0.7686	-0.388
Mof_C 	C 	0.2947	0.85427	0.80216	0.034
Mof_C 	C 	0.43056	0.93786	0.80931	0.362
Mof_C 	C 	0.36014	0.89292	0.8506	0.03
Mof_H 	H 	0.3737	0.9011	0.8816	0.05
Mof_C 	C 	0.31963	0.86998	0.75875	-0.095
Mof_H 	H 	0.306	0.8629	0.7275	0.071
Mof_C 	C 	0.31543	0.866	0.84811	-0.091
Mof_H 	H 	0.2996	0.8558	0.8774	0.074
Mof_C 	C 	0.3639	0.89575	0.76193	0.031
Mof_H 	H 	0.3803	0.9054	0.7328	0.044
Mof_C 	C 	0.21665	0.82993	0.75809	-0.111
Mof_H 	H 	0.2212	0.857	0.7366	0.074
Mof_C 	C 	0.38429	0.90743	0.80763	-0.095
Mof_C 	C 	0.24962	0.82267	0.79752	0.053
Mof_O 	O 	0.14885	0.44758	0.05017	-0.427
Mof_O 	O 	0.2314	0.44845	0.04924	-0.432
Mof_C 	C 	0.19784	0.2947	0.14573	0.034
Mof_C 	C 	0.19069	0.43056	0.06214	0.37
Mof_C 	C 	0.1494	0.36014	0.10708	0.034
Mof_H 	H 	0.1184	0.3737	0.0989	0.019
Mof_C 	C 	0.24125	0.31963	0.13002	-0.112
Mof_H 	H 	0.2725	0.306	0.1371	0.07
Mof_C 	C 	0.15189	0.31543	0.134	-0.11
Mof_H 	H 	0.1226	0.2996	0.1442	0.055
Mof_C 	C 	0.23807	0.3639	0.10425	0.038
Mof_H 	H 	0.2672	0.3803	0.0946	0.029
Mof_C 	C 	0.24191	0.21665	0.17007	-0.107
Mof_H 	H 	0.2634	0.2212	0.143	0.062
Mof_C 	C 	0.19237	0.38429	0.09257	-0.123
Mof_C 	C 	0.20248	0.24962	0.17733	0.037
Mof_O 	O 	0.14885	0.55242	0.94983	-0.384
Mof_O 	O 	0.2314	0.55155	0.95076	-0.39
Mof_C 	C 	0.19784	0.7053	0.85427	0.034
Mof_C 	C 	0.19069	0.56944	0.93786	0.365
Mof_C 	C 	0.1494	0.63986	0.89292	0.031
Mof_H 	H 	0.1184	0.6263	0.9011	0.035
Mof_C 	C 	0.24125	0.68037	0.86998	-0.097
Mof_H 	H 	0.2725	0.694	0.8629	0.071
Mof_C 	C 	0.15189	0.68457	0.866	-0.095
Mof_H 	H 	0.1226	0.7004	0.8558	0.063
Mof_C 	C 	0.23807	0.6361	0.89575	0.033
Mof_H 	H 	0.2672	0.6197	0.9054	0.043
Mof_C 	C 	0.24191	0.78335	0.82993	-0.112
Mof_H 	H 	0.2634	0.7788	0.857	0.075
Mof_C 	C 	0.19237	0.61571	0.90743	-0.101
Mof_C 	C 	0.20248	0.75038	0.82267	0.051
Mof_O 	O 	0.85115	0.55242	0.05017	-0.414
Mof_O 	O 	0.7686	0.55155	0.04924	-0.431
Mof_C 	C 	0.80216	0.7053	0.14573	0.036
Mof_C 	C 	0.80931	0.56944	0.06214	0.367
Mof_C 	C 	0.8506	0.63986	0.10708	0.034
Mof_H 	H 	0.8816	0.6263	0.0989	0.035
Mof_C 	C 	0.75875	0.68037	0.13002	-0.108
Mof_H 	H 	0.7275	0.694	0.1371	0.07
Mof_C 	C 	0.84811	0.68457	0.134	-0.104
Mof_H 	H 	0.8774	0.7004	0.1442	0.072
Mof_C 	C 	0.76193	0.6361	0.10425	0.036
Mof_H 	H 	0.7328	0.6197	0.0946	0.03
Mof_C 	C 	0.75809	0.78335	0.17007	-0.111
Mof_H 	H 	0.7366	0.7788	0.143	0.068
Mof_C 	C 	0.80763	0.61571	0.09257	-0.116
Mof_C 	C 	0.79752	0.75038	0.17733	0.048
Mof_O 	O 	0.85115	0.44758	0.94983	-0.372
Mof_O 	O 	0.7686	0.44845	0.95076	-0.388
Mof_C 	C 	0.80216	0.2947	0.85427	0.034
Mof_C 	C 	0.80931	0.43056	0.93786	0.362
Mof_C 	C 	0.8506	0.36014	0.89292	0.03
Mof_H 	H 	0.8816	0.3737	0.9011	0.05
Mof_C 	C 	0.75875	0.31963	0.86998	-0.095
Mof_H 	H 	0.7275	0.306	0.8629	0.071
Mof_C 	C 	0.84811	0.31543	0.866	-0.091
Mof_H 	H 	0.8774	0.2996	0.8558	0.074
Mof_C 	C 	0.76193	0.3639	0.89575	0.031
Mof_H 	H 	0.7328	0.3803	0.9054	0.044
Mof_C 	C 	0.75809	0.21665	0.82993	-0.111
Mof_H 	H 	0.7366	0.2212	0.857	0.074
Mof_C 	C 	0.80763	0.38429	0.90743	-0.095
Mof_C 	C 	0.79752	0.24962	0.82267	0.053
Mof_O 	O 	0.05017	0.14885	0.44758	-0.427
Mof_O 	O 	0.04924	0.2314	0.44845	-0.432
Mof_C 	C 	0.14573	0.19784	0.2947	0.034
Mof_C 	C 	0.06214	0.19069	0.43056	0.37
Mof_C 	C 	0.10708	0.1494	0.36014	0.034
Mof_H 	H 	0.0989	0.1184	0.3737	0.019
Mof_C 	C 	0.13002	0.24125	0.31963	-0.112
Mof_H 	H 	0.1371	0.2725	0.306	0.07
Mof_C 	C 	0.134	0.15189	0.31543	-0.11
Mof_H 	H 	0.1442	0.1226	0.2996	0.055
Mof_C 	C 	0.10425	0.23807	0.3639	0.038
Mof_H 	H 	0.0946	0.2672	0.3803	0.029
Mof_C 	C 	0.17007	0.24191	0.21665	-0.107
Mof_H 	H 	0.143	0.2634	0.2212	0.062
Mof_C 	C 	0.09257	0.19237	0.38429	-0.123
Mof_C 	C 	0.17733	0.20248	0.24962	0.037
Mof_O 	O 	0.94983	0.14885	0.55242	-0.384
Mof_O 	O 	0.95076	0.2314	0.55155	-0.39
Mof_C 	C 	0.85427	0.19784	0.7053	0.034
Mof_C 	C 	0.93786	0.19069	0.56944	0.365
Mof_C 	C 	0.89292	0.1494	0.63986	0.031
Mof_H 	H 	0.9011	0.1184	0.6263	0.035
Mof_C 	C 	0.86998	0.24125	0.68037	-0.097
Mof_H 	H 	0.8629	0.2725	0.694	0.071
Mof_C 	C 	0.866	0.15189	0.68457	-0.095
Mof_H 	H 	0.8558	0.1226	0.7004	0.063
Mof_C 	C 	0.89575	0.23807	0.6361	0.033
Mof_H 	H 	0.9054	0.2672	0.6197	0.043
Mof_C 	C 	0.82993	0.24191	0.78335	-0.112
Mof_H 	H 	0.857	0.2634	0.7788	0.075
Mof_C 	C 	0.90743	0.19237	0.61571	-0.101
Mof_C 	C 	0.82267	0.20248	0.75038	0.051
Mof_O 	O 	0.05017	0.85115	0.55242	-0.414
Mof_O 	O 	0.04924	0.7686	0.55155	-0.431
Mof_C 	C 	0.14573	0.80216	0.7053	0.036
Mof_C 	C 	0.06214	0.80931	0.56944	0.367
Mof_C 	C 	0.10708	0.8506	0.63986	0.034
Mof_H 	H 	0.0989	0.8816	0.6263	0.035
Mof_C 	C 	0.13002	0.75875	0.68037	-0.108
Mof_H 	H 	0.1371	0.7275	0.694	0.07
Mof_C 	C 	0.134	0.84811	0.68457	-0.104
Mof_H 	H 	0.1442	0.8774	0.7004	0.072
Mof_C 	C 	0.10425	0.76193	0.6361	0.036
Mof_H 	H 	0.0946	0.7328	0.6197	0.03
Mof_C 	C 	0.17007	0.75809	0.78335	-0.111
Mof_H 	H 	0.143	0.7366	0.7788	0.068
Mof_C 	C 	0.09257	0.80763	0.61571	-0.116
Mof_C 	C 	0.17733	0.79752	0.75038	0.048
Mof_O 	O 	0.94983	0.85115	0.44758	-0.372
Mof_O 	O 	0.95076	0.7686	0.44845	-0.388
Mof_C 	C 	0.85427	0.80216	0.2947	0.034
Mof_C 	C 	0.93786	0.80931	0.43056	0.362
Mof_C 	C 	0.89292	0.8506	0.36014	0.03
Mof_H 	H 	0.9011	0.8816	0.3737	0.05
Mof_C 	C 	0.86998	0.75875	0.31963	-0.095
Mof_H 	H 	0.8629	0.7275	0.306	0.071
Mof_C 	C 	0.866	0.84811	0.31543	-0.091
Mof_H 	H 	0.8558	0.8774	0.2996	0.074
Mof_C 	C 	0.89575	0.76193	0.3639	0.031
Mof_H 	H 	0.9054	0.7328	0.3803	0.044
Mof_C 	C 	0.82993	0.75809	0.21665	-0.111
Mof_H 	H 	0.857	0.7366	0.2212	0.074
Mof_C 	C 	0.90743	0.80763	0.38429	-0.095
Mof_C 	C 	0.82267	0.79752	0.24962	0.053
Mof_O 	O 	0.55242	0.94983	0.85115	-0.372
Mof_O 	O 	0.55155	0.95076	0.7686	-0.388
Mof_C 	C 	0.7053	0.85427	0.80216	0.035
Mof_C 	C 	0.56944	0.93786	0.80931	0.362
Mof_C 	C 	0.63986	0.89292	0.8506	0.031
Mof_H 	H 	0.6263	0.9011	0.8816	0.051
Mof_C 	C 	0.68037	0.86998	0.75875	-0.094
Mof_H 	H 	0.694	0.8629	0.7275	0.071
Mof_C 	C 	0.68457	0.866	0.84811	-0.09
Mof_H 	H 	0.7004	0.8558	0.8774	0.077
Mof_C 	C 	0.6361	0.89575	0.76193	0.031
Mof_H 	H 	0.6197	0.9054	0.7328	0.044
Mof_C 	C 	0.78335	0.82993	0.75809	-0.113
Mof_H 	H 	0.7788	0.857	0.7366	0.078
Mof_C 	C 	0.61571	0.90743	0.80763	-0.094
Mof_C 	C 	0.75038	0.82267	0.79752	0.058
Mof_O 	O 	0.44758	0.05017	0.85115	-0.415
Mof_O 	O 	0.44845	0.04924	0.7686	-0.431
Mof_C 	C 	0.2947	0.14573	0.80216	0.035
Mof_C 	C 	0.43056	0.06214	0.80931	0.367
Mof_C 	C 	0.36014	0.10708	0.8506	0.033
Mof_H 	H 	0.3737	0.0989	0.8816	0.034
Mof_C 	C 	0.31963	0.13002	0.75875	-0.109
Mof_H 	H 	0.306	0.1371	0.7275	0.07
Mof_C 	C 	0.31543	0.134	0.84811	-0.105
Mof_H 	H 	0.2996	0.1442	0.8774	0.069
Mof_C 	C 	0.3639	0.10425	0.76193	0.035
Mof_H 	H 	0.3803	0.0946	0.7328	0.03
Mof_C 	C 	0.21665	0.17007	0.75809	-0.108
Mof_H 	H 	0.2212	0.143	0.7366	0.065
Mof_C 	C 	0.38429	0.09257	0.80763	-0.117
Mof_C 	C 	0.24962	0.17733	0.79752	0.043
Mof_O 	O 	0.44758	0.94983	0.14885	-0.385
Mof_O 	O 	0.44845	0.95076	0.2314	-0.39
Mof_C 	C 	0.2947	0.85427	0.19784	0.033
Mof_C 	C 	0.43056	0.93786	0.19069	0.365
Mof_C 	C 	0.36014	0.89292	0.1494	0.03
Mof_H 	H 	0.3737	0.9011	0.1184	0.034
Mof_C 	C 	0.31963	0.86998	0.24125	-0.098
Mof_H 	H 	0.306	0.8629	0.2725	0.071
Mof_C 	C 	0.31543	0.866	0.15189	-0.096
Mof_H 	H 	0.2996	0.8558	0.1226	0.06
Mof_C 	C 	0.3639	0.89575	0.23807	0.033
Mof_H 	H 	0.3803	0.9054	0.2672	0.043
Mof_C 	C 	0.21665	0.82993	0.24191	-0.11
Mof_H 	H 	0.2212	0.857	0.2634	0.072
Mof_C 	C 	0.38429	0.90743	0.19237	-0.101
Mof_C 	C 	0.24962	0.82267	0.20248	0.046
Mof_O 	O 	0.55242	0.05017	0.14885	-0.427
Mof_O 	O 	0.55155	0.04924	0.2314	-0.432
Mof_C 	C 	0.7053	0.14573	0.19784	0.035
Mof_C 	C 	0.56944	0.06214	0.19069	0.37
Mof_C 	C 	0.63986	0.10708	0.1494	0.035
Mof_H 	H 	0.6263	0.0989	0.1184	0.02
Mof_C 	C 	0.68037	0.13002	0.24125	-0.111
Mof_H 	H 	0.694	0.1371	0.2725	0.07
Mof_C 	C 	0.68457	0.134	0.15189	-0.109
Mof_H 	H 	0.7004	0.1442	0.1226	0.058
Mof_C 	C 	0.6361	0.10425	0.23807	0.038
Mof_H 	H 	0.6197	0.0946	0.2672	0.029
Mof_C 	C 	0.78335	0.17007	0.24191	-0.109
Mof_H 	H 	0.7788	0.143	0.2634	0.065
Mof_C 	C 	0.61571	0.09257	0.19237	-0.122
Mof_C 	C 	0.75038	0.17733	0.20248	0.041
Mof_O 	O 	0.85115	0.55242	0.94983	-0.372
Mof_O 	O 	0.7686	0.55155	0.95076	-0.388
Mof_C 	C 	0.80216	0.7053	0.85427	0.035
Mof_C 	C 	0.80931	0.56944	0.93786	0.362
Mof_C 	C 	0.8506	0.63986	0.89292	0.031
Mof_H 	H 	0.8816	0.6263	0.9011	0.051
Mof_C 	C 	0.75875	0.68037	0.86998	-0.094
Mof_H 	H 	0.7275	0.694	0.8629	0.071
Mof_C 	C 	0.84811	0.68457	0.866	-0.09
Mof_H 	H 	0.8774	0.7004	0.8558	0.077
Mof_C 	C 	0.76193	0.6361	0.89575	0.031
Mof_H 	H 	0.7328	0.6197	0.9054	0.044
Mof_C 	C 	0.75809	0.78335	0.82993	-0.113
Mof_H 	H 	0.7366	0.7788	0.857	0.078
Mof_C 	C 	0.80763	0.61571	0.90743	-0.094
Mof_C 	C 	0.79752	0.75038	0.82267	0.058
Mof_O 	O 	0.85115	0.44758	0.05017	-0.415
Mof_O 	O 	0.7686	0.44845	0.04924	-0.431
Mof_C 	C 	0.80216	0.2947	0.14573	0.035
Mof_C 	C 	0.80931	0.43056	0.06214	0.367
Mof_C 	C 	0.8506	0.36014	0.10708	0.033
Mof_H 	H 	0.8816	0.3737	0.0989	0.034
Mof_C 	C 	0.75875	0.31963	0.13002	-0.109
Mof_H 	H 	0.7275	0.306	0.1371	0.07
Mof_C 	C 	0.84811	0.31543	0.134	-0.105
Mof_H 	H 	0.8774	0.2996	0.1442	0.069
Mof_C 	C 	0.76193	0.3639	0.10425	0.035
Mof_H 	H 	0.7328	0.3803	0.0946	0.03
Mof_C 	C 	0.75809	0.21665	0.17007	-0.108
Mof_H 	H 	0.7366	0.2212	0.143	0.065
Mof_C 	C 	0.80763	0.38429	0.09257	-0.117
Mof_C 	C 	0.79752	0.24962	0.17733	0.043
Mof_O 	O 	0.14885	0.44758	0.94983	-0.385
Mof_O 	O 	0.2314	0.44845	0.95076	-0.39
Mof_C 	C 	0.19784	0.2947	0.85427	0.033
Mof_C 	C 	0.19069	0.43056	0.93786	0.365
Mof_C 	C 	0.1494	0.36014	0.89292	0.03
Mof_H 	H 	0.1184	0.3737	0.9011	0.034
Mof_C 	C 	0.24125	0.31963	0.86998	-0.098
Mof_H 	H 	0.2725	0.306	0.8629	0.071
Mof_C 	C 	0.15189	0.31543	0.866	-0.096
Mof_H 	H 	0.1226	0.2996	0.8558	0.06
Mof_C 	C 	0.23807	0.3639	0.89575	0.033
Mof_H 	H 	0.2672	0.3803	0.9054	0.043
Mof_C 	C 	0.24191	0.21665	0.82993	-0.11
Mof_H 	H 	0.2634	0.2212	0.857	0.072
Mof_C 	C 	0.19237	0.38429	0.90743	-0.101
Mof_C 	C 	0.20248	0.24962	0.82267	0.046
Mof_O 	O 	0.14885	0.55242	0.05017	-0.427
Mof_O 	O 	0.2314	0.55155	0.04924	-0.432
Mof_C 	C 	0.19784	0.7053	0.14573	0.035
Mof_C 	C 	0.19069	0.56944	0.06214	0.37
Mof_C 	C 	0.1494	0.63986	0.10708	0.035
Mof_H 	H 	0.1184	0.6263	0.0989	0.02
Mof_C 	C 	0.24125	0.68037	0.13002	-0.111
Mof_H 	H 	0.2725	0.694	0.1371	0.07
Mof_C 	C 	0.15189	0.68457	0.134	-0.109
Mof_H 	H 	0.1226	0.7004	0.1442	0.058
Mof_C 	C 	0.23807	0.6361	0.10425	0.038
Mof_H 	H 	0.2672	0.6197	0.0946	0.029
Mof_C 	C 	0.24191	0.78335	0.17007	-0.109
Mof_H 	H 	0.2634	0.7788	0.143	0.065
Mof_C 	C 	0.19237	0.61571	0.09257	-0.122
Mof_C 	C 	0.20248	0.75038	0.17733	0.041
Mof_O 	O 	0.94983	0.85115	0.55242	-0.372
Mof_O 	O 	0.95076	0.7686	0.55155	-0.388
Mof_C 	C 	0.85427	0.80216	0.7053	0.035
Mof_C 	C 	0.93786	0.80931	0.56944	0.362
Mof_C 	C 	0.89292	0.8506	0.63986	0.031
Mof_H 	H 	0.9011	0.8816	0.6263	0.051
Mof_C 	C 	0.86998	0.75875	0.68037	-0.094
Mof_H 	H 	0.8629	0.7275	0.694	0.071
Mof_C 	C 	0.866	0.84811	0.68457	-0.09
Mof_H 	H 	0.8558	0.8774	0.7004	0.077
Mof_C 	C 	0.89575	0.76193	0.6361	0.031
Mof_H 	H 	0.9054	0.7328	0.6197	0.044
Mof_C 	C 	0.82993	0.75809	0.78335	-0.113
Mof_H 	H 	0.857	0.7366	0.7788	0.078
Mof_C 	C 	0.90743	0.80763	0.61571	-0.094
Mof_C 	C 	0.82267	0.79752	0.75038	0.058
Mof_O 	O 	0.05017	0.85115	0.44758	-0.415
Mof_O 	O 	0.04924	0.7686	0.44845	-0.431
Mof_C 	C 	0.14573	0.80216	0.2947	0.035
Mof_C 	C 	0.06214	0.80931	0.43056	0.367
Mof_C 	C 	0.10708	0.8506	0.36014	0.033
Mof_H 	H 	0.0989	0.8816	0.3737	0.034
Mof_C 	C 	0.13002	0.75875	0.31963	-0.109
Mof_H 	H 	0.1371	0.7275	0.306	0.07
Mof_C 	C 	0.134	0.84811	0.31543	-0.105
Mof_H 	H 	0.1442	0.8774	0.2996	0.069
Mof_C 	C 	0.10425	0.76193	0.3639	0.035
Mof_H 	H 	0.0946	0.7328	0.3803	0.03
Mof_C 	C 	0.17007	0.75809	0.21665	-0.108
Mof_H 	H 	0.143	0.7366	0.2212	0.065
Mof_C 	C 	0.09257	0.80763	0.38429	-0.117
Mof_C 	C 	0.17733	0.79752	0.24962	0.043
Mof_O 	O 	0.94983	0.14885	0.44758	-0.385
Mof_O 	O 	0.95076	0.2314	0.44845	-0.39
Mof_C 	C 	0.85427	0.19784	0.2947	0.033
Mof_C 	C 	0.93786	0.19069	0.43056	0.365
Mof_C 	C 	0.89292	0.1494	0.36014	0.03
Mof_H 	H 	0.9011	0.1184	0.3737	0.034
Mof_C 	C 	0.86998	0.24125	0.31963	-0.098
Mof_H 	H 	0.8629	0.2725	0.306	0.071
Mof_C 	C 	0.866	0.15189	0.31543	-0.096
Mof_H 	H 	0.8558	0.1226	0.2996	0.06
Mof_C 	C 	0.89575	0.23807	0.3639	0.033
Mof_H 	H 	0.9054	0.2672	0.3803	0.043
Mof_C 	C 	0.82993	0.24191	0.21665	-0.11
Mof_H 	H 	0.857	0.2634	0.2212	0.072
Mof_C 	C 	0.90743	0.19237	0.38429	-0.101
Mof_C 	C 	0.82267	0.20248	0.24962	0.046
Mof_O 	O 	0.05017	0.14885	0.55242	-0.427
Mof_O 	O 	0.04924	0.2314	0.55155	-0.432
Mof_C 	C 	0.14573	0.19784	0.7053	0.035
Mof_C 	C 	0.06214	0.19069	0.56944	0.37
Mof_C 	C 	0.10708	0.1494	0.63986	0.035
Mof_H 	H 	0.0989	0.1184	0.6263	0.02
Mof_C 	C 	0.13002	0.24125	0.68037	-0.111
Mof_H 	H 	0.1371	0.2725	0.694	0.07
Mof_C 	C 	0.134	0.15189	0.68457	-0.109
Mof_H 	H 	0.1442	0.1226	0.7004	0.058
Mof_C 	C 	0.10425	0.23807	0.6361	0.038
Mof_H 	H 	0.0946	0.2672	0.6197	0.029
Mof_C 	C 	0.17007	0.24191	0.78335	-0.109
Mof_H 	H 	0.143	0.2634	0.7788	0.065
Mof_C 	C 	0.09257	0.19237	0.61571	-0.122
Mof_C 	C 	0.17733	0.20248	0.75038	0.041
Mof_Cu	Cu	0.5	0	0.14436	0.874
Mof_Cu	Cu	0.5	0	0.24021	0.881
Mof_Cu	Cu	0.5	-1.02817e-32	0.85564	0.88
Mof_Cu	Cu	0.5	0	0.75979	0.881
Mof_Cu	Cu	0.14436	0.5	-0	0.874
Mof_Cu	Cu	0.24021	0.5	-0	0.881
Mof_Cu	Cu	0.85564	0.5	-0	0.88
Mof_Cu	Cu	0.75979	0.5	-0	0.881
Mof_Cu	Cu	1.8747e-33	0.14436	0.5	0.874
Mof_Cu	Cu	1.8747e-33	0.24021	0.5	0.881
Mof_Cu	Cu	-8.40703e-33	0.85564	0.5	0.88
Mof_Cu	Cu	1.8747e-33	0.75979	0.5	0.881
Mof_O 	O 	0.94758	0.55017	0.64885	-0.377
Mof_O 	O 	0.94845	0.54924	0.7314	-0.387
Mof_C 	C 	0.7947	0.64573	0.69784	0.03
Mof_C 	C 	0.93056	0.56214	0.69069	0.361
Mof_C 	C 	0.86014	0.60708	0.6494	0.027
Mof_H 	H 	0.8737	0.5989	0.6184	0.041
Mof_C 	C 	0.81963	0.63002	0.74125	-0.096
Mof_H 	H 	0.806	0.6371	0.7725	0.068
Mof_C 	C 	0.81543	0.634	0.65189	-0.094
Mof_H 	H 	0.7996	0.6442	0.6226	0.065
Mof_C 	C 	0.8639	0.60425	0.73807	0.029
Mof_H 	H 	0.8803	0.5946	0.7672	0.044
Mof_C 	C 	0.71665	0.67007	0.74191	-0.113
Mof_H 	H 	0.7212	0.643	0.7634	0.071
Mof_C 	C 	0.88429	0.59257	0.69237	-0.098
Mof_C 	C 	0.74962	0.67733	0.70248	0.05
Mof_O 	O 	0.05242	0.44983	0.64885	-0.421
Mof_O 	O 	0.05155	0.45076	0.7314	-0.431
Mof_C 	C 	0.2053	0.35427	0.69784	0.037
Mof_C 	C 	0.06944	0.43786	0.69069	0.37
Mof_C 	C 	0.13986	0.39292	0.6494	0.036
Mof_H 	H 	0.1263	0.4011	0.6184	0.029
Mof_C 	C 	0.18037	0.36998	0.74125	-0.107
Mof_H 	H 	0.194	0.3629	0.7725	0.071
Mof_C 	C 	0.18457	0.366	0.65189	-0.105
Mof_H 	H 	0.2004	0.3558	0.6226	0.066
Mof_C 	C 	0.1361	0.39575	0.73807	0.039
Mof_H 	H 	0.1197	0.4054	0.7672	0.031
Mof_C 	C 	0.28335	0.32993	0.74191	-0.109
Mof_H 	H 	0.2788	0.357	0.7634	0.07
Mof_C 	C 	0.11571	0.40743	0.69237	-0.118
Mof_C 	C 	0.25038	0.32267	0.70248	0.045
Mof_O 	O 	0.05242	0.55017	0.35115	-0.421
Mof_O 	O 	0.05155	0.54924	0.2686	-0.433
Mof_C 	C 	0.2053	0.64573	0.30216	0.038
Mof_C 	C 	0.06944	0.56214	0.30931	0.371
Mof_C 	C 	0.13986	0.60708	0.3506	0.037
Mof_H 	H 	0.1263	0.5989	0.3816	0.029
Mof_C 	C 	0.18037	0.63002	0.25875	-0.109
Mof_H 	H 	0.194	0.6371	0.2275	0.072
Mof_C 	C 	0.18457	0.634	0.34811	-0.106
Mof_H 	H 	0.2004	0.6442	0.3774	0.067
Mof_C 	C 	0.1361	0.60425	0.26193	0.04
Mof_H 	H 	0.1197	0.5946	0.2328	0.029
Mof_C 	C 	0.28335	0.67007	0.25809	-0.108
Mof_H 	H 	0.2788	0.643	0.2366	0.069
Mof_C 	C 	0.11571	0.59257	0.30763	-0.119
Mof_C 	C 	0.25038	0.67733	0.29752	0.045
Mof_O 	O 	0.94758	0.44983	0.35115	-0.378
Mof_O 	O 	0.94845	0.45076	0.2686	-0.39
Mof_C 	C 	0.7947	0.35427	0.30216	0.032
Mof_C 	C 	0.93056	0.43786	0.30931	0.362
Mof_C 	C 	0.86014	0.39292	0.3506	0.028
Mof_H 	H 	0.8737	0.4011	0.3816	0.04
Mof_C 	C 	0.81963	0.36998	0.25875	-0.099
Mof_H 	H 	0.806	0.3629	0.2275	0.07
Mof_C 	C 	0.81543	0.366	0.34811	-0.096
Mof_H 	H 	0.7996	0.3558	0.3774	0.065
Mof_C 	C 	0.8639	0.39575	0.26193	0.031
Mof_H 	H 	0.8803	0.4054	0.2328	0.041
Mof_C 	C 	0.71665	0.32993	0.25809	-0.109
Mof_H 	H 	0.7212	0.357	0.2366	0.069
Mof_C 	C 	0.88429	0.40743	0.30763	-0.1
Mof_C 	C 	0.74962	0.32267	0.29752	0.047
Mof_O 	O 	0.64885	0.94758	0.55017	-0.377
Mof_O 	O 	0.7314	0.94845	0.54924	-0.387
Mof_C 	C 	0.69784	0.7947	0.64573	0.03
Mof_C 	C 	0.69069	0.93056	0.56214	0.361
Mof_C 	C 	0.6494	0.86014	0.60708	0.027
Mof_H 	H 	0.6184	0.8737	0.5989	0.041
Mof_C 	C 	0.74125	0.81963	0.63002	-0.096
Mof_H 	H 	0.7725	0.806	0.6371	0.068
Mof_C 	C 	0.65189	0.81543	0.634	-0.094
Mof_H 	H 	0.6226	0.7996	0.6442	0.065
Mof_C 	C 	0.73807	0.8639	0.60425	0.029
Mof_H 	H 	0.7672	0.8803	0.5946	0.044
Mof_C 	C 	0.74191	0.71665	0.67007	-0.113
Mof_H 	H 	0.7634	0.7212	0.643	0.071
Mof_C 	C 	0.69237	0.88429	0.59257	-0.098
Mof_C 	C 	0.70248	0.74962	0.67733	0.05
Mof_O 	O 	0.64885	0.05242	0.44983	-0.421
Mof_O 	O 	0.7314	0.05155	0.45076	-0.431
Mof_C 	C 	0.69784	0.2053	0.35427	0.037
Mof_C 	C 	0.69069	0.06944	0.43786	0.37
Mof_C 	C 	0.6494	0.13986	0.39292	0.036
Mof_H 	H 	0.6184	0.1263	0.4011	0.029
Mof_C 	C 	0.74125	0.18037	0.36998	-0.107
Mof_H 	H 	0.7725	0.194	0.3629	0.071
Mof_C 	C 	0.65189	0.18457	0.366	-0.105
Mof_H 	H 	0.6226	0.2004	0.3558	0.066
Mof_C 	C 	0.73807	0.1361	0.39575	0.039
Mof_H 	H 	0.7672	0.1197	0.4054	0.031
Mof_C 	C 	0.74191	0.28335	0.32993	-0.109
Mof_H 	H 	0.7634	0.2788	0.357	0.07
Mof_C 	C 	0.69237	0.11571	0.40743	-0.118
Mof_C 	C 	0.70248	0.25038	0.32267	0.045
Mof_O 	O 	0.35115	0.05242	0.55017	-0.421
Mof_O 	O 	0.2686	0.05155	0.54924	-0.433
Mof_C 	C 	0.30216	0.2053	0.64573	0.038
Mof_C 	C 	0.30931	0.06944	0.56214	0.371
Mof_C 	C 	0.3506	0.13986	0.60708	0.037
Mof_H 	H 	0.3816	0.1263	0.5989	0.029
Mof_C 	C 	0.25875	0.18037	0.63002	-0.109
Mof_H 	H 	0.2275	0.194	0.6371	0.072
Mof_C 	C 	0.34811	0.18457	0.634	-0.106
Mof_H 	H 	0.3774	0.2004	0.6442	0.067
Mof_C 	C 	0.26193	0.1361	0.60425	0.04
Mof_H 	H 	0.2328	0.1197	0.5946	0.029
Mof_C 	C 	0.25809	0.28335	0.67007	-0.108
Mof_H 	H 	0.2366	0.2788	0.643	0.069
Mof_C 	C 	0.30763	0.11571	0.59257	-0.119
Mof_C 	C 	0.29752	0.25038	0.67733	0.045
Mof_O 	O 	0.35115	0.94758	0.44983	-0.378
Mof_O 	O 	0.2686	0.94845	0.45076	-0.39
Mof_C 	C 	0.30216	0.7947	0.35427	0.032
Mof_C 	C 	0.30931	0.93056	0.43786	0.362
Mof_C 	C 	0.3506	0.86014	0.39292	0.028
Mof_H 	H 	0.3816	0.8737	0.4011	0.04
Mof_C 	C 	0.25875	0.81963	0.36998	-0.099
Mof_H 	H 	0.2275	0.806	0.3629	0.07
Mof_C 	C 	0.34811	0.81543	0.366	-0.096
Mof_H 	H 	0.3774	0.7996	0.3558	0.065
Mof_C 	C 	0.26193	0.8639	0.39575	0.031
Mof_H 	H 	0.2328	0.8803	0.4054	0.041
Mof_C 	C 	0.25809	0.71665	0.32993	-0.109
Mof_H 	H 	0.2366	0.7212	0.357	0.069
Mof_C 	C 	0.30763	0.88429	0.40743	-0.1
Mof_C 	C 	0.29752	0.74962	0.32267	0.047
Mof_O 	O 	0.55017	0.64885	0.94758	-0.377
Mof_O 	O 	0.54924	0.7314	0.94845	-0.387
Mof_C 	C 	0.64573	0.69784	0.7947	0.03
Mof_C 	C 	0.56214	0.69069	0.93056	0.361
Mof_C 	C 	0.60708	0.6494	0.86014	0.027
Mof_H 	H 	0.5989	0.6184	0.8737	0.041
Mof_C 	C 	0.63002	0.74125	0.81963	-0.096
Mof_H 	H 	0.6371	0.7725	0.806	0.068
Mof_C 	C 	0.634	0.65189	0.81543	-0.094
Mof_H 	H 	0.6442	0.6226	0.7996	0.065
Mof_C 	C 	0.60425	0.73807	0.8639	0.029
Mof_H 	H 	0.5946	0.7672	0.8803	0.044
Mof_C 	C 	0.67007	0.74191	0.71665	-0.113
Mof_H 	H 	0.643	0.7634	0.7212	0.071
Mof_C 	C 	0.59257	0.69237	0.88429	-0.098
Mof_C 	C 	0.67733	0.70248	0.74962	0.05
Mof_O 	O 	0.44983	0.64885	0.05242	-0.421
Mof_O 	O 	0.45076	0.7314	0.05155	-0.431
Mof_C 	C 	0.35427	0.69784	0.2053	0.037
Mof_C 	C 	0.43786	0.69069	0.06944	0.37
Mof_C 	C 	0.39292	0.6494	0.13986	0.036
Mof_H 	H 	0.4011	0.6184	0.1263	0.029
Mof_C 	C 	0.36998	0.74125	0.18037	-0.107
Mof_H 	H 	0.3629	0.7725	0.194	0.071
Mof_C 	C 	0.366	0.65189	0.18457	-0.105
Mof_H 	H 	0.3558	0.6226	0.2004	0.066
Mof_C 	C 	0.39575	0.73807	0.1361	0.039
Mof_H 	H 	0.4054	0.7672	0.1197	0.031
Mof_C 	C 	0.32993	0.74191	0.28335	-0.109
Mof_H 	H 	0.357	0.7634	0.2788	0.07
Mof_C 	C 	0.40743	0.69237	0.11571	-0.118
Mof_C 	C 	0.32267	0.70248	0.25038	0.045
Mof_O 	O 	0.55017	0.35115	0.05242	-0.421
Mof_O 	O 	0.54924	0.2686	0.05155	-0.433
Mof_C 	C 	0.64573	0.30216	0.2053	0.038
Mof_C 	C 	0.56214	0.30931	0.06944	0.371
Mof_C 	C 	0.60708	0.3506	0.13986	0.037
Mof_H 	H 	0.5989	0.3816	0.1263	0.029
Mof_C 	C 	0.63002	0.25875	0.18037	-0.109
Mof_H 	H 	0.6371	0.2275	0.194	0.072
Mof_C 	C 	0.634	0.34811	0.18457	-0.106
Mof_H 	H 	0.6442	0.3774	0.2004	0.067
Mof_C 	C 	0.60425	0.26193	0.1361	0.04
Mof_H 	H 	0.5946	0.2328	0.1197	0.029
Mof_C 	C 	0.67007	0.25809	0.28335	-0.108
Mof_H 	H 	0.643	0.2366	0.2788	0.069
Mof_C 	C 	0.59257	0.30763	0.11571	-0.119
Mof_C 	C 	0.67733	0.29752	0.25038	0.045
Mof_O 	O 	0.44983	0.35115	0.94758	-0.378
Mof_O 	O 	0.45076	0.2686	0.94845	-0.39
Mof_C 	C 	0.35427	0.30216	0.7947	0.032
Mof_C 	C 	0.43786	0.30931	0.93056	0.362
Mof_C 	C 	0.39292	0.3506	0.86014	0.028
Mof_H 	H 	0.4011	0.3816	0.8737	0.04
Mof_C 	C 	0.36998	0.25875	0.81963	-0.099
Mof_H 	H 	0.3629	0.2275	0.806	0.07
Mof_C 	C 	0.366	0.34811	0.81543	-0.096
Mof_H 	H 	0.3558	0.3774	0.7996	0.065
Mof_C 	C 	0.39575	0.26193	0.8639	0.031
Mof_H 	H 	0.4054	0.2328	0.8803	0.041
Mof_C 	C 	0.32993	0.25809	0.71665	-0.109
Mof_H 	H 	0.357	0.2366	0.7212	0.069
Mof_C 	C 	0.40743	0.30763	0.88429	-0.1
Mof_C 	C 	0.32267	0.29752	0.74962	0.047
Mof_O 	O 	0.05242	0.44983	0.35115	-0.421
Mof_O 	O 	0.05155	0.45076	0.2686	-0.433
Mof_C 	C 	0.2053	0.35427	0.30216	0.039
Mof_C 	C 	0.06944	0.43786	0.30931	0.371
Mof_C 	C 	0.13986	0.39292	0.3506	0.038
Mof_H 	H 	0.1263	0.4011	0.3816	0.028
Mof_C 	C 	0.18037	0.36998	0.25875	-0.109
Mof_H 	H 	0.194	0.3629	0.2275	0.073
Mof_C 	C 	0.18457	0.366	0.34811	-0.106
Mof_H 	H 	0.2004	0.3558	0.3774	0.067
Mof_C 	C 	0.1361	0.39575	0.26193	0.04
Mof_H 	H 	0.1197	0.4054	0.2328	0.029
Mof_C 	C 	0.28335	0.32993	0.25809	-0.107
Mof_H 	H 	0.2788	0.357	0.2366	0.069
Mof_C 	C 	0.11571	0.40743	0.30763	-0.12
Mof_C 	C 	0.25038	0.32267	0.29752	0.044
Mof_O 	O 	0.94758	0.55017	0.35115	-0.378
Mof_O 	O 	0.94845	0.54924	0.2686	-0.39
Mof_C 	C 	0.7947	0.64573	0.30216	0.032
Mof_C 	C 	0.93056	0.56214	0.30931	0.362
Mof_C 	C 	0.86014	0.60708	0.3506	0.028
Mof_H 	H 	0.8737	0.5989	0.3816	0.04
Mof_C 	C 	0.81963	0.63002	0.25875	-0.098
Mof_H 	H 	0.806	0.6371	0.2275	0.07
Mof_C 	C 	0.81543	0.634	0.34811	-0.096
Mof_H 	H 	0.7996	0.6442	0.3774	0.065
Mof_C 	C 	0.8639	0.60425	0.26193	0.03
Mof_H 	H 	0.8803	0.5946	0.2328	0.042
Mof_C 	C 	0.71665	0.67007	0.25809	-0.111
Mof_H 	H 	0.7212	0.643	0.2366	0.07
Mof_C 	C 	0.88429	0.59257	0.30763	-0.099
Mof_C 	C 	0.74962	0.67733	0.29752	0.049
Mof_O 	O 	0.94758	0.44983	0.64885	-0.378
Mof_O 	O 	0.94845	0.45076	0.7314	-0.387
Mof_C 	C 	0.7947	0.35427	0.69784	0.031
Mof_C 	C 	0.93056	0.43786	0.69069	0.361
Mof_C 	C 	0.86014	0.39292	0.6494	0.027
Mof_H 	H 	0.8737	0.4011	0.6184	0.041
Mof_C 	C 	0.81963	0.36998	0.74125	-0.097
Mof_H 	H 	0.806	0.3629	0.7725	0.069
Mof_C 	C 	0.81543	0.366	0.65189	-0.095
Mof_H 	H 	0.7996	0.3558	0.6226	0.065
Mof_C 	C 	0.8639	0.39575	0.73807	0.029
Mof_H 	H 	0.8803	0.4054	0.7672	0.043
Mof_C 	C 	0.71665	0.32993	0.74191	-0.112
Mof_H 	H 	0.7212	0.357	0.7634	0.071
Mof_C 	C 	0.88429	0.40743	0.69237	-0.098
Mof_C 	C 	0.74962	0.32267	0.70248	0.049
Mof_O 	O 	0.05242	0.55017	0.64885	-0.421
Mof_O 	O 	0.05155	0.54924	0.7314	-0.431
Mof_C 	C 	0.2053	0.64573	0.69784	0.036
Mof_C 	C 	0.06944	0.56214	0.69069	0.37
Mof_C 	C 	0.13986	0.60708	0.6494	0.036
Mof_H 	H 	0.1263	0.5989	0.6184	0.029
Mof_C 	C 	0.18037	0.63002	0.74125	-0.107
Mof_H 	H 	0.194	0.6371	0.7725	0.071
Mof_C 	C 	0.18457	0.634	0.65189	-0.104
Mof_H 	H 	0.2004	0.6442	0.6226	0.066
Mof_C 	C 	0.1361	0.60425	0.73807	0.038
Mof_H 	H 	0.1197	0.5946	0.7672	0.032
Mof_C 	C 	0.28335	0.67007	0.74191	-0.111
Mof_H 	H 	0.2788	0.643	0.7634	0.07
Mof_C 	C 	0.11571	0.59257	0.69237	-0.117
Mof_C 	C 	0.25038	0.67733	0.70248	0.047
Mof_O 	O 	0.35115	0.05242	0.44983	-0.421
Mof_O 	O 	0.2686	0.05155	0.45076	-0.433
Mof_C 	C 	0.30216	0.2053	0.35427	0.039
Mof_C 	C 	0.30931	0.06944	0.43786	0.371
Mof_C 	C 	0.3506	0.13986	0.39292	0.038
Mof_H 	H 	0.3816	0.1263	0.4011	0.028
Mof_C 	C 	0.25875	0.18037	0.36998	-0.109
Mof_H 	H 	0.2275	0.194	0.3629	0.073
Mof_C 	C 	0.34811	0.18457	0.366	-0.106
Mof_H 	H 	0.3774	0.2004	0.3558	0.067
Mof_C 	C 	0.26193	0.1361	0.39575	0.04
Mof_H 	H 	0.2328	0.1197	0.4054	0.029
Mof_C 	C 	0.25809	0.28335	0.32993	-0.107
Mof_H 	H 	0.2366	0.2788	0.357	0.069
Mof_C 	C 	0.30763	0.11571	0.40743	-0.12
Mof_C 	C 	0.29752	0.25038	0.32267	0.044
Mof_O 	O 	0.35115	0.94758	0.55017	-0.378
Mof_O 	O 	0.2686	0.94845	0.54924	-0.39
Mof_C 	C 	0.30216	0.7947	0.64573	0.032
Mof_C 	C 	0.30931	0.93056	0.56214	0.362
Mof_C 	C 	0.3506	0.86014	0.60708	0.028
Mof_H 	H 	0.3816	0.8737	0.5989	0.04
Mof_C 	C 	0.25875	0.81963	0.63002	-0.098
Mof_H 	H 	0.2275	0.806	0.6371	0.07
Mof_C 	C 	0.34811	0.81543	0.634	-0.096
Mof_H 	H 	0.3774	0.7996	0.6442	0.065
Mof_C 	C 	0.26193	0.8639	0.60425	0.03
Mof_H 	H 	0.2328	0.8803	0.5946	0.042
Mof_C 	C 	0.25809	0.71665	0.67007	-0.111
Mof_H 	H 	0.2366	0.7212	0.643	0.07
Mof_C 	C 	0.30763	0.88429	0.59257	-0.099
Mof_C 	C 	0.29752	0.74962	0.67733	0.049
Mof_O 	O 	0.64885	0.94758	0.44983	-0.378
Mof_O 	O 	0.7314	0.94845	0.45076	-0.387
Mof_C 	C 	0.69784	0.7947	0.35427	0.031
Mof_C 	C 	0.69069	0.93056	0.43786	0.361
Mof_C 	C 	0.6494	0.86014	0.39292	0.027
Mof_H 	H 	0.6184	0.8737	0.4011	0.041
Mof_C 	C 	0.74125	0.81963	0.36998	-0.097
Mof_H 	H 	0.7725	0.806	0.3629	0.069
Mof_C 	C 	0.65189	0.81543	0.366	-0.095
Mof_H 	H 	0.6226	0.7996	0.3558	0.065
Mof_C 	C 	0.73807	0.8639	0.39575	0.029
Mof_H 	H 	0.7672	0.8803	0.4054	0.043
Mof_C 	C 	0.74191	0.71665	0.32993	-0.112
Mof_H 	H 	0.7634	0.7212	0.357	0.071
Mof_C 	C 	0.69237	0.88429	0.40743	-0.098
Mof_C 	C 	0.70248	0.74962	0.32267	0.049
Mof_O 	O 	0.64885	0.05242	0.55017	-0.421
Mof_O 	O 	0.7314	0.05155	0.54924	-0.431
Mof_C 	C 	0.69784	0.2053	0.64573	0.036
Mof_C 	C 	0.69069	0.06944	0.56214	0.37
Mof_C 	C 	0.6494	0.13986	0.60708	0.036
Mof_H 	H 	0.6184	0.1263	0.5989	0.029
Mof_C 	C 	0.74125	0.18037	0.63002	-0.107
Mof_H 	H 	0.7725	0.194	0.6371	0.071
Mof_C 	C 	0.65189	0.18457	0.634	-0.104
Mof_H 	H 	0.6226	0.2004	0.6442	0.066
Mof_C 	C 	0.73807	0.1361	0.60425	0.038
Mof_H 	H 	0.7672	0.1197	0.5946	0.032
Mof_C 	C 	0.74191	0.28335	0.67007	-0.111
Mof_H 	H 	0.7634	0.2788	0.643	0.07
Mof_C 	C 	0.69237	0.11571	0.59257	-0.117
Mof_C 	C 	0.70248	0.25038	0.67733	0.047
Mof_O 	O 	0.44983	0.35115	0.05242	-0.421
Mof_O 	O 	0.45076	0.2686	0.05155	-0.433
Mof_C 	C 	0.35427	0.30216	0.2053	0.039
Mof_C 	C 	0.43786	0.30931	0.06944	0.371
Mof_C 	C 	0.39292	0.3506	0.13986	0.038
Mof_H 	H 	0.4011	0.3816	0.1263	0.028
Mof_C 	C 	0.36998	0.25875	0.18037	-0.109
Mof_H 	H 	0.3629	0.2275	0.194	0.073
Mof_C 	C 	0.366	0.34811	0.18457	-0.106
Mof_H 	H 	0.3558	0.3774	0.2004	0.067
Mof_C 	C 	0.39575	0.26193	0.1361	0.04
Mof_H 	H 	0.4054	0.2328	0.1197	0.029
Mof_C 	C 	0.32993	0.25809	0.28335	-0.107
Mof_H 	H 	0.357	0.2366	0.2788	0.069
Mof_C 	C 	0.40743	0.30763	0.11571	-0.12
Mof_C 	C 	0.32267	0.29752	0.25038	0.044
Mof_O 	O 	0.55017	0.35115	0.94758	-0.378
Mof_O 	O 	0.54924	0.2686	0.94845	-0.39
Mof_C 	C 	0.64573	0.30216	0.7947	0.032
Mof_C 	C 	0.56214	0.30931	0.93056	0.362
Mof_C 	C 	0.60708	0.3506	0.86014	0.028
Mof_H 	H 	0.5989	0.3816	0.8737	0.04
Mof_C 	C 	0.63002	0.25875	0.81963	-0.098
Mof_H 	H 	0.6371	0.2275	0.806	0.07
Mof_C 	C 	0.634	0.34811	0.81543	-0.096
Mof_H 	H 	0.6442	0.3774	0.7996	0.065
Mof_C 	C 	0.60425	0.26193	0.8639	0.03
Mof_H 	H 	0.5946	0.2328	0.8803	0.042
Mof_C 	C 	0.67007	0.25809	0.71665	-0.111
Mof_H 	H 	0.643	0.2366	0.7212	0.07
Mof_C 	C 	0.59257	0.30763	0.88429	-0.099
Mof_C 	C 	0.67733	0.29752	0.74962	0.049
Mof_O 	O 	0.44983	0.64885	0.94758	-0.378
Mof_O 	O 	0.45076	0.7314	0.94845	-0.387
Mof_C 	C 	0.35427	0.69784	0.7947	0.031
Mof_C 	C 	0.43786	0.69069	0.93056	0.361
Mof_C 	C 	0.39292	0.6494	0.86014	0.027
Mof_H 	H 	0.4011	0.6184	0.8737	0.041
Mof_C 	C 	0.36998	0.74125	0.81963	-0.097
Mof_H 	H 	0.3629	0.7725	0.806	0.069
Mof_C 	C 	0.366	0.65189	0.81543	-0.095
Mof_H 	H 	0.3558	0.6226	0.7996	0.065
Mof_C 	C 	0.39575	0.73807	0.8639	0.029
Mof_H 	H 	0.4054	0.7672	0.8803	0.043
Mof_C 	C 	0.32993	0.74191	0.71665	-0.112
Mof_H 	H 	0.357	0.7634	0.7212	0.071
Mof_C 	C 	0.40743	0.69237	0.88429	-0.098
Mof_C 	C 	0.32267	0.70248	0.74962	0.049
Mof_O 	O 	0.55017	0.64885	0.05242	-0.421
Mof_O 	O 	0.54924	0.7314	0.05155	-0.431
Mof_C 	C 	0.64573	0.69784	0.2053	0.036
Mof_C 	C 	0.56214	0.69069	0.06944	0.37
Mof_C 	C 	0.60708	0.6494	0.13986	0.036
Mof_H 	H 	0.5989	0.6184	0.1263	0.029
Mof_C 	C 	0.63002	0.74125	0.18037	-0.107
Mof_H 	H 	0.6371	0.7725	0.194	0.071
Mof_C 	C 	0.634	0.65189	0.18457	-0.104
Mof_H 	H 	0.6442	0.6226	0.2004	0.066
Mof_C 	C 	0.60425	0.73807	0.1361	0.038
Mof_H 	H 	0.5946	0.7672	0.1197	0.032
Mof_C 	C 	0.67007	0.74191	0.28335	-0.111
Mof_H 	H 	0.643	0.7634	0.2788	0.07
Mof_C 	C 	0.59257	0.69237	0.11571	-0.117
Mof_C 	C 	0.67733	0.70248	0.25038	0.047
Mof_Cu	Cu	2.41596e-33	0.5	0.64436	0.877
Mof_Cu	Cu	-2.36552e-33	0.5	0.74021	0.882
Mof_Cu	Cu	-3.80743e-33	0.5	0.35564	0.877
Mof_Cu	Cu	-4.16681e-33	0.5	0.25979	0.881
Mof_Cu	Cu	0.64436	0	0.5	0.877
Mof_Cu	Cu	0.74021	0	0.5	0.882
Mof_Cu	Cu	0.35564	0	0.5	0.877
Mof_Cu	Cu	0.25979	0	0.5	0.881
Mof_Cu	Cu	0.5	0.64436	-0	0.877
Mof_Cu	Cu	0.5	0.74021	-0	0.882
Mof_Cu	Cu	0.5	0.35564	-0	0.877
Mof_Cu	Cu	0.5	0.25979	-0	0.881
_end
