data_functionalizedCrystal
_audit_creation_method	'EQeq! by Chris Wilmer'
_symmetry_space_group_name_H-M	'P1'
_symmetry_Int_Tables_number	1
_symmetry_cell_setting	triclinic
loop_
_symmetry_equiv_pos_as_xyz
  x,y,z
_cell_length_a	11.195
_cell_length_b	12.757
_cell_length_c	13.508
_cell_angle_alpha	90
_cell_angle_beta	90
_cell_angle_gamma	90
loop_
_atom_site_label
_atom_site_type_symbol
_atom_site_fract_x
_atom_site_fract_y
_atom_site_fract_z
_atom_site_charge
Mof_N 	N 	0.6354	0.3862	0.2049	-0.229
Mof_C 	C 	0.5645	0.4427	0.1782	0.13
Mof_C 	C 	0.4787	0.516	0.1416	-0.242
Mof_H 	H 	0.4798	0.5785	0.1824	0.08
Mof_H 	H 	0.3995	0.4855	0.1456	0.085
Mof_C 	C 	0.506	0.5453	0.0351	-0.026
Mof_H 	H 	0.4511	0.6003	0.0146	0.02
Mof_H 	H 	0.5861	0.573	0.0313	0.021
Mof_C 	C 	0.4481	0.4988	0.0348	-0.014
Mof_H 	H 	0.4086	0.4314	0.0285	0.007
Mof_H 	H 	0.3914	0.5522	0.0146	0.014
Mof_N 	N 	0.8549	0.2937	0.3848	-0.237
Mof_C 	C 	0.9129	0.3205	0.4465	0.141
Mof_C 	C 	0.9865	0.3544	0.526	-0.249
Mof_H 	H 	0.0489	0.3025	0.5354	0.085
Mof_H 	H 	0.9384	0.3551	0.5858	0.082
Mof_C 	C 	0.0445	0.4593	0.5158	-0.03
Mof_H 	H 	0.1082	0.4552	0.4673	0.023
Mof_H 	H 	0.0794	0.4796	0.5787	0.021
Mof_C 	C 	0.9713	0.4711	0.5425	-0.006
Mof_H 	H 	0.887	0.4884	0.546	0.005
Mof_H 	H 	0.0085	0.4914	0.6044	0.01
Mof_N 	N 	0.6354	0.1138	0.2951	-0.23
Mof_C 	C 	0.5645	0.0573	0.3218	0.129
Mof_C 	C 	0.4787	0.984	0.3584	-0.242
Mof_H 	H 	0.4798	0.9215	0.3176	0.079
Mof_H 	H 	0.3995	0.0145	0.3544	0.083
Mof_C 	C 	0.506	0.9547	0.4649	-0.028
Mof_H 	H 	0.4511	0.8997	0.4854	0.02
Mof_H 	H 	0.5861	0.927	0.4687	0.022
Mof_C 	C 	0.4481	0.0012	0.4652	-0.014
Mof_H 	H 	0.4086	0.0686	0.4715	0.007
Mof_H 	H 	0.3914	0.9478	0.4854	0.014
Mof_N 	N 	0.8549	0.2063	0.1152	-0.237
Mof_C 	C 	0.9129	0.1795	0.0535	0.139
Mof_C 	C 	0.9865	0.1456	0.974	-0.243
Mof_H 	H 	0.0489	0.1975	0.9646	0.082
Mof_H 	H 	0.9384	0.1449	0.9142	0.081
Mof_C 	C 	0.0445	0.0407	0.9842	-0.021
Mof_H 	H 	0.1082	0.0448	0.0327	0.018
Mof_H 	H 	0.0794	0.0204	0.9213	0.017
Mof_C 	C 	0.9713	0.0289	0.9575	-0.016
Mof_H 	H 	0.887	0.0116	0.954	0.011
Mof_H 	H 	0.0085	0.0086	0.8956	0.011
Mof_N 	N 	0.3646	0.6138	0.7951	-0.23
Mof_C 	C 	0.4355	0.5573	0.8218	0.129
Mof_C 	C 	0.5213	0.484	0.8584	-0.243
Mof_H 	H 	0.5202	0.4215	0.8176	0.079
Mof_H 	H 	0.6005	0.5145	0.8544	0.084
Mof_C 	C 	0.494	0.4547	0.9649	-0.027
Mof_H 	H 	0.5489	0.3997	0.9854	0.02
Mof_H 	H 	0.4139	0.427	0.9687	0.021
Mof_C 	C 	0.5519	0.5012	0.9652	-0.014
Mof_H 	H 	0.5914	0.5686	0.9715	0.007
Mof_H 	H 	0.6086	0.4478	0.9854	0.014
Mof_N 	N 	0.1451	0.7063	0.6152	-0.237
Mof_C 	C 	0.0871	0.6795	0.5535	0.141
Mof_C 	C 	0.0135	0.6456	0.474	-0.249
Mof_H 	H 	0.9511	0.6975	0.4646	0.085
Mof_H 	H 	0.0616	0.6449	0.4142	0.082
Mof_C 	C 	0.9555	0.5407	0.4842	-0.03
Mof_H 	H 	0.8918	0.5448	0.5327	0.023
Mof_H 	H 	0.9206	0.5204	0.4213	0.021
Mof_C 	C 	0.0287	0.5289	0.4575	-0.006
Mof_H 	H 	0.113	0.5116	0.454	0.005
Mof_H 	H 	0.9915	0.5086	0.3956	0.01
Mof_N 	N 	0.3646	0.8862	0.7049	-0.23
Mof_C 	C 	0.4355	0.9427	0.6782	0.129
Mof_C 	C 	0.5213	0.016	0.6416	-0.242
Mof_H 	H 	0.5202	0.0785	0.6824	0.079
Mof_H 	H 	0.6005	0.9855	0.6456	0.083
Mof_C 	C 	0.494	0.0453	0.5351	-0.028
Mof_H 	H 	0.5489	0.1003	0.5146	0.02
Mof_H 	H 	0.4139	0.073	0.5313	0.022
Mof_C 	C 	0.5519	0.9988	0.5348	-0.014
Mof_H 	H 	0.5914	0.9314	0.5285	0.007
Mof_H 	H 	0.6086	0.0522	0.5146	0.014
Mof_N 	N 	0.1451	0.7937	0.8848	-0.237
Mof_C 	C 	0.0871	0.8205	0.9465	0.139
Mof_C 	C 	0.0135	0.8544	0.026	-0.243
Mof_H 	H 	0.9511	0.8025	0.0354	0.082
Mof_H 	H 	0.0616	0.8551	0.0858	0.081
Mof_C 	C 	0.9555	0.9593	0.0158	-0.021
Mof_H 	H 	0.8918	0.9552	0.9673	0.018
Mof_H 	H 	0.9206	0.9796	0.0787	0.017
Mof_C 	C 	0.0287	0.9711	0.0425	-0.016
Mof_H 	H 	0.113	0.9884	0.046	0.011
Mof_H 	H 	0.9915	0.9914	0.1044	0.011
Mof_Ag	Ag	0.75139	0.25	0.25	0.63
Mof_Ag	Ag	0.24861	0.75	0.75	0.63
Mof_N 	N 	0.8646	0.3862	0.7951	-0.23
Mof_C 	C 	0.9355	0.4427	0.8218	0.131
Mof_C 	C 	0.0213	0.516	0.8584	-0.245
Mof_H 	H 	0.0202	0.5785	0.8176	0.08
Mof_H 	H 	0.1005	0.4855	0.8544	0.084
Mof_C 	C 	0.994	0.5453	0.9649	-0.029
Mof_H 	H 	0.0489	0.6003	0.9854	0.02
Mof_H 	H 	0.9139	0.573	0.9687	0.023
Mof_C 	C 	0.0519	0.4988	0.9652	-0.012
Mof_H 	H 	0.0914	0.4314	0.9715	0.005
Mof_H 	H 	0.1086	0.5522	0.9854	0.013
Mof_N 	N 	0.6451	0.2937	0.6152	-0.238
Mof_C 	C 	0.5871	0.3205	0.5535	0.142
Mof_C 	C 	0.5135	0.3544	0.474	-0.252
Mof_H 	H 	0.4511	0.3025	0.4646	0.086
Mof_H 	H 	0.5616	0.3551	0.4142	0.083
Mof_C 	C 	0.4555	0.4593	0.4842	-0.03
Mof_H 	H 	0.3918	0.4552	0.5327	0.023
Mof_H 	H 	0.4206	0.4796	0.4213	0.021
Mof_C 	C 	0.5287	0.4711	0.4575	-0.005
Mof_H 	H 	0.613	0.4884	0.454	0.005
Mof_H 	H 	0.4915	0.4914	0.3956	0.009
Mof_N 	N 	0.8646	0.1138	0.7049	-0.229
Mof_C 	C 	0.9355	0.0573	0.6782	0.128
Mof_C 	C 	0.0213	0.984	0.6416	-0.234
Mof_H 	H 	0.0202	0.9215	0.6824	0.077
Mof_H 	H 	0.1005	0.0145	0.6456	0.08
Mof_C 	C 	0.994	0.9547	0.5351	-0.029
Mof_H 	H 	0.0489	0.8997	0.5146	0.021
Mof_H 	H 	0.9139	0.927	0.5313	0.021
Mof_C 	C 	0.0519	0.0012	0.5348	-0.017
Mof_H 	H 	0.0914	0.0686	0.5285	0.008
Mof_H 	H 	0.1086	0.9478	0.5146	0.016
Mof_N 	N 	0.6451	0.2063	0.8848	-0.238
Mof_C 	C 	0.5871	0.1795	0.9465	0.142
Mof_C 	C 	0.5135	0.1456	0.026	-0.252
Mof_H 	H 	0.4511	0.1975	0.0354	0.086
Mof_H 	H 	0.5616	0.1449	0.0858	0.083
Mof_C 	C 	0.4555	0.0407	0.0158	-0.031
Mof_H 	H 	0.3918	0.0448	0.9673	0.023
Mof_H 	H 	0.4206	0.0204	0.0787	0.021
Mof_C 	C 	0.5287	0.0289	0.0425	-0.004
Mof_H 	H 	0.613	0.0116	0.046	0.005
Mof_H 	H 	0.4915	0.0086	0.1044	0.009
Mof_N 	N 	0.1354	0.6138	0.2049	-0.23
Mof_C 	C 	0.0645	0.5573	0.1782	0.131
Mof_C 	C 	0.9787	0.484	0.1416	-0.245
Mof_H 	H 	0.9798	0.4215	0.1824	0.08
Mof_H 	H 	0.8995	0.5145	0.1456	0.084
Mof_C 	C 	0.006	0.4547	0.0351	-0.029
Mof_H 	H 	0.9511	0.3997	0.0146	0.02
Mof_H 	H 	0.0861	0.427	0.0313	0.023
Mof_C 	C 	0.9481	0.5012	0.0348	-0.012
Mof_H 	H 	0.9086	0.5686	0.0285	0.005
Mof_H 	H 	0.8914	0.4478	0.0146	0.013
Mof_N 	N 	0.3549	0.7063	0.3848	-0.238
Mof_C 	C 	0.4129	0.6795	0.4465	0.142
Mof_C 	C 	0.4865	0.6456	0.526	-0.252
Mof_H 	H 	0.5489	0.6975	0.5354	0.086
Mof_H 	H 	0.4384	0.6449	0.5858	0.083
Mof_C 	C 	0.5445	0.5407	0.5158	-0.03
Mof_H 	H 	0.6082	0.5448	0.4673	0.023
Mof_H 	H 	0.5794	0.5204	0.5787	0.021
Mof_C 	C 	0.4713	0.5289	0.5425	-0.005
Mof_H 	H 	0.387	0.5116	0.546	0.005
Mof_H 	H 	0.5085	0.5086	0.6044	0.009
Mof_N 	N 	0.1354	0.8862	0.2951	-0.229
Mof_C 	C 	0.0645	0.9427	0.3218	0.128
Mof_C 	C 	0.9787	0.016	0.3584	-0.234
Mof_H 	H 	0.9798	0.0785	0.3176	0.077
Mof_H 	H 	0.8995	0.9855	0.3544	0.08
Mof_C 	C 	0.006	0.0453	0.4649	-0.029
Mof_H 	H 	0.9511	0.1003	0.4854	0.021
Mof_H 	H 	0.0861	0.073	0.4687	0.021
Mof_C 	C 	0.9481	0.9988	0.4652	-0.017
Mof_H 	H 	0.9086	0.9314	0.4715	0.008
Mof_H 	H 	0.8914	0.0522	0.4854	0.016
Mof_N 	N 	0.3549	0.7937	0.1152	-0.238
Mof_C 	C 	0.4129	0.8205	0.0535	0.142
Mof_C 	C 	0.4865	0.8544	0.974	-0.252
Mof_H 	H 	0.5489	0.8025	0.9646	0.086
Mof_H 	H 	0.4384	0.8551	0.9142	0.083
Mof_C 	C 	0.5445	0.9593	0.9842	-0.031
Mof_H 	H 	0.6082	0.9552	0.0327	0.023
Mof_H 	H 	0.5794	0.9796	0.9213	0.021
Mof_C 	C 	0.4713	0.9711	0.9575	-0.004
Mof_H 	H 	0.387	0.9884	0.954	0.005
Mof_H 	H 	0.5085	0.9914	0.8956	0.009
Mof_Ag	Ag	0.74861	0.25	0.75	0.63
Mof_Ag	Ag	0.25139	0.75	0.25	0.63
_end
