# CIF file generated by openbabel 3.1.0, see https://openbabel.org
data_I
_chemical_name_common 'image0'
_cell_length_a 16.2078
_cell_length_b 8.7082
_cell_length_c 20.8775
_cell_angle_alpha 90
_cell_angle_beta 94.748
_cell_angle_gamma 90
_space_group_name_H-M_alt 'P 1'
_space_group_name_Hall 'P 1'
loop_
    _symmetry_equiv_pos_as_xyz
    x,y,z
loop_
    _atom_site_label
    _atom_site_type_symbol
    _atom_site_fract_x
    _atom_site_fract_y
    _atom_site_fract_z
    _atom_site_occupancy
    Dy1      Dy       0.24272    0.22225    0.71269    1.000
    O1       O        0.12760    0.35810    0.66270    1.000
    O2       O        0.36740    0.32260    0.74880    1.000
    O3       O        0.17930    0.53960    0.83890    1.000
    O4       O        0.17850    0.30150    0.80100    1.000
    O5       O        0.36210    0.54730    0.79940    1.000
    O6       O        0.21290    0.53550    0.70540    1.000
    N1       N        0.98520    0.93420    0.49950    1.000
    N2       N        0.75570    0.45800    0.84110    1.000
    N3       N        0.78380    0.36090    0.81090    1.000
    C1       C        0.15280    0.49480    0.66540    1.000
    C2       C        0.11100    0.61040    0.62050    1.000
    C3       C        0.14880    0.75090    0.60980    1.000
    H1       H        0.20080    0.77180    0.63010    1.000
    C4       C        0.11030    0.85900    0.56980    1.000
    H2       H        0.13580    0.95280    0.56340    1.000
    C5       C        0.03220    0.82640    0.53870    1.000
    C6       C        0.99550    0.68240    0.54730    1.000
    H3       H        0.94430    0.65980    0.52580    1.000
    C7       C        0.03490    0.57470    0.58720    1.000
    H4       H        0.01100    0.47870    0.59210    1.000
    C8       C        0.39990    0.43390    0.78070    1.000
    C9       C        0.49220    0.42600    0.79740    1.000
    C10      C        0.53090    0.53880    0.83710    1.000
    H5       H        0.49920    0.61460    0.85460    1.000
    C11      C        0.61650    0.53850    0.85060    1.000
    H6       H        0.64200    0.61210    0.87780    1.000
    C12      C        0.66180    0.42990    0.82380    1.000
    C13      C        0.62580    0.31250    0.78600    1.000
    H7       H        0.65800    0.23560    0.76980    1.000
    C14      C        0.53860    0.31330    0.77290    1.000
    H8       H        0.51300    0.23660    0.74740    1.000
    C15      C        0.14330    0.41730    0.82220    1.000
    C16      C        0.05160    0.40730    0.82610    1.000
    C17      C        0.00980    0.51810    0.85920    1.000
    H9       H        0.03860    0.59520    0.88240    1.000
    C18      C        0.92140    0.51000    0.85660    1.000
    H10      H        0.89220    0.58350    0.87780    1.000
    C19      C        0.87970    0.39520    0.82330    1.000
    C20      C        0.92160    0.28860    0.79260    1.000
    H11      H        0.89260    0.20990    0.77070    1.000
    C21      C        0.00790    0.29330    0.79290    1.000
    H12      H        0.03560    0.21930    0.77070    1.000
    Dy2      Dy       0.25728    0.72225    0.78731    1.000
    O7       O        0.37240    0.85810    0.83730    1.000
    O8       O        0.13260    0.82260    0.75120    1.000
    O9       O        0.32070    0.03960    0.66110    1.000
    O10      O        0.32150    0.80150    0.69900    1.000
    O11      O        0.13790    0.04730    0.70060    1.000
    O12      O        0.28710    0.03550    0.79460    1.000
    N4       N        0.51480    0.43420    0.00050    1.000
    N5       N        0.74430    0.95800    0.65890    1.000
    N6       N        0.71620    0.86090    0.68910    1.000
    C22      C        0.34720    0.99480    0.83460    1.000
    C23      C        0.38900    0.11040    0.87950    1.000
    C24      C        0.35120    0.25090    0.89020    1.000
    H13      H        0.29920    0.27180    0.86990    1.000
    C25      C        0.38970    0.35900    0.93020    1.000
    H14      H        0.36420    0.45280    0.93660    1.000
    C26      C        0.46780    0.32640    0.96130    1.000
    C27      C        0.50450    0.18240    0.95270    1.000
    H15      H        0.55570    0.15980    0.97420    1.000
    C28      C        0.46510    0.07470    0.91280    1.000
    H16      H        0.48900    0.97870    0.90790    1.000
    C29      C        0.10010    0.93390    0.71930    1.000
    C30      C        0.00780    0.92600    0.70260    1.000
    C31      C        0.96910    0.03880    0.66290    1.000
    H17      H        0.00080    0.11460    0.64540    1.000
    C32      C        0.88350    0.03850    0.64940    1.000
    H18      H        0.85800    0.11210    0.62220    1.000
    C33      C        0.83820    0.92990    0.67620    1.000
    C34      C        0.87420    0.81250    0.71400    1.000
    H19      H        0.84200    0.73560    0.73020    1.000
    C35      C        0.96140    0.81330    0.72710    1.000
    H20      H        0.98700    0.73660    0.75260    1.000
    C36      C        0.35670    0.91730    0.67780    1.000
    C37      C        0.44840    0.90730    0.67390    1.000
    C38      C        0.49020    0.01810    0.64080    1.000
    H21      H        0.46140    0.09520    0.61760    1.000
    C39      C        0.57860    0.01000    0.64340    1.000
    H22      H        0.60780    0.08350    0.62220    1.000
    C40      C        0.62030    0.89520    0.67670    1.000
    C41      C        0.57840    0.78860    0.70740    1.000
    H23      H        0.60740    0.70990    0.72930    1.000
    C42      C        0.49210    0.79330    0.70710    1.000
    H24      H        0.46440    0.71930    0.72930    1.000
    Dy3      Dy       0.75728    0.77775    0.28731    1.000
    O13      O        0.87240    0.64190    0.33730    1.000
    O14      O        0.63260    0.67740    0.25120    1.000
    O15      O        0.82070    0.46040    0.16110    1.000
    O16      O        0.82150    0.69850    0.19900    1.000
    O17      O        0.63790    0.45270    0.20060    1.000
    O18      O        0.78710    0.46450    0.29460    1.000
    N7       N        0.01480    0.06580    0.50050    1.000
    N8       N        0.24430    0.54200    0.15890    1.000
    N9       N        0.21620    0.63910    0.18910    1.000
    C43      C        0.84720    0.50520    0.33460    1.000
    C44      C        0.88900    0.38960    0.37950    1.000
    C45      C        0.85120    0.24910    0.39020    1.000
    H25      H        0.79920    0.22820    0.36990    1.000
    C46      C        0.88970    0.14100    0.43020    1.000
    H26      H        0.86420    0.04720    0.43660    1.000
    C47      C        0.96780    0.17360    0.46130    1.000
    C48      C        0.00450    0.31760    0.45270    1.000
    H27      H        0.05570    0.34020    0.47420    1.000
    C49      C        0.96510    0.42530    0.41280    1.000
    H28      H        0.98900    0.52130    0.40790    1.000
    C50      C        0.60010    0.56610    0.21930    1.000
    C51      C        0.50780    0.57400    0.20260    1.000
    C52      C        0.46910    0.46120    0.16290    1.000
    H29      H        0.50080    0.38540    0.14540    1.000
    C53      C        0.38350    0.46150    0.14940    1.000
    H30      H        0.35800    0.38790    0.12220    1.000
    C54      C        0.33820    0.57010    0.17620    1.000
    C55      C        0.37420    0.68750    0.21400    1.000
    H31      H        0.34200    0.76440    0.23020    1.000
    C56      C        0.46140    0.68670    0.22710    1.000
    H32      H        0.48700    0.76340    0.25260    1.000
    C57      C        0.85670    0.58270    0.17780    1.000
    C58      C        0.94840    0.59270    0.17390    1.000
    C59      C        0.99020    0.48190    0.14080    1.000
    H33      H        0.96140    0.40480    0.11760    1.000
    C60      C        0.07860    0.49000    0.14340    1.000
    H34      H        0.10780    0.41650    0.12220    1.000
    C61      C        0.12030    0.60480    0.17670    1.000
    C62      C        0.07840    0.71140    0.20740    1.000
    H35      H        0.10740    0.79010    0.22930    1.000
    C63      C        0.99210    0.70670    0.20710    1.000
    H36      H        0.96440    0.78070    0.22930    1.000
    Dy4      Dy       0.74272    0.27775    0.21269    1.000
    O19      O        0.62760    0.14190    0.16270    1.000
    O20      O        0.86740    0.17740    0.24880    1.000
    O21      O        0.67930    0.96040    0.33890    1.000
    O22      O        0.67850    0.19850    0.30100    1.000
    O23      O        0.86210    0.95270    0.29940    1.000
    O24      O        0.71290    0.96450    0.20540    1.000
    N10      N        0.48520    0.56580    0.99950    1.000
    N11      N        0.25570    0.04200    0.34110    1.000
    N12      N        0.28380    0.13910    0.31090    1.000
    C64      C        0.65280    0.00520    0.16540    1.000
    C65      C        0.61100    0.88960    0.12050    1.000
    C66      C        0.64880    0.74910    0.10980    1.000
    H37      H        0.70080    0.72820    0.13010    1.000
    C67      C        0.61030    0.64100    0.06980    1.000
    H38      H        0.63580    0.54720    0.06340    1.000
    C68      C        0.53220    0.67360    0.03870    1.000
    C69      C        0.49550    0.81760    0.04730    1.000
    H39      H        0.44430    0.84020    0.02580    1.000
    C70      C        0.53490    0.92530    0.08720    1.000
    H40      H        0.51100    0.02130    0.09210    1.000
    C71      C        0.89990    0.06610    0.28070    1.000
    C72      C        0.99220    0.07400    0.29740    1.000
    C73      C        0.03090    0.96120    0.33710    1.000
    H41      H        0.99920    0.88540    0.35460    1.000
    C74      C        0.11650    0.96150    0.35060    1.000
    H42      H        0.14200    0.88790    0.37780    1.000
    C75      C        0.16180    0.07010    0.32380    1.000
    C76      C        0.12580    0.18750    0.28600    1.000
    H43      H        0.15800    0.26440    0.26980    1.000
    C77      C        0.03860    0.18670    0.27290    1.000
    H44      H        0.01300    0.26340    0.24740    1.000
    C78      C        0.64330    0.08270    0.32220    1.000
    C79      C        0.55160    0.09270    0.32610    1.000
    C80      C        0.50980    0.98190    0.35920    1.000
    H45      H        0.53860    0.90480    0.38240    1.000
    C81      C        0.42140    0.99000    0.35660    1.000
    H46      H        0.39220    0.91650    0.37780    1.000
    C82      C        0.37970    0.10480    0.32330    1.000
    C83      C        0.42160    0.21140    0.29260    1.000
    H47      H        0.39260    0.29010    0.27070    1.000
    C84      C        0.50790    0.20670    0.29290    1.000
    H48      H        0.53560    0.28070    0.27070    1.000
