data_functionalizedCrystal
_audit_creation_method	'EQeq! by Chris Wilmer'
_symmetry_space_group_name_H-M	'P1'
_symmetry_Int_Tables_number	1
_symmetry_cell_setting	triclinic
loop_
_symmetry_equiv_pos_as_xyz
  x,y,z
_cell_length_a	16.4025
_cell_length_b	16.4025
_cell_length_c	25.4701
_cell_angle_alpha	90
_cell_angle_beta	90
_cell_angle_gamma	120
loop_
_atom_site_label
_atom_site_type_symbol
_atom_site_fract_x
_atom_site_fract_y
_atom_site_fract_z
_atom_site_charge
Mof_Zn	Zn	0.57628	0.28814	0.83333	1.208
Mof_Zn	Zn	0.71186	0.42372	0.16667	1.208
Mof_Zn	Zn	0.71186	0.28814	0.5	1.208
Mof_Zn	Zn	0.42372	0.71186	0.83333	1.208
Mof_Zn	Zn	0.28814	0.57628	0.16667	1.209
Mof_Zn	Zn	0.28814	0.71186	0.5	1.209
Mof_H 	H 	0.3594	0.4143	0.7992	0.122
Mof_H 	H 	0.2879	0.4596	0.8625	0.158
Mof_H 	H 	0.4576	0.3585	0.7795	-0.025
Mof_H 	H 	0.5034	0.3316	0.9264	-0.004
Mof_H 	H 	0.4033	0.3864	0.9536	0.142
Mof_H 	H 	0.1769	0.4698	0.8625	0.029
Mof_H 	H 	0.177	0.463	0.0166	0.026
Mof_H 	H 	0.7732	0.1725	0.9232	0.023
Mof_H 	H 	0.0549	0.6406	0.13253	0.122
Mof_H 	H 	0.1717	0.7121	0.19583	0.158
Mof_H 	H 	0.9009	0.5424	0.11283	-0.025
Mof_H 	H 	0.8282	0.4966	0.25973	-0.004
Mof_H 	H 	0.9831	0.5967	0.28693	0.141
Mof_H 	H 	0.2929	0.8231	0.19583	0.03
Mof_H 	H 	0.286	0.823	0.34993	0.03
Mof_H 	H 	0.3993	0.2268	0.25653	0.024
Mof_H 	H 	0.5857	0.9451	0.46587	0.122
Mof_H 	H 	0.5404	0.8283	0.52917	0.158
Mof_H 	H 	0.6415	0.0991	0.44617	-0.025
Mof_H 	H 	0.6684	0.1718	0.59307	-0.004
Mof_H 	H 	0.6136	0.0169	0.62027	0.141
Mof_H 	H 	0.5302	0.7071	0.52917	0.03
Mof_H 	H 	0.537	0.714	0.68327	0.03
Mof_H 	H 	0.8275	0.6007	0.58987	0.024
Mof_H 	H 	0.6406	0.5857	0.7992	0.122
Mof_H 	H 	0.7121	0.5404	0.8625	0.158
Mof_H 	H 	0.5424	0.6415	0.7795	-0.025
Mof_H 	H 	0.4966	0.6684	0.9264	-0.004
Mof_H 	H 	0.5967	0.6136	0.9536	0.142
Mof_H 	H 	0.8231	0.5302	0.8625	0.029
Mof_H 	H 	0.823	0.537	0.0166	0.026
Mof_H 	H 	0.2268	0.8275	0.9232	0.023
Mof_H 	H 	0.9451	0.3594	0.13253	0.122
Mof_H 	H 	0.8283	0.2879	0.19583	0.158
Mof_H 	H 	0.0991	0.4576	0.11283	-0.025
Mof_H 	H 	0.1718	0.5034	0.25973	-0.004
Mof_H 	H 	0.0169	0.4033	0.28693	0.141
Mof_H 	H 	0.7071	0.1769	0.19583	0.03
Mof_H 	H 	0.714	0.177	0.34993	0.03
Mof_H 	H 	0.6007	0.7732	0.25653	0.024
Mof_H 	H 	0.4143	0.0549	0.46587	0.122
Mof_H 	H 	0.4596	0.1717	0.52917	0.158
Mof_H 	H 	0.3585	0.9009	0.44617	-0.025
Mof_H 	H 	0.3316	0.8282	0.59307	-0.004
Mof_H 	H 	0.3864	0.9831	0.62027	0.141
Mof_H 	H 	0.4698	0.2929	0.52917	0.03
Mof_H 	H 	0.463	0.286	0.68327	0.03
Mof_H 	H 	0.1725	0.3993	0.58987	0.024
Mof_H 	H 	0.9451	0.5857	0.53413	0.122
Mof_H 	H 	0.8283	0.5404	0.47083	0.158
Mof_H 	H 	0.0991	0.6415	0.55383	-0.025
Mof_H 	H 	0.1718	0.6684	0.40693	-0.004
Mof_H 	H 	0.0169	0.6136	0.37973	0.141
Mof_H 	H 	0.7071	0.5302	0.47083	0.03
Mof_H 	H 	0.714	0.537	0.31673	0.03
Mof_H 	H 	0.6007	0.8275	0.41013	0.024
Mof_H 	H 	0.4143	0.3594	0.2008	0.122
Mof_H 	H 	0.4596	0.2879	0.1375	0.158
Mof_H 	H 	0.3585	0.4576	0.2205	-0.025
Mof_H 	H 	0.3316	0.5034	0.0736	-0.004
Mof_H 	H 	0.3864	0.4033	0.0464	0.141
Mof_H 	H 	0.4698	0.1769	0.1375	0.03
Mof_H 	H 	0.463	0.177	0.9834	0.033
Mof_H 	H 	0.1725	0.7732	0.0768	0.023
Mof_H 	H 	0.6406	0.0549	0.86747	0.122
Mof_H 	H 	0.7121	0.1717	0.80417	0.158
Mof_H 	H 	0.5424	0.9009	0.88717	-0.025
Mof_H 	H 	0.4966	0.8282	0.74027	-0.004
Mof_H 	H 	0.5967	0.9831	0.71307	0.141
Mof_H 	H 	0.8231	0.2929	0.80417	0.03
Mof_H 	H 	0.823	0.286	0.65007	0.03
Mof_H 	H 	0.2268	0.3993	0.74347	0.024
Mof_H 	H 	0.0549	0.4143	0.53413	0.122
Mof_H 	H 	0.1717	0.4596	0.47083	0.158
Mof_H 	H 	0.9009	0.3585	0.55383	-0.025
Mof_H 	H 	0.8282	0.3316	0.40693	-0.004
Mof_H 	H 	0.9831	0.3864	0.37973	0.141
Mof_H 	H 	0.2929	0.4698	0.47083	0.03
Mof_H 	H 	0.286	0.463	0.31673	0.03
Mof_H 	H 	0.3993	0.1725	0.41013	0.024
Mof_H 	H 	0.5857	0.6406	0.2008	0.122
Mof_H 	H 	0.5404	0.7121	0.1375	0.158
Mof_H 	H 	0.6415	0.5424	0.2205	-0.025
Mof_H 	H 	0.6684	0.4966	0.0736	-0.004
Mof_H 	H 	0.6136	0.5967	0.0464	0.141
Mof_H 	H 	0.5302	0.8231	0.1375	0.03
Mof_H 	H 	0.537	0.823	0.9834	0.033
Mof_H 	H 	0.8275	0.2268	0.0768	0.023
Mof_H 	H 	0.3594	0.9451	0.86747	0.122
Mof_H 	H 	0.2879	0.8283	0.80417	0.158
Mof_H 	H 	0.4576	0.0991	0.88717	-0.025
Mof_H 	H 	0.5034	0.1718	0.74027	-0.004
Mof_H 	H 	0.4033	0.0169	0.71307	0.141
Mof_H 	H 	0.1769	0.7071	0.80417	0.03
Mof_H 	H 	0.177	0.714	0.65007	0.03
Mof_H 	H 	0.7732	0.6007	0.74347	0.024
Mof_H 	H 	0.6759	0.3241	-0	0.041
Mof_H 	H 	0.8423	0.1577	-0	0.077
Mof_H 	H 	0.6482	0.3241	0.33333	0.041
Mof_H 	H 	0.3154	0.1577	0.33333	0.076
Mof_H 	H 	0.6759	0.3518	0.66667	0.041
Mof_H 	H 	0.8423	0.6846	0.66667	0.076
Mof_H 	H 	0.3241	0.6759	-0	0.041
Mof_H 	H 	0.1577	0.8423	-0	0.077
Mof_H 	H 	0.3518	0.6759	0.33333	0.041
Mof_H 	H 	0.6846	0.8423	0.33333	0.076
Mof_H 	H 	0.3241	0.6482	0.66667	0.041
Mof_H 	H 	0.1577	0.3154	0.66667	0.076
Mof_C 	C 	0.3668	0.4068	0.8791	0.226
Mof_C 	C 	0.3871	0.3974	0.8268	-0.233
Mof_C 	C 	0.0408	0.4928	0.9407	0.11
Mof_C 	C 	0.2658	0.4385	0.9388	0.241
Mof_C 	C 	0.446	0.3645	0.8154	0.139
Mof_C 	C 	0.1899	0.4619	0.9376	-0.113
Mof_C 	C 	0.473	0.3486	0.9005	0.13
Mof_C 	C 	0.4129	0.3814	0.9172	-0.212
Mof_C 	C 	0.1523	0.474	0.8955	0.066
Mof_C 	C 	0.6833	0.2635	0.9036	0.371
Mof_C 	C 	0.1513	0.4691	0.9844	0.077
Mof_C 	C 	0.7177	0.2499	0.9531	-0.132
Mof_C 	C 	0.7676	0.2005	0.9546	0.063
Mof_C 	C 	0.04	0.6332	0.21243	0.226
Mof_C 	C 	0.0103	0.6129	0.16013	-0.233
Mof_C 	C 	0.452	0.9592	0.27403	0.11
Mof_C 	C 	0.1727	0.7342	0.27213	0.24
Mof_C 	C 	0.9185	0.554	0.14873	0.139
Mof_C 	C 	0.272	0.8101	0.27093	-0.111
Mof_C 	C 	0.8756	0.527	0.23383	0.13
Mof_C 	C 	0.9685	0.5871	0.25053	-0.212
Mof_C 	C 	0.3217	0.8477	0.22883	0.065
Mof_C 	C 	0.5802	0.3167	0.23693	0.371
Mof_C 	C 	0.3178	0.8487	0.31773	0.072
Mof_C 	C 	0.5322	0.2823	0.28643	-0.134
Mof_C 	C 	0.4329	0.2324	0.28793	0.059
Mof_C 	C 	0.5932	0.96	0.54577	0.226
Mof_C 	C 	0.6026	0.9897	0.49347	-0.233
Mof_C 	C 	0.5072	0.548	0.60737	0.11
Mof_C 	C 	0.5615	0.8273	0.60547	0.24
Mof_C 	C 	0.6355	0.0815	0.48207	0.139
Mof_C 	C 	0.5381	0.728	0.60427	-0.111
Mof_C 	C 	0.6514	0.1244	0.56717	0.13
Mof_C 	C 	0.6186	0.0315	0.58387	-0.212
Mof_C 	C 	0.526	0.6783	0.56217	0.065
Mof_C 	C 	0.7365	0.4198	0.57027	0.371
Mof_C 	C 	0.5309	0.6822	0.65107	0.072
Mof_C 	C 	0.7501	0.4678	0.61977	-0.134
Mof_C 	C 	0.7995	0.5671	0.62127	0.059
Mof_C 	C 	0.6332	0.5932	0.8791	0.226
Mof_C 	C 	0.6129	0.6026	0.8268	-0.233
Mof_C 	C 	0.9592	0.5072	0.9407	0.11
Mof_C 	C 	0.7342	0.5615	0.9388	0.241
Mof_C 	C 	0.554	0.6355	0.8154	0.139
Mof_C 	C 	0.8101	0.5381	0.9376	-0.113
Mof_C 	C 	0.527	0.6514	0.9005	0.13
Mof_C 	C 	0.5871	0.6186	0.9172	-0.212
Mof_C 	C 	0.8477	0.526	0.8955	0.066
Mof_C 	C 	0.3167	0.7365	0.9036	0.371
Mof_C 	C 	0.8487	0.5309	0.9844	0.077
Mof_C 	C 	0.2823	0.7501	0.9531	-0.132
Mof_C 	C 	0.2324	0.7995	0.9546	0.063
Mof_C 	C 	0.96	0.3668	0.21243	0.226
Mof_C 	C 	0.9897	0.3871	0.16013	-0.233
Mof_C 	C 	0.548	0.0408	0.27403	0.11
Mof_C 	C 	0.8273	0.2658	0.27213	0.24
Mof_C 	C 	0.0815	0.446	0.14873	0.139
Mof_C 	C 	0.728	0.1899	0.27093	-0.111
Mof_C 	C 	0.1244	0.473	0.23383	0.13
Mof_C 	C 	0.0315	0.4129	0.25053	-0.212
Mof_C 	C 	0.6783	0.1523	0.22883	0.065
Mof_C 	C 	0.4198	0.6833	0.23693	0.371
Mof_C 	C 	0.6822	0.1513	0.31773	0.072
Mof_C 	C 	0.4678	0.7177	0.28643	-0.134
Mof_C 	C 	0.5671	0.7676	0.28793	0.059
Mof_C 	C 	0.4068	0.04	0.54577	0.226
Mof_C 	C 	0.3974	0.0103	0.49347	-0.233
Mof_C 	C 	0.4928	0.452	0.60737	0.11
Mof_C 	C 	0.4385	0.1727	0.60547	0.24
Mof_C 	C 	0.3645	0.9185	0.48207	0.139
Mof_C 	C 	0.4619	0.272	0.60427	-0.111
Mof_C 	C 	0.3486	0.8756	0.56717	0.13
Mof_C 	C 	0.3814	0.9685	0.58387	-0.212
Mof_C 	C 	0.474	0.3217	0.56217	0.065
Mof_C 	C 	0.2635	0.5802	0.57027	0.371
Mof_C 	C 	0.4691	0.3178	0.65107	0.072
Mof_C 	C 	0.2499	0.5322	0.61977	-0.134
Mof_C 	C 	0.2005	0.4329	0.62127	0.059
Mof_C 	C 	0.96	0.5932	0.45423	0.226
Mof_C 	C 	0.9897	0.6026	0.50653	-0.233
Mof_C 	C 	0.548	0.5072	0.39263	0.11
Mof_C 	C 	0.8273	0.5615	0.39453	0.24
Mof_C 	C 	0.0815	0.6355	0.51793	0.139
Mof_C 	C 	0.728	0.5381	0.39573	-0.111
Mof_C 	C 	0.1244	0.6514	0.43283	0.13
Mof_C 	C 	0.0315	0.6186	0.41613	-0.212
Mof_C 	C 	0.6783	0.526	0.43783	0.065
Mof_C 	C 	0.4198	0.7365	0.42973	0.371
Mof_C 	C 	0.6822	0.5309	0.34893	0.072
Mof_C 	C 	0.4678	0.7501	0.38023	-0.134
Mof_C 	C 	0.5671	0.7995	0.37873	0.059
Mof_C 	C 	0.4068	0.3668	0.1209	0.226
Mof_C 	C 	0.3974	0.3871	0.1732	-0.233
Mof_C 	C 	0.4928	0.0408	0.0593	0.109
Mof_C 	C 	0.4385	0.2658	0.0612	0.239
Mof_C 	C 	0.3645	0.446	0.1846	0.139
Mof_C 	C 	0.4619	0.1899	0.0624	-0.109
Mof_C 	C 	0.3486	0.473	0.0995	0.13
Mof_C 	C 	0.3814	0.4129	0.0828	-0.211
Mof_C 	C 	0.474	0.1523	0.1045	0.064
Mof_C 	C 	0.2635	0.6833	0.0964	0.371
Mof_C 	C 	0.4691	0.1513	0.0156	0.067
Mof_C 	C 	0.2499	0.7177	0.0469	-0.134
Mof_C 	C 	0.2005	0.7676	0.0454	0.06
Mof_C 	C 	0.6332	0.04	0.78757	0.226
Mof_C 	C 	0.6129	0.0103	0.83987	-0.233
Mof_C 	C 	0.9592	0.452	0.72597	0.11
Mof_C 	C 	0.7342	0.1727	0.72787	0.24
Mof_C 	C 	0.554	0.9185	0.85127	0.139
Mof_C 	C 	0.8101	0.272	0.72907	-0.111
Mof_C 	C 	0.527	0.8756	0.76617	0.13
Mof_C 	C 	0.5871	0.9685	0.74947	-0.212
Mof_C 	C 	0.8477	0.3217	0.77117	0.065
Mof_C 	C 	0.3167	0.5802	0.76307	0.371
Mof_C 	C 	0.8487	0.3178	0.68227	0.072
Mof_C 	C 	0.2823	0.5322	0.71357	-0.134
Mof_C 	C 	0.2324	0.4329	0.71207	0.059
Mof_C 	C 	0.04	0.4068	0.45423	0.226
Mof_C 	C 	0.0103	0.3974	0.50653	-0.233
Mof_C 	C 	0.452	0.4928	0.39263	0.11
Mof_C 	C 	0.1727	0.4385	0.39453	0.24
Mof_C 	C 	0.9185	0.3645	0.51793	0.139
Mof_C 	C 	0.272	0.4619	0.39573	-0.111
Mof_C 	C 	0.8756	0.3486	0.43283	0.13
Mof_C 	C 	0.9685	0.3814	0.41613	-0.212
Mof_C 	C 	0.3217	0.474	0.43783	0.065
Mof_C 	C 	0.5802	0.2635	0.42973	0.371
Mof_C 	C 	0.3178	0.4691	0.34893	0.072
Mof_C 	C 	0.5322	0.2499	0.38023	-0.134
Mof_C 	C 	0.4329	0.2005	0.37873	0.059
Mof_C 	C 	0.5932	0.6332	0.1209	0.226
Mof_C 	C 	0.6026	0.6129	0.1732	-0.233
Mof_C 	C 	0.5072	0.9592	0.0593	0.109
Mof_C 	C 	0.5615	0.7342	0.0612	0.239
Mof_C 	C 	0.6355	0.554	0.1846	0.139
Mof_C 	C 	0.5381	0.8101	0.0624	-0.109
Mof_C 	C 	0.6514	0.527	0.0995	0.13
Mof_C 	C 	0.6186	0.5871	0.0828	-0.211
Mof_C 	C 	0.526	0.8477	0.1045	0.064
Mof_C 	C 	0.7365	0.3167	0.0964	0.371
Mof_C 	C 	0.5309	0.8487	0.0156	0.067
Mof_C 	C 	0.7501	0.2823	0.0469	-0.134
Mof_C 	C 	0.7995	0.2324	0.0454	0.06
Mof_C 	C 	0.3668	0.96	0.78757	0.226
Mof_C 	C 	0.3871	0.9897	0.83987	-0.233
Mof_C 	C 	0.0408	0.548	0.72597	0.11
Mof_C 	C 	0.2658	0.8273	0.72787	0.24
Mof_C 	C 	0.446	0.0815	0.85127	0.139
Mof_C 	C 	0.1899	0.728	0.72907	-0.111
Mof_C 	C 	0.473	0.1244	0.76617	0.13
Mof_C 	C 	0.4129	0.0315	0.74947	-0.212
Mof_C 	C 	0.1523	0.6783	0.77117	0.065
Mof_C 	C 	0.6833	0.4198	0.76307	0.371
Mof_C 	C 	0.1513	0.6822	0.68227	0.072
Mof_C 	C 	0.7177	0.4678	0.71357	-0.134
Mof_C 	C 	0.7676	0.5671	0.71207	0.059
Mof_C 	C 	0.70935	0.29065	-0	0.073
Mof_C 	C 	0.80885	0.19115	-0	-0.118
Mof_C 	C 	0.5813	0.29065	0.33333	0.076
Mof_C 	C 	0.3823	0.19115	0.33333	-0.114
Mof_C 	C 	0.70935	0.4187	0.66667	0.076
Mof_C 	C 	0.80885	0.6177	0.66667	-0.114
Mof_C 	C 	0.29065	0.70935	-0	0.073
Mof_C 	C 	0.19115	0.80885	-0	-0.118
Mof_C 	C 	0.4187	0.70935	0.33333	0.076
Mof_C 	C 	0.6177	0.80885	0.33333	-0.114
Mof_C 	C 	0.29065	0.5813	0.66667	0.076
Mof_C 	C 	0.19115	0.3823	0.66667	-0.114
Mof_N 	N 	0.4891	0.34	0.8516	-0.284
Mof_N 	N 	0.305	0.4378	0.8893	-0.261
Mof_N 	N 	0.0766	0.4933	0.8955	-0.118
Mof_N 	N 	0.0763	0.4846	0.9854	-0.126
Mof_N 	N 	0.8509	0.5109	0.18493	-0.285
Mof_N 	N 	0.1328	0.695	0.22263	-0.26
Mof_N 	N 	0.4167	0.9234	0.22883	-0.117
Mof_N 	N 	0.4083	0.9237	0.31873	-0.126
Mof_N 	N 	0.66	0.1491	0.51827	-0.284
Mof_N 	N 	0.5622	0.8672	0.55597	-0.26
Mof_N 	N 	0.5067	0.5833	0.56217	-0.117
Mof_N 	N 	0.5154	0.5917	0.65207	-0.126
Mof_N 	N 	0.5109	0.66	0.8516	-0.284
Mof_N 	N 	0.695	0.5622	0.8893	-0.261
Mof_N 	N 	0.9234	0.5067	0.8955	-0.118
Mof_N 	N 	0.9237	0.5154	0.9854	-0.126
Mof_N 	N 	0.1491	0.4891	0.18493	-0.285
Mof_N 	N 	0.8672	0.305	0.22263	-0.26
Mof_N 	N 	0.5833	0.0766	0.22883	-0.117
Mof_N 	N 	0.5917	0.0763	0.31873	-0.126
Mof_N 	N 	0.34	0.8509	0.51827	-0.284
Mof_N 	N 	0.4378	0.1328	0.55597	-0.26
Mof_N 	N 	0.4933	0.4167	0.56217	-0.117
Mof_N 	N 	0.4846	0.4083	0.65207	-0.126
Mof_N 	N 	0.1491	0.66	0.48173	-0.284
Mof_N 	N 	0.8672	0.5622	0.44403	-0.26
Mof_N 	N 	0.5833	0.5067	0.43783	-0.117
Mof_N 	N 	0.5917	0.5154	0.34793	-0.126
Mof_N 	N 	0.34	0.4891	0.1484	-0.284
Mof_N 	N 	0.4378	0.305	0.1107	-0.26
Mof_N 	N 	0.4933	0.0766	0.1045	-0.117
Mof_N 	N 	0.4846	0.0763	0.0146	-0.125
Mof_N 	N 	0.5109	0.8509	0.81507	-0.284
Mof_N 	N 	0.695	0.1328	0.77737	-0.26
Mof_N 	N 	0.9234	0.4167	0.77117	-0.117
Mof_N 	N 	0.9237	0.4083	0.68127	-0.126
Mof_N 	N 	0.8509	0.34	0.48173	-0.284
Mof_N 	N 	0.1328	0.4378	0.44403	-0.26
Mof_N 	N 	0.4167	0.4933	0.43783	-0.117
Mof_N 	N 	0.4083	0.4846	0.34793	-0.126
Mof_N 	N 	0.66	0.5109	0.1484	-0.284
Mof_N 	N 	0.5622	0.695	0.1107	-0.26
Mof_N 	N 	0.5067	0.9234	0.1045	-0.117
Mof_N 	N 	0.5154	0.9237	0.0146	-0.125
Mof_N 	N 	0.4891	0.1491	0.81507	-0.284
Mof_N 	N 	0.305	0.8672	0.77737	-0.26
Mof_N 	N 	0.0766	0.5833	0.77117	-0.117
Mof_N 	N 	0.0763	0.5917	0.68127	-0.126
Mof_O 	O 	0.6218	0.2915	0.9063	-0.442
Mof_O 	O 	0.6969	0.236	0.8632	-0.374
Mof_O 	O 	0.2927	0.4192	0.9796	-0.237
Mof_O 	O 	0.6697	0.3782	0.23963	-0.442
Mof_O 	O 	0.5391	0.3031	0.19653	-0.374
Mof_O 	O 	0.1265	0.7073	0.31293	-0.238
Mof_O 	O 	0.7085	0.3303	0.57297	-0.442
Mof_O 	O 	0.764	0.4609	0.52987	-0.374
Mof_O 	O 	0.5808	0.8735	0.64627	-0.238
Mof_O 	O 	0.3782	0.7085	0.9063	-0.442
Mof_O 	O 	0.3031	0.764	0.8632	-0.374
Mof_O 	O 	0.7073	0.5808	0.9796	-0.237
Mof_O 	O 	0.3303	0.6218	0.23963	-0.442
Mof_O 	O 	0.4609	0.6969	0.19653	-0.374
Mof_O 	O 	0.8735	0.2927	0.31293	-0.238
Mof_O 	O 	0.2915	0.6697	0.57297	-0.442
Mof_O 	O 	0.236	0.5391	0.52987	-0.374
Mof_O 	O 	0.4192	0.1265	0.64627	-0.238
Mof_O 	O 	0.3303	0.7085	0.42703	-0.442
Mof_O 	O 	0.4609	0.764	0.47013	-0.374
Mof_O 	O 	0.8735	0.5808	0.35373	-0.238
Mof_O 	O 	0.2915	0.6218	0.0937	-0.442
Mof_O 	O 	0.236	0.6969	0.1368	-0.374
Mof_O 	O 	0.4192	0.2927	0.0204	-0.239
Mof_O 	O 	0.3782	0.6697	0.76037	-0.442
Mof_O 	O 	0.3031	0.5391	0.80347	-0.374
Mof_O 	O 	0.7073	0.1265	0.68707	-0.238
Mof_O 	O 	0.6697	0.2915	0.42703	-0.442
Mof_O 	O 	0.5391	0.236	0.47013	-0.374
Mof_O 	O 	0.1265	0.4192	0.35373	-0.238
Mof_O 	O 	0.7085	0.3782	0.0937	-0.442
Mof_O 	O 	0.764	0.3031	0.1368	-0.374
Mof_O 	O 	0.5808	0.7073	0.0204	-0.239
Mof_O 	O 	0.6218	0.3303	0.76037	-0.442
Mof_O 	O 	0.6969	0.4609	0.80347	-0.374
Mof_O 	O 	0.2927	0.8735	0.68707	-0.238
_end
