data_functionalizedCrystal
_audit_creation_method	'EQeq! by Chris Wilmer'
_symmetry_space_group_name_H-M	'P1'
_symmetry_Int_Tables_number	1
_symmetry_cell_setting	triclinic
loop_
_symmetry_equiv_pos_as_xyz
  x,y,z
_cell_length_a	21.859
_cell_length_b	11.6653
_cell_length_c	7.3751
_cell_angle_alpha	90
_cell_angle_beta	100.301
_cell_angle_gamma	90
loop_
_atom_site_label
_atom_site_type_symbol
_atom_site_fract_x
_atom_site_fract_y
_atom_site_fract_z
_atom_site_charge
Mof_O 	O 	0.07661	0.0178	0.8686	-0.492
Mof_O 	O 	0.04754	0.8647	0.0131	-0.501
Mof_C 	C 	0.0851	0.9216	0.9445	0.415
Mof_C 	C 	0.1492	0.8716	0.9457	-0.149
Mof_C 	C 	0.1877	0.9074	0.8375	0.05
Mof_H 	H 	0.1763	0.9685	0.7579	0.02
Mof_C 	C 	0.2471	0.8528	0.8417	-0.128
Mof_H 	H 	0.272	0.8826	0.7632	0.068
Mof_C 	C 	0.2689	0.7684	0.9411	0.036
Mof_C 	C 	0.1706	0.7842	0.0553	0.005
Mof_H 	H 	0.1454	0.7553	0.1337	0.013
Mof_O 	O 	0.92339	0.0178	0.6314	-0.43
Mof_O 	O 	0.95246	0.8647	0.4869	-0.414
Mof_C 	C 	0.9149	0.9216	0.5555	0.402
Mof_C 	C 	0.8508	0.8716	0.5543	-0.097
Mof_C 	C 	0.8123	0.9074	0.6625	0.018
Mof_H 	H 	0.8237	0.9685	0.7421	0.035
Mof_C 	C 	0.7529	0.8528	0.6583	-0.089
Mof_H 	H 	0.728	0.8826	0.7368	0.056
Mof_C 	C 	0.7311	0.7684	0.5589	0.005
Mof_C 	C 	0.8294	0.7842	0.4447	-0.038
Mof_H 	H 	0.8546	0.7553	0.3663	0.046
Mof_O 	O 	0.42339	0.4822	0.1314	-0.471
Mof_O 	O 	0.45246	0.6353	0.9869	-0.474
Mof_C 	C 	0.4149	0.5784	0.0555	0.418
Mof_C 	C 	0.3508	0.6284	0.0543	-0.109
Mof_C 	C 	0.3123	0.5926	0.1625	0.022
Mof_H 	H 	0.3237	0.5315	0.2421	0.031
Mof_C 	C 	0.2529	0.6472	0.1583	-0.095
Mof_H 	H 	0.228	0.6174	0.2368	0.053
Mof_C 	C 	0.2311	0.7316	0.0589	0.008
Mof_C 	C 	0.3294	0.7158	0.9447	-0.036
Mof_H 	H 	0.3546	0.7447	0.8663	0.033
Mof_O 	O 	0.57661	0.4822	0.3686	-0.471
Mof_O 	O 	0.54754	0.6353	0.5131	-0.472
Mof_C 	C 	0.5851	0.5784	0.4445	0.423
Mof_C 	C 	0.6492	0.6284	0.4457	-0.136
Mof_C 	C 	0.6877	0.5926	0.3375	0.053
Mof_H 	H 	0.6763	0.5315	0.2579	0.023
Mof_C 	C 	0.7471	0.6472	0.3417	-0.13
Mof_H 	H 	0.772	0.6174	0.2632	0.076
Mof_C 	C 	0.7689	0.7316	0.4411	0.05
Mof_C 	C 	0.6706	0.7158	0.5553	-0.002
Mof_H 	H 	0.6454	0.7447	0.6337	0.023
Mof_Zn	Zn	7.68039e-18	0.11603	0.75	1.16
Mof_Zn	Zn	0.5	0.38397	0.25	1.194
Mof_O 	O 	0.57661	0.5178	0.8686	-0.472
Mof_O 	O 	0.54754	0.3647	0.0131	-0.469
Mof_C 	C 	0.5851	0.4216	0.9445	0.42
Mof_C 	C 	0.6492	0.3716	0.9457	-0.14
Mof_C 	C 	0.6877	0.4074	0.8375	0.055
Mof_H 	H 	0.6763	0.4685	0.7579	0.022
Mof_C 	C 	0.7471	0.3528	0.8417	-0.133
Mof_H 	H 	0.772	0.3826	0.7632	0.076
Mof_C 	C 	0.7689	0.2684	0.9411	0.05
Mof_C 	C 	0.6706	0.2842	0.0553	0.003
Mof_H 	H 	0.6454	0.2553	0.1337	0.022
Mof_O 	O 	0.42339	0.5178	0.6314	-0.471
Mof_O 	O 	0.45246	0.3647	0.4869	-0.47
Mof_C 	C 	0.4149	0.4216	0.5555	0.415
Mof_C 	C 	0.3508	0.3716	0.5543	-0.116
Mof_C 	C 	0.3123	0.4074	0.6625	0.025
Mof_H 	H 	0.3237	0.4685	0.7421	0.029
Mof_C 	C 	0.2529	0.3528	0.6583	-0.098
Mof_H 	H 	0.228	0.3826	0.7368	0.053
Mof_C 	C 	0.2311	0.2684	0.5589	0.007
Mof_C 	C 	0.3294	0.2842	0.4447	-0.028
Mof_H 	H 	0.3546	0.2553	0.3663	0.031
Mof_O 	O 	0.92339	0.9822	0.1314	-0.427
Mof_O 	O 	0.95246	0.1353	0.9869	-0.417
Mof_C 	C 	0.9149	0.0784	0.0555	0.402
Mof_C 	C 	0.8508	0.1284	0.0543	-0.092
Mof_C 	C 	0.8123	0.0926	0.1625	0.015
Mof_H 	H 	0.8237	0.0315	0.2421	0.037
Mof_C 	C 	0.7529	0.1472	0.1583	-0.087
Mof_H 	H 	0.728	0.1174	0.2368	0.056
Mof_C 	C 	0.7311	0.2316	0.0589	0.005
Mof_C 	C 	0.8294	0.2158	0.9447	-0.044
Mof_H 	H 	0.8546	0.2447	0.8663	0.047
Mof_O 	O 	0.07661	0.9822	0.3686	-0.494
Mof_O 	O 	0.04754	0.1353	0.5131	-0.51
Mof_C 	C 	0.0851	0.0784	0.4445	0.424
Mof_C 	C 	0.1492	0.1284	0.4457	-0.141
Mof_C 	C 	0.1877	0.0926	0.3375	0.047
Mof_H 	H 	0.1763	0.0315	0.2579	0.022
Mof_C 	C 	0.2471	0.1472	0.3417	-0.125
Mof_H 	H 	0.272	0.1174	0.2632	0.068
Mof_C 	C 	0.2689	0.2316	0.4411	0.037
Mof_C 	C 	0.1706	0.2158	0.5553	-0.005
Mof_H 	H 	0.1454	0.2447	0.6337	0.016
Mof_Zn	Zn	0.5	0.61603	0.75	1.193
Mof_Zn	Zn	3.72809e-34	0.88397	0.25	1.16
_end
