# CIF file generated by openbabel 3.1.0, see https://openbabel.org
data_I
_chemical_name_common 'image0'
_cell_length_a 19.792
_cell_length_b 20.604
_cell_length_c 21.471
_cell_angle_alpha 115.799
_cell_angle_beta 98.322
_cell_angle_gamma 100.882
_space_group_name_H-M_alt 'P 1'
_space_group_name_Hall 'P 1'
loop_
    _symmetry_equiv_pos_as_xyz
    x,y,z
loop_
    _atom_site_label
    _atom_site_type_symbol
    _atom_site_fract_x
    _atom_site_fract_y
    _atom_site_fract_z
    _atom_site_occupancy
    C1       C        0.11060    0.33990    0.36510    1.000
    H1       H        0.12590    0.31130    0.32560    1.000
    C2       C        0.13270    0.43000    0.49320    1.000
    H2       H        0.16500    0.46050    0.53770    1.000
    C3       C        0.23100    0.39450    0.44550    1.000
    H3       H        0.25950    0.43150    0.49020    1.000
    C4       C        0.15660    0.38920    0.43500    1.000
    C5       C        0.26300    0.35770    0.40460    1.000
    H4       H        0.23470    0.32430    0.35860    1.000
    C6       C        0.85300    0.42620    0.52910    1.000
    C7       C        0.38710    0.40990    0.47000    1.000
    H5       H        0.37500    0.45170    0.50080    1.000
    C8       C        0.34060    0.35680    0.41550    1.000
    C9       C        0.46060    0.40460    0.48420    1.000
    H6       H        0.49480    0.44270    0.52460    1.000
    C10      C        0.35490    0.30380    0.36640    1.000
    H7       H        0.32020    0.26930    0.32460    1.000
    C11      C        0.03530    0.34000    0.36330    1.000
    H8       H        0.00090    0.30980    0.32010    1.000
    C12      C        0.82360    0.21370    0.32970    1.000
    C13      C        0.42600    0.29830    0.37680    1.000
    H9       H        0.43820    0.26120    0.34000    1.000
    C14      C        0.92600    0.50100    0.65660    1.000
    H10      H        0.96620    0.49110    0.64120    1.000
    C15      C        0.87260    0.56040    0.75390    1.000
    C16      C        0.83060    0.14190    0.28110    1.000
    C17      C        0.88180    0.44520    0.26430    1.000
    C18      C        0.88640    0.40000    0.30120    1.000
    C19      C        0.87740    0.60180    0.82980    1.000
    C20      C        0.87830    0.53250    0.19290    1.000
    C21      C        0.87080    0.41100    0.18870    1.000
    H11      H        0.86230    0.35930    0.16180    1.000
    C22      C        0.89120    0.52370    0.30370    1.000
    H12      H        0.89860    0.54720    0.35320    1.000
    C23      C        0.87280    0.45760    0.15470    1.000
    H13      H        0.87050    0.43660    0.10610    1.000
    C24      C        0.76970    0.08040    0.23920    1.000
    H14      H        0.72430    0.08670    0.23760    1.000
    C25      C        0.85900    0.47290    0.60760    1.000
    C26      C        0.93040    0.54380    0.72820    1.000
    H15      H        0.97460    0.56240    0.76070    1.000
    C27      C        0.91340    0.65310    0.19060    1.000
    H16      H        0.93540    0.67600    0.23930    1.000
    C28      C        0.92660    0.63000    0.95180    1.000
    H17      H        0.95910    0.62630    0.98520    1.000
    C29      C        0.88150    0.67410    0.97480    1.000
    C30      C        0.79880    0.48700    0.63110    1.000
    H18      H        0.75430    0.46690    0.59860    1.000
    C31      C        0.77940    0.00940    0.20000    1.000
    H19      H        0.73970    0.96770    0.17650    1.000
    C32      C        0.06260    0.42630    0.48640    1.000
    H20      H        0.04740    0.45410    0.52630    1.000
    C33      C        0.84470    0.99930    0.19500    1.000
    C34      C        0.85120    0.92110    0.15120    1.000
    C35      C        0.87740    0.66440    0.08390    1.000
    C36      C        0.82120    0.79060    0.12090    1.000
    H21      H        0.79400    0.75100    0.12450    1.000
    C37      C        0.92390    0.59220    0.88190    1.000
    H22      H        0.95200    0.55980    0.86690    1.000
    C38      C        0.80540    0.53090    0.70270    1.000
    H23      H        0.76540    0.54170    0.71810    1.000
    C39      C        0.91110    0.83990    0.07710    1.000
    H24      H        0.94550    0.83440    0.05140    1.000
    C40      C        0.84640    0.54770    0.08680    1.000
    H25      H        0.82610    0.49590    0.06140    1.000
    C41      C        0.83690    0.68520    0.92540    1.000
    H26      H        0.81010    0.71890    0.94120    1.000
    C42      C        0.86820    0.77750    0.08170    1.000
    C43      C        0.90090    0.05900    0.23160    1.000
    H27      H        0.94630    0.05370    0.22960    1.000
    C44      C        0.91650    0.69540    0.15430    1.000
    H28      H        0.94500    0.74490    0.17760    1.000
    C45      C        0.83310    0.64730    0.85570    1.000
    H29      H        0.79980    0.65130    0.82320    1.000
    C46      C        0.87830    0.57860    0.15500    1.000
    C47      C        0.88920    0.56370    0.26750    1.000
    H30      H        0.89540    0.61510    0.29380    1.000
    C48      C        0.81110    0.86240    0.15710    1.000
    H31      H        0.77810    0.87000    0.18440    1.000
    C49      C        0.84200    0.58880    0.05200    1.000
    H32      H        0.81430    0.56530    0.00510    1.000
    C50      C        0.89260    0.13040    0.27340    1.000
    H33      H        0.93300    0.17140    0.29680    1.000
    C51      C        0.89740    0.90760    0.11330    1.000
    H34      H        0.92400    0.94800    0.11030    1.000
    N1       N        0.47750    0.34690    0.44030    1.000
    N2       N        0.01440    0.38250    0.42220    1.000
    N3       N        0.88360    0.70900    0.05080    1.000
    O1       O        0.76220    0.22200    0.33030    1.000
    O2       O        0.88090    0.26450    0.37010    1.000
    O3       O        0.90890    0.41660    0.51170    1.000
    O4       O        0.88510    0.43130    0.36620    1.000
    O5       O        0.78950    0.40120    0.48680    1.000
    O6       O        0.89330    0.33530    0.26950    1.000
    Zn1      Zn       0.90931    0.37072    0.40987    1.000
    Zn2      Zn       0.73785    0.29748    0.41203    1.000
    C52      C        0.58820    0.20160    0.37640    1.000
    C53      C        0.55090    0.07680    0.27200    1.000
    H35      H        0.51690    0.09230    0.25170    1.000
    C54      C        0.65420    0.38120    0.36230    1.000
    C55      C        0.65140    0.42440    0.32400    1.000
    C56      C        0.65590    0.03350    0.32470    1.000
    H36      H        0.69190    0.01910    0.34380    1.000
    C57      C        0.64680    0.51200    0.25280    1.000
    C58      C        0.59830    0.12610    0.33680    1.000
    C59      C        0.62750    0.64640    0.03170    1.000
    C60      C        0.64580    0.55650    0.21580    1.000
    C61      C        0.63120    0.75840    0.14320    1.000
    C62      C        0.65030    0.10450    0.36190    1.000
    H37      H        0.68320    0.13820    0.40530    1.000
    C63      C        0.61040    0.98420    0.26130    1.000
    C64      C        0.60370    0.43040    0.66190    1.000
    C65      C        0.61690    0.90290    0.21740    1.000
    C66      C        0.65910    0.67800    0.99540    1.000
    H38      H        0.68460    0.72860    0.02010    1.000
    C67      C        0.65590    0.80130    0.21780    1.000
    H39      H        0.67830    0.78100    0.24310    1.000
    C68      C        0.61590    0.50790    0.69480    1.000
    H40      H        0.62150    0.53280    0.66780    1.000
    C69      C        0.65500    0.63830    0.92410    1.000
    H41      H        0.67700    0.66190    0.90090    1.000
    C70      C        0.69830    0.47600    0.25210    1.000
    H42      H        0.73180    0.47880    0.22650    1.000
    C71      C        0.59360    0.49830    0.28510    1.000
    H43      H        0.55580    0.51860    0.28220    1.000
    C72      C        0.55420    0.00480    0.23790    1.000
    H44      H        0.51780    0.96900    0.19820    1.000
    C73      C        0.61670    0.56050    0.88530    1.000
    C74      C        0.61320    0.51630    0.80910    1.000
    C75      C        0.60010    0.79420    0.10950    1.000
    H45      H        0.58520    0.76950    0.05980    1.000
    C76      C        0.58450    0.52500    0.92170    1.000
    H46      H        0.56030    0.47410    0.89740    1.000
    C77      C        0.59040    0.86460    0.14640    1.000
    H47      H        0.56590    0.88470    0.12240    1.000
    C78      C        0.63890    0.64350    0.14520    1.000
    C79      C        0.64870    0.87080    0.25470    1.000
    H48      H        0.66480    0.89690    0.30430    1.000
    C80      C        0.61990    0.54810    0.76600    1.000
    H49      H        0.62760    0.59980    0.78580    1.000
    C81      C        0.70120    0.43460    0.29000    1.000
    H50      H        0.73870    0.41370    0.29150    1.000
    C82      C        0.59480    0.39520    0.70490    1.000
    H51      H        0.58460    0.34330    0.68510    1.000
    C83      C        0.58980    0.56870    0.99580    1.000
    H52      H        0.56880    0.54660    0.02060    1.000
    C84      C        0.59790    0.38550    0.58710    1.000
    C85      C        0.58720    0.63120    0.17700    1.000
    H53      H        0.54930    0.65140    0.17480    1.000
    C86      C        0.69480    0.56860    0.18360    1.000
    H54      H        0.73120    0.54580    0.18300    1.000
    C87      C        0.59280    0.45770    0.32020    1.000
    H55      H        0.55610    0.45100    0.34140    1.000
    C88      C        0.69510    0.61450    0.14980    1.000
    H56      H        0.73290    0.62460    0.13110    1.000
    C89      C        0.58940    0.58980    0.21210    1.000
    H57      H        0.55340    0.58310    0.23400    1.000
    C90      C        0.60150    0.43880    0.77630    1.000
    H58      H        0.59800    0.41520    0.80450    1.000
    N4       N        0.63390    0.68490    0.10770    1.000
    O7       O        0.64650    0.25620    0.42670    1.000
    O8       O        0.69460    0.33910    0.34960    1.000
    O9       O        0.61760    0.41900    0.55250    1.000
    O10      O        0.53300    0.21580    0.36790    1.000
    O11      O        0.56980    0.31840    0.55430    1.000
    O12      O        0.61620    0.38880    0.40420    1.000
    Zn3      Zn       0.57720    0.33341    0.45233    1.000
    C91      C        0.88940    0.66010    0.63490    1.000
    H59      H        0.87410    0.68870    0.67440    1.000
    C92      C        0.86730    0.57000    0.50680    1.000
    H60      H        0.83500    0.53950    0.46230    1.000
    C93      C        0.76900    0.60550    0.55450    1.000
    H61      H        0.74050    0.56850    0.50980    1.000
    C94      C        0.84340    0.61080    0.56500    1.000
    C95      C        0.73700    0.64230    0.59540    1.000
    H62      H        0.76530    0.67570    0.64140    1.000
    C96      C        0.14700    0.57380    0.47090    1.000
    C97      C        0.61290    0.59010    0.53000    1.000
    H63      H        0.62500    0.54830    0.49920    1.000
    C98      C        0.65940    0.64320    0.58450    1.000
    C99      C        0.53940    0.59540    0.51580    1.000
    H64      H        0.50520    0.55730    0.47540    1.000
    C100     C        0.64510    0.69620    0.63360    1.000
    H65      H        0.67980    0.73070    0.67540    1.000
    C101     C        0.96470    0.66000    0.63670    1.000
    H66      H        0.99910    0.69020    0.67990    1.000
    C102     C        0.17640    0.78630    0.67030    1.000
    C103     C        0.57400    0.70170    0.62320    1.000
    H67      H        0.56180    0.73880    0.66000    1.000
    C104     C        0.07400    0.49900    0.34340    1.000
    H68      H        0.03380    0.50890    0.35880    1.000
    C105     C        0.12740    0.43960    0.24610    1.000
    C106     C        0.16940    0.85810    0.71890    1.000
    C107     C        0.11820    0.55480    0.73570    1.000
    C108     C        0.11360    0.60000    0.69880    1.000
    C109     C        0.12260    0.39820    0.17020    1.000
    C110     C        0.12170    0.46750    0.80710    1.000
    C111     C        0.12920    0.58900    0.81130    1.000
    H69      H        0.13770    0.64070    0.83820    1.000
    C112     C        0.10880    0.47630    0.69630    1.000
    H70      H        0.10140    0.45280    0.64680    1.000
    C113     C        0.12720    0.54240    0.84530    1.000
    H71      H        0.12950    0.56340    0.89390    1.000
    C114     C        0.23030    0.91960    0.76080    1.000
    H72      H        0.27570    0.91330    0.76240    1.000
    C115     C        0.14100    0.52710    0.39240    1.000
    C116     C        0.06960    0.45620    0.27180    1.000
    H73      H        0.02540    0.43760    0.23930    1.000
    C117     C        0.08660    0.34690    0.80940    1.000
    H74      H        0.06460    0.32400    0.76070    1.000
    C118     C        0.07340    0.37000    0.04820    1.000
    H75      H        0.04090    0.37370    0.01480    1.000
    C119     C        0.11850    0.32590    0.02520    1.000
    C120     C        0.20120    0.51300    0.36890    1.000
    H76      H        0.24570    0.53310    0.40140    1.000
    C121     C        0.22060    0.99060    0.80000    1.000
    H77      H        0.26030    0.03230    0.82350    1.000
    C122     C        0.93740    0.57370    0.51360    1.000
    H78      H        0.95260    0.54590    0.47370    1.000
    C123     C        0.15530    0.00070    0.80500    1.000
    C124     C        0.14880    0.07890    0.84880    1.000
    C125     C        0.12260    0.33560    0.91610    1.000
    C126     C        0.17880    0.20940    0.87910    1.000
    H79      H        0.20600    0.24900    0.87550    1.000
    C127     C        0.07610    0.40780    0.11810    1.000
    H80      H        0.04800    0.44020    0.13310    1.000
    C128     C        0.19460    0.46910    0.29730    1.000
    H81      H        0.23460    0.45830    0.28190    1.000
    C129     C        0.08890    0.16010    0.92290    1.000
    H82      H        0.05450    0.16560    0.94860    1.000
    C130     C        0.15360    0.45230    0.91320    1.000
    H83      H        0.17390    0.50410    0.93860    1.000
    C131     C        0.16310    0.31480    0.07460    1.000
    H84      H        0.18990    0.28110    0.05880    1.000
    C132     C        0.13180    0.22250    0.91830    1.000
    C133     C        0.09910    0.94100    0.76840    1.000
    H85      H        0.05370    0.94630    0.77040    1.000
    C134     C        0.08350    0.30460    0.84570    1.000
    H86      H        0.05500    0.25510    0.82240    1.000
    C135     C        0.16690    0.35270    0.14430    1.000
    H87      H        0.20020    0.34870    0.17680    1.000
    C136     C        0.12170    0.42140    0.84500    1.000
    C137     C        0.11080    0.43630    0.73250    1.000
    H88      H        0.10460    0.38490    0.70620    1.000
    C138     C        0.18890    0.13760    0.84290    1.000
    H89      H        0.22190    0.13000    0.81560    1.000
    C139     C        0.15800    0.41120    0.94800    1.000
    H90      H        0.18570    0.43470    0.99490    1.000
    C140     C        0.10740    0.86960    0.72660    1.000
    H91      H        0.06700    0.82860    0.70320    1.000
    C141     C        0.10260    0.09240    0.88670    1.000
    H92      H        0.07600    0.05200    0.88970    1.000
    N5       N        0.52250    0.65310    0.55970    1.000
    N6       N        0.98560    0.61750    0.57780    1.000
    N7       N        0.11640    0.29100    0.94920    1.000
    O13      O        0.23780    0.77800    0.66970    1.000
    O14      O        0.11910    0.73550    0.62990    1.000
    O15      O        0.09110    0.58340    0.48830    1.000
    O16      O        0.11490    0.56870    0.63380    1.000
    O17      O        0.21050    0.59880    0.51320    1.000
    O18      O        0.10670    0.66470    0.73050    1.000
    Zn4      Zn       0.09069    0.62928    0.59013    1.000
    Zn5      Zn       0.26215    0.70252    0.58797    1.000
    C142     C        0.41180    0.79840    0.62360    1.000
    C143     C        0.44910    0.92320    0.72800    1.000
    H93      H        0.48310    0.90770    0.74830    1.000
    C144     C        0.34580    0.61880    0.63770    1.000
    C145     C        0.34860    0.57560    0.67600    1.000
    C146     C        0.34410    0.96650    0.67530    1.000
    H94      H        0.30810    0.98090    0.65620    1.000
    C147     C        0.35320    0.48800    0.74720    1.000
    C148     C        0.40170    0.87390    0.66320    1.000
    C149     C        0.37250    0.35360    0.96830    1.000
    C150     C        0.35420    0.44350    0.78420    1.000
    C151     C        0.36880    0.24160    0.85680    1.000
    C152     C        0.34970    0.89550    0.63810    1.000
    H95      H        0.31680    0.86180    0.59470    1.000
    C153     C        0.38960    0.01580    0.73870    1.000
    C154     C        0.39630    0.56960    0.33810    1.000
    C155     C        0.38310    0.09710    0.78260    1.000
    C156     C        0.34090    0.32200    0.00460    1.000
    H96      H        0.31540    0.27140    0.97990    1.000
    C157     C        0.34410    0.19870    0.78220    1.000
    H97      H        0.32170    0.21900    0.75690    1.000
    C158     C        0.38410    0.49210    0.30520    1.000
    H98      H        0.37850    0.46720    0.33220    1.000
    C159     C        0.34500    0.36170    0.07590    1.000
    H99      H        0.32300    0.33810    0.09910    1.000
    C160     C        0.30170    0.52400    0.74790    1.000
    H100     H        0.26820    0.52120    0.77350    1.000
    C161     C        0.40640    0.50170    0.71490    1.000
    H101     H        0.44420    0.48140    0.71780    1.000
    C162     C        0.44580    0.99520    0.76210    1.000
    H102     H        0.48220    0.03100    0.80180    1.000
    C163     C        0.38330    0.43950    0.11470    1.000
    C164     C        0.38680    0.48370    0.19090    1.000
    C165     C        0.39990    0.20580    0.89050    1.000
    H103     H        0.41480    0.23050    0.94020    1.000
    C166     C        0.41550    0.47500    0.07830    1.000
    H104     H        0.43970    0.52590    0.10260    1.000
    C167     C        0.40960    0.13540    0.85360    1.000
    H105     H        0.43410    0.11530    0.87760    1.000
    C168     C        0.36110    0.35650    0.85480    1.000
    C169     C        0.35130    0.12920    0.74530    1.000
    H106     H        0.33520    0.10310    0.69570    1.000
    C170     C        0.38010    0.45190    0.23400    1.000
    H107     H        0.37240    0.40020    0.21420    1.000
    C171     C        0.29880    0.56540    0.71000    1.000
    H108     H        0.26130    0.58630    0.70850    1.000
    C172     C        0.40520    0.60480    0.29510    1.000
    H109     H        0.41540    0.65670    0.31490    1.000
    C173     C        0.41020    0.43130    0.00420    1.000
    H110     H        0.43120    0.45340    0.97940    1.000
    C174     C        0.40210    0.61450    0.41290    1.000
    C175     C        0.41280    0.36880    0.82300    1.000
    H111     H        0.45070    0.34860    0.82520    1.000
    C176     C        0.30520    0.43140    0.81640    1.000
    H112     H        0.26880    0.45420    0.81700    1.000
    C177     C        0.40720    0.54230    0.67980    1.000
    H113     H        0.44390    0.54900    0.65860    1.000
    C178     C        0.30490    0.38550    0.85020    1.000
    H114     H        0.26710    0.37540    0.86890    1.000
    C179     C        0.41060    0.41020    0.78790    1.000
    H115     H        0.44660    0.41690    0.76600    1.000
    C180     C        0.39850    0.56120    0.22370    1.000
    H116     H        0.40200    0.58480    0.19550    1.000
    N8       N        0.36610    0.31510    0.89230    1.000
    O19      O        0.35350    0.74380    0.57330    1.000
    O20      O        0.30540    0.66090    0.65040    1.000
    O21      O        0.38240    0.58100    0.44750    1.000
    O22      O        0.46700    0.78420    0.63210    1.000
    O23      O        0.43020    0.68160    0.44570    1.000
    O24      O        0.38380    0.61120    0.59580    1.000
    Zn6      Zn       0.42280    0.66659    0.54767    1.000
