data_functionalizedCrystal
_audit_creation_method	'EQeq! by Chris Wilmer'
_symmetry_space_group_name_H-M	'P1'
_symmetry_Int_Tables_number	1
_symmetry_cell_setting	triclinic
loop_
_symmetry_equiv_pos_as_xyz
  x,y,z
_cell_length_a	7.3494
_cell_length_b	11.475
_cell_length_c	16.1852
_cell_angle_alpha	78.799
_cell_angle_beta	82.483
_cell_angle_gamma	79.955
loop_
_atom_site_label
_atom_site_type_symbol
_atom_site_fract_x
_atom_site_fract_y
_atom_site_fract_z
_atom_site_charge
Mof_Dy	Dy	0.05846	0.93402	0.22637	1.823
Mof_Dy	Dy	0.55571	0.73545	0.23603	2.147
Mof_Dy	Dy	0.94154	0.06598	0.77363	1.823
Mof_Dy	Dy	0.44429	0.26456	0.76397	2.147
Mof_H 	H 	0.0053	0.7929	0.033	0.265
Mof_H 	H 	0.429	0.2694	0.0201	0.285
Mof_H 	H 	0.1537	0.7444	0.4406	0.28
Mof_H 	H 	0.1512	0.1234	0.4032	0.27
Mof_H 	H 	0.1254	0.6147	0.8932	0.095
Mof_H 	H 	0.3498	0.4588	0.1533	0.077
Mof_H 	H 	0.7813	0.4946	0.4107	0.064
Mof_H 	H 	0.6149	0.8207	0.453	0.071
Mof_H 	H 	0.7973	0.0459	0.9703	0.067
Mof_H 	H 	0.9947	0.2071	0.967	0.265
Mof_H 	H 	0.571	0.7306	0.9799	0.285
Mof_H 	H 	0.8463	0.2556	0.5594	0.28
Mof_H 	H 	0.8488	0.8766	0.5968	0.27
Mof_H 	H 	0.8746	0.3853	0.1068	0.095
Mof_H 	H 	0.6502	0.5412	0.8467	0.077
Mof_H 	H 	0.2187	0.5054	0.5893	0.064
Mof_H 	H 	0.3851	0.1793	0.547	0.071
Mof_H 	H 	0.2027	0.9541	0.0297	0.067
Mof_C 	C 	0.206	0.6074	0.0873	-0.182
Mof_C 	C 	0.1297	0.6511	0.01	0.242
Mof_C 	C 	0.1653	0.5826	0.9463	-0.101
Mof_C 	C 	0.2604	0.4662	0.9617	-0.114
Mof_C 	C 	0.3231	0.4185	0.0405	0.215
Mof_C 	C 	0.3011	0.4894	0.1019	-0.07
Mof_C 	C 	0.1921	0.6858	0.152	0.469
Mof_C 	C 	0.2986	0.3952	0.8921	0.341
Mof_C 	C 	0.0987	0.5959	0.4858	0.241
Mof_C 	C 	0.9671	0.5938	0.431	-0.2
Mof_C 	C 	0.8694	0.497	0.4464	-0.069
Mof_C 	C 	0.9285	0.6916	0.357	0.529
Mof_C 	C 	0.3502	0.0759	0.464	0.23
Mof_C 	C 	0.5685	0.8927	0.472	-0.08
Mof_C 	C 	0.4179	0.9681	0.4361	-0.196
Mof_C 	C 	0.3374	0.9306	0.3663	0.489
Mof_C 	C 	0.6769	0.0279	0.9816	-0.105
Mof_C 	C 	0.4329	0.9528	0.0854	0.238
Mof_C 	C 	0.6132	0.9829	0.0647	-0.167
Mof_C 	C 	0.7479	0.9651	0.1285	0.419
Mof_C 	C 	0.794	0.3926	0.9127	-0.182
Mof_C 	C 	0.8703	0.3489	0.99	0.242
Mof_C 	C 	0.8347	0.4174	0.0537	-0.101
Mof_C 	C 	0.7396	0.5338	0.0383	-0.114
Mof_C 	C 	0.6769	0.5815	0.9595	0.215
Mof_C 	C 	0.6989	0.5106	0.8981	-0.07
Mof_C 	C 	0.8079	0.3142	0.848	0.469
Mof_C 	C 	0.7014	0.6048	0.1079	0.341
Mof_C 	C 	0.9013	0.4041	0.5142	0.241
Mof_C 	C 	0.0329	0.4062	0.569	-0.2
Mof_C 	C 	0.1306	0.503	0.5536	-0.069
Mof_C 	C 	0.0715	0.3084	0.643	0.529
Mof_C 	C 	0.6498	0.9241	0.536	0.23
Mof_C 	C 	0.4315	0.1073	0.528	-0.08
Mof_C 	C 	0.5821	0.0319	0.5639	-0.196
Mof_C 	C 	0.6626	0.0694	0.6337	0.489
Mof_C 	C 	0.3231	0.9721	0.0184	-0.105
Mof_C 	C 	0.5671	0.0472	0.9146	0.238
Mof_C 	C 	0.3868	0.0171	0.9353	-0.167
Mof_C 	C 	0.2521	0.0349	0.8715	0.419
Mof_O 	O 	0.0742	0.7803	0.1455	-0.505
Mof_O 	O 	0.3021	0.6563	0.20938	-0.553
Mof_O 	O 	0.2671	0.4425	0.8175	-0.428
Mof_O 	O 	0.3723	0.2856	0.9086	-0.468
Mof_O 	O 	0.0181	0.7582	0.9924	-0.417
Mof_O 	O 	0.4188	0.3038	0.0608	-0.426
Mof_O 	O 	0.0213	0.7787	0.34341	-0.539
Mof_O 	O 	0.8089	0.6825	0.3126	-0.574
Mof_O 	O 	0.2023	0.6868	0.4731	-0.44
Mof_O 	O 	0.411	0.8336	0.3421	-0.585
Mof_O 	O 	0.1971	0.9958	0.336	-0.525
Mof_O 	O 	0.2031	0.1553	0.4327	-0.431
Mof_O 	O 	0.7288	0.8935	0.19893	-0.597
Mof_O 	O 	0.8868	0.0188	0.11176	-0.472
Mof_O 	O 	0.3665	0.9061	0.16515	-0.613
Mof_O 	O 	0.9258	0.2197	0.8545	-0.505
Mof_O 	O 	0.6979	0.3437	0.79062	-0.553
Mof_O 	O 	0.7329	0.5575	0.1825	-0.428
Mof_O 	O 	0.6277	0.7144	0.0914	-0.468
Mof_O 	O 	0.9819	0.2418	0.0076	-0.417
Mof_O 	O 	0.5812	0.6962	0.9392	-0.426
Mof_O 	O 	0.9787	0.2213	0.65659	-0.539
Mof_O 	O 	0.1911	0.3175	0.6874	-0.574
Mof_O 	O 	0.7977	0.3132	0.5269	-0.44
Mof_O 	O 	0.589	0.1664	0.6579	-0.585
Mof_O 	O 	0.8029	0.0042	0.664	-0.525
Mof_O 	O 	0.7969	0.8447	0.5673	-0.431
Mof_O 	O 	0.2712	0.1065	0.80107	-0.597
Mof_O 	O 	0.1132	0.9812	0.88824	-0.472
Mof_O 	O 	0.6335	0.0939	0.83485	-0.613
_end
