data_functionalizedCrystal
_audit_creation_method	'EQeq! by Chris Wilmer'
_symmetry_space_group_name_H-M	'P1'
_symmetry_Int_Tables_number	1
_symmetry_cell_setting	triclinic
loop_
_symmetry_equiv_pos_as_xyz
  x,y,z
_cell_length_a	11.084
_cell_length_b	24.944
_cell_length_c	23.284
_cell_angle_alpha	90
_cell_angle_beta	96.974
_cell_angle_gamma	90
loop_
_atom_site_label
_atom_site_type_symbol
_atom_site_fract_x
_atom_site_fract_y
_atom_site_fract_z
_atom_site_charge
Mof_Ag	Ag	0.24532	0.87136	0.9073	0.534
Mof_C 	C 	0.2334	0.9085	0.7791	0.066
Mof_H 	H 	0.2677	0.9387	0.798	-0.014
Mof_C 	C 	0.2058	0.9099	0.7184	-0.127
Mof_H 	H 	0.2227	0.9404	0.6978	0.079
Mof_C 	C 	0.1529	0.8653	0.6894	0.06
Mof_C 	C 	0.136	0.8197	0.7218	-0.136
Mof_H 	H 	0.1037	0.7886	0.704	0.083
Mof_C 	C 	0.1681	0.8216	0.7807	0.082
Mof_H 	H 	0.1586	0.7903	0.8015	-0.017
Mof_C 	C 	0.1968	0.0541	0.5111	0.081
Mof_H 	H 	0.2227	0.0846	0.5318	-0.017
Mof_C 	C 	0.1725	0.0079	0.541	-0.137
Mof_H 	H 	0.1805	0.0079	0.5813	0.083
Mof_C 	C 	0.1368	0.9624	0.5108	0.066
Mof_C 	C 	0.125	0.9634	0.4518	-0.131
Mof_H 	H 	0.1025	0.9326	0.4307	0.081
Mof_C 	C 	0.1472	0.0122	0.4226	0.07
Mof_H 	H 	0.1361	0.0136	0.3823	-0.017
Mof_C 	C 	0.8821	0.7402	0.4269	0.061
Mof_H 	H 	0.859	0.7418	0.3872	-0.014
Mof_C 	C 	0.9359	0.7838	0.4551	-0.133
Mof_H 	H 	0.9494	0.8146	0.4342	0.076
Mof_C 	C 	0.97	0.7826	0.5138	0.052
Mof_C 	C 	0.9474	0.7377	0.5431	-0.137
Mof_H 	H 	0.967	0.736	0.583	0.077
Mof_C 	C 	0.8935	0.6935	0.5123	0.067
Mof_H 	H 	0.8798	0.6623	0.5326	-0.019
Mof_C 	C 	0.0313	0.8291	0.5436	0.112
Mof_C 	C 	0.119	0.8668	0.6278	0.098
Mof_C 	C 	0.1112	0.9124	0.5421	0.105
Mof_N 	N 	0.2118	0.8647	0.8109	-0.204
Mof_N 	N 	0.184	0.0558	0.4533	-0.205
Mof_N 	N 	0.8619	0.6945	0.4562	-0.206
Mof_N 	N 	0.0616	0.8238	0.6007	-0.136
Mof_N 	N 	0.1485	0.9111	0.5989	-0.136
Mof_N 	N 	0.0553	0.8727	0.5128	-0.139
Mof_Ag	Ag	0.74532	0.37136	0.9073	0.528
Mof_C 	C 	0.7334	0.4085	0.7791	0.064
Mof_H 	H 	0.7677	0.4387	0.798	-0.014
Mof_C 	C 	0.7058	0.4099	0.7184	-0.126
Mof_H 	H 	0.7227	0.4404	0.6978	0.078
Mof_C 	C 	0.6529	0.3653	0.6894	0.059
Mof_C 	C 	0.636	0.3197	0.7218	-0.136
Mof_H 	H 	0.6037	0.2886	0.704	0.08
Mof_C 	C 	0.6681	0.3216	0.7807	0.079
Mof_H 	H 	0.6586	0.2903	0.8015	-0.018
Mof_C 	C 	0.6968	0.5541	0.5111	0.078
Mof_H 	H 	0.7227	0.5846	0.5318	-0.018
Mof_C 	C 	0.6725	0.5079	0.541	-0.137
Mof_H 	H 	0.6805	0.5079	0.5813	0.081
Mof_C 	C 	0.6368	0.4624	0.5108	0.063
Mof_C 	C 	0.625	0.4634	0.4518	-0.131
Mof_H 	H 	0.6025	0.4326	0.4307	0.078
Mof_C 	C 	0.6472	0.5122	0.4226	0.068
Mof_H 	H 	0.6361	0.5136	0.3823	-0.019
Mof_C 	C 	0.3821	0.2402	0.4269	0.068
Mof_H 	H 	0.359	0.2418	0.3872	-0.014
Mof_C 	C 	0.4359	0.2838	0.4551	-0.142
Mof_H 	H 	0.4494	0.3146	0.4342	0.083
Mof_C 	C 	0.47	0.2826	0.5138	0.07
Mof_C 	C 	0.4474	0.2377	0.5431	-0.146
Mof_H 	H 	0.467	0.236	0.583	0.084
Mof_C 	C 	0.3935	0.1935	0.5123	0.074
Mof_H 	H 	0.3798	0.1623	0.5326	-0.019
Mof_C 	C 	0.5313	0.3291	0.5436	0.098
Mof_C 	C 	0.619	0.3668	0.6278	0.096
Mof_C 	C 	0.6112	0.4124	0.5421	0.104
Mof_N 	N 	0.7118	0.3647	0.8109	-0.204
Mof_N 	N 	0.684	0.5558	0.4533	-0.205
Mof_N 	N 	0.3619	0.1945	0.4562	-0.207
Mof_N 	N 	0.5616	0.3238	0.6007	-0.136
Mof_N 	N 	0.6485	0.4111	0.5989	-0.137
Mof_N 	N 	0.5553	0.3727	0.5128	-0.139
Mof_Ag	Ag	0.24532	0.12864	0.4073	0.535
Mof_C 	C 	0.2334	0.0915	0.2791	0.067
Mof_H 	H 	0.2677	0.0613	0.298	-0.013
Mof_C 	C 	0.2058	0.0901	0.2184	-0.126
Mof_H 	H 	0.2227	0.0596	0.1978	0.08
Mof_C 	C 	0.1529	0.1347	0.1894	0.061
Mof_C 	C 	0.136	0.1803	0.2218	-0.136
Mof_H 	H 	0.1037	0.2114	0.204	0.083
Mof_C 	C 	0.1681	0.1784	0.2807	0.082
Mof_H 	H 	0.1586	0.2097	0.3015	-0.017
Mof_C 	C 	0.1968	0.9459	0.0111	0.077
Mof_H 	H 	0.2227	0.9154	0.0318	-0.016
Mof_C 	C 	0.1725	0.9921	0.041	-0.133
Mof_H 	H 	0.1805	0.9921	0.0813	0.082
Mof_C 	C 	0.1368	0.0376	0.0108	0.06
Mof_C 	C 	0.125	0.0366	0.9518	-0.125
Mof_H 	H 	0.1025	0.0674	0.9307	0.079
Mof_C 	C 	0.1472	0.9878	0.9226	0.068
Mof_H 	H 	0.1361	0.9864	0.8823	-0.016
Mof_C 	C 	0.8821	0.2598	0.9269	0.059
Mof_H 	H 	0.859	0.2582	0.8872	-0.013
Mof_C 	C 	0.9359	0.2162	0.9551	-0.128
Mof_H 	H 	0.9494	0.1854	0.9342	0.075
Mof_C 	C 	0.97	0.2174	0.0138	0.048
Mof_C 	C 	0.9474	0.2623	0.0431	-0.133
Mof_H 	H 	0.967	0.264	0.083	0.076
Mof_C 	C 	0.8935	0.3065	0.0123	0.063
Mof_H 	H 	0.8798	0.3377	0.0326	-0.018
Mof_C 	C 	0.0313	0.1709	0.0436	0.113
Mof_C 	C 	0.119	0.1332	0.1278	0.098
Mof_C 	C 	0.1112	0.0876	0.0421	0.106
Mof_N 	N 	0.2118	0.1353	0.3109	-0.204
Mof_N 	N 	0.184	0.9442	0.9533	-0.203
Mof_N 	N 	0.8619	0.3055	0.9562	-0.204
Mof_N 	N 	0.0616	0.1762	0.1007	-0.136
Mof_N 	N 	0.1485	0.0889	0.0989	-0.137
Mof_N 	N 	0.0553	0.1273	0.0128	-0.14
Mof_Ag	Ag	0.74532	0.62864	0.4073	0.527
Mof_C 	C 	0.7334	0.5915	0.2791	0.064
Mof_H 	H 	0.7677	0.5613	0.298	-0.014
Mof_C 	C 	0.7058	0.5901	0.2184	-0.126
Mof_H 	H 	0.7227	0.5596	0.1978	0.078
Mof_C 	C 	0.6529	0.6347	0.1894	0.059
Mof_C 	C 	0.636	0.6803	0.2218	-0.136
Mof_H 	H 	0.6037	0.7114	0.204	0.08
Mof_C 	C 	0.6681	0.6784	0.2807	0.079
Mof_H 	H 	0.6586	0.7097	0.3015	-0.018
Mof_C 	C 	0.6968	0.4459	0.0111	0.074
Mof_H 	H 	0.7227	0.4154	0.0318	-0.017
Mof_C 	C 	0.6725	0.4921	0.041	-0.134
Mof_H 	H 	0.6805	0.4921	0.0813	0.08
Mof_C 	C 	0.6368	0.5376	0.0108	0.059
Mof_C 	C 	0.625	0.5366	0.9518	-0.127
Mof_H 	H 	0.6025	0.5674	0.9307	0.077
Mof_C 	C 	0.6472	0.4878	0.9226	0.066
Mof_H 	H 	0.6361	0.4864	0.8823	-0.018
Mof_C 	C 	0.3821	0.7598	0.9269	0.066
Mof_H 	H 	0.359	0.7582	0.8872	-0.014
Mof_C 	C 	0.4359	0.7162	0.9551	-0.138
Mof_H 	H 	0.4494	0.6854	0.9342	0.082
Mof_C 	C 	0.47	0.7174	0.0138	0.067
Mof_C 	C 	0.4474	0.7623	0.0431	-0.143
Mof_H 	H 	0.467	0.764	0.083	0.083
Mof_C 	C 	0.3935	0.8065	0.0123	0.071
Mof_H 	H 	0.3798	0.8377	0.0326	-0.018
Mof_C 	C 	0.5313	0.6709	0.0436	0.099
Mof_C 	C 	0.619	0.6332	0.1278	0.096
Mof_C 	C 	0.6112	0.5876	0.0421	0.105
Mof_N 	N 	0.7118	0.6353	0.3109	-0.204
Mof_N 	N 	0.684	0.4442	0.9533	-0.204
Mof_N 	N 	0.3619	0.8055	0.9562	-0.206
Mof_N 	N 	0.5616	0.6762	0.1007	-0.136
Mof_N 	N 	0.6485	0.5889	0.0989	-0.137
Mof_N 	N 	0.5553	0.6273	0.0128	-0.14
Mof_Ag	Ag	0.91618	0.86186	0.88651	0.5
Mof_C 	C 	0.8855	0.9096	0.7603	0.088
Mof_H 	H 	0.9195	0.939	0.7808	-0.021
Mof_C 	C 	0.856	0.9153	0.7016	-0.147
Mof_H 	H 	0.8655	0.948	0.6835	0.084
Mof_C 	C 	0.8116	0.8707	0.6702	0.074
Mof_C 	C 	0.7993	0.8237	0.7006	-0.154
Mof_H 	H 	0.7695	0.793	0.681	0.086
Mof_C 	C 	0.8299	0.8221	0.7578	0.095
Mof_H 	H 	0.8236	0.7895	0.7764	-0.023
Mof_C 	C 	0.8849	0.0606	0.4927	0.066
Mof_H 	H 	0.9189	0.0899	0.5135	-0.019
Mof_C 	C 	0.858	0.0136	0.5229	-0.135
Mof_H 	H 	0.8726	0.0123	0.563	0.08
Mof_C 	C 	0.8101	0.97	0.4922	0.064
Mof_C 	C 	0.7887	0.9732	0.4334	-0.141
Mof_H 	H 	0.7543	0.9444	0.4119	0.08
Mof_C 	C 	0.8187	0.0197	0.4061	0.069
Mof_H 	H 	0.8081	0.0206	0.3659	-0.015
Mof_C 	C 	0.5378	0.7521	0.4051	0.082
Mof_H 	H 	0.5112	0.7547	0.3657	-0.021
Mof_C 	C 	0.5955	0.7956	0.4329	-0.152
Mof_H 	H 	0.6075	0.8265	0.412	0.083
Mof_C 	C 	0.6347	0.7937	0.4901	0.072
Mof_C 	C 	0.6144	0.7457	0.5189	-0.147
Mof_H 	H 	0.6392	0.742	0.5583	0.086
Mof_C 	C 	0.5562	0.7038	0.487	0.091
Mof_H 	H 	0.5436	0.672	0.5062	-0.028
Mof_C 	C 	0.6969	0.8383	0.5229	0.099
Mof_C 	C 	0.7819	0.8744	0.6073	0.095
Mof_C 	C 	0.781	0.921	0.5229	0.099
Mof_N 	N 	0.8692	0.8648	0.7903	-0.205
Mof_N 	N 	0.8628	0.0638	0.4351	-0.208
Mof_N 	N 	0.5189	0.7065	0.4324	-0.22
Mof_N 	N 	0.7218	0.8332	0.5792	-0.136
Mof_N 	N 	0.814	0.9193	0.5803	-0.136
Mof_N 	N 	0.7251	0.8815	0.4918	-0.139
Mof_Ag	Ag	0.41618	0.36186	0.88651	0.513
Mof_C 	C 	0.3855	0.4096	0.7603	0.09
Mof_H 	H 	0.4195	0.439	0.7808	-0.019
Mof_C 	C 	0.356	0.4153	0.7016	-0.146
Mof_H 	H 	0.3655	0.448	0.6835	0.086
Mof_C 	C 	0.3116	0.3707	0.6702	0.075
Mof_C 	C 	0.2993	0.3237	0.7006	-0.153
Mof_H 	H 	0.2695	0.293	0.681	0.088
Mof_C 	C 	0.3299	0.3221	0.7578	0.097
Mof_H 	H 	0.3236	0.2895	0.7764	-0.022
Mof_C 	C 	0.3849	0.5606	0.4927	0.067
Mof_H 	H 	0.4189	0.5899	0.5135	-0.017
Mof_C 	C 	0.358	0.5136	0.5229	-0.134
Mof_H 	H 	0.3726	0.5123	0.563	0.081
Mof_C 	C 	0.3101	0.47	0.4922	0.065
Mof_C 	C 	0.2887	0.4732	0.4334	-0.141
Mof_H 	H 	0.2543	0.4444	0.4119	0.082
Mof_C 	C 	0.3187	0.5197	0.4061	0.071
Mof_H 	H 	0.3081	0.5206	0.3659	-0.015
Mof_C 	C 	0.0378	0.2521	0.4051	0.083
Mof_H 	H 	0.0112	0.2547	0.3657	-0.019
Mof_C 	C 	0.0955	0.2956	0.4329	-0.15
Mof_H 	H 	0.1075	0.3265	0.412	0.085
Mof_C 	C 	0.1347	0.2937	0.4901	0.073
Mof_C 	C 	0.1144	0.2457	0.5189	-0.145
Mof_H 	H 	0.1392	0.242	0.5583	0.087
Mof_C 	C 	0.0562	0.2038	0.487	0.092
Mof_H 	H 	0.0436	0.172	0.5062	-0.025
Mof_C 	C 	0.1969	0.3383	0.5229	0.1
Mof_C 	C 	0.2819	0.3744	0.6073	0.096
Mof_C 	C 	0.281	0.421	0.5229	0.101
Mof_N 	N 	0.3692	0.3648	0.7903	-0.205
Mof_N 	N 	0.3628	0.5638	0.4351	-0.208
Mof_N 	N 	0.0189	0.2065	0.4324	-0.216
Mof_N 	N 	0.2218	0.3332	0.5792	-0.135
Mof_N 	N 	0.314	0.4193	0.5803	-0.135
Mof_N 	N 	0.2251	0.3815	0.4918	-0.139
Mof_Ag	Ag	0.91618	0.13814	0.38651	0.499
Mof_C 	C 	0.8855	0.0904	0.2603	0.088
Mof_H 	H 	0.9195	0.061	0.2808	-0.021
Mof_C 	C 	0.856	0.0847	0.2016	-0.147
Mof_H 	H 	0.8655	0.052	0.1835	0.084
Mof_C 	C 	0.8116	0.1293	0.1702	0.074
Mof_C 	C 	0.7993	0.1763	0.2006	-0.154
Mof_H 	H 	0.7695	0.207	0.181	0.086
Mof_C 	C 	0.8299	0.1779	0.2578	0.095
Mof_H 	H 	0.8236	0.2105	0.2764	-0.023
Mof_C 	C 	0.8849	0.9394	0.9927	0.074
Mof_H 	H 	0.9189	0.9101	0.0135	-0.023
Mof_C 	C 	0.858	0.9864	0.0229	-0.145
Mof_H 	H 	0.8726	0.9877	0.063	0.083
Mof_C 	C 	0.8101	0.03	0.9922	0.072
Mof_C 	C 	0.7887	0.0268	0.9334	-0.146
Mof_H 	H 	0.7543	0.0556	0.9119	0.082
Mof_C 	C 	0.8187	0.9803	0.9061	0.072
Mof_H 	H 	0.8081	0.9794	0.8659	-0.016
Mof_C 	C 	0.5378	0.2479	0.9051	0.086
Mof_H 	H 	0.5112	0.2453	0.8657	-0.023
Mof_C 	C 	0.5955	0.2044	0.9329	-0.158
Mof_H 	H 	0.6075	0.1735	0.912	0.086
Mof_C 	C 	0.6347	0.2063	0.9901	0.081
Mof_C 	C 	0.6144	0.2543	0.0189	-0.159
Mof_H 	H 	0.6392	0.258	0.0583	0.09
Mof_C 	C 	0.5562	0.2962	0.987	0.102
Mof_H 	H 	0.5436	0.328	0.0062	-0.033
Mof_C 	C 	0.6969	0.1617	0.0229	0.093
Mof_C 	C 	0.7819	0.1256	0.1073	0.094
Mof_C 	C 	0.781	0.079	0.0229	0.093
Mof_N 	N 	0.8692	0.1352	0.2903	-0.205
Mof_N 	N 	0.8628	0.9362	0.9351	-0.21
Mof_N 	N 	0.5189	0.2935	0.9324	-0.223
Mof_N 	N 	0.7218	0.1668	0.0792	-0.135
Mof_N 	N 	0.814	0.0807	0.0803	-0.136
Mof_N 	N 	0.7251	0.1185	0.9918	-0.136
Mof_Ag	Ag	0.41618	0.63814	0.38651	0.512
Mof_C 	C 	0.3855	0.5904	0.2603	0.09
Mof_H 	H 	0.4195	0.561	0.2808	-0.019
Mof_C 	C 	0.356	0.5847	0.2016	-0.146
Mof_H 	H 	0.3655	0.552	0.1835	0.086
Mof_C 	C 	0.3116	0.6293	0.1702	0.075
Mof_C 	C 	0.2993	0.6763	0.2006	-0.153
Mof_H 	H 	0.2695	0.707	0.181	0.088
Mof_C 	C 	0.3299	0.6779	0.2578	0.097
Mof_H 	H 	0.3236	0.7105	0.2764	-0.022
Mof_C 	C 	0.3849	0.4394	0.9927	0.076
Mof_H 	H 	0.4189	0.4101	0.0135	-0.021
Mof_C 	C 	0.358	0.4864	0.0229	-0.145
Mof_H 	H 	0.3726	0.4877	0.063	0.085
Mof_C 	C 	0.3101	0.53	0.9922	0.074
Mof_C 	C 	0.2887	0.5268	0.9334	-0.146
Mof_H 	H 	0.2543	0.5556	0.9119	0.083
Mof_C 	C 	0.3187	0.4803	0.9061	0.074
Mof_H 	H 	0.3081	0.4794	0.8659	-0.016
Mof_C 	C 	0.0378	0.7479	0.9051	0.086
Mof_H 	H 	0.0112	0.7453	0.8657	-0.02
Mof_C 	C 	0.0955	0.7044	0.9329	-0.155
Mof_H 	H 	0.1075	0.6735	0.912	0.086
Mof_C 	C 	0.1347	0.7063	0.9901	0.079
Mof_C 	C 	0.1144	0.7543	0.0189	-0.154
Mof_H 	H 	0.1392	0.758	0.0583	0.09
Mof_C 	C 	0.0562	0.7962	0.987	0.099
Mof_H 	H 	0.0436	0.828	0.0062	-0.029
Mof_C 	C 	0.1969	0.6617	0.0229	0.096
Mof_C 	C 	0.2819	0.6256	0.1073	0.096
Mof_C 	C 	0.281	0.579	0.0229	0.096
Mof_N 	N 	0.3692	0.6352	0.2903	-0.205
Mof_N 	N 	0.3628	0.4362	0.9351	-0.21
Mof_N 	N 	0.0189	0.7935	0.9324	-0.218
Mof_N 	N 	0.2218	0.6668	0.0792	-0.135
Mof_N 	N 	0.314	0.5807	0.0803	-0.135
Mof_N 	N 	0.2251	0.6185	0.9918	-0.136
Mof_Ag	Ag	0.61941	0.86325	0.94374	0.545
Mof_C 	C 	0.5358	0.8244	0.8166	0.088
Mof_H 	H 	0.5336	0.7921	0.8365	-0.025
Mof_C 	C 	0.5108	0.8233	0.7581	-0.149
Mof_H 	H 	0.4931	0.7911	0.7387	0.083
Mof_C 	C 	0.5124	0.8718	0.7273	0.067
Mof_C 	C 	0.5418	0.9174	0.7573	-0.141
Mof_H 	H 	0.5439	0.95	0.7382	0.081
Mof_C 	C 	0.5687	0.9146	0.8174	0.069
Mof_H 	H 	0.5916	0.9458	0.8378	-0.016
Mof_C 	C 	0.5945	0.0586	0.5504	0.105
Mof_H 	H 	0.6374	0.0858	0.571	-0.023
Mof_C 	C 	0.5687	0.0121	0.5794	-0.169
Mof_H 	H 	0.59	0.0091	0.6191	0.092
Mof_C 	C 	0.5127	0.9717	0.5491	0.091
Mof_C 	C 	0.4786	0.9758	0.4911	-0.158
Mof_H 	H 	0.4414	0.9477	0.4696	0.092
Mof_C 	C 	0.5027	0.025	0.4658	0.09
Mof_H 	H 	0.4771	0.0298	0.4266	-0.029
Mof_C 	C 	0.2406	0.7496	0.4605	0.076
Mof_H 	H 	0.2134	0.7517	0.4212	-0.021
Mof_C 	C 	0.302	0.7945	0.4883	-0.124
Mof_H 	H 	0.32	0.8243	0.4668	0.08
Mof_C 	C 	0.3351	0.7933	0.549	0.058
Mof_C 	C 	0.3105	0.7465	0.5774	-0.136
Mof_H 	H 	0.3324	0.7429	0.617	0.082
Mof_C 	C 	0.2516	0.7048	0.5449	0.086
Mof_H 	H 	0.2326	0.6743	0.5649	-0.017
Mof_C 	C 	0.3972	0.8382	0.5795	0.105
Mof_C 	C 	0.4853	0.8732	0.6639	0.097
Mof_C 	C 	0.4831	0.9192	0.5803	0.098
Mof_N 	N 	0.5628	0.8681	0.847	-0.214
Mof_N 	N 	0.5607	0.0654	0.4952	-0.209
Mof_N 	N 	0.221	0.705	0.4886	-0.21
Mof_N 	N 	0.4253	0.8323	0.6361	-0.139
Mof_N 	N 	0.5188	0.9171	0.6367	-0.139
Mof_N 	N 	0.4225	0.8814	0.5486	-0.138
Mof_Ag	Ag	0.11941	0.36325	0.94374	0.554
Mof_C 	C 	0.0358	0.3244	0.8166	0.079
Mof_H 	H 	0.0336	0.2921	0.8365	-0.019
Mof_C 	C 	0.0108	0.3233	0.7581	-0.128
Mof_H 	H 	0.9931	0.2911	0.7387	0.069
Mof_C 	C 	0.0124	0.3718	0.7273	0.073
Mof_C 	C 	0.0418	0.4174	0.7573	-0.142
Mof_H 	H 	0.0439	0.45	0.7382	0.084
Mof_C 	C 	0.0687	0.4146	0.8174	0.071
Mof_H 	H 	0.0916	0.4458	0.8378	-0.015
Mof_C 	C 	0.0945	0.5586	0.5504	0.128
Mof_H 	H 	0.1374	0.5858	0.571	-0.03
Mof_C 	C 	0.0687	0.5121	0.5794	-0.206
Mof_H 	H 	0.09	0.5091	0.6191	0.106
Mof_C 	C 	0.0127	0.4717	0.5491	0.144
Mof_C 	C 	0.9786	0.4758	0.4911	-0.228
Mof_H 	H 	0.9414	0.4477	0.4696	0.114
Mof_C 	C 	0.0027	0.525	0.4658	0.15
Mof_H 	H 	0.9771	0.5298	0.4266	-0.057
Mof_C 	C 	0.7406	0.2496	0.4605	0.074
Mof_H 	H 	0.7134	0.2517	0.4212	-0.022
Mof_C 	C 	0.802	0.2945	0.4883	-0.124
Mof_H 	H 	0.82	0.3243	0.4668	0.078
Mof_C 	C 	0.8351	0.2933	0.549	0.057
Mof_C 	C 	0.8105	0.2465	0.5774	-0.137
Mof_H 	H 	0.8324	0.2429	0.617	0.081
Mof_C 	C 	0.7516	0.2048	0.5449	0.084
Mof_H 	H 	0.7326	0.1743	0.5649	-0.018
Mof_C 	C 	0.8972	0.3382	0.5795	0.102
Mof_C 	C 	0.9853	0.3732	0.6639	0.08
Mof_C 	C 	0.9831	0.4192	0.5803	0.07
Mof_N 	N 	0.0628	0.3681	0.847	-0.212
Mof_N 	N 	0.0607	0.5654	0.4952	-0.223
Mof_N 	N 	0.721	0.205	0.4886	-0.21
Mof_N 	N 	0.9253	0.3323	0.6361	-0.137
Mof_N 	N 	0.0188	0.4171	0.6367	-0.125
Mof_N 	N 	0.9225	0.3814	0.5486	-0.134
Mof_Ag	Ag	0.61941	0.13675	0.44374	0.545
Mof_C 	C 	0.5358	0.1756	0.3166	0.088
Mof_H 	H 	0.5336	0.2079	0.3365	-0.025
Mof_C 	C 	0.5108	0.1767	0.2581	-0.149
Mof_H 	H 	0.4931	0.2089	0.2387	0.083
Mof_C 	C 	0.5124	0.1282	0.2273	0.067
Mof_C 	C 	0.5418	0.0826	0.2573	-0.141
Mof_H 	H 	0.5439	0.05	0.2382	0.081
Mof_C 	C 	0.5687	0.0854	0.3174	0.069
Mof_H 	H 	0.5916	0.0542	0.3378	-0.016
Mof_C 	C 	0.5945	0.9414	0.0504	0.101
Mof_H 	H 	0.6374	0.9142	0.071	-0.022
Mof_C 	C 	0.5687	0.9879	0.0794	-0.165
Mof_H 	H 	0.59	0.9909	0.1191	0.091
Mof_C 	C 	0.5127	0.0283	0.0491	0.085
Mof_C 	C 	0.4786	0.0242	0.9911	-0.152
Mof_H 	H 	0.4414	0.0523	0.9696	0.09
Mof_C 	C 	0.5027	0.975	0.9658	0.087
Mof_H 	H 	0.4771	0.9702	0.9266	-0.028
Mof_C 	C 	0.2406	0.2504	0.9605	0.075
Mof_H 	H 	0.2134	0.2483	0.9212	-0.021
Mof_C 	C 	0.302	0.2055	0.9883	-0.12
Mof_H 	H 	0.32	0.1757	0.9668	0.079
Mof_C 	C 	0.3351	0.2067	0.049	0.055
Mof_C 	C 	0.3105	0.2535	0.0774	-0.134
Mof_H 	H 	0.3324	0.2571	0.117	0.081
Mof_C 	C 	0.2516	0.2952	0.0449	0.083
Mof_H 	H 	0.2326	0.3257	0.0649	-0.016
Mof_C 	C 	0.3972	0.1618	0.0795	0.106
Mof_C 	C 	0.4853	0.1268	0.1639	0.097
Mof_C 	C 	0.4831	0.0808	0.0803	0.1
Mof_N 	N 	0.5628	0.1319	0.347	-0.214
Mof_N 	N 	0.5607	0.9346	0.9952	-0.207
Mof_N 	N 	0.221	0.295	0.9886	-0.209
Mof_N 	N 	0.4253	0.1677	0.1361	-0.139
Mof_N 	N 	0.5188	0.0829	0.1367	-0.14
Mof_N 	N 	0.4225	0.1186	0.0486	-0.139
Mof_Ag	Ag	0.11941	0.63675	0.44374	0.553
Mof_C 	C 	0.0358	0.6756	0.3166	0.079
Mof_H 	H 	0.0336	0.7079	0.3365	-0.019
Mof_C 	C 	0.0108	0.6767	0.2581	-0.128
Mof_H 	H 	0.9931	0.7089	0.2387	0.069
Mof_C 	C 	0.0124	0.6282	0.2273	0.073
Mof_C 	C 	0.0418	0.5826	0.2573	-0.142
Mof_H 	H 	0.0439	0.55	0.2382	0.084
Mof_C 	C 	0.0687	0.5854	0.3174	0.071
Mof_H 	H 	0.0916	0.5542	0.3378	-0.015
Mof_C 	C 	0.0945	0.4414	0.0504	0.124
Mof_H 	H 	0.1374	0.4142	0.071	-0.029
Mof_C 	C 	0.0687	0.4879	0.0794	-0.202
Mof_H 	H 	0.09	0.4909	0.1191	0.105
Mof_C 	C 	0.0127	0.5283	0.0491	0.14
Mof_C 	C 	0.9786	0.5242	0.9911	-0.223
Mof_H 	H 	0.9414	0.5523	0.9696	0.113
Mof_C 	C 	0.0027	0.475	0.9658	0.147
Mof_H 	H 	0.9771	0.4702	0.9266	-0.056
Mof_C 	C 	0.7406	0.7504	0.9605	0.073
Mof_H 	H 	0.7134	0.7483	0.9212	-0.022
Mof_C 	C 	0.802	0.7055	0.9883	-0.121
Mof_H 	H 	0.82	0.6757	0.9668	0.077
Mof_C 	C 	0.8351	0.7067	0.049	0.054
Mof_C 	C 	0.8105	0.7535	0.0774	-0.135
Mof_H 	H 	0.8324	0.7571	0.117	0.08
Mof_C 	C 	0.7516	0.7952	0.0449	0.081
Mof_H 	H 	0.7326	0.8257	0.0649	-0.017
Mof_C 	C 	0.8972	0.6618	0.0795	0.103
Mof_C 	C 	0.9853	0.6268	0.1639	0.08
Mof_C 	C 	0.9831	0.5808	0.0803	0.07
Mof_N 	N 	0.0628	0.6319	0.347	-0.212
Mof_N 	N 	0.0607	0.4346	0.9952	-0.221
Mof_N 	N 	0.721	0.795	0.9886	-0.209
Mof_N 	N 	0.9253	0.6677	0.1361	-0.137
Mof_N 	N 	0.0188	0.5829	0.1367	-0.125
Mof_N 	N 	0.9225	0.6186	0.0486	-0.135
_end
