data_functionalizedCrystal
_audit_creation_method	'EQeq! by Chris Wilmer'
_symmetry_space_group_name_H-M	'P1'
_symmetry_Int_Tables_number	1
_symmetry_cell_setting	triclinic
loop_
_symmetry_equiv_pos_as_xyz
  x,y,z
_cell_length_a	28.2645
_cell_length_b	28.2645
_cell_length_c	28.2645
_cell_angle_alpha	109.471
_cell_angle_beta	109.471
_cell_angle_gamma	109.471
loop_
_atom_site_label
_atom_site_type_symbol
_atom_site_fract_x
_atom_site_fract_y
_atom_site_fract_z
_atom_site_charge
Mof_Fe	Fe	0.5	0	-0	0.624
Mof_Fe	Fe	-0	0.5	-0	0.624
Mof_Fe	Fe	-0	0	0.5	0.624
Mof_Fe	Fe	0.5	0.5	0.5	0.68
Mof_Cu	Cu	-0	0.24272	0.24272	0.842
Mof_Cu	Cu	-2.61616e-17	0.75728	0.75728	0.844
Mof_Cu	Cu	0.75728	1.04646e-16	0.75728	0.844
Mof_Cu	Cu	0.24272	0	0.24272	0.842
Mof_Cu	Cu	0.75728	0.75728	-0	0.844
Mof_Cu	Cu	0.24272	0.24272	-0	0.842
Mof_H 	H 	0.7978	0.0872	0.0998	0.147
Mof_H 	H 	0.8254	0.1653	0.2609	0.157
Mof_H 	H 	0.721	0.0603	0.1165	0.173
Mof_H 	H 	0.8917	0.1469	0.134	-0.058
Mof_H 	H 	0.6458	0.9965	0.1989	0.033
Mof_H 	H 	0.6313	0.0536	0.0853	0.015
Mof_H 	H 	0.5436	0.9276	0.1376	0.078
Mof_H 	H 	0.9201	0.2178	0.2907	-0.037
Mof_H 	H 	0.9874	0.698	0.9002	0.175
Mof_H 	H 	0.9044	0.5645	0.7391	0.164
Mof_H 	H 	0.9438	0.6045	0.8835	0.182
Mof_H 	H 	0.0129	0.7577	0.866	-0.091
Mof_H 	H 	0.7976	0.4469	0.8011	0.038
Mof_H 	H 	0.9683	0.546	0.9147	0.023
Mof_H 	H 	0.79	0.406	0.8624	0.073
Mof_H 	H 	0.9271	0.6294	0.7093	-0.044
Mof_H 	H 	0.0126	0.9128	0.7106	0.138
Mof_H 	H 	0.0956	0.8347	0.6601	0.152
Mof_H 	H 	0.0562	0.9397	0.6607	0.176
Mof_H 	H 	0.9871	0.8531	0.7448	-0.019
Mof_H 	H 	0.2024	0.0035	0.6493	0.042
Mof_H 	H 	0.0317	0.9464	0.5777	0.005
Mof_H 	H 	0.21	0.0724	0.616	0.067
Mof_H 	H 	0.0729	0.7822	0.7023	-0.042
Mof_H 	H 	0.2022	0.302	0.2894	0.152
Mof_H 	H 	0.1746	0.4355	0.3399	0.156
Mof_H 	H 	0.279	0.3955	0.3393	0.177
Mof_H 	H 	0.1083	0.2423	0.2552	-0.062
Mof_H 	H 	0.3542	0.5531	0.3507	0.038
Mof_H 	H 	0.3687	0.454	0.4223	0.012
Mof_H 	H 	0.4564	0.594	0.384	0.073
Mof_H 	H 	0.0799	0.3706	0.2977	-0.048
Mof_H 	H 	0.7106	0.0126	0.9128	0.138
Mof_H 	H 	0.6601	0.0956	0.8347	0.152
Mof_H 	H 	0.6607	0.0562	0.9397	0.176
Mof_H 	H 	0.7448	0.9871	0.8531	-0.019
Mof_H 	H 	0.6493	0.2024	0.0035	0.042
Mof_H 	H 	0.5777	0.0317	0.9464	0.005
Mof_H 	H 	0.616	0.21	0.0724	0.067
Mof_H 	H 	0.7023	0.0729	0.7822	-0.042
Mof_H 	H 	0.2894	0.2022	0.302	0.152
Mof_H 	H 	0.3399	0.1746	0.4355	0.156
Mof_H 	H 	0.3393	0.279	0.3955	0.177
Mof_H 	H 	0.2552	0.1083	0.2423	-0.062
Mof_H 	H 	0.3507	0.3542	0.5531	0.038
Mof_H 	H 	0.4223	0.3687	0.454	0.012
Mof_H 	H 	0.384	0.4564	0.594	0.073
Mof_H 	H 	0.2977	0.0799	0.3706	-0.048
Mof_H 	H 	0.0998	0.7978	0.0872	0.147
Mof_H 	H 	0.2609	0.8254	0.1653	0.157
Mof_H 	H 	0.1165	0.721	0.0603	0.173
Mof_H 	H 	0.134	0.8917	0.1469	-0.058
Mof_H 	H 	0.1989	0.6458	0.9965	0.033
Mof_H 	H 	0.0853	0.6313	0.0536	0.015
Mof_H 	H 	0.1376	0.5436	0.9276	0.078
Mof_H 	H 	0.2907	0.9201	0.2178	-0.037
Mof_H 	H 	0.9002	0.9874	0.698	0.175
Mof_H 	H 	0.7391	0.9044	0.5645	0.164
Mof_H 	H 	0.8835	0.9438	0.6045	0.182
Mof_H 	H 	0.866	0.0129	0.7577	-0.091
Mof_H 	H 	0.8011	0.7976	0.4469	0.038
Mof_H 	H 	0.9147	0.9683	0.546	0.023
Mof_H 	H 	0.8624	0.79	0.406	0.073
Mof_H 	H 	0.7093	0.9271	0.6294	-0.044
Mof_H 	H 	0.698	0.9002	0.9874	0.175
Mof_H 	H 	0.5645	0.7391	0.9044	0.164
Mof_H 	H 	0.6045	0.8835	0.9438	0.182
Mof_H 	H 	0.7577	0.866	0.0129	-0.091
Mof_H 	H 	0.4469	0.8011	0.7976	0.038
Mof_H 	H 	0.546	0.9147	0.9683	0.023
Mof_H 	H 	0.406	0.8624	0.79	0.073
Mof_H 	H 	0.6294	0.7093	0.9271	-0.044
Mof_H 	H 	0.0872	0.0998	0.7978	0.147
Mof_H 	H 	0.1653	0.2609	0.8254	0.157
Mof_H 	H 	0.0603	0.1165	0.721	0.173
Mof_H 	H 	0.1469	0.134	0.8917	-0.058
Mof_H 	H 	0.9965	0.1989	0.6458	0.033
Mof_H 	H 	0.0536	0.0853	0.6313	0.015
Mof_H 	H 	0.9276	0.1376	0.5436	0.078
Mof_H 	H 	0.2178	0.2907	0.9201	-0.037
Mof_H 	H 	0.302	0.2894	0.2022	0.152
Mof_H 	H 	0.4355	0.3399	0.1746	0.156
Mof_H 	H 	0.3955	0.3393	0.279	0.177
Mof_H 	H 	0.2423	0.2552	0.1083	-0.062
Mof_H 	H 	0.5531	0.3507	0.3542	0.038
Mof_H 	H 	0.454	0.4223	0.3687	0.012
Mof_H 	H 	0.594	0.384	0.4564	0.073
Mof_H 	H 	0.3706	0.2977	0.0799	-0.048
Mof_H 	H 	0.9128	0.7106	0.0126	0.138
Mof_H 	H 	0.8347	0.6601	0.0956	0.152
Mof_H 	H 	0.9397	0.6607	0.0562	0.176
Mof_H 	H 	0.8531	0.7448	0.9871	-0.019
Mof_H 	H 	0.0035	0.6493	0.2024	0.042
Mof_H 	H 	0.9464	0.5777	0.0317	0.005
Mof_H 	H 	0.0724	0.616	0.21	0.067
Mof_H 	H 	0.7822	0.7023	0.0729	-0.042
Mof_H 	H 	0.9128	0.2022	0.9002	0.159
Mof_H 	H 	0.8347	0.1746	0.7391	0.158
Mof_H 	H 	0.9397	0.279	0.8835	0.181
Mof_H 	H 	0.8531	0.1083	0.866	-0.057
Mof_H 	H 	0.0035	0.3542	0.8011	0.043
Mof_H 	H 	0.9464	0.3687	0.9147	0.013
Mof_H 	H 	0.0724	0.4564	0.8624	0.068
Mof_H 	H 	0.7822	0.0799	0.7093	-0.048
Mof_H 	H 	0.302	0.0126	0.0998	0.13
Mof_H 	H 	0.4355	0.0956	0.2609	0.151
Mof_H 	H 	0.3955	0.0562	0.1165	0.172
Mof_H 	H 	0.2423	0.9871	0.134	-0.023
Mof_H 	H 	0.5531	0.2024	0.1989	0.037
Mof_H 	H 	0.454	0.0317	0.0853	0.006
Mof_H 	H 	0.594	0.21	0.1376	0.072
Mof_H 	H 	0.3706	0.0729	0.2907	-0.042
Mof_H 	H 	0.0872	0.9874	0.2894	0.17
Mof_H 	H 	0.1653	0.9044	0.3399	0.163
Mof_H 	H 	0.0603	0.9438	0.3393	0.178
Mof_H 	H 	0.1469	0.0129	0.2552	-0.097
Mof_H 	H 	0.9965	0.7976	0.3507	0.034
Mof_H 	H 	0.0536	0.9683	0.4223	0.024
Mof_H 	H 	0.9276	0.79	0.384	0.079
Mof_H 	H 	0.2178	0.9271	0.2977	-0.044
Mof_H 	H 	0.698	0.7978	0.7106	0.154
Mof_H 	H 	0.5645	0.8254	0.6601	0.158
Mof_H 	H 	0.6045	0.721	0.6607	0.177
Mof_H 	H 	0.7577	0.8917	0.7448	-0.053
Mof_H 	H 	0.4469	0.6458	0.6493	0.038
Mof_H 	H 	0.546	0.6313	0.5777	0.012
Mof_H 	H 	0.406	0.5436	0.616	0.073
Mof_H 	H 	0.6294	0.9201	0.7023	-0.037
Mof_H 	H 	0.9874	0.2894	0.0872	0.17
Mof_H 	H 	0.9044	0.3399	0.1653	0.163
Mof_H 	H 	0.9438	0.3393	0.0603	0.178
Mof_H 	H 	0.0129	0.2552	0.1469	-0.097
Mof_H 	H 	0.7976	0.3507	0.9965	0.034
Mof_H 	H 	0.9683	0.4223	0.0536	0.024
Mof_H 	H 	0.79	0.384	0.9276	0.079
Mof_H 	H 	0.9271	0.2977	0.2178	-0.044
Mof_H 	H 	0.7978	0.7106	0.698	0.154
Mof_H 	H 	0.8254	0.6601	0.5645	0.158
Mof_H 	H 	0.721	0.6607	0.6045	0.177
Mof_H 	H 	0.8917	0.7448	0.7577	-0.053
Mof_H 	H 	0.6458	0.6493	0.4469	0.038
Mof_H 	H 	0.6313	0.5777	0.546	0.012
Mof_H 	H 	0.5436	0.616	0.406	0.073
Mof_H 	H 	0.9201	0.7023	0.6294	-0.037
Mof_H 	H 	0.2022	0.9002	0.9128	0.159
Mof_H 	H 	0.1746	0.7391	0.8347	0.158
Mof_H 	H 	0.279	0.8835	0.9397	0.181
Mof_H 	H 	0.1083	0.866	0.8531	-0.057
Mof_H 	H 	0.3542	0.8011	0.0035	0.043
Mof_H 	H 	0.3687	0.9147	0.9464	0.013
Mof_H 	H 	0.4564	0.8624	0.0724	0.068
Mof_H 	H 	0.0799	0.7093	0.7822	-0.048
Mof_H 	H 	0.0126	0.0998	0.302	0.13
Mof_H 	H 	0.0956	0.2609	0.4355	0.151
Mof_H 	H 	0.0562	0.1165	0.3955	0.172
Mof_H 	H 	0.9871	0.134	0.2423	-0.023
Mof_H 	H 	0.2024	0.1989	0.5531	0.037
Mof_H 	H 	0.0317	0.0853	0.454	0.006
Mof_H 	H 	0.21	0.1376	0.594	0.072
Mof_H 	H 	0.0729	0.2907	0.3706	-0.042
Mof_H 	H 	0.0998	0.302	0.0126	0.13
Mof_H 	H 	0.2609	0.4355	0.0956	0.151
Mof_H 	H 	0.1165	0.3955	0.0562	0.172
Mof_H 	H 	0.134	0.2423	0.9871	-0.023
Mof_H 	H 	0.1989	0.5531	0.2024	0.037
Mof_H 	H 	0.0853	0.454	0.0317	0.006
Mof_H 	H 	0.1376	0.594	0.21	0.072
Mof_H 	H 	0.2907	0.3706	0.0729	-0.042
Mof_H 	H 	0.9002	0.9128	0.2022	0.159
Mof_H 	H 	0.7391	0.8347	0.1746	0.158
Mof_H 	H 	0.8835	0.9397	0.279	0.181
Mof_H 	H 	0.866	0.8531	0.1083	-0.057
Mof_H 	H 	0.8011	0.0035	0.3542	0.043
Mof_H 	H 	0.9147	0.9464	0.3687	0.013
Mof_H 	H 	0.8624	0.0724	0.4564	0.068
Mof_H 	H 	0.7093	0.7822	0.0799	-0.048
Mof_H 	H 	0.7106	0.698	0.7978	0.154
Mof_H 	H 	0.6601	0.5645	0.8254	0.158
Mof_H 	H 	0.6607	0.6045	0.721	0.177
Mof_H 	H 	0.7448	0.7577	0.8917	-0.053
Mof_H 	H 	0.6493	0.4469	0.6458	0.038
Mof_H 	H 	0.5777	0.546	0.6313	0.012
Mof_H 	H 	0.616	0.406	0.5436	0.073
Mof_H 	H 	0.7023	0.6294	0.9201	-0.037
Mof_H 	H 	0.2894	0.0872	0.9874	0.17
Mof_H 	H 	0.3399	0.1653	0.9044	0.163
Mof_H 	H 	0.3393	0.0603	0.9438	0.178
Mof_H 	H 	0.2552	0.1469	0.0129	-0.097
Mof_H 	H 	0.3507	0.9965	0.7976	0.034
Mof_H 	H 	0.4223	0.0536	0.9683	0.024
Mof_H 	H 	0.384	0.9276	0.79	0.079
Mof_H 	H 	0.2977	0.2178	0.9271	-0.044
Mof_C 	C 	0.8217	0.11434	0.13916	-0.304
Mof_C 	C 	0.83812	0.15965	0.23415	-0.285
Mof_C 	C 	0.53219	0.95663	0.08026	0.075
Mof_C 	C 	0.79926	0.11758	0.17606	0.28
Mof_C 	C 	0.87813	0.15035	0.1601	0.191
Mof_C 	C 	0.62401	0.99483	0.1648	0.072
Mof_C 	C 	0.64958	0.03119	0.14665	-0.13
Mof_C 	C 	0.61397	0.02906	0.09705	0.071
Mof_C 	C 	0.71329	0.07213	0.18204	0.271
Mof_C 	C 	0.56237	0.95432	0.12861	-0.121
Mof_C 	C 	0.89429	0.1922	0.25129	0.168
Mof_C 	C 	0.97518	0.68254	0.86084	-0.341
Mof_C 	C 	0.9255	0.60397	0.76585	-0.3
Mof_C 	C 	0.87637	0.45193	0.91974	0.068
Mof_C 	C 	0.94152	0.6232	0.82394	0.305
Mof_C 	C 	0.99025	0.71803	0.8399	0.255
Mof_C 	C 	0.83003	0.45921	0.8352	0.038
Mof_C 	C 	0.88454	0.50293	0.85335	-0.103
Mof_C 	C 	0.93201	0.51692	0.90295	0.09
Mof_C 	C 	0.89009	0.53125	0.81796	0.271
Mof_C 	C 	0.82571	0.43376	0.87139	-0.108
Mof_C 	C 	0.94091	0.643	0.74871	0.181
Mof_C 	C 	0.02482	0.88566	0.70736	-0.271
Mof_C 	C 	0.0745	0.84035	0.67847	-0.275
Mof_C 	C 	0.12363	0.04337	0.57556	0.058
Mof_C 	C 	0.05848	0.88242	0.68168	0.268
Mof_C 	C 	0.00975	0.84965	0.72778	0.136
Mof_C 	C 	0.16997	0.00517	0.62918	0.003
Mof_C 	C 	0.11546	0.96881	0.61839	-0.081
Mof_C 	C 	0.06799	0.97094	0.58491	0.105
Mof_C 	C 	0.10991	0.92787	0.64116	0.262
Mof_C 	C 	0.17429	0.04568	0.60805	-0.1
Mof_C 	C 	0.05909	0.8078	0.70209	0.16
Mof_C 	C 	0.1783	0.31746	0.29264	-0.308
Mof_C 	C 	0.16188	0.39603	0.32153	-0.289
Mof_C 	C 	0.46781	0.54807	0.42444	0.066
Mof_C 	C 	0.20074	0.3768	0.31832	0.284
Mof_C 	C 	0.12187	0.28197	0.27222	0.194
Mof_C 	C 	0.37599	0.54079	0.37082	0.038
Mof_C 	C 	0.35042	0.49707	0.38161	-0.106
Mof_C 	C 	0.38603	0.48308	0.41509	0.09
Mof_C 	C 	0.28671	0.46875	0.35884	0.268
Mof_C 	C 	0.43763	0.56624	0.39195	-0.11
Mof_C 	C 	0.10571	0.357	0.29791	0.169
Mof_C 	C 	0.70736	0.02482	0.88566	-0.271
Mof_C 	C 	0.67847	0.0745	0.84035	-0.275
Mof_C 	C 	0.57556	0.12363	0.04337	0.058
Mof_C 	C 	0.68168	0.05848	0.88242	0.268
Mof_C 	C 	0.72778	0.00975	0.84965	0.136
Mof_C 	C 	0.62918	0.16997	0.00517	0.003
Mof_C 	C 	0.61839	0.11546	0.96881	-0.081
Mof_C 	C 	0.58491	0.06799	0.97094	0.105
Mof_C 	C 	0.64116	0.10991	0.92787	0.262
Mof_C 	C 	0.60805	0.17429	0.04568	-0.1
Mof_C 	C 	0.70209	0.05909	0.8078	0.16
Mof_C 	C 	0.29264	0.1783	0.31746	-0.308
Mof_C 	C 	0.32153	0.16188	0.39603	-0.289
Mof_C 	C 	0.42444	0.46781	0.54807	0.066
Mof_C 	C 	0.31832	0.20074	0.3768	0.284
Mof_C 	C 	0.27222	0.12187	0.28197	0.194
Mof_C 	C 	0.37082	0.37599	0.54079	0.038
Mof_C 	C 	0.38161	0.35042	0.49707	-0.106
Mof_C 	C 	0.41509	0.38603	0.48308	0.09
Mof_C 	C 	0.35884	0.28671	0.46875	0.268
Mof_C 	C 	0.39195	0.43763	0.56624	-0.11
Mof_C 	C 	0.29791	0.10571	0.357	0.169
Mof_C 	C 	0.13916	0.8217	0.11434	-0.304
Mof_C 	C 	0.23415	0.83812	0.15965	-0.285
Mof_C 	C 	0.08026	0.53219	0.95663	0.075
Mof_C 	C 	0.17606	0.79926	0.11758	0.28
Mof_C 	C 	0.1601	0.87813	0.15035	0.191
Mof_C 	C 	0.1648	0.62401	0.99483	0.072
Mof_C 	C 	0.14665	0.64958	0.03119	-0.13
Mof_C 	C 	0.09705	0.61397	0.02906	0.071
Mof_C 	C 	0.18204	0.71329	0.07213	0.271
Mof_C 	C 	0.12861	0.56237	0.95432	-0.121
Mof_C 	C 	0.25129	0.89429	0.1922	0.168
Mof_C 	C 	0.86084	0.97518	0.68254	-0.341
Mof_C 	C 	0.76585	0.9255	0.60397	-0.3
Mof_C 	C 	0.91974	0.87637	0.45193	0.068
Mof_C 	C 	0.82394	0.94152	0.6232	0.305
Mof_C 	C 	0.8399	0.99025	0.71803	0.255
Mof_C 	C 	0.8352	0.83003	0.45921	0.038
Mof_C 	C 	0.85335	0.88454	0.50293	-0.103
Mof_C 	C 	0.90295	0.93201	0.51692	0.09
Mof_C 	C 	0.81796	0.89009	0.53125	0.271
Mof_C 	C 	0.87139	0.82571	0.43376	-0.108
Mof_C 	C 	0.74871	0.94091	0.643	0.181
Mof_C 	C 	0.68254	0.86084	0.97518	-0.341
Mof_C 	C 	0.60397	0.76585	0.9255	-0.3
Mof_C 	C 	0.45193	0.91974	0.87637	0.068
Mof_C 	C 	0.6232	0.82394	0.94152	0.305
Mof_C 	C 	0.71803	0.8399	0.99025	0.255
Mof_C 	C 	0.45921	0.8352	0.83003	0.038
Mof_C 	C 	0.50293	0.85335	0.88454	-0.103
Mof_C 	C 	0.51692	0.90295	0.93201	0.09
Mof_C 	C 	0.53125	0.81796	0.89009	0.271
Mof_C 	C 	0.43376	0.87139	0.82571	-0.108
Mof_C 	C 	0.643	0.74871	0.94091	0.181
Mof_C 	C 	0.11434	0.13916	0.8217	-0.304
Mof_C 	C 	0.15965	0.23415	0.83812	-0.285
Mof_C 	C 	0.95663	0.08026	0.53219	0.075
Mof_C 	C 	0.11758	0.17606	0.79926	0.28
Mof_C 	C 	0.15035	0.1601	0.87813	0.191
Mof_C 	C 	0.99483	0.1648	0.62401	0.072
Mof_C 	C 	0.03119	0.14665	0.64958	-0.13
Mof_C 	C 	0.02906	0.09705	0.61397	0.071
Mof_C 	C 	0.07213	0.18204	0.71329	0.271
Mof_C 	C 	0.95432	0.12861	0.56237	-0.121
Mof_C 	C 	0.1922	0.25129	0.89429	0.168
Mof_C 	C 	0.31746	0.29264	0.1783	-0.308
Mof_C 	C 	0.39603	0.32153	0.16188	-0.289
Mof_C 	C 	0.54807	0.42444	0.46781	0.066
Mof_C 	C 	0.3768	0.31832	0.20074	0.284
Mof_C 	C 	0.28197	0.27222	0.12187	0.194
Mof_C 	C 	0.54079	0.37082	0.37599	0.038
Mof_C 	C 	0.49707	0.38161	0.35042	-0.106
Mof_C 	C 	0.48308	0.41509	0.38603	0.09
Mof_C 	C 	0.46875	0.35884	0.28671	0.268
Mof_C 	C 	0.56624	0.39195	0.43763	-0.11
Mof_C 	C 	0.357	0.29791	0.10571	0.169
Mof_C 	C 	0.88566	0.70736	0.02482	-0.271
Mof_C 	C 	0.84035	0.67847	0.0745	-0.275
Mof_C 	C 	0.04337	0.57556	0.12363	0.058
Mof_C 	C 	0.88242	0.68168	0.05848	0.268
Mof_C 	C 	0.84965	0.72778	0.00975	0.136
Mof_C 	C 	0.00517	0.62918	0.16997	0.003
Mof_C 	C 	0.96881	0.61839	0.11546	-0.081
Mof_C 	C 	0.97094	0.58491	0.06799	0.105
Mof_C 	C 	0.92787	0.64116	0.10991	0.262
Mof_C 	C 	0.04568	0.60805	0.17429	-0.1
Mof_C 	C 	0.8078	0.70209	0.05909	0.16
Mof_C 	C 	0.88566	0.1783	0.86084	-0.308
Mof_C 	C 	0.84035	0.16188	0.76585	-0.29
Mof_C 	C 	0.04337	0.46781	0.91974	0.06
Mof_C 	C 	0.88242	0.20074	0.82394	0.288
Mof_C 	C 	0.84965	0.12187	0.8399	0.197
Mof_C 	C 	0.00517	0.37599	0.8352	0.004
Mof_C 	C 	0.96881	0.35042	0.85335	-0.08
Mof_C 	C 	0.97094	0.38603	0.90295	0.105
Mof_C 	C 	0.92787	0.28671	0.81796	0.265
Mof_C 	C 	0.04568	0.43763	0.87139	-0.098
Mof_C 	C 	0.8078	0.10571	0.74871	0.171
Mof_C 	C 	0.31746	0.02482	0.13916	-0.27
Mof_C 	C 	0.39603	0.0745	0.23415	-0.274
Mof_C 	C 	0.54807	0.12363	0.08026	0.066
Mof_C 	C 	0.3768	0.05848	0.17606	0.263
Mof_C 	C 	0.28197	0.00975	0.1601	0.131
Mof_C 	C 	0.54079	0.16997	0.1648	0.037
Mof_C 	C 	0.49707	0.11546	0.14665	-0.106
Mof_C 	C 	0.48308	0.06799	0.09705	0.087
Mof_C 	C 	0.46875	0.10991	0.18204	0.265
Mof_C 	C 	0.56624	0.17429	0.12861	-0.112
Mof_C 	C 	0.357	0.05909	0.25129	0.157
Mof_C 	C 	0.11434	0.97518	0.29264	-0.343
Mof_C 	C 	0.15965	0.9255	0.32153	-0.3
Mof_C 	C 	0.95663	0.87637	0.42444	0.076
Mof_C 	C 	0.11758	0.94152	0.31832	0.302
Mof_C 	C 	0.15035	0.99025	0.27222	0.255
Mof_C 	C 	0.99483	0.83003	0.37082	0.072
Mof_C 	C 	0.03119	0.88454	0.38161	-0.128
Mof_C 	C 	0.02906	0.93201	0.41509	0.073
Mof_C 	C 	0.07213	0.89009	0.35884	0.274
Mof_C 	C 	0.95432	0.82571	0.39195	-0.12
Mof_C 	C 	0.1922	0.94091	0.29791	0.18
Mof_C 	C 	0.68254	0.8217	0.70736	-0.304
Mof_C 	C 	0.60397	0.83812	0.67847	-0.286
Mof_C 	C 	0.45193	0.53219	0.57556	0.066
Mof_C 	C 	0.6232	0.79926	0.68168	0.284
Mof_C 	C 	0.71803	0.87813	0.72778	0.193
Mof_C 	C 	0.45921	0.62401	0.62918	0.038
Mof_C 	C 	0.50293	0.64958	0.61839	-0.105
Mof_C 	C 	0.51692	0.61397	0.58491	0.09
Mof_C 	C 	0.53125	0.71329	0.64116	0.268
Mof_C 	C 	0.43376	0.56237	0.60805	-0.11
Mof_C 	C 	0.643	0.89429	0.70209	0.17
Mof_C 	C 	0.97518	0.29264	0.11434	-0.343
Mof_C 	C 	0.9255	0.32153	0.15965	-0.3
Mof_C 	C 	0.87637	0.42444	0.95663	0.076
Mof_C 	C 	0.94152	0.31832	0.11758	0.302
Mof_C 	C 	0.99025	0.27222	0.15035	0.255
Mof_C 	C 	0.83003	0.37082	0.99483	0.072
Mof_C 	C 	0.88454	0.38161	0.03119	-0.128
Mof_C 	C 	0.93201	0.41509	0.02906	0.073
Mof_C 	C 	0.89009	0.35884	0.07213	0.274
Mof_C 	C 	0.82571	0.39195	0.95432	-0.12
Mof_C 	C 	0.94091	0.29791	0.1922	0.18
Mof_C 	C 	0.8217	0.70736	0.68254	-0.304
Mof_C 	C 	0.83812	0.67847	0.60397	-0.286
Mof_C 	C 	0.53219	0.57556	0.45193	0.066
Mof_C 	C 	0.79926	0.68168	0.6232	0.284
Mof_C 	C 	0.87813	0.72778	0.71803	0.193
Mof_C 	C 	0.62401	0.62918	0.45921	0.038
Mof_C 	C 	0.64958	0.61839	0.50293	-0.105
Mof_C 	C 	0.61397	0.58491	0.51692	0.09
Mof_C 	C 	0.71329	0.64116	0.53125	0.268
Mof_C 	C 	0.56237	0.60805	0.43376	-0.11
Mof_C 	C 	0.89429	0.70209	0.643	0.17
Mof_C 	C 	0.1783	0.86084	0.88566	-0.308
Mof_C 	C 	0.16188	0.76585	0.84035	-0.29
Mof_C 	C 	0.46781	0.91974	0.04337	0.06
Mof_C 	C 	0.20074	0.82394	0.88242	0.288
Mof_C 	C 	0.12187	0.8399	0.84965	0.197
Mof_C 	C 	0.37599	0.8352	0.00517	0.004
Mof_C 	C 	0.35042	0.85335	0.96881	-0.08
Mof_C 	C 	0.38603	0.90295	0.97094	0.105
Mof_C 	C 	0.28671	0.81796	0.92787	0.265
Mof_C 	C 	0.43763	0.87139	0.04568	-0.098
Mof_C 	C 	0.10571	0.74871	0.8078	0.171
Mof_C 	C 	0.02482	0.13916	0.31746	-0.27
Mof_C 	C 	0.0745	0.23415	0.39603	-0.274
Mof_C 	C 	0.12363	0.08026	0.54807	0.066
Mof_C 	C 	0.05848	0.17606	0.3768	0.263
Mof_C 	C 	0.00975	0.1601	0.28197	0.131
Mof_C 	C 	0.16997	0.1648	0.54079	0.037
Mof_C 	C 	0.11546	0.14665	0.49707	-0.106
Mof_C 	C 	0.06799	0.09705	0.48308	0.087
Mof_C 	C 	0.10991	0.18204	0.46875	0.265
Mof_C 	C 	0.17429	0.12861	0.56624	-0.112
Mof_C 	C 	0.05909	0.25129	0.357	0.157
Mof_C 	C 	0.13916	0.31746	0.02482	-0.27
Mof_C 	C 	0.23415	0.39603	0.0745	-0.274
Mof_C 	C 	0.08026	0.54807	0.12363	0.066
Mof_C 	C 	0.17606	0.3768	0.05848	0.263
Mof_C 	C 	0.1601	0.28197	0.00975	0.131
Mof_C 	C 	0.1648	0.54079	0.16997	0.037
Mof_C 	C 	0.14665	0.49707	0.11546	-0.106
Mof_C 	C 	0.09705	0.48308	0.06799	0.087
Mof_C 	C 	0.18204	0.46875	0.10991	0.265
Mof_C 	C 	0.12861	0.56624	0.17429	-0.112
Mof_C 	C 	0.25129	0.357	0.05909	0.157
Mof_C 	C 	0.86084	0.88566	0.1783	-0.308
Mof_C 	C 	0.76585	0.84035	0.16188	-0.29
Mof_C 	C 	0.91974	0.04337	0.46781	0.06
Mof_C 	C 	0.82394	0.88242	0.20074	0.288
Mof_C 	C 	0.8399	0.84965	0.12187	0.197
Mof_C 	C 	0.8352	0.00517	0.37599	0.004
Mof_C 	C 	0.85335	0.96881	0.35042	-0.08
Mof_C 	C 	0.90295	0.97094	0.38603	0.105
Mof_C 	C 	0.81796	0.92787	0.28671	0.265
Mof_C 	C 	0.87139	0.04568	0.43763	-0.098
Mof_C 	C 	0.74871	0.8078	0.10571	0.171
Mof_C 	C 	0.70736	0.68254	0.8217	-0.304
Mof_C 	C 	0.67847	0.60397	0.83812	-0.286
Mof_C 	C 	0.57556	0.45193	0.53219	0.066
Mof_C 	C 	0.68168	0.6232	0.79926	0.284
Mof_C 	C 	0.72778	0.71803	0.87813	0.193
Mof_C 	C 	0.62918	0.45921	0.62401	0.038
Mof_C 	C 	0.61839	0.50293	0.64958	-0.105
Mof_C 	C 	0.58491	0.51692	0.61397	0.09
Mof_C 	C 	0.64116	0.53125	0.71329	0.268
Mof_C 	C 	0.60805	0.43376	0.56237	-0.11
Mof_C 	C 	0.70209	0.643	0.89429	0.17
Mof_C 	C 	0.29264	0.11434	0.97518	-0.343
Mof_C 	C 	0.32153	0.15965	0.9255	-0.3
Mof_C 	C 	0.42444	0.95663	0.87637	0.076
Mof_C 	C 	0.31832	0.11758	0.94152	0.302
Mof_C 	C 	0.27222	0.15035	0.99025	0.255
Mof_C 	C 	0.37082	0.99483	0.83003	0.072
Mof_C 	C 	0.38161	0.03119	0.88454	-0.128
Mof_C 	C 	0.41509	0.02906	0.93201	0.073
Mof_C 	C 	0.35884	0.07213	0.89009	0.274
Mof_C 	C 	0.39195	0.95432	0.82571	-0.12
Mof_C 	C 	0.29791	0.1922	0.94091	0.18
Mof_N 	N 	0.55771	0.99474	0.06587	-0.17
Mof_N 	N 	0.7415	0.0806	0.15366	-0.294
Mof_N 	N 	0.91518	0.18973	0.21443	-0.272
Mof_N 	N 	0.92887	0.49184	0.93413	-0.173
Mof_N 	N 	0.92694	0.58784	0.84634	-0.297
Mof_N 	N 	0.9753	0.70075	0.78557	-0.283
Mof_N 	N 	0.07113	0.00526	0.56297	-0.197
Mof_N 	N 	0.07306	0.9194	0.6609	-0.289
Mof_N 	N 	0.0247	0.81027	0.72545	-0.268
Mof_N 	N 	0.44229	0.50816	0.43703	-0.187
Mof_N 	N 	0.2585	0.41216	0.3391	-0.294
Mof_N 	N 	0.08482	0.29925	0.27455	-0.28
Mof_N 	N 	0.56297	0.07113	0.00526	-0.197
Mof_N 	N 	0.6609	0.07306	0.9194	-0.289
Mof_N 	N 	0.72545	0.0247	0.81027	-0.268
Mof_N 	N 	0.43703	0.44229	0.50816	-0.187
Mof_N 	N 	0.3391	0.2585	0.41216	-0.294
Mof_N 	N 	0.27455	0.08482	0.29925	-0.28
Mof_N 	N 	0.06587	0.55771	0.99474	-0.17
Mof_N 	N 	0.15366	0.7415	0.0806	-0.294
Mof_N 	N 	0.21443	0.91518	0.18973	-0.272
Mof_N 	N 	0.93413	0.92887	0.49184	-0.173
Mof_N 	N 	0.84634	0.92694	0.58784	-0.297
Mof_N 	N 	0.78557	0.9753	0.70075	-0.283
Mof_N 	N 	0.49184	0.93413	0.92887	-0.173
Mof_N 	N 	0.58784	0.84634	0.92694	-0.297
Mof_N 	N 	0.70075	0.78557	0.9753	-0.283
Mof_N 	N 	0.99474	0.06587	0.55771	-0.17
Mof_N 	N 	0.0806	0.15366	0.7415	-0.294
Mof_N 	N 	0.18973	0.21443	0.91518	-0.272
Mof_N 	N 	0.50816	0.43703	0.44229	-0.187
Mof_N 	N 	0.41216	0.3391	0.2585	-0.294
Mof_N 	N 	0.29925	0.27455	0.08482	-0.28
Mof_N 	N 	0.00526	0.56297	0.07113	-0.197
Mof_N 	N 	0.9194	0.6609	0.07306	-0.289
Mof_N 	N 	0.81027	0.72545	0.0247	-0.268
Mof_N 	N 	0.00526	0.44229	0.93413	-0.19
Mof_N 	N 	0.9194	0.2585	0.84634	-0.293
Mof_N 	N 	0.81027	0.08482	0.78557	-0.28
Mof_N 	N 	0.50816	0.07113	0.06587	-0.188
Mof_N 	N 	0.41216	0.07306	0.15366	-0.289
Mof_N 	N 	0.29925	0.0247	0.21443	-0.268
Mof_N 	N 	0.99474	0.92887	0.43703	-0.164
Mof_N 	N 	0.0806	0.92694	0.3391	-0.298
Mof_N 	N 	0.18973	0.9753	0.27455	-0.284
Mof_N 	N 	0.49184	0.55771	0.56297	-0.187
Mof_N 	N 	0.58784	0.7415	0.6609	-0.293
Mof_N 	N 	0.70075	0.91518	0.72545	-0.272
Mof_N 	N 	0.92887	0.43703	0.99474	-0.164
Mof_N 	N 	0.92694	0.3391	0.0806	-0.298
Mof_N 	N 	0.9753	0.27455	0.18973	-0.284
Mof_N 	N 	0.55771	0.56297	0.49184	-0.187
Mof_N 	N 	0.7415	0.6609	0.58784	-0.293
Mof_N 	N 	0.91518	0.72545	0.70075	-0.272
Mof_N 	N 	0.44229	0.93413	0.00526	-0.19
Mof_N 	N 	0.2585	0.84634	0.9194	-0.293
Mof_N 	N 	0.08482	0.78557	0.81027	-0.28
Mof_N 	N 	0.07113	0.06587	0.50816	-0.188
Mof_N 	N 	0.07306	0.15366	0.41216	-0.289
Mof_N 	N 	0.0247	0.21443	0.29925	-0.268
Mof_N 	N 	0.06587	0.50816	0.07113	-0.188
Mof_N 	N 	0.15366	0.41216	0.07306	-0.289
Mof_N 	N 	0.21443	0.29925	0.0247	-0.268
Mof_N 	N 	0.93413	0.00526	0.44229	-0.19
Mof_N 	N 	0.84634	0.9194	0.2585	-0.293
Mof_N 	N 	0.78557	0.81027	0.08482	-0.28
Mof_N 	N 	0.56297	0.49184	0.55771	-0.187
Mof_N 	N 	0.6609	0.58784	0.7415	-0.293
Mof_N 	N 	0.72545	0.70075	0.91518	-0.272
Mof_N 	N 	0.43703	0.99474	0.92887	-0.164
Mof_N 	N 	0.3391	0.0806	0.92694	-0.298
Mof_N 	N 	0.27455	0.18973	0.9753	-0.284
Mof_O 	O 	0.73733	0.09375	0.23462	-0.246
Mof_O 	O 	0.85913	0.50271	0.76538	-0.24
Mof_O 	O 	0.14087	0.90625	0.64358	-0.235
Mof_O 	O 	0.26267	0.49729	0.35642	-0.242
Mof_O 	O 	0.64358	0.14087	0.90625	-0.235
Mof_O 	O 	0.35642	0.26267	0.49729	-0.242
Mof_O 	O 	0.23462	0.73733	0.09375	-0.246
Mof_O 	O 	0.76538	0.85913	0.50271	-0.24
Mof_O 	O 	0.50271	0.76538	0.85913	-0.24
Mof_O 	O 	0.09375	0.23462	0.73733	-0.246
Mof_O 	O 	0.49729	0.35642	0.26267	-0.242
Mof_O 	O 	0.90625	0.64358	0.14087	-0.235
Mof_O 	O 	0.90625	0.26267	0.76538	-0.236
Mof_O 	O 	0.49729	0.14087	0.23462	-0.242
Mof_O 	O 	0.09375	0.85913	0.35642	-0.246
Mof_O 	O 	0.50271	0.73733	0.64358	-0.24
Mof_O 	O 	0.85913	0.35642	0.09375	-0.246
Mof_O 	O 	0.73733	0.64358	0.50271	-0.24
Mof_O 	O 	0.26267	0.76538	0.90625	-0.236
Mof_O 	O 	0.14087	0.23462	0.49729	-0.242
Mof_O 	O 	0.23462	0.49729	0.14087	-0.242
Mof_O 	O 	0.76538	0.90625	0.26267	-0.236
Mof_O 	O 	0.64358	0.50271	0.73733	-0.24
Mof_O 	O 	0.35642	0.09375	0.85913	-0.246
Mof_N 	N 	0.66666	0	-0	0.01
Mof_O 	O 	0.66768	0.97722	0.03172	-0.141
Mof_O 	O 	0.69046	0.0545	0.02278	-0.161
Mof_O 	O 	0.63596	0.96828	0.9455	-0.12
Mof_N 	N 	2.61616e-17	0.66666	-0	0.01
Mof_O 	O 	0.9455	0.63596	0.96828	-0.12
Mof_O 	O 	0.03172	0.66768	0.97722	-0.141
Mof_O 	O 	0.02278	0.69046	0.0545	-0.161
Mof_N 	N 	-1.30808e-17	0	0.66666	0.01
Mof_O 	O 	0.0545	0.02278	0.69046	-0.161
Mof_O 	O 	0.96828	0.9455	0.63596	-0.12
Mof_O 	O 	0.97722	0.03172	0.66768	-0.141
Mof_N 	N 	0.33334	0.33334	0.33334	0.041
Mof_O 	O 	0.33232	0.36404	0.30954	-0.152
Mof_O 	O 	0.30954	0.33232	0.36404	-0.152
Mof_O 	O 	0.36404	0.30954	0.33232	-0.152
Mof_N 	N 	-0	0.33334	-0	0.009
Mof_O 	O 	0.02278	0.33232	0.96828	-0.14
Mof_O 	O 	0.9455	0.30954	0.97722	-0.121
Mof_O 	O 	0.03172	0.36404	0.0545	-0.162
Mof_N 	N 	0.33334	0	-0	0.009
Mof_O 	O 	0.36404	0.0545	0.03172	-0.162
Mof_O 	O 	0.33232	0.96828	0.02278	-0.14
Mof_O 	O 	0.30954	0.97722	0.9455	-0.121
Mof_N 	N 	-0	0	0.33334	0.009
Mof_O 	O 	0.97722	0.9455	0.30954	-0.121
Mof_O 	O 	0.0545	0.03172	0.36404	-0.162
Mof_O 	O 	0.96828	0.02278	0.33232	-0.14
Mof_N 	N 	0.66666	0.66666	0.66666	0.041
Mof_O 	O 	0.63596	0.66768	0.69046	-0.151
Mof_O 	O 	0.66768	0.69046	0.63596	-0.151
Mof_O 	O 	0.69046	0.63596	0.66768	-0.151
_end
