# CIF file generated by openbabel 3.1.0, see https://openbabel.org
data_I
_chemical_name_common 'image0'
_cell_length_a 22.9097
_cell_length_b 6.891
_cell_length_c 14.4132
_cell_angle_alpha 90
_cell_angle_beta 106.62
_cell_angle_gamma 90
_space_group_name_H-M_alt 'P 1'
_space_group_name_Hall 'P 1'
loop_
    _symmetry_equiv_pos_as_xyz
    x,y,z
loop_
    _atom_site_label
    _atom_site_type_symbol
    _atom_site_fract_x
    _atom_site_fract_y
    _atom_site_fract_z
    _atom_site_occupancy
    Cd1      Cd       0.41300    0.15570    0.69339    1.000
    C1       C        0.68010    0.99510    0.65920    1.000
    H1       H        0.70900    0.96390    0.62760    1.000
    O1       O        0.56340    0.11380    0.89750    1.000
    C2       C        0.61160    0.11850    0.50140    1.000
    C3       C        0.81070    0.60030    0.89880    1.000
    H2       H        0.83000    0.66800    0.95970    1.000
    O2       O        0.56970    0.23300    0.45820    1.000
    C4       C        0.58250    0.14010    0.65670    1.000
    H3       H        0.54680    0.20380    0.62360    1.000
    O3       O        0.90844    0.63280    0.87020    1.000
    N1       N        0.49300    0.81300    0.94250    1.000
    O4       O        0.83020    0.57060    0.74430    1.000
    C5       C        0.69170    0.95650    0.75660    1.000
    N2       N        0.75190    0.69260    0.84870    1.000
    C6       C        0.64940    0.00740    0.80500    1.000
    H4       H        0.65710    0.97950    0.87050    1.000
    C7       C        0.72390    0.42390    0.92180    1.000
    H5       H        0.70170    0.30230    0.91160    1.000
    H6       H        0.72240    0.48000    0.98270    1.000
    C8       C        0.75200    0.87090    0.80970    1.000
    C9       C        0.69910    0.56220    0.83890    1.000
    H7       H        0.68810    0.49520    0.77710    1.000
    H8       H        0.66400    0.63250    0.84620    1.000
    C10      C        0.55180    0.16130    0.81150    1.000
    O5       O        0.64330    0.02820    0.45640    1.000
    O6       O        0.80010    0.96060    0.81780    1.000
    C11      C        0.62470    0.08170    0.60710    1.000
    O7       O        0.50638    0.26870    0.76790    1.000
    C12      C        0.79090    0.39450    0.91940    1.000
    H9       H        0.81620    0.34610    0.98100    1.000
    H10      H        0.79290    0.30470    0.86860    1.000
    C13      C        0.85280    0.60030    0.83380    1.000
    C14      C        0.59460    0.10170    0.75470    1.000
    C15      C        0.44920    0.56100    0.01780    1.000
    H11      H        0.41150    0.48850    0.00560    1.000
    H12      H        0.46060    0.60640    0.08420    1.000
    C16      C        0.44260    0.70400    0.95950    1.000
    H13      H        0.41730    0.79810    0.98030    1.000
    H14      H        0.41870    0.65710    0.89680    1.000
    Cd2      Cd       0.91300    0.65570    0.69339    1.000
    C17      C        0.18010    0.49510    0.65920    1.000
    H15      H        0.20900    0.46390    0.62760    1.000
    O8       O        0.06340    0.61380    0.89750    1.000
    C18      C        0.11160    0.61850    0.50140    1.000
    C19      C        0.31070    0.10030    0.89880    1.000
    H16      H        0.33000    0.16800    0.95970    1.000
    O9       O        0.06970    0.73300    0.45820    1.000
    C20      C        0.08250    0.64010    0.65670    1.000
    H17      H        0.04680    0.70380    0.62360    1.000
    O10      O        0.40844    0.13280    0.87020    1.000
    N3       N        0.99300    0.31300    0.94250    1.000
    O11      O        0.33020    0.07060    0.74430    1.000
    C21      C        0.19170    0.45650    0.75660    1.000
    N4       N        0.25190    0.19260    0.84870    1.000
    C22      C        0.14940    0.50740    0.80500    1.000
    H18      H        0.15710    0.47950    0.87050    1.000
    C23      C        0.22390    0.92390    0.92180    1.000
    H19      H        0.20170    0.80230    0.91160    1.000
    H20      H        0.22240    0.98000    0.98270    1.000
    C24      C        0.25200    0.37090    0.80970    1.000
    C25      C        0.19910    0.06220    0.83890    1.000
    H21      H        0.18810    0.99520    0.77710    1.000
    H22      H        0.16400    0.13250    0.84620    1.000
    C26      C        0.05180    0.66130    0.81150    1.000
    O12      O        0.14330    0.52820    0.45640    1.000
    O13      O        0.30010    0.46060    0.81780    1.000
    C27      C        0.12470    0.58170    0.60710    1.000
    O14      O        0.00638    0.76870    0.76790    1.000
    C28      C        0.29090    0.89450    0.91940    1.000
    H23      H        0.31620    0.84610    0.98100    1.000
    H24      H        0.29290    0.80470    0.86860    1.000
    C29      C        0.35280    0.10030    0.83380    1.000
    C30      C        0.09460    0.60170    0.75470    1.000
    C31      C        0.94920    0.06100    0.01780    1.000
    H25      H        0.91150    0.98850    0.00560    1.000
    H26      H        0.96060    0.10640    0.08420    1.000
    C32      C        0.94260    0.20400    0.95950    1.000
    H27      H        0.91730    0.29810    0.98030    1.000
    H28      H        0.91870    0.15710    0.89680    1.000
    Cd3      Cd       0.58700    0.15570    0.30661    1.000
    C33      C        0.31990    0.99510    0.34080    1.000
    H29      H        0.29100    0.96390    0.37240    1.000
    O15      O        0.43660    0.11380    0.10250    1.000
    C34      C        0.38840    0.11850    0.49860    1.000
    C35      C        0.18930    0.60030    0.10120    1.000
    H30      H        0.17000    0.66800    0.04030    1.000
    O16      O        0.43030    0.23300    0.54180    1.000
    C36      C        0.41750    0.14010    0.34330    1.000
    H31      H        0.45320    0.20380    0.37640    1.000
    O17      O        0.09156    0.63280    0.12980    1.000
    N5       N        0.50700    0.81300    0.05750    1.000
    O18      O        0.16980    0.57060    0.25570    1.000
    C37      C        0.30830    0.95650    0.24340    1.000
    N6       N        0.24810    0.69260    0.15130    1.000
    C38      C        0.35060    0.00740    0.19500    1.000
    H32      H        0.34290    0.97950    0.12950    1.000
    C39      C        0.27610    0.42390    0.07820    1.000
    H33      H        0.29830    0.30230    0.08840    1.000
    H34      H        0.27760    0.48000    0.01730    1.000
    C40      C        0.24800    0.87090    0.19030    1.000
    C41      C        0.30090    0.56220    0.16110    1.000
    H35      H        0.31190    0.49520    0.22290    1.000
    H36      H        0.33600    0.63250    0.15380    1.000
    C42      C        0.44820    0.16130    0.18850    1.000
    O19      O        0.35670    0.02820    0.54360    1.000
    O20      O        0.19990    0.96060    0.18220    1.000
    C43      C        0.37530    0.08170    0.39290    1.000
    O21      O        0.49362    0.26870    0.23210    1.000
    C44      C        0.20910    0.39450    0.08060    1.000
    H37      H        0.18380    0.34610    0.01900    1.000
    H38      H        0.20710    0.30470    0.13140    1.000
    C45      C        0.14720    0.60030    0.16620    1.000
    C46      C        0.40540    0.10170    0.24530    1.000
    C47      C        0.55080    0.56100    0.98220    1.000
    H39      H        0.58850    0.48850    0.99440    1.000
    H40      H        0.53940    0.60640    0.91580    1.000
    C48      C        0.55740    0.70400    0.04050    1.000
    H41      H        0.58270    0.79810    0.01970    1.000
    H42      H        0.58130    0.65710    0.10320    1.000
    Cd4      Cd       0.08700    0.65570    0.30661    1.000
    C49      C        0.81990    0.49510    0.34080    1.000
    H43      H        0.79100    0.46390    0.37240    1.000
    O22      O        0.93660    0.61380    0.10250    1.000
    C50      C        0.88840    0.61850    0.49860    1.000
    C51      C        0.68930    0.10030    0.10120    1.000
    H44      H        0.67000    0.16800    0.04030    1.000
    O23      O        0.93030    0.73300    0.54180    1.000
    C52      C        0.91750    0.64010    0.34330    1.000
    H45      H        0.95320    0.70380    0.37640    1.000
    O24      O        0.59156    0.13280    0.12980    1.000
    N7       N        0.00700    0.31300    0.05750    1.000
    O25      O        0.66980    0.07060    0.25570    1.000
    C53      C        0.80830    0.45650    0.24340    1.000
    N8       N        0.74810    0.19260    0.15130    1.000
    C54      C        0.85060    0.50740    0.19500    1.000
    H46      H        0.84290    0.47950    0.12950    1.000
    C55      C        0.77610    0.92390    0.07820    1.000
    H47      H        0.79830    0.80230    0.08840    1.000
    H48      H        0.77760    0.98000    0.01730    1.000
    C56      C        0.74800    0.37090    0.19030    1.000
    C57      C        0.80090    0.06220    0.16110    1.000
    H49      H        0.81190    0.99520    0.22290    1.000
    H50      H        0.83600    0.13250    0.15380    1.000
    C58      C        0.94820    0.66130    0.18850    1.000
    O26      O        0.85670    0.52820    0.54360    1.000
    O27      O        0.69990    0.46060    0.18220    1.000
    C59      C        0.87530    0.58170    0.39290    1.000
    O28      O        0.99362    0.76870    0.23210    1.000
    C60      C        0.70910    0.89450    0.08060    1.000
    H51      H        0.68380    0.84610    0.01900    1.000
    H52      H        0.70710    0.80470    0.13140    1.000
    C61      C        0.64720    0.10030    0.16620    1.000
    C62      C        0.90540    0.60170    0.24530    1.000
    C63      C        0.05080    0.06100    0.98220    1.000
    H53      H        0.08850    0.98850    0.99440    1.000
    H54      H        0.03940    0.10640    0.91580    1.000
    C64      C        0.05740    0.20400    0.04050    1.000
    H55      H        0.08270    0.29810    0.01970    1.000
    H56      H        0.08130    0.15710    0.10320    1.000
    Cd5      Cd       0.50000    0.12810    0.00000    1.000
    N9       N        0.50000    0.43200    0.00000    1.000
    Cd6      Cd       0.00000    0.62810    0.00000    1.000
    N10      N        0.00000    0.93200    0.00000    1.000
