data_functionalizedCrystal
_audit_creation_method	'EQeq! by Chris Wilmer'
_symmetry_space_group_name_H-M	'P1'
_symmetry_Int_Tables_number	1
_symmetry_cell_setting	triclinic
loop_
_symmetry_equiv_pos_as_xyz
  x,y,z
_cell_length_a	36.4514
_cell_length_b	36.4514
_cell_length_c	36.4514
_cell_angle_alpha	90
_cell_angle_beta	90
_cell_angle_gamma	90
loop_
_atom_site_label
_atom_site_type_symbol
_atom_site_fract_x
_atom_site_fract_y
_atom_site_fract_z
_atom_site_charge
Mof_O 	O 	0.79959	0.25634	0.39018	-0.578
Mof_O 	O 	0.79959	0.75634	0.89018	-0.578
Mof_O 	O 	0.29959	0.25634	0.89018	-0.578
Mof_O 	O 	0.29959	0.75634	0.39018	-0.578
Mof_O 	O 	0.95041	0.99366	0.89018	-0.578
Mof_O 	O 	0.95041	0.49366	0.39018	-0.578
Mof_O 	O 	0.45041	0.99366	0.39018	-0.578
Mof_O 	O 	0.45041	0.49366	0.89018	-0.578
Mof_O 	O 	0.45041	0.75634	0.35982	-0.578
Mof_O 	O 	0.45041	0.25634	0.85982	-0.578
Mof_O 	O 	0.95041	0.75634	0.85982	-0.578
Mof_O 	O 	0.95041	0.25634	0.35982	-0.578
Mof_O 	O 	0.29959	0.49366	0.85982	-0.578
Mof_O 	O 	0.29959	0.99366	0.35982	-0.578
Mof_O 	O 	0.79959	0.49366	0.35982	-0.578
Mof_O 	O 	0.79959	0.99366	0.85982	-0.578
Mof_O 	O 	0.39018	0.79959	0.25634	-0.578
Mof_O 	O 	0.39018	0.29959	0.75634	-0.578
Mof_O 	O 	0.89018	0.79959	0.75634	-0.578
Mof_O 	O 	0.89018	0.29959	0.25634	-0.578
Mof_O 	O 	0.89018	0.95041	0.99366	-0.578
Mof_O 	O 	0.89018	0.45041	0.49366	-0.578
Mof_O 	O 	0.39018	0.95041	0.49366	-0.578
Mof_O 	O 	0.39018	0.45041	0.99366	-0.578
Mof_O 	O 	0.35982	0.45041	0.75634	-0.578
Mof_O 	O 	0.35982	0.95041	0.25634	-0.578
Mof_O 	O 	0.85982	0.45041	0.25634	-0.578
Mof_O 	O 	0.85982	0.95041	0.75634	-0.578
Mof_O 	O 	0.85982	0.29959	0.49366	-0.578
Mof_O 	O 	0.85982	0.79959	0.99366	-0.578
Mof_O 	O 	0.35982	0.29959	0.99366	-0.578
Mof_O 	O 	0.35982	0.79959	0.49366	-0.578
Mof_O 	O 	0.25634	0.39018	0.79959	-0.578
Mof_O 	O 	0.25634	0.89018	0.29959	-0.578
Mof_O 	O 	0.75634	0.39018	0.29959	-0.578
Mof_O 	O 	0.75634	0.89018	0.79959	-0.578
Mof_O 	O 	0.99366	0.89018	0.95041	-0.578
Mof_O 	O 	0.99366	0.39018	0.45041	-0.578
Mof_O 	O 	0.49366	0.89018	0.45041	-0.578
Mof_O 	O 	0.49366	0.39018	0.95041	-0.578
Mof_O 	O 	0.75634	0.35982	0.45041	-0.578
Mof_O 	O 	0.75634	0.85982	0.95041	-0.578
Mof_O 	O 	0.25634	0.35982	0.95041	-0.578
Mof_O 	O 	0.25634	0.85982	0.45041	-0.578
Mof_O 	O 	0.49366	0.85982	0.29959	-0.578
Mof_O 	O 	0.49366	0.35982	0.79959	-0.578
Mof_O 	O 	0.99366	0.85982	0.79959	-0.578
Mof_O 	O 	0.99366	0.35982	0.29959	-0.578
Mof_O 	O 	0.00634	0.04959	0.10982	-0.578
Mof_O 	O 	0.00634	0.54959	0.60982	-0.578
Mof_O 	O 	0.50634	0.04959	0.60982	-0.578
Mof_O 	O 	0.50634	0.54959	0.10982	-0.578
Mof_O 	O 	0.74366	0.20041	0.60982	-0.578
Mof_O 	O 	0.74366	0.70041	0.10982	-0.578
Mof_O 	O 	0.24366	0.20041	0.10982	-0.578
Mof_O 	O 	0.24366	0.70041	0.60982	-0.578
Mof_O 	O 	0.50634	0.70041	0.14018	-0.578
Mof_O 	O 	0.50634	0.20041	0.64018	-0.578
Mof_O 	O 	0.00634	0.70041	0.64018	-0.578
Mof_O 	O 	0.00634	0.20041	0.14018	-0.578
Mof_O 	O 	0.24366	0.54959	0.64018	-0.578
Mof_O 	O 	0.24366	0.04959	0.14018	-0.578
Mof_O 	O 	0.74366	0.54959	0.14018	-0.578
Mof_O 	O 	0.74366	0.04959	0.64018	-0.578
Mof_O 	O 	0.54959	0.64018	0.24366	-0.578
Mof_O 	O 	0.54959	0.14018	0.74366	-0.578
Mof_O 	O 	0.04959	0.64018	0.74366	-0.578
Mof_O 	O 	0.04959	0.14018	0.24366	-0.578
Mof_O 	O 	0.70041	0.14018	0.50634	-0.578
Mof_O 	O 	0.70041	0.64018	0.00634	-0.578
Mof_O 	O 	0.20041	0.14018	0.00634	-0.578
Mof_O 	O 	0.20041	0.64018	0.50634	-0.578
Mof_O 	O 	0.20041	0.60982	0.74366	-0.578
Mof_O 	O 	0.20041	0.10982	0.24366	-0.578
Mof_O 	O 	0.70041	0.60982	0.24366	-0.578
Mof_O 	O 	0.70041	0.10982	0.74366	-0.578
Mof_O 	O 	0.04959	0.10982	0.00634	-0.578
Mof_O 	O 	0.04959	0.60982	0.50634	-0.578
Mof_O 	O 	0.54959	0.10982	0.50634	-0.578
Mof_O 	O 	0.54959	0.60982	0.00634	-0.578
Mof_O 	O 	0.14018	0.50634	0.70041	-0.578
Mof_O 	O 	0.14018	0.00634	0.20041	-0.578
Mof_O 	O 	0.64018	0.50634	0.20041	-0.578
Mof_O 	O 	0.64018	0.00634	0.70041	-0.578
Mof_O 	O 	0.64018	0.24366	0.54959	-0.578
Mof_O 	O 	0.64018	0.74366	0.04959	-0.578
Mof_O 	O 	0.14018	0.24366	0.04959	-0.578
Mof_O 	O 	0.14018	0.74366	0.54959	-0.578
Mof_O 	O 	0.10982	0.00634	0.04959	-0.578
Mof_O 	O 	0.10982	0.50634	0.54959	-0.578
Mof_O 	O 	0.60982	0.00634	0.54959	-0.578
Mof_O 	O 	0.60982	0.50634	0.04959	-0.578
Mof_O 	O 	0.60982	0.74366	0.20041	-0.578
Mof_O 	O 	0.60982	0.24366	0.70041	-0.578
Mof_O 	O 	0.10982	0.74366	0.70041	-0.578
Mof_O 	O 	0.10982	0.24366	0.20041	-0.578
Mof_O 	O 	0.20041	0.74366	0.60982	-0.578
Mof_O 	O 	0.20041	0.24366	0.10982	-0.578
Mof_O 	O 	0.70041	0.74366	0.10982	-0.578
Mof_O 	O 	0.70041	0.24366	0.60982	-0.578
Mof_O 	O 	0.04959	0.00634	0.10982	-0.578
Mof_O 	O 	0.04959	0.50634	0.60982	-0.578
Mof_O 	O 	0.54959	0.00634	0.60982	-0.578
Mof_O 	O 	0.54959	0.50634	0.10982	-0.578
Mof_O 	O 	0.54959	0.24366	0.64018	-0.578
Mof_O 	O 	0.54959	0.74366	0.14018	-0.578
Mof_O 	O 	0.04959	0.24366	0.14018	-0.578
Mof_O 	O 	0.04959	0.74366	0.64018	-0.578
Mof_O 	O 	0.70041	0.50634	0.14018	-0.578
Mof_O 	O 	0.70041	0.00634	0.64018	-0.578
Mof_O 	O 	0.20041	0.50634	0.64018	-0.578
Mof_O 	O 	0.20041	0.00634	0.14018	-0.578
Mof_O 	O 	0.60982	0.20041	0.74366	-0.578
Mof_O 	O 	0.60982	0.70041	0.24366	-0.578
Mof_O 	O 	0.10982	0.20041	0.24366	-0.578
Mof_O 	O 	0.10982	0.70041	0.74366	-0.578
Mof_O 	O 	0.10982	0.04959	0.00634	-0.578
Mof_O 	O 	0.10982	0.54959	0.50634	-0.578
Mof_O 	O 	0.60982	0.04959	0.50634	-0.577
Mof_O 	O 	0.60982	0.54959	0.00634	-0.577
Mof_O 	O 	0.64018	0.54959	0.24366	-0.577
Mof_O 	O 	0.64018	0.04959	0.74366	-0.577
Mof_O 	O 	0.14018	0.54959	0.74366	-0.577
Mof_O 	O 	0.14018	0.04959	0.24366	-0.577
Mof_O 	O 	0.14018	0.70041	0.50634	-0.577
Mof_O 	O 	0.14018	0.20041	0.00634	-0.577
Mof_O 	O 	0.64018	0.70041	0.00634	-0.577
Mof_O 	O 	0.64018	0.20041	0.50634	-0.577
Mof_O 	O 	0.74366	0.60982	0.20041	-0.577
Mof_O 	O 	0.74366	0.10982	0.70041	-0.577
Mof_O 	O 	0.24366	0.60982	0.70041	-0.577
Mof_O 	O 	0.24366	0.10982	0.20041	-0.577
Mof_O 	O 	0.00634	0.10982	0.04959	-0.577
Mof_O 	O 	0.00634	0.60982	0.54959	-0.577
Mof_O 	O 	0.50634	0.10982	0.54959	-0.577
Mof_O 	O 	0.50634	0.60982	0.04959	-0.577
Mof_O 	O 	0.24366	0.64018	0.54959	-0.577
Mof_O 	O 	0.24366	0.14018	0.04959	-0.577
Mof_O 	O 	0.74366	0.64018	0.04959	-0.577
Mof_O 	O 	0.74366	0.14018	0.54959	-0.577
Mof_O 	O 	0.50634	0.14018	0.70041	-0.577
Mof_O 	O 	0.50634	0.64018	0.20041	-0.577
Mof_O 	O 	0.00634	0.14018	0.20041	-0.577
Mof_O 	O 	0.00634	0.64018	0.70041	-0.577
Mof_O 	O 	0.99366	0.95041	0.89018	-0.577
Mof_O 	O 	0.99366	0.45041	0.39018	-0.577
Mof_O 	O 	0.49366	0.95041	0.39018	-0.577
Mof_O 	O 	0.49366	0.45041	0.89018	-0.577
Mof_O 	O 	0.25634	0.79959	0.39018	-0.577
Mof_O 	O 	0.25634	0.29959	0.89018	-0.577
Mof_O 	O 	0.75634	0.79959	0.89018	-0.577
Mof_O 	O 	0.75634	0.29959	0.39018	-0.577
Mof_O 	O 	0.49366	0.29959	0.85982	-0.577
Mof_O 	O 	0.49366	0.79959	0.35982	-0.577
Mof_O 	O 	0.99366	0.29959	0.35982	-0.577
Mof_O 	O 	0.99366	0.79959	0.85982	-0.577
Mof_O 	O 	0.75634	0.45041	0.35982	-0.577
Mof_O 	O 	0.75634	0.95041	0.85982	-0.577
Mof_O 	O 	0.25634	0.45041	0.85982	-0.577
Mof_O 	O 	0.25634	0.95041	0.35982	-0.577
Mof_O 	O 	0.45041	0.35982	0.75634	-0.577
Mof_O 	O 	0.45041	0.85982	0.25634	-0.577
Mof_O 	O 	0.95041	0.35982	0.25634	-0.577
Mof_O 	O 	0.95041	0.85982	0.75634	-0.577
Mof_O 	O 	0.29959	0.85982	0.49366	-0.577
Mof_O 	O 	0.29959	0.35982	0.99366	-0.577
Mof_O 	O 	0.79959	0.85982	0.99366	-0.577
Mof_O 	O 	0.79959	0.35982	0.49366	-0.577
Mof_O 	O 	0.79959	0.39018	0.25634	-0.577
Mof_O 	O 	0.79959	0.89018	0.75634	-0.577
Mof_O 	O 	0.29959	0.39018	0.75634	-0.577
Mof_O 	O 	0.29959	0.89018	0.25634	-0.577
Mof_O 	O 	0.95041	0.89018	0.99366	-0.577
Mof_O 	O 	0.95041	0.39018	0.49366	-0.577
Mof_O 	O 	0.45041	0.89018	0.49366	-0.577
Mof_O 	O 	0.45041	0.39018	0.99366	-0.577
Mof_O 	O 	0.85982	0.49366	0.29959	-0.577
Mof_O 	O 	0.85982	0.99366	0.79959	-0.577
Mof_O 	O 	0.35982	0.49366	0.79959	-0.577
Mof_O 	O 	0.35982	0.99366	0.29959	-0.577
Mof_O 	O 	0.35982	0.75634	0.45041	-0.577
Mof_O 	O 	0.35982	0.25634	0.95041	-0.577
Mof_O 	O 	0.85982	0.75634	0.95041	-0.577
Mof_O 	O 	0.85982	0.25634	0.45041	-0.577
Mof_O 	O 	0.89018	0.99366	0.95041	-0.577
Mof_O 	O 	0.89018	0.49366	0.45041	-0.577
Mof_O 	O 	0.39018	0.99366	0.45041	-0.577
Mof_O 	O 	0.39018	0.49366	0.95041	-0.577
Mof_O 	O 	0.39018	0.25634	0.79959	-0.577
Mof_O 	O 	0.39018	0.75634	0.29959	-0.577
Mof_O 	O 	0.89018	0.25634	0.29959	-0.577
Mof_O 	O 	0.89018	0.75634	0.79959	-0.577
Mof_Ce	Ce	0.7997	0.2267	0.4503	1.861
Mof_O 	O 	0.7643	0.1809	0.4857	-0.844
Mof_Ce	Ce	0.7997	0.7267	0.9503	1.861
Mof_O 	O 	0.7643	0.6809	0.9857	-0.844
Mof_Ce	Ce	0.9503	0.0233	0.9503	1.86
Mof_O 	O 	0.9857	0.0691	0.9857	-0.844
Mof_Ce	Ce	0.9503	0.5233	0.4503	1.861
Mof_O 	O 	0.9857	0.5691	0.4857	-0.844
Mof_Ce	Ce	0.4503	0.0233	0.4503	1.861
Mof_O 	O 	0.4857	0.0691	0.4857	-0.844
Mof_Ce	Ce	0.4503	0.5233	0.9503	1.861
Mof_O 	O 	0.4857	0.5691	0.9857	-0.844
Mof_Ce	Ce	0.4503	0.7267	0.2997	1.861
Mof_O 	O 	0.4857	0.6809	0.2643	-0.844
Mof_Ce	Ce	0.9503	0.7267	0.7997	1.861
Mof_O 	O 	0.9857	0.6809	0.7643	-0.844
Mof_Ce	Ce	0.2997	0.5233	0.7997	1.861
Mof_O 	O 	0.2643	0.5691	0.7643	-0.844
Mof_Ce	Ce	0.2997	0.0233	0.2997	1.861
Mof_O 	O 	0.2643	0.0691	0.2643	-0.844
Mof_Ce	Ce	0.4503	0.7997	0.2267	1.861
Mof_O 	O 	0.4857	0.7643	0.1809	-0.844
Mof_Ce	Ce	0.9503	0.7997	0.7267	1.861
Mof_O 	O 	0.9857	0.7643	0.6809	-0.844
Mof_Ce	Ce	0.9503	0.9503	0.0233	1.86
Mof_O 	O 	0.9857	0.9857	0.0691	-0.844
Mof_Ce	Ce	0.9503	0.4503	0.5233	1.861
Mof_O 	O 	0.9857	0.4857	0.5691	-0.844
Mof_Ce	Ce	0.4503	0.9503	0.5233	1.861
Mof_O 	O 	0.4857	0.9857	0.5691	-0.844
Mof_Ce	Ce	0.4503	0.4503	0.0233	1.861
Mof_O 	O 	0.4857	0.4857	0.0691	-0.844
Mof_Ce	Ce	0.2997	0.4503	0.7267	1.861
Mof_O 	O 	0.2643	0.4857	0.6809	-0.844
Mof_Ce	Ce	0.2997	0.9503	0.2267	1.861
Mof_O 	O 	0.2643	0.9857	0.1809	-0.844
Mof_Ce	Ce	0.7997	0.2997	0.5233	1.861
Mof_O 	O 	0.7643	0.2643	0.5691	-0.844
Mof_Ce	Ce	0.7997	0.7997	0.0233	1.86
Mof_O 	O 	0.7643	0.7643	0.0691	-0.844
Mof_Ce	Ce	0.2267	0.4503	0.7997	1.861
Mof_O 	O 	0.1809	0.4857	0.7643	-0.844
Mof_Ce	Ce	0.2267	0.9503	0.2997	1.861
Mof_O 	O 	0.1809	0.9857	0.2643	-0.844
Mof_Ce	Ce	0.0233	0.9503	0.9503	1.86
Mof_O 	O 	0.0691	0.9857	0.9857	-0.844
Mof_Ce	Ce	0.0233	0.4503	0.4503	1.861
Mof_O 	O 	0.0691	0.4857	0.4857	-0.844
Mof_Ce	Ce	0.5233	0.9503	0.4503	1.861
Mof_O 	O 	0.5691	0.9857	0.4857	-0.844
Mof_Ce	Ce	0.5233	0.4503	0.9503	1.861
Mof_O 	O 	0.5691	0.4857	0.9857	-0.844
Mof_Ce	Ce	0.7267	0.2997	0.4503	1.861
Mof_O 	O 	0.6809	0.2643	0.4857	-0.844
Mof_Ce	Ce	0.7267	0.7997	0.9503	1.861
Mof_O 	O 	0.6809	0.7643	0.9857	-0.844
Mof_Ce	Ce	0.5233	0.7997	0.2997	1.861
Mof_O 	O 	0.5691	0.7643	0.2643	-0.844
Mof_Ce	Ce	0.0233	0.7997	0.7997	1.86
Mof_O 	O 	0.0691	0.7643	0.7643	-0.844
Mof_Ce	Ce	0.9767	0.0497	0.0497	1.86
Mof_O 	O 	0.9309	0.0143	0.0143	-0.844
Mof_Ce	Ce	0.9767	0.5497	0.5497	1.861
Mof_O 	O 	0.9309	0.5143	0.5143	-0.844
Mof_Ce	Ce	0.4767	0.0497	0.5497	1.861
Mof_O 	O 	0.4309	0.0143	0.5143	-0.844
Mof_Ce	Ce	0.4767	0.5497	0.0497	1.861
Mof_O 	O 	0.4309	0.5143	0.0143	-0.844
Mof_Ce	Ce	0.7733	0.2003	0.5497	1.861
Mof_O 	O 	0.8191	0.2357	0.5143	-0.844
Mof_Ce	Ce	0.7733	0.7003	0.0497	1.861
Mof_O 	O 	0.8191	0.7357	0.0143	-0.844
Mof_Ce	Ce	0.4767	0.7003	0.2003	1.861
Mof_O 	O 	0.4309	0.7357	0.2357	-0.844
Mof_Ce	Ce	0.9767	0.7003	0.7003	1.861
Mof_O 	O 	0.9309	0.7357	0.7357	-0.844
Mof_Ce	Ce	0.2733	0.5497	0.7003	1.861
Mof_O 	O 	0.3191	0.5143	0.7357	-0.844
Mof_Ce	Ce	0.2733	0.0497	0.2003	1.861
Mof_O 	O 	0.3191	0.0143	0.2357	-0.844
Mof_Ce	Ce	0.5497	0.7003	0.2733	1.861
Mof_O 	O 	0.5143	0.7357	0.3191	-0.844
Mof_Ce	Ce	0.0497	0.7003	0.7733	1.861
Mof_O 	O 	0.0143	0.7357	0.8191	-0.844
Mof_Ce	Ce	0.7003	0.2003	0.4767	1.861
Mof_O 	O 	0.7357	0.2357	0.4309	-0.844
Mof_Ce	Ce	0.7003	0.7003	0.9767	1.861
Mof_O 	O 	0.7357	0.7357	0.9309	-0.844
Mof_Ce	Ce	0.2003	0.5497	0.7733	1.861
Mof_O 	O 	0.2357	0.5143	0.8191	-0.844
Mof_Ce	Ce	0.2003	0.0497	0.2733	1.861
Mof_O 	O 	0.2357	0.0143	0.3191	-0.844
Mof_Ce	Ce	0.0497	0.0497	0.9767	1.86
Mof_O 	O 	0.0143	0.0143	0.9309	-0.844
Mof_Ce	Ce	0.0497	0.5497	0.4767	1.861
Mof_O 	O 	0.0143	0.5143	0.4309	-0.844
Mof_Ce	Ce	0.5497	0.0497	0.4767	1.861
Mof_O 	O 	0.5143	0.0143	0.4309	-0.844
Mof_Ce	Ce	0.5497	0.5497	0.9767	1.861
Mof_O 	O 	0.5143	0.5143	0.9309	-0.844
Mof_Ce	Ce	0.2003	0.4767	0.7003	1.861
Mof_O 	O 	0.2357	0.4309	0.7357	-0.844
Mof_Ce	Ce	0.2003	0.9767	0.2003	1.86
Mof_O 	O 	0.2357	0.9309	0.2357	-0.844
Mof_Ce	Ce	0.7003	0.2733	0.5497	1.861
Mof_O 	O 	0.7357	0.3191	0.5143	-0.844
Mof_Ce	Ce	0.7003	0.7733	0.0497	1.861
Mof_O 	O 	0.7357	0.8191	0.0143	-0.844
Mof_Ce	Ce	0.0497	0.9767	0.0497	1.86
Mof_O 	O 	0.0143	0.9309	0.0143	-0.844
Mof_Ce	Ce	0.0497	0.4767	0.5497	1.861
Mof_O 	O 	0.0143	0.4309	0.5143	-0.844
Mof_Ce	Ce	0.5497	0.9767	0.5497	1.861
Mof_O 	O 	0.5143	0.9309	0.5143	-0.844
Mof_Ce	Ce	0.5497	0.4767	0.0497	1.861
Mof_O 	O 	0.5143	0.4309	0.0143	-0.844
Mof_Ce	Ce	0.5497	0.7733	0.2003	1.861
Mof_O 	O 	0.5143	0.8191	0.2357	-0.844
Mof_Ce	Ce	0.0497	0.7733	0.7003	1.861
Mof_O 	O 	0.0143	0.8191	0.7357	-0.844
Mof_Ce	Ce	0.2003	0.7733	0.5497	1.861
Mof_O 	O 	0.2357	0.8191	0.5143	-0.844
Mof_Ce	Ce	0.2003	0.2733	0.0497	1.861
Mof_O 	O 	0.2357	0.3191	0.0143	-0.844
Mof_Ce	Ce	0.5497	0.2733	0.7003	1.861
Mof_O 	O 	0.5143	0.3191	0.7357	-0.844
Mof_Ce	Ce	0.0497	0.2733	0.2003	1.861
Mof_O 	O 	0.0143	0.3191	0.2357	-0.844
Mof_Ce	Ce	0.7003	0.4767	0.2003	1.861
Mof_O 	O 	0.7357	0.4309	0.2357	-0.844
Mof_Ce	Ce	0.7003	0.9767	0.7003	1.861
Mof_O 	O 	0.7357	0.9309	0.7357	-0.844
Mof_Ce	Ce	0.5497	0.2003	0.7733	1.861
Mof_O 	O 	0.5143	0.2357	0.8191	-0.844
Mof_Ce	Ce	0.0497	0.2003	0.2733	1.861
Mof_O 	O 	0.0143	0.2357	0.3191	-0.844
Mof_Ce	Ce	0.7003	0.5497	0.2733	1.861
Mof_O 	O 	0.7357	0.5143	0.3191	-0.844
Mof_Ce	Ce	0.7003	0.0497	0.7733	1.861
Mof_O 	O 	0.7357	0.0143	0.8191	-0.844
Mof_Ce	Ce	0.2003	0.7003	0.4767	1.861
Mof_O 	O 	0.2357	0.7357	0.4309	-0.844
Mof_Ce	Ce	0.2003	0.2003	0.9767	1.86
Mof_O 	O 	0.2357	0.2357	0.9309	-0.844
Mof_Ce	Ce	0.7733	0.5497	0.2003	1.861
Mof_O 	O 	0.8191	0.5143	0.2357	-0.844
Mof_Ce	Ce	0.7733	0.0497	0.7003	1.861
Mof_O 	O 	0.8191	0.0143	0.7357	-0.844
Mof_Ce	Ce	0.2733	0.7003	0.5497	1.861
Mof_O 	O 	0.3191	0.7357	0.5143	-0.844
Mof_Ce	Ce	0.2733	0.2003	0.0497	1.861
Mof_O 	O 	0.3191	0.2357	0.0143	-0.844
Mof_Ce	Ce	0.4767	0.2003	0.7003	1.861
Mof_O 	O 	0.4309	0.2357	0.7357	-0.844
Mof_Ce	Ce	0.9767	0.2003	0.2003	1.86
Mof_O 	O 	0.9309	0.2357	0.2357	-0.844
Mof_Ce	Ce	0.2267	0.7997	0.4503	1.861
Mof_O 	O 	0.1809	0.7643	0.4857	-0.844
Mof_Ce	Ce	0.2267	0.2997	0.9503	1.861
Mof_O 	O 	0.1809	0.2643	0.9857	-0.844
Mof_Ce	Ce	0.5233	0.2997	0.7997	1.861
Mof_O 	O 	0.5691	0.2643	0.7643	-0.844
Mof_Ce	Ce	0.0233	0.2997	0.2997	1.861
Mof_O 	O 	0.0691	0.2643	0.2643	-0.844
Mof_Ce	Ce	0.7267	0.4503	0.2997	1.861
Mof_O 	O 	0.6809	0.4857	0.2643	-0.844
Mof_Ce	Ce	0.7267	0.9503	0.7997	1.861
Mof_O 	O 	0.6809	0.9857	0.7643	-0.844
Mof_Ce	Ce	0.4503	0.2997	0.7267	1.861
Mof_O 	O 	0.4857	0.2643	0.6809	-0.844
Mof_Ce	Ce	0.9503	0.2997	0.2267	1.861
Mof_O 	O 	0.9857	0.2643	0.1809	-0.844
Mof_Ce	Ce	0.2997	0.7997	0.5233	1.861
Mof_O 	O 	0.2643	0.7643	0.5691	-0.844
Mof_Ce	Ce	0.2997	0.2997	0.0233	1.861
Mof_O 	O 	0.2643	0.2643	0.0691	-0.844
Mof_Ce	Ce	0.7997	0.4503	0.2267	1.861
Mof_O 	O 	0.7643	0.4857	0.1809	-0.844
Mof_Ce	Ce	0.7997	0.9503	0.7267	1.861
Mof_O 	O 	0.7643	0.9857	0.6809	-0.844
Mof_Ce	Ce	0.7997	0.5233	0.2997	1.861
Mof_O 	O 	0.7643	0.5691	0.2643	-0.844
Mof_Ce	Ce	0.7997	0.0233	0.7997	1.86
Mof_O 	O 	0.7643	0.0691	0.7643	-0.844
Mof_Ce	Ce	0.2997	0.7267	0.4503	1.861
Mof_O 	O 	0.2643	0.6809	0.4857	-0.844
Mof_Ce	Ce	0.2997	0.2267	0.9503	1.861
Mof_O 	O 	0.2643	0.1809	0.9857	-0.844
Mof_Ce	Ce	0.4503	0.2267	0.7997	1.861
Mof_O 	O 	0.4857	0.1809	0.7643	-0.844
Mof_Ce	Ce	0.9503	0.2267	0.2997	1.861
Mof_O 	O 	0.9857	0.1809	0.2643	-0.844
Mof_O 	O 	0.78865	0.28865	0.46135	-0.803
Mof_O 	O 	0.78865	0.78865	0.96135	-0.803
Mof_O 	O 	0.96135	0.96135	0.96135	-0.802
Mof_O 	O 	0.96135	0.46135	0.46135	-0.803
Mof_O 	O 	0.46135	0.96135	0.46135	-0.803
Mof_O 	O 	0.46135	0.46135	0.96135	-0.803
Mof_O 	O 	0.46135	0.78865	0.28865	-0.803
Mof_O 	O 	0.96135	0.78865	0.78865	-0.803
Mof_O 	O 	0.28865	0.46135	0.78865	-0.803
Mof_O 	O 	0.28865	0.96135	0.28865	-0.803
Mof_O 	O 	0.96135	0.28865	0.28865	-0.803
Mof_O 	O 	0.78865	0.96135	0.78865	-0.803
Mof_O 	O 	0.28865	0.28865	0.96135	-0.803
Mof_O 	O 	0.03865	0.03865	0.03865	-0.802
Mof_O 	O 	0.03865	0.53865	0.53865	-0.803
Mof_O 	O 	0.53865	0.03865	0.53865	-0.803
Mof_O 	O 	0.53865	0.53865	0.03865	-0.803
Mof_O 	O 	0.71135	0.21135	0.53865	-0.803
Mof_O 	O 	0.71135	0.71135	0.03865	-0.803
Mof_O 	O 	0.53865	0.71135	0.21135	-0.803
Mof_O 	O 	0.03865	0.71135	0.71135	-0.803
Mof_O 	O 	0.21135	0.53865	0.71135	-0.803
Mof_O 	O 	0.21135	0.03865	0.21135	-0.803
Mof_O 	O 	0.21135	0.71135	0.53865	-0.803
Mof_O 	O 	0.21135	0.21135	0.03865	-0.803
Mof_O 	O 	0.53865	0.21135	0.71135	-0.803
Mof_O 	O 	0.03865	0.21135	0.21135	-0.803
Mof_O 	O 	0.71135	0.53865	0.21135	-0.803
Mof_O 	O 	0.71135	0.03865	0.71135	-0.803
Mof_O 	O 	0.28865	0.78865	0.46135	-0.803
Mof_O 	O 	0.46135	0.28865	0.78865	-0.803
Mof_O 	O 	0.78865	0.46135	0.28865	-0.803
Mof_C 	C 	0.78307	0.28307	0.37678	0.537
Mof_C 	C 	0.80313	0.30313	0.34938	-0.28
Mof_C 	C 	0.78307	0.78307	0.87678	0.537
Mof_C 	C 	0.80313	0.80313	0.84938	-0.28
Mof_C 	C 	0.96693	0.96693	0.87678	0.537
Mof_C 	C 	0.94687	0.94687	0.84938	-0.28
Mof_C 	C 	0.96693	0.46693	0.37678	0.537
Mof_C 	C 	0.94687	0.44687	0.34938	-0.28
Mof_C 	C 	0.46693	0.96693	0.37678	0.537
Mof_C 	C 	0.44687	0.94687	0.34938	-0.28
Mof_C 	C 	0.46693	0.46693	0.87678	0.537
Mof_C 	C 	0.44687	0.44687	0.84938	-0.28
Mof_C 	C 	0.46693	0.78307	0.37322	0.537
Mof_C 	C 	0.44687	0.80313	0.40062	-0.28
Mof_C 	C 	0.96693	0.78307	0.87322	0.537
Mof_C 	C 	0.94687	0.80313	0.90062	-0.28
Mof_C 	C 	0.28307	0.46693	0.87322	0.537
Mof_C 	C 	0.30313	0.44687	0.90062	-0.28
Mof_C 	C 	0.28307	0.96693	0.37322	0.537
Mof_C 	C 	0.30313	0.94687	0.40062	-0.28
Mof_C 	C 	0.37678	0.78307	0.28307	0.537
Mof_C 	C 	0.34938	0.80313	0.30313	-0.28
Mof_C 	C 	0.87678	0.78307	0.78307	0.537
Mof_C 	C 	0.84938	0.80313	0.80313	-0.28
Mof_C 	C 	0.87678	0.96693	0.96693	0.537
Mof_C 	C 	0.84938	0.94687	0.94687	-0.28
Mof_C 	C 	0.87678	0.46693	0.46693	0.537
Mof_C 	C 	0.84938	0.44687	0.44687	-0.28
Mof_C 	C 	0.37678	0.96693	0.46693	0.537
Mof_C 	C 	0.34938	0.94687	0.44687	-0.28
Mof_C 	C 	0.37678	0.46693	0.96693	0.537
Mof_C 	C 	0.34938	0.44687	0.94687	-0.28
Mof_C 	C 	0.37322	0.46693	0.78307	0.537
Mof_C 	C 	0.40062	0.44687	0.80313	-0.28
Mof_C 	C 	0.37322	0.96693	0.28307	0.537
Mof_C 	C 	0.40062	0.94687	0.30313	-0.28
Mof_C 	C 	0.87322	0.28307	0.46693	0.537
Mof_C 	C 	0.90062	0.30313	0.44687	-0.28
Mof_C 	C 	0.87322	0.78307	0.96693	0.537
Mof_C 	C 	0.90062	0.80313	0.94687	-0.28
Mof_C 	C 	0.28307	0.37678	0.78307	0.537
Mof_C 	C 	0.30313	0.34938	0.80313	-0.28
Mof_C 	C 	0.28307	0.87678	0.28307	0.537
Mof_C 	C 	0.30313	0.84938	0.30313	-0.28
Mof_C 	C 	0.78307	0.87678	0.78307	0.537
Mof_C 	C 	0.80313	0.84938	0.80313	-0.28
Mof_C 	C 	0.96693	0.87678	0.96693	0.537
Mof_C 	C 	0.94687	0.84938	0.94687	-0.28
Mof_C 	C 	0.96693	0.37678	0.46693	0.537
Mof_C 	C 	0.94687	0.34938	0.44687	-0.28
Mof_C 	C 	0.46693	0.87678	0.46693	0.537
Mof_C 	C 	0.44687	0.84938	0.44687	-0.28
Mof_C 	C 	0.46693	0.37678	0.96693	0.537
Mof_C 	C 	0.44687	0.34938	0.94687	-0.28
Mof_C 	C 	0.78307	0.37322	0.46693	0.537
Mof_C 	C 	0.80313	0.40062	0.44687	-0.28
Mof_C 	C 	0.78307	0.87322	0.96693	0.537
Mof_C 	C 	0.80313	0.90062	0.94687	-0.28
Mof_C 	C 	0.46693	0.87322	0.28307	0.537
Mof_C 	C 	0.44687	0.90062	0.30313	-0.28
Mof_C 	C 	0.96693	0.87322	0.78307	0.537
Mof_C 	C 	0.94687	0.90062	0.80313	-0.28
Mof_C 	C 	0.03307	0.03307	0.12322	0.537
Mof_C 	C 	0.05313	0.05313	0.15062	-0.28
Mof_C 	C 	0.03307	0.53307	0.62322	0.537
Mof_C 	C 	0.05313	0.55313	0.65062	-0.28
Mof_C 	C 	0.53307	0.03307	0.62322	0.537
Mof_C 	C 	0.55313	0.05313	0.65062	-0.28
Mof_C 	C 	0.53307	0.53307	0.12322	0.537
Mof_C 	C 	0.55313	0.55313	0.15062	-0.28
Mof_C 	C 	0.71693	0.21693	0.62322	0.537
Mof_C 	C 	0.69687	0.19687	0.65062	-0.28
Mof_C 	C 	0.71693	0.71693	0.12322	0.537
Mof_C 	C 	0.69687	0.69687	0.15062	-0.28
Mof_C 	C 	0.53307	0.71693	0.12678	0.537
Mof_C 	C 	0.55313	0.69687	0.09938	-0.28
Mof_C 	C 	0.03307	0.71693	0.62678	0.537
Mof_C 	C 	0.05313	0.69687	0.59938	-0.28
Mof_C 	C 	0.21693	0.53307	0.62678	0.537
Mof_C 	C 	0.19687	0.55313	0.59938	-0.28
Mof_C 	C 	0.21693	0.03307	0.12678	0.537
Mof_C 	C 	0.19687	0.05313	0.09938	-0.28
Mof_C 	C 	0.53307	0.62678	0.21693	0.537
Mof_C 	C 	0.55313	0.59938	0.19687	-0.28
Mof_C 	C 	0.03307	0.62678	0.71693	0.537
Mof_C 	C 	0.05313	0.59938	0.69687	-0.28
Mof_C 	C 	0.71693	0.12678	0.53307	0.537
Mof_C 	C 	0.69687	0.09938	0.55313	-0.28
Mof_C 	C 	0.71693	0.62678	0.03307	0.537
Mof_C 	C 	0.69687	0.59938	0.05313	-0.28
Mof_C 	C 	0.21693	0.62322	0.71693	0.537
Mof_C 	C 	0.19687	0.65062	0.69687	-0.28
Mof_C 	C 	0.21693	0.12322	0.21693	0.537
Mof_C 	C 	0.19687	0.15062	0.19687	-0.28
Mof_C 	C 	0.71693	0.12322	0.71693	0.537
Mof_C 	C 	0.69687	0.15062	0.69687	-0.28
Mof_C 	C 	0.03307	0.12322	0.03307	0.537
Mof_C 	C 	0.05313	0.15062	0.05313	-0.28
Mof_C 	C 	0.03307	0.62322	0.53307	0.537
Mof_C 	C 	0.05313	0.65062	0.55313	-0.28
Mof_C 	C 	0.53307	0.12322	0.53307	0.537
Mof_C 	C 	0.55313	0.15062	0.55313	-0.28
Mof_C 	C 	0.53307	0.62322	0.03307	0.537
Mof_C 	C 	0.55313	0.65062	0.05313	-0.28
Mof_C 	C 	0.12678	0.53307	0.71693	0.537
Mof_C 	C 	0.09938	0.55313	0.69687	-0.28
Mof_C 	C 	0.12678	0.03307	0.21693	0.537
Mof_C 	C 	0.09938	0.05313	0.19687	-0.28
Mof_C 	C 	0.62678	0.21693	0.53307	0.537
Mof_C 	C 	0.59938	0.19687	0.55313	-0.28
Mof_C 	C 	0.62678	0.71693	0.03307	0.537
Mof_C 	C 	0.59938	0.69687	0.05313	-0.28
Mof_C 	C 	0.12322	0.03307	0.03307	0.537
Mof_C 	C 	0.15062	0.05313	0.05313	-0.28
Mof_C 	C 	0.12322	0.53307	0.53307	0.537
Mof_C 	C 	0.15062	0.55313	0.55313	-0.28
Mof_C 	C 	0.62322	0.03307	0.53307	0.537
Mof_C 	C 	0.65062	0.05313	0.55313	-0.28
Mof_C 	C 	0.62322	0.53307	0.03307	0.537
Mof_C 	C 	0.65062	0.55313	0.05313	-0.28
Mof_C 	C 	0.62322	0.71693	0.21693	0.537
Mof_C 	C 	0.65062	0.69687	0.19687	-0.28
Mof_C 	C 	0.12322	0.71693	0.71693	0.537
Mof_C 	C 	0.15062	0.69687	0.69687	-0.28
Mof_C 	C 	0.21693	0.71693	0.62322	0.537
Mof_C 	C 	0.19687	0.69687	0.65062	-0.28
Mof_C 	C 	0.21693	0.21693	0.12322	0.537
Mof_C 	C 	0.19687	0.19687	0.15062	-0.28
Mof_C 	C 	0.53307	0.21693	0.62678	0.537
Mof_C 	C 	0.55313	0.19687	0.59938	-0.28
Mof_C 	C 	0.03307	0.21693	0.12678	0.537
Mof_C 	C 	0.05313	0.19687	0.09938	-0.28
Mof_C 	C 	0.71693	0.53307	0.12678	0.537
Mof_C 	C 	0.69687	0.55313	0.09938	-0.28
Mof_C 	C 	0.71693	0.03307	0.62678	0.537
Mof_C 	C 	0.69687	0.05313	0.59938	-0.28
Mof_C 	C 	0.62322	0.21693	0.71693	0.537
Mof_C 	C 	0.65062	0.19687	0.69687	-0.28
Mof_C 	C 	0.12322	0.21693	0.21693	0.537
Mof_C 	C 	0.15062	0.19687	0.19687	-0.28
Mof_C 	C 	0.62678	0.53307	0.21693	0.537
Mof_C 	C 	0.59938	0.55313	0.19687	-0.28
Mof_C 	C 	0.62678	0.03307	0.71693	0.537
Mof_C 	C 	0.59938	0.05313	0.69687	-0.28
Mof_C 	C 	0.12678	0.71693	0.53307	0.537
Mof_C 	C 	0.09938	0.69687	0.55313	-0.28
Mof_C 	C 	0.12678	0.21693	0.03307	0.537
Mof_C 	C 	0.09938	0.19687	0.05313	-0.28
Mof_C 	C 	0.71693	0.62322	0.21693	0.537
Mof_C 	C 	0.69687	0.65062	0.19687	-0.28
Mof_C 	C 	0.21693	0.62678	0.53307	0.537
Mof_C 	C 	0.19687	0.59938	0.55313	-0.28
Mof_C 	C 	0.21693	0.12678	0.03307	0.537
Mof_C 	C 	0.19687	0.09938	0.05313	-0.28
Mof_C 	C 	0.53307	0.12678	0.71693	0.537
Mof_C 	C 	0.55313	0.09938	0.69687	-0.28
Mof_C 	C 	0.03307	0.12678	0.21693	0.537
Mof_C 	C 	0.05313	0.09938	0.19687	-0.28
Mof_C 	C 	0.28307	0.78307	0.37678	0.537
Mof_C 	C 	0.30313	0.80313	0.34938	-0.28
Mof_C 	C 	0.28307	0.28307	0.87678	0.537
Mof_C 	C 	0.30313	0.30313	0.84938	-0.28
Mof_C 	C 	0.46693	0.28307	0.87322	0.537
Mof_C 	C 	0.44687	0.30313	0.90062	-0.28
Mof_C 	C 	0.96693	0.28307	0.37322	0.537
Mof_C 	C 	0.94687	0.30313	0.40062	-0.28
Mof_C 	C 	0.78307	0.46693	0.37322	0.537
Mof_C 	C 	0.80313	0.44687	0.40062	-0.28
Mof_C 	C 	0.78307	0.96693	0.87322	0.537
Mof_C 	C 	0.80313	0.94687	0.90062	-0.28
Mof_C 	C 	0.46693	0.37322	0.78307	0.537
Mof_C 	C 	0.44687	0.40062	0.80313	-0.28
Mof_C 	C 	0.96693	0.37322	0.28307	0.537
Mof_C 	C 	0.94687	0.40062	0.30313	-0.28
Mof_C 	C 	0.28307	0.87322	0.46693	0.537
Mof_C 	C 	0.30313	0.90062	0.44687	-0.28
Mof_C 	C 	0.28307	0.37322	0.96693	0.537
Mof_C 	C 	0.30313	0.40062	0.94687	-0.28
Mof_C 	C 	0.78307	0.37678	0.28307	0.537
Mof_C 	C 	0.80313	0.34938	0.30313	-0.28
Mof_C 	C 	0.87322	0.46693	0.28307	0.537
Mof_C 	C 	0.90062	0.44687	0.30313	-0.28
Mof_C 	C 	0.87322	0.96693	0.78307	0.537
Mof_C 	C 	0.90062	0.94687	0.80313	-0.28
Mof_C 	C 	0.37322	0.78307	0.46693	0.537
Mof_C 	C 	0.40062	0.80313	0.44687	-0.28
Mof_C 	C 	0.37322	0.28307	0.96693	0.537
Mof_C 	C 	0.40062	0.30313	0.94687	-0.28
Mof_C 	C 	0.37678	0.28307	0.78307	0.537
Mof_C 	C 	0.34938	0.30313	0.80313	-0.28
Mof_C 	C 	0.87678	0.28307	0.28307	0.537
Mof_C 	C 	0.84938	0.30313	0.30313	-0.28
Mof_C 	C 	0.78782	0.33345	0.33345	0.149
Mof_C 	C 	0.78782	0.83345	0.83345	0.149
Mof_C 	C 	0.28782	0.33345	0.83345	0.149
Mof_C 	C 	0.28782	0.83345	0.33345	0.149
Mof_C 	C 	0.96218	0.91655	0.83345	0.149
Mof_C 	C 	0.96218	0.41655	0.33345	0.149
Mof_C 	C 	0.46218	0.83345	0.41655	0.149
Mof_C 	C 	0.46218	0.33345	0.91655	0.149
Mof_C 	C 	0.96218	0.33345	0.41655	0.149
Mof_C 	C 	0.28782	0.41655	0.91655	0.149
Mof_C 	C 	0.78782	0.41655	0.41655	0.149
Mof_C 	C 	0.33345	0.78782	0.33345	0.149
Mof_C 	C 	0.33345	0.28782	0.83345	0.149
Mof_C 	C 	0.83345	0.78782	0.83345	0.149
Mof_C 	C 	0.83345	0.28782	0.33345	0.149
Mof_C 	C 	0.83345	0.96218	0.91655	0.149
Mof_C 	C 	0.33345	0.96218	0.41655	0.149
Mof_C 	C 	0.41655	0.46218	0.83345	0.149
Mof_C 	C 	0.41655	0.96218	0.33345	0.149
Mof_C 	C 	0.91655	0.28782	0.41655	0.149
Mof_C 	C 	0.91655	0.78782	0.91655	0.149
Mof_C 	C 	0.41655	0.78782	0.41655	0.149
Mof_C 	C 	0.33345	0.33345	0.78782	0.149
Mof_C 	C 	0.33345	0.83345	0.28782	0.149
Mof_C 	C 	0.83345	0.33345	0.28782	0.149
Mof_C 	C 	0.83345	0.83345	0.78782	0.149
Mof_C 	C 	0.91655	0.83345	0.96218	0.149
Mof_C 	C 	0.91655	0.33345	0.46218	0.149
Mof_C 	C 	0.41655	0.33345	0.96218	0.149
Mof_C 	C 	0.83345	0.41655	0.46218	0.149
Mof_C 	C 	0.33345	0.41655	0.96218	0.149
Mof_C 	C 	0.41655	0.91655	0.28782	0.149
Mof_C 	C 	0.41655	0.41655	0.78782	0.149
Mof_C 	C 	0.08345	0.03782	0.16655	0.149
Mof_C 	C 	0.08345	0.53782	0.66655	0.149
Mof_C 	C 	0.66655	0.21218	0.66655	0.149
Mof_C 	C 	0.66655	0.71218	0.16655	0.149
Mof_C 	C 	0.16655	0.21218	0.16655	0.149
Mof_C 	C 	0.16655	0.71218	0.66655	0.149
Mof_C 	C 	0.58345	0.71218	0.08345	0.149
Mof_C 	C 	0.58345	0.21218	0.58345	0.149
Mof_C 	C 	0.08345	0.21218	0.08345	0.149
Mof_C 	C 	0.16655	0.53782	0.58345	0.149
Mof_C 	C 	0.66655	0.53782	0.08345	0.149
Mof_C 	C 	0.53782	0.58345	0.16655	0.149
Mof_C 	C 	0.53782	0.08345	0.66655	0.149
Mof_C 	C 	0.71218	0.08345	0.58345	0.149
Mof_C 	C 	0.21218	0.08345	0.08345	0.149
Mof_C 	C 	0.21218	0.66655	0.66655	0.149
Mof_C 	C 	0.21218	0.16655	0.16655	0.149
Mof_C 	C 	0.71218	0.66655	0.16655	0.149
Mof_C 	C 	0.71218	0.16655	0.66655	0.149
Mof_C 	C 	0.03782	0.16655	0.08345	0.149
Mof_C 	C 	0.03782	0.66655	0.58345	0.149
Mof_C 	C 	0.53782	0.66655	0.08345	0.149
Mof_C 	C 	0.08345	0.58345	0.71218	0.149
Mof_C 	C 	0.08345	0.08345	0.21218	0.149
Mof_C 	C 	0.58345	0.16655	0.53782	0.149
Mof_C 	C 	0.58345	0.66655	0.03782	0.149
Mof_C 	C 	0.08345	0.66655	0.53782	0.149
Mof_C 	C 	0.16655	0.08345	0.03782	0.149
Mof_C 	C 	0.66655	0.08345	0.53782	0.149
Mof_C 	C 	0.66655	0.66655	0.21218	0.149
Mof_C 	C 	0.66655	0.16655	0.71218	0.149
Mof_C 	C 	0.16655	0.66655	0.71218	0.149
Mof_C 	C 	0.16655	0.16655	0.21218	0.149
Mof_C 	C 	0.03782	0.08345	0.16655	0.149
Mof_C 	C 	0.03782	0.58345	0.66655	0.149
Mof_C 	C 	0.53782	0.16655	0.58345	0.149
Mof_C 	C 	0.71218	0.58345	0.08345	0.149
Mof_C 	C 	0.21218	0.58345	0.58345	0.149
Mof_C 	C 	0.16655	0.03782	0.08345	0.149
Mof_C 	C 	0.66655	0.03782	0.58345	0.149
Mof_C 	C 	0.58345	0.53782	0.16655	0.149
Mof_C 	C 	0.58345	0.03782	0.66655	0.149
Mof_C 	C 	0.08345	0.71218	0.58345	0.149
Mof_C 	C 	0.08345	0.16655	0.03782	0.149
Mof_C 	C 	0.16655	0.58345	0.53782	0.149
Mof_C 	C 	0.66655	0.58345	0.03782	0.149
Mof_C 	C 	0.58345	0.08345	0.71218	0.149
Mof_C 	C 	0.58345	0.58345	0.21218	0.149
Mof_C 	C 	0.91655	0.96218	0.83345	0.149
Mof_C 	C 	0.91655	0.46218	0.33345	0.149
Mof_C 	C 	0.41655	0.28782	0.91655	0.149
Mof_C 	C 	0.83345	0.46218	0.41655	0.149
Mof_C 	C 	0.33345	0.46218	0.91655	0.149
Mof_C 	C 	0.46218	0.41655	0.83345	0.149
Mof_C 	C 	0.46218	0.91655	0.33345	0.149
Mof_C 	C 	0.28782	0.91655	0.41655	0.149
Mof_C 	C 	0.78782	0.91655	0.91655	0.149
Mof_C 	C 	0.96218	0.83345	0.91655	0.149
Mof_C 	C 	0.91655	0.41655	0.28782	0.149
Mof_C 	C 	0.91655	0.91655	0.78782	0.149
Mof_C 	C 	0.41655	0.83345	0.46218	0.149
Mof_C 	C 	0.83345	0.91655	0.96218	0.149
Mof_C 	C 	0.33345	0.91655	0.46218	0.149
_end
