data_functionalizedCrystal
_audit_creation_method	'EQeq! by Chris Wilmer'
_symmetry_space_group_name_H-M	'P1'
_symmetry_Int_Tables_number	1
_symmetry_cell_setting	triclinic
loop_
_symmetry_equiv_pos_as_xyz
  x,y,z
_cell_length_a	16.214
_cell_length_b	24.156
_cell_length_c	24.992
_cell_angle_alpha	90
_cell_angle_beta	90
_cell_angle_gamma	90
loop_
_atom_site_label
_atom_site_type_symbol
_atom_site_fract_x
_atom_site_fract_y
_atom_site_fract_z
_atom_site_charge
Mof_Zn	Zn	0.82111	0.77128	0.5119	1.237
Mof_Zn	Zn	0.82111	0.22872	0.4881	1.237
Mof_Zn	Zn	0.67889	0.72872	0.0119	1.235
Mof_Zn	Zn	0.67889	0.27128	0.9881	1.235
Mof_Zn	Zn	0.17889	0.22872	0.4881	1.235
Mof_Zn	Zn	0.17889	0.77128	0.5119	1.235
Mof_Zn	Zn	0.32111	0.27128	0.9881	1.234
Mof_Zn	Zn	0.32111	0.72872	0.0119	1.234
Mof_Zn	Zn	-1.73253e-32	0.02108	0.57203	1.194
Mof_Zn	Zn	-1.81578e-32	0.97892	0.42797	1.194
Mof_Zn	Zn	0.5	0.47892	0.07203	1.206
Mof_Zn	Zn	0.5	0.52108	0.92797	1.206
Mof_Zn	Zn	0.5	0.71933	0.7924	1.236
Mof_Zn	Zn	0.5	0.28067	0.2076	1.236
Mof_Zn	Zn	1.68986e-33	0.78067	0.2924	1.219
Mof_Zn	Zn	-1.65418e-32	0.21933	0.7076	1.219
Mof_Mo	Mo	0.10803	0.90842	0.53799	1.081
Mof_Mo	Mo	0.19071	0.90762	0.44787	1.114
Mof_Mo	Mo	0.09852	0.09399	0.67598	1.4
Mof_Mo	Mo	0.81225	0.78512	0.36592	1.124
Mof_Mo	Mo	0.89081	0.69663	0.39691	1.145
Mof_Mo	Mo	0.10803	0.09158	0.46201	1.081
Mof_Mo	Mo	0.19071	0.09238	0.55213	1.114
Mof_Mo	Mo	0.09852	0.90601	0.32402	1.4
Mof_Mo	Mo	0.81225	0.21488	0.63408	1.124
Mof_Mo	Mo	0.89081	0.30337	0.60309	1.145
Mof_Mo	Mo	0.39197	0.59158	0.03799	1.085
Mof_Mo	Mo	0.30929	0.59238	0.94787	1.105
Mof_Mo	Mo	0.40148	0.40601	0.17598	1.41
Mof_Mo	Mo	0.68775	0.71488	0.86592	1.14
Mof_Mo	Mo	0.60919	0.80337	0.89691	1.077
Mof_Mo	Mo	0.39197	0.40842	0.96201	1.085
Mof_Mo	Mo	0.30929	0.40762	0.05213	1.105
Mof_Mo	Mo	0.40148	0.59399	0.82402	1.41
Mof_Mo	Mo	0.68775	0.28512	0.13408	1.14
Mof_Mo	Mo	0.60919	0.19663	0.10309	1.077
Mof_Mo	Mo	0.89197	0.09158	0.46201	1.161
Mof_Mo	Mo	0.80929	0.09238	0.55213	1.11
Mof_Mo	Mo	0.90148	0.90601	0.32402	1.531
Mof_Mo	Mo	0.18775	0.21488	0.63408	1.125
Mof_Mo	Mo	0.10919	0.30337	0.60309	1.057
Mof_Mo	Mo	0.89197	0.90842	0.53799	1.161
Mof_Mo	Mo	0.80929	0.90762	0.44787	1.11
Mof_Mo	Mo	0.90148	0.09399	0.67598	1.531
Mof_Mo	Mo	0.18775	0.78512	0.36592	1.125
Mof_Mo	Mo	0.10919	0.69663	0.39691	1.057
Mof_Mo	Mo	0.60803	0.40842	0.96201	1.093
Mof_Mo	Mo	0.69071	0.40762	0.05213	1.127
Mof_Mo	Mo	0.59852	0.59399	0.82402	1.42
Mof_Mo	Mo	0.31225	0.28512	0.13408	1.118
Mof_Mo	Mo	0.39081	0.19663	0.10309	1.066
Mof_Mo	Mo	0.60803	0.59158	0.03799	1.093
Mof_Mo	Mo	0.69071	0.59238	0.94787	1.127
Mof_Mo	Mo	0.59852	0.40601	0.17598	1.42
Mof_Mo	Mo	0.31225	0.71488	0.86592	1.118
Mof_Mo	Mo	0.39081	0.80337	0.89691	1.066
Mof_Mo	Mo	-3.78765e-32	0.79692	0.58587	1.277
Mof_Mo	Mo	-1.766e-32	0.68798	0.51411	1.239
Mof_Mo	Mo	-7.92223e-33	0.20308	0.41413	1.277
Mof_Mo	Mo	-2.34971e-33	0.31202	0.48589	1.239
Mof_Mo	Mo	0.5	0.70308	0.08587	1.414
Mof_Mo	Mo	0.5	0.81202	0.01411	1.367
Mof_Mo	Mo	0.5	0.29692	0.91413	1.414
Mof_Mo	Mo	0.5	0.18798	0.98589	1.367
Mof_P 	P 	-1.81061e-32	0.82264	0.43692	0.497
Mof_P 	P 	-7.0614e-33	0.17736	0.56308	0.497
Mof_P 	P 	0.5	0.67736	0.93692	0.542
Mof_P 	P 	0.5	0.32264	0.06308	0.542
Mof_H 	H 	0.6246	0.7413	0.6225	-0.003
Mof_H 	H 	0.6246	0.2587	0.3775	-0.003
Mof_H 	H 	0.8754	0.7587	0.1225	-0.014
Mof_H 	H 	0.8754	0.2413	0.8775	-0.014
Mof_H 	H 	0.3754	0.2587	0.3775	-0.008
Mof_H 	H 	0.3754	0.7413	0.6225	-0.008
Mof_H 	H 	0.1246	0.2413	0.8775	-0.006
Mof_H 	H 	0.1246	0.7587	0.1225	-0.006
Mof_H 	H 	0.5	0.773	0.4892	-0.004
Mof_H 	H 	0.5	0.227	0.5108	-0.004
Mof_H 	H 	2.6348e-32	0.727	0.9892	0.011
Mof_H 	H 	-3.64475e-33	0.273	0.0108	0.011
Mof_C 	C 	0.5753	0.7479	0.6047	0.093
Mof_C 	C 	0.5762	0.7595	0.5513	-0.195
Mof_C 	C 	0.6522	0.7684	0.5221	0.359
Mof_C 	C 	0.5753	0.2521	0.3953	0.093
Mof_C 	C 	0.5762	0.2405	0.4487	-0.195
Mof_C 	C 	0.6522	0.2316	0.4779	0.359
Mof_C 	C 	0.9247	0.7521	0.1047	0.143
Mof_C 	C 	0.9238	0.7405	0.0513	-0.123
Mof_C 	C 	0.8478	0.7316	0.0221	0.341
Mof_C 	C 	0.9247	0.2479	0.8953	0.143
Mof_C 	C 	0.9238	0.2595	0.9487	-0.123
Mof_C 	C 	0.8478	0.2684	0.9779	0.341
Mof_C 	C 	0.4247	0.2521	0.3953	0.094
Mof_C 	C 	0.4238	0.2405	0.4487	-0.197
Mof_C 	C 	0.3478	0.2316	0.4779	0.36
Mof_C 	C 	0.4247	0.7479	0.6047	0.094
Mof_C 	C 	0.4238	0.7595	0.5513	-0.197
Mof_C 	C 	0.3478	0.7684	0.5221	0.36
Mof_C 	C 	0.0753	0.2479	0.8953	0.082
Mof_C 	C 	0.0762	0.2595	0.9487	-0.174
Mof_C 	C 	0.1522	0.2684	0.9779	0.345
Mof_C 	C 	0.0753	0.7521	0.1047	0.082
Mof_C 	C 	0.0762	0.7405	0.0513	-0.174
Mof_C 	C 	0.1522	0.7316	0.0221	0.345
Mof_C 	C 	0.5	0.7651	0.5256	0.09
Mof_C 	C 	0.5	0.7458	0.6331	-0.188
Mof_C 	C 	0.5	0.734	0.6937	0.385
Mof_C 	C 	0.5	0.2349	0.4744	0.09
Mof_C 	C 	0.5	0.2542	0.3669	-0.188
Mof_C 	C 	0.5	0.266	0.3063	0.385
Mof_C 	C 	2.72685e-33	0.7349	0.0256	-0.011
Mof_C 	C 	-9.54637e-33	0.7542	0.1331	-0.231
Mof_C 	C 	6.27724e-33	0.766	0.1937	0.307
Mof_C 	C 	-1.49999e-32	0.2651	0.9744	-0.011
Mof_C 	C 	-2.59367e-32	0.2458	0.8669	-0.231
Mof_C 	C 	-1.59714e-32	0.234	0.8063	0.307
Mof_O 	O 	0.0922	0.9471	0.4697	-0.761
Mof_O 	O 	0.7176	0.7526	0.5457	-0.497
Mof_O 	O 	0.1815	0.8526	0.5041	-0.701
Mof_O 	O 	0.9248	0.7467	0.5442	-0.685
Mof_O 	O 	0.8181	0.7493	0.4359	-0.695
Mof_O 	O 	0.0782	0.8426	0.4085	-0.458
Mof_O 	O 	0.9085	0.7489	0.3355	-0.672
Mof_O 	O 	0.0835	0.8465	0.59	-0.647
Mof_O 	O 	0.165	0.936	0.3759	-0.687
Mof_O 	O 	0.2572	0.8441	0.4084	-0.462
Mof_O 	O 	0.8385	0.8451	0.3126	-0.66
Mof_O 	O 	0.0854	0.6678	0.4701	-0.632
Mof_O 	O 	0.6528	0.79	0.4766	-0.337
Mof_O 	O 	0.4365	0.7317	0.7193	-0.468
Mof_O 	O 	0.0922	0.0529	0.5303	-0.761
Mof_O 	O 	0.7176	0.2474	0.4543	-0.497
Mof_O 	O 	0.1815	0.1474	0.4959	-0.701
Mof_O 	O 	0.9248	0.2533	0.4558	-0.685
Mof_O 	O 	0.8181	0.2507	0.5641	-0.695
Mof_O 	O 	0.0782	0.1574	0.5915	-0.458
Mof_O 	O 	0.9085	0.2511	0.6645	-0.672
Mof_O 	O 	0.0835	0.1535	0.41	-0.647
Mof_O 	O 	0.165	0.064	0.6241	-0.687
Mof_O 	O 	0.2572	0.1559	0.5916	-0.462
Mof_O 	O 	0.8385	0.1549	0.6874	-0.66
Mof_O 	O 	0.0854	0.3322	0.5299	-0.632
Mof_O 	O 	0.6528	0.21	0.5234	-0.337
Mof_O 	O 	0.4365	0.2683	0.2807	-0.468
Mof_O 	O 	0.4078	0.5529	0.9697	-0.755
Mof_O 	O 	0.7824	0.7474	0.0457	-0.493
Mof_O 	O 	0.3185	0.6474	0.0041	-0.703
Mof_O 	O 	0.5752	0.7533	0.0442	-0.761
Mof_O 	O 	0.6819	0.7507	0.9359	-0.691
Mof_O 	O 	0.4218	0.6574	0.9085	-0.459
Mof_O 	O 	0.5915	0.7511	0.8355	-0.693
Mof_O 	O 	0.4165	0.6535	0.09	-0.662
Mof_O 	O 	0.335	0.564	0.8759	-0.689
Mof_O 	O 	0.2428	0.6559	0.9084	-0.466
Mof_O 	O 	0.6615	0.6549	0.8126	-0.647
Mof_O 	O 	0.4146	0.8322	0.9701	-0.646
Mof_O 	O 	0.8472	0.71	0.9766	-0.314
Mof_O 	O 	0.0635	0.7683	0.2193	-0.456
Mof_O 	O 	0.4078	0.4471	0.0303	-0.755
Mof_O 	O 	0.7824	0.2526	0.9543	-0.493
Mof_O 	O 	0.3185	0.3526	0.9959	-0.703
Mof_O 	O 	0.5752	0.2467	0.9558	-0.761
Mof_O 	O 	0.6819	0.2493	0.0641	-0.691
Mof_O 	O 	0.4218	0.3426	0.0915	-0.459
Mof_O 	O 	0.5915	0.2489	0.1645	-0.693
Mof_O 	O 	0.4165	0.3465	0.91	-0.662
Mof_O 	O 	0.335	0.436	0.1241	-0.689
Mof_O 	O 	0.2428	0.3441	0.0916	-0.466
Mof_O 	O 	0.6615	0.3451	0.1874	-0.647
Mof_O 	O 	0.4146	0.1678	0.0299	-0.646
Mof_O 	O 	0.8472	0.29	0.0234	-0.314
Mof_O 	O 	0.0635	0.2317	0.7807	-0.456
Mof_O 	O 	0.9078	0.0529	0.5303	-0.737
Mof_O 	O 	0.2824	0.2474	0.4543	-0.503
Mof_O 	O 	0.8185	0.1474	0.4959	-0.706
Mof_O 	O 	0.0752	0.2533	0.4558	-0.736
Mof_O 	O 	0.1819	0.2507	0.5641	-0.69
Mof_O 	O 	0.9218	0.1574	0.5915	-0.42
Mof_O 	O 	0.0915	0.2511	0.6645	-0.7
Mof_O 	O 	0.9165	0.1535	0.41	-0.609
Mof_O 	O 	0.835	0.064	0.6241	-0.697
Mof_O 	O 	0.7428	0.1559	0.5916	-0.461
Mof_O 	O 	0.1615	0.1549	0.6874	-0.65
Mof_O 	O 	0.9146	0.3322	0.5299	-0.596
Mof_O 	O 	0.3472	0.21	0.5234	-0.338
Mof_O 	O 	0.5635	0.2683	0.2807	-0.464
Mof_O 	O 	0.9078	0.9471	0.4697	-0.737
Mof_O 	O 	0.2824	0.7526	0.5457	-0.503
Mof_O 	O 	0.8185	0.8526	0.5041	-0.706
Mof_O 	O 	0.0752	0.7467	0.5442	-0.736
Mof_O 	O 	0.1819	0.7493	0.4359	-0.69
Mof_O 	O 	0.9218	0.8426	0.4085	-0.42
Mof_O 	O 	0.0915	0.7489	0.3355	-0.7
Mof_O 	O 	0.9165	0.8465	0.59	-0.609
Mof_O 	O 	0.835	0.936	0.3759	-0.697
Mof_O 	O 	0.7428	0.8441	0.4084	-0.461
Mof_O 	O 	0.1615	0.8451	0.3126	-0.65
Mof_O 	O 	0.9146	0.6678	0.4701	-0.596
Mof_O 	O 	0.3472	0.79	0.4766	-0.338
Mof_O 	O 	0.5635	0.7317	0.7193	-0.464
Mof_O 	O 	0.5922	0.4471	0.0303	-0.758
Mof_O 	O 	0.2176	0.2526	0.9543	-0.503
Mof_O 	O 	0.6815	0.3526	0.9959	-0.703
Mof_O 	O 	0.4248	0.2467	0.9558	-0.762
Mof_O 	O 	0.3181	0.2493	0.0641	-0.692
Mof_O 	O 	0.5782	0.3426	0.0915	-0.463
Mof_O 	O 	0.4085	0.2489	0.1645	-0.692
Mof_O 	O 	0.5835	0.3465	0.91	-0.66
Mof_O 	O 	0.665	0.436	0.1241	-0.685
Mof_O 	O 	0.7572	0.3441	0.0916	-0.456
Mof_O 	O 	0.3385	0.3451	0.1874	-0.651
Mof_O 	O 	0.5854	0.1678	0.0299	-0.643
Mof_O 	O 	0.1528	0.29	0.0234	-0.342
Mof_O 	O 	0.9365	0.2317	0.7807	-0.394
Mof_O 	O 	0.5922	0.5529	0.9697	-0.758
Mof_O 	O 	0.2176	0.7474	0.0457	-0.503
Mof_O 	O 	0.6815	0.6474	0.0041	-0.703
Mof_O 	O 	0.4248	0.7533	0.0442	-0.762
Mof_O 	O 	0.3181	0.7507	0.9359	-0.692
Mof_O 	O 	0.5782	0.6574	0.9085	-0.463
Mof_O 	O 	0.4085	0.7511	0.8355	-0.692
Mof_O 	O 	0.5835	0.6535	0.09	-0.66
Mof_O 	O 	0.665	0.564	0.8759	-0.685
Mof_O 	O 	0.7572	0.6559	0.9084	-0.456
Mof_O 	O 	0.3385	0.6549	0.8126	-0.651
Mof_O 	O 	0.5854	0.8322	0.9701	-0.643
Mof_O 	O 	0.1528	0.71	0.9766	-0.342
Mof_O 	O 	0.9365	0.7683	0.2193	-0.394
Mof_O 	O 	-2.77011e-32	0.9401	0.5616	-0.757
Mof_O 	O 	-1.69192e-32	0.0556	0.6423	-0.823
Mof_O 	O 	-2.32727e-32	0.7575	0.4354	-0.478
Mof_O 	O 	2.86074e-33	0.8454	0.495	-0.473
Mof_O 	O 	-1.33154e-32	0.6605	0.3734	-0.55
Mof_O 	O 	2.53363e-33	0.0599	0.4384	-0.757
Mof_O 	O 	-2.88795e-32	0.9444	0.3577	-0.823
Mof_O 	O 	-7.05262e-33	0.2425	0.5646	-0.478
Mof_O 	O 	-7.39706e-33	0.1546	0.505	-0.473
Mof_O 	O 	-1.70099e-32	0.3395	0.6266	-0.55
Mof_O 	O 	0.5	0.5599	0.0616	-0.718
Mof_O 	O 	0.5	0.4444	0.1423	-0.779
Mof_O 	O 	0.5	0.7425	0.9354	-0.459
Mof_O 	O 	0.5	0.6546	0.995	-0.455
Mof_O 	O 	0.5	0.8395	0.8734	-0.508
Mof_O 	O 	0.5	0.4401	0.9384	-0.718
Mof_O 	O 	0.5	0.5556	0.8577	-0.779
Mof_O 	O 	0.5	0.2575	0.0646	-0.459
Mof_O 	O 	0.5	0.3454	0.005	-0.455
Mof_O 	O 	0.5	0.1605	0.1266	-0.508
Mof_O 	O 	0.5	0.6365	0.8023	-0.761
Mof_O 	O 	0.5	0.3635	0.1977	-0.761
Mof_O 	O 	-2.40419e-32	0.8635	0.3023	-0.808
Mof_O 	O 	-6.2834e-33	0.1365	0.6977	-0.808
_end
