data_functionalizedCrystal
_audit_creation_method	'EQeq! by Chris Wilmer'
_symmetry_space_group_name_H-M	'P1'
_symmetry_Int_Tables_number	1
_symmetry_cell_setting	triclinic
loop_
_symmetry_equiv_pos_as_xyz
  x,y,z
_cell_length_a	14.174
_cell_length_b	15.4556
_cell_length_c	15.4556
_cell_angle_alpha	68.9104
_cell_angle_beta	72.2001
_cell_angle_gamma	107.8
loop_
_atom_site_label
_atom_site_type_symbol
_atom_site_fract_x
_atom_site_fract_y
_atom_site_fract_z
_atom_site_charge
Mof_Cu	Cu	-0	0	0.5	0.808
Mof_Cu	Cu	0.5	0.5	0.5	0.85
Mof_Cu	Cu	-0	0.5	-0	0.802
Mof_H 	H 	0.9224	0.5848	0.5947	0.117
Mof_H 	H 	0.4849	0.4751	0.8689	0.048
Mof_H 	H 	0.5571	0.5038	0.2729	-0.023
Mof_H 	H 	0.0776	0.4152	0.4053	-0.013
Mof_H 	H 	0.222	0.1246	0.3003	-0.033
Mof_H 	H 	0.9902	0.344	0.5249	0.024
Mof_H 	H 	0.6462	0.1311	0.344	0.029
Mof_H 	H 	0.8959	0.6676	0.9096	0.011
Mof_H 	H 	0.4429	0.4962	0.7271	-0.02
Mof_H 	H 	0.5228	0.8829	0.6202	0.094
Mof_H 	H 	0.4772	0.1171	0.3798	0.066
Mof_H 	H 	0.0974	0.5751	0.1246	-0.031
Mof_H 	H 	0.3376	0.8205	0.5848	0.057
Mof_H 	H 	0.1945	0.0904	0.5772	-0.024
Mof_H 	H 	0.83	0.2729	0.2233	-0.018
Mof_H 	H 	0.5757	0.8021	0.4935	0.034
Mof_H 	H 	0.4851	0.2783	0.3859	0.063
Mof_H 	H 	0.5223	0.3003	0.5751	-0.018
Mof_H 	H 	0.6399	0.4969	0.8829	0.091
Mof_H 	H 	0.2068	0.3358	0.2783	0.059
Mof_H 	H 	0.2668	0.3798	0.5077	-0.008
Mof_H 	H 	0.0533	0.2233	0.5038	0.008
Mof_H 	H 	0.7736	0.7044	0.8021	0.045
Mof_H 	H 	0.5149	0.7217	0.6141	0.06
Mof_H 	H 	0.7932	0.6642	0.7217	0.065
Mof_H 	H 	0.9308	0.5065	0.2956	0.039
Mof_H 	H 	0.0372	0.5128	0.574	0.029
Mof_H 	H 	0.17	0.7271	0.7767	-0.021
Mof_H 	H 	0.5171	0.5947	0.8205	0.062
Mof_H 	H 	0.143	0.6202	0.4969	0.062
Mof_H 	H 	0.4243	0.1979	0.5065	0.033
Mof_H 	H 	0.7745	0.5077	0.1125	-0.012
Mof_H 	H 	0.9467	0.7767	0.4962	-0.045
Mof_H 	H 	0.5244	0.9132	0.5128	0.075
Mof_H 	H 	0.9026	0.4249	0.8754	0.002
Mof_H 	H 	0.2255	0.4923	0.8875	0.008
Mof_H 	H 	0.6624	0.1795	0.4152	0.051
Mof_H 	H 	0.1041	0.3324	0.0904	-0.036
Mof_H 	H 	0.113	0.8875	0.6202	0.009
Mof_H 	H 	0.8055	0.9096	0.4228	-0.001
Mof_H 	H 	0.3888	0.426	0.0868	0.041
Mof_H 	H 	0.5151	0.5249	0.1311	0.03
Mof_H 	H 	0.0692	0.4935	0.7044	0.03
Mof_H 	H 	0.2283	0.4228	0.6676	-0.016
Mof_H 	H 	0.3601	0.5031	0.1171	0.068
Mof_H 	H 	0.871	0.3859	0.3358	0.06
Mof_H 	H 	0.857	0.3798	0.5031	0.098
Mof_H 	H 	0.778	0.8754	0.6997	0.003
Mof_H 	H 	0.129	0.6141	0.6642	0.065
Mof_H 	H 	0.4829	0.4053	0.1795	0.046
Mof_H 	H 	0.887	0.1125	0.3798	-0.013
Mof_H 	H 	0.9628	0.4872	0.426	0.092
Mof_H 	H 	0.4756	0.0868	0.4872	0.045
Mof_H 	H 	0.6112	0.574	0.9132	0.079
Mof_H 	H 	0.4777	0.6997	0.4249	-0.014
Mof_H 	H 	0.0098	0.656	0.4751	0.053
Mof_H 	H 	0.2264	0.2956	0.1979	0.023
Mof_H 	H 	0.7717	0.5772	0.3324	-0.01
Mof_H 	H 	0.3538	0.8689	0.656	0.049
Mof_H 	H 	0.7332	0.6202	0.4923	0
Mof_C 	C 	0.924	0.156	0.4002	0.075
Mof_C 	C 	0.27	0.495	0.615	0.079
Mof_C 	C 	0.768	0.4438	0.156	0.059
Mof_C 	C 	0.923	0.418	0.436	-0.173
Mof_C 	C 	0.889	0.48	0.872	0.081
Mof_C 	C 	0.0061	0.2101	0.4744	-0.005
Mof_C 	C 	0.225	0.11	0.505	0.072
Mof_C 	C 	0.634	0.18	0.365	-0.047
Mof_C 	C 	0.409	0.648	0.48	0.064
Mof_C 	C 	0.9939	0.7899	0.5256	0.243
Mof_C 	C 	0.505	0.146	0.418	-0.107
Mof_C 	C 	0.123	0.563	0.641	-0.048
Mof_C 	C 	0.115	0.385	0.11	0.064
Mof_C 	C 	0.111	0.52	0.128	0.05
Mof_C 	C 	0.001	0.635	0.545	-0.153
Mof_C 	C 	0.641	0.564	0.854	-0.129
Mof_C 	C 	0.44	0.204	0.437	-0.033
Mof_C 	C 	0.5195	0.5256	0.6845	0.126
Mof_C 	C 	0.359	0.436	0.146	-0.109
Mof_C 	C 	0.796	0.3155	0.2101	0.123
Mof_C 	C 	0.56	0.796	0.563	-0.015
Mof_C 	C 	0.077	0.582	0.564	-0.067
Mof_C 	C 	0.239	0.128	0.352	0.058
Mof_C 	C 	0.366	0.82	0.635	-0.041
Mof_C 	C 	0.454	0.455	0.18	-0.045
Mof_C 	C 	0.885	0.615	0.89	0.096
Mof_C 	C 	0.204	0.6845	0.7899	0.127
Mof_C 	C 	0.3242	0.4002	0.4438	0.061
Mof_C 	C 	0.764	0.641	0.796	-0.019
Mof_C 	C 	0.236	0.359	0.204	-0.03
Mof_C 	C 	0.73	0.505	0.385	0.083
Mof_C 	C 	0.761	0.872	0.648	0.073
Mof_C 	C 	0.877	0.437	0.359	-0
Mof_C 	C 	0.232	0.5562	0.844	0.066
Mof_C 	C 	0.495	0.854	0.582	-0.131
Mof_C 	C 	0.999	0.365	0.455	0.07
Mof_C 	C 	0.775	0.89	0.495	0.088
Mof_C 	C 	0.6758	0.5998	0.5562	0.063
Mof_C 	C 	0.076	0.844	0.5998	0.053
Mof_C 	C 	0.591	0.352	0.52	0.066
Mof_C 	C 	0.4805	0.4744	0.3155	0.125
Mof_C 	C 	0.546	0.545	0.82	-0.043
Mof_N 	N 	0.831	0.516	0.824	-0.081
Mof_N 	N 	0.169	0.484	0.176	-0.094
Mof_N 	N 	0.5603	0.5343	0.593	-0.244
Mof_N 	N 	0.685	0.34	0.484	-0.088
Mof_N 	N 	0.8467	0.407	0.1273	-0.24
Mof_N 	N 	0.5905	0.5594	0.7111	-0.102
Mof_N 	N 	0.771	0.434	0.401	-0.095
Mof_N 	N 	0.0311	0.7295	0.5594	-0.135
Mof_N 	N 	0.974	0.1273	0.4657	-0.196
Mof_N 	N 	0.4095	0.4406	0.2889	-0.103
Mof_N 	N 	0.683	0.375	0.254	-0.087
Mof_N 	N 	0.172	0.401	0.165	-0.098
Mof_N 	N 	0.8361	0.9138	0.544	-0.209
Mof_N 	N 	0.1639	0.0862	0.456	-0.242
Mof_N 	N 	0.6199	0.456	0.4578	-0.231
Mof_N 	N 	0.026	0.8727	0.5343	-0.276
Mof_N 	N 	0.692	0.629	0.625	-0.084
Mof_N 	N 	0.9689	0.2705	0.4406	-0.066
Mof_N 	N 	0.3801	0.544	0.5422	-0.23
Mof_N 	N 	0.655	0.824	0.66	-0.081
Mof_N 	N 	0.663	0.835	0.566	-0.092
Mof_N 	N 	0.315	0.66	0.516	-0.086
Mof_N 	N 	0.6984	0.2889	0.2705	-0.104
Mof_N 	N 	0.0777	0.4578	0.0862	-0.247
Mof_N 	N 	0.937	0.254	0.371	-0.079
Mof_N 	N 	0.308	0.371	0.375	-0.088
Mof_N 	N 	0.3016	0.7111	0.7295	-0.1
Mof_N 	N 	0.9223	0.5422	0.9138	-0.202
Mof_N 	N 	0.345	0.176	0.34	-0.093
Mof_N 	N 	0.063	0.746	0.629	-0.092
Mof_N 	N 	0.229	0.566	0.599	-0.089
Mof_N 	N 	0.337	0.165	0.434	-0.093
Mof_N 	N 	0.828	0.599	0.835	-0.087
Mof_N 	N 	0.4397	0.4657	0.407	-0.245
Mof_N 	N 	0.317	0.625	0.746	-0.084
Mof_N 	N 	0.1533	0.593	0.8727	-0.234
_end
