data_functionalizedCrystal
_audit_creation_method	'EQeq! by Chris Wilmer'
_symmetry_space_group_name_H-M	'P1'
_symmetry_Int_Tables_number	1
_symmetry_cell_setting	triclinic
loop_
_symmetry_equiv_pos_as_xyz
  x,y,z
_cell_length_a	32.8171
_cell_length_b	32.8171
_cell_length_c	9.2305
_cell_angle_alpha	90
_cell_angle_beta	90
_cell_angle_gamma	120
loop_
_atom_site_label
_atom_site_type_symbol
_atom_site_fract_x
_atom_site_fract_y
_atom_site_fract_z
_atom_site_charge
Mof_N 	N 	0.53592	0.00274	0.1778	-0.28
Mof_N 	N 	0.49861	0.05665	0.0706	-0.271
Mof_N 	N 	0.62304	0.8642	0.2357	-0.24
Mof_N 	N 	0.6203	0.2081	0.9098	-0.119
Mof_C 	C 	0.55666	0.97585	0.2045	0.121
Mof_C 	C 	0.58491	0.99207	0.3338	-0.079
Mof_H 	H 	0.6021	0.9795	0.3746	0.06
Mof_C 	C 	0.58174	0.02854	0.3843	-0.099
Mof_H 	H 	0.5963	0.0461	0.4668	0.064
Mof_C 	C 	0.55154	0.03551	0.2873	0.103
Mof_C 	C 	0.54199	0.07258	0.3	-0.142
Mof_C 	C 	0.51674	0.08146	0.1969	0.109
Mof_C 	C 	0.50431	0.11746	0.2108	-0.089
Mof_H 	H 	0.5128	0.1391	0.286	0.066
Mof_C 	C 	0.47805	0.11407	0.0949	-0.074
Mof_H 	H 	0.4648	0.1327	0.075	0.057
Mof_C 	C 	0.47433	0.07624	0.0079	0.078
Mof_C 	C 	0.55189	0.93907	0.1187	-0.196
Mof_C 	C 	0.57742	0.91375	0.1633	0.178
Mof_C 	C 	0.55943	0.8791	0.2675	-0.222
Mof_H 	H 	0.5316	0.8717	0.3154	0.114
Mof_C 	C 	0.58323	0.85545	0.2998	0.123
Mof_H 	H 	0.5707	0.8321	0.3704	-0.02
Mof_C 	C 	0.61877	0.92319	0.0968	-0.228
Mof_H 	H 	0.6322	0.9464	0.0262	0.104
Mof_C 	C 	0.64017	0.89779	0.1361	0.122
Mof_H 	H 	0.6681	0.9045	0.0902	-0.024
Mof_C 	C 	0.55952	0.10328	0.4305	0.111
Mof_C 	C 	0.54166	0.08532	0.5657	-0.142
Mof_H 	H 	0.5189	0.0538	0.5748	0.08
Mof_C 	C 	0.55703	0.11334	0.6878	0.019
Mof_H 	H 	0.5444	0.1008	0.778	0.022
Mof_C 	C 	0.59131	0.1601	0.6752	-0.053
Mof_C 	C 	0.60938	0.17867	0.5418	0.016
Mof_H 	H 	0.6323	0.2102	0.5335	0.034
Mof_C 	C 	0.59361	0.15059	0.4192	-0.138
Mof_H 	H 	0.6059	0.1634	0.3289	0.081
Mof_C 	C 	0.6079	0.18783	0.8055	0.1
Mof_N 	N 	0.46408	0.99726	0.8222	-0.256
Mof_N 	N 	0.50139	0.94335	0.9294	-0.267
Mof_N 	N 	0.37696	0.1358	0.7643	-0.235
Mof_N 	N 	0.3797	0.7919	0.0902	-0.131
Mof_C 	C 	0.44334	0.02415	0.7955	0.1
Mof_C 	C 	0.41509	0.00793	0.6662	-0.098
Mof_H 	H 	0.3979	0.0205	0.6254	0.064
Mof_C 	C 	0.41826	0.97146	0.6157	-0.067
Mof_H 	H 	0.4037	0.9539	0.5332	0.057
Mof_C 	C 	0.44846	0.96449	0.7127	0.099
Mof_C 	C 	0.45801	0.92742	0.7	-0.135
Mof_C 	C 	0.48326	0.91854	0.8031	0.103
Mof_C 	C 	0.49569	0.88254	0.7892	-0.066
Mof_H 	H 	0.4872	0.8609	0.714	0.059
Mof_C 	C 	0.52195	0.88593	0.9051	-0.106
Mof_H 	H 	0.5352	0.8673	0.925	0.082
Mof_C 	C 	0.52567	0.92376	0.9921	0.151
Mof_C 	C 	0.44811	0.06093	0.8813	-0.131
Mof_C 	C 	0.42258	0.08625	0.8367	0.161
Mof_C 	C 	0.44057	0.1209	0.7325	-0.206
Mof_H 	H 	0.4684	0.1283	0.6846	0.109
Mof_C 	C 	0.41677	0.14455	0.7002	0.117
Mof_H 	H 	0.4293	0.1679	0.6296	-0.017
Mof_C 	C 	0.38123	0.07681	0.9032	-0.209
Mof_H 	H 	0.3678	0.0536	0.9738	0.109
Mof_C 	C 	0.35983	0.10221	0.8639	0.119
Mof_H 	H 	0.3319	0.0955	0.9098	-0.016
Mof_C 	C 	0.44048	0.89672	0.5695	0.113
Mof_C 	C 	0.45834	0.91468	0.4343	-0.147
Mof_H 	H 	0.4811	0.9462	0.4252	0.085
Mof_C 	C 	0.44297	0.88666	0.3122	0.026
Mof_H 	H 	0.4556	0.8992	0.222	0.014
Mof_C 	C 	0.40869	0.8399	0.3248	-0.058
Mof_C 	C 	0.39062	0.82133	0.4582	0.02
Mof_H 	H 	0.3677	0.7898	0.4665	0.033
Mof_C 	C 	0.40639	0.84941	0.5808	-0.141
Mof_H 	H 	0.3941	0.8366	0.6711	0.087
Mof_C 	C 	0.3921	0.81217	0.1945	0.096
Mof_Co	Co	0.5	0	-0	1.124
Mof_N 	N 	0.20259	0.33607	0.51113	-0.269
Mof_N 	N 	0.16528	0.38998	0.40393	-0.269
Mof_N 	N 	0.28971	0.19753	0.56903	-0.238
Mof_N 	N 	0.28697	0.54143	0.24313	-0.126
Mof_C 	C 	0.22333	0.30918	0.53783	0.111
Mof_C 	C 	0.25158	0.3254	0.66713	-0.087
Mof_H 	H 	0.26877	0.31283	0.70793	0.065
Mof_C 	C 	0.24841	0.36187	0.71763	-0.081
Mof_H 	H 	0.26297	0.37943	0.80013	0.065
Mof_C 	C 	0.21821	0.36884	0.62063	0.101
Mof_C 	C 	0.20866	0.40591	0.63333	-0.136
Mof_C 	C 	0.18341	0.41479	0.53023	0.106
Mof_C 	C 	0.17098	0.45079	0.54413	-0.079
Mof_H 	H 	0.17947	0.47243	0.61933	0.065
Mof_C 	C 	0.14472	0.4474	0.42823	-0.085
Mof_H 	H 	0.13147	0.46603	0.40833	0.068
Mof_C 	C 	0.141	0.40957	0.34123	0.107
Mof_C 	C 	0.21856	0.2724	0.45203	-0.164
Mof_C 	C 	0.24409	0.24708	0.49663	0.17
Mof_C 	C 	0.2261	0.21243	0.60083	-0.214
Mof_H 	H 	0.19827	0.20503	0.64873	0.113
Mof_C 	C 	0.2499	0.18878	0.63313	0.121
Mof_H 	H 	0.23737	0.16543	0.70373	-0.018
Mof_C 	C 	0.28544	0.25652	0.43013	-0.219
Mof_H 	H 	0.29887	0.27973	0.35953	0.106
Mof_C 	C 	0.30684	0.23112	0.46943	0.121
Mof_H 	H 	0.33477	0.23783	0.42353	-0.021
Mof_C 	C 	0.22619	0.43661	0.76383	0.105
Mof_C 	C 	0.20833	0.41865	0.89903	-0.108
Mof_H 	H 	0.18557	0.38713	0.90813	0.077
Mof_C 	C 	0.2237	0.44667	0.02113	-0.008
Mof_H 	H 	0.21107	0.43413	0.11133	0.027
Mof_C 	C 	0.25798	0.49343	0.00853	-0.075
Mof_C 	C 	0.27605	0.512	0.87513	0.048
Mof_H 	H 	0.29897	0.54353	0.86683	0.029
Mof_C 	C 	0.26028	0.48392	0.75253	-0.145
Mof_H 	H 	0.27257	0.49673	0.66223	0.087
Mof_C 	C 	0.27457	0.52116	0.13883	0.098
Mof_N 	N 	0.13075	0.33059	0.15553	-0.264
Mof_N 	N 	0.16806	0.27668	0.26273	-0.271
Mof_N 	N 	0.04363	0.46913	0.09763	-0.225
Mof_N 	N 	0.04637	0.12523	0.42353	-0.126
Mof_C 	C 	0.11001	0.35748	0.12883	0.082
Mof_C 	C 	0.08176	0.34126	0.99953	-0.061
Mof_H 	H 	0.06457	0.35383	0.95873	0.058
Mof_C 	C 	0.08493	0.30479	0.94903	-0.066
Mof_H 	H 	0.07037	0.28723	0.86653	0.057
Mof_C 	C 	0.11513	0.29782	0.04603	0.081
Mof_C 	C 	0.12468	0.26075	0.03333	-0.147
Mof_C 	C 	0.14993	0.25187	0.13643	0.104
Mof_C 	C 	0.16236	0.21587	0.12253	-0.077
Mof_H 	H 	0.15387	0.19423	0.04733	0.056
Mof_C 	C 	0.18862	0.21926	0.23843	-0.092
Mof_H 	H 	0.20187	0.20063	0.25833	0.07
Mof_C 	C 	0.19234	0.25709	0.32543	0.114
Mof_C 	C 	0.11478	0.39426	0.21463	-0.147
Mof_C 	C 	0.08925	0.41958	0.17003	0.138
Mof_C 	C 	0.10724	0.45423	0.06583	-0.173
Mof_H 	H 	0.13507	0.46163	0.01793	0.091
Mof_C 	C 	0.08344	0.47788	0.03353	0.055
Mof_H 	H 	0.09597	0.50123	0.96293	0.02
Mof_C 	C 	0.0479	0.41014	0.23653	-0.191
Mof_H 	H 	0.03447	0.38693	0.30713	0.094
Mof_C 	C 	0.0265	0.43554	0.19723	0.087
Mof_H 	H 	0.99857	0.42883	0.24313	-0.004
Mof_C 	C 	0.10715	0.23005	0.90283	0.11
Mof_C 	C 	0.12501	0.24801	0.76763	-0.136
Mof_H 	H 	0.14777	0.27953	0.75853	0.083
Mof_C 	C 	0.10964	0.21999	0.64553	0.012
Mof_H 	H 	0.12227	0.23253	0.55533	0.022
Mof_C 	C 	0.07536	0.17323	0.65813	-0.041
Mof_C 	C 	0.05729	0.15466	0.79153	-0.012
Mof_H 	H 	0.03437	0.12313	0.79983	0.045
Mof_C 	C 	0.07306	0.18274	0.91413	-0.088
Mof_H 	H 	0.06077	0.16993	0.00443	0.051
Mof_C 	C 	0.05877	0.1455	0.52783	0.091
Mof_Co	Co	0.16667	0.33333	0.33333	1.138
Mof_N 	N 	0.86925	0.66941	0.84447	-0.274
Mof_N 	N 	0.83194	0.72332	0.73727	-0.271
Mof_N 	N 	0.95637	0.53087	0.90237	-0.247
Mof_N 	N 	0.95363	0.87477	0.57647	-0.123
Mof_C 	C 	0.88999	0.64252	0.87117	0.139
Mof_C 	C 	0.91824	0.65874	0.00047	-0.115
Mof_H 	H 	0.93543	0.64617	0.04127	0.066
Mof_C 	C 	0.91507	0.69521	0.05097	-0.098
Mof_H 	H 	0.92963	0.71277	0.13347	0.065
Mof_C 	C 	0.88487	0.70218	0.95397	0.121
Mof_C 	C 	0.87532	0.73925	0.96667	-0.131
Mof_C 	C 	0.85007	0.74813	0.86357	0.107
Mof_C 	C 	0.83764	0.78413	0.87747	-0.076
Mof_H 	H 	0.84613	0.80577	0.95267	0.069
Mof_C 	C 	0.81138	0.78074	0.76157	-0.088
Mof_H 	H 	0.79813	0.79937	0.74167	0.07
Mof_C 	C 	0.80766	0.74291	0.67457	0.114
Mof_C 	C 	0.88522	0.60574	0.78537	-0.18
Mof_C 	C 	0.91075	0.58042	0.82997	0.2
Mof_C 	C 	0.89276	0.54577	0.93417	-0.254
Mof_H 	H 	0.86493	0.53837	0.98207	0.132
Mof_C 	C 	0.91656	0.52212	0.96647	0.184
Mof_H 	H 	0.90403	0.49877	0.03707	-0.055
Mof_C 	C 	0.9521	0.58986	0.76347	-0.245
Mof_H 	H 	0.96553	0.61307	0.69287	0.119
Mof_C 	C 	0.9735	0.56446	0.80277	0.152
Mof_H 	H 	0.00143	0.57117	0.75687	-0.035
Mof_C 	C 	0.89285	0.76995	0.09717	0.113
Mof_C 	C 	0.87499	0.75199	0.23237	-0.153
Mof_H 	H 	0.85223	0.72047	0.24147	0.082
Mof_C 	C 	0.89036	0.78001	0.35447	0.034
Mof_H 	H 	0.87773	0.76747	0.44467	0.014
Mof_C 	C 	0.92464	0.82677	0.34187	-0.07
Mof_C 	C 	0.94271	0.84534	0.20847	0.047
Mof_H 	H 	0.96563	0.87687	0.20017	0.023
Mof_C 	C 	0.92694	0.81726	0.08587	-0.189
Mof_H 	H 	0.93923	0.83007	0.99557	0.116
Mof_C 	C 	0.94123	0.8545	0.47217	0.104
Mof_N 	N 	0.79741	0.66393	0.48887	-0.269
Mof_N 	N 	0.83472	0.61002	0.59607	-0.272
Mof_N 	N 	0.71029	0.80247	0.43097	-0.237
Mof_N 	N 	0.71303	0.45857	0.75687	-0.123
Mof_C 	C 	0.77667	0.69082	0.46217	0.11
Mof_C 	C 	0.74842	0.6746	0.33287	-0.089
Mof_H 	H 	0.73123	0.68717	0.29207	0.06
Mof_C 	C 	0.75159	0.63813	0.28237	-0.084
Mof_H 	H 	0.73703	0.62057	0.19987	0.057
Mof_C 	C 	0.78179	0.63116	0.37937	0.101
Mof_C 	C 	0.79134	0.59409	0.36667	-0.142
Mof_C 	C 	0.81659	0.58521	0.46977	0.105
Mof_C 	C 	0.82902	0.54921	0.45587	-0.075
Mof_H 	H 	0.82053	0.52757	0.38067	0.06
Mof_C 	C 	0.85528	0.5526	0.57177	-0.095
Mof_H 	H 	0.86853	0.53397	0.59167	0.072
Mof_C 	C 	0.859	0.59043	0.65877	0.122
Mof_C 	C 	0.78144	0.7276	0.54797	-0.164
Mof_C 	C 	0.75591	0.75292	0.50337	0.169
Mof_C 	C 	0.7739	0.78757	0.39917	-0.214
Mof_H 	H 	0.80173	0.79497	0.35127	0.11
Mof_C 	C 	0.7501	0.81122	0.36687	0.119
Mof_H 	H 	0.76263	0.83457	0.29627	-0.019
Mof_C 	C 	0.71456	0.74348	0.56987	-0.218
Mof_H 	H 	0.70113	0.72027	0.64047	0.107
Mof_C 	C 	0.69316	0.76888	0.53057	0.12
Mof_H 	H 	0.66523	0.76217	0.57647	-0.02
Mof_C 	C 	0.77381	0.56339	0.23617	0.118
Mof_C 	C 	0.79167	0.58135	0.10097	-0.182
Mof_H 	H 	0.81443	0.61287	0.09187	0.088
Mof_C 	C 	0.7763	0.55333	0.97887	0.054
Mof_H 	H 	0.78893	0.56587	0.88867	0.01
Mof_C 	C 	0.74202	0.50657	0.99147	-0.036
Mof_C 	C 	0.72395	0.488	0.12487	-0.013
Mof_H 	H 	0.70103	0.45647	0.13317	0.038
Mof_C 	C 	0.73972	0.51608	0.24747	-0.134
Mof_H 	H 	0.72743	0.50327	0.33777	0.081
Mof_C 	C 	0.72543	0.47884	0.86117	0.098
Mof_Co	Co	0.83333	0.66667	0.66667	1.138
Mof_N 	N 	0.99726	0.53318	0.1778	-0.268
Mof_N 	N 	0.94335	0.44196	0.0706	-0.268
Mof_N 	N 	0.1358	0.75884	0.2357	-0.239
Mof_N 	N 	0.7919	0.4122	0.9098	-0.118
Mof_C 	C 	0.02415	0.58081	0.2045	0.117
Mof_C 	C 	0.00793	0.59284	0.3338	-0.111
Mof_H 	H 	0.0205	0.6226	0.3746	0.068
Mof_C 	C 	0.97146	0.5532	0.3843	-0.062
Mof_H 	H 	0.9539	0.5502	0.4668	0.055
Mof_C 	C 	0.96449	0.51603	0.2873	0.096
Mof_C 	C 	0.92742	0.46941	0.3	-0.137
Mof_C 	C 	0.91854	0.43528	0.1969	0.107
Mof_C 	C 	0.88254	0.38685	0.2108	-0.087
Mof_H 	H 	0.8609	0.3737	0.286	0.065
Mof_C 	C 	0.88593	0.36398	0.0949	-0.075
Mof_H 	H 	0.8673	0.3321	0.075	0.058
Mof_C 	C 	0.92376	0.39809	0.0079	0.08
Mof_C 	C 	0.06093	0.61282	0.1187	-0.197
Mof_C 	C 	0.08625	0.66367	0.1633	0.177
Mof_C 	C 	0.1209	0.68033	0.2675	-0.222
Mof_H 	H 	0.1283	0.6599	0.3154	0.114
Mof_C 	C 	0.14455	0.72778	0.2998	0.122
Mof_H 	H 	0.1679	0.7386	0.3704	-0.019
Mof_C 	C 	0.07681	0.69558	0.0968	-0.227
Mof_H 	H 	0.0536	0.6858	0.0262	0.101
Mof_C 	C 	0.10221	0.74238	0.1361	0.121
Mof_H 	H 	0.0955	0.7636	0.0902	-0.025
Mof_C 	C 	0.89672	0.45624	0.4305	0.109
Mof_C 	C 	0.91468	0.45634	0.5657	-0.142
Mof_H 	H 	0.9462	0.4651	0.5748	0.083
Mof_C 	C 	0.88666	0.44369	0.6878	0.02
Mof_H 	H 	0.8992	0.4436	0.778	0.023
Mof_C 	C 	0.8399	0.43121	0.6752	-0.053
Mof_C 	C 	0.82133	0.43071	0.5418	0.015
Mof_H 	H 	0.7898	0.4221	0.5335	0.034
Mof_C 	C 	0.84941	0.44302	0.4192	-0.137
Mof_H 	H 	0.8366	0.4425	0.3289	0.081
Mof_C 	C 	0.81217	0.42007	0.8055	0.1
Mof_N 	N 	0.00274	0.46682	0.8222	-0.266
Mof_N 	N 	0.05665	0.55804	0.9294	-0.27
Mof_N 	N 	0.8642	0.24116	0.7643	-0.235
Mof_N 	N 	0.2081	0.5878	0.0902	-0.131
Mof_C 	C 	0.97585	0.41919	0.7955	0.105
Mof_C 	C 	0.99207	0.40716	0.6662	-0.066
Mof_H 	H 	0.9795	0.3774	0.6254	0.056
Mof_C 	C 	0.02854	0.4468	0.6157	-0.102
Mof_H 	H 	0.0461	0.4498	0.5332	0.067
Mof_C 	C 	0.03551	0.48397	0.7127	0.107
Mof_C 	C 	0.07258	0.53059	0.7	-0.14
Mof_C 	C 	0.08146	0.56472	0.8031	0.104
Mof_C 	C 	0.11746	0.61315	0.7892	-0.067
Mof_H 	H 	0.1391	0.6263	0.714	0.06
Mof_C 	C 	0.11407	0.63602	0.9051	-0.105
Mof_H 	H 	0.1327	0.6679	0.925	0.082
Mof_C 	C 	0.07624	0.60191	0.9921	0.149
Mof_C 	C 	0.93907	0.38718	0.8813	-0.13
Mof_C 	C 	0.91375	0.33633	0.8367	0.162
Mof_C 	C 	0.8791	0.31967	0.7325	-0.207
Mof_H 	H 	0.8717	0.3401	0.6846	0.11
Mof_C 	C 	0.85545	0.27222	0.7002	0.118
Mof_H 	H 	0.8321	0.2614	0.6296	-0.017
Mof_C 	C 	0.92319	0.30442	0.9032	-0.209
Mof_H 	H 	0.9464	0.3142	0.9738	0.112
Mof_C 	C 	0.89779	0.25762	0.8639	0.12
Mof_H 	H 	0.9045	0.2364	0.9098	-0.016
Mof_C 	C 	0.10328	0.54376	0.5695	0.114
Mof_C 	C 	0.08532	0.54366	0.4343	-0.147
Mof_H 	H 	0.0538	0.5349	0.4252	0.082
Mof_C 	C 	0.11334	0.55631	0.3122	0.026
Mof_H 	H 	0.1008	0.5564	0.222	0.014
Mof_C 	C 	0.1601	0.56879	0.3248	-0.058
Mof_C 	C 	0.17867	0.56929	0.4582	0.021
Mof_H 	H 	0.2102	0.5779	0.4665	0.033
Mof_C 	C 	0.15059	0.55698	0.5808	-0.142
Mof_H 	H 	0.1634	0.5575	0.6711	0.087
Mof_C 	C 	0.18783	0.57993	0.1945	0.096
Mof_Co	Co	-0	0.5	-0	1.124
Mof_N 	N 	0.66393	0.86651	0.51113	-0.27
Mof_N 	N 	0.61002	0.77529	0.40393	-0.27
Mof_N 	N 	0.80247	0.09217	0.56903	-0.245
Mof_N 	N 	0.45857	0.74553	0.24313	-0.126
Mof_C 	C 	0.69082	0.91414	0.53783	0.116
Mof_C 	C 	0.6746	0.92617	0.66713	-0.091
Mof_H 	H 	0.68717	0.95593	0.70793	0.068
Mof_C 	C 	0.63813	0.88653	0.71763	-0.078
Mof_H 	H 	0.62057	0.88353	0.80013	0.064
Mof_C 	C 	0.63116	0.84936	0.62063	0.1
Mof_C 	C 	0.59409	0.80274	0.63333	-0.136
Mof_C 	C 	0.58521	0.76861	0.53023	0.106
Mof_C 	C 	0.54921	0.72018	0.54413	-0.079
Mof_H 	H 	0.52757	0.70703	0.61933	0.065
Mof_C 	C 	0.5526	0.69731	0.42823	-0.086
Mof_H 	H 	0.53397	0.66543	0.40833	0.069
Mof_C 	C 	0.59043	0.73142	0.34123	0.108
Mof_C 	C 	0.7276	0.94615	0.45203	-0.175
Mof_C 	C 	0.75292	0.997	0.49663	0.21
Mof_C 	C 	0.78757	0.01366	0.60083	-0.264
Mof_H 	H 	0.79497	0.99323	0.64873	0.136
Mof_C 	C 	0.81122	0.06111	0.63313	0.146
Mof_H 	H 	0.83457	0.07193	0.70373	-0.027
Mof_C 	C 	0.74348	0.02891	0.43013	-0.251
Mof_H 	H 	0.72027	0.01913	0.35953	0.114
Mof_C 	C 	0.76888	0.07571	0.46943	0.137
Mof_H 	H 	0.76217	0.09693	0.42353	-0.027
Mof_C 	C 	0.56339	0.78957	0.76383	0.105
Mof_C 	C 	0.58135	0.78967	0.89903	-0.108
Mof_H 	H 	0.61287	0.79843	0.90813	0.077
Mof_C 	C 	0.55333	0.77702	0.02113	-0.008
Mof_H 	H 	0.56587	0.77693	0.11133	0.026
Mof_C 	C 	0.50657	0.76454	0.00853	-0.075
Mof_C 	C 	0.488	0.76404	0.87513	0.048
Mof_H 	H 	0.45647	0.75543	0.86683	0.029
Mof_C 	C 	0.51608	0.77635	0.75253	-0.145
Mof_H 	H 	0.50327	0.77583	0.66223	0.087
Mof_C 	C 	0.47884	0.7534	0.13883	0.098
Mof_N 	N 	0.66941	0.80015	0.15553	-0.265
Mof_N 	N 	0.72332	0.89137	0.26273	-0.271
Mof_N 	N 	0.53087	0.57449	0.09763	-0.228
Mof_N 	N 	0.87477	0.92113	0.42353	-0.122
Mof_C 	C 	0.64252	0.75252	0.12883	0.084
Mof_C 	C 	0.65874	0.74049	0.99953	-0.062
Mof_H 	H 	0.64617	0.71073	0.95873	0.06
Mof_C 	C 	0.69521	0.78013	0.94903	-0.066
Mof_H 	H 	0.71277	0.78313	0.86653	0.058
Mof_C 	C 	0.70218	0.8173	0.04603	0.082
Mof_C 	C 	0.73925	0.86392	0.03333	-0.148
Mof_C 	C 	0.74813	0.89805	0.13643	0.108
Mof_C 	C 	0.78413	0.94648	0.12253	-0.088
Mof_H 	H 	0.80577	0.95963	0.04733	0.062
Mof_C 	C 	0.78074	0.96935	0.23843	-0.071
Mof_H 	H 	0.79937	0.00123	0.25833	0.057
Mof_C 	C 	0.74291	0.93524	0.32543	0.113
Mof_C 	C 	0.60574	0.72051	0.21463	-0.149
Mof_C 	C 	0.58042	0.66966	0.17003	0.145
Mof_C 	C 	0.54577	0.653	0.06583	-0.178
Mof_H 	H 	0.53837	0.67343	0.01793	0.092
Mof_C 	C 	0.52212	0.60555	0.03353	0.059
Mof_H 	H 	0.49877	0.59473	0.96293	0.018
Mof_C 	C 	0.58986	0.63775	0.23653	-0.203
Mof_H 	H 	0.61307	0.64753	0.30713	0.1
Mof_C 	C 	0.56446	0.59095	0.19723	0.108
Mof_H 	H 	0.57117	0.56973	0.24313	-0.017
Mof_C 	C 	0.76995	0.87709	0.90283	0.111
Mof_C 	C 	0.75199	0.87699	0.76763	-0.136
Mof_H 	H 	0.72047	0.86823	0.75853	0.083
Mof_C 	C 	0.78001	0.88964	0.64553	0.012
Mof_H 	H 	0.76747	0.88973	0.55533	0.022
Mof_C 	C 	0.82677	0.90212	0.65813	-0.04
Mof_C 	C 	0.84534	0.90262	0.79153	-0.01
Mof_H 	H 	0.87687	0.91123	0.79983	0.048
Mof_C 	C 	0.81726	0.89031	0.91413	-0.089
Mof_H 	H 	0.83007	0.89083	0.00443	0.054
Mof_C 	C 	0.8545	0.91326	0.52783	0.094
Mof_Co	Co	0.66667	0.83333	0.33333	1.138
Mof_N 	N 	0.33059	0.19985	0.84447	-0.274
Mof_N 	N 	0.27668	0.10863	0.73727	-0.27
Mof_N 	N 	0.46913	0.42551	0.90237	-0.245
Mof_N 	N 	0.12523	0.07887	0.57647	-0.127
Mof_C 	C 	0.35748	0.24748	0.87117	0.138
Mof_C 	C 	0.34126	0.25951	0.00047	-0.115
Mof_H 	H 	0.35383	0.28927	0.04127	0.065
Mof_C 	C 	0.30479	0.21987	0.05097	-0.099
Mof_H 	H 	0.28723	0.21687	0.13347	0.064
Mof_C 	C 	0.29782	0.1827	0.95397	0.121
Mof_C 	C 	0.26075	0.13608	0.96667	-0.13
Mof_C 	C 	0.25187	0.10195	0.86357	0.104
Mof_C 	C 	0.21587	0.05352	0.87747	-0.066
Mof_H 	H 	0.19423	0.04037	0.95267	0.063
Mof_C 	C 	0.21926	0.03065	0.76157	-0.108
Mof_H 	H 	0.20063	0.99877	0.74167	0.083
Mof_C 	C 	0.25709	0.06476	0.67457	0.116
Mof_C 	C 	0.39426	0.27949	0.78537	-0.179
Mof_C 	C 	0.41958	0.33034	0.82997	0.195
Mof_C 	C 	0.45423	0.347	0.93417	-0.25
Mof_H 	H 	0.46163	0.32657	0.98207	0.131
Mof_C 	C 	0.47788	0.39445	0.96647	0.182
Mof_H 	H 	0.50123	0.40527	0.03707	-0.055
Mof_C 	C 	0.41014	0.36225	0.76347	-0.234
Mof_H 	H 	0.38693	0.35247	0.69287	0.113
Mof_C 	C 	0.43554	0.40905	0.80277	0.133
Mof_H 	H 	0.42883	0.43027	0.75687	-0.023
Mof_C 	C 	0.23005	0.12291	0.09717	0.113
Mof_C 	C 	0.24801	0.12301	0.23237	-0.154
Mof_H 	H 	0.27953	0.13177	0.24147	0.082
Mof_C 	C 	0.21999	0.11036	0.35447	0.035
Mof_H 	H 	0.23253	0.11027	0.44467	0.014
Mof_C 	C 	0.17323	0.09788	0.34187	-0.072
Mof_C 	C 	0.15466	0.09738	0.20847	0.048
Mof_H 	H 	0.12313	0.08877	0.20017	0.018
Mof_C 	C 	0.18274	0.10969	0.08587	-0.192
Mof_H 	H 	0.16993	0.10917	0.99557	0.115
Mof_C 	C 	0.1455	0.08674	0.47217	0.102
Mof_N 	N 	0.33607	0.13349	0.48887	-0.269
Mof_N 	N 	0.38998	0.22471	0.59607	-0.272
Mof_N 	N 	0.19753	0.90783	0.43097	-0.229
Mof_N 	N 	0.54143	0.25447	0.75687	-0.123
Mof_C 	C 	0.30918	0.08586	0.46217	0.105
Mof_C 	C 	0.3254	0.07383	0.33287	-0.086
Mof_H 	H 	0.31283	0.04407	0.29207	0.056
Mof_C 	C 	0.36187	0.11347	0.28237	-0.086
Mof_H 	H 	0.37943	0.11647	0.19987	0.058
Mof_C 	C 	0.36884	0.15064	0.37937	0.102
Mof_C 	C 	0.40591	0.19726	0.36667	-0.142
Mof_C 	C 	0.41479	0.23139	0.46977	0.106
Mof_C 	C 	0.45079	0.27982	0.45587	-0.075
Mof_H 	H 	0.47243	0.29297	0.38067	0.06
Mof_C 	C 	0.4474	0.30269	0.57177	-0.094
Mof_H 	H 	0.46603	0.33457	0.59167	0.071
Mof_C 	C 	0.40957	0.26858	0.65877	0.121
Mof_C 	C 	0.2724	0.05385	0.54797	-0.153
Mof_C 	C 	0.24708	0.003	0.50337	0.129
Mof_C 	C 	0.21243	0.98634	0.39917	-0.164
Mof_H 	H 	0.20503	0.00677	0.35127	0.087
Mof_C 	C 	0.18878	0.93889	0.36687	0.095
Mof_H 	H 	0.16543	0.92807	0.29627	-0.01
Mof_C 	C 	0.25652	0.97109	0.56987	-0.185
Mof_H 	H 	0.27973	0.98087	0.64047	0.098
Mof_C 	C 	0.23112	0.92429	0.53057	0.103
Mof_H 	H 	0.23783	0.90307	0.57647	-0.014
Mof_C 	C 	0.43661	0.21043	0.23617	0.119
Mof_C 	C 	0.41865	0.21033	0.10097	-0.182
Mof_H 	H 	0.38713	0.20157	0.09187	0.088
Mof_C 	C 	0.44667	0.22298	0.97887	0.055
Mof_H 	H 	0.43413	0.22307	0.88867	0.009
Mof_C 	C 	0.49343	0.23546	0.99147	-0.036
Mof_C 	C 	0.512	0.23596	0.12487	-0.012
Mof_H 	H 	0.54353	0.24457	0.13317	0.037
Mof_C 	C 	0.48392	0.22365	0.24747	-0.135
Mof_H 	H 	0.49673	0.22417	0.33777	0.081
Mof_C 	C 	0.52116	0.2466	0.86117	0.098
Mof_Co	Co	0.33333	0.16667	0.66667	1.138
Mof_N 	N 	0.46682	0.46408	0.1778	-0.274
Mof_N 	N 	0.55804	0.50139	0.0706	-0.27
Mof_N 	N 	0.24116	0.37696	0.2357	-0.239
Mof_N 	N 	0.5878	0.3797	0.9098	-0.118
Mof_C 	C 	0.41919	0.44334	0.2045	0.119
Mof_C 	C 	0.40716	0.41509	0.3338	-0.095
Mof_H 	H 	0.3774	0.3979	0.3746	0.065
Mof_C 	C 	0.4468	0.41826	0.3843	-0.08
Mof_H 	H 	0.4498	0.4037	0.4668	0.06
Mof_C 	C 	0.48397	0.44846	0.2873	0.099
Mof_C 	C 	0.53059	0.45801	0.3	-0.14
Mof_C 	C 	0.56472	0.48326	0.1969	0.108
Mof_C 	C 	0.61315	0.49569	0.2108	-0.088
Mof_H 	H 	0.6263	0.4872	0.286	0.065
Mof_C 	C 	0.63602	0.52195	0.0949	-0.075
Mof_H 	H 	0.6679	0.5352	0.075	0.058
Mof_C 	C 	0.60191	0.52567	0.0079	0.079
Mof_C 	C 	0.38718	0.44811	0.1187	-0.197
Mof_C 	C 	0.33633	0.42258	0.1633	0.178
Mof_C 	C 	0.31967	0.44057	0.2675	-0.222
Mof_H 	H 	0.3401	0.4684	0.3154	0.114
Mof_C 	C 	0.27222	0.41677	0.2998	0.123
Mof_H 	H 	0.2614	0.4293	0.3704	-0.019
Mof_C 	C 	0.30442	0.38123	0.0968	-0.228
Mof_H 	H 	0.3142	0.3678	0.0262	0.103
Mof_C 	C 	0.25762	0.35983	0.1361	0.121
Mof_H 	H 	0.2364	0.3319	0.0902	-0.025
Mof_C 	C 	0.54376	0.44048	0.4305	0.11
Mof_C 	C 	0.54366	0.45834	0.5657	-0.142
Mof_H 	H 	0.5349	0.4811	0.5748	0.082
Mof_C 	C 	0.55631	0.44297	0.6878	0.02
Mof_H 	H 	0.5564	0.4556	0.778	0.023
Mof_C 	C 	0.56879	0.40869	0.6752	-0.053
Mof_C 	C 	0.56929	0.39062	0.5418	0.015
Mof_H 	H 	0.5779	0.3677	0.5335	0.034
Mof_C 	C 	0.55698	0.40639	0.4192	-0.138
Mof_H 	H 	0.5575	0.3941	0.3289	0.081
Mof_C 	C 	0.57993	0.3921	0.8055	0.1
Mof_N 	N 	0.53318	0.53592	0.8222	-0.262
Mof_N 	N 	0.44196	0.49861	0.9294	-0.269
Mof_N 	N 	0.75884	0.62304	0.7643	-0.235
Mof_N 	N 	0.4122	0.6203	0.0902	-0.131
Mof_C 	C 	0.58081	0.55666	0.7955	0.102
Mof_C 	C 	0.59284	0.58491	0.6662	-0.081
Mof_H 	H 	0.6226	0.6021	0.6254	0.06
Mof_C 	C 	0.5532	0.58174	0.6157	-0.085
Mof_H 	H 	0.5502	0.5963	0.5332	0.062
Mof_C 	C 	0.51603	0.55154	0.7127	0.103
Mof_C 	C 	0.46941	0.54199	0.7	-0.138
Mof_C 	C 	0.43528	0.51674	0.8031	0.104
Mof_C 	C 	0.38685	0.50431	0.7892	-0.066
Mof_H 	H 	0.3737	0.5128	0.714	0.06
Mof_C 	C 	0.36398	0.47805	0.9051	-0.105
Mof_H 	H 	0.3321	0.4648	0.925	0.082
Mof_C 	C 	0.39809	0.47433	0.9921	0.15
Mof_C 	C 	0.61282	0.55189	0.8813	-0.131
Mof_C 	C 	0.66367	0.57742	0.8367	0.162
Mof_C 	C 	0.68033	0.55943	0.7325	-0.206
Mof_H 	H 	0.6599	0.5316	0.6846	0.11
Mof_C 	C 	0.72778	0.58323	0.7002	0.118
Mof_H 	H 	0.7386	0.5707	0.6296	-0.017
Mof_C 	C 	0.69558	0.61877	0.9032	-0.209
Mof_H 	H 	0.6858	0.6322	0.9738	0.11
Mof_C 	C 	0.74238	0.64017	0.8639	0.119
Mof_H 	H 	0.7636	0.6681	0.9098	-0.016
Mof_C 	C 	0.45624	0.55952	0.5695	0.113
Mof_C 	C 	0.45634	0.54166	0.4343	-0.147
Mof_H 	H 	0.4651	0.5189	0.4252	0.083
Mof_C 	C 	0.44369	0.55703	0.3122	0.026
Mof_H 	H 	0.4436	0.5444	0.222	0.014
Mof_C 	C 	0.43121	0.59131	0.3248	-0.058
Mof_C 	C 	0.43071	0.60938	0.4582	0.02
Mof_H 	H 	0.4221	0.6323	0.4665	0.033
Mof_C 	C 	0.44302	0.59361	0.5808	-0.141
Mof_H 	H 	0.4425	0.6059	0.6711	0.087
Mof_C 	C 	0.42007	0.6079	0.1945	0.096
Mof_Co	Co	0.5	0.5	-0	1.128
Mof_N 	N 	0.13349	0.79741	0.51113	-0.269
Mof_N 	N 	0.22471	0.83472	0.40393	-0.27
Mof_N 	N 	0.90783	0.71029	0.56903	-0.23
Mof_N 	N 	0.25447	0.71303	0.24313	-0.126
Mof_C 	C 	0.08586	0.77667	0.53783	0.106
Mof_C 	C 	0.07383	0.74842	0.66713	-0.084
Mof_H 	H 	0.04407	0.73123	0.70793	0.062
Mof_C 	C 	0.11347	0.75159	0.71763	-0.083
Mof_H 	H 	0.11647	0.73703	0.80013	0.065
Mof_C 	C 	0.15064	0.78179	0.62063	0.102
Mof_C 	C 	0.19726	0.79134	0.63333	-0.136
Mof_C 	C 	0.23139	0.81659	0.53023	0.106
Mof_C 	C 	0.27982	0.82902	0.54413	-0.078
Mof_H 	H 	0.29297	0.82053	0.61933	0.065
Mof_C 	C 	0.30269	0.85528	0.42823	-0.086
Mof_H 	H 	0.33457	0.86853	0.40833	0.069
Mof_C 	C 	0.26858	0.859	0.34123	0.109
Mof_C 	C 	0.05385	0.78144	0.45203	-0.154
Mof_C 	C 	0.003	0.75591	0.49663	0.133
Mof_C 	C 	0.98634	0.7739	0.60083	-0.167
Mof_H 	H 	0.00677	0.80173	0.64873	0.092
Mof_C 	C 	0.93889	0.7501	0.63313	0.099
Mof_H 	H 	0.92807	0.76263	0.70373	-0.009
Mof_C 	C 	0.97109	0.71456	0.43013	-0.188
Mof_H 	H 	0.98087	0.70113	0.35953	0.098
Mof_C 	C 	0.92429	0.69316	0.46943	0.105
Mof_H 	H 	0.90307	0.66523	0.42353	-0.015
Mof_C 	C 	0.21043	0.77381	0.76383	0.105
Mof_C 	C 	0.21033	0.79167	0.89903	-0.108
Mof_H 	H 	0.20157	0.81443	0.90813	0.077
Mof_C 	C 	0.22298	0.7763	0.02113	-0.008
Mof_H 	H 	0.22307	0.78893	0.11133	0.026
Mof_C 	C 	0.23546	0.74202	0.00853	-0.075
Mof_C 	C 	0.23596	0.72395	0.87513	0.048
Mof_H 	H 	0.24457	0.70103	0.86683	0.029
Mof_C 	C 	0.22365	0.73972	0.75253	-0.145
Mof_H 	H 	0.22417	0.72743	0.66223	0.087
Mof_C 	C 	0.2466	0.72543	0.13883	0.098
Mof_N 	N 	0.19985	0.86925	0.15553	-0.264
Mof_N 	N 	0.10863	0.83194	0.26273	-0.27
Mof_N 	N 	0.42551	0.95637	0.09763	-0.231
Mof_N 	N 	0.07887	0.95363	0.42353	-0.123
Mof_C 	C 	0.24748	0.88999	0.12883	0.086
Mof_C 	C 	0.25951	0.91824	0.99953	-0.063
Mof_H 	H 	0.28927	0.93543	0.95873	0.061
Mof_C 	C 	0.21987	0.91507	0.94903	-0.063
Mof_H 	H 	0.21687	0.92963	0.86653	0.058
Mof_C 	C 	0.1827	0.88487	0.04603	0.08
Mof_C 	C 	0.13608	0.87532	0.03333	-0.145
Mof_C 	C 	0.10195	0.85007	0.13643	0.1
Mof_C 	C 	0.05352	0.83764	0.12253	-0.067
Mof_H 	H 	0.04037	0.84613	0.04733	0.05
Mof_C 	C 	0.03065	0.81138	0.23843	-0.111
Mof_H 	H 	0.99877	0.79813	0.25833	0.082
Mof_C 	C 	0.06476	0.80766	0.32543	0.116
Mof_C 	C 	0.27949	0.88522	0.21463	-0.152
Mof_C 	C 	0.33034	0.91075	0.17003	0.152
Mof_C 	C 	0.347	0.89276	0.06583	-0.183
Mof_H 	H 	0.32657	0.86493	0.01793	0.094
Mof_C 	C 	0.39445	0.91656	0.03353	0.063
Mof_H 	H 	0.40527	0.90403	0.96293	0.017
Mof_C 	C 	0.36225	0.9521	0.23653	-0.215
Mof_H 	H 	0.35247	0.96553	0.30713	0.107
Mof_C 	C 	0.40905	0.9735	0.19723	0.13
Mof_H 	H 	0.43027	0.00143	0.24313	-0.03
Mof_C 	C 	0.12291	0.89285	0.90283	0.109
Mof_C 	C 	0.12301	0.87499	0.76763	-0.135
Mof_H 	H 	0.13177	0.85223	0.75853	0.082
Mof_C 	C 	0.11036	0.89036	0.64553	0.011
Mof_H 	H 	0.11027	0.87773	0.55533	0.022
Mof_C 	C 	0.09788	0.92464	0.65813	-0.04
Mof_C 	C 	0.09738	0.94271	0.79153	-0.012
Mof_H 	H 	0.08877	0.96563	0.79983	0.049
Mof_C 	C 	0.10969	0.92694	0.91413	-0.087
Mof_H 	H 	0.10917	0.93923	0.00443	0.053
Mof_C 	C 	0.08674	0.94123	0.52783	0.093
Mof_Co	Co	0.16667	0.83333	0.33333	1.137
Mof_N 	N 	0.80015	0.13075	0.84447	-0.274
Mof_N 	N 	0.89137	0.16806	0.73727	-0.271
Mof_N 	N 	0.57449	0.04363	0.90237	-0.242
Mof_N 	N 	0.92113	0.04637	0.57647	-0.126
Mof_C 	C 	0.75252	0.11001	0.87117	0.136
Mof_C 	C 	0.74049	0.08176	0.00047	-0.113
Mof_H 	H 	0.71073	0.06457	0.04127	0.063
Mof_C 	C 	0.78013	0.08493	0.05097	-0.101
Mof_H 	H 	0.78313	0.07037	0.13347	0.064
Mof_C 	C 	0.8173	0.11513	0.95397	0.122
Mof_C 	C 	0.86392	0.12468	0.96667	-0.133
Mof_C 	C 	0.89805	0.14993	0.86357	0.111
Mof_C 	C 	0.94648	0.16236	0.87747	-0.087
Mof_H 	H 	0.95963	0.15387	0.95267	0.074
Mof_C 	C 	0.96935	0.18862	0.76157	-0.07
Mof_H 	H 	0.00123	0.20187	0.74167	0.058
Mof_C 	C 	0.93524	0.19234	0.67457	0.113
Mof_C 	C 	0.72051	0.11478	0.78537	-0.176
Mof_C 	C 	0.66966	0.08925	0.82997	0.188
Mof_C 	C 	0.653	0.10724	0.93417	-0.246
Mof_H 	H 	0.67343	0.13507	0.98207	0.13
Mof_C 	C 	0.60555	0.08344	0.96647	0.178
Mof_H 	H 	0.59473	0.09597	0.03707	-0.054
Mof_C 	C 	0.63775	0.0479	0.76347	-0.222
Mof_H 	H 	0.64753	0.03447	0.69287	0.107
Mof_C 	C 	0.59095	0.0265	0.80277	0.112
Mof_H 	H 	0.56973	0.99857	0.75687	-0.01
Mof_C 	C 	0.87709	0.10715	0.09717	0.114
Mof_C 	C 	0.87699	0.12501	0.23237	-0.155
Mof_H 	H 	0.86823	0.14777	0.24147	0.083
Mof_C 	C 	0.88964	0.10964	0.35447	0.035
Mof_H 	H 	0.88973	0.12227	0.44467	0.014
Mof_C 	C 	0.90212	0.07536	0.34187	-0.072
Mof_C 	C 	0.90262	0.05729	0.20847	0.048
Mof_H 	H 	0.91123	0.03437	0.20017	0.018
Mof_C 	C 	0.89031	0.07306	0.08587	-0.192
Mof_H 	H 	0.89083	0.06077	0.99557	0.115
Mof_C 	C 	0.91326	0.05877	0.47217	0.103
Mof_N 	N 	0.86651	0.20259	0.48887	-0.27
Mof_N 	N 	0.77529	0.16528	0.59607	-0.271
Mof_N 	N 	0.09217	0.28971	0.43097	-0.245
Mof_N 	N 	0.74553	0.28697	0.75687	-0.123
Mof_C 	C 	0.91414	0.22333	0.46217	0.116
Mof_C 	C 	0.92617	0.25158	0.33287	-0.093
Mof_H 	H 	0.95593	0.26877	0.29207	0.063
Mof_C 	C 	0.88653	0.24841	0.28237	-0.081
Mof_H 	H 	0.88353	0.26297	0.19987	0.056
Mof_C 	C 	0.84936	0.21821	0.37937	0.101
Mof_C 	C 	0.80274	0.20866	0.36667	-0.142
Mof_C 	C 	0.76861	0.18341	0.46977	0.106
Mof_C 	C 	0.72018	0.17098	0.45587	-0.076
Mof_H 	H 	0.70703	0.17947	0.38067	0.06
Mof_C 	C 	0.69731	0.14472	0.57177	-0.094
Mof_H 	H 	0.66543	0.13147	0.59167	0.071
Mof_C 	C 	0.73142	0.141	0.65877	0.12
Mof_C 	C 	0.94615	0.21856	0.54797	-0.174
Mof_C 	C 	0.997	0.24409	0.50337	0.208
Mof_C 	C 	0.01366	0.2261	0.39917	-0.263
Mof_H 	H 	0.99323	0.19827	0.35127	0.132
Mof_C 	C 	0.06111	0.2499	0.36687	0.142
Mof_H 	H 	0.07193	0.23737	0.29627	-0.028
Mof_C 	C 	0.02891	0.28544	0.56987	-0.25
Mof_H 	H 	0.01913	0.29887	0.64047	0.115
Mof_C 	C 	0.07571	0.30684	0.53057	0.136
Mof_H 	H 	0.09693	0.33477	0.57647	-0.025
Mof_C 	C 	0.78957	0.22619	0.23617	0.118
Mof_C 	C 	0.78967	0.20833	0.10097	-0.182
Mof_H 	H 	0.79843	0.18557	0.09187	0.088
Mof_C 	C 	0.77702	0.2237	0.97887	0.054
Mof_H 	H 	0.77693	0.21107	0.88867	0.01
Mof_C 	C 	0.76454	0.25798	0.99147	-0.036
Mof_C 	C 	0.76404	0.27605	0.12487	-0.012
Mof_H 	H 	0.75543	0.29897	0.13317	0.038
Mof_C 	C 	0.77635	0.26028	0.24747	-0.134
Mof_H 	H 	0.77583	0.27257	0.33777	0.081
Mof_C 	C 	0.7534	0.27457	0.86117	0.098
Mof_Co	Co	0.83333	0.16667	0.66667	1.138
_end
