data_functionalizedCrystal
_audit_creation_method	'EQeq! by Chris Wilmer'
_symmetry_space_group_name_H-M	'P1'
_symmetry_Int_Tables_number	1
_symmetry_cell_setting	triclinic
loop_
_symmetry_equiv_pos_as_xyz
  x,y,z
_cell_length_a	10.9495
_cell_length_b	22.0856
_cell_length_c	28.3314
_cell_angle_alpha	100.496
_cell_angle_beta	99.542
_cell_angle_gamma	101.674
loop_
_atom_site_label
_atom_site_type_symbol
_atom_site_fract_x
_atom_site_fract_y
_atom_site_fract_z
_atom_site_charge
Mof_C 	C 	0.7884	0.89052	0.19229	-0.083
Mof_C 	C 	0.9131	0.9235	0.19615	0.024
Mof_H 	H 	0.9323	0.9673	0.1998	0.047
Mof_C 	C 	0.0086	0.89147	0.19454	-0.085
Mof_C 	C 	0.9817	0.82609	0.19031	-0.003
Mof_H 	H 	0.0466	0.8047	0.1901	0.049
Mof_C 	C 	0.8565	0.79313	0.18638	-0.038
Mof_C 	C 	0.7602	0.82664	0.18849	-0.003
Mof_H 	H 	0.677	0.8051	0.1873	0.044
Mof_C 	C 	0.6777	0.92199	0.19416	0.344
Mof_C 	C 	0.1324	0.92636	0.18959	0.316
Mof_C 	C 	0.8553	0.62569	0.1986	0.102
Mof_H 	H 	0.9021	0.6045	0.2175	0.005
Mof_C 	C 	0.8894	0.69096	0.2093	-0.166
Mof_H 	H 	0.956	0.7133	0.2354	0.092
Mof_C 	C 	0.8225	0.72283	0.1803	0.108
Mof_C 	C 	0.7213	0.68688	0.14253	-0.166
Mof_H 	H 	0.6744	0.7071	0.1228	0.092
Mof_C 	C 	0.6912	0.62364	0.13452	0.093
Mof_H 	H 	0.6229	0.6007	0.1093	-0.003
Mof_C 	C 	0.3293	0.4943	0.14907	-0.105
Mof_C 	C 	0.3562	0.55828	0.1542	0.011
Mof_H 	H 	0.4376	0.5795	0.1528	0.041
Mof_C 	C 	0.2637	0.59381	0.16158	-0.051
Mof_C 	C 	0.1421	0.56074	0.16427	0.01
Mof_H 	H 	0.0804	0.5828	0.1705	0.04
Mof_C 	C 	0.1128	0.49302	0.1575	-0.121
Mof_C 	C 	0.2017	0.4596	0.1482	0.049
Mof_H 	H 	0.1805	0.4155	0.1415	0.037
Mof_C 	C 	0.4037	0.75975	0.14973	0.074
Mof_H 	H 	0.4561	0.7796	0.1315	0.007
Mof_C 	C 	0.3752	0.69288	0.14296	-0.146
Mof_H 	H 	0.4097	0.6685	0.1208	0.084
Mof_C 	C 	0.2924	0.6635	0.17068	0.112
Mof_C 	C 	0.2524	0.70028	0.20443	-0.176
Mof_H 	H 	0.2046	0.6821	0.2247	0.094
Mof_C 	C 	0.2815	0.76585	0.20961	0.1
Mof_H 	H 	0.2489	0.7901	0.2326	-0.014
Mof_C 	C 	0.4326	0.46198	0.13884	0.356
Mof_C 	C 	0.9751	0.46232	0.15513	0.424
Mof_C 	C 	0.254	0.87156	0.03686	-0.113
Mof_C 	C 	0.2882	0.81703	0.01428	0.046
Mof_H 	H 	0.3459	0.8	0.0324	0.038
Mof_C 	C 	0.2363	0.78811	0.96476	-0.108
Mof_C 	C 	0.1454	0.81447	0.93909	0.008
Mof_H 	H 	0.1075	0.795	0.9065	0.044
Mof_C 	C 	0.111	0.86773	0.96045	-0.05
Mof_C 	C 	0.173	0.89858	0.0091	0.014
Mof_H 	H 	0.1593	0.9376	0.0227	0.039
Mof_C 	C 	0.8159	0.87761	0.87528	0.098
Mof_H 	H 	0.7437	0.8493	0.8549	-0.016
Mof_C 	C 	0.9036	0.8544	0.90164	-0.169
Mof_H 	H 	0.8889	0.8108	0.8989	0.091
Mof_C 	C 	0.0143	0.8931	0.93251	0.1
Mof_C 	C 	0.0337	0.96098	0.93308	-0.157
Mof_H 	H 	0.1082	0.9904	0.9503	0.089
Mof_C 	C 	0.936	0.978	0.90686	0.095
Mof_H 	H 	0.9438	0.0213	0.9095	0.007
Mof_C 	C 	0.307	0.90378	0.09004	0.393
Mof_C 	C 	0.2678	0.73156	0.9374	0.358
Mof_C 	C 	0.2995	0.15041	0.29076	-0.098
Mof_C 	C 	0.2316	0.18371	0.26587	0.013
Mof_H 	H 	0.2253	0.1779	0.2321	0.041
Mof_C 	C 	0.1711	0.22615	0.28897	-0.053
Mof_C 	C 	0.1897	0.23785	0.33969	0.018
Mof_H 	H 	0.1513	0.267	0.3557	0.037
Mof_C 	C 	0.2645	0.20723	0.36773	-0.123
Mof_C 	C 	0.3166	0.16144	0.34233	0.047
Mof_H 	H 	0.3626	0.1383	0.3595	0.039
Mof_C 	C 	0.0169	0.29604	0.18947	0.084
Mof_H 	H 	0.0301	0.3048	0.1596	0.012
Mof_C 	C 	0.1037	0.26915	0.21574	-0.159
Mof_H 	H 	0.172	0.2591	0.2031	0.089
Mof_C 	C 	0.0859	0.25788	0.26055	0.111
Mof_C 	C 	0.9832	0.27563	0.27913	-0.177
Mof_H 	H 	0.9706	0.2708	0.31	0.097
Mof_C 	C 	0.9026	0.30039	0.2497	0.111
Mof_H 	H 	0.8344	0.3114	0.2619	-0.018
Mof_C 	C 	0.3602	0.10518	0.26179	0.343
Mof_C 	C 	0.2818	0.22543	0.42197	0.409
Mof_C 	C 	0.7328	0.19996	0.52956	-0.082
Mof_C 	C 	0.708	0.13644	0.52598	-0.004
Mof_H 	H 	0.6274	0.1151	0.5282	0.048
Mof_C 	C 	0.8008	0.10186	0.51897	-0.035
Mof_C 	C 	0.9237	0.13568	0.51713	-0.003
Mof_H 	H 	0.9861	0.1135	0.5125	0.046
Mof_C 	C 	0.9542	0.20142	0.52209	-0.095
Mof_C 	C 	0.8586	0.23675	0.52886	0.019
Mof_H 	H 	0.8764	0.2806	0.5326	0.047
Mof_C 	C 	0.6594	0.93414	0.52732	0.074
Mof_H 	H 	0.6063	0.9139	0.5451	0.016
Mof_C 	C 	0.6893	0.00043	0.53595	-0.146
Mof_H 	H 	0.6559	0.024	0.559	0.086
Mof_C 	C 	0.7684	0.03021	0.50995	0.094
Mof_C 	C 	0.8197	0.9949	0.47573	-0.146
Mof_H 	H 	0.8761	0.0155	0.4593	0.087
Mof_C 	C 	0.7868	0.92912	0.46613	0.065
Mof_H 	H 	0.8173	0.9056	0.442	-0.005
Mof_C 	C 	0.6265	0.23374	0.53354	0.352
Mof_C 	C 	0.0847	0.23323	0.5194	0.365
Mof_C 	C 	0.2623	0.46549	0.62764	-0.108
Mof_C 	C 	0.2825	0.47909	0.67805	0.053
Mof_H 	H 	0.333	0.4582	0.6958	0.039
Mof_C 	C 	0.2279	0.5241	0.70309	-0.12
Mof_C 	C 	0.153	0.55404	0.67552	0.017
Mof_H 	H 	0.1195	0.5852	0.6918	0.04
Mof_C 	C 	0.1252	0.53923	0.6234	-0.049
Mof_C 	C 	0.1863	0.49711	0.60013	0.009
Mof_H 	H 	0.1773	0.4896	0.5662	0.041
Mof_C 	C 	0.8503	0.61271	0.58694	0.083
Mof_H 	H 	0.7845	0.6254	0.5999	-0.012
Mof_C 	C 	0.9326	0.58468	0.61472	-0.154
Mof_H 	H 	0.9187	0.5768	0.6448	0.089
Mof_C 	C 	0.0365	0.56879	0.59609	0.098
Mof_C 	C 	0.0518	0.58039	0.55004	-0.152
Mof_H 	H 	0.1183	0.5697	0.5365	0.088
Mof_C 	C 	0.9651	0.60835	0.5249	0.084
Mof_H 	H 	0.9775	0.6181	0.4952	0.01
Mof_C 	C 	0.3166	0.41751	0.59909	0.366
Mof_C 	C 	0.2498	0.54243	0.75735	0.403
Mof_C 	C 	0.1659	0.4765	0.93624	0.045
Mof_H 	H 	0.0992	0.4548	0.91	0.015
Mof_C 	C 	0.1512	0.47597	0.98441	-0.1
Mof_H 	H 	0.0752	0.4539	0.9902	0.07
Mof_C 	C 	0.2514	0.50877	0.02356	0.022
Mof_H 	H 	0.2428	0.5086	0.0557	0.03
Mof_C 	C 	0.3658	0.54218	0.01433	-0.097
Mof_H 	H 	0.4328	0.5645	0.0403	0.069
Mof_C 	C 	0.378	0.54155	0.96626	0.048
Mof_H 	H 	0.4537	0.5632	0.9601	0.012
Mof_N 	N 	0.7586	0.59134	0.16255	-0.217
Mof_N 	N 	0.3536	0.79555	0.18336	-0.228
Mof_N 	N 	0.8293	0.93923	0.87749	-0.229
Mof_N 	N 	0.9131	0.30985	0.20647	-0.231
Mof_N 	N 	0.7074	0.89832	0.49296	-0.215
Mof_N 	N 	0.8642	0.62157	0.54263	-0.225
Mof_N 	N 	0.2787	0.50901	0.92756	-0.213
Mof_Ni	Ni	0.39904	0.89303	0.19219	1.108
Mof_Ni	Ni	0.31182	0.02689	0.16141	1.112
Mof_Ni	Ni	0.3437	0.20096	0.52202	1.109
Mof_Ni	Ni	0.26586	0.33915	0.49764	1.109
Mof_Ni	Ni	0.21197	0.65038	0.83489	1.111
Mof_Ni	Ni	0.28698	0.509	0.85453	1.128
Mof_O 	O 	0.5934	0.89519	0.21252	-0.411
Mof_O 	O 	0.6795	0.97266	0.17958	-0.303
Mof_O 	O 	0.1724	0.984	0.18778	-0.394
Mof_O 	O 	0.2204	0.88954	0.19564	-0.399
Mof_O 	O 	0.5296	0.4934	0.13139	-0.42
Mof_O 	O 	0.4195	0.40267	0.14091	-0.294
Mof_O 	O 	0.9472	0.40626	0.15143	-0.432
Mof_O 	O 	0.9009	0.49841	0.16119	-0.444
Mof_O 	O 	0.2783	0.95595	0.10262	-0.448
Mof_O 	O 	0.3672	0.87643	0.11689	-0.422
Mof_O 	O 	0.3366	0.70199	0.95866	-0.306
Mof_O 	O 	0.2147	0.71644	0.89247	-0.428
Mof_O 	O 	0.3412	0.10227	0.21667	-0.421
Mof_O 	O 	0.4109	0.06695	0.28305	-0.3
Mof_O 	O 	0.3427	0.19684	0.44784	-0.41
Mof_O 	O 	0.2381	0.27034	0.43774	-0.456
Mof_O 	O 	0.5243	0.1956	0.53378	-0.426
Mof_O 	O 	0.6426	0.29076	0.53288	-0.31
Mof_O 	O 	0.1567	0.19605	0.513	-0.434
Mof_O 	O 	0.119	0.29313	0.5234	-0.402
Mof_O 	O 	0.3008	0.41641	0.55306	-0.417
Mof_O 	O 	0.3722	0.38404	0.61892	-0.321
Mof_O 	O 	0.2958	0.50819	0.78273	-0.408
Mof_O 	O 	0.2111	0.5898	0.77234	-0.449
Mof_O 	O 	0.4549	0.99417	0.20396	-0.955
Mof_H 	H 	0.5259	0.0052	0.1957	0.37
Mof_H 	H 	0.4638	0.0108	0.2342	0.381
Mof_O 	O 	0.4004	0.30218	0.54	-0.961
Mof_H 	H 	0.4736	0.3142	0.5337	0.375
Mof_H 	H 	0.4055	0.316	0.5705	0.38
Mof_O 	O 	0.3476	0.61247	0.87619	-0.947
Mof_H 	H 	0.3512	0.6249	0.9067	0.38
Mof_H 	H 	0.4212	0.6252	0.8705	0.375
Mof_C 	C 	0.2116	0.10948	0.80771	-0.084
Mof_C 	C 	0.0869	0.0765	0.80385	0.023
Mof_H 	H 	0.0677	0.0327	0.8002	0.046
Mof_C 	C 	0.9914	0.10853	0.80546	-0.086
Mof_C 	C 	0.0183	0.17391	0.80969	-0.004
Mof_H 	H 	0.9534	0.1953	0.8099	0.048
Mof_C 	C 	0.1435	0.20687	0.81362	-0.039
Mof_C 	C 	0.2398	0.17336	0.81151	-0.004
Mof_H 	H 	0.323	0.1949	0.8127	0.043
Mof_C 	C 	0.3223	0.07801	0.80584	0.343
Mof_C 	C 	0.8676	0.07364	0.81041	0.315
Mof_C 	C 	0.1447	0.37431	0.8014	0.101
Mof_H 	H 	0.0979	0.3955	0.7825	0.004
Mof_C 	C 	0.1106	0.30904	0.7907	-0.167
Mof_H 	H 	0.044	0.2867	0.7646	0.091
Mof_C 	C 	0.1775	0.27717	0.8197	0.107
Mof_C 	C 	0.2787	0.31312	0.85747	-0.167
Mof_H 	H 	0.3256	0.2929	0.8772	0.091
Mof_C 	C 	0.3088	0.37636	0.86548	0.093
Mof_H 	H 	0.3771	0.3993	0.8907	-0.003
Mof_C 	C 	0.6707	0.5057	0.85093	-0.105
Mof_C 	C 	0.6438	0.44172	0.8458	0.011
Mof_H 	H 	0.5624	0.4205	0.8472	0.041
Mof_C 	C 	0.7363	0.40619	0.83842	-0.051
Mof_C 	C 	0.8579	0.43926	0.83573	0.01
Mof_H 	H 	0.9196	0.4172	0.8295	0.04
Mof_C 	C 	0.8872	0.50698	0.8425	-0.121
Mof_C 	C 	0.7983	0.5404	0.8518	0.049
Mof_H 	H 	0.8195	0.5845	0.8585	0.037
Mof_C 	C 	0.5963	0.24025	0.85027	0.074
Mof_H 	H 	0.5439	0.2204	0.8685	0.007
Mof_C 	C 	0.6248	0.30712	0.85704	-0.146
Mof_H 	H 	0.5903	0.3315	0.8792	0.084
Mof_C 	C 	0.7076	0.3365	0.82932	0.112
Mof_C 	C 	0.7476	0.29972	0.79557	-0.176
Mof_H 	H 	0.7954	0.3179	0.7753	0.094
Mof_C 	C 	0.7185	0.23415	0.79039	0.1
Mof_H 	H 	0.7511	0.2099	0.7674	-0.014
Mof_C 	C 	0.5674	0.53802	0.86116	0.356
Mof_C 	C 	0.0249	0.53768	0.84487	0.424
Mof_C 	C 	0.746	0.12844	0.96314	-0.113
Mof_C 	C 	0.7118	0.18297	0.98572	0.046
Mof_H 	H 	0.6541	0.2	0.9676	0.038
Mof_C 	C 	0.7637	0.21189	0.03524	-0.108
Mof_C 	C 	0.8546	0.18553	0.06091	0.008
Mof_H 	H 	0.8925	0.205	0.0935	0.044
Mof_C 	C 	0.889	0.13227	0.03955	-0.05
Mof_C 	C 	0.827	0.10142	0.9909	0.014
Mof_H 	H 	0.8407	0.0624	0.9773	0.039
Mof_C 	C 	0.1841	0.12239	0.12472	0.098
Mof_H 	H 	0.2563	0.1507	0.1451	-0.016
Mof_C 	C 	0.0964	0.1456	0.09836	-0.169
Mof_H 	H 	0.1111	0.1892	0.1011	0.091
Mof_C 	C 	0.9857	0.1069	0.06749	0.1
Mof_C 	C 	0.9663	0.03902	0.06692	-0.157
Mof_H 	H 	0.8918	0.0096	0.0497	0.089
Mof_C 	C 	0.064	0.022	0.09314	0.095
Mof_H 	H 	0.0562	0.9787	0.0905	0.007
Mof_C 	C 	0.693	0.09622	0.90996	0.393
Mof_C 	C 	0.7322	0.26844	0.0626	0.358
Mof_C 	C 	0.7005	0.84959	0.70924	-0.098
Mof_C 	C 	0.7684	0.81629	0.73413	0.013
Mof_H 	H 	0.7747	0.8221	0.7679	0.041
Mof_C 	C 	0.8289	0.77385	0.71103	-0.053
Mof_C 	C 	0.8103	0.76215	0.66031	0.018
Mof_H 	H 	0.8487	0.733	0.6443	0.037
Mof_C 	C 	0.7355	0.79277	0.63227	-0.123
Mof_C 	C 	0.6834	0.83856	0.65767	0.047
Mof_H 	H 	0.6374	0.8617	0.6405	0.039
Mof_C 	C 	0.9831	0.70396	0.81053	0.084
Mof_H 	H 	0.9699	0.6952	0.8404	0.012
Mof_C 	C 	0.8963	0.73085	0.78426	-0.159
Mof_H 	H 	0.828	0.7409	0.7969	0.089
Mof_C 	C 	0.9141	0.74212	0.73945	0.111
Mof_C 	C 	0.0168	0.72437	0.72087	-0.177
Mof_H 	H 	0.0294	0.7292	0.69	0.097
Mof_C 	C 	0.0974	0.69961	0.7503	0.111
Mof_H 	H 	0.1656	0.6886	0.7381	-0.018
Mof_C 	C 	0.6398	0.89482	0.73821	0.343
Mof_C 	C 	0.7182	0.77457	0.57803	0.409
Mof_C 	C 	0.2672	0.80004	0.47044	-0.082
Mof_C 	C 	0.292	0.86356	0.47402	-0.004
Mof_H 	H 	0.3726	0.8849	0.4718	0.048
Mof_C 	C 	0.1992	0.89814	0.48103	-0.035
Mof_C 	C 	0.0763	0.86432	0.48287	-0.003
Mof_H 	H 	0.0139	0.8865	0.4875	0.046
Mof_C 	C 	0.0458	0.79858	0.47791	-0.095
Mof_C 	C 	0.1414	0.76325	0.47114	0.019
Mof_H 	H 	0.1236	0.7194	0.4674	0.047
Mof_C 	C 	0.3406	0.06586	0.47268	0.074
Mof_H 	H 	0.3937	0.0861	0.4549	0.016
Mof_C 	C 	0.3107	0.99957	0.46405	-0.146
Mof_H 	H 	0.3441	0.976	0.441	0.086
Mof_C 	C 	0.2316	0.96979	0.49005	0.094
Mof_C 	C 	0.1803	0.0051	0.52427	-0.146
Mof_H 	H 	0.1239	0.9845	0.5407	0.087
Mof_C 	C 	0.2132	0.07088	0.53387	0.065
Mof_H 	H 	0.1827	0.0944	0.558	-0.005
Mof_C 	C 	0.3735	0.76626	0.46646	0.352
Mof_C 	C 	0.9153	0.76677	0.4806	0.365
Mof_C 	C 	0.7377	0.53451	0.37236	-0.108
Mof_C 	C 	0.7175	0.52091	0.32195	0.053
Mof_H 	H 	0.667	0.5418	0.3042	0.039
Mof_C 	C 	0.7721	0.4759	0.29691	-0.12
Mof_C 	C 	0.847	0.44596	0.32448	0.017
Mof_H 	H 	0.8805	0.4148	0.3082	0.04
Mof_C 	C 	0.8748	0.46077	0.3766	-0.049
Mof_C 	C 	0.8137	0.50289	0.39987	0.009
Mof_H 	H 	0.8227	0.5104	0.4338	0.041
Mof_C 	C 	0.1497	0.38729	0.41306	0.083
Mof_H 	H 	0.2155	0.3746	0.4001	-0.012
Mof_C 	C 	0.0674	0.41532	0.38528	-0.154
Mof_H 	H 	0.0813	0.4232	0.3552	0.089
Mof_C 	C 	0.9635	0.43121	0.40391	0.098
Mof_C 	C 	0.9482	0.41961	0.44996	-0.152
Mof_H 	H 	0.8817	0.4303	0.4635	0.088
Mof_C 	C 	0.0349	0.39165	0.4751	0.084
Mof_H 	H 	0.0225	0.3819	0.5048	0.01
Mof_C 	C 	0.6834	0.58249	0.40091	0.366
Mof_C 	C 	0.7502	0.45757	0.24265	0.403
Mof_C 	C 	0.8341	0.5235	0.06376	0.045
Mof_H 	H 	0.9008	0.5452	0.09	0.015
Mof_C 	C 	0.8488	0.52403	0.01559	-0.1
Mof_H 	H 	0.9248	0.5461	0.0098	0.07
Mof_C 	C 	0.7486	0.49123	0.97644	0.022
Mof_H 	H 	0.7572	0.4914	0.9443	0.03
Mof_C 	C 	0.6342	0.45782	0.98567	-0.097
Mof_H 	H 	0.5672	0.4355	0.9597	0.069
Mof_C 	C 	0.622	0.45845	0.03374	0.048
Mof_H 	H 	0.5463	0.4368	0.0399	0.012
Mof_N 	N 	0.2414	0.40866	0.83745	-0.217
Mof_N 	N 	0.6464	0.20445	0.81664	-0.228
Mof_N 	N 	0.1707	0.06077	0.12251	-0.229
Mof_N 	N 	0.0869	0.69015	0.79353	-0.231
Mof_N 	N 	0.2926	0.10168	0.50704	-0.215
Mof_N 	N 	0.1358	0.37843	0.45737	-0.225
Mof_N 	N 	0.7213	0.49099	0.07244	-0.213
Mof_Ni	Ni	0.60096	0.10697	0.80781	1.108
Mof_Ni	Ni	0.68818	0.97311	0.83859	1.112
Mof_Ni	Ni	0.6563	0.79904	0.47798	1.109
Mof_Ni	Ni	0.73414	0.66085	0.50236	1.109
Mof_Ni	Ni	0.78803	0.34962	0.16511	1.111
Mof_Ni	Ni	0.71302	0.491	0.14547	1.128
Mof_O 	O 	0.4066	0.10481	0.78748	-0.411
Mof_O 	O 	0.3205	0.02734	0.82042	-0.303
Mof_O 	O 	0.8276	0.016	0.81222	-0.394
Mof_O 	O 	0.7796	0.11046	0.80436	-0.399
Mof_O 	O 	0.4704	0.5066	0.86861	-0.42
Mof_O 	O 	0.5805	0.59733	0.85909	-0.294
Mof_O 	O 	0.0528	0.59374	0.84857	-0.432
Mof_O 	O 	0.0991	0.50159	0.83881	-0.444
Mof_O 	O 	0.7217	0.04405	0.89738	-0.448
Mof_O 	O 	0.6328	0.12357	0.88311	-0.422
Mof_O 	O 	0.6634	0.29801	0.04134	-0.306
Mof_O 	O 	0.7853	0.28356	0.10753	-0.428
Mof_O 	O 	0.6588	0.89773	0.78333	-0.421
Mof_O 	O 	0.5891	0.93305	0.71695	-0.3
Mof_O 	O 	0.6573	0.80316	0.55216	-0.41
Mof_O 	O 	0.7619	0.72966	0.56226	-0.456
Mof_O 	O 	0.4757	0.8044	0.46622	-0.426
Mof_O 	O 	0.3574	0.70924	0.46712	-0.31
Mof_O 	O 	0.8433	0.80395	0.487	-0.434
Mof_O 	O 	0.881	0.70687	0.4766	-0.402
Mof_O 	O 	0.6992	0.58359	0.44694	-0.417
Mof_O 	O 	0.6278	0.61596	0.38108	-0.321
Mof_O 	O 	0.7042	0.49181	0.21727	-0.408
Mof_O 	O 	0.7889	0.4102	0.22766	-0.449
Mof_O 	O 	0.5451	0.00583	0.79604	-0.955
Mof_H 	H 	0.4741	0.9948	0.8043	0.37
Mof_H 	H 	0.5362	0.9892	0.7658	0.381
Mof_O 	O 	0.5996	0.69782	0.46	-0.961
Mof_H 	H 	0.5264	0.6858	0.4663	0.375
Mof_H 	H 	0.5945	0.684	0.4295	0.38
Mof_O 	O 	0.6524	0.38753	0.12381	-0.947
Mof_H 	H 	0.6488	0.3751	0.0933	0.38
Mof_H 	H 	0.5788	0.3748	0.1295	0.375
_end
