data_functionalizedCrystal
_audit_creation_method	'EQeq! by Chris Wilmer'
_symmetry_space_group_name_H-M	'P1'
_symmetry_Int_Tables_number	1
_symmetry_cell_setting	triclinic
loop_
_symmetry_equiv_pos_as_xyz
  x,y,z
_cell_length_a	25.86
_cell_length_b	25.86
_cell_length_c	6.8678
_cell_angle_alpha	90
_cell_angle_beta	90
_cell_angle_gamma	120
loop_
_atom_site_label
_atom_site_type_symbol
_atom_site_fract_x
_atom_site_fract_y
_atom_site_fract_z
_atom_site_charge
Mof_Co	Co	0.36295	0.049	0.52338	1.163
Mof_O 	O 	0.3112	0.05898	0.3278	-0.529
Mof_O 	O 	0.33971	0.03725	0.9707	-0.578
Mof_O 	O 	0.36499	0.10394	0.735	-0.466
Mof_C 	C 	0.32274	0.11099	0.2437	0.201
Mof_C 	C 	0.33927	0.12607	0.0461	-0.178
Mof_C 	C 	0.34948	0.18115	0.9739	-0.098
Mof_H 	H 	0.3606	0.1907	0.8412	0.078
Mof_C 	C 	0.34829	0.08681	0.9071	0.416
Mof_Co	Co	0.02962	0.38233	0.85671	1.162
Mof_O 	O 	0.97787	0.39231	0.66113	-0.53
Mof_O 	O 	0.00638	0.37058	0.30403	-0.58
Mof_O 	O 	0.03166	0.43727	0.06833	-0.467
Mof_C 	C 	0.98941	0.44432	0.57703	0.199
Mof_C 	C 	0.00594	0.4594	0.37943	-0.178
Mof_C 	C 	0.01615	0.51448	0.30723	-0.099
Mof_H 	H 	0.02727	0.52403	0.17453	0.077
Mof_C 	C 	0.01496	0.42014	0.24043	0.415
Mof_Co	Co	0.69628	0.71567	0.19005	1.162
Mof_O 	O 	0.64453	0.72565	0.99447	-0.53
Mof_O 	O 	0.67304	0.70392	0.63737	-0.58
Mof_O 	O 	0.69832	0.77061	0.40167	-0.467
Mof_C 	C 	0.65607	0.77766	0.91037	0.199
Mof_C 	C 	0.6726	0.79274	0.71277	-0.178
Mof_C 	C 	0.68281	0.84782	0.64057	-0.1
Mof_H 	H 	0.69393	0.85737	0.50787	0.077
Mof_C 	C 	0.68162	0.75348	0.57377	0.415
Mof_Co	Co	0.951	0.31395	0.52338	1.162
Mof_O 	O 	0.94102	0.25222	0.3278	-0.53
Mof_O 	O 	0.96275	0.30246	0.9707	-0.579
Mof_O 	O 	0.89606	0.26105	0.735	-0.467
Mof_C 	C 	0.88901	0.21175	0.2437	0.2
Mof_C 	C 	0.87393	0.2132	0.0461	-0.18
Mof_C 	C 	0.81885	0.16833	0.9739	-0.097
Mof_H 	H 	0.8093	0.1699	0.8412	0.077
Mof_C 	C 	0.91319	0.26148	0.9071	0.416
Mof_Co	Co	0.61767	0.64728	0.85671	1.162
Mof_O 	O 	0.60769	0.58555	0.66113	-0.53
Mof_O 	O 	0.62942	0.63579	0.30403	-0.58
Mof_O 	O 	0.56273	0.59438	0.06833	-0.467
Mof_C 	C 	0.55568	0.54508	0.57703	0.199
Mof_C 	C 	0.5406	0.54653	0.37943	-0.178
Mof_C 	C 	0.48552	0.50166	0.30723	-0.099
Mof_H 	H 	0.47597	0.50323	0.17453	0.077
Mof_C 	C 	0.57986	0.59481	0.24043	0.415
Mof_Co	Co	0.28433	0.98062	0.19005	1.162
Mof_O 	O 	0.27435	0.91889	0.99447	-0.53
Mof_O 	O 	0.29608	0.96913	0.63737	-0.579
Mof_O 	O 	0.22939	0.92772	0.40167	-0.467
Mof_C 	C 	0.22234	0.87842	0.91037	0.198
Mof_C 	C 	0.20726	0.87987	0.71277	-0.178
Mof_C 	C 	0.15218	0.835	0.64057	-0.1
Mof_H 	H 	0.14263	0.83657	0.50787	0.078
Mof_C 	C 	0.24652	0.92815	0.57377	0.415
Mof_Co	Co	0.68605	0.63705	0.52338	1.162
Mof_O 	O 	0.74778	0.6888	0.3278	-0.53
Mof_O 	O 	0.69754	0.66029	0.9707	-0.58
Mof_O 	O 	0.73895	0.63501	0.735	-0.467
Mof_C 	C 	0.78825	0.67726	0.2437	0.2
Mof_C 	C 	0.7868	0.66073	0.0461	-0.179
Mof_C 	C 	0.83167	0.65052	0.9739	-0.099
Mof_H 	H 	0.8301	0.6394	0.8412	0.077
Mof_C 	C 	0.73852	0.65171	0.9071	0.416
Mof_Co	Co	0.35272	0.97038	0.85671	1.162
Mof_O 	O 	0.41445	0.02213	0.66113	-0.53
Mof_O 	O 	0.36421	0.99362	0.30403	-0.579
Mof_O 	O 	0.40562	0.96834	0.06833	-0.467
Mof_C 	C 	0.45492	0.01059	0.57703	0.199
Mof_C 	C 	0.45347	0.99406	0.37943	-0.178
Mof_C 	C 	0.49834	0.98385	0.30723	-0.099
Mof_H 	H 	0.49677	0.97273	0.17453	0.077
Mof_C 	C 	0.40519	0.98504	0.24043	0.415
Mof_Co	Co	0.01938	0.30372	0.19005	1.162
Mof_O 	O 	0.08111	0.35547	0.99447	-0.53
Mof_O 	O 	0.03087	0.32696	0.63737	-0.58
Mof_O 	O 	0.07228	0.30168	0.40167	-0.467
Mof_C 	C 	0.12158	0.34393	0.91037	0.199
Mof_C 	C 	0.12013	0.3274	0.71277	-0.178
Mof_C 	C 	0.165	0.31719	0.64057	-0.1
Mof_H 	H 	0.16343	0.30607	0.50787	0.077
Mof_C 	C 	0.07185	0.31838	0.57377	0.415
Mof_Co	Co	0.63705	0.951	0.47662	1.162
Mof_O 	O 	0.6888	0.94102	0.6722	-0.53
Mof_O 	O 	0.66029	0.96275	0.0293	-0.579
Mof_O 	O 	0.63501	0.89606	0.265	-0.467
Mof_C 	C 	0.67726	0.88901	0.7563	0.2
Mof_C 	C 	0.66073	0.87393	0.9539	-0.179
Mof_C 	C 	0.65052	0.81885	0.0261	-0.099
Mof_H 	H 	0.6394	0.8093	0.1588	0.077
Mof_C 	C 	0.65171	0.91319	0.0929	0.416
Mof_Co	Co	0.30372	0.28433	0.80995	1.162
Mof_O 	O 	0.35547	0.27435	0.00553	-0.53
Mof_O 	O 	0.32696	0.29608	0.36263	-0.58
Mof_O 	O 	0.30168	0.22939	0.59833	-0.467
Mof_C 	C 	0.34393	0.22234	0.08963	0.199
Mof_C 	C 	0.3274	0.20726	0.28723	-0.178
Mof_C 	C 	0.31719	0.15218	0.35943	-0.1
Mof_H 	H 	0.30607	0.14263	0.49213	0.077
Mof_C 	C 	0.31838	0.24652	0.42623	0.415
Mof_Co	Co	0.97038	0.61767	0.14329	1.162
Mof_O 	O 	0.02213	0.60769	0.33887	-0.53
Mof_O 	O 	0.99362	0.62942	0.69597	-0.58
Mof_O 	O 	0.96834	0.56273	0.93167	-0.467
Mof_C 	C 	0.01059	0.55568	0.42297	0.199
Mof_C 	C 	0.99406	0.5406	0.62057	-0.178
Mof_C 	C 	0.98385	0.48552	0.69277	-0.099
Mof_H 	H 	0.97273	0.47597	0.82547	0.077
Mof_C 	C 	0.98504	0.57986	0.75957	0.415
Mof_Co	Co	0.049	0.68605	0.47662	1.162
Mof_O 	O 	0.05898	0.74778	0.6722	-0.53
Mof_O 	O 	0.03725	0.69754	0.0293	-0.579
Mof_O 	O 	0.10394	0.73895	0.265	-0.467
Mof_C 	C 	0.11099	0.78825	0.7563	0.2
Mof_C 	C 	0.12607	0.7868	0.9539	-0.18
Mof_C 	C 	0.18115	0.83167	0.0261	-0.097
Mof_H 	H 	0.1907	0.8301	0.1588	0.077
Mof_C 	C 	0.08681	0.73852	0.0929	0.416
Mof_Co	Co	0.71567	0.01938	0.80995	1.162
Mof_O 	O 	0.72565	0.08111	0.00553	-0.53
Mof_O 	O 	0.70392	0.03087	0.36263	-0.579
Mof_O 	O 	0.77061	0.07228	0.59833	-0.467
Mof_C 	C 	0.77766	0.12158	0.08963	0.198
Mof_C 	C 	0.79274	0.12013	0.28723	-0.178
Mof_C 	C 	0.84782	0.165	0.35943	-0.1
Mof_H 	H 	0.85737	0.16343	0.49213	0.078
Mof_C 	C 	0.75348	0.07185	0.42623	0.415
Mof_Co	Co	0.38233	0.35272	0.14329	1.162
Mof_O 	O 	0.39231	0.41445	0.33887	-0.53
Mof_O 	O 	0.37058	0.36421	0.69597	-0.58
Mof_O 	O 	0.43727	0.40562	0.93167	-0.467
Mof_C 	C 	0.44432	0.45492	0.42297	0.199
Mof_C 	C 	0.4594	0.45347	0.62057	-0.178
Mof_C 	C 	0.51448	0.49834	0.69277	-0.099
Mof_H 	H 	0.52403	0.49677	0.82547	0.077
Mof_C 	C 	0.42014	0.40519	0.75957	0.415
Mof_Co	Co	0.31395	0.36295	0.47662	1.162
Mof_O 	O 	0.25222	0.3112	0.6722	-0.53
Mof_O 	O 	0.30246	0.33971	0.0293	-0.58
Mof_O 	O 	0.26105	0.36499	0.265	-0.467
Mof_C 	C 	0.21175	0.32274	0.7563	0.2
Mof_C 	C 	0.2132	0.33927	0.9539	-0.179
Mof_C 	C 	0.16833	0.34948	0.0261	-0.099
Mof_H 	H 	0.1699	0.3606	0.1588	0.077
Mof_C 	C 	0.26148	0.34829	0.0929	0.416
Mof_Co	Co	0.98062	0.69628	0.80995	1.162
Mof_O 	O 	0.91889	0.64453	0.00553	-0.53
Mof_O 	O 	0.96913	0.67304	0.36263	-0.58
Mof_O 	O 	0.92772	0.69832	0.59833	-0.467
Mof_C 	C 	0.87842	0.65607	0.08963	0.199
Mof_C 	C 	0.87987	0.6726	0.28723	-0.178
Mof_C 	C 	0.835	0.68281	0.35943	-0.1
Mof_H 	H 	0.83657	0.69393	0.49213	0.077
Mof_C 	C 	0.92815	0.68162	0.42623	0.415
Mof_Co	Co	0.64728	0.02962	0.14329	1.162
Mof_O 	O 	0.58555	0.97787	0.33887	-0.53
Mof_O 	O 	0.63579	0.00638	0.69597	-0.579
Mof_O 	O 	0.59438	0.03166	0.93167	-0.467
Mof_C 	C 	0.54508	0.98941	0.42297	0.199
Mof_C 	C 	0.54653	0.00594	0.62057	-0.178
Mof_C 	C 	0.50166	0.01615	0.69277	-0.099
Mof_H 	H 	0.50323	0.02727	0.82547	0.077
Mof_C 	C 	0.59481	0.01496	0.75957	0.415
_end
