data_functionalizedCrystal
_audit_creation_method	'EQeq! by Chris Wilmer'
_symmetry_space_group_name_H-M	'P1'
_symmetry_Int_Tables_number	1
_symmetry_cell_setting	triclinic
loop_
_symmetry_equiv_pos_as_xyz
  x,y,z
_cell_length_a	25.8561
_cell_length_b	25.8561
_cell_length_c	6.7119
_cell_angle_alpha	90
_cell_angle_beta	90
_cell_angle_gamma	120
loop_
_atom_site_label
_atom_site_type_symbol
_atom_site_fract_x
_atom_site_fract_y
_atom_site_fract_z
_atom_site_charge
Mof_Ni	Ni	0.38377	0.34887	0.14453	1.104
Mof_C 	C 	0.32325	0.20445	0.28777	-0.19
Mof_C 	C 	0.33607	0.21763	0.08652	0.205
Mof_C 	C 	0.34615	0.17985	0.96542	-0.074
Mof_H 	H 	0.3561	0.19009	0.80911	0.059
Mof_C 	C 	0.31241	0.24508	0.41801	0.416
Mof_O 	O 	0.31488	0.29103	0.3458	-0.525
Mof_O 	O 	0.30086	0.2332	0.59946	-0.467
Mof_O 	O 	0.33872	0.26699	0.0089	-0.533
Mof_Ni	Ni	0.05044	0.6822	0.47786	1.105
Mof_C 	C 	0.98992	0.53778	0.6211	-0.19
Mof_C 	C 	0.00274	0.55096	0.41985	0.206
Mof_C 	C 	0.01282	0.51318	0.29875	-0.074
Mof_H 	H 	0.02277	0.52342	0.14244	0.061
Mof_C 	C 	0.97908	0.57841	0.75134	0.417
Mof_O 	O 	0.98155	0.62436	0.67913	-0.525
Mof_O 	O 	0.96753	0.56653	0.93279	-0.467
Mof_O 	O 	0.00539	0.60032	0.34223	-0.533
Mof_Ni	Ni	0.7171	0.01554	0.8112	1.105
Mof_C 	C 	0.65658	0.87112	0.95444	-0.191
Mof_C 	C 	0.6694	0.8843	0.75319	0.207
Mof_C 	C 	0.67948	0.84652	0.63209	-0.075
Mof_H 	H 	0.68943	0.85676	0.47578	0.061
Mof_C 	C 	0.64574	0.91175	0.08468	0.418
Mof_O 	O 	0.64821	0.9577	0.01247	-0.525
Mof_O 	O 	0.63419	0.89987	0.26613	-0.467
Mof_O 	O 	0.67205	0.93366	0.67557	-0.533
Mof_Ni	Ni	0.65113	0.0349	0.14453	1.104
Mof_C 	C 	0.79555	0.1188	0.28777	-0.189
Mof_C 	C 	0.78237	0.11844	0.08652	0.205
Mof_C 	C 	0.82015	0.1663	0.96542	-0.072
Mof_H 	H 	0.80991	0.16601	0.80911	0.06
Mof_C 	C 	0.75492	0.06733	0.41801	0.417
Mof_O 	O 	0.70897	0.02385	0.3458	-0.525
Mof_O 	O 	0.7668	0.06766	0.59946	-0.467
Mof_O 	O 	0.73301	0.07173	0.0089	-0.533
Mof_Ni	Ni	0.3178	0.36823	0.47786	1.105
Mof_C 	C 	0.46222	0.45213	0.6211	-0.19
Mof_C 	C 	0.44904	0.45177	0.41985	0.206
Mof_C 	C 	0.48682	0.49963	0.29875	-0.074
Mof_H 	H 	0.47658	0.49934	0.14244	0.06
Mof_C 	C 	0.42159	0.40066	0.75134	0.417
Mof_O 	O 	0.37564	0.35718	0.67913	-0.525
Mof_O 	O 	0.43347	0.40099	0.93279	-0.467
Mof_O 	O 	0.39968	0.40506	0.34223	-0.533
Mof_Ni	Ni	0.98446	0.70157	0.8112	1.105
Mof_C 	C 	0.12888	0.78547	0.95444	-0.191
Mof_C 	C 	0.1157	0.78511	0.75319	0.207
Mof_C 	C 	0.15348	0.83297	0.63209	-0.075
Mof_H 	H 	0.14324	0.83268	0.47578	0.061
Mof_C 	C 	0.08825	0.734	0.08468	0.418
Mof_O 	O 	0.0423	0.69052	0.01247	-0.525
Mof_O 	O 	0.10013	0.73433	0.26613	-0.467
Mof_O 	O 	0.06634	0.7384	0.67557	-0.533
Mof_Ni	Ni	0.9651	0.61623	0.14453	1.104
Mof_C 	C 	0.8812	0.67675	0.28777	-0.189
Mof_C 	C 	0.88156	0.66393	0.08652	0.206
Mof_C 	C 	0.8337	0.65385	0.96542	-0.073
Mof_H 	H 	0.83399	0.6439	0.80911	0.06
Mof_C 	C 	0.93267	0.68759	0.41801	0.417
Mof_O 	O 	0.97615	0.68512	0.3458	-0.525
Mof_O 	O 	0.93234	0.69914	0.59946	-0.467
Mof_O 	O 	0.92827	0.66128	0.0089	-0.533
Mof_Ni	Ni	0.63177	0.94956	0.47786	1.105
Mof_C 	C 	0.54787	0.01008	0.6211	-0.189
Mof_C 	C 	0.54823	0.99726	0.41985	0.206
Mof_C 	C 	0.50037	0.98718	0.29875	-0.074
Mof_H 	H 	0.50066	0.97723	0.14244	0.061
Mof_C 	C 	0.59934	0.02092	0.75134	0.417
Mof_O 	O 	0.64282	0.01845	0.67913	-0.525
Mof_O 	O 	0.59901	0.03247	0.93279	-0.467
Mof_O 	O 	0.59494	0.99461	0.34223	-0.533
Mof_Ni	Ni	0.29843	0.2829	0.8112	1.105
Mof_C 	C 	0.21453	0.34342	0.95444	-0.19
Mof_C 	C 	0.21489	0.3306	0.75319	0.207
Mof_C 	C 	0.16703	0.32052	0.63209	-0.074
Mof_H 	H 	0.16732	0.31057	0.47578	0.061
Mof_C 	C 	0.266	0.35426	0.08468	0.418
Mof_O 	O 	0.30948	0.35179	0.01247	-0.525
Mof_O 	O 	0.26567	0.36581	0.26613	-0.467
Mof_O 	O 	0.2616	0.32795	0.67557	-0.533
Mof_Ni	Ni	0.61623	0.65113	0.85547	1.105
Mof_C 	C 	0.67675	0.79555	0.71223	-0.189
Mof_C 	C 	0.66393	0.78237	0.91348	0.206
Mof_C 	C 	0.65385	0.82015	0.03458	-0.073
Mof_H 	H 	0.6439	0.80991	0.19089	0.06
Mof_C 	C 	0.68759	0.75492	0.58199	0.417
Mof_O 	O 	0.68512	0.70897	0.6542	-0.525
Mof_O 	O 	0.69914	0.7668	0.40054	-0.467
Mof_O 	O 	0.66128	0.73301	0.9911	-0.533
Mof_Ni	Ni	0.2829	0.98446	0.1888	1.105
Mof_C 	C 	0.34342	0.12888	0.04556	-0.191
Mof_C 	C 	0.3306	0.1157	0.24681	0.207
Mof_C 	C 	0.32052	0.15348	0.36791	-0.075
Mof_H 	H 	0.31057	0.14324	0.52422	0.061
Mof_C 	C 	0.35426	0.08825	0.91532	0.418
Mof_O 	O 	0.35179	0.0423	0.98753	-0.525
Mof_O 	O 	0.36581	0.10013	0.73387	-0.467
Mof_O 	O 	0.32795	0.06634	0.32443	-0.533
Mof_Ni	Ni	0.94956	0.3178	0.52214	1.105
Mof_C 	C 	0.01008	0.46222	0.3789	-0.19
Mof_C 	C 	0.99726	0.44904	0.58015	0.206
Mof_C 	C 	0.98718	0.48682	0.70125	-0.074
Mof_H 	H 	0.97723	0.47658	0.85756	0.061
Mof_C 	C 	0.02092	0.42159	0.24866	0.417
Mof_O 	O 	0.01845	0.37564	0.32087	-0.525
Mof_O 	O 	0.03247	0.43347	0.06721	-0.467
Mof_O 	O 	0.99461	0.39968	0.65777	-0.533
Mof_Ni	Ni	0.34887	0.9651	0.85547	1.104
Mof_C 	C 	0.20445	0.8812	0.71223	-0.189
Mof_C 	C 	0.21763	0.88156	0.91348	0.205
Mof_C 	C 	0.17985	0.8337	0.03458	-0.072
Mof_H 	H 	0.19009	0.83399	0.19089	0.06
Mof_C 	C 	0.24508	0.93267	0.58199	0.417
Mof_O 	O 	0.29103	0.97615	0.6542	-0.525
Mof_O 	O 	0.2332	0.93234	0.40054	-0.467
Mof_O 	O 	0.26699	0.92827	0.9911	-0.533
Mof_Ni	Ni	0.01554	0.29843	0.1888	1.105
Mof_C 	C 	0.87112	0.21453	0.04556	-0.191
Mof_C 	C 	0.8843	0.21489	0.24681	0.207
Mof_C 	C 	0.84652	0.16703	0.36791	-0.075
Mof_H 	H 	0.85676	0.16732	0.52422	0.061
Mof_C 	C 	0.91175	0.266	0.91532	0.418
Mof_O 	O 	0.9577	0.30948	0.98753	-0.525
Mof_O 	O 	0.89987	0.26567	0.73387	-0.467
Mof_O 	O 	0.93366	0.2616	0.32443	-0.533
Mof_Ni	Ni	0.6822	0.63177	0.52214	1.105
Mof_C 	C 	0.53778	0.54787	0.3789	-0.19
Mof_C 	C 	0.55096	0.54823	0.58015	0.206
Mof_C 	C 	0.51318	0.50037	0.70125	-0.074
Mof_H 	H 	0.52342	0.50066	0.85756	0.06
Mof_C 	C 	0.57841	0.59934	0.24866	0.417
Mof_O 	O 	0.62436	0.64282	0.32087	-0.525
Mof_O 	O 	0.56653	0.59901	0.06721	-0.467
Mof_O 	O 	0.60032	0.59494	0.65777	-0.533
Mof_Ni	Ni	0.0349	0.38377	0.85547	1.104
Mof_C 	C 	0.1188	0.32325	0.71223	-0.189
Mof_C 	C 	0.11844	0.33607	0.91348	0.206
Mof_C 	C 	0.1663	0.34615	0.03458	-0.073
Mof_H 	H 	0.16601	0.3561	0.19089	0.06
Mof_C 	C 	0.06733	0.31241	0.58199	0.417
Mof_O 	O 	0.02385	0.31488	0.6542	-0.525
Mof_O 	O 	0.06766	0.30086	0.40054	-0.467
Mof_O 	O 	0.07173	0.33872	0.9911	-0.533
Mof_Ni	Ni	0.70157	0.7171	0.1888	1.105
Mof_C 	C 	0.78547	0.65658	0.04556	-0.19
Mof_C 	C 	0.78511	0.6694	0.24681	0.207
Mof_C 	C 	0.83297	0.67948	0.36791	-0.074
Mof_H 	H 	0.83268	0.68943	0.52422	0.061
Mof_C 	C 	0.734	0.64574	0.91532	0.418
Mof_O 	O 	0.69052	0.64821	0.98753	-0.525
Mof_O 	O 	0.73433	0.63419	0.73387	-0.467
Mof_O 	O 	0.7384	0.67205	0.32443	-0.533
Mof_Ni	Ni	0.36823	0.05044	0.52214	1.105
Mof_C 	C 	0.45213	0.98992	0.3789	-0.189
Mof_C 	C 	0.45177	0.00274	0.58015	0.206
Mof_C 	C 	0.49963	0.01282	0.70125	-0.074
Mof_H 	H 	0.49934	0.02277	0.85756	0.061
Mof_C 	C 	0.40066	0.97908	0.24866	0.417
Mof_O 	O 	0.35718	0.98155	0.32087	-0.525
Mof_O 	O 	0.40099	0.96753	0.06721	-0.467
Mof_O 	O 	0.40506	0.00539	0.65777	-0.533
_end
