# CIF file generated by openbabel 3.1.0, see https://openbabel.org
data_I
_chemical_name_common 'image0'
_cell_length_a 13.0721
_cell_length_b 13.0721
_cell_length_c 11.1466
_cell_angle_alpha 90
_cell_angle_beta 90
_cell_angle_gamma 90
_space_group_name_H-M_alt 'P 1'
_space_group_name_Hall 'P 1'
loop_
    _symmetry_equiv_pos_as_xyz
    x,y,z
loop_
    _atom_site_label
    _atom_site_type_symbol
    _atom_site_fract_x
    _atom_site_fract_y
    _atom_site_fract_z
    _atom_site_occupancy
    Mn1      Mn       0.75823    0.48857    0.31134    1.000
    Mn2      Mn       0.75183    0.71964    0.15987    1.000
    O1       O        0.64330    0.59450    0.34860    1.000
    O2       O        0.59100    0.72980    0.24030    1.000
    O3       O        0.37100    0.36510    0.51450    1.000
    O4       O        0.25610    0.44490    0.62620    1.000
    O5       O        0.86800    0.25680    0.34410    1.000
    O6       O        0.87730    0.39860    0.23590    1.000
    O7       O        0.16850    0.25530    0.81570    1.000
    O8       O        0.12830    0.40860    0.88590    1.000
    C1       C        0.57520    0.66060    0.31860    1.000
    C2       C        0.32670    0.44630    0.54600    1.000
    C3       C        0.90260    0.30910    0.25990    1.000
    C4       C        0.13170    0.31340    0.89250    1.000
    C5       C        0.35360    0.54670    0.48880    1.000
    C6       C        0.44560    0.55680    0.43040    1.000
    H1       H        0.48890    0.50070    0.42300    1.000
    C7       C        0.47420    0.65230    0.38170    1.000
    C8       C        0.41060    0.73500    0.39420    1.000
    H2       H        0.42950    0.79800    0.36230    1.000
    C9       C        0.31820    0.72520    0.45430    1.000
    H3       H        0.27590    0.78190    0.46310    1.000
    C10      C        0.28800    0.63150    0.50150    1.000
    H4       H        0.22370    0.62460    0.54240    1.000
    C11      C        0.98010    0.26010    0.17890    1.000
    C12      C        0.01800    0.31070    0.07850    1.000
    H5       H        0.99730    0.37740    0.06220    1.000
    C13      C        0.08640    0.26210    0.00280    1.000
    C14      C        0.11900    0.16290    0.02680    1.000
    H6       H        0.16390    0.12950    0.97530    1.000
    C15      C        0.08330    0.11550    0.12860    1.000
    H7       H        0.10890    0.05140    0.14870    1.000
    C16      C        0.01060    0.15980    0.20210    1.000
    H8       H        0.98260    0.12350    0.26590    1.000
    Mn3      Mn       0.24177    0.51143    0.81134    1.000
    Mn4      Mn       0.24817    0.28036    0.65987    1.000
    O9       O        0.35670    0.40550    0.84860    1.000
    O10      O        0.40900    0.27020    0.74030    1.000
    O11      O        0.62900    0.63490    0.01450    1.000
    O12      O        0.74390    0.55510    0.12620    1.000
    O13      O        0.13200    0.74320    0.84410    1.000
    O14      O        0.12270    0.60140    0.73590    1.000
    O15      O        0.83150    0.74470    0.31570    1.000
    O16      O        0.87170    0.59140    0.38590    1.000
    C17      C        0.42480    0.33940    0.81860    1.000
    C18      C        0.67330    0.55370    0.04600    1.000
    C19      C        0.09740    0.69090    0.75990    1.000
    C20      C        0.86830    0.68660    0.39250    1.000
    C21      C        0.64640    0.45330    0.98880    1.000
    C22      C        0.55440    0.44320    0.93040    1.000
    H9       H        0.51110    0.49930    0.92300    1.000
    C23      C        0.52580    0.34770    0.88170    1.000
    C24      C        0.58940    0.26500    0.89420    1.000
    H10      H        0.57050    0.20200    0.86230    1.000
    C25      C        0.68180    0.27480    0.95430    1.000
    H11      H        0.72410    0.21810    0.96310    1.000
    C26      C        0.71200    0.36850    0.00150    1.000
    H12      H        0.77630    0.37540    0.04240    1.000
    C27      C        0.01990    0.73990    0.67890    1.000
    C28      C        0.98200    0.68930    0.57850    1.000
    H13      H        0.00270    0.62260    0.56220    1.000
    C29      C        0.91360    0.73790    0.50280    1.000
    C30      C        0.88100    0.83710    0.52680    1.000
    H14      H        0.83610    0.87050    0.47530    1.000
    C31      C        0.91670    0.88450    0.62860    1.000
    H15      H        0.89110    0.94860    0.64870    1.000
    C32      C        0.98940    0.84020    0.70210    1.000
    H16      H        0.01740    0.87650    0.76590    1.000
    Mn5      Mn       0.51143    0.75823    0.06134    1.000
    Mn6      Mn       0.28036    0.75183    0.90987    1.000
    O17      O        0.40550    0.64330    0.09860    1.000
    O18      O        0.27020    0.59100    0.99030    1.000
    O19      O        0.63490    0.37100    0.26450    1.000
    O20      O        0.55510    0.25610    0.37620    1.000
    O21      O        0.74320    0.86800    0.09410    1.000
    O22      O        0.60140    0.87730    0.98590    1.000
    O23      O        0.74470    0.16850    0.56570    1.000
    O24      O        0.59140    0.12830    0.63590    1.000
    C33      C        0.33940    0.57520    0.06860    1.000
    C34      C        0.55370    0.32670    0.29600    1.000
    C35      C        0.69090    0.90260    0.00990    1.000
    C36      C        0.68660    0.13170    0.64250    1.000
    C37      C        0.45330    0.35360    0.23880    1.000
    C38      C        0.44320    0.44560    0.18040    1.000
    H17      H        0.49930    0.48890    0.17300    1.000
    C39      C        0.34770    0.47420    0.13170    1.000
    C40      C        0.26500    0.41060    0.14420    1.000
    H18      H        0.20200    0.42950    0.11230    1.000
    C41      C        0.27480    0.31820    0.20430    1.000
    H19      H        0.21810    0.27590    0.21310    1.000
    C42      C        0.36850    0.28800    0.25150    1.000
    H20      H        0.37540    0.22370    0.29240    1.000
    C43      C        0.73990    0.98010    0.92890    1.000
    C44      C        0.68930    0.01800    0.82850    1.000
    H21      H        0.62260    0.99730    0.81220    1.000
    C45      C        0.73790    0.08640    0.75280    1.000
    C46      C        0.83710    0.11900    0.77680    1.000
    H22      H        0.87050    0.16390    0.72530    1.000
    C47      C        0.88450    0.08330    0.87860    1.000
    H23      H        0.94860    0.10890    0.89870    1.000
    C48      C        0.84020    0.01060    0.95210    1.000
    H24      H        0.87650    0.98260    0.01590    1.000
    Mn7      Mn       0.48857    0.24177    0.56134    1.000
    Mn8      Mn       0.71964    0.24817    0.40987    1.000
    O25      O        0.59450    0.35670    0.59860    1.000
    O26      O        0.72980    0.40900    0.49030    1.000
    O27      O        0.36510    0.62900    0.76450    1.000
    O28      O        0.44490    0.74390    0.87620    1.000
    O29      O        0.25680    0.13200    0.59410    1.000
    O30      O        0.39860    0.12270    0.48590    1.000
    O31      O        0.25530    0.83150    0.06570    1.000
    O32      O        0.40860    0.87170    0.13590    1.000
    C49      C        0.66060    0.42480    0.56860    1.000
    C50      C        0.44630    0.67330    0.79600    1.000
    C51      C        0.30910    0.09740    0.50990    1.000
    C52      C        0.31340    0.86830    0.14250    1.000
    C53      C        0.54670    0.64640    0.73880    1.000
    C54      C        0.55680    0.55440    0.68040    1.000
    H25      H        0.50070    0.51110    0.67300    1.000
    C55      C        0.65230    0.52580    0.63170    1.000
    C56      C        0.73500    0.58940    0.64420    1.000
    H26      H        0.79800    0.57050    0.61230    1.000
    C57      C        0.72520    0.68180    0.70430    1.000
    H27      H        0.78190    0.72410    0.71310    1.000
    C58      C        0.63150    0.71200    0.75150    1.000
    H28      H        0.62460    0.77630    0.79240    1.000
    C59      C        0.26010    0.01990    0.42890    1.000
    C60      C        0.31070    0.98200    0.32850    1.000
    H29      H        0.37740    0.00270    0.31220    1.000
    C61      C        0.26210    0.91360    0.25280    1.000
    C62      C        0.16290    0.88100    0.27680    1.000
    H30      H        0.12950    0.83610    0.22530    1.000
    C63      C        0.11550    0.91670    0.37860    1.000
    H31      H        0.05140    0.89110    0.39870    1.000
    C64      C        0.15980    0.98940    0.45210    1.000
    H32      H        0.12350    0.01740    0.51590    1.000
