data_functionalizedCrystal
_audit_creation_method	'EQeq! by Chris Wilmer'
_symmetry_space_group_name_H-M	'P1'
_symmetry_Int_Tables_number	1
_symmetry_cell_setting	triclinic
loop_
_symmetry_equiv_pos_as_xyz
  x,y,z
_cell_length_a	10.4477
_cell_length_b	11.4945
_cell_length_c	12.9583
_cell_angle_alpha	106.639
_cell_angle_beta	90.322
_cell_angle_gamma	93.194
loop_
_atom_site_label
_atom_site_type_symbol
_atom_site_fract_x
_atom_site_fract_y
_atom_site_fract_z
_atom_site_charge
Mof_Pr	Pr	0.47424	0.45386	0.33549	2.237
Mof_C 	C 	0.4934	0.2316	0.1659	0.327
Mof_C 	C 	0.5125	0.748	0.5046	0.508
Mof_C 	C 	0.2642	0.489	0.5666	0.426
Mof_C 	C 	0.4982	0.1133	0.0821	-0.102
Mof_C 	C 	0.5069	0.8798	0.5048	-0.166
Mof_C 	C 	0.1287	0.4932	0.5319	-0.158
Mof_C 	C 	0.4474	0.0053	0.1012	0.043
Mof_C 	C 	0.3913	0.9362	0.5263	0.048
Mof_C 	C 	0.0754	0.4042	0.4428	0.028
Mof_C 	C 	0.3963	0.0036	0.2044	-0.074
Mof_H 	H 	0.3973	0.0757	0.26	0.071
Mof_C 	C 	0.2776	0.876	0.5509	-0.074
Mof_H 	H 	0.2797	0.7961	0.5536	0.049
Mof_C 	C 	0.1468	0.3064	0.3834	-0.081
Mof_H 	H 	0.2311	0.3016	0.4046	0.026
Mof_C 	C 	0.3473	0.9003	0.2219	-0.034
Mof_H 	H 	0.3147	0.9025	0.289	0.04
Mof_C 	C 	0.1676	0.9325	0.5702	-0.041
Mof_H 	H 	0.0942	0.8911	0.585	0.045
Mof_C 	C 	0.095	0.2197	0.2963	-0.045
Mof_H 	H 	0.1439	0.1569	0.2582	0.045
Mof_C 	C 	0.3449	0.7885	0.1395	-0.03
Mof_H 	H 	0.311	0.7179	0.153	0.007
Mof_C 	C 	0.1619	0.0553	0.5682	-0.019
Mof_H 	H 	0.086	0.0946	0.5846	0.034
Mof_C 	C 	0.9647	0.2251	0.2633	-0.025
Mof_H 	H 	0.9293	0.1656	0.2039	0.041
Mof_C 	C 	0.3921	0.7836	0.04	-0.077
Mof_H 	H 	0.389	0.7097	0.9864	0.038
Mof_C 	C 	0.266	0.1148	0.5427	-0.093
Mof_H 	H 	0.26	0.1941	0.5394	0.062
Mof_C 	C 	0.8931	0.316	0.3179	-0.093
Mof_H 	H 	0.8087	0.3177	0.2956	0.073
Mof_C 	C 	0.4467	0.8916	0.0172	0.037
Mof_C 	C 	0.3854	0.059	0.5205	0.059
Mof_C 	C 	0.9443	0.41	0.4096	0.047
Mof_O 	O 	0.3854	0.2775	0.1846	-0.487
Mof_O 	O 	0.4897	0.6716	0.4144	-0.584
Mof_O 	O 	0.3546	0.5099	0.5077	-0.651
Mof_O 	O 	0.5951	0.2838	0.2138	-0.452
Mof_O 	O 	0.5388	0.7261	0.5904	-0.529
Mof_O 	O 	0.2847	0.4743	0.656	-0.476
Mof_Pr	Pr	0.52576	0.54614	0.66451	2.237
Mof_C 	C 	0.5066	0.7684	0.8341	0.327
Mof_C 	C 	0.4875	0.252	0.4954	0.508
Mof_C 	C 	0.7358	0.511	0.4334	0.426
Mof_C 	C 	0.5018	0.8867	0.9179	-0.102
Mof_C 	C 	0.4931	0.1202	0.4952	-0.166
Mof_C 	C 	0.8713	0.5068	0.4681	-0.158
Mof_C 	C 	0.5526	0.9947	0.8988	0.043
Mof_C 	C 	0.6087	0.0638	0.4737	0.048
Mof_C 	C 	0.9246	0.5958	0.5572	0.028
Mof_C 	C 	0.6037	0.9964	0.7956	-0.074
Mof_H 	H 	0.6027	0.9243	0.74	0.071
Mof_C 	C 	0.7224	0.124	0.4491	-0.074
Mof_H 	H 	0.7203	0.2039	0.4464	0.049
Mof_C 	C 	0.8532	0.6936	0.6166	-0.081
Mof_H 	H 	0.7689	0.6984	0.5954	0.026
Mof_C 	C 	0.6527	0.0997	0.7781	-0.034
Mof_H 	H 	0.6853	0.0975	0.711	0.04
Mof_C 	C 	0.8324	0.0675	0.4298	-0.041
Mof_H 	H 	0.9058	0.1089	0.415	0.045
Mof_C 	C 	0.905	0.7803	0.7037	-0.045
Mof_H 	H 	0.8561	0.8431	0.7418	0.045
Mof_C 	C 	0.6551	0.2115	0.8605	-0.03
Mof_H 	H 	0.689	0.2821	0.847	0.007
Mof_C 	C 	0.8381	0.9447	0.4318	-0.019
Mof_H 	H 	0.914	0.9054	0.4154	0.034
Mof_C 	C 	0.0353	0.7749	0.7367	-0.025
Mof_H 	H 	0.0707	0.8344	0.7961	0.041
Mof_C 	C 	0.6079	0.2164	0.96	-0.077
Mof_H 	H 	0.611	0.2903	0.0136	0.038
Mof_C 	C 	0.734	0.8852	0.4573	-0.093
Mof_H 	H 	0.74	0.8059	0.4606	0.062
Mof_C 	C 	0.1069	0.684	0.6821	-0.093
Mof_H 	H 	0.1913	0.6823	0.7044	0.073
Mof_C 	C 	0.5533	0.1084	0.9828	0.037
Mof_C 	C 	0.6146	0.941	0.4795	0.059
Mof_C 	C 	0.0557	0.59	0.5904	0.047
Mof_O 	O 	0.6146	0.7225	0.8154	-0.487
Mof_O 	O 	0.5103	0.3284	0.5856	-0.584
Mof_O 	O 	0.6454	0.4901	0.4923	-0.651
Mof_O 	O 	0.4049	0.7162	0.7862	-0.452
Mof_O 	O 	0.4612	0.2739	0.4096	-0.529
Mof_O 	O 	0.7153	0.5257	0.344	-0.476
_end
