data_functionalizedCrystal
_audit_creation_method	'EQeq! by Chris Wilmer'
_symmetry_space_group_name_H-M	'P1'
_symmetry_Int_Tables_number	1
_symmetry_cell_setting	triclinic
loop_
_symmetry_equiv_pos_as_xyz
  x,y,z
_cell_length_a	10.5085
_cell_length_b	10.5085
_cell_length_c	10.8772
_cell_angle_alpha	101.173
_cell_angle_beta	117.53
_cell_angle_gamma	108.723
loop_
_atom_site_label
_atom_site_type_symbol
_atom_site_fract_x
_atom_site_fract_y
_atom_site_fract_z
_atom_site_charge
Mof_Eu	Eu	0.25506	0.06835	0.62039	2.158
Mof_Eu	Eu	0.94796	0.63467	0.87961	2.109
Mof_Eu	Eu	0.74494	0.93165	0.37961	2.158
Mof_Eu	Eu	0.05204	0.36533	0.12039	2.109
Mof_H 	H 	0.3623	0.7483	0.852	0.258
Mof_H 	H 	0.298	0.7221	0.6835	0.26
Mof_H 	H 	0.8926	0.5507	0.2831	0.237
Mof_H 	H 	0.3963	0.5103	0.648	0.257
Mof_H 	H 	0.5386	0.6145	0.8165	0.258
Mof_H 	H 	0.7676	0.6095	0.2169	0.236
Mof_H 	H 	0.6377	0.2517	0.148	0.258
Mof_H 	H 	0.702	0.2779	0.3165	0.26
Mof_H 	H 	0.1074	0.4493	0.7169	0.237
Mof_H 	H 	0.6037	0.4897	0.352	0.257
Mof_H 	H 	0.4614	0.3855	0.1835	0.258
Mof_H 	H 	0.2324	0.3905	0.7831	0.236
Mof_C 	C 	0.4799	0.9281	0.831	0.633
Mof_C 	C 	0.3308	0.7914	0.7788	-0.859
Mof_C 	C 	0.1845	0.8035	0.7562	0.743
Mof_C 	C 	0.0008	0.7759	0.3749	0.612
Mof_C 	C 	0.5971	0.6489	0.669	0.628
Mof_C 	C 	0.5126	0.552	0.7212	-0.859
Mof_C 	C 	0.5473	0.4283	0.7438	0.744
Mof_C 	C 	0.901	0.6259	0.1251	0.614
Mof_C 	C 	0.5201	0.0719	0.169	0.633
Mof_C 	C 	0.6692	0.2086	0.2212	-0.859
Mof_C 	C 	0.8155	0.1965	0.2438	0.743
Mof_C 	C 	0.9992	0.2241	0.6251	0.612
Mof_C 	C 	0.4029	0.3511	0.331	0.628
Mof_C 	C 	0.4874	0.448	0.2788	-0.859
Mof_C 	C 	0.4527	0.5717	0.2562	0.744
Mof_C 	C 	0.099	0.3741	0.8749	0.614
Mof_C 	C 	0.8756	0.6256	0.25	-0.794
Mof_C 	C 	0.1244	0.3744	0.75	-0.794
Mof_O 	O 	0.4653	0.0212	0.7747	-0.621
Mof_O 	O 	0.1487	0.8939	0.7072	-0.613
Mof_O 	O 	0.0986	0.7164	0.7836	-0.686
Mof_O 	O 	0.616	0.9442	0.9278	-0.418
Mof_O 	O 	0.1483	0.8096	0.4417	-0.569
Mof_O 	O 	0.9575	0.869	0.4079	-0.72
Mof_O 	O 	0.7465	0.6906	0.7253	-0.616
Mof_O 	O 	0.6867	0.4415	0.7928	-0.62
Mof_O 	O 	0.4328	0.315	0.7164	-0.702
Mof_O 	O 	0.5164	0.6882	0.5722	-0.414
Mof_O 	O 	0.8679	0.7066	0.0583	-0.555
Mof_O 	O 	0.9611	0.5496	0.0921	-0.701
Mof_O 	O 	0.5347	0.9788	0.2253	-0.621
Mof_O 	O 	0.8513	0.1061	0.2928	-0.613
Mof_O 	O 	0.9014	0.2836	0.2164	-0.686
Mof_O 	O 	0.384	0.0558	0.0722	-0.418
Mof_O 	O 	0.8517	0.1904	0.5583	-0.569
Mof_O 	O 	0.0425	0.131	0.5921	-0.72
Mof_O 	O 	0.2535	0.3094	0.2747	-0.616
Mof_O 	O 	0.3133	0.5585	0.2072	-0.62
Mof_O 	O 	0.5672	0.685	0.2836	-0.702
Mof_O 	O 	0.4836	0.3118	0.4278	-0.414
Mof_O 	O 	0.1321	0.2934	0.9417	-0.555
Mof_O 	O 	0.0389	0.4504	0.9079	-0.701
_end
