# CIF file generated by openbabel 3.1.0, see https://openbabel.org
data_I
_chemical_name_common 'image0'
_cell_length_a 10.312
_cell_length_b 13.919
_cell_length_c 14.174
_cell_angle_alpha 88.35
_cell_angle_beta 69.287
_cell_angle_gamma 74.727
_space_group_name_H-M_alt 'P 1'
_space_group_name_Hall 'P 1'
loop_
    _symmetry_equiv_pos_as_xyz
    x,y,z
loop_
    _atom_site_label
    _atom_site_type_symbol
    _atom_site_fract_x
    _atom_site_fract_y
    _atom_site_fract_z
    _atom_site_occupancy
    O1       O        0.55410    0.57330    0.75440    1.000
    Cd1      Cd       0.56096    0.44682    0.36614    1.000
    N1       N        0.56480    0.29650    0.43820    1.000
    N2       N        0.64670    0.17520    0.52500    1.000
    N3       N        0.77520    0.35380    0.24200    1.000
    N4       N        0.92250    0.26570    0.09710    1.000
    O2       O        0.34750    0.50420    0.52270    1.000
    O3       O        0.28220    0.42430    0.66060    1.000
    O4       O        0.58220    0.42640    0.69130    1.000
    C1       C        0.27890    0.44550    0.57660    1.000
    C2       C        0.19260    0.40250    0.53050    1.000
    H1       H        0.14110    0.45570    0.50070    1.000
    H2       H        0.25910    0.35340    0.47610    1.000
    C3       C        0.08550    0.35400    0.60240    1.000
    C4       C        0.11710    0.25150    0.60860    1.000
    H3       H        0.20560    0.21130    0.56670    1.000
    C5       C        0.01960    0.20840    0.67560    1.000
    H4       H        0.04340    0.13950    0.67890    1.000
    C6       C        0.88770    0.26540    0.73790    1.000
    H5       H        0.82200    0.23500    0.78210    1.000
    C7       C        0.85220    0.36900    0.73470    1.000
    C8       C        0.95220    0.41060    0.66650    1.000
    H6       H        0.92910    0.47960    0.66350    1.000
    C9       C        0.70790    0.43450    0.80060    1.000
    H7       H        0.66010    0.39500    0.85190    1.000
    H8       H        0.72330    0.48740    0.83490    1.000
    C10      C        0.60980    0.48090    0.74480    1.000
    C11      C        0.61040    0.27420    0.51380    1.000
    H9       H        0.61700    0.32180    0.55530    1.000
    C12      C        0.57070    0.20500    0.39630    1.000
    C13      C        0.53540    0.18270    0.31480    1.000
    H10      H        0.49880    0.23280    0.27880    1.000
    C14      C        0.55690    0.08350    0.28970    1.000
    H11      H        0.53310    0.06640    0.23620    1.000
    C15      C        0.61310    0.00820    0.34200    1.000
    H12      H        0.62790    0.94210    0.32150    1.000
    C16      C        0.64740    0.02840    0.42290    1.000
    H13      H        0.68440    0.97780    0.45830    1.000
    C17      C        0.62380    0.12890    0.44940    1.000
    C18      C        0.70890    0.12700    0.59790    1.000
    H14      H        0.64890    0.08670    0.63860    1.000
    H15      H        0.71030    0.17770    0.64270    1.000
    C19      C        0.95500    0.08760    0.46100    1.000
    H16      H        0.92540    0.14670    0.43280    1.000
    C20      C        0.86080    0.06120    0.54640    1.000
    C21      C        0.90580    0.97300    0.58380    1.000
    H17      H        0.84220    0.95280    0.64040    1.000
    C22      C        0.78800    0.32200    0.15210    1.000
    H18      H        0.71220    0.33660    0.12820    1.000
    C23      C        0.91220    0.31580    0.24690    1.000
    C24      C        0.96300    0.32540    0.32430    1.000
    H19      H        0.90240    0.36060    0.38560    1.000
    C25      C        0.10610    0.28070    0.30620    1.000
    H20      H        0.14320    0.28710    0.35600    1.000
    C26      C        0.19740    0.22570    0.21510    1.000
    H21      H        0.29350    0.19630    0.20590    1.000
    C27      C        0.14800    0.21420    0.13900    1.000
    H22      H        0.20790    0.17710    0.07860    1.000
    C28      C        0.00490    0.26050    0.15690    1.000
    C29      C        0.96920    0.21460    0.99700    1.000
    H23      H        0.06090    0.22530    0.95510    1.000
    H24      H        0.89960    0.24370    0.96540    1.000
    C30      C        0.92130    0.05930    0.08790    1.000
    H25      H        0.86940    0.09870    0.14810    1.000
    C31      C        0.98490    0.10240    0.00110    1.000
    C32      C        0.06630    0.04170    0.91370    1.000
    H26      H        0.11330    0.06930    0.85520    1.000
    O5       O        0.44590    0.42670    0.24560    1.000
    Cd2      Cd       0.43904    0.55318    0.63386    1.000
    N5       N        0.43520    0.70350    0.56180    1.000
    N6       N        0.35330    0.82480    0.47500    1.000
    N7       N        0.22480    0.64620    0.75800    1.000
    N8       N        0.07750    0.73430    0.90290    1.000
    O6       O        0.65250    0.49580    0.47730    1.000
    O7       O        0.71780    0.57570    0.33940    1.000
    O8       O        0.41780    0.57360    0.30870    1.000
    C33      C        0.72110    0.55450    0.42340    1.000
    C34      C        0.80740    0.59750    0.46950    1.000
    H27      H        0.85890    0.54430    0.49930    1.000
    H28      H        0.74090    0.64660    0.52390    1.000
    C35      C        0.91450    0.64600    0.39760    1.000
    C36      C        0.88290    0.74850    0.39140    1.000
    H29      H        0.79440    0.78870    0.43330    1.000
    C37      C        0.98040    0.79160    0.32440    1.000
    H30      H        0.95660    0.86050    0.32110    1.000
    C38      C        0.11230    0.73460    0.26210    1.000
    H31      H        0.17800    0.76500    0.21790    1.000
    C39      C        0.14780    0.63100    0.26530    1.000
    C40      C        0.04780    0.58940    0.33350    1.000
    H32      H        0.07090    0.52040    0.33650    1.000
    C41      C        0.29210    0.56550    0.19940    1.000
    H33      H        0.33990    0.60500    0.14810    1.000
    H34      H        0.27670    0.51260    0.16510    1.000
    C42      C        0.39020    0.51910    0.25520    1.000
    C43      C        0.38960    0.72580    0.48620    1.000
    H35      H        0.38300    0.67820    0.44470    1.000
    C44      C        0.42930    0.79500    0.60370    1.000
    C45      C        0.46460    0.81730    0.68520    1.000
    H36      H        0.50120    0.76720    0.72120    1.000
    C46      C        0.44310    0.91650    0.71030    1.000
    H37      H        0.46690    0.93360    0.76380    1.000
    C47      C        0.38690    0.99180    0.65800    1.000
    H38      H        0.37210    0.05790    0.67850    1.000
    C48      C        0.35260    0.97160    0.57710    1.000
    H39      H        0.31560    0.02220    0.54170    1.000
    C49      C        0.37620    0.87110    0.55060    1.000
    C50      C        0.29110    0.87300    0.40210    1.000
    H40      H        0.35110    0.91330    0.36140    1.000
    H41      H        0.28970    0.82230    0.35730    1.000
    C51      C        0.04500    0.91240    0.53900    1.000
    H42      H        0.07460    0.85330    0.56720    1.000
    C52      C        0.13920    0.93880    0.45360    1.000
    C53      C        0.09420    0.02700    0.41620    1.000
    H43      H        0.15780    0.04720    0.35960    1.000
    C54      C        0.21200    0.67800    0.84790    1.000
    H44      H        0.28780    0.66340    0.87180    1.000
    C55      C        0.08780    0.68420    0.75310    1.000
    C56      C        0.03700    0.67460    0.67570    1.000
    H45      H        0.09760    0.63940    0.61440    1.000
    C57      C        0.89390    0.71930    0.69380    1.000
    H46      H        0.85680    0.71290    0.64400    1.000
    C58      C        0.80260    0.77430    0.78490    1.000
    H47      H        0.70650    0.80370    0.79410    1.000
    C59      C        0.85200    0.78580    0.86100    1.000
    H48      H        0.79210    0.82290    0.92140    1.000
    C60      C        0.99510    0.73950    0.84310    1.000
    C61      C        0.03080    0.78540    0.00300    1.000
    H49      H        0.93910    0.77470    0.04490    1.000
    H50      H        0.10040    0.75630    0.03460    1.000
    C62      C        0.07870    0.94070    0.91210    1.000
    H51      H        0.13060    0.90130    0.85190    1.000
    C63      C        0.01510    0.89760    0.99890    1.000
    C64      C        0.93370    0.95830    0.08630    1.000
    H52      H        0.88670    0.93070    0.14480    1.000
