data_functionalizedCrystal
_audit_creation_method	'EQeq! by Chris Wilmer'
_symmetry_space_group_name_H-M	'P1'
_symmetry_Int_Tables_number	1
_symmetry_cell_setting	triclinic
loop_
_symmetry_equiv_pos_as_xyz
  x,y,z
_cell_length_a	15.277
_cell_length_b	15.277
_cell_length_c	15.776
_cell_angle_alpha	90
_cell_angle_beta	90
_cell_angle_gamma	120
loop_
_atom_site_label
_atom_site_type_symbol
_atom_site_fract_x
_atom_site_fract_y
_atom_site_fract_z
_atom_site_charge
Mof_Dy	Dy	0.33333	0.66666	0.75	2.001
Mof_Dy	Dy	0.66667	0.33334	0.75	2.001
Mof_Dy	Dy	0.66667	0.33334	0.25	1.988
Mof_Dy	Dy	0.33333	0.66666	0.25	1.989
Mof_Mn	Mn	0.5	0	-0	0.712
Mof_Mn	Mn	0.5	0.5	-0	0.795
Mof_Mn	Mn	-0	0.5	-0	0.712
Mof_Mn	Mn	0.5	7.91675e-33	0.5	0.855
Mof_Mn	Mn	8.07531e-18	0.5	0.5	0.855
Mof_Mn	Mn	0.5	0.5	0.5	0.94
Mof_H 	H 	0.7108	0.9438	0.8444	0.082
Mof_H 	H 	0.233	0.2892	0.8444	0.059
Mof_H 	H 	0.0562	0.767	0.8444	0.055
Mof_H 	H 	0.2892	0.0562	0.8444	0.049
Mof_H 	H 	0.767	0.7108	0.8444	0.071
Mof_H 	H 	0.9438	0.233	0.8444	0.076
Mof_H 	H 	0.767	0.0562	0.6556	0.039
Mof_H 	H 	0.9438	0.7108	0.6556	0.067
Mof_H 	H 	0.2892	0.233	0.6556	0.043
Mof_H 	H 	0.233	0.9438	0.6556	0.061
Mof_H 	H 	0.0562	0.2892	0.6556	0.033
Mof_H 	H 	0.7108	0.767	0.6556	0.055
Mof_H 	H 	0.2892	0.0562	0.1556	0.02
Mof_H 	H 	0.767	0.7108	0.1556	0.042
Mof_H 	H 	0.9438	0.233	0.1556	0.048
Mof_H 	H 	0.7108	0.9438	0.1556	0.054
Mof_H 	H 	0.233	0.2892	0.1556	0.029
Mof_H 	H 	0.0562	0.767	0.1556	0.026
Mof_H 	H 	0.233	0.9438	0.3444	0.059
Mof_H 	H 	0.0562	0.2892	0.3444	0.031
Mof_H 	H 	0.7108	0.767	0.3444	0.053
Mof_H 	H 	0.767	0.0562	0.3444	0.037
Mof_H 	H 	0.9438	0.7108	0.3444	0.065
Mof_H 	H 	0.2892	0.233	0.3444	0.041
Mof_H 	H 	0.7999	0.89995	0.75	0.062
Mof_H 	H 	0.10005	0.2001	0.75	0.025
Mof_H 	H 	0.10005	0.89995	0.75	0.043
Mof_H 	H 	0.2001	0.10005	0.75	0.026
Mof_H 	H 	0.89995	0.7999	0.75	0.062
Mof_H 	H 	0.89995	0.10005	0.75	0.043
Mof_H 	H 	0.2001	0.10005	0.25	0.021
Mof_H 	H 	0.89995	0.7999	0.25	0.058
Mof_H 	H 	0.89995	0.10005	0.25	0.04
Mof_H 	H 	0.7999	0.89995	0.25	0.058
Mof_H 	H 	0.10005	0.2001	0.25	0.021
Mof_H 	H 	0.10005	0.89995	0.25	0.04
Mof_C 	C 	0.50577	0.86245	0.85897	0.377
Mof_C 	C 	0.57177	0.83865	0.80277	-0.012
Mof_C 	C 	0.6767	0.89153	0.80576	-0.022
Mof_C 	C 	0.35668	0.49423	0.85897	0.383
Mof_C 	C 	0.26688	0.42823	0.80277	-0.027
Mof_C 	C 	0.21483	0.3233	0.80576	-0.029
Mof_C 	C 	0.13755	0.64332	0.85897	0.38
Mof_C 	C 	0.16135	0.73312	0.80277	-0.026
Mof_C 	C 	0.10847	0.78517	0.80576	-0.027
Mof_C 	C 	0.49423	0.13755	0.85897	0.379
Mof_C 	C 	0.42823	0.16135	0.80277	-0.03
Mof_C 	C 	0.3233	0.10847	0.80576	-0.03
Mof_C 	C 	0.64332	0.50577	0.85897	0.384
Mof_C 	C 	0.73312	0.57177	0.80277	-0.019
Mof_C 	C 	0.78517	0.6767	0.80576	-0.022
Mof_C 	C 	0.86245	0.35668	0.85897	0.377
Mof_C 	C 	0.83865	0.26688	0.80277	-0.015
Mof_C 	C 	0.89153	0.21483	0.80576	-0.026
Mof_C 	C 	0.64332	0.13755	0.64103	0.393
Mof_C 	C 	0.73312	0.16135	0.69723	-0.039
Mof_C 	C 	0.78517	0.10847	0.69424	-0.024
Mof_C 	C 	0.86245	0.50577	0.64103	0.389
Mof_C 	C 	0.83865	0.57177	0.69723	-0.025
Mof_C 	C 	0.89153	0.6767	0.69424	-0.02
Mof_C 	C 	0.49423	0.35668	0.64103	0.396
Mof_C 	C 	0.42823	0.26688	0.69723	-0.04
Mof_C 	C 	0.3233	0.21483	0.69424	-0.026
Mof_C 	C 	0.35668	0.86245	0.64103	0.389
Mof_C 	C 	0.26688	0.83865	0.69723	-0.028
Mof_C 	C 	0.21483	0.89153	0.69424	-0.024
Mof_C 	C 	0.13755	0.49423	0.64103	0.392
Mof_C 	C 	0.16135	0.42823	0.69723	-0.044
Mof_C 	C 	0.10847	0.3233	0.69424	-0.028
Mof_C 	C 	0.50577	0.64332	0.64103	0.397
Mof_C 	C 	0.57177	0.73312	0.69723	-0.032
Mof_C 	C 	0.6767	0.78517	0.69424	-0.019
Mof_C 	C 	0.49423	0.13755	0.14103	0.388
Mof_C 	C 	0.42823	0.16135	0.19723	-0.053
Mof_C 	C 	0.3233	0.10847	0.19424	-0.023
Mof_C 	C 	0.64332	0.50577	0.14103	0.392
Mof_C 	C 	0.73312	0.57177	0.19723	-0.042
Mof_C 	C 	0.78517	0.6767	0.19424	-0.014
Mof_C 	C 	0.86245	0.35668	0.14103	0.385
Mof_C 	C 	0.83865	0.26688	0.19723	-0.038
Mof_C 	C 	0.89153	0.21483	0.19424	-0.019
Mof_C 	C 	0.50577	0.86245	0.14103	0.385
Mof_C 	C 	0.57177	0.83865	0.19723	-0.035
Mof_C 	C 	0.6767	0.89153	0.19424	-0.015
Mof_C 	C 	0.35668	0.49423	0.14103	0.391
Mof_C 	C 	0.26688	0.42823	0.19723	-0.05
Mof_C 	C 	0.21483	0.3233	0.19424	-0.021
Mof_C 	C 	0.13755	0.64332	0.14103	0.388
Mof_C 	C 	0.16135	0.73312	0.19723	-0.048
Mof_C 	C 	0.10847	0.78517	0.19424	-0.02
Mof_C 	C 	0.35668	0.86245	0.35897	0.39
Mof_C 	C 	0.26688	0.83865	0.30277	-0.033
Mof_C 	C 	0.21483	0.89153	0.30576	-0.019
Mof_C 	C 	0.13755	0.49423	0.35897	0.393
Mof_C 	C 	0.16135	0.42823	0.30277	-0.049
Mof_C 	C 	0.10847	0.3233	0.30576	-0.022
Mof_C 	C 	0.50577	0.64332	0.35897	0.397
Mof_C 	C 	0.57177	0.73312	0.30277	-0.037
Mof_C 	C 	0.6767	0.78517	0.30576	-0.013
Mof_C 	C 	0.64332	0.13755	0.35897	0.393
Mof_C 	C 	0.73312	0.16135	0.30277	-0.044
Mof_C 	C 	0.78517	0.10847	0.30576	-0.019
Mof_C 	C 	0.86245	0.50577	0.35897	0.39
Mof_C 	C 	0.83865	0.57177	0.30277	-0.03
Mof_C 	C 	0.89153	0.6767	0.30576	-0.014
Mof_C 	C 	0.49423	0.35668	0.35897	0.396
Mof_C 	C 	0.42823	0.26688	0.30277	-0.045
Mof_C 	C 	0.3233	0.21483	0.30576	-0.021
Mof_C 	C 	0.72956	0.86478	0.75	-0.031
Mof_C 	C 	0.13522	0.27044	0.75	-0.045
Mof_C 	C 	0.13522	0.86479	0.75	-0.037
Mof_C 	C 	0.27043	0.13521	0.75	-0.046
Mof_C 	C 	0.86478	0.72956	0.75	-0.031
Mof_C 	C 	0.86478	0.13522	0.75	-0.037
Mof_C 	C 	0.27043	0.13521	0.25	-0.061
Mof_C 	C 	0.86478	0.72956	0.25	-0.045
Mof_C 	C 	0.86478	0.13522	0.25	-0.051
Mof_C 	C 	0.72956	0.86478	0.25	-0.045
Mof_C 	C 	0.13522	0.27044	0.25	-0.061
Mof_C 	C 	0.13522	0.86479	0.25	-0.051
Mof_N 	N 	0.51997	0.75999	0.75	-0.195
Mof_N 	N 	0.24002	0.48004	0.75	-0.195
Mof_N 	N 	0.24002	0.75999	0.75	-0.196
Mof_N 	N 	0.48003	0.24001	0.75	-0.195
Mof_N 	N 	0.75998	0.51996	0.75	-0.195
Mof_N 	N 	0.75998	0.24001	0.75	-0.196
Mof_N 	N 	0.48003	0.24001	0.25	-0.193
Mof_N 	N 	0.75998	0.51996	0.25	-0.192
Mof_N 	N 	0.75998	0.24001	0.25	-0.193
Mof_N 	N 	0.51997	0.75999	0.25	-0.192
Mof_N 	N 	0.24002	0.48004	0.25	-0.193
Mof_N 	N 	0.24002	0.75999	0.25	-0.193
Mof_O 	O 	0.54973	0.93568	0.90625	-0.291
Mof_O 	O 	0.41351	0.80139	0.85452	-0.419
Mof_O 	O 	0.38595	0.45027	0.90625	-0.332
Mof_O 	O 	0.38788	0.58649	0.85452	-0.431
Mof_O 	O 	0.06432	0.61405	0.90625	-0.335
Mof_O 	O 	0.19861	0.61212	0.85452	-0.433
Mof_O 	O 	0.45027	0.06432	0.90625	-0.337
Mof_O 	O 	0.58649	0.19861	0.85452	-0.434
Mof_O 	O 	0.61405	0.54973	0.90625	-0.327
Mof_O 	O 	0.61212	0.41351	0.85452	-0.43
Mof_O 	O 	0.93568	0.38595	0.90625	-0.293
Mof_O 	O 	0.80139	0.38788	0.85452	-0.42
Mof_O 	O 	0.61405	0.06432	0.59375	-0.399
Mof_O 	O 	0.61212	0.19861	0.64548	-0.461
Mof_O 	O 	0.93568	0.54973	0.59375	-0.353
Mof_O 	O 	0.80139	0.41351	0.64548	-0.446
Mof_O 	O 	0.45027	0.38595	0.59375	-0.396
Mof_O 	O 	0.58649	0.38788	0.64548	-0.459
Mof_O 	O 	0.38595	0.93568	0.59375	-0.355
Mof_O 	O 	0.38788	0.80139	0.64548	-0.447
Mof_O 	O 	0.06432	0.45027	0.59375	-0.401
Mof_O 	O 	0.19861	0.58649	0.64548	-0.462
Mof_O 	O 	0.54973	0.61405	0.59375	-0.391
Mof_O 	O 	0.41351	0.61212	0.64548	-0.457
Mof_O 	O 	0.45027	0.06432	0.09375	-0.408
Mof_O 	O 	0.58649	0.19861	0.14548	-0.47
Mof_O 	O 	0.61405	0.54973	0.09375	-0.397
Mof_O 	O 	0.61212	0.41351	0.14548	-0.466
Mof_O 	O 	0.93568	0.38595	0.09375	-0.361
Mof_O 	O 	0.80139	0.38788	0.14548	-0.455
Mof_O 	O 	0.54973	0.93568	0.09375	-0.359
Mof_O 	O 	0.41351	0.80139	0.14548	-0.454
Mof_O 	O 	0.38595	0.45027	0.09375	-0.402
Mof_O 	O 	0.38788	0.58649	0.14548	-0.467
Mof_O 	O 	0.06432	0.61405	0.09375	-0.405
Mof_O 	O 	0.19861	0.61212	0.14548	-0.469
Mof_O 	O 	0.38595	0.93568	0.40625	-0.355
Mof_O 	O 	0.38788	0.80139	0.35452	-0.445
Mof_O 	O 	0.06432	0.45027	0.40625	-0.401
Mof_O 	O 	0.19861	0.58649	0.35452	-0.46
Mof_O 	O 	0.54973	0.61405	0.40625	-0.391
Mof_O 	O 	0.41351	0.61212	0.35452	-0.456
Mof_O 	O 	0.61405	0.06432	0.40625	-0.399
Mof_O 	O 	0.61212	0.19861	0.35452	-0.459
Mof_O 	O 	0.93568	0.54973	0.40625	-0.353
Mof_O 	O 	0.80139	0.41351	0.35452	-0.445
Mof_O 	O 	0.45027	0.38595	0.40625	-0.396
Mof_O 	O 	0.58649	0.38788	0.35452	-0.457
_end
