# CIF file generated by openbabel 3.1.0, see https://openbabel.org
data_I
_chemical_name_common 'image0'
_cell_length_a 8.6697
_cell_length_b 10.155
_cell_length_c 13.455
_cell_angle_alpha 85.39
_cell_angle_beta 89
_cell_angle_gamma 77.26
_space_group_name_H-M_alt 'P 1'
_space_group_name_Hall 'P 1'
loop_
    _symmetry_equiv_pos_as_xyz
    x,y,z
loop_
    _atom_site_label
    _atom_site_type_symbol
    _atom_site_fract_x
    _atom_site_fract_y
    _atom_site_fract_z
    _atom_site_occupancy
    Yb1      Yb       0.08102    0.19330    0.50264    1.000
    Yb2      Yb       0.46699    0.23244    0.92284    1.000
    O1       O        0.06320    0.13820    0.33580    1.000
    O2       O        0.16990    0.09330    0.18740    1.000
    O3       O        0.46150    0.18590    0.09010    1.000
    O4       O        0.53810    0.96640    0.13450    1.000
    O5       O        0.84120    0.03730    0.49250    1.000
    O6       O        0.80740    0.25760    0.46020    1.000
    O7       O        0.56070    0.19070    0.61390    1.000
    O8       O        0.29820    0.20710    0.59880    1.000
    O9       O        0.99340    0.37940    0.59680    1.000
    O10      O        0.94030    0.60440    0.59580    1.000
    O11      O        0.33360    0.44940    0.95760    1.000
    O12      O        0.35460    0.63990    0.02480    1.000
    N1       N        0.32810    0.16220    0.41030    1.000
    C1       C        0.17700    0.12270    0.27350    1.000
    C2       C        0.33310    0.13630    0.31440    1.000
    C3       C        0.47400    0.11730    0.26040    1.000
    C4       C        0.61380    0.12360    0.30930    1.000
    H1       H        0.70980    0.11030    0.27550    1.000
    C5       C        0.60580    0.15010    0.40930    1.000
    C6       C        0.46040    0.16920    0.45710    1.000
    C7       C        0.43840    0.19160    0.56670    1.000
    C8       C        0.48900    0.08810    0.15280    1.000
    C9       C        0.75960    0.14920    0.45970    1.000
    C10      C        0.98210    0.49370    0.55630    1.000
    C11      C        0.41070    0.52550    0.99550    1.000
    Yb3      Yb       0.91898    0.80670    0.49736    1.000
    Yb4      Yb       0.53301    0.76756    0.07716    1.000
    O13      O        0.93680    0.86180    0.66420    1.000
    O14      O        0.83010    0.90670    0.81260    1.000
    O15      O        0.53850    0.81410    0.90990    1.000
    O16      O        0.46190    0.03360    0.86550    1.000
    O17      O        0.15880    0.96270    0.50750    1.000
    O18      O        0.19260    0.74240    0.53980    1.000
    O19      O        0.43930    0.80930    0.38610    1.000
    O20      O        0.70180    0.79290    0.40120    1.000
    O21      O        0.00660    0.62060    0.40320    1.000
    O22      O        0.05970    0.39560    0.40420    1.000
    O23      O        0.66640    0.55060    0.04240    1.000
    O24      O        0.64540    0.36010    0.97520    1.000
    N2       N        0.67190    0.83780    0.58970    1.000
    C12      C        0.82300    0.87730    0.72650    1.000
    C13      C        0.66690    0.86370    0.68560    1.000
    C14      C        0.52600    0.88270    0.73960    1.000
    C15      C        0.38620    0.87640    0.69070    1.000
    H2       H        0.29020    0.88970    0.72450    1.000
    C16      C        0.39420    0.84990    0.59070    1.000
    C17      C        0.53960    0.83080    0.54290    1.000
    C18      C        0.56160    0.80840    0.43330    1.000
    C19      C        0.51100    0.91190    0.84720    1.000
    C20      C        0.24040    0.85080    0.54030    1.000
    C21      C        0.01790    0.50630    0.44370    1.000
    C22      C        0.58930    0.47450    0.00450    1.000
