data_functionalizedCrystal
_audit_creation_method	'EQeq! by Chris Wilmer'
_symmetry_space_group_name_H-M	'P1'
_symmetry_Int_Tables_number	1
_symmetry_cell_setting	triclinic
loop_
_symmetry_equiv_pos_as_xyz
  x,y,z
_cell_length_a	11.2668
_cell_length_b	13.3604
_cell_length_c	26.282
_cell_angle_alpha	90
_cell_angle_beta	90
_cell_angle_gamma	90
loop_
_atom_site_label
_atom_site_type_symbol
_atom_site_fract_x
_atom_site_fract_y
_atom_site_fract_z
_atom_site_charge
Mof_La	La	0.97221	0.65859	0.21852	1.944
Mof_La	La	0.47221	0.84141	0.28148	1.946
Mof_La	La	0.52779	0.65859	0.78148	1.953
Mof_La	La	0.02779	0.84141	0.71852	1.937
Mof_La	La	0.02779	0.34141	0.78148	1.949
Mof_La	La	0.52779	0.15859	0.71852	1.951
Mof_La	La	0.47221	0.34141	0.21852	1.944
Mof_La	La	0.97221	0.15859	0.28148	1.934
Mof_La	La	0.25	0.4887	-0	1.509
Mof_La	La	0.75	0.0113	0.5	1.66
Mof_La	La	0.75	0.5113	-0	1.505
Mof_La	La	0.25	0.9887	0.5	1.66
Mof_P 	P 	0.1399	0.8163	0.31108	0.448
Mof_P 	P 	0.2946	0.7075	0.08599	0.415
Mof_P 	P 	0.6399	0.6837	0.18892	0.448
Mof_P 	P 	0.7946	0.7925	0.41401	0.417
Mof_P 	P 	0.3601	0.8163	0.68892	0.448
Mof_P 	P 	0.2054	0.7075	0.91401	0.415
Mof_P 	P 	0.8601	0.6837	0.81108	0.448
Mof_P 	P 	0.7054	0.7925	0.58599	0.417
Mof_P 	P 	0.8601	0.1837	0.68892	0.448
Mof_P 	P 	0.7054	0.2925	0.91401	0.415
Mof_P 	P 	0.3601	0.3163	0.81108	0.449
Mof_P 	P 	0.2054	0.2075	0.58599	0.417
Mof_P 	P 	0.6399	0.1837	0.31108	0.448
Mof_P 	P 	0.7946	0.2925	0.08599	0.415
Mof_P 	P 	0.1399	0.3163	0.18892	0.448
Mof_P 	P 	0.2946	0.2075	0.41401	0.418
Mof_C 	C 	0.061	0.9106	0.2746	-0.148
Mof_C 	C 	0.9273	0.9062	0.2765	0.377
Mof_C 	C 	0.2024	0.6479	0.1336	-0.109
Mof_C 	C 	0.0953	0.6004	0.1091	0.446
Mof_C 	C 	0.561	0.5894	0.2254	-0.147
Mof_C 	C 	0.4273	0.5938	0.2235	0.377
Mof_C 	C 	0.7024	0.8521	0.3664	-0.11
Mof_C 	C 	0.5953	0.8996	0.3909	0.45
Mof_C 	C 	0.439	0.9106	0.7254	-0.146
Mof_C 	C 	0.5727	0.9062	0.7235	0.378
Mof_C 	C 	0.2976	0.6479	0.8664	-0.101
Mof_C 	C 	0.4047	0.6004	0.8909	0.439
Mof_C 	C 	0.939	0.5894	0.7746	-0.142
Mof_C 	C 	0.0727	0.5938	0.7765	0.371
Mof_C 	C 	0.7976	0.8521	0.6336	-0.112
Mof_C 	C 	0.9047	0.8996	0.6091	0.458
Mof_C 	C 	0.939	0.0894	0.7254	-0.146
Mof_C 	C 	0.0727	0.0938	0.7235	0.378
Mof_C 	C 	0.7976	0.3521	0.8664	-0.101
Mof_C 	C 	0.9047	0.3996	0.8909	0.442
Mof_C 	C 	0.439	0.4106	0.7746	-0.147
Mof_C 	C 	0.5727	0.4062	0.7765	0.377
Mof_C 	C 	0.2976	0.1479	0.6336	-0.111
Mof_C 	C 	0.4047	0.1004	0.6091	0.45
Mof_C 	C 	0.561	0.0894	0.2746	-0.148
Mof_C 	C 	0.4273	0.0938	0.2765	0.376
Mof_C 	C 	0.7024	0.3521	0.1336	-0.108
Mof_C 	C 	0.5953	0.3996	0.1091	0.443
Mof_C 	C 	0.061	0.4106	0.2254	-0.142
Mof_C 	C 	0.9273	0.4062	0.2235	0.373
Mof_C 	C 	0.2024	0.1479	0.3664	-0.112
Mof_C 	C 	0.0953	0.1004	0.3909	0.457
Mof_O 	O 	0.1308	0.716	0.2829	-0.426
Mof_O 	O 	0.083	0.8117	0.3643	-0.24
Mof_O 	O 	0.2696	0.8513	0.3153	-0.422
Mof_O 	O 	0.131	0.9969	0.2697	-0.244
Mof_O 	O 	0.8796	0.8238	0.2696	-0.401
Mof_O 	O 	0.8735	0.9826	0.2897	-0.4
Mof_O 	O 	0.3483	0.6252	0.052	-0.394
Mof_O 	O 	0.2157	0.7788	0.0548	-0.259
Mof_O 	O 	0.393	0.7662	0.114	-0.22
Mof_O 	O 	0.2061	0.6982	0.1803	-0.228
Mof_O 	O 	0.1138	0.5456	0.0719	-0.478
Mof_O 	O 	0.9992	0.6111	0.1312	-0.523
Mof_O 	O 	0.6308	0.784	0.2171	-0.428
Mof_O 	O 	0.583	0.6883	0.1357	-0.242
Mof_O 	O 	0.7696	0.6487	0.1847	-0.422
Mof_O 	O 	0.631	0.5031	0.2303	-0.242
Mof_O 	O 	0.3796	0.6762	0.2304	-0.401
Mof_O 	O 	0.3735	0.5174	0.2103	-0.401
Mof_O 	O 	0.8483	0.8748	0.448	-0.391
Mof_O 	O 	0.7157	0.7212	0.4452	-0.236
Mof_O 	O 	0.893	0.7338	0.386	-0.214
Mof_O 	O 	0.7061	0.8018	0.3197	-0.227
Mof_O 	O 	0.6138	0.9544	0.4281	-0.485
Mof_O 	O 	0.4992	0.8889	0.3688	-0.523
Mof_O 	O 	0.3692	0.716	0.7171	-0.427
Mof_O 	O 	0.417	0.8117	0.6357	-0.24
Mof_O 	O 	0.2304	0.8513	0.6847	-0.422
Mof_O 	O 	0.369	0.9969	0.7303	-0.243
Mof_O 	O 	0.6204	0.8238	0.7304	-0.4
Mof_O 	O 	0.6265	0.9826	0.7103	-0.401
Mof_O 	O 	0.1517	0.6252	0.948	-0.342
Mof_O 	O 	0.2843	0.7788	0.9452	-0.203
Mof_O 	O 	0.107	0.7662	0.886	-0.205
Mof_O 	O 	0.2939	0.6982	0.8197	-0.228
Mof_O 	O 	0.3862	0.5456	0.9281	-0.436
Mof_O 	O 	0.5008	0.6111	0.8688	-0.508
Mof_O 	O 	0.8692	0.784	0.7829	-0.42
Mof_O 	O 	0.917	0.6883	0.8643	-0.223
Mof_O 	O 	0.7304	0.6487	0.8153	-0.416
Mof_O 	O 	0.869	0.5031	0.7697	-0.243
Mof_O 	O 	0.1204	0.6762	0.7696	-0.4
Mof_O 	O 	0.1265	0.5174	0.7897	-0.4
Mof_O 	O 	0.6517	0.8748	0.552	-0.392
Mof_O 	O 	0.7843	0.7212	0.5548	-0.236
Mof_O 	O 	0.607	0.7338	0.614	-0.214
Mof_O 	O 	0.7939	0.8018	0.6803	-0.225
Mof_O 	O 	0.8862	0.9544	0.5719	-0.486
Mof_O 	O 	0.0008	0.8889	0.6312	-0.53
Mof_O 	O 	0.8692	0.284	0.7171	-0.426
Mof_O 	O 	0.917	0.1883	0.6357	-0.24
Mof_O 	O 	0.7304	0.1487	0.6847	-0.423
Mof_O 	O 	0.869	0.0031	0.7303	-0.242
Mof_O 	O 	0.1204	0.1762	0.7304	-0.4
Mof_O 	O 	0.1265	0.0174	0.7103	-0.399
Mof_O 	O 	0.6517	0.3748	0.948	-0.34
Mof_O 	O 	0.7843	0.2212	0.9452	-0.202
Mof_O 	O 	0.607	0.2338	0.886	-0.202
Mof_O 	O 	0.7939	0.3018	0.8197	-0.227
Mof_O 	O 	0.8862	0.4544	0.9281	-0.435
Mof_O 	O 	0.0008	0.3889	0.8688	-0.51
Mof_O 	O 	0.3692	0.216	0.7829	-0.424
Mof_O 	O 	0.417	0.3117	0.8643	-0.226
Mof_O 	O 	0.2304	0.3513	0.8153	-0.416
Mof_O 	O 	0.369	0.4969	0.7697	-0.243
Mof_O 	O 	0.6204	0.3238	0.7696	-0.401
Mof_O 	O 	0.6265	0.4826	0.7897	-0.401
Mof_O 	O 	0.1517	0.1252	0.552	-0.391
Mof_O 	O 	0.2843	0.2788	0.5548	-0.236
Mof_O 	O 	0.107	0.2662	0.614	-0.214
Mof_O 	O 	0.2939	0.1982	0.6803	-0.227
Mof_O 	O 	0.3862	0.0456	0.5719	-0.485
Mof_O 	O 	0.5008	0.1111	0.6312	-0.524
Mof_O 	O 	0.6308	0.284	0.2829	-0.426
Mof_O 	O 	0.583	0.1883	0.3643	-0.24
Mof_O 	O 	0.7696	0.1487	0.3153	-0.422
Mof_O 	O 	0.631	0.0031	0.2697	-0.245
Mof_O 	O 	0.3796	0.1762	0.2696	-0.401
Mof_O 	O 	0.3735	0.0174	0.2897	-0.401
Mof_O 	O 	0.8483	0.3748	0.052	-0.394
Mof_O 	O 	0.7157	0.2212	0.0548	-0.259
Mof_O 	O 	0.893	0.2338	0.114	-0.222
Mof_O 	O 	0.7061	0.3018	0.1803	-0.228
Mof_O 	O 	0.6138	0.4544	0.0719	-0.478
Mof_O 	O 	0.4992	0.3889	0.1312	-0.522
Mof_O 	O 	0.1308	0.216	0.2171	-0.424
Mof_O 	O 	0.083	0.3117	0.1357	-0.24
Mof_O 	O 	0.2696	0.3513	0.1847	-0.422
Mof_O 	O 	0.131	0.4969	0.2303	-0.242
Mof_O 	O 	0.8796	0.3238	0.2304	-0.4
Mof_O 	O 	0.8735	0.4826	0.2103	-0.401
Mof_O 	O 	0.3483	0.1252	0.448	-0.392
Mof_O 	O 	0.2157	0.2788	0.4452	-0.236
Mof_O 	O 	0.393	0.2662	0.386	-0.214
Mof_O 	O 	0.2061	0.1982	0.3197	-0.225
Mof_O 	O 	0.1138	0.0456	0.4281	-0.485
Mof_O 	O 	0.9992	0.1111	0.3688	-0.528
_end
