data_functionalizedCrystal
_audit_creation_method	'EQeq! by Chris Wilmer'
_symmetry_space_group_name_H-M	'P1'
_symmetry_Int_Tables_number	1
_symmetry_cell_setting	triclinic
loop_
_symmetry_equiv_pos_as_xyz
  x,y,z
_cell_length_a	11.0788
_cell_length_b	12.6965
_cell_length_c	12.7879
_cell_angle_alpha	65.776
_cell_angle_beta	86.62
_cell_angle_gamma	83.387
loop_
_atom_site_label
_atom_site_type_symbol
_atom_site_fract_x
_atom_site_fract_y
_atom_site_fract_z
_atom_site_charge
Mof_Co	Co	0.75045	0.11533	0.05159	1.111
Mof_Co	Co	0.10216	0.81873	0.23137	1.185
Mof_C 	C 	0.0239	0.0911	0.2957	-0.138
Mof_C 	C 	0.9478	0.1363	0.3607	0.029
Mof_H 	H 	0.8655	0.1553	0.344	0.041
Mof_C 	C 	0.9939	0.1533	0.4503	-0.011
Mof_C 	C 	0.1167	0.125	0.4744	-0.161
Mof_H 	H 	0.1485	0.1351	0.5351	0.103
Mof_C 	C 	0.1918	0.0817	0.4078	0.179
Mof_C 	C 	0.1467	0.0636	0.3191	-0.102
Mof_H 	H 	0.198	0.0335	0.2757	0.073
Mof_C 	C 	0.9705	0.069	0.202	0.437
Mof_C 	C 	0.9092	0.1919	0.5283	0.325
Mof_C 	C 	0.3894	0.9831	0.402	0.179
Mof_H 	H 	0.3395	0.9329	0.3871	0.025
Mof_H 	H 	0.446	0.9345	0.462	0.02
Mof_C 	C 	0.4856	0.1439	0.1243	0.082
Mof_H 	H 	0.4724	0.1923	0.0475	-0.029
Mof_C 	C 	0.5757	0.0376	0.2766	0.014
Mof_H 	H 	0.6345	0.9949	0.3311	0.074
Mof_C 	C 	0.5105	0.1842	0.7682	-0.024
Mof_C 	C 	0.4007	0.1538	0.8252	-0.038
Mof_H 	H 	0.3994	0.1103	0.9041	0.07
Mof_C 	C 	0.2937	0.1883	0.7647	-0.042
Mof_C 	C 	0.2942	0.2568	0.6464	-0.134
Mof_H 	H 	0.2218	0.2824	0.6062	0.102
Mof_C 	C 	0.4044	0.2857	0.5903	0.201
Mof_C 	C 	0.5117	0.2492	0.6502	-0.14
Mof_H 	H 	0.5852	0.2681	0.6115	0.114
Mof_C 	C 	0.6299	0.1482	0.8305	0.356
Mof_C 	C 	0.1727	0.1549	0.8227	0.349
Mof_C 	C 	0.3278	0.3599	0.3977	0.102
Mof_H 	H 	0.2848	0.291	0.4303	0.021
Mof_H 	H 	0.3661	0.3627	0.3266	0.015
Mof_C 	C 	0.0822	0.5606	0.3782	0.099
Mof_H 	H 	0.0039	0.5824	0.3973	0
Mof_C 	C 	0.2498	0.5702	0.3003	0.114
Mof_H 	H 	0.3176	0.5962	0.2543	-0.023
Mof_N 	N 	0.4568	0.0469	0.2984	-0.115
Mof_N 	N 	0.3978	0.1154	0.1998	-0.099
Mof_N 	N 	0.598	0.0975	0.1664	-0.237
Mof_N 	N 	0.2416	0.4613	0.3734	-0.111
Mof_N 	N 	0.1323	0.4538	0.4253	-0.098
Mof_N 	N 	0.1509	0.6364	0.3009	-0.245
Mof_O 	O 	0.0394	0.0172	0.1512	-0.578
Mof_O 	O 	0.8611	0.1044	0.1801	-0.495
Mof_O 	O 	0.8016	0.224	0.5016	-0.268
Mof_O 	O 	0.9578	0.1825	0.6186	-0.405
Mof_O 	O 	0.3149	0.0583	0.4396	-0.261
Mof_O 	O 	0.723	0.148	0.7706	-0.438
Mof_O 	O 	0.6252	0.123	0.9363	-0.406
Mof_O 	O 	0.1723	0.0636	0.9155	-0.49
Mof_O 	O 	0.0814	0.22	0.7755	-0.422
Mof_O 	O 	0.4179	0.3519	0.474	-0.226
Mof_H 	H 	0.077	0.796	0.05	0.239
Mof_O 	O 	0.1063	0.8482	0.0627	-0.814
Mof_Co	Co	0.24955	0.88467	0.94841	1.177
Mof_Co	Co	0.89784	0.18127	0.76863	1.185
Mof_C 	C 	0.9761	0.9089	0.7043	0.085
Mof_C 	C 	0.0522	0.8637	0.6393	-0.109
Mof_H 	H 	0.1345	0.8447	0.656	0.1
Mof_C 	C 	0.0061	0.8467	0.5497	-0.022
Mof_C 	C 	0.8833	0.875	0.5256	-0.094
Mof_H 	H 	0.8515	0.8649	0.4649	0.102
Mof_C 	C 	0.8082	0.9183	0.5922	0.205
Mof_C 	C 	0.8533	0.9364	0.6809	-0.174
Mof_H 	H 	0.802	0.9665	0.7243	0.134
Mof_C 	C 	0.0295	0.931	0.798	0.261
Mof_C 	C 	0.0908	0.8081	0.4717	0.332
Mof_C 	C 	0.6106	0.0169	0.598	-0.003
Mof_H 	H 	0.6605	0.0671	0.6129	0.052
Mof_H 	H 	0.554	0.0655	0.538	0.051
Mof_C 	C 	0.5144	0.8561	0.8757	0.099
Mof_H 	H 	0.5276	0.8077	0.9525	0.025
Mof_C 	C 	0.4243	0.9624	0.7234	0.184
Mof_H 	H 	0.3655	0.0051	0.6689	-0.044
Mof_C 	C 	0.4895	0.8158	0.2318	-0.037
Mof_C 	C 	0.5993	0.8462	0.1748	-0.019
Mof_H 	H 	0.6006	0.8897	0.0959	0.044
Mof_C 	C 	0.7063	0.8117	0.2353	-0.046
Mof_C 	C 	0.7058	0.7432	0.3536	-0.129
Mof_H 	H 	0.7782	0.7176	0.3938	0.109
Mof_C 	C 	0.5956	0.7143	0.4097	0.196
Mof_C 	C 	0.4883	0.7508	0.3498	-0.127
Mof_H 	H 	0.4148	0.7319	0.3885	0.112
Mof_C 	C 	0.3701	0.8518	0.1695	0.375
Mof_C 	C 	0.8273	0.8451	0.1773	0.352
Mof_C 	C 	0.6722	0.6401	0.6023	0.096
Mof_H 	H 	0.7152	0.709	0.5697	0.029
Mof_H 	H 	0.6339	0.6373	0.6734	0.031
Mof_C 	C 	0.9178	0.4394	0.6218	0.109
Mof_H 	H 	0.9961	0.4176	0.6027	0.028
Mof_C 	C 	0.7502	0.4298	0.6997	0.121
Mof_H 	H 	0.6824	0.4038	0.7457	-0.008
Mof_N 	N 	0.5432	0.9531	0.7016	-0.085
Mof_N 	N 	0.6022	0.8846	0.8002	-0.077
Mof_N 	N 	0.402	0.9025	0.8336	-0.24
Mof_N 	N 	0.7584	0.5387	0.6266	-0.105
Mof_N 	N 	0.8677	0.5462	0.5747	-0.083
Mof_N 	N 	0.8491	0.3636	0.6991	-0.235
Mof_O 	O 	0.9606	0.9828	0.8488	-0.409
Mof_O 	O 	0.1389	0.8956	0.8199	-0.414
Mof_O 	O 	0.1984	0.776	0.4984	-0.257
Mof_O 	O 	0.0422	0.8175	0.3814	-0.413
Mof_O 	O 	0.6851	0.9417	0.5604	-0.184
Mof_O 	O 	0.277	0.852	0.2294	-0.429
Mof_O 	O 	0.3748	0.877	0.0637	-0.471
Mof_O 	O 	0.8277	0.9364	0.0845	-0.487
Mof_O 	O 	0.9186	0.78	0.2245	-0.389
Mof_O 	O 	0.5821	0.6481	0.526	-0.22
Mof_H 	H 	0.923	0.204	0.95	0.288
Mof_O 	O 	0.8937	0.1518	0.9373	-0.775
Mof_Co	Co	-0	0	-0	1.094
_end
