data_functionalizedCrystal
_audit_creation_method	'EQeq! by Chris Wilmer'
_symmetry_space_group_name_H-M	'P1'
_symmetry_Int_Tables_number	1
_symmetry_cell_setting	triclinic
loop_
_symmetry_equiv_pos_as_xyz
  x,y,z
_cell_length_a	17.85
_cell_length_b	17.85
_cell_length_c	13.064
_cell_angle_alpha	90
_cell_angle_beta	90
_cell_angle_gamma	120
loop_
_atom_site_label
_atom_site_type_symbol
_atom_site_fract_x
_atom_site_fract_y
_atom_site_fract_z
_atom_site_charge
Mof_Cu	Cu	0.5809	0.4452	0.13214	0.901
Mof_Cu	Cu	0.5794	0.4441	0.3884	0.902
Mof_O 	O 	0.6418	0.4661	0.2534	-0.492
Mof_O 	O 	0.5564	0.3217	0.1373	-0.48
Mof_O 	O 	0.4947	0.2	0.0305	-0.325
Mof_O 	O 	0.4368	0.6746	0.8924	-0.495
Mof_O 	O 	0.5149	0.805	0.966	-0.323
Mof_O 	O 	0.424	0.4462	0.905	-0.293
Mof_O 	O 	0.5716	0.556	0.1131	-0.337
Mof_N 	N 	0.5045	0.4047	0.0105	-0.191
Mof_N 	N 	0.5094	0.602	0.9886	-0.228
Mof_C 	C 	0.5023	0.2708	0.061	0.286
Mof_C 	C 	0.489	0.458	0.991	0.034
Mof_C 	C 	0.5277	0.5451	0.0396	0.177
Mof_C 	C 	0.478	0.714	0.967	0.311
Mof_C 	C 	0.5208	0.683	0.038	-0.119
Mof_H 	H 	0.5811	0.7265	0.0592	0.077
Mof_C 	C 	0.4525	0.6542	0.1203	-0.041
Mof_H 	H 	0.4429	0.7036	0.1084	0.021
Mof_H 	H 	0.4956	0.6753	0.1763	0.052
Mof_C 	C 	0.377	0.61	0.193	-0.158
Mof_H 	H 	0.3253	0.5919	0.1495	0.066
Mof_H 	H 	0.381	0.6577	0.2364	0.061
Mof_C 	C 	0.283	0.416	0.214	-0.415
Mof_H 	H 	0.3054	0.4232	0.1439	0.152
Mof_H 	H 	0.2218	0.3999	0.2116	0.144
Mof_H 	H 	0.2886	0.3703	0.2484	0.135
Mof_S 	S 	0.32	0.1817	0.2	0.04
Mof_C 	C 	0.4525	0.3111	0.002	-0.079
Mof_H 	H 	0.4656	0.3033	0.93	0.061
Mof_C 	C 	0.363	0.245	0.007	-0.045
Mof_H 	H 	0.3534	0.2255	0.9351	0.035
Mof_H 	H 	0.336	0.2821	0.0119	0.052
Mof_C 	C 	0.2919	0.1637	0.058	-0.125
Mof_H 	H 	0.2926	0.1117	0.0327	0.07
Mof_H 	H 	0.2342	0.1568	0.0449	0.049
Mof_C 	C 	0.238	0.219	0.175	-0.367
Mof_H 	H 	0.2684	0.2798	0.1544	0.122
Mof_H 	H 	0.2045	0.2119	0.2374	0.123
Mof_H 	H 	0.1984	0.1838	0.12	0.124
Mof_S 	S 	0.3447	0.5179	0.2842	0.066
Mof_Cu	Cu	0.5548	0.1357	0.13214	0.902
Mof_Cu	Cu	0.5559	0.1353	0.3884	0.903
Mof_O 	O 	0.5339	0.1757	0.2534	-0.491
Mof_O 	O 	0.6783	0.2347	0.1373	-0.479
Mof_O 	O 	0.8	0.2947	0.0305	-0.323
Mof_O 	O 	0.3254	0.7622	0.8924	-0.496
Mof_O 	O 	0.195	0.7099	0.966	-0.323
Mof_O 	O 	0.5538	0.9778	0.905	-0.291
Mof_O 	O 	0.444	0.0156	0.1131	-0.333
Mof_N 	N 	0.5953	0.0998	0.0105	-0.189
Mof_N 	N 	0.398	0.9074	0.9886	-0.225
Mof_C 	C 	0.7292	0.2315	0.061	0.286
Mof_C 	C 	0.542	0.031	0.991	0.031
Mof_C 	C 	0.4549	0.9826	0.0396	0.171
Mof_C 	C 	0.286	0.764	0.967	0.314
Mof_C 	C 	0.317	0.8378	0.038	-0.123
Mof_H 	H 	0.2735	0.8546	0.0592	0.077
Mof_C 	C 	0.3458	0.7983	0.1203	-0.04
Mof_H 	H 	0.2964	0.7393	0.1084	0.021
Mof_H 	H 	0.3247	0.8203	0.1763	0.051
Mof_C 	C 	0.39	0.767	0.193	-0.159
Mof_H 	H 	0.4081	0.7334	0.1495	0.066
Mof_H 	H 	0.3423	0.7233	0.2364	0.061
Mof_C 	C 	0.584	0.867	0.214	-0.415
Mof_H 	H 	0.5768	0.8822	0.1439	0.151
Mof_H 	H 	0.6001	0.8219	0.2116	0.144
Mof_H 	H 	0.6297	0.9183	0.2484	0.135
Mof_S 	S 	0.8183	0.1383	0.2	0.039
Mof_C 	C 	0.6889	0.1414	0.002	-0.078
Mof_H 	H 	0.6967	0.1623	0.93	0.059
Mof_C 	C 	0.755	0.118	0.007	-0.039
Mof_H 	H 	0.7745	0.1279	0.9351	0.031
Mof_H 	H 	0.7179	0.0539	0.0119	0.052
Mof_C 	C 	0.8363	0.1282	0.058	-0.128
Mof_H 	H 	0.8883	0.1809	0.0327	0.071
Mof_H 	H 	0.8432	0.0774	0.0449	0.051
Mof_C 	C 	0.781	0.019	0.175	-0.354
Mof_H 	H 	0.7202	0.9886	0.1544	0.117
Mof_H 	H 	0.7881	0.9926	0.2374	0.118
Mof_H 	H 	0.8162	0.0146	0.12	0.121
Mof_S 	S 	0.4821	0.8268	0.2842	0.066
Mof_Cu	Cu	0.8643	0.4191	0.13214	0.902
Mof_Cu	Cu	0.8647	0.4206	0.3884	0.903
Mof_O 	O 	0.8243	0.3582	0.2534	-0.491
Mof_O 	O 	0.7653	0.4436	0.1373	-0.479
Mof_O 	O 	0.7053	0.5053	0.0305	-0.324
Mof_O 	O 	0.2378	0.5632	0.8924	-0.496
Mof_O 	O 	0.2901	0.4851	0.966	-0.323
Mof_O 	O 	0.0222	0.576	0.905	-0.291
Mof_O 	O 	0.9844	0.4284	0.1131	-0.333
Mof_N 	N 	0.9002	0.4955	0.0105	-0.189
Mof_N 	N 	0.0926	0.4906	0.9886	-0.226
Mof_C 	C 	0.7685	0.4977	0.061	0.286
Mof_C 	C 	0.969	0.511	0.991	0.032
Mof_C 	C 	0.0174	0.4723	0.0396	0.171
Mof_C 	C 	0.236	0.522	0.967	0.312
Mof_C 	C 	0.1622	0.4792	0.038	-0.121
Mof_H 	H 	0.1454	0.4189	0.0592	0.077
Mof_C 	C 	0.2017	0.5475	0.1203	-0.041
Mof_H 	H 	0.2607	0.5571	0.1084	0.021
Mof_H 	H 	0.1797	0.5044	0.1763	0.052
Mof_C 	C 	0.233	0.623	0.193	-0.158
Mof_H 	H 	0.2666	0.6747	0.1495	0.066
Mof_H 	H 	0.2767	0.619	0.2364	0.061
Mof_C 	C 	0.133	0.717	0.214	-0.414
Mof_H 	H 	0.1178	0.6946	0.1439	0.151
Mof_H 	H 	0.1781	0.7782	0.2116	0.143
Mof_H 	H 	0.0817	0.7114	0.2484	0.135
Mof_S 	S 	0.8617	0.68	0.2	0.038
Mof_C 	C 	0.8586	0.5475	0.002	-0.078
Mof_H 	H 	0.8377	0.5344	0.93	0.06
Mof_C 	C 	0.882	0.637	0.007	-0.044
Mof_H 	H 	0.8721	0.6466	0.9351	0.034
Mof_H 	H 	0.9461	0.664	0.0119	0.052
Mof_C 	C 	0.8718	0.7081	0.058	-0.126
Mof_H 	H 	0.8191	0.7074	0.0327	0.07
Mof_H 	H 	0.9226	0.7658	0.0449	0.049
Mof_C 	C 	0.981	0.762	0.175	-0.353
Mof_H 	H 	0.0114	0.7316	0.1544	0.116
Mof_H 	H 	0.0074	0.7955	0.2374	0.117
Mof_H 	H 	0.9854	0.8016	0.12	0.12
Mof_S 	S 	0.1732	0.6553	0.2842	0.066
Mof_Cu	Cu	0.4191	0.5548	0.63214	0.902
Mof_Cu	Cu	0.4206	0.5559	0.8884	0.902
Mof_O 	O 	0.3582	0.5339	0.7534	-0.491
Mof_O 	O 	0.4436	0.6783	0.6373	-0.479
Mof_O 	O 	0.5053	0.8	0.5305	-0.328
Mof_O 	O 	0.5632	0.3254	0.3924	-0.498
Mof_O 	O 	0.4851	0.195	0.466	-0.321
Mof_O 	O 	0.576	0.5538	0.405	-0.294
Mof_O 	O 	0.4284	0.444	0.6131	-0.331
Mof_N 	N 	0.4955	0.5953	0.5105	-0.202
Mof_N 	N 	0.4906	0.398	0.4886	-0.216
Mof_C 	C 	0.4977	0.7292	0.561	0.287
Mof_C 	C 	0.511	0.542	0.491	0.059
Mof_C 	C 	0.4723	0.4549	0.5396	0.154
Mof_C 	C 	0.522	0.286	0.467	0.324
Mof_C 	C 	0.4792	0.317	0.538	-0.137
Mof_H 	H 	0.4189	0.2735	0.5592	0.08
Mof_C 	C 	0.5475	0.3458	0.6203	-0.037
Mof_H 	H 	0.5571	0.2964	0.6084	0.018
Mof_H 	H 	0.5044	0.3247	0.6763	0.051
Mof_C 	C 	0.623	0.39	0.693	-0.16
Mof_H 	H 	0.6747	0.4081	0.6495	0.066
Mof_H 	H 	0.619	0.3423	0.7364	0.061
Mof_C 	C 	0.717	0.584	0.714	-0.411
Mof_H 	H 	0.6946	0.5768	0.6439	0.149
Mof_H 	H 	0.7782	0.6001	0.7116	0.142
Mof_H 	H 	0.7114	0.6297	0.7484	0.133
Mof_S 	S 	0.68	0.8183	0.7	0.036
Mof_C 	C 	0.5475	0.6889	0.502	-0.087
Mof_H 	H 	0.5344	0.6967	0.43	0.07
Mof_C 	C 	0.637	0.755	0.507	-0.063
Mof_H 	H 	0.6466	0.7745	0.4351	0.048
Mof_H 	H 	0.664	0.7179	0.5119	0.054
Mof_C 	C 	0.7081	0.8363	0.558	-0.117
Mof_H 	H 	0.7074	0.8883	0.5327	0.064
Mof_H 	H 	0.7658	0.8432	0.5449	0.044
Mof_C 	C 	0.762	0.781	0.675	-0.364
Mof_H 	H 	0.7316	0.7202	0.6544	0.121
Mof_H 	H 	0.7955	0.7881	0.7374	0.12
Mof_H 	H 	0.8016	0.8162	0.62	0.122
Mof_S 	S 	0.6553	0.4821	0.7842	0.062
Mof_Cu	Cu	0.4452	0.8643	0.63214	0.902
Mof_Cu	Cu	0.4441	0.8647	0.8884	0.902
Mof_O 	O 	0.4661	0.8243	0.7534	-0.491
Mof_O 	O 	0.3217	0.7653	0.6373	-0.479
Mof_O 	O 	0.2	0.7053	0.5305	-0.328
Mof_O 	O 	0.6746	0.2378	0.3924	-0.498
Mof_O 	O 	0.805	0.2901	0.466	-0.321
Mof_O 	O 	0.4462	0.0222	0.405	-0.293
Mof_O 	O 	0.556	0.9844	0.6131	-0.332
Mof_N 	N 	0.4047	0.9002	0.5105	-0.202
Mof_N 	N 	0.602	0.0926	0.4886	-0.216
Mof_C 	C 	0.2708	0.7685	0.561	0.287
Mof_C 	C 	0.458	0.969	0.491	0.058
Mof_C 	C 	0.5451	0.0174	0.5396	0.154
Mof_C 	C 	0.714	0.236	0.467	0.324
Mof_C 	C 	0.683	0.1622	0.538	-0.137
Mof_H 	H 	0.7265	0.1454	0.5592	0.08
Mof_C 	C 	0.6542	0.2017	0.6203	-0.037
Mof_H 	H 	0.7036	0.2607	0.6084	0.018
Mof_H 	H 	0.6753	0.1797	0.6763	0.051
Mof_C 	C 	0.61	0.233	0.693	-0.16
Mof_H 	H 	0.5919	0.2666	0.6495	0.066
Mof_H 	H 	0.6577	0.2767	0.7364	0.061
Mof_C 	C 	0.416	0.133	0.714	-0.411
Mof_H 	H 	0.4232	0.1178	0.6439	0.149
Mof_H 	H 	0.3999	0.1781	0.7116	0.142
Mof_H 	H 	0.3703	0.0817	0.7484	0.133
Mof_S 	S 	0.1817	0.8617	0.7	0.036
Mof_C 	C 	0.3111	0.8586	0.502	-0.087
Mof_H 	H 	0.3033	0.8377	0.43	0.07
Mof_C 	C 	0.245	0.882	0.507	-0.062
Mof_H 	H 	0.2255	0.8721	0.4351	0.047
Mof_H 	H 	0.2821	0.9461	0.5119	0.054
Mof_C 	C 	0.1637	0.8718	0.558	-0.117
Mof_H 	H 	0.1117	0.8191	0.5327	0.064
Mof_H 	H 	0.1568	0.9226	0.5449	0.045
Mof_C 	C 	0.219	0.981	0.675	-0.36
Mof_H 	H 	0.2798	0.0114	0.6544	0.119
Mof_H 	H 	0.2119	0.0074	0.7374	0.119
Mof_H 	H 	0.1838	0.9854	0.62	0.121
Mof_S 	S 	0.5179	0.1732	0.7842	0.061
Mof_Cu	Cu	0.1357	0.5809	0.63214	0.902
Mof_Cu	Cu	0.1353	0.5794	0.8884	0.902
Mof_O 	O 	0.1757	0.6418	0.7534	-0.491
Mof_O 	O 	0.2347	0.5564	0.6373	-0.479
Mof_O 	O 	0.2947	0.4947	0.5305	-0.328
Mof_O 	O 	0.7622	0.4368	0.3924	-0.498
Mof_O 	O 	0.7099	0.5149	0.466	-0.321
Mof_O 	O 	0.9778	0.424	0.405	-0.293
Mof_O 	O 	0.0156	0.5716	0.6131	-0.332
Mof_N 	N 	0.0998	0.5045	0.5105	-0.202
Mof_N 	N 	0.9074	0.5094	0.4886	-0.216
Mof_C 	C 	0.2315	0.5023	0.561	0.287
Mof_C 	C 	0.031	0.489	0.491	0.058
Mof_C 	C 	0.9826	0.5277	0.5396	0.154
Mof_C 	C 	0.764	0.478	0.467	0.324
Mof_C 	C 	0.8378	0.5208	0.538	-0.137
Mof_H 	H 	0.8546	0.5811	0.5592	0.08
Mof_C 	C 	0.7983	0.4525	0.6203	-0.037
Mof_H 	H 	0.7393	0.4429	0.6084	0.018
Mof_H 	H 	0.8203	0.4956	0.6763	0.051
Mof_C 	C 	0.767	0.377	0.693	-0.16
Mof_H 	H 	0.7334	0.3253	0.6495	0.066
Mof_H 	H 	0.7233	0.381	0.7364	0.061
Mof_C 	C 	0.867	0.283	0.714	-0.41
Mof_H 	H 	0.8822	0.3054	0.6439	0.149
Mof_H 	H 	0.8219	0.2218	0.7116	0.142
Mof_H 	H 	0.9183	0.2886	0.7484	0.133
Mof_S 	S 	0.1383	0.32	0.7	0.035
Mof_C 	C 	0.1414	0.4525	0.502	-0.087
Mof_H 	H 	0.1623	0.4656	0.43	0.07
Mof_C 	C 	0.118	0.363	0.507	-0.063
Mof_H 	H 	0.1279	0.3534	0.4351	0.047
Mof_H 	H 	0.0539	0.336	0.5119	0.054
Mof_C 	C 	0.1282	0.2919	0.558	-0.117
Mof_H 	H 	0.1809	0.2926	0.5327	0.064
Mof_H 	H 	0.0774	0.2342	0.5449	0.045
Mof_C 	C 	0.019	0.238	0.675	-0.36
Mof_H 	H 	0.9886	0.2684	0.6544	0.119
Mof_H 	H 	0.9926	0.2045	0.7374	0.118
Mof_H 	H 	0.0146	0.1984	0.62	0.121
Mof_S 	S 	0.8268	0.3447	0.7842	0.061
Mof_Ca	Ca	0.66667	0.33333	0.2541	1.38
Mof_Ca	Ca	0.33333	0.66667	0.7541	1.378
_end
