data_functionalizedCrystal
_audit_creation_method	'EQeq! by Chris Wilmer'
_symmetry_space_group_name_H-M	'P1'
_symmetry_Int_Tables_number	1
_symmetry_cell_setting	triclinic
loop_
_symmetry_equiv_pos_as_xyz
  x,y,z
_cell_length_a	14.195
_cell_length_b	14.644
_cell_length_c	29.175
_cell_angle_alpha	90
_cell_angle_beta	90
_cell_angle_gamma	90
loop_
_atom_site_label
_atom_site_type_symbol
_atom_site_fract_x
_atom_site_fract_y
_atom_site_fract_z
_atom_site_charge
Mof_N 	N 	0.2597	0.1513	0.4512	-0.187
Mof_N 	N 	0.2571	0.1497	0.2986	-0.187
Mof_C 	C 	0.2665	0.0959	0.4236	0.036
Mof_C 	C 	0.2654	0.0955	0.3263	0.038
Mof_C 	C 	0.0483	0.174	0.2576	0.008
Mof_H 	H 	0.0803	0.1182	0.2633	0.021
Mof_N 	N 	0.2597	0.6513	0.9512	-0.172
Mof_N 	N 	0.2571	0.6497	0.7986	-0.185
Mof_C 	C 	0.2665	0.5959	0.9236	0.042
Mof_C 	C 	0.2654	0.5955	0.8263	0.037
Mof_C 	C 	0.0483	0.674	0.7576	0.009
Mof_H 	H 	0.0803	0.6182	0.7633	0.023
Mof_N 	N 	0.7597	0.1513	0.9512	-0.173
Mof_N 	N 	0.7571	0.1497	0.7986	-0.187
Mof_C 	C 	0.7665	0.0959	0.9236	0.043
Mof_C 	C 	0.7654	0.0955	0.8263	0.038
Mof_C 	C 	0.5483	0.174	0.7576	0.008
Mof_H 	H 	0.5803	0.1182	0.7633	0.021
Mof_N 	N 	0.7597	0.6513	0.4512	-0.186
Mof_N 	N 	0.7571	0.6497	0.2986	-0.186
Mof_C 	C 	0.7665	0.5959	0.4236	0.035
Mof_C 	C 	0.7654	0.5955	0.3263	0.036
Mof_C 	C 	0.5483	0.674	0.2576	0.008
Mof_H 	H 	0.5803	0.6182	0.2633	0.023
Mof_N 	N 	0.7403	0.8487	0.4512	-0.189
Mof_N 	N 	0.7429	0.8503	0.2986	-0.188
Mof_C 	C 	0.7335	0.9041	0.4236	0.051
Mof_C 	C 	0.7346	0.9045	0.3263	0.052
Mof_C 	C 	0.9517	0.826	0.2576	0.009
Mof_H 	H 	0.9197	0.8818	0.2633	0.026
Mof_N 	N 	0.7403	0.3487	0.9512	-0.172
Mof_N 	N 	0.7429	0.3503	0.7986	-0.185
Mof_C 	C 	0.7335	0.4041	0.9236	0.042
Mof_C 	C 	0.7346	0.4045	0.8263	0.037
Mof_C 	C 	0.9517	0.326	0.7576	0.008
Mof_H 	H 	0.9197	0.3818	0.7633	0.023
Mof_N 	N 	0.2403	0.8487	0.9512	-0.175
Mof_N 	N 	0.2429	0.8503	0.7986	-0.188
Mof_C 	C 	0.2335	0.9041	0.9236	0.058
Mof_C 	C 	0.2346	0.9045	0.8263	0.053
Mof_C 	C 	0.4517	0.826	0.7576	0.009
Mof_H 	H 	0.4197	0.8818	0.7633	0.026
Mof_N 	N 	0.2403	0.3487	0.4512	-0.186
Mof_N 	N 	0.2429	0.3503	0.2986	-0.186
Mof_C 	C 	0.2335	0.4041	0.4236	0.034
Mof_C 	C 	0.2346	0.4045	0.3263	0.036
Mof_C 	C 	0.4517	0.326	0.2576	0.008
Mof_H 	H 	0.4197	0.3818	0.2633	0.023
Mof_N 	N 	0.7403	0.1513	0.5488	-0.188
Mof_N 	N 	0.7429	0.1497	0.7014	-0.187
Mof_C 	C 	0.7335	0.0959	0.5764	0.036
Mof_C 	C 	0.7346	0.0955	0.6737	0.037
Mof_C 	C 	0.9517	0.174	0.7424	0.008
Mof_H 	H 	0.9197	0.1182	0.7367	0.021
Mof_N 	N 	0.7403	0.6513	0.0488	-0.186
Mof_N 	N 	0.7429	0.6497	0.2014	-0.186
Mof_C 	C 	0.7335	0.5959	0.0764	0.033
Mof_C 	C 	0.7346	0.5955	0.1737	0.036
Mof_C 	C 	0.9517	0.674	0.2424	0.008
Mof_H 	H 	0.9197	0.6182	0.2367	0.023
Mof_N 	N 	0.2403	0.1513	0.0488	-0.187
Mof_N 	N 	0.2429	0.1497	0.2014	-0.187
Mof_C 	C 	0.2335	0.0959	0.0764	0.034
Mof_C 	C 	0.2346	0.0955	0.1737	0.038
Mof_C 	C 	0.4517	0.174	0.2424	0.008
Mof_H 	H 	0.4197	0.1182	0.2367	0.021
Mof_N 	N 	0.2403	0.6513	0.5488	-0.186
Mof_N 	N 	0.2429	0.6497	0.7014	-0.186
Mof_C 	C 	0.2335	0.5959	0.5764	0.035
Mof_C 	C 	0.2346	0.5955	0.6737	0.036
Mof_C 	C 	0.4517	0.674	0.7424	0.009
Mof_H 	H 	0.4197	0.6182	0.7367	0.023
Mof_N 	N 	0.2597	0.8487	0.5488	-0.189
Mof_N 	N 	0.2571	0.8503	0.7014	-0.188
Mof_C 	C 	0.2665	0.9041	0.5764	0.051
Mof_C 	C 	0.2654	0.9045	0.6737	0.052
Mof_C 	C 	0.0483	0.826	0.7424	0.009
Mof_H 	H 	0.0803	0.8818	0.7367	0.026
Mof_N 	N 	0.2597	0.3487	0.0488	-0.185
Mof_N 	N 	0.2571	0.3503	0.2014	-0.185
Mof_C 	C 	0.2665	0.4041	0.0764	0.033
Mof_C 	C 	0.2654	0.4045	0.1737	0.036
Mof_C 	C 	0.0483	0.326	0.2424	0.008
Mof_H 	H 	0.0803	0.3818	0.2367	0.023
Mof_N 	N 	0.7597	0.8487	0.0488	-0.188
Mof_N 	N 	0.7571	0.8503	0.2014	-0.188
Mof_C 	C 	0.7665	0.9041	0.0764	0.049
Mof_C 	C 	0.7654	0.9045	0.1737	0.052
Mof_C 	C 	0.5483	0.826	0.2424	0.009
Mof_H 	H 	0.5803	0.8818	0.2367	0.026
Mof_N 	N 	0.7597	0.3487	0.5488	-0.186
Mof_N 	N 	0.7571	0.3503	0.7014	-0.186
Mof_C 	C 	0.7665	0.4041	0.5764	0.034
Mof_C 	C 	0.7654	0.4045	0.6737	0.036
Mof_C 	C 	0.5483	0.326	0.7424	0.008
Mof_H 	H 	0.5803	0.3818	0.7367	0.023
Mof_N 	N 	0.7403	0.8487	0.5488	-0.189
Mof_N 	N 	0.7429	0.8503	0.7014	-0.188
Mof_C 	C 	0.7335	0.9041	0.5764	0.051
Mof_C 	C 	0.7346	0.9045	0.6737	0.052
Mof_C 	C 	0.9517	0.826	0.7424	0.009
Mof_H 	H 	0.9197	0.8818	0.7367	0.026
Mof_N 	N 	0.7403	0.3487	0.0488	-0.185
Mof_N 	N 	0.7429	0.3503	0.2014	-0.185
Mof_C 	C 	0.7335	0.4041	0.0764	0.033
Mof_C 	C 	0.7346	0.4045	0.1737	0.036
Mof_C 	C 	0.9517	0.326	0.2424	0.008
Mof_H 	H 	0.9197	0.3818	0.2367	0.023
Mof_N 	N 	0.2403	0.8487	0.0488	-0.188
Mof_N 	N 	0.2429	0.8503	0.2014	-0.188
Mof_C 	C 	0.2335	0.9041	0.0764	0.049
Mof_C 	C 	0.2346	0.9045	0.1737	0.052
Mof_C 	C 	0.4517	0.826	0.2424	0.009
Mof_H 	H 	0.4197	0.8818	0.2367	0.026
Mof_N 	N 	0.2403	0.3487	0.5488	-0.186
Mof_N 	N 	0.2429	0.3503	0.7014	-0.186
Mof_C 	C 	0.2335	0.4041	0.5764	0.034
Mof_C 	C 	0.2346	0.4045	0.6737	0.036
Mof_C 	C 	0.4517	0.326	0.7424	0.008
Mof_H 	H 	0.4197	0.3818	0.7367	0.023
Mof_N 	N 	0.2597	0.1513	0.5488	-0.188
Mof_N 	N 	0.2571	0.1497	0.7014	-0.187
Mof_C 	C 	0.2665	0.0959	0.5764	0.036
Mof_C 	C 	0.2654	0.0955	0.6737	0.037
Mof_C 	C 	0.0483	0.174	0.7424	0.008
Mof_H 	H 	0.0803	0.1182	0.7367	0.021
Mof_N 	N 	0.2597	0.6513	0.0488	-0.186
Mof_N 	N 	0.2571	0.6497	0.2014	-0.186
Mof_C 	C 	0.2665	0.5959	0.0764	0.033
Mof_C 	C 	0.2654	0.5955	0.1737	0.036
Mof_C 	C 	0.0483	0.674	0.2424	0.008
Mof_H 	H 	0.0803	0.6182	0.2367	0.023
Mof_N 	N 	0.7597	0.1513	0.0488	-0.187
Mof_N 	N 	0.7571	0.1497	0.2014	-0.187
Mof_C 	C 	0.7665	0.0959	0.0764	0.034
Mof_C 	C 	0.7654	0.0955	0.1737	0.038
Mof_C 	C 	0.5483	0.174	0.2424	0.008
Mof_H 	H 	0.5803	0.1182	0.2367	0.021
Mof_N 	N 	0.7597	0.6513	0.5488	-0.186
Mof_N 	N 	0.7571	0.6497	0.7014	-0.186
Mof_C 	C 	0.7665	0.5959	0.5764	0.035
Mof_C 	C 	0.7654	0.5955	0.6737	0.036
Mof_C 	C 	0.5483	0.674	0.7424	0.009
Mof_H 	H 	0.5803	0.6182	0.7367	0.023
Mof_N 	N 	0.2597	0.8487	0.4512	-0.189
Mof_N 	N 	0.2571	0.8503	0.2986	-0.188
Mof_C 	C 	0.2665	0.9041	0.4236	0.051
Mof_C 	C 	0.2654	0.9045	0.3263	0.052
Mof_C 	C 	0.0483	0.826	0.2576	0.009
Mof_H 	H 	0.0803	0.8818	0.2633	0.026
Mof_N 	N 	0.2597	0.3487	0.9512	-0.172
Mof_N 	N 	0.2571	0.3503	0.7986	-0.185
Mof_C 	C 	0.2665	0.4041	0.9236	0.042
Mof_C 	C 	0.2654	0.4045	0.8263	0.037
Mof_C 	C 	0.0483	0.326	0.7576	0.008
Mof_H 	H 	0.0803	0.3818	0.7633	0.023
Mof_N 	N 	0.7597	0.8487	0.9512	-0.175
Mof_N 	N 	0.7571	0.8503	0.7986	-0.188
Mof_C 	C 	0.7665	0.9041	0.9236	0.058
Mof_C 	C 	0.7654	0.9045	0.8263	0.053
Mof_C 	C 	0.5483	0.826	0.7576	0.009
Mof_H 	H 	0.5803	0.8818	0.7633	0.026
Mof_N 	N 	0.7597	0.3487	0.4512	-0.186
Mof_N 	N 	0.7571	0.3503	0.2986	-0.186
Mof_C 	C 	0.7665	0.4041	0.4236	0.034
Mof_C 	C 	0.7654	0.4045	0.3263	0.036
Mof_C 	C 	0.5483	0.326	0.2576	0.008
Mof_H 	H 	0.5803	0.3818	0.2633	0.023
Mof_N 	N 	0.7403	0.1513	0.4512	-0.187
Mof_N 	N 	0.7429	0.1497	0.2986	-0.187
Mof_C 	C 	0.7335	0.0959	0.4236	0.036
Mof_C 	C 	0.7346	0.0955	0.3263	0.038
Mof_C 	C 	0.9517	0.174	0.2576	0.008
Mof_H 	H 	0.9197	0.1182	0.2633	0.021
Mof_N 	N 	0.7403	0.6513	0.9512	-0.172
Mof_N 	N 	0.7429	0.6497	0.7986	-0.185
Mof_C 	C 	0.7335	0.5959	0.9236	0.042
Mof_C 	C 	0.7346	0.5955	0.8263	0.037
Mof_C 	C 	0.9517	0.674	0.7576	0.009
Mof_H 	H 	0.9197	0.6182	0.7633	0.023
Mof_N 	N 	0.2403	0.1513	0.9512	-0.173
Mof_N 	N 	0.2429	0.1497	0.7986	-0.187
Mof_C 	C 	0.2335	0.0959	0.9236	0.043
Mof_C 	C 	0.2346	0.0955	0.8263	0.038
Mof_C 	C 	0.4517	0.174	0.7576	0.008
Mof_H 	H 	0.4197	0.1182	0.7633	0.021
Mof_N 	N 	0.2403	0.6513	0.4512	-0.186
Mof_N 	N 	0.2429	0.6497	0.2986	-0.186
Mof_C 	C 	0.2335	0.5959	0.4236	0.035
Mof_C 	C 	0.2346	0.5955	0.3263	0.036
Mof_C 	C 	0.4517	0.674	0.2576	0.008
Mof_H 	H 	0.4197	0.6182	0.2633	0.023
Mof_Pt	Pt	0.2695	8.32481e-33	0.37497	0.074
Mof_Pt	Pt	0.2695	0.5	0.87497	0.114
Mof_Pt	Pt	0.7695	0	0.87497	0.082
Mof_Pt	Pt	0.7695	0.5	0.37497	0.106
Mof_Pt	Pt	0.7305	8.32481e-33	0.37497	0.074
Mof_Pt	Pt	0.7305	0.5	0.87497	0.114
Mof_Pt	Pt	0.2305	0	0.87497	0.082
Mof_Pt	Pt	0.2305	0.5	0.37497	0.106
Mof_Pt	Pt	0.7305	0	0.62503	0.074
Mof_Pt	Pt	0.7305	0.5	0.12503	0.106
Mof_Pt	Pt	0.2305	2.0812e-33	0.12503	0.075
Mof_Pt	Pt	0.2305	0.5	0.62503	0.106
Mof_Pt	Pt	0.2695	0	0.62503	0.074
Mof_Pt	Pt	0.2695	0.5	0.12503	0.106
Mof_Pt	Pt	0.7695	2.0812e-33	0.12503	0.075
Mof_Pt	Pt	0.7695	0.5	0.62503	0.106
Mof_Fe	Fe	0.25	0.25	0.5	0.704
Mof_Fe	Fe	0.25	0.75	-0	0.683
Mof_Fe	Fe	0.75	0.75	0.5	0.707
Mof_Fe	Fe	0.75	0.25	-0	0.68
Mof_Fe	Fe	0.75	0.25	0.5	0.704
Mof_Fe	Fe	0.75	0.75	-0	0.683
Mof_Fe	Fe	0.25	0.25	-0	0.68
Mof_Fe	Fe	0.25	0.75	0.5	0.707
Mof_Fe	Fe	0.25	0.25	0.25	0.696
Mof_Fe	Fe	0.75	0.75	0.25	0.699
Mof_Fe	Fe	0.75	0.25	0.75	0.696
Mof_Fe	Fe	0.25	0.75	0.75	0.699
Mof_Fe	Fe	0.75	0.75	0.75	0.699
Mof_Fe	Fe	0.75	0.25	0.25	0.696
Mof_Fe	Fe	0.25	0.75	0.25	0.699
Mof_Fe	Fe	0.25	0.25	0.75	0.696
Mof_N 	N 	0.1021	0.2437	0.5	-0.165
Mof_C 	C 	0.0494	0.1672	0.5	0.009
Mof_C 	C 	0.0495	0.3209	0.5	0.007
Mof_H 	H 	0.081	0.11	0.5	0.019
Mof_H 	H 	0.0813	0.378	0.5	0.024
Mof_N 	N 	0.1021	0.7437	-0	-0.167
Mof_C 	C 	0.0494	0.6672	-0	0.006
Mof_C 	C 	0.0495	0.8209	-0	0.005
Mof_H 	H 	0.081	0.61	-0	0.018
Mof_H 	H 	0.0813	0.878	-0	0.022
Mof_N 	N 	0.6021	0.2437	-0	-0.167
Mof_C 	C 	0.5494	0.1672	-0	0.006
Mof_C 	C 	0.5495	0.3209	-0	0.004
Mof_H 	H 	0.581	0.11	-0	0.015
Mof_H 	H 	0.5813	0.378	-0	0.019
Mof_N 	N 	0.6021	0.7437	0.5	-0.165
Mof_C 	C 	0.5494	0.6672	0.5	0.009
Mof_C 	C 	0.5495	0.8209	0.5	0.008
Mof_H 	H 	0.581	0.61	0.5	0.022
Mof_H 	H 	0.5813	0.878	0.5	0.026
Mof_N 	N 	0.8979	0.7563	0.5	-0.165
Mof_C 	C 	0.9506	0.8328	0.5	0.01
Mof_C 	C 	0.9505	0.6791	0.5	0.008
Mof_H 	H 	0.919	0.89	0.5	0.025
Mof_H 	H 	0.9187	0.622	0.5	0.023
Mof_N 	N 	0.8979	0.2563	-0	-0.167
Mof_C 	C 	0.9506	0.3328	-0	0.006
Mof_C 	C 	0.9505	0.1791	-0	0.004
Mof_H 	H 	0.919	0.39	-0	0.018
Mof_H 	H 	0.9187	0.122	-0	0.017
Mof_N 	N 	0.3979	0.7563	-0	-0.167
Mof_C 	C 	0.4506	0.8328	-0	0.007
Mof_C 	C 	0.4505	0.6791	-0	0.005
Mof_H 	H 	0.419	0.89	-0	0.021
Mof_H 	H 	0.4187	0.622	-0	0.019
Mof_N 	N 	0.3979	0.2563	0.5	-0.165
Mof_C 	C 	0.4506	0.3328	0.5	0.009
Mof_C 	C 	0.4505	0.1791	0.5	0.007
Mof_H 	H 	0.419	0.39	0.5	0.022
Mof_H 	H 	0.4187	0.122	0.5	0.021
Mof_N 	N 	0.8979	0.2437	0.5	-0.165
Mof_C 	C 	0.9506	0.1672	0.5	0.009
Mof_C 	C 	0.9505	0.3209	0.5	0.007
Mof_H 	H 	0.919	0.11	0.5	0.019
Mof_H 	H 	0.9187	0.378	0.5	0.024
Mof_N 	N 	0.8979	0.7437	-0	-0.167
Mof_C 	C 	0.9506	0.6672	-0	0.006
Mof_C 	C 	0.9505	0.8209	-0	0.005
Mof_H 	H 	0.919	0.61	-0	0.018
Mof_H 	H 	0.9187	0.878	-0	0.022
Mof_N 	N 	0.3979	0.2437	-0	-0.167
Mof_C 	C 	0.4506	0.1672	-0	0.006
Mof_C 	C 	0.4505	0.3209	-0	0.004
Mof_H 	H 	0.419	0.11	-0	0.015
Mof_H 	H 	0.4187	0.378	-0	0.019
Mof_N 	N 	0.3979	0.7437	0.5	-0.165
Mof_C 	C 	0.4506	0.6672	0.5	0.009
Mof_C 	C 	0.4505	0.8209	0.5	0.008
Mof_H 	H 	0.419	0.61	0.5	0.022
Mof_H 	H 	0.4187	0.878	0.5	0.026
Mof_N 	N 	0.1021	0.7563	0.5	-0.165
Mof_C 	C 	0.0494	0.8328	0.5	0.01
Mof_C 	C 	0.0495	0.6791	0.5	0.008
Mof_H 	H 	0.081	0.89	0.5	0.025
Mof_H 	H 	0.0813	0.622	0.5	0.023
Mof_N 	N 	0.1021	0.2563	-0	-0.167
Mof_C 	C 	0.0494	0.3328	-0	0.006
Mof_C 	C 	0.0495	0.1791	-0	0.004
Mof_H 	H 	0.081	0.39	-0	0.018
Mof_H 	H 	0.0813	0.122	-0	0.017
Mof_N 	N 	0.6021	0.7563	-0	-0.167
Mof_C 	C 	0.5494	0.8328	-0	0.007
Mof_C 	C 	0.5495	0.6791	-0	0.005
Mof_H 	H 	0.581	0.89	-0	0.021
Mof_H 	H 	0.5813	0.622	-0	0.019
Mof_N 	N 	0.6021	0.2563	0.5	-0.165
Mof_C 	C 	0.5494	0.3328	0.5	0.009
Mof_C 	C 	0.5495	0.1791	0.5	0.007
Mof_H 	H 	0.581	0.39	0.5	0.022
Mof_H 	H 	0.5813	0.122	0.5	0.021
Mof_N 	N 	0.0999	0.25	0.25	-0.162
Mof_N 	N 	0.5999	0.25	0.75	-0.162
Mof_N 	N 	0.9001	0.75	0.25	-0.162
Mof_N 	N 	0.4001	0.75	0.75	-0.162
Mof_N 	N 	0.4001	0.25	0.25	-0.162
Mof_N 	N 	0.9001	0.25	0.75	-0.162
Mof_N 	N 	0.0999	0.75	0.75	-0.162
Mof_N 	N 	0.5999	0.75	0.25	-0.162
Mof_N 	N 	0.9001	0.75	0.75	-0.162
Mof_N 	N 	0.9001	0.25	0.25	-0.162
Mof_N 	N 	0.4001	0.75	0.25	-0.162
Mof_N 	N 	0.0999	0.25	0.75	-0.162
Mof_N 	N 	0.5999	0.25	0.25	-0.162
Mof_N 	N 	0.0999	0.75	0.25	-0.162
Mof_N 	N 	0.5999	0.75	0.75	-0.162
Mof_N 	N 	0.4001	0.25	0.75	-0.162
_end
