# CIF file generated by openbabel 3.1.0, see https://openbabel.org
data_I
_chemical_name_common 'image0'
_cell_length_a 22.0121
_cell_length_b 16.5301
_cell_length_c 25.6641
_cell_angle_alpha 90
_cell_angle_beta 115.386
_cell_angle_gamma 90
_space_group_name_H-M_alt 'P 1'
_space_group_name_Hall 'P 1'
loop_
    _symmetry_equiv_pos_as_xyz
    x,y,z
loop_
    _atom_site_label
    _atom_site_type_symbol
    _atom_site_fract_x
    _atom_site_fract_y
    _atom_site_fract_z
    _atom_site_occupancy
    Ag1      Ag       0.77392    0.70883    0.36825    1.000
    Ag2      Ag       0.29482    0.00096    0.86769    1.000
    C1       C        0.92314    0.40050    0.89264    1.000
    H1       H        0.90380    0.40560    0.85270    1.000
    C2       C        0.12800    0.06180    0.41127    1.000
    H2       H        0.08560    0.03980    0.39000    1.000
    C3       C        0.15399    0.21930    0.00136    1.000
    C4       C        0.12825    0.00720    0.50256    1.000
    C5       C        0.90320    0.81670    0.38908    1.000
    H3       H        0.88510    0.81060    0.34920    1.000
    C6       C        0.98160    0.38720    0.00948    1.000
    H4       H        0.00070    0.38420    0.04950    1.000
    C7       C        0.07521    0.30080    0.00726    1.000
    C8       C        0.15995    0.05260    0.47042    1.000
    C9       C        0.24355    0.13350    0.99678    1.000
    H5       H        0.26420    0.13320    0.03690    1.000
    C10      C        0.22330    0.08630    0.49984    1.000
    H6       H        0.24610    0.08170    0.53970    1.000
    C11      C        0.15821    0.98670    0.65163    1.000
    C12      C        0.96090    0.86160    0.41588    1.000
    H7       H        0.98100    0.88510    0.39420    1.000
    C13      C        0.12806    0.97630    0.58826    1.000
    C14      C        0.27190    0.09260    0.96567    1.000
    H8       H        0.31210    0.06510    0.98590    1.000
    C15      C        0.25200    0.12640    0.46950    1.000
    H9       H        0.29450    0.14870    0.48980    1.000
    C16      C        0.05010    0.92270    0.50587    1.000
    C17      C        0.27960    0.19830    0.24060    1.000
    H10      H        0.32160    0.17430    0.25970    1.000
    C18      C        0.18403    0.17490    0.96727    1.000
    C19      C        0.19040    0.24260    0.15193    1.000
    C20      C        0.98206    0.35820    0.91884    1.000
    H11      H        0.00150    0.33490    0.89670    1.000
    C21      C        0.15897    0.25250    0.08851    1.000
    C22      C        0.16070    0.10480    0.38433    1.000
    H12      H        0.13830    0.11270    0.34470    1.000
    C23      C        0.18670    0.25730    0.24280    1.000
    H13      H        0.16370    0.27480    0.26380    1.000
    C24      C        0.95710    0.83390    0.50536    1.000
    H14      H        0.97470    0.83780    0.54530    1.000
    C25      C        0.25290    0.20720    0.18124    1.000
    H15      H        0.27690    0.18940    0.16120    1.000
    C26      C        0.21210    0.03790    0.67840    1.000
    H16      H        0.22840    0.06830    0.65660    1.000
    C27      C        0.01259    0.35010    0.97803    1.000
    C28      C        0.24170    0.04370    0.73760    1.000
    H17      H        0.27750    0.07930    0.75490    1.000
    C29      C        0.15650    0.26830    0.18410    1.000
    H18      H        0.11430    0.29230    0.16620    1.000
    C30      C        0.89900    0.79070    0.47471    1.000
    H19      H        0.87760    0.76690    0.49520    1.000
    C31      C        0.92210    0.42840    0.97970    1.000
    H20      H        0.90190    0.45290    0.00090    1.000
    C32      C        0.13370    0.94500    0.68550    1.000
    H21      H        0.09590    0.91210    0.66890    1.000
    C33      C        0.98914    0.87200    0.47483    1.000
    C34      C        0.15530    0.17460    0.90776    1.000
    H22      H        0.11590    0.20310    0.88680    1.000
    C35      C        0.16680    0.95350    0.74420    1.000
    H23      H        0.15040    0.92480    0.76660    1.000
    C36      C        0.18640    0.13100    0.87999    1.000
    H24      H        0.16590    0.12960    0.83990    1.000
    N1       N        0.87141    0.78090    0.41769    1.000
    N2       N        0.22223    0.13540    0.41198    1.000
    N3       N        0.22110    0.00020    0.77175    1.000
    N4       N        0.07457    0.96080    0.47277    1.000
    N5       N        0.15590    0.01840    0.55942    1.000
    N6       N        0.07492    0.92760    0.56312    1.000
    N7       N        0.24452    0.09050    0.90771    1.000
    N8       N        0.24695    0.22320    0.27181    1.000
    N9       N        0.89169    0.43540    0.92207    1.000
    N10      N        0.09757    0.26050    0.97338    1.000
    N11      N        0.18686    0.21270    0.05897    1.000
    N12      N        0.10392    0.29900    0.06458    1.000
    Ag3      Ag       0.27392    0.20883    0.36825    1.000
    Ag4      Ag       0.79482    0.50096    0.86769    1.000
    C37      C        0.42314    0.90050    0.89264    1.000
    H25      H        0.40380    0.90560    0.85270    1.000
    C38      C        0.62800    0.56180    0.41127    1.000
    H26      H        0.58560    0.53980    0.39000    1.000
    C39      C        0.65399    0.71930    0.00136    1.000
    C40      C        0.62825    0.50720    0.50256    1.000
    C41      C        0.40320    0.31670    0.38908    1.000
    H27      H        0.38510    0.31060    0.34920    1.000
    C42      C        0.48160    0.88720    0.00948    1.000
    H28      H        0.50070    0.88420    0.04950    1.000
    C43      C        0.57521    0.80080    0.00726    1.000
    C44      C        0.65995    0.55260    0.47042    1.000
    C45      C        0.74355    0.63350    0.99678    1.000
    H29      H        0.76420    0.63320    0.03690    1.000
    C46      C        0.72330    0.58630    0.49984    1.000
    H30      H        0.74610    0.58170    0.53970    1.000
    C47      C        0.65821    0.48670    0.65163    1.000
    C48      C        0.46090    0.36160    0.41588    1.000
    H31      H        0.48100    0.38510    0.39420    1.000
    C49      C        0.62806    0.47630    0.58826    1.000
    C50      C        0.77190    0.59260    0.96567    1.000
    H32      H        0.81210    0.56510    0.98590    1.000
    C51      C        0.75200    0.62640    0.46950    1.000
    H33      H        0.79450    0.64870    0.48980    1.000
    C52      C        0.55010    0.42270    0.50587    1.000
    C53      C        0.77960    0.69830    0.24060    1.000
    H34      H        0.82160    0.67430    0.25970    1.000
    C54      C        0.68403    0.67490    0.96727    1.000
    C55      C        0.69040    0.74260    0.15193    1.000
    C56      C        0.48206    0.85820    0.91884    1.000
    H35      H        0.50150    0.83490    0.89670    1.000
    C57      C        0.65897    0.75250    0.08851    1.000
    C58      C        0.66070    0.60480    0.38433    1.000
    H36      H        0.63830    0.61270    0.34470    1.000
    C59      C        0.68670    0.75730    0.24280    1.000
    H37      H        0.66370    0.77480    0.26380    1.000
    C60      C        0.45710    0.33390    0.50536    1.000
    H38      H        0.47470    0.33780    0.54530    1.000
    C61      C        0.75290    0.70720    0.18124    1.000
    H39      H        0.77690    0.68940    0.16120    1.000
    C62      C        0.71210    0.53790    0.67840    1.000
    H40      H        0.72840    0.56830    0.65660    1.000
    C63      C        0.51259    0.85010    0.97803    1.000
    C64      C        0.74170    0.54370    0.73760    1.000
    H41      H        0.77750    0.57930    0.75490    1.000
    C65      C        0.65650    0.76830    0.18410    1.000
    H42      H        0.61430    0.79230    0.16620    1.000
    C66      C        0.39900    0.29070    0.47471    1.000
    H43      H        0.37760    0.26690    0.49520    1.000
    C67      C        0.42210    0.92840    0.97970    1.000
    H44      H        0.40190    0.95290    0.00090    1.000
    C68      C        0.63370    0.44500    0.68550    1.000
    H45      H        0.59590    0.41210    0.66890    1.000
    C69      C        0.48914    0.37200    0.47483    1.000
    C70      C        0.65530    0.67460    0.90776    1.000
    H46      H        0.61590    0.70310    0.88680    1.000
    C71      C        0.66680    0.45350    0.74420    1.000
    H47      H        0.65040    0.42480    0.76660    1.000
    C72      C        0.68640    0.63100    0.87999    1.000
    H48      H        0.66590    0.62960    0.83990    1.000
    N13      N        0.37141    0.28090    0.41769    1.000
    N14      N        0.72223    0.63540    0.41198    1.000
    N15      N        0.72110    0.50020    0.77175    1.000
    N16      N        0.57457    0.46080    0.47277    1.000
    N17      N        0.65590    0.51840    0.55942    1.000
    N18      N        0.57492    0.42760    0.56312    1.000
    N19      N        0.74452    0.59050    0.90771    1.000
    N20      N        0.74695    0.72320    0.27181    1.000
    N21      N        0.39169    0.93540    0.92207    1.000
    N22      N        0.59757    0.76050    0.97338    1.000
    N23      N        0.68686    0.71270    0.05897    1.000
    N24      N        0.60392    0.79900    0.06458    1.000
    Ag5      Ag       0.22608    0.70883    0.13175    1.000
    Ag6      Ag       0.70518    0.00096    0.63231    1.000
    C73      C        0.07686    0.40050    0.60736    1.000
    H49      H        0.09620    0.40560    0.64730    1.000
    C74      C        0.87200    0.06180    0.08873    1.000
    H50      H        0.91440    0.03980    0.11000    1.000
    C75      C        0.84601    0.21930    0.49864    1.000
    C76      C        0.87175    0.00720    0.99744    1.000
    C77      C        0.09680    0.81670    0.11092    1.000
    H51      H        0.11490    0.81060    0.15080    1.000
    C78      C        0.01840    0.38720    0.49052    1.000
    H52      H        0.99930    0.38420    0.45050    1.000
    C79      C        0.92479    0.30080    0.49274    1.000
    C80      C        0.84005    0.05260    0.02958    1.000
    C81      C        0.75645    0.13350    0.50322    1.000
    H53      H        0.73580    0.13320    0.46310    1.000
    C82      C        0.77670    0.08630    0.00016    1.000
    H54      H        0.75390    0.08170    0.96030    1.000
    C83      C        0.84179    0.98670    0.84837    1.000
    C84      C        0.03910    0.86160    0.08412    1.000
    H55      H        0.01900    0.88510    0.10580    1.000
    C85      C        0.87194    0.97630    0.91174    1.000
    C86      C        0.72810    0.09260    0.53433    1.000
    H56      H        0.68790    0.06510    0.51410    1.000
    C87      C        0.74800    0.12640    0.03050    1.000
    H57      H        0.70550    0.14870    0.01020    1.000
    C88      C        0.94990    0.92270    0.99413    1.000
    C89      C        0.72040    0.19830    0.25940    1.000
    H58      H        0.67840    0.17430    0.24030    1.000
    C90      C        0.81597    0.17490    0.53273    1.000
    C91      C        0.80960    0.24260    0.34807    1.000
    C92      C        0.01794    0.35820    0.58116    1.000
    H59      H        0.99850    0.33490    0.60330    1.000
    C93      C        0.84103    0.25250    0.41149    1.000
    C94      C        0.83930    0.10480    0.11567    1.000
    H60      H        0.86170    0.11270    0.15530    1.000
    C95      C        0.81330    0.25730    0.25720    1.000
    H61      H        0.83630    0.27480    0.23620    1.000
    C96      C        0.04290    0.83390    0.99464    1.000
    H62      H        0.02530    0.83780    0.95470    1.000
    C97      C        0.74710    0.20720    0.31876    1.000
    H63      H        0.72310    0.18940    0.33880    1.000
    C98      C        0.78790    0.03790    0.82160    1.000
    H64      H        0.77160    0.06830    0.84340    1.000
    C99      C        0.98741    0.35010    0.52197    1.000
    C100     C        0.75830    0.04370    0.76240    1.000
    H65      H        0.72250    0.07930    0.74510    1.000
    C101     C        0.84350    0.26830    0.31590    1.000
    H66      H        0.88570    0.29230    0.33380    1.000
    C102     C        0.10100    0.79070    0.02529    1.000
    H67      H        0.12240    0.76690    0.00480    1.000
    C103     C        0.07790    0.42840    0.52030    1.000
    H68      H        0.09810    0.45290    0.49910    1.000
    C104     C        0.86630    0.94500    0.81450    1.000
    H69      H        0.90410    0.91210    0.83110    1.000
    C105     C        0.01086    0.87200    0.02517    1.000
    C106     C        0.84470    0.17460    0.59224    1.000
    H70      H        0.88410    0.20310    0.61320    1.000
    C107     C        0.83320    0.95350    0.75580    1.000
    H71      H        0.84960    0.92480    0.73340    1.000
    C108     C        0.81360    0.13100    0.62001    1.000
    H72      H        0.83410    0.12960    0.66010    1.000
    N25      N        0.12859    0.78090    0.08231    1.000
    N26      N        0.77777    0.13540    0.08802    1.000
    N27      N        0.77890    0.00020    0.72825    1.000
    N28      N        0.92543    0.96080    0.02723    1.000
    N29      N        0.84410    0.01840    0.94058    1.000
    N30      N        0.92508    0.92760    0.93688    1.000
    N31      N        0.75548    0.09050    0.59229    1.000
    N32      N        0.75305    0.22320    0.22819    1.000
    N33      N        0.10831    0.43540    0.57793    1.000
    N34      N        0.90243    0.26050    0.52662    1.000
    N35      N        0.81314    0.21270    0.44103    1.000
    N36      N        0.89608    0.29900    0.43542    1.000
    Ag7      Ag       0.72608    0.20883    0.13175    1.000
    Ag8      Ag       0.20518    0.50096    0.63231    1.000
    C109     C        0.57686    0.90050    0.60736    1.000
    H73      H        0.59620    0.90560    0.64730    1.000
    C110     C        0.37200    0.56180    0.08873    1.000
    H74      H        0.41440    0.53980    0.11000    1.000
    C111     C        0.34601    0.71930    0.49864    1.000
    C112     C        0.37175    0.50720    0.99744    1.000
    C113     C        0.59680    0.31670    0.11092    1.000
    H75      H        0.61490    0.31060    0.15080    1.000
    C114     C        0.51840    0.88720    0.49052    1.000
    H76      H        0.49930    0.88420    0.45050    1.000
    C115     C        0.42479    0.80080    0.49274    1.000
    C116     C        0.34005    0.55260    0.02958    1.000
    C117     C        0.25645    0.63350    0.50322    1.000
    H77      H        0.23580    0.63320    0.46310    1.000
    C118     C        0.27670    0.58630    0.00016    1.000
    H78      H        0.25390    0.58170    0.96030    1.000
    C119     C        0.34179    0.48670    0.84837    1.000
    C120     C        0.53910    0.36160    0.08412    1.000
    H79      H        0.51900    0.38510    0.10580    1.000
    C121     C        0.37194    0.47630    0.91174    1.000
    C122     C        0.22810    0.59260    0.53433    1.000
    H80      H        0.18790    0.56510    0.51410    1.000
    C123     C        0.24800    0.62640    0.03050    1.000
    H81      H        0.20550    0.64870    0.01020    1.000
    C124     C        0.44990    0.42270    0.99413    1.000
    C125     C        0.22040    0.69830    0.25940    1.000
    H82      H        0.17840    0.67430    0.24030    1.000
    C126     C        0.31597    0.67490    0.53273    1.000
    C127     C        0.30960    0.74260    0.34807    1.000
    C128     C        0.51794    0.85820    0.58116    1.000
    H83      H        0.49850    0.83490    0.60330    1.000
    C129     C        0.34103    0.75250    0.41149    1.000
    C130     C        0.33930    0.60480    0.11567    1.000
    H84      H        0.36170    0.61270    0.15530    1.000
    C131     C        0.31330    0.75730    0.25720    1.000
    H85      H        0.33630    0.77480    0.23620    1.000
    C132     C        0.54290    0.33390    0.99464    1.000
    H86      H        0.52530    0.33780    0.95470    1.000
    C133     C        0.24710    0.70720    0.31876    1.000
    H87      H        0.22310    0.68940    0.33880    1.000
    C134     C        0.28790    0.53790    0.82160    1.000
    H88      H        0.27160    0.56830    0.84340    1.000
    C135     C        0.48741    0.85010    0.52197    1.000
    C136     C        0.25830    0.54370    0.76240    1.000
    H89      H        0.22250    0.57930    0.74510    1.000
    C137     C        0.34350    0.76830    0.31590    1.000
    H90      H        0.38570    0.79230    0.33380    1.000
    C138     C        0.60100    0.29070    0.02529    1.000
    H91      H        0.62240    0.26690    0.00480    1.000
    C139     C        0.57790    0.92840    0.52030    1.000
    H92      H        0.59810    0.95290    0.49910    1.000
    C140     C        0.36630    0.44500    0.81450    1.000
    H93      H        0.40410    0.41210    0.83110    1.000
    C141     C        0.51086    0.37200    0.02517    1.000
    C142     C        0.34470    0.67460    0.59224    1.000
    H94      H        0.38410    0.70310    0.61320    1.000
    C143     C        0.33320    0.45350    0.75580    1.000
    H95      H        0.34960    0.42480    0.73340    1.000
    C144     C        0.31360    0.63100    0.62001    1.000
    H96      H        0.33410    0.62960    0.66010    1.000
    N37      N        0.62859    0.28090    0.08231    1.000
    N38      N        0.27777    0.63540    0.08802    1.000
    N39      N        0.27890    0.50020    0.72825    1.000
    N40      N        0.42543    0.46080    0.02723    1.000
    N41      N        0.34410    0.51840    0.94058    1.000
    N42      N        0.42508    0.42760    0.93688    1.000
    N43      N        0.25548    0.59050    0.59229    1.000
    N44      N        0.25305    0.72320    0.22819    1.000
    N45      N        0.60831    0.93540    0.57793    1.000
    N46      N        0.40243    0.76050    0.52662    1.000
    N47      N        0.31314    0.71270    0.44103    1.000
    N48      N        0.39608    0.79900    0.43542    1.000
    Ag9      Ag       0.22608    0.29117    0.63175    1.000
    Ag10     Ag       0.70518    0.99904    0.13231    1.000
    C145     C        0.07686    0.59950    0.10736    1.000
    H97      H        0.09620    0.59440    0.14730    1.000
    C146     C        0.87200    0.93820    0.58873    1.000
    H98      H        0.91440    0.96020    0.61000    1.000
    C147     C        0.84601    0.78070    0.99864    1.000
    C148     C        0.87175    0.99280    0.49744    1.000
    C149     C        0.09680    0.18330    0.61092    1.000
    H99      H        0.11490    0.18940    0.65080    1.000
    C150     C        0.01840    0.61280    0.99052    1.000
    H100     H        0.99930    0.61580    0.95050    1.000
    C151     C        0.92479    0.69920    0.99274    1.000
    C152     C        0.84005    0.94740    0.52958    1.000
    C153     C        0.75645    0.86650    0.00322    1.000
    H101     H        0.73580    0.86680    0.96310    1.000
    C154     C        0.77670    0.91370    0.50016    1.000
    H102     H        0.75390    0.91830    0.46030    1.000
    C155     C        0.84179    0.01330    0.34837    1.000
    C156     C        0.03910    0.13840    0.58412    1.000
    H103     H        0.01900    0.11490    0.60580    1.000
    C157     C        0.87194    0.02370    0.41174    1.000
    C158     C        0.72810    0.90740    0.03433    1.000
    H104     H        0.68790    0.93490    0.01410    1.000
    C159     C        0.74800    0.87360    0.53050    1.000
    H105     H        0.70550    0.85130    0.51020    1.000
    C160     C        0.94990    0.07730    0.49413    1.000
    C161     C        0.72040    0.80170    0.75940    1.000
    H106     H        0.67840    0.82570    0.74030    1.000
    C162     C        0.81597    0.82510    0.03273    1.000
    C163     C        0.80960    0.75740    0.84807    1.000
    C164     C        0.01794    0.64180    0.08116    1.000
    H107     H        0.99850    0.66510    0.10330    1.000
    C165     C        0.84103    0.74750    0.91149    1.000
    C166     C        0.83930    0.89520    0.61567    1.000
    H108     H        0.86170    0.88730    0.65530    1.000
    C167     C        0.81330    0.74270    0.75720    1.000
    H109     H        0.83630    0.72520    0.73620    1.000
    C168     C        0.04290    0.16610    0.49464    1.000
    H110     H        0.02530    0.16220    0.45470    1.000
    C169     C        0.74710    0.79280    0.81876    1.000
    H111     H        0.72310    0.81060    0.83880    1.000
    C170     C        0.78790    0.96210    0.32160    1.000
    H112     H        0.77160    0.93170    0.34340    1.000
    C171     C        0.98741    0.64990    0.02197    1.000
    C172     C        0.75830    0.95630    0.26240    1.000
    H113     H        0.72250    0.92070    0.24510    1.000
    C173     C        0.84350    0.73170    0.81590    1.000
    H114     H        0.88570    0.70770    0.83380    1.000
    C174     C        0.10100    0.20930    0.52529    1.000
    H115     H        0.12240    0.23310    0.50480    1.000
    C175     C        0.07790    0.57160    0.02030    1.000
    H116     H        0.09810    0.54710    0.99910    1.000
    C176     C        0.86630    0.05500    0.31450    1.000
    H117     H        0.90410    0.08790    0.33110    1.000
    C177     C        0.01086    0.12800    0.52517    1.000
    C178     C        0.84470    0.82540    0.09224    1.000
    H118     H        0.88410    0.79690    0.11320    1.000
    C179     C        0.83320    0.04650    0.25580    1.000
    H119     H        0.84960    0.07520    0.23340    1.000
    C180     C        0.81360    0.86900    0.12001    1.000
    H120     H        0.83410    0.87040    0.16010    1.000
    N49      N        0.12859    0.21910    0.58231    1.000
    N50      N        0.77777    0.86460    0.58802    1.000
    N51      N        0.77890    0.99980    0.22825    1.000
    N52      N        0.92543    0.03920    0.52723    1.000
    N53      N        0.84410    0.98160    0.44058    1.000
    N54      N        0.92508    0.07240    0.43688    1.000
    N55      N        0.75548    0.90950    0.09229    1.000
    N56      N        0.75305    0.77680    0.72819    1.000
    N57      N        0.10831    0.56460    0.07793    1.000
    N58      N        0.90243    0.73950    0.02662    1.000
    N59      N        0.81314    0.78730    0.94103    1.000
    N60      N        0.89608    0.70100    0.93542    1.000
    Ag11     Ag       0.72608    0.79117    0.63175    1.000
    Ag12     Ag       0.20518    0.49904    0.13231    1.000
    C181     C        0.57686    0.09950    0.10736    1.000
    H121     H        0.59620    0.09440    0.14730    1.000
    C182     C        0.37200    0.43820    0.58873    1.000
    H122     H        0.41440    0.46020    0.61000    1.000
    C183     C        0.34601    0.28070    0.99864    1.000
    C184     C        0.37175    0.49280    0.49744    1.000
    C185     C        0.59680    0.68330    0.61092    1.000
    H123     H        0.61490    0.68940    0.65080    1.000
    C186     C        0.51840    0.11280    0.99052    1.000
    H124     H        0.49930    0.11580    0.95050    1.000
    C187     C        0.42479    0.19920    0.99274    1.000
    C188     C        0.34005    0.44740    0.52958    1.000
    C189     C        0.25645    0.36650    0.00322    1.000
    H125     H        0.23580    0.36680    0.96310    1.000
    C190     C        0.27670    0.41370    0.50016    1.000
    H126     H        0.25390    0.41830    0.46030    1.000
    C191     C        0.34179    0.51330    0.34837    1.000
    C192     C        0.53910    0.63840    0.58412    1.000
    H127     H        0.51900    0.61490    0.60580    1.000
    C193     C        0.37194    0.52370    0.41174    1.000
    C194     C        0.22810    0.40740    0.03433    1.000
    H128     H        0.18790    0.43490    0.01410    1.000
    C195     C        0.24800    0.37360    0.53050    1.000
    H129     H        0.20550    0.35130    0.51020    1.000
    C196     C        0.44990    0.57730    0.49413    1.000
    C197     C        0.22040    0.30170    0.75940    1.000
    H130     H        0.17840    0.32570    0.74030    1.000
    C198     C        0.31597    0.32510    0.03273    1.000
    C199     C        0.30960    0.25740    0.84807    1.000
    C200     C        0.51794    0.14180    0.08116    1.000
    H131     H        0.49850    0.16510    0.10330    1.000
    C201     C        0.34103    0.24750    0.91149    1.000
    C202     C        0.33930    0.39520    0.61567    1.000
    H132     H        0.36170    0.38730    0.65530    1.000
    C203     C        0.31330    0.24270    0.75720    1.000
    H133     H        0.33630    0.22520    0.73620    1.000
    C204     C        0.54290    0.66610    0.49464    1.000
    H134     H        0.52530    0.66220    0.45470    1.000
    C205     C        0.24710    0.29280    0.81876    1.000
    H135     H        0.22310    0.31060    0.83880    1.000
    C206     C        0.28790    0.46210    0.32160    1.000
    H136     H        0.27160    0.43170    0.34340    1.000
    C207     C        0.48741    0.14990    0.02197    1.000
    C208     C        0.25830    0.45630    0.26240    1.000
    H137     H        0.22250    0.42070    0.24510    1.000
    C209     C        0.34350    0.23170    0.81590    1.000
    H138     H        0.38570    0.20770    0.83380    1.000
    C210     C        0.60100    0.70930    0.52529    1.000
    H139     H        0.62240    0.73310    0.50480    1.000
    C211     C        0.57790    0.07160    0.02030    1.000
    H140     H        0.59810    0.04710    0.99910    1.000
    C212     C        0.36630    0.55500    0.31450    1.000
    H141     H        0.40410    0.58790    0.33110    1.000
    C213     C        0.51086    0.62800    0.52517    1.000
    C214     C        0.34470    0.32540    0.09224    1.000
    H142     H        0.38410    0.29690    0.11320    1.000
    C215     C        0.33320    0.54650    0.25580    1.000
    H143     H        0.34960    0.57520    0.23340    1.000
    C216     C        0.31360    0.36900    0.12001    1.000
    H144     H        0.33410    0.37040    0.16010    1.000
    N61      N        0.62859    0.71910    0.58231    1.000
    N62      N        0.27777    0.36460    0.58802    1.000
    N63      N        0.27890    0.49980    0.22825    1.000
    N64      N        0.42543    0.53920    0.52723    1.000
    N65      N        0.34410    0.48160    0.44058    1.000
    N66      N        0.42508    0.57240    0.43688    1.000
    N67      N        0.25548    0.40950    0.09229    1.000
    N68      N        0.25305    0.27680    0.72819    1.000
    N69      N        0.60831    0.06460    0.07793    1.000
    N70      N        0.40243    0.23950    0.02662    1.000
    N71      N        0.31314    0.28730    0.94103    1.000
    N72      N        0.39608    0.20100    0.93542    1.000
    Ag13     Ag       0.77392    0.29117    0.86825    1.000
    Ag14     Ag       0.29482    0.99904    0.36769    1.000
    C217     C        0.92314    0.59950    0.39264    1.000
    H145     H        0.90380    0.59440    0.35270    1.000
    C218     C        0.12800    0.93820    0.91127    1.000
    H146     H        0.08560    0.96020    0.89000    1.000
    C219     C        0.15399    0.78070    0.50136    1.000
    C220     C        0.12825    0.99280    0.00256    1.000
    C221     C        0.90320    0.18330    0.88908    1.000
    H147     H        0.88510    0.18940    0.84920    1.000
    C222     C        0.98160    0.61280    0.50948    1.000
    H148     H        0.00070    0.61580    0.54950    1.000
    C223     C        0.07521    0.69920    0.50726    1.000
    C224     C        0.15995    0.94740    0.97042    1.000
    C225     C        0.24355    0.86650    0.49678    1.000
    H149     H        0.26420    0.86680    0.53690    1.000
    C226     C        0.22330    0.91370    0.99984    1.000
    H150     H        0.24610    0.91830    0.03970    1.000
    C227     C        0.15821    0.01330    0.15163    1.000
    C228     C        0.96090    0.13840    0.91588    1.000
    H151     H        0.98100    0.11490    0.89420    1.000
    C229     C        0.12806    0.02370    0.08826    1.000
    C230     C        0.27190    0.90740    0.46567    1.000
    H152     H        0.31210    0.93490    0.48590    1.000
    C231     C        0.25200    0.87360    0.96950    1.000
    H153     H        0.29450    0.85130    0.98980    1.000
    C232     C        0.05010    0.07730    0.00587    1.000
    C233     C        0.27960    0.80170    0.74060    1.000
    H154     H        0.32160    0.82570    0.75970    1.000
    C234     C        0.18403    0.82510    0.46727    1.000
    C235     C        0.19040    0.75740    0.65193    1.000
    C236     C        0.98206    0.64180    0.41884    1.000
    H155     H        0.00150    0.66510    0.39670    1.000
    C237     C        0.15897    0.74750    0.58851    1.000
    C238     C        0.16070    0.89520    0.88433    1.000
    H156     H        0.13830    0.88730    0.84470    1.000
    C239     C        0.18670    0.74270    0.74280    1.000
    H157     H        0.16370    0.72520    0.76380    1.000
    C240     C        0.95710    0.16610    0.00536    1.000
    H158     H        0.97470    0.16220    0.04530    1.000
    C241     C        0.25290    0.79280    0.68124    1.000
    H159     H        0.27690    0.81060    0.66120    1.000
    C242     C        0.21210    0.96210    0.17840    1.000
    H160     H        0.22840    0.93170    0.15660    1.000
    C243     C        0.01259    0.64990    0.47803    1.000
    C244     C        0.24170    0.95630    0.23760    1.000
    H161     H        0.27750    0.92070    0.25490    1.000
    C245     C        0.15650    0.73170    0.68410    1.000
    H162     H        0.11430    0.70770    0.66620    1.000
    C246     C        0.89900    0.20930    0.97471    1.000
    H163     H        0.87760    0.23310    0.99520    1.000
    C247     C        0.92210    0.57160    0.47970    1.000
    H164     H        0.90190    0.54710    0.50090    1.000
    C248     C        0.13370    0.05500    0.18550    1.000
    H165     H        0.09590    0.08790    0.16890    1.000
    C249     C        0.98914    0.12800    0.97483    1.000
    C250     C        0.15530    0.82540    0.40776    1.000
    H166     H        0.11590    0.79690    0.38680    1.000
    C251     C        0.16680    0.04650    0.24420    1.000
    H167     H        0.15040    0.07520    0.26660    1.000
    C252     C        0.18640    0.86900    0.37999    1.000
    H168     H        0.16590    0.87040    0.33990    1.000
    N73      N        0.87141    0.21910    0.91769    1.000
    N74      N        0.22223    0.86460    0.91198    1.000
    N75      N        0.22110    0.99980    0.27175    1.000
    N76      N        0.07457    0.03920    0.97277    1.000
    N77      N        0.15590    0.98160    0.05942    1.000
    N78      N        0.07492    0.07240    0.06312    1.000
    N79      N        0.24452    0.90950    0.40771    1.000
    N80      N        0.24695    0.77680    0.77181    1.000
    N81      N        0.89169    0.56460    0.42207    1.000
    N82      N        0.09757    0.73950    0.47338    1.000
    N83      N        0.18686    0.78730    0.55897    1.000
    N84      N        0.10392    0.70100    0.56458    1.000
    Ag15     Ag       0.27392    0.79117    0.86825    1.000
    Ag16     Ag       0.79482    0.49904    0.36769    1.000
    C253     C        0.42314    0.09950    0.39264    1.000
    H169     H        0.40380    0.09440    0.35270    1.000
    C254     C        0.62800    0.43820    0.91127    1.000
    H170     H        0.58560    0.46020    0.89000    1.000
    C255     C        0.65399    0.28070    0.50136    1.000
    C256     C        0.62825    0.49280    0.00256    1.000
    C257     C        0.40320    0.68330    0.88908    1.000
    H171     H        0.38510    0.68940    0.84920    1.000
    C258     C        0.48160    0.11280    0.50948    1.000
    H172     H        0.50070    0.11580    0.54950    1.000
    C259     C        0.57521    0.19920    0.50726    1.000
    C260     C        0.65995    0.44740    0.97042    1.000
    C261     C        0.74355    0.36650    0.49678    1.000
    H173     H        0.76420    0.36680    0.53690    1.000
    C262     C        0.72330    0.41370    0.99984    1.000
    H174     H        0.74610    0.41830    0.03970    1.000
    C263     C        0.65821    0.51330    0.15163    1.000
    C264     C        0.46090    0.63840    0.91588    1.000
    H175     H        0.48100    0.61490    0.89420    1.000
    C265     C        0.62806    0.52370    0.08826    1.000
    C266     C        0.77190    0.40740    0.46567    1.000
    H176     H        0.81210    0.43490    0.48590    1.000
    C267     C        0.75200    0.37360    0.96950    1.000
    H177     H        0.79450    0.35130    0.98980    1.000
    C268     C        0.55010    0.57730    0.00587    1.000
    C269     C        0.77960    0.30170    0.74060    1.000
    H178     H        0.82160    0.32570    0.75970    1.000
    C270     C        0.68403    0.32510    0.46727    1.000
    C271     C        0.69040    0.25740    0.65193    1.000
    C272     C        0.48206    0.14180    0.41884    1.000
    H179     H        0.50150    0.16510    0.39670    1.000
    C273     C        0.65897    0.24750    0.58851    1.000
    C274     C        0.66070    0.39520    0.88433    1.000
    H180     H        0.63830    0.38730    0.84470    1.000
    C275     C        0.68670    0.24270    0.74280    1.000
    H181     H        0.66370    0.22520    0.76380    1.000
    C276     C        0.45710    0.66610    0.00536    1.000
    H182     H        0.47470    0.66220    0.04530    1.000
    C277     C        0.75290    0.29280    0.68124    1.000
    H183     H        0.77690    0.31060    0.66120    1.000
    C278     C        0.71210    0.46210    0.17840    1.000
    H184     H        0.72840    0.43170    0.15660    1.000
    C279     C        0.51259    0.14990    0.47803    1.000
    C280     C        0.74170    0.45630    0.23760    1.000
    H185     H        0.77750    0.42070    0.25490    1.000
    C281     C        0.65650    0.23170    0.68410    1.000
    H186     H        0.61430    0.20770    0.66620    1.000
    C282     C        0.39900    0.70930    0.97471    1.000
    H187     H        0.37760    0.73310    0.99520    1.000
    C283     C        0.42210    0.07160    0.47970    1.000
    H188     H        0.40190    0.04710    0.50090    1.000
    C284     C        0.63370    0.55500    0.18550    1.000
    H189     H        0.59590    0.58790    0.16890    1.000
    C285     C        0.48914    0.62800    0.97483    1.000
    C286     C        0.65530    0.32540    0.40776    1.000
    H190     H        0.61590    0.29690    0.38680    1.000
    C287     C        0.66680    0.54650    0.24420    1.000
    H191     H        0.65040    0.57520    0.26660    1.000
    C288     C        0.68640    0.36900    0.37999    1.000
    H192     H        0.66590    0.37040    0.33990    1.000
    N85      N        0.37141    0.71910    0.91769    1.000
    N86      N        0.72223    0.36460    0.91198    1.000
    N87      N        0.72110    0.49980    0.27175    1.000
    N88      N        0.57457    0.53920    0.97277    1.000
    N89      N        0.65590    0.48160    0.05942    1.000
    N90      N        0.57492    0.57240    0.06312    1.000
    N91      N        0.74452    0.40950    0.40771    1.000
    N92      N        0.74695    0.27680    0.77181    1.000
    N93      N        0.39169    0.06460    0.42207    1.000
    N94      N        0.59757    0.23950    0.47338    1.000
    N95      N        0.68686    0.28730    0.55897    1.000
    N96      N        0.60392    0.20100    0.56458    1.000
