data_functionalizedCrystal
_audit_creation_method	'EQeq! by Chris Wilmer'
_symmetry_space_group_name_H-M	'P1'
_symmetry_Int_Tables_number	1
_symmetry_cell_setting	triclinic
loop_
_symmetry_equiv_pos_as_xyz
  x,y,z
_cell_length_a	31.837
_cell_length_b	31.837
_cell_length_c	62.41
_cell_angle_alpha	90
_cell_angle_beta	90
_cell_angle_gamma	120
loop_
_atom_site_label
_atom_site_type_symbol
_atom_site_fract_x
_atom_site_fract_y
_atom_site_fract_z
_atom_site_charge
Mof_C 	C 	0.4583	0.2244	0.3637	-0.237
Mof_C 	C 	0.4449	0.2334	0.3838	0.083
Mof_H 	H 	0.4131	0.2284	0.3856	-0.014
Mof_C 	C 	0.4765	0.2494	0.401	-0.058
Mof_H 	H 	0.4655	0.2537	0.4146	0.049
Mof_C 	C 	0.5234	0.2592	0.3989	-0.013
Mof_C 	C 	0.5373	0.2477	0.3794	-0.071
Mof_H 	H 	0.5688	0.252	0.3778	0.053
Mof_C 	C 	0.5046	0.23	0.3625	0.09
Mof_H 	H 	0.5141	0.2214	0.3496	0.007
Mof_O 	O 	0.4366	0.1803	0.3315	-0.543
Mof_N 	N 	0.4086	0.1586	0.3127	-0.16
Mof_C 	C 	0.4185	0.1272	0.3055	0.072
Mof_H 	H 	0.4419	0.1227	0.3131	0.046
Mof_C 	C 	0.3966	0.0975	0.2866	-0.133
Mof_C 	C 	0.363	0.1033	0.2733	0.234
Mof_C 	C 	0.3441	0.072	0.255	-0.138
Mof_C 	C 	0.357	0.0364	0.2509	0.048
Mof_H 	H 	0.3435	0.0157	0.2389	0.009
Mof_C 	C 	0.3891	0.031	0.2643	-0.133
Mof_C 	C 	0.4077	0.0611	0.2819	0.047
Mof_H 	H 	0.429	0.0569	0.2912	0.015
Mof_C 	C 	0.3107	0.0742	0.2399	0.08
Mof_H 	H 	0.3012	0.053	0.2279	0.036
Mof_N 	N 	0.2933	0.1022	0.2414	-0.159
Mof_O 	O 	0.2614	0.0932	0.2239	-0.556
Mof_C 	C 	0.1822	0.1275	0.1938	0.423
Mof_H 	H 	0.1938	0.1595	0.1989	-0.105
Mof_C 	C 	0.1513	0.1122	0.1764	-0.321
Mof_H 	H 	0.1415	0.1334	0.1705	0.149
Mof_O 	O 	0.3511	0.1359	0.2775	-0.501
Mof_C 	C 	0.4042	0.9932	0.259	0.328
Mof_O 	O 	0.0874	0.0794	0.14149	-0.476
Mof_C 	C 	0.1162	0.0562	0.3499	0.103
Mof_C 	C 	0.1268	0.0315	0.3687	0.023
Mof_H 	H 	0.1344	0.0073	0.3631	0.095
Mof_H 	H 	0.1545	0.0559	0.3769	-0.007
Mof_H 	H 	0.0983	0.0156	0.378	0.003
Mof_C 	C 	0.0729	0.0172	0.3373	-0.14
Mof_H 	H 	0.08	0.9919	0.3326	0.025
Mof_H 	H 	0.044	0.0027	0.3464	0.045
Mof_H 	H 	0.0671	0.0319	0.3247	0.043
Mof_C 	C 	0.3587	0.9451	0.2534	-0.232
Mof_H 	H 	0.341	0.9504	0.2419	0.06
Mof_H 	H 	0.3682	0.9217	0.2486	0.076
Mof_H 	H 	0.3379	0.9324	0.266	0.062
Mof_C 	C 	0.1039	0.0948	0.3568	-0.406
Mof_H 	H 	0.1311	0.1201	0.365	0.006
Mof_H 	H 	0.0979	0.1091	0.3441	0.14
Mof_H 	H 	0.0748	0.0798	0.3659	0.123
Mof_C 	C 	0.388	0.973	0.2363	-0.205
Mof_H 	H 	0.3522	0.9585	0.2354	0.061
Mof_H 	H 	0.4029	0.9999	0.226	0.054
Mof_H 	H 	0.3969	0.949	0.2332	0.066
Mof_C 	C 	0.4388	0.0139	0.2397	-0.298
Mof_H 	H 	0.4223	0.0199	0.2279	0.09
Mof_H 	H 	0.4676	0.0445	0.2439	0.089
Mof_H 	H 	0.4486	0.9906	0.2352	0.1
Mof_C 	C 	0.4594	0.0156	0.259	-0.209
Mof_H 	H 	0.4736	0.0407	0.248	0.05
Mof_H 	H 	0.4722	0.0301	0.2731	0.06
Mof_H 	H 	0.4676	0.9903	0.2561	0.064
Mof_C 	C 	0.431	0.9847	0.2768	-0.173
Mof_H 	H 	0.4606	0.0154	0.2805	0.062
Mof_H 	H 	0.4106	0.972	0.2895	0.054
Mof_H 	H 	0.4409	0.9613	0.272	0.053
Mof_C 	C 	0.383	0.9542	0.2764	-0.328
Mof_H 	H 	0.3472	0.9396	0.2765	0.094
Mof_H 	H 	0.391	0.929	0.2734	0.111
Mof_H 	H 	0.3957	0.9688	0.2904	0.093
Mof_C 	C 	0.12497	0.55773	0.69703	-0.238
Mof_C 	C 	0.11157	0.56673	0.71713	0.082
Mof_H 	H 	0.07977	0.56173	0.71893	-0.015
Mof_C 	C 	0.14317	0.58273	0.73433	-0.059
Mof_H 	H 	0.13217	0.58703	0.74793	0.048
Mof_C 	C 	0.19007	0.59253	0.73223	-0.014
Mof_C 	C 	0.20397	0.58103	0.71273	-0.072
Mof_H 	H 	0.23547	0.58533	0.71113	0.052
Mof_C 	C 	0.17127	0.56333	0.69583	0.089
Mof_H 	H 	0.18077	0.55473	0.68293	0.006
Mof_O 	O 	0.10327	0.51363	0.66483	-0.544
Mof_N 	N 	0.07527	0.49193	0.64603	-0.161
Mof_C 	C 	0.08517	0.46053	0.63883	0.071
Mof_H 	H 	0.10857	0.45603	0.64643	0.045
Mof_C 	C 	0.06327	0.43083	0.61993	-0.134
Mof_C 	C 	0.02967	0.43663	0.60663	0.234
Mof_C 	C 	0.01077	0.40533	0.58833	-0.14
Mof_C 	C 	0.02367	0.36973	0.58423	0.048
Mof_H 	H 	0.01017	0.34903	0.57223	0.007
Mof_C 	C 	0.05577	0.36433	0.59763	-0.133
Mof_C 	C 	0.07437	0.39443	0.61523	0.046
Mof_H 	H 	0.09567	0.39023	0.62453	0.014
Mof_C 	C 	0.97737	0.40753	0.57323	0.08
Mof_H 	H 	0.96787	0.38633	0.56123	0.035
Mof_N 	N 	0.95997	0.43553	0.57473	-0.16
Mof_O 	O 	0.92807	0.42653	0.55723	-0.557
Mof_C 	C 	0.84887	0.46083	0.52713	0.423
Mof_H 	H 	0.86047	0.49283	0.53223	-0.106
Mof_C 	C 	0.81797	0.44553	0.50973	-0.322
Mof_H 	H 	0.80817	0.46673	0.50383	0.149
Mof_O 	O 	0.01777	0.46923	0.61083	-0.503
Mof_C 	C 	0.07087	0.32653	0.59233	0.326
Mof_O 	O 	0.75407	0.41273	0.47482	-0.476
Mof_C 	C 	0.78287	0.38953	0.68323	0.102
Mof_C 	C 	0.79347	0.36483	0.70203	0.025
Mof_H 	H 	0.80107	0.34063	0.69643	0.093
Mof_H 	H 	0.82117	0.38923	0.71023	-0.009
Mof_H 	H 	0.76497	0.34893	0.71133	0.001
Mof_C 	C 	0.73957	0.35053	0.67063	-0.138
Mof_H 	H 	0.74667	0.32523	0.66593	0.023
Mof_H 	H 	0.71067	0.33603	0.67973	0.044
Mof_H 	H 	0.73377	0.36523	0.65803	0.042
Mof_C 	C 	0.02537	0.27843	0.58673	-0.232
Mof_H 	H 	0.00767	0.28373	0.57523	0.059
Mof_H 	H 	0.03487	0.25503	0.58193	0.075
Mof_H 	H 	0.00457	0.26573	0.59933	0.061
Mof_C 	C 	0.77057	0.42813	0.69013	-0.41
Mof_H 	H 	0.79777	0.45343	0.69833	0.005
Mof_H 	H 	0.76457	0.44243	0.67743	0.14
Mof_H 	H 	0.74147	0.41313	0.69923	0.124
Mof_C 	C 	0.05467	0.30633	0.56963	-0.206
Mof_H 	H 	0.01887	0.29183	0.56873	0.06
Mof_H 	H 	0.06957	0.33323	0.55933	0.053
Mof_H 	H 	0.06357	0.28233	0.56653	0.066
Mof_C 	C 	0.10547	0.34723	0.57303	-0.298
Mof_H 	H 	0.08897	0.35323	0.56123	0.09
Mof_H 	H 	0.13427	0.37783	0.57723	0.089
Mof_H 	H 	0.11527	0.32393	0.56853	0.1
Mof_C 	C 	0.12607	0.34893	0.59233	-0.209
Mof_H 	H 	0.14027	0.37403	0.58133	0.05
Mof_H 	H 	0.13887	0.36343	0.60643	0.06
Mof_H 	H 	0.13427	0.32363	0.58943	0.064
Mof_C 	C 	0.09767	0.31803	0.61013	-0.173
Mof_H 	H 	0.12727	0.34873	0.61383	0.062
Mof_H 	H 	0.07727	0.30533	0.62283	0.054
Mof_H 	H 	0.10757	0.29463	0.60533	0.053
Mof_C 	C 	0.04967	0.28753	0.60973	-0.328
Mof_H 	H 	0.01387	0.27293	0.60983	0.094
Mof_H 	H 	0.05767	0.26233	0.60673	0.111
Mof_H 	H 	0.06237	0.30213	0.62373	0.093
Mof_C 	C 	0.79163	0.89107	0.03037	-0.237
Mof_C 	C 	0.77823	0.90007	0.05047	0.077
Mof_H 	H 	0.74643	0.89507	0.05227	-0.013
Mof_C 	C 	0.80983	0.91607	0.06767	-0.065
Mof_H 	H 	0.79883	0.92037	0.08127	0.049
Mof_C 	C 	0.85673	0.92587	0.06557	-0.013
Mof_C 	C 	0.87063	0.91437	0.04607	-0.072
Mof_H 	H 	0.90213	0.91867	0.04447	0.052
Mof_C 	C 	0.83793	0.89667	0.02917	0.088
Mof_H 	H 	0.84743	0.88807	0.01627	0.006
Mof_O 	O 	0.76993	0.84697	0.99817	-0.544
Mof_N 	N 	0.74193	0.82527	0.97937	-0.161
Mof_C 	C 	0.75183	0.79387	0.97217	0.071
Mof_H 	H 	0.77523	0.78937	0.97977	0.045
Mof_C 	C 	0.72993	0.76417	0.95327	-0.134
Mof_C 	C 	0.69633	0.76997	0.93997	0.233
Mof_C 	C 	0.67743	0.73867	0.92167	-0.139
Mof_C 	C 	0.69033	0.70307	0.91757	0.047
Mof_H 	H 	0.67683	0.68237	0.90557	0.008
Mof_C 	C 	0.72243	0.69767	0.93097	-0.133
Mof_C 	C 	0.74103	0.72777	0.94857	0.046
Mof_H 	H 	0.76233	0.72357	0.95787	0.014
Mof_C 	C 	0.64403	0.74087	0.90657	0.079
Mof_H 	H 	0.63453	0.71967	0.89457	0.035
Mof_N 	N 	0.62663	0.76887	0.90807	-0.16
Mof_O 	O 	0.59473	0.75987	0.89057	-0.557
Mof_C 	C 	0.51553	0.79417	0.86047	0.423
Mof_H 	H 	0.52713	0.82617	0.86557	-0.105
Mof_C 	C 	0.48463	0.77887	0.84307	-0.322
Mof_H 	H 	0.47483	0.80007	0.83717	0.149
Mof_O 	O 	0.68443	0.80257	0.94417	-0.502
Mof_C 	C 	0.73753	0.65987	0.92567	0.326
Mof_O 	O 	0.42073	0.74607	0.80816	-0.476
Mof_C 	C 	0.44953	0.72287	0.01657	0.102
Mof_C 	C 	0.46013	0.69817	0.03537	0.025
Mof_H 	H 	0.46773	0.67397	0.02977	0.093
Mof_H 	H 	0.48783	0.72257	0.04357	-0.009
Mof_H 	H 	0.43163	0.68227	0.04467	0.001
Mof_C 	C 	0.40623	0.68387	0.00397	-0.138
Mof_H 	H 	0.41333	0.65857	0.99927	0.023
Mof_H 	H 	0.37733	0.66937	0.01307	0.044
Mof_H 	H 	0.40043	0.69857	0.99137	0.042
Mof_C 	C 	0.69203	0.61177	0.92007	-0.232
Mof_H 	H 	0.67433	0.61707	0.90857	0.059
Mof_H 	H 	0.70153	0.58837	0.91527	0.075
Mof_H 	H 	0.67123	0.59907	0.93267	0.061
Mof_C 	C 	0.43723	0.76147	0.02347	-0.41
Mof_H 	H 	0.46443	0.78677	0.03167	0.005
Mof_H 	H 	0.43123	0.77577	0.01077	0.14
Mof_H 	H 	0.40813	0.74647	0.03257	0.124
Mof_C 	C 	0.72133	0.63967	0.90297	-0.206
Mof_H 	H 	0.68553	0.62517	0.90207	0.06
Mof_H 	H 	0.73623	0.66657	0.89267	0.053
Mof_H 	H 	0.73023	0.61567	0.89987	0.066
Mof_C 	C 	0.77213	0.68057	0.90637	-0.297
Mof_H 	H 	0.75563	0.68657	0.89457	0.09
Mof_H 	H 	0.80093	0.71117	0.91057	0.089
Mof_H 	H 	0.78193	0.65727	0.90187	0.1
Mof_C 	C 	0.79273	0.68227	0.92567	-0.209
Mof_H 	H 	0.80693	0.70737	0.91467	0.05
Mof_H 	H 	0.80553	0.69677	0.93977	0.06
Mof_H 	H 	0.80093	0.65697	0.92277	0.064
Mof_C 	C 	0.76433	0.65137	0.94347	-0.173
Mof_H 	H 	0.79393	0.68207	0.94717	0.062
Mof_H 	H 	0.74393	0.63867	0.95617	0.054
Mof_H 	H 	0.77423	0.62797	0.93867	0.053
Mof_C 	C 	0.71633	0.62087	0.94307	-0.328
Mof_H 	H 	0.68053	0.60627	0.94317	0.094
Mof_H 	H 	0.72433	0.59567	0.94007	0.111
Mof_H 	H 	0.72903	0.63547	0.95707	0.093
Mof_C 	C 	0.7756	0.2339	0.3637	-0.238
Mof_C 	C 	0.7666	0.2115	0.3838	0.083
Mof_H 	H 	0.7716	0.1847	0.3856	-0.015
Mof_C 	C 	0.7506	0.2271	0.401	-0.059
Mof_H 	H 	0.7463	0.2118	0.4146	0.047
Mof_C 	C 	0.7408	0.2642	0.3989	-0.014
Mof_C 	C 	0.7523	0.2896	0.3794	-0.072
Mof_H 	H 	0.748	0.3168	0.3778	0.052
Mof_C 	C 	0.77	0.2746	0.3625	0.089
Mof_H 	H 	0.7786	0.2927	0.3496	0.006
Mof_O 	O 	0.8197	0.2563	0.3315	-0.544
Mof_N 	N 	0.8414	0.25	0.3127	-0.16
Mof_C 	C 	0.8728	0.2913	0.3055	0.071
Mof_H 	H 	0.8773	0.3192	0.3131	0.046
Mof_C 	C 	0.9025	0.2991	0.2866	-0.132
Mof_C 	C 	0.8967	0.2597	0.2733	0.232
Mof_C 	C 	0.928	0.2721	0.255	-0.138
Mof_C 	C 	0.9636	0.3206	0.2509	0.044
Mof_H 	H 	0.9843	0.3278	0.2389	0.01
Mof_C 	C 	0.969	0.3581	0.2643	-0.127
Mof_C 	C 	0.9389	0.3466	0.2819	0.043
Mof_H 	H 	0.9431	0.3721	0.2912	0.016
Mof_C 	C 	0.9258	0.2365	0.2399	0.078
Mof_H 	H 	0.947	0.2482	0.2279	0.036
Mof_N 	N 	0.8978	0.1911	0.2414	-0.16
Mof_O 	O 	0.9068	0.1682	0.2239	-0.557
Mof_C 	C 	0.8725	0.0547	0.1938	0.423
Mof_H 	H 	0.8405	0.0343	0.1989	-0.106
Mof_C 	C 	0.8878	0.0391	0.1764	-0.322
Mof_H 	H 	0.8666	0.0081	0.1705	0.149
Mof_O 	O 	0.8641	0.2152	0.2775	-0.502
Mof_C 	C 	0.0068	0.411	0.259	0.317
Mof_O 	O 	0.9206	0.008	0.14149	-0.476
Mof_C 	C 	0.9438	0.06	0.3499	0.102
Mof_C 	C 	0.9685	0.0953	0.3687	0.043
Mof_H 	H 	0.9927	0.1271	0.3631	0.089
Mof_H 	H 	0.9441	0.0986	0.3769	-0.014
Mof_H 	H 	0.9844	0.0827	0.378	-0.003
Mof_C 	C 	0.9828	0.0557	0.3373	-0.119
Mof_H 	H 	0.0081	0.0881	0.3326	0.014
Mof_H 	H 	0.9973	0.0413	0.3464	0.039
Mof_H 	H 	0.9681	0.0352	0.3247	0.042
Mof_C 	C 	0.0549	0.4136	0.2534	-0.228
Mof_H 	H 	0.0496	0.3906	0.2419	0.058
Mof_H 	H 	0.0783	0.4465	0.2486	0.073
Mof_H 	H 	0.0676	0.4055	0.266	0.059
Mof_C 	C 	0.9052	0.0091	0.3568	-0.424
Mof_H 	H 	0.8799	0.011	0.365	0.007
Mof_H 	H 	0.8909	0.9888	0.3441	0.145
Mof_H 	H 	0.9202	0.995	0.3659	0.128
Mof_C 	C 	0.027	0.415	0.2363	-0.201
Mof_H 	H 	0.0415	0.3937	0.2354	0.059
Mof_H 	H 	0.0001	0.403	0.226	0.047
Mof_H 	H 	0.051	0.4479	0.2332	0.064
Mof_C 	C 	0.9861	0.4249	0.2397	-0.292
Mof_H 	H 	0.9801	0.4024	0.2279	0.094
Mof_H 	H 	0.9555	0.4231	0.2439	0.083
Mof_H 	H 	0.0094	0.458	0.2352	0.097
Mof_C 	C 	0.9844	0.4438	0.259	-0.198
Mof_H 	H 	0.9593	0.4329	0.248	0.053
Mof_H 	H 	0.9699	0.4421	0.2731	0.054
Mof_H 	H 	0.0097	0.4773	0.2561	0.06
Mof_C 	C 	0.0153	0.4463	0.2768	-0.173
Mof_H 	H 	0.9846	0.4452	0.2805	0.066
Mof_H 	H 	0.028	0.4386	0.2895	0.046
Mof_H 	H 	0.0387	0.4796	0.272	0.053
Mof_C 	C 	0.0458	0.4288	0.2764	-0.329
Mof_H 	H 	0.0604	0.4076	0.2765	0.095
Mof_H 	H 	0.071	0.462	0.2734	0.111
Mof_H 	H 	0.0312	0.4269	0.2904	0.101
Mof_C 	C 	0.44227	0.56723	0.69703	-0.238
Mof_C 	C 	0.43327	0.54483	0.71713	0.082
Mof_H 	H 	0.43827	0.51803	0.71893	-0.015
Mof_C 	C 	0.41727	0.56043	0.73433	-0.059
Mof_H 	H 	0.41297	0.54513	0.74793	0.048
Mof_C 	C 	0.40747	0.59753	0.73223	-0.014
Mof_C 	C 	0.41897	0.62293	0.71273	-0.072
Mof_H 	H 	0.41467	0.65013	0.71113	0.052
Mof_C 	C 	0.43667	0.60793	0.69583	0.089
Mof_H 	H 	0.44527	0.62603	0.68293	0.006
Mof_O 	O 	0.48637	0.58963	0.66483	-0.544
Mof_N 	N 	0.50807	0.58333	0.64603	-0.161
Mof_C 	C 	0.53947	0.62463	0.63883	0.071
Mof_H 	H 	0.54397	0.65253	0.64643	0.045
Mof_C 	C 	0.56917	0.63243	0.61993	-0.134
Mof_C 	C 	0.56337	0.59303	0.60663	0.233
Mof_C 	C 	0.59467	0.60543	0.58833	-0.139
Mof_C 	C 	0.63027	0.65393	0.58423	0.047
Mof_H 	H 	0.65097	0.66113	0.57223	0.008
Mof_C 	C 	0.63567	0.69143	0.59763	-0.133
Mof_C 	C 	0.60557	0.67993	0.61523	0.046
Mof_H 	H 	0.60977	0.70543	0.62453	0.015
Mof_C 	C 	0.59247	0.56983	0.57323	0.079
Mof_H 	H 	0.61367	0.58153	0.56123	0.035
Mof_N 	N 	0.56447	0.52443	0.57473	-0.16
Mof_O 	O 	0.57347	0.50153	0.55723	-0.557
Mof_C 	C 	0.53917	0.38803	0.52713	0.423
Mof_H 	H 	0.50717	0.36763	0.53223	-0.106
Mof_C 	C 	0.55447	0.37243	0.50973	-0.322
Mof_H 	H 	0.53327	0.34143	0.50383	0.149
Mof_O 	O 	0.53077	0.54853	0.61083	-0.502
Mof_C 	C 	0.67347	0.74433	0.59233	0.327
Mof_O 	O 	0.58727	0.34133	0.47482	-0.476
Mof_C 	C 	0.61047	0.39333	0.68323	0.102
Mof_C 	C 	0.63517	0.42863	0.70203	0.025
Mof_H 	H 	0.65937	0.46043	0.69643	0.093
Mof_H 	H 	0.61077	0.43193	0.71023	-0.009
Mof_H 	H 	0.65107	0.41603	0.71133	0.001
Mof_C 	C 	0.64947	0.38903	0.67063	-0.138
Mof_H 	H 	0.67477	0.42143	0.66593	0.023
Mof_H 	H 	0.66397	0.37463	0.67973	0.044
Mof_H 	H 	0.63477	0.36853	0.65803	0.042
Mof_C 	C 	0.72157	0.74693	0.58673	-0.233
Mof_H 	H 	0.71627	0.72393	0.57523	0.059
Mof_H 	H 	0.74497	0.77983	0.58193	0.075
Mof_H 	H 	0.73427	0.73883	0.59933	0.061
Mof_C 	C 	0.57187	0.34243	0.69013	-0.41
Mof_H 	H 	0.54657	0.34433	0.69833	0.005
Mof_H 	H 	0.55757	0.32213	0.67743	0.14
Mof_H 	H 	0.58687	0.32833	0.69923	0.124
Mof_C 	C 	0.69367	0.74833	0.56963	-0.206
Mof_H 	H 	0.70817	0.72703	0.56873	0.06
Mof_H 	H 	0.66677	0.73633	0.55933	0.053
Mof_H 	H 	0.71767	0.78123	0.56653	0.066
Mof_C 	C 	0.65277	0.75823	0.57303	-0.297
Mof_H 	H 	0.64677	0.73573	0.56123	0.09
Mof_H 	H 	0.62217	0.75643	0.57723	0.089
Mof_H 	H 	0.67607	0.79133	0.56853	0.1
Mof_C 	C 	0.65107	0.77713	0.59233	-0.209
Mof_H 	H 	0.62597	0.76623	0.58133	0.05
Mof_H 	H 	0.63657	0.77543	0.60643	0.06
Mof_H 	H 	0.67637	0.81063	0.58943	0.064
Mof_C 	C 	0.68197	0.77963	0.61013	-0.173
Mof_H 	H 	0.65127	0.77853	0.61383	0.062
Mof_H 	H 	0.69467	0.77193	0.62283	0.054
Mof_H 	H 	0.70537	0.81293	0.60533	0.053
Mof_C 	C 	0.71247	0.76213	0.60973	-0.328
Mof_H 	H 	0.72707	0.74093	0.60983	0.094
Mof_H 	H 	0.73767	0.79533	0.60673	0.111
Mof_H 	H 	0.69787	0.76023	0.62373	0.093
Mof_C 	C 	0.10893	0.90057	0.03037	-0.241
Mof_C 	C 	0.09993	0.87817	0.05047	0.098
Mof_H 	H 	0.10493	0.85137	0.05227	-0.02
Mof_C 	C 	0.08393	0.89377	0.06767	-0.042
Mof_H 	H 	0.07963	0.87847	0.08127	0.042
Mof_C 	C 	0.07413	0.93087	0.06557	-0.015
Mof_C 	C 	0.08563	0.95627	0.04607	-0.07
Mof_H 	H 	0.08133	0.98347	0.04447	0.052
Mof_C 	C 	0.10333	0.94127	0.02917	0.091
Mof_H 	H 	0.11193	0.95937	0.01627	0.005
Mof_O 	O 	0.15303	0.92297	0.99817	-0.544
Mof_N 	N 	0.17473	0.91667	0.97937	-0.16
Mof_C 	C 	0.20613	0.95797	0.97217	0.071
Mof_H 	H 	0.21063	0.98587	0.97977	0.046
Mof_C 	C 	0.23583	0.96577	0.95327	-0.132
Mof_C 	C 	0.23003	0.92637	0.93997	0.233
Mof_C 	C 	0.26133	0.93877	0.92167	-0.14
Mof_C 	C 	0.29693	0.98727	0.91757	0.05
Mof_H 	H 	0.31763	0.99447	0.90557	0.008
Mof_C 	C 	0.30233	0.02477	0.93097	-0.135
Mof_C 	C 	0.27223	0.01327	0.94857	0.044
Mof_H 	H 	0.27643	0.03877	0.95787	0.015
Mof_C 	C 	0.25913	0.90317	0.90657	0.079
Mof_H 	H 	0.28033	0.91487	0.89457	0.036
Mof_N 	N 	0.23113	0.85777	0.90807	-0.16
Mof_O 	O 	0.24013	0.83487	0.89057	-0.557
Mof_C 	C 	0.20583	0.72137	0.86047	0.423
Mof_H 	H 	0.17383	0.70097	0.86557	-0.106
Mof_C 	C 	0.22113	0.70577	0.84307	-0.322
Mof_H 	H 	0.19993	0.67477	0.83717	0.149
Mof_O 	O 	0.19743	0.88187	0.94417	-0.502
Mof_C 	C 	0.34013	0.07767	0.92567	0.327
Mof_O 	O 	0.25393	0.67467	0.80816	-0.476
Mof_C 	C 	0.27713	0.72667	0.01657	0.102
Mof_C 	C 	0.30183	0.76197	0.03537	0.025
Mof_H 	H 	0.32603	0.79377	0.02977	0.093
Mof_H 	H 	0.27743	0.76527	0.04357	-0.009
Mof_H 	H 	0.31773	0.74937	0.04467	0.001
Mof_C 	C 	0.31613	0.72237	0.00397	-0.138
Mof_H 	H 	0.34143	0.75477	0.99927	0.023
Mof_H 	H 	0.33063	0.70797	0.01307	0.044
Mof_H 	H 	0.30143	0.70187	0.99137	0.042
Mof_C 	C 	0.38823	0.08027	0.92007	-0.232
Mof_H 	H 	0.38293	0.05727	0.90857	0.059
Mof_H 	H 	0.41163	0.11317	0.91527	0.075
Mof_H 	H 	0.40093	0.07217	0.93267	0.061
Mof_C 	C 	0.23853	0.67577	0.02347	-0.41
Mof_H 	H 	0.21323	0.67767	0.03167	0.005
Mof_H 	H 	0.22423	0.65547	0.01077	0.14
Mof_H 	H 	0.25353	0.66167	0.03257	0.124
Mof_C 	C 	0.36033	0.08167	0.90297	-0.206
Mof_H 	H 	0.37483	0.06037	0.90207	0.06
Mof_H 	H 	0.33343	0.06967	0.89267	0.053
Mof_H 	H 	0.38433	0.11457	0.89987	0.066
Mof_C 	C 	0.31943	0.09157	0.90637	-0.298
Mof_H 	H 	0.31343	0.06907	0.89457	0.09
Mof_H 	H 	0.28883	0.08977	0.91057	0.089
Mof_H 	H 	0.34273	0.12467	0.90187	0.1
Mof_C 	C 	0.31773	0.11047	0.92567	-0.209
Mof_H 	H 	0.29263	0.09957	0.91467	0.05
Mof_H 	H 	0.30323	0.10877	0.93977	0.06
Mof_H 	H 	0.34303	0.14397	0.92277	0.064
Mof_C 	C 	0.34863	0.11297	0.94347	-0.173
Mof_H 	H 	0.31793	0.11187	0.94717	0.062
Mof_H 	H 	0.36133	0.10527	0.95617	0.054
Mof_H 	H 	0.37203	0.14627	0.93867	0.053
Mof_C 	C 	0.37913	0.09547	0.94307	-0.328
Mof_H 	H 	0.39373	0.07427	0.94317	0.094
Mof_H 	H 	0.40433	0.12867	0.94007	0.111
Mof_H 	H 	0.36453	0.09357	0.95707	0.093
Mof_C 	C 	0.7661	0.5417	0.3637	-0.238
Mof_C 	C 	0.7885	0.5551	0.3838	0.082
Mof_H 	H 	0.8153	0.5869	0.3856	-0.015
Mof_C 	C 	0.7729	0.5235	0.401	-0.059
Mof_H 	H 	0.7882	0.5345	0.4146	0.048
Mof_C 	C 	0.7358	0.4766	0.3989	-0.014
Mof_C 	C 	0.7104	0.4627	0.3794	-0.072
Mof_H 	H 	0.6832	0.4312	0.3778	0.052
Mof_C 	C 	0.7254	0.4954	0.3625	0.089
Mof_H 	H 	0.7073	0.4859	0.3496	0.006
Mof_O 	O 	0.7437	0.5634	0.3315	-0.544
Mof_N 	N 	0.75	0.5914	0.3127	-0.16
Mof_C 	C 	0.7087	0.5815	0.3055	0.071
Mof_H 	H 	0.6808	0.5581	0.3131	0.045
Mof_C 	C 	0.7009	0.6034	0.2866	-0.134
Mof_C 	C 	0.7403	0.637	0.2733	0.233
Mof_C 	C 	0.7279	0.6559	0.255	-0.139
Mof_C 	C 	0.6794	0.643	0.2509	0.047
Mof_H 	H 	0.6722	0.6565	0.2389	0.008
Mof_C 	C 	0.6419	0.6109	0.2643	-0.133
Mof_C 	C 	0.6534	0.5923	0.2819	0.046
Mof_H 	H 	0.6279	0.571	0.2912	0.015
Mof_C 	C 	0.7635	0.6893	0.2399	0.079
Mof_H 	H 	0.7518	0.6988	0.2279	0.035
Mof_N 	N 	0.8089	0.7067	0.2414	-0.16
Mof_O 	O 	0.8318	0.7386	0.2239	-0.557
Mof_C 	C 	0.9453	0.8178	0.1938	0.423
Mof_H 	H 	0.9657	0.8062	0.1989	-0.105
Mof_C 	C 	0.9609	0.8487	0.1764	-0.322
Mof_H 	H 	0.9919	0.8585	0.1705	0.149
Mof_O 	O 	0.7848	0.6489	0.2775	-0.502
Mof_C 	C 	0.589	0.5958	0.259	0.326
Mof_O 	O 	0.992	0.9126	0.14149	-0.475
Mof_C 	C 	0.94	0.8838	0.3499	0.101
Mof_C 	C 	0.9047	0.8732	0.3687	0.041
Mof_H 	H 	0.8729	0.8656	0.3631	0.09
Mof_H 	H 	0.9014	0.8455	0.3769	-0.013
Mof_H 	H 	0.9173	0.9017	0.378	-0.003
Mof_C 	C 	0.9443	0.9271	0.3373	-0.142
Mof_H 	H 	0.9119	0.92	0.3326	0.023
Mof_H 	H 	0.9587	0.956	0.3464	0.045
Mof_H 	H 	0.9648	0.9329	0.3247	0.04
Mof_C 	C 	0.5864	0.6413	0.2534	-0.232
Mof_H 	H 	0.6094	0.659	0.2419	0.059
Mof_H 	H 	0.5535	0.6318	0.2486	0.075
Mof_H 	H 	0.5945	0.6621	0.266	0.061
Mof_C 	C 	0.9909	0.8961	0.3568	-0.427
Mof_H 	H 	0.989	0.8689	0.365	0.008
Mof_H 	H 	0.0112	0.9021	0.3441	0.146
Mof_H 	H 	0.005	0.9252	0.3659	0.127
Mof_C 	C 	0.585	0.612	0.2363	-0.206
Mof_H 	H 	0.6063	0.6478	0.2354	0.06
Mof_H 	H 	0.597	0.5971	0.226	0.053
Mof_H 	H 	0.5521	0.6031	0.2332	0.066
Mof_C 	C 	0.5751	0.5612	0.2397	-0.297
Mof_H 	H 	0.5976	0.5777	0.2279	0.09
Mof_H 	H 	0.5769	0.5324	0.2439	0.089
Mof_H 	H 	0.542	0.5514	0.2352	0.1
Mof_C 	C 	0.5562	0.5406	0.259	-0.209
Mof_H 	H 	0.5671	0.5264	0.248	0.05
Mof_H 	H 	0.5579	0.5278	0.2731	0.06
Mof_H 	H 	0.5227	0.5324	0.2561	0.064
Mof_C 	C 	0.5537	0.569	0.2768	-0.173
Mof_H 	H 	0.5548	0.5394	0.2805	0.062
Mof_H 	H 	0.5614	0.5894	0.2895	0.054
Mof_H 	H 	0.5204	0.5591	0.272	0.053
Mof_C 	C 	0.5712	0.617	0.2764	-0.328
Mof_H 	H 	0.5924	0.6528	0.2765	0.094
Mof_H 	H 	0.538	0.609	0.2734	0.111
Mof_H 	H 	0.5731	0.6043	0.2904	0.093
Mof_C 	C 	0.43277	0.87503	0.69703	-0.238
Mof_C 	C 	0.45517	0.88843	0.71713	0.082
Mof_H 	H 	0.48197	0.92023	0.71893	-0.015
Mof_C 	C 	0.43957	0.85683	0.73433	-0.059
Mof_H 	H 	0.45487	0.86783	0.74793	0.048
Mof_C 	C 	0.40247	0.80993	0.73223	-0.014
Mof_C 	C 	0.37707	0.79603	0.71273	-0.072
Mof_H 	H 	0.34987	0.76453	0.71113	0.052
Mof_C 	C 	0.39207	0.82873	0.69583	0.089
Mof_H 	H 	0.37397	0.81923	0.68293	0.006
Mof_O 	O 	0.41037	0.89673	0.66483	-0.544
Mof_N 	N 	0.41667	0.92473	0.64603	-0.16
Mof_C 	C 	0.37537	0.91483	0.63883	0.071
Mof_H 	H 	0.34747	0.89143	0.64643	0.046
Mof_C 	C 	0.36757	0.93673	0.61993	-0.133
Mof_C 	C 	0.40697	0.97033	0.60663	0.233
Mof_C 	C 	0.39457	0.98923	0.58833	-0.136
Mof_C 	C 	0.34607	0.97633	0.58423	0.046
Mof_H 	H 	0.33887	0.98983	0.57223	0.008
Mof_C 	C 	0.30857	0.94423	0.59763	-0.133
Mof_C 	C 	0.32007	0.92563	0.61523	0.046
Mof_H 	H 	0.29457	0.90433	0.62453	0.015
Mof_C 	C 	0.43017	0.02263	0.57323	0.076
Mof_H 	H 	0.41847	0.03213	0.56123	0.036
Mof_N 	N 	0.47557	0.04003	0.57473	-0.16
Mof_O 	O 	0.49847	0.07193	0.55723	-0.557
Mof_C 	C 	0.61197	0.15113	0.52713	0.423
Mof_H 	H 	0.63237	0.13953	0.53223	-0.106
Mof_C 	C 	0.62757	0.18203	0.50973	-0.322
Mof_H 	H 	0.65857	0.19183	0.50383	0.149
Mof_O 	O 	0.45147	0.98223	0.61083	-0.501
Mof_C 	C 	0.25567	0.92913	0.59233	0.326
Mof_O 	O 	0.65867	0.24593	0.47482	-0.476
Mof_C 	C 	0.60667	0.21713	0.68323	0.102
Mof_C 	C 	0.57137	0.20653	0.70203	0.025
Mof_H 	H 	0.53957	0.19893	0.69643	0.093
Mof_H 	H 	0.56807	0.17883	0.71023	-0.009
Mof_H 	H 	0.58397	0.23503	0.71133	0.001
Mof_C 	C 	0.61097	0.26043	0.67063	-0.138
Mof_H 	H 	0.57857	0.25333	0.66593	0.023
Mof_H 	H 	0.62537	0.28933	0.67973	0.044
Mof_H 	H 	0.63147	0.26623	0.65803	0.042
Mof_C 	C 	0.25307	0.97463	0.58673	-0.233
Mof_H 	H 	0.27607	0.99233	0.57523	0.059
Mof_H 	H 	0.22017	0.96513	0.58193	0.075
Mof_H 	H 	0.26117	0.99543	0.59933	0.061
Mof_C 	C 	0.65757	0.22943	0.69013	-0.409
Mof_H 	H 	0.65567	0.20223	0.69833	0.005
Mof_H 	H 	0.67787	0.23543	0.67743	0.14
Mof_H 	H 	0.67167	0.25853	0.69923	0.124
Mof_C 	C 	0.25167	0.94533	0.56963	-0.206
Mof_H 	H 	0.27297	0.98113	0.56873	0.06
Mof_H 	H 	0.26367	0.93043	0.55933	0.054
Mof_H 	H 	0.21877	0.93643	0.56653	0.066
Mof_C 	C 	0.24177	0.89453	0.57303	-0.297
Mof_H 	H 	0.26427	0.91103	0.56123	0.09
Mof_H 	H 	0.24357	0.86573	0.57723	0.089
Mof_H 	H 	0.20867	0.88473	0.56853	0.1
Mof_C 	C 	0.22287	0.87393	0.59233	-0.208
Mof_H 	H 	0.23377	0.85973	0.58133	0.05
Mof_H 	H 	0.22457	0.86113	0.60643	0.06
Mof_H 	H 	0.18937	0.86573	0.58943	0.064
Mof_C 	C 	0.22037	0.90233	0.61013	-0.173
Mof_H 	H 	0.22147	0.87273	0.61383	0.062
Mof_H 	H 	0.22807	0.92273	0.62283	0.054
Mof_H 	H 	0.18707	0.89243	0.60533	0.053
Mof_C 	C 	0.23787	0.95033	0.60973	-0.328
Mof_H 	H 	0.25907	0.98613	0.60983	0.095
Mof_H 	H 	0.20467	0.94233	0.60673	0.111
Mof_H 	H 	0.23977	0.93763	0.62373	0.093
Mof_C 	C 	0.09943	0.20837	0.03037	-0.237
Mof_C 	C 	0.12183	0.22177	0.05047	0.072
Mof_H 	H 	0.14863	0.25357	0.05227	-0.012
Mof_C 	C 	0.10623	0.19017	0.06767	-0.07
Mof_H 	H 	0.12153	0.20117	0.08127	0.051
Mof_C 	C 	0.06913	0.14327	0.06557	-0.013
Mof_C 	C 	0.04373	0.12937	0.04607	-0.072
Mof_H 	H 	0.01653	0.09787	0.04447	0.051
Mof_C 	C 	0.05873	0.16207	0.02917	0.087
Mof_H 	H 	0.04063	0.15257	0.01627	0.006
Mof_O 	O 	0.07703	0.23007	0.99817	-0.545
Mof_N 	N 	0.08333	0.25807	0.97937	-0.161
Mof_C 	C 	0.04203	0.24817	0.97217	0.072
Mof_H 	H 	0.01413	0.22477	0.97977	0.045
Mof_C 	C 	0.03423	0.27007	0.95327	-0.135
Mof_C 	C 	0.07363	0.30367	0.93997	0.234
Mof_C 	C 	0.06123	0.32257	0.92167	-0.139
Mof_C 	C 	0.01273	0.30967	0.91757	0.046
Mof_H 	H 	0.00553	0.32317	0.90557	0.008
Mof_C 	C 	0.97523	0.27757	0.93097	-0.133
Mof_C 	C 	0.98673	0.25897	0.94857	0.048
Mof_H 	H 	0.96123	0.23767	0.95787	0.014
Mof_C 	C 	0.09683	0.35597	0.90657	0.079
Mof_H 	H 	0.08513	0.36547	0.89457	0.035
Mof_N 	N 	0.14223	0.37337	0.90807	-0.16
Mof_O 	O 	0.16513	0.40527	0.89057	-0.557
Mof_C 	C 	0.27863	0.48447	0.86047	0.423
Mof_H 	H 	0.29903	0.47287	0.86557	-0.106
Mof_C 	C 	0.29423	0.51537	0.84307	-0.322
Mof_H 	H 	0.32523	0.52517	0.83717	0.149
Mof_O 	O 	0.11813	0.31557	0.94417	-0.502
Mof_C 	C 	0.92233	0.26247	0.92567	0.326
Mof_O 	O 	0.32533	0.57927	0.80816	-0.476
Mof_C 	C 	0.27333	0.55047	0.01657	0.102
Mof_C 	C 	0.23803	0.53987	0.03537	0.025
Mof_H 	H 	0.20623	0.53227	0.02977	0.093
Mof_H 	H 	0.23473	0.51217	0.04357	-0.009
Mof_H 	H 	0.25063	0.56837	0.04467	0.001
Mof_C 	C 	0.27763	0.59377	0.00397	-0.138
Mof_H 	H 	0.24523	0.58667	0.99927	0.023
Mof_H 	H 	0.29203	0.62267	0.01307	0.044
Mof_H 	H 	0.29813	0.59957	0.99137	0.042
Mof_C 	C 	0.91973	0.30797	0.92007	-0.232
Mof_H 	H 	0.94273	0.32567	0.90857	0.059
Mof_H 	H 	0.88683	0.29847	0.91527	0.075
Mof_H 	H 	0.92783	0.32877	0.93267	0.061
Mof_C 	C 	0.32423	0.56277	0.02347	-0.41
Mof_H 	H 	0.32233	0.53557	0.03167	0.005
Mof_H 	H 	0.34453	0.56877	0.01077	0.14
Mof_H 	H 	0.33833	0.59187	0.03257	0.124
Mof_C 	C 	0.91833	0.27867	0.90297	-0.206
Mof_H 	H 	0.93963	0.31447	0.90207	0.06
Mof_H 	H 	0.93033	0.26377	0.89267	0.053
Mof_H 	H 	0.88543	0.26977	0.89987	0.066
Mof_C 	C 	0.90843	0.22787	0.90637	-0.297
Mof_H 	H 	0.93093	0.24437	0.89457	0.09
Mof_H 	H 	0.91023	0.19907	0.91057	0.089
Mof_H 	H 	0.87533	0.21807	0.90187	0.1
Mof_C 	C 	0.88953	0.20727	0.92567	-0.208
Mof_H 	H 	0.90043	0.19307	0.91467	0.051
Mof_H 	H 	0.89123	0.19447	0.93977	0.06
Mof_H 	H 	0.85603	0.19907	0.92277	0.064
Mof_C 	C 	0.88703	0.23567	0.94347	-0.173
Mof_H 	H 	0.88813	0.20607	0.94717	0.062
Mof_H 	H 	0.89473	0.25607	0.95617	0.054
Mof_H 	H 	0.85373	0.22577	0.93867	0.053
Mof_C 	C 	0.90453	0.28367	0.94307	-0.328
Mof_H 	H 	0.92573	0.31947	0.94317	0.095
Mof_H 	H 	0.87133	0.27567	0.94007	0.111
Mof_H 	H 	0.90643	0.27097	0.95707	0.093
Mof_C 	C 	0.7756	0.5417	0.3637	-0.238
Mof_C 	C 	0.7666	0.5551	0.3838	0.082
Mof_H 	H 	0.7716	0.5869	0.3856	-0.015
Mof_C 	C 	0.7506	0.5235	0.401	-0.059
Mof_H 	H 	0.7463	0.5345	0.4146	0.048
Mof_C 	C 	0.7408	0.4766	0.3989	-0.014
Mof_C 	C 	0.7523	0.4627	0.3794	-0.072
Mof_H 	H 	0.748	0.4312	0.3778	0.052
Mof_C 	C 	0.77	0.4954	0.3625	0.089
Mof_H 	H 	0.7786	0.4859	0.3496	0.006
Mof_O 	O 	0.8197	0.5634	0.3315	-0.544
Mof_N 	N 	0.8414	0.5914	0.3127	-0.16
Mof_C 	C 	0.8728	0.5815	0.3055	0.071
Mof_H 	H 	0.8773	0.5581	0.3131	0.046
Mof_C 	C 	0.9025	0.6034	0.2866	-0.132
Mof_C 	C 	0.8967	0.637	0.2733	0.232
Mof_C 	C 	0.928	0.6559	0.255	-0.138
Mof_C 	C 	0.9636	0.643	0.2509	0.044
Mof_H 	H 	0.9843	0.6565	0.2389	0.01
Mof_C 	C 	0.969	0.6109	0.2643	-0.127
Mof_C 	C 	0.9389	0.5923	0.2819	0.043
Mof_H 	H 	0.9431	0.571	0.2912	0.016
Mof_C 	C 	0.9258	0.6893	0.2399	0.078
Mof_H 	H 	0.947	0.6988	0.2279	0.036
Mof_N 	N 	0.8978	0.7067	0.2414	-0.16
Mof_O 	O 	0.9068	0.7386	0.2239	-0.557
Mof_C 	C 	0.8725	0.8178	0.1938	0.423
Mof_H 	H 	0.8405	0.8062	0.1989	-0.106
Mof_C 	C 	0.8878	0.8487	0.1764	-0.322
Mof_H 	H 	0.8666	0.8585	0.1705	0.149
Mof_O 	O 	0.8641	0.6489	0.2775	-0.502
Mof_C 	C 	0.0068	0.5958	0.259	0.317
Mof_O 	O 	0.9206	0.9126	0.14149	-0.476
Mof_C 	C 	0.9438	0.8838	0.3499	0.102
Mof_C 	C 	0.9685	0.8732	0.3687	0.043
Mof_H 	H 	0.9927	0.8656	0.3631	0.089
Mof_H 	H 	0.9441	0.8455	0.3769	-0.014
Mof_H 	H 	0.9844	0.9017	0.378	-0.003
Mof_C 	C 	0.9828	0.9271	0.3373	-0.121
Mof_H 	H 	0.0081	0.92	0.3326	0.015
Mof_H 	H 	0.9973	0.956	0.3464	0.04
Mof_H 	H 	0.9681	0.9329	0.3247	0.042
Mof_C 	C 	0.0549	0.6413	0.2534	-0.228
Mof_H 	H 	0.0496	0.659	0.2419	0.058
Mof_H 	H 	0.0783	0.6318	0.2486	0.073
Mof_H 	H 	0.0676	0.6621	0.266	0.059
Mof_C 	C 	0.9052	0.8961	0.3568	-0.425
Mof_H 	H 	0.8799	0.8689	0.365	0.008
Mof_H 	H 	0.8909	0.9021	0.3441	0.145
Mof_H 	H 	0.9202	0.9252	0.3659	0.129
Mof_C 	C 	0.027	0.612	0.2363	-0.201
Mof_H 	H 	0.0415	0.6478	0.2354	0.059
Mof_H 	H 	0.0001	0.5971	0.226	0.047
Mof_H 	H 	0.051	0.6031	0.2332	0.064
Mof_C 	C 	0.9861	0.5612	0.2397	-0.292
Mof_H 	H 	0.9801	0.5777	0.2279	0.094
Mof_H 	H 	0.9555	0.5324	0.2439	0.083
Mof_H 	H 	0.0094	0.5514	0.2352	0.097
Mof_C 	C 	0.9844	0.5406	0.259	-0.198
Mof_H 	H 	0.9593	0.5264	0.248	0.053
Mof_H 	H 	0.9699	0.5278	0.2731	0.054
Mof_H 	H 	0.0097	0.5324	0.2561	0.06
Mof_C 	C 	0.0153	0.569	0.2768	-0.173
Mof_H 	H 	0.9846	0.5394	0.2805	0.066
Mof_H 	H 	0.028	0.5894	0.2895	0.046
Mof_H 	H 	0.0387	0.5591	0.272	0.053
Mof_C 	C 	0.0458	0.617	0.2764	-0.329
Mof_H 	H 	0.0604	0.6528	0.2765	0.095
Mof_H 	H 	0.071	0.609	0.2734	0.111
Mof_H 	H 	0.0312	0.6043	0.2904	0.101
Mof_C 	C 	0.44227	0.87503	0.69703	-0.238
Mof_C 	C 	0.43327	0.88843	0.71713	0.082
Mof_H 	H 	0.43827	0.92023	0.71893	-0.015
Mof_C 	C 	0.41727	0.85683	0.73433	-0.059
Mof_H 	H 	0.41297	0.86783	0.74793	0.048
Mof_C 	C 	0.40747	0.80993	0.73223	-0.014
Mof_C 	C 	0.41897	0.79603	0.71273	-0.072
Mof_H 	H 	0.41467	0.76453	0.71113	0.052
Mof_C 	C 	0.43667	0.82873	0.69583	0.089
Mof_H 	H 	0.44527	0.81923	0.68293	0.006
Mof_O 	O 	0.48637	0.89673	0.66483	-0.544
Mof_N 	N 	0.50807	0.92473	0.64603	-0.16
Mof_C 	C 	0.53947	0.91483	0.63883	0.071
Mof_H 	H 	0.54397	0.89143	0.64643	0.046
Mof_C 	C 	0.56917	0.93673	0.61993	-0.133
Mof_C 	C 	0.56337	0.97033	0.60663	0.233
Mof_C 	C 	0.59467	0.98923	0.58833	-0.136
Mof_C 	C 	0.63027	0.97633	0.58423	0.046
Mof_H 	H 	0.65097	0.98983	0.57223	0.008
Mof_C 	C 	0.63567	0.94423	0.59763	-0.133
Mof_C 	C 	0.60557	0.92563	0.61523	0.046
Mof_H 	H 	0.60977	0.90433	0.62453	0.015
Mof_C 	C 	0.59247	0.02263	0.57323	0.076
Mof_H 	H 	0.61367	0.03213	0.56123	0.036
Mof_N 	N 	0.56447	0.04003	0.57473	-0.16
Mof_O 	O 	0.57347	0.07193	0.55723	-0.557
Mof_C 	C 	0.53917	0.15113	0.52713	0.423
Mof_H 	H 	0.50717	0.13953	0.53223	-0.106
Mof_C 	C 	0.55447	0.18203	0.50973	-0.322
Mof_H 	H 	0.53327	0.19183	0.50383	0.149
Mof_O 	O 	0.53077	0.98223	0.61083	-0.501
Mof_C 	C 	0.67347	0.92913	0.59233	0.326
Mof_O 	O 	0.58727	0.24593	0.47482	-0.476
Mof_C 	C 	0.61047	0.21713	0.68323	0.102
Mof_C 	C 	0.63517	0.20653	0.70203	0.025
Mof_H 	H 	0.65937	0.19893	0.69643	0.093
Mof_H 	H 	0.61077	0.17883	0.71023	-0.009
Mof_H 	H 	0.65107	0.23503	0.71133	0.001
Mof_C 	C 	0.64947	0.26043	0.67063	-0.138
Mof_H 	H 	0.67477	0.25333	0.66593	0.023
Mof_H 	H 	0.66397	0.28933	0.67973	0.044
Mof_H 	H 	0.63477	0.26623	0.65803	0.042
Mof_C 	C 	0.72157	0.97463	0.58673	-0.233
Mof_H 	H 	0.71627	0.99233	0.57523	0.059
Mof_H 	H 	0.74497	0.96513	0.58193	0.075
Mof_H 	H 	0.73427	0.99543	0.59933	0.061
Mof_C 	C 	0.57187	0.22943	0.69013	-0.409
Mof_H 	H 	0.54657	0.20223	0.69833	0.005
Mof_H 	H 	0.55757	0.23543	0.67743	0.14
Mof_H 	H 	0.58687	0.25853	0.69923	0.124
Mof_C 	C 	0.69367	0.94533	0.56963	-0.206
Mof_H 	H 	0.70817	0.98113	0.56873	0.06
Mof_H 	H 	0.66677	0.93043	0.55933	0.054
Mof_H 	H 	0.71767	0.93643	0.56653	0.066
Mof_C 	C 	0.65277	0.89453	0.57303	-0.297
Mof_H 	H 	0.64677	0.91103	0.56123	0.09
Mof_H 	H 	0.62217	0.86573	0.57723	0.089
Mof_H 	H 	0.67607	0.88473	0.56853	0.1
Mof_C 	C 	0.65107	0.87393	0.59233	-0.209
Mof_H 	H 	0.62597	0.85973	0.58133	0.05
Mof_H 	H 	0.63657	0.86113	0.60643	0.06
Mof_H 	H 	0.67637	0.86573	0.58943	0.064
Mof_C 	C 	0.68197	0.90233	0.61013	-0.173
Mof_H 	H 	0.65127	0.87273	0.61383	0.062
Mof_H 	H 	0.69467	0.92273	0.62283	0.054
Mof_H 	H 	0.70537	0.89243	0.60533	0.053
Mof_C 	C 	0.71247	0.95033	0.60973	-0.328
Mof_H 	H 	0.72707	0.98613	0.60983	0.095
Mof_H 	H 	0.73767	0.94233	0.60673	0.111
Mof_H 	H 	0.69787	0.93763	0.62373	0.093
Mof_C 	C 	0.10893	0.20837	0.03037	-0.24
Mof_C 	C 	0.09993	0.22177	0.05047	0.092
Mof_H 	H 	0.10493	0.25357	0.05227	-0.018
Mof_C 	C 	0.08393	0.19017	0.06767	-0.048
Mof_H 	H 	0.07963	0.20117	0.08127	0.044
Mof_C 	C 	0.07413	0.14327	0.06557	-0.015
Mof_C 	C 	0.08563	0.12937	0.04607	-0.071
Mof_H 	H 	0.08133	0.09787	0.04447	0.051
Mof_C 	C 	0.10333	0.16207	0.02917	0.09
Mof_H 	H 	0.11193	0.15257	0.01627	0.005
Mof_O 	O 	0.15303	0.23007	0.99817	-0.544
Mof_N 	N 	0.17473	0.25807	0.97937	-0.161
Mof_C 	C 	0.20613	0.24817	0.97217	0.071
Mof_H 	H 	0.21063	0.22477	0.97977	0.046
Mof_C 	C 	0.23583	0.27007	0.95327	-0.134
Mof_C 	C 	0.23003	0.30367	0.93997	0.233
Mof_C 	C 	0.26133	0.32257	0.92167	-0.139
Mof_C 	C 	0.29693	0.30967	0.91757	0.047
Mof_H 	H 	0.31763	0.32317	0.90557	0.008
Mof_C 	C 	0.30233	0.27757	0.93097	-0.133
Mof_C 	C 	0.27223	0.25897	0.94857	0.046
Mof_H 	H 	0.27643	0.23767	0.95787	0.015
Mof_C 	C 	0.25913	0.35597	0.90657	0.079
Mof_H 	H 	0.28033	0.36547	0.89457	0.035
Mof_N 	N 	0.23113	0.37337	0.90807	-0.16
Mof_O 	O 	0.24013	0.40527	0.89057	-0.557
Mof_C 	C 	0.20583	0.48447	0.86047	0.423
Mof_H 	H 	0.17383	0.47287	0.86557	-0.106
Mof_C 	C 	0.22113	0.51537	0.84307	-0.322
Mof_H 	H 	0.19993	0.52517	0.83717	0.149
Mof_O 	O 	0.19743	0.31557	0.94417	-0.502
Mof_C 	C 	0.34013	0.26247	0.92567	0.326
Mof_O 	O 	0.25393	0.57927	0.80816	-0.476
Mof_C 	C 	0.27713	0.55047	0.01657	0.102
Mof_C 	C 	0.30183	0.53987	0.03537	0.025
Mof_H 	H 	0.32603	0.53227	0.02977	0.093
Mof_H 	H 	0.27743	0.51217	0.04357	-0.009
Mof_H 	H 	0.31773	0.56837	0.04467	0.001
Mof_C 	C 	0.31613	0.59377	0.00397	-0.138
Mof_H 	H 	0.34143	0.58667	0.99927	0.023
Mof_H 	H 	0.33063	0.62267	0.01307	0.044
Mof_H 	H 	0.30143	0.59957	0.99137	0.042
Mof_C 	C 	0.38823	0.30797	0.92007	-0.232
Mof_H 	H 	0.38293	0.32567	0.90857	0.059
Mof_H 	H 	0.41163	0.29847	0.91527	0.075
Mof_H 	H 	0.40093	0.32877	0.93267	0.061
Mof_C 	C 	0.23853	0.56277	0.02347	-0.409
Mof_H 	H 	0.21323	0.53557	0.03167	0.005
Mof_H 	H 	0.22423	0.56877	0.01077	0.14
Mof_H 	H 	0.25353	0.59187	0.03257	0.124
Mof_C 	C 	0.36033	0.27867	0.90297	-0.206
Mof_H 	H 	0.37483	0.31447	0.90207	0.06
Mof_H 	H 	0.33343	0.26377	0.89267	0.053
Mof_H 	H 	0.38433	0.26977	0.89987	0.066
Mof_C 	C 	0.31943	0.22787	0.90637	-0.297
Mof_H 	H 	0.31343	0.24437	0.89457	0.09
Mof_H 	H 	0.28883	0.19907	0.91057	0.089
Mof_H 	H 	0.34273	0.21807	0.90187	0.1
Mof_C 	C 	0.31773	0.20727	0.92567	-0.208
Mof_H 	H 	0.29263	0.19307	0.91467	0.05
Mof_H 	H 	0.30323	0.19447	0.93977	0.06
Mof_H 	H 	0.34303	0.19907	0.92277	0.064
Mof_C 	C 	0.34863	0.23567	0.94347	-0.173
Mof_H 	H 	0.31793	0.20607	0.94717	0.062
Mof_H 	H 	0.36133	0.25607	0.95617	0.054
Mof_H 	H 	0.37203	0.22577	0.93867	0.053
Mof_C 	C 	0.37913	0.28367	0.94307	-0.328
Mof_H 	H 	0.39373	0.31947	0.94317	0.094
Mof_H 	H 	0.40433	0.27567	0.94007	0.111
Mof_H 	H 	0.36453	0.27097	0.95707	0.093
Mof_C 	C 	0.7661	0.2244	0.3637	-0.238
Mof_C 	C 	0.7885	0.2334	0.3838	0.082
Mof_H 	H 	0.8153	0.2284	0.3856	-0.015
Mof_C 	C 	0.7729	0.2494	0.401	-0.059
Mof_H 	H 	0.7882	0.2537	0.4146	0.048
Mof_C 	C 	0.7358	0.2592	0.3989	-0.014
Mof_C 	C 	0.7104	0.2477	0.3794	-0.072
Mof_H 	H 	0.6832	0.252	0.3778	0.052
Mof_C 	C 	0.7254	0.23	0.3625	0.089
Mof_H 	H 	0.7073	0.2214	0.3496	0.006
Mof_O 	O 	0.7437	0.1803	0.3315	-0.544
Mof_N 	N 	0.75	0.1586	0.3127	-0.16
Mof_C 	C 	0.7087	0.1272	0.3055	0.071
Mof_H 	H 	0.6808	0.1227	0.3131	0.045
Mof_C 	C 	0.7009	0.0975	0.2866	-0.134
Mof_C 	C 	0.7403	0.1033	0.2733	0.233
Mof_C 	C 	0.7279	0.072	0.255	-0.139
Mof_C 	C 	0.6794	0.0364	0.2509	0.047
Mof_H 	H 	0.6722	0.0157	0.2389	0.008
Mof_C 	C 	0.6419	0.031	0.2643	-0.134
Mof_C 	C 	0.6534	0.0611	0.2819	0.046
Mof_H 	H 	0.6279	0.0569	0.2912	0.014
Mof_C 	C 	0.7635	0.0742	0.2399	0.079
Mof_H 	H 	0.7518	0.053	0.2279	0.035
Mof_N 	N 	0.8089	0.1022	0.2414	-0.16
Mof_O 	O 	0.8318	0.0932	0.2239	-0.557
Mof_C 	C 	0.9453	0.1275	0.1938	0.423
Mof_H 	H 	0.9657	0.1595	0.1989	-0.105
Mof_C 	C 	0.9609	0.1122	0.1764	-0.322
Mof_H 	H 	0.9919	0.1334	0.1705	0.149
Mof_O 	O 	0.7848	0.1359	0.2775	-0.502
Mof_C 	C 	0.589	0.9932	0.259	0.327
Mof_O 	O 	0.992	0.0794	0.14149	-0.475
Mof_C 	C 	0.94	0.0562	0.3499	0.101
Mof_C 	C 	0.9047	0.0315	0.3687	0.041
Mof_H 	H 	0.8729	0.0073	0.3631	0.09
Mof_H 	H 	0.9014	0.0559	0.3769	-0.013
Mof_H 	H 	0.9173	0.0156	0.378	-0.003
Mof_C 	C 	0.9443	0.0172	0.3373	-0.144
Mof_H 	H 	0.9119	0.9919	0.3326	0.024
Mof_H 	H 	0.9587	0.0027	0.3464	0.046
Mof_H 	H 	0.9648	0.0319	0.3247	0.04
Mof_C 	C 	0.5864	0.9451	0.2534	-0.233
Mof_H 	H 	0.6094	0.9504	0.2419	0.059
Mof_H 	H 	0.5535	0.9217	0.2486	0.075
Mof_H 	H 	0.5945	0.9324	0.266	0.061
Mof_C 	C 	0.9909	0.0948	0.3568	-0.427
Mof_H 	H 	0.989	0.1201	0.365	0.008
Mof_H 	H 	0.0112	0.1091	0.3441	0.146
Mof_H 	H 	0.005	0.0798	0.3659	0.127
Mof_C 	C 	0.585	0.973	0.2363	-0.206
Mof_H 	H 	0.6063	0.9585	0.2354	0.06
Mof_H 	H 	0.597	0.9999	0.226	0.054
Mof_H 	H 	0.5521	0.949	0.2332	0.066
Mof_C 	C 	0.5751	0.0139	0.2397	-0.298
Mof_H 	H 	0.5976	0.0199	0.2279	0.09
Mof_H 	H 	0.5769	0.0445	0.2439	0.089
Mof_H 	H 	0.542	0.9906	0.2352	0.1
Mof_C 	C 	0.5562	0.0156	0.259	-0.209
Mof_H 	H 	0.5671	0.0407	0.248	0.05
Mof_H 	H 	0.5579	0.0301	0.2731	0.06
Mof_H 	H 	0.5227	0.9903	0.2561	0.064
Mof_C 	C 	0.5537	0.9847	0.2768	-0.173
Mof_H 	H 	0.5548	0.0154	0.2805	0.062
Mof_H 	H 	0.5614	0.972	0.2895	0.054
Mof_H 	H 	0.5204	0.9613	0.272	0.053
Mof_C 	C 	0.5712	0.9542	0.2764	-0.328
Mof_H 	H 	0.5924	0.9396	0.2765	0.094
Mof_H 	H 	0.538	0.929	0.2734	0.111
Mof_H 	H 	0.5731	0.9688	0.2904	0.093
Mof_C 	C 	0.43277	0.55773	0.69703	-0.238
Mof_C 	C 	0.45517	0.56673	0.71713	0.082
Mof_H 	H 	0.48197	0.56173	0.71893	-0.015
Mof_C 	C 	0.43957	0.58273	0.73433	-0.059
Mof_H 	H 	0.45487	0.58703	0.74793	0.048
Mof_C 	C 	0.40247	0.59253	0.73223	-0.014
Mof_C 	C 	0.37707	0.58103	0.71273	-0.072
Mof_H 	H 	0.34987	0.58533	0.71113	0.052
Mof_C 	C 	0.39207	0.56333	0.69583	0.089
Mof_H 	H 	0.37397	0.55473	0.68293	0.006
Mof_O 	O 	0.41037	0.51363	0.66483	-0.544
Mof_N 	N 	0.41667	0.49193	0.64603	-0.161
Mof_C 	C 	0.37537	0.46053	0.63883	0.071
Mof_H 	H 	0.34747	0.45603	0.64643	0.045
Mof_C 	C 	0.36757	0.43083	0.61993	-0.134
Mof_C 	C 	0.40697	0.43663	0.60663	0.233
Mof_C 	C 	0.39457	0.40533	0.58833	-0.139
Mof_C 	C 	0.34607	0.36973	0.58423	0.047
Mof_H 	H 	0.33887	0.34903	0.57223	0.008
Mof_C 	C 	0.30857	0.36433	0.59763	-0.133
Mof_C 	C 	0.32007	0.39443	0.61523	0.046
Mof_H 	H 	0.29457	0.39023	0.62453	0.015
Mof_C 	C 	0.43017	0.40753	0.57323	0.079
Mof_H 	H 	0.41847	0.38633	0.56123	0.035
Mof_N 	N 	0.47557	0.43553	0.57473	-0.16
Mof_O 	O 	0.49847	0.42653	0.55723	-0.557
Mof_C 	C 	0.61197	0.46083	0.52713	0.423
Mof_H 	H 	0.63237	0.49283	0.53223	-0.106
Mof_C 	C 	0.62757	0.44553	0.50973	-0.322
Mof_H 	H 	0.65857	0.46673	0.50383	0.149
Mof_O 	O 	0.45147	0.46923	0.61083	-0.502
Mof_C 	C 	0.25567	0.32653	0.59233	0.326
Mof_O 	O 	0.65867	0.41273	0.47482	-0.476
Mof_C 	C 	0.60667	0.38953	0.68323	0.102
Mof_C 	C 	0.57137	0.36483	0.70203	0.025
Mof_H 	H 	0.53957	0.34063	0.69643	0.093
Mof_H 	H 	0.56807	0.38923	0.71023	-0.009
Mof_H 	H 	0.58397	0.34893	0.71133	0.001
Mof_C 	C 	0.61097	0.35053	0.67063	-0.138
Mof_H 	H 	0.57857	0.32523	0.66593	0.023
Mof_H 	H 	0.62537	0.33603	0.67973	0.044
Mof_H 	H 	0.63147	0.36523	0.65803	0.042
Mof_C 	C 	0.25307	0.27843	0.58673	-0.232
Mof_H 	H 	0.27607	0.28373	0.57523	0.059
Mof_H 	H 	0.22017	0.25503	0.58193	0.075
Mof_H 	H 	0.26117	0.26573	0.59933	0.061
Mof_C 	C 	0.65757	0.42813	0.69013	-0.41
Mof_H 	H 	0.65567	0.45343	0.69833	0.005
Mof_H 	H 	0.67787	0.44243	0.67743	0.14
Mof_H 	H 	0.67167	0.41313	0.69923	0.124
Mof_C 	C 	0.25167	0.30633	0.56963	-0.206
Mof_H 	H 	0.27297	0.29183	0.56873	0.06
Mof_H 	H 	0.26367	0.33323	0.55933	0.053
Mof_H 	H 	0.21877	0.28233	0.56653	0.066
Mof_C 	C 	0.24177	0.34723	0.57303	-0.297
Mof_H 	H 	0.26427	0.35323	0.56123	0.09
Mof_H 	H 	0.24357	0.37783	0.57723	0.089
Mof_H 	H 	0.20867	0.32393	0.56853	0.1
Mof_C 	C 	0.22287	0.34893	0.59233	-0.209
Mof_H 	H 	0.23377	0.37403	0.58133	0.05
Mof_H 	H 	0.22457	0.36343	0.60643	0.06
Mof_H 	H 	0.18937	0.32363	0.58943	0.064
Mof_C 	C 	0.22037	0.31803	0.61013	-0.173
Mof_H 	H 	0.22147	0.34873	0.61383	0.062
Mof_H 	H 	0.22807	0.30533	0.62283	0.054
Mof_H 	H 	0.18707	0.29463	0.60533	0.053
Mof_C 	C 	0.23787	0.28753	0.60973	-0.328
Mof_H 	H 	0.25907	0.27293	0.60983	0.094
Mof_H 	H 	0.20467	0.26233	0.60673	0.111
Mof_H 	H 	0.23977	0.30213	0.62373	0.093
Mof_C 	C 	0.09943	0.89107	0.03037	-0.236
Mof_C 	C 	0.12183	0.90007	0.05047	0.066
Mof_H 	H 	0.14863	0.89507	0.05227	-0.01
Mof_C 	C 	0.10623	0.91607	0.06767	-0.076
Mof_H 	H 	0.12153	0.92037	0.08127	0.053
Mof_C 	C 	0.06913	0.92587	0.06557	-0.012
Mof_C 	C 	0.04373	0.91437	0.04607	-0.073
Mof_H 	H 	0.01653	0.91867	0.04447	0.052
Mof_C 	C 	0.05873	0.89667	0.02917	0.086
Mof_H 	H 	0.04063	0.88807	0.01627	0.006
Mof_O 	O 	0.07703	0.84697	0.99817	-0.545
Mof_N 	N 	0.08333	0.82527	0.97937	-0.161
Mof_C 	C 	0.04203	0.79387	0.97217	0.072
Mof_H 	H 	0.01413	0.78937	0.97977	0.045
Mof_C 	C 	0.03423	0.76417	0.95327	-0.135
Mof_C 	C 	0.07363	0.76997	0.93997	0.234
Mof_C 	C 	0.06123	0.73867	0.92167	-0.139
Mof_C 	C 	0.01273	0.70307	0.91757	0.046
Mof_H 	H 	0.00553	0.68237	0.90557	0.008
Mof_C 	C 	0.97523	0.69767	0.93097	-0.133
Mof_C 	C 	0.98673	0.72777	0.94857	0.048
Mof_H 	H 	0.96123	0.72357	0.95787	0.014
Mof_C 	C 	0.09683	0.74087	0.90657	0.079
Mof_H 	H 	0.08513	0.71967	0.89457	0.035
Mof_N 	N 	0.14223	0.76887	0.90807	-0.16
Mof_O 	O 	0.16513	0.75987	0.89057	-0.557
Mof_C 	C 	0.27863	0.79417	0.86047	0.423
Mof_H 	H 	0.29903	0.82617	0.86557	-0.105
Mof_C 	C 	0.29423	0.77887	0.84307	-0.322
Mof_H 	H 	0.32523	0.80007	0.83717	0.149
Mof_O 	O 	0.11813	0.80257	0.94417	-0.502
Mof_C 	C 	0.92233	0.65987	0.92567	0.326
Mof_O 	O 	0.32533	0.74607	0.80816	-0.476
Mof_C 	C 	0.27333	0.72287	0.01657	0.102
Mof_C 	C 	0.23803	0.69817	0.03537	0.025
Mof_H 	H 	0.20623	0.67397	0.02977	0.093
Mof_H 	H 	0.23473	0.72257	0.04357	-0.009
Mof_H 	H 	0.25063	0.68227	0.04467	0.001
Mof_C 	C 	0.27763	0.68387	0.00397	-0.138
Mof_H 	H 	0.24523	0.65857	0.99927	0.023
Mof_H 	H 	0.29203	0.66937	0.01307	0.044
Mof_H 	H 	0.29813	0.69857	0.99137	0.042
Mof_C 	C 	0.91973	0.61177	0.92007	-0.232
Mof_H 	H 	0.94273	0.61707	0.90857	0.059
Mof_H 	H 	0.88683	0.58837	0.91527	0.075
Mof_H 	H 	0.92783	0.59907	0.93267	0.061
Mof_C 	C 	0.32423	0.76147	0.02347	-0.41
Mof_H 	H 	0.32233	0.78677	0.03167	0.005
Mof_H 	H 	0.34453	0.77577	0.01077	0.14
Mof_H 	H 	0.33833	0.74647	0.03257	0.124
Mof_C 	C 	0.91833	0.63967	0.90297	-0.206
Mof_H 	H 	0.93963	0.62517	0.90207	0.06
Mof_H 	H 	0.93033	0.66657	0.89267	0.053
Mof_H 	H 	0.88543	0.61567	0.89987	0.066
Mof_C 	C 	0.90843	0.68057	0.90637	-0.297
Mof_H 	H 	0.93093	0.68657	0.89457	0.09
Mof_H 	H 	0.91023	0.71117	0.91057	0.089
Mof_H 	H 	0.87533	0.65727	0.90187	0.1
Mof_C 	C 	0.88953	0.68227	0.92567	-0.209
Mof_H 	H 	0.90043	0.70737	0.91467	0.05
Mof_H 	H 	0.89123	0.69677	0.93977	0.06
Mof_H 	H 	0.85603	0.65697	0.92277	0.064
Mof_C 	C 	0.88703	0.65137	0.94347	-0.173
Mof_H 	H 	0.88813	0.68207	0.94717	0.062
Mof_H 	H 	0.89473	0.63867	0.95617	0.054
Mof_H 	H 	0.85373	0.62797	0.93867	0.053
Mof_C 	C 	0.90453	0.62087	0.94307	-0.328
Mof_H 	H 	0.92573	0.60627	0.94317	0.095
Mof_H 	H 	0.87133	0.59567	0.94007	0.111
Mof_H 	H 	0.90643	0.63547	0.95707	0.093
Mof_C 	C 	0.4583	0.2339	0.3637	-0.238
Mof_C 	C 	0.4449	0.2115	0.3838	0.082
Mof_H 	H 	0.4131	0.1847	0.3856	-0.015
Mof_C 	C 	0.4765	0.2271	0.401	-0.059
Mof_H 	H 	0.4655	0.2118	0.4146	0.048
Mof_C 	C 	0.5234	0.2642	0.3989	-0.014
Mof_C 	C 	0.5373	0.2896	0.3794	-0.072
Mof_H 	H 	0.5688	0.3168	0.3778	0.052
Mof_C 	C 	0.5046	0.2746	0.3625	0.089
Mof_H 	H 	0.5141	0.2927	0.3496	0.006
Mof_O 	O 	0.4366	0.2563	0.3315	-0.544
Mof_N 	N 	0.4086	0.25	0.3127	-0.16
Mof_C 	C 	0.4185	0.2913	0.3055	0.071
Mof_H 	H 	0.4419	0.3192	0.3131	0.045
Mof_C 	C 	0.3966	0.2991	0.2866	-0.134
Mof_C 	C 	0.363	0.2597	0.2733	0.233
Mof_C 	C 	0.3441	0.2721	0.255	-0.139
Mof_C 	C 	0.357	0.3206	0.2509	0.047
Mof_H 	H 	0.3435	0.3278	0.2389	0.008
Mof_C 	C 	0.3891	0.3581	0.2643	-0.133
Mof_C 	C 	0.4077	0.3466	0.2819	0.046
Mof_H 	H 	0.429	0.3721	0.2912	0.015
Mof_C 	C 	0.3107	0.2365	0.2399	0.079
Mof_H 	H 	0.3012	0.2482	0.2279	0.035
Mof_N 	N 	0.2933	0.1911	0.2414	-0.16
Mof_O 	O 	0.2614	0.1682	0.2239	-0.557
Mof_C 	C 	0.1822	0.0547	0.1938	0.422
Mof_H 	H 	0.1938	0.0343	0.1989	-0.106
Mof_C 	C 	0.1513	0.0391	0.1764	-0.322
Mof_H 	H 	0.1415	0.0081	0.1705	0.148
Mof_O 	O 	0.3511	0.2152	0.2775	-0.502
Mof_C 	C 	0.4042	0.411	0.259	0.326
Mof_O 	O 	0.0874	0.008	0.14149	-0.477
Mof_C 	C 	0.1162	0.06	0.3499	0.102
Mof_C 	C 	0.1268	0.0953	0.3687	0.023
Mof_H 	H 	0.1344	0.1271	0.3631	0.094
Mof_H 	H 	0.1545	0.0986	0.3769	-0.008
Mof_H 	H 	0.0983	0.0827	0.378	0.002
Mof_C 	C 	0.0729	0.0557	0.3373	-0.137
Mof_H 	H 	0.08	0.0881	0.3326	0.023
Mof_H 	H 	0.044	0.0413	0.3464	0.043
Mof_H 	H 	0.0671	0.0352	0.3247	0.043
Mof_C 	C 	0.3587	0.4136	0.2534	-0.232
Mof_H 	H 	0.341	0.3906	0.2419	0.059
Mof_H 	H 	0.3682	0.4465	0.2486	0.075
Mof_H 	H 	0.3379	0.4055	0.266	0.061
Mof_C 	C 	0.1039	0.0091	0.3568	-0.406
Mof_H 	H 	0.1311	0.011	0.365	0.005
Mof_H 	H 	0.0979	0.9888	0.3441	0.139
Mof_H 	H 	0.0748	0.995	0.3659	0.123
Mof_C 	C 	0.388	0.415	0.2363	-0.206
Mof_H 	H 	0.3522	0.3937	0.2354	0.06
Mof_H 	H 	0.4029	0.403	0.226	0.053
Mof_H 	H 	0.3969	0.4479	0.2332	0.066
Mof_C 	C 	0.4388	0.4249	0.2397	-0.297
Mof_H 	H 	0.4223	0.4024	0.2279	0.09
Mof_H 	H 	0.4676	0.4231	0.2439	0.089
Mof_H 	H 	0.4486	0.458	0.2352	0.1
Mof_C 	C 	0.4594	0.4438	0.259	-0.209
Mof_H 	H 	0.4736	0.4329	0.248	0.05
Mof_H 	H 	0.4722	0.4421	0.2731	0.06
Mof_H 	H 	0.4676	0.4773	0.2561	0.064
Mof_C 	C 	0.431	0.4463	0.2768	-0.173
Mof_H 	H 	0.4606	0.4452	0.2805	0.062
Mof_H 	H 	0.4106	0.4386	0.2895	0.054
Mof_H 	H 	0.4409	0.4796	0.272	0.053
Mof_C 	C 	0.383	0.4288	0.2764	-0.328
Mof_H 	H 	0.3472	0.4076	0.2765	0.094
Mof_H 	H 	0.391	0.462	0.2734	0.111
Mof_H 	H 	0.3957	0.4269	0.2904	0.093
Mof_C 	C 	0.12497	0.56723	0.69703	-0.238
Mof_C 	C 	0.11157	0.54483	0.71713	0.082
Mof_H 	H 	0.07977	0.51803	0.71893	-0.015
Mof_C 	C 	0.14317	0.56043	0.73433	-0.059
Mof_H 	H 	0.13217	0.54513	0.74793	0.048
Mof_C 	C 	0.19007	0.59753	0.73223	-0.014
Mof_C 	C 	0.20397	0.62293	0.71273	-0.072
Mof_H 	H 	0.23547	0.65013	0.71113	0.052
Mof_C 	C 	0.17127	0.60793	0.69583	0.089
Mof_H 	H 	0.18077	0.62603	0.68293	0.006
Mof_O 	O 	0.10327	0.58963	0.66483	-0.544
Mof_N 	N 	0.07527	0.58333	0.64603	-0.161
Mof_C 	C 	0.08517	0.62463	0.63883	0.071
Mof_H 	H 	0.10857	0.65253	0.64643	0.045
Mof_C 	C 	0.06327	0.63243	0.61993	-0.134
Mof_C 	C 	0.02967	0.59303	0.60663	0.234
Mof_C 	C 	0.01077	0.60543	0.58833	-0.14
Mof_C 	C 	0.02367	0.65393	0.58423	0.048
Mof_H 	H 	0.01017	0.66113	0.57223	0.007
Mof_C 	C 	0.05577	0.69143	0.59763	-0.134
Mof_C 	C 	0.07437	0.67993	0.61523	0.046
Mof_H 	H 	0.09567	0.70543	0.62453	0.014
Mof_C 	C 	0.97737	0.56983	0.57323	0.08
Mof_H 	H 	0.96787	0.58153	0.56123	0.035
Mof_N 	N 	0.95997	0.52443	0.57473	-0.16
Mof_O 	O 	0.92807	0.50153	0.55723	-0.557
Mof_C 	C 	0.84887	0.38803	0.52713	0.423
Mof_H 	H 	0.86047	0.36763	0.53223	-0.106
Mof_C 	C 	0.81797	0.37243	0.50973	-0.322
Mof_H 	H 	0.80817	0.34143	0.50383	0.149
Mof_O 	O 	0.01777	0.54853	0.61083	-0.503
Mof_C 	C 	0.07087	0.74433	0.59233	0.327
Mof_O 	O 	0.75407	0.34133	0.47482	-0.476
Mof_C 	C 	0.78287	0.39333	0.68323	0.102
Mof_C 	C 	0.79347	0.42863	0.70203	0.025
Mof_H 	H 	0.80107	0.46043	0.69643	0.093
Mof_H 	H 	0.82117	0.43193	0.71023	-0.009
Mof_H 	H 	0.76497	0.41603	0.71133	0.001
Mof_C 	C 	0.73957	0.38903	0.67063	-0.138
Mof_H 	H 	0.74667	0.42143	0.66593	0.023
Mof_H 	H 	0.71067	0.37463	0.67973	0.044
Mof_H 	H 	0.73377	0.36853	0.65803	0.042
Mof_C 	C 	0.02537	0.74693	0.58673	-0.232
Mof_H 	H 	0.00767	0.72393	0.57523	0.059
Mof_H 	H 	0.03487	0.77983	0.58193	0.075
Mof_H 	H 	0.00457	0.73883	0.59933	0.061
Mof_C 	C 	0.77057	0.34243	0.69013	-0.41
Mof_H 	H 	0.79777	0.34433	0.69833	0.005
Mof_H 	H 	0.76457	0.32213	0.67743	0.14
Mof_H 	H 	0.74147	0.32833	0.69923	0.124
Mof_C 	C 	0.05467	0.74833	0.56963	-0.206
Mof_H 	H 	0.01887	0.72703	0.56873	0.06
Mof_H 	H 	0.06957	0.73633	0.55933	0.053
Mof_H 	H 	0.06357	0.78123	0.56653	0.066
Mof_C 	C 	0.10547	0.75823	0.57303	-0.298
Mof_H 	H 	0.08897	0.73573	0.56123	0.09
Mof_H 	H 	0.13427	0.75643	0.57723	0.089
Mof_H 	H 	0.11527	0.79133	0.56853	0.1
Mof_C 	C 	0.12607	0.77713	0.59233	-0.209
Mof_H 	H 	0.14027	0.76623	0.58133	0.05
Mof_H 	H 	0.13887	0.77543	0.60643	0.06
Mof_H 	H 	0.13427	0.81063	0.58943	0.064
Mof_C 	C 	0.09767	0.77963	0.61013	-0.173
Mof_H 	H 	0.12727	0.77853	0.61383	0.062
Mof_H 	H 	0.07727	0.77193	0.62283	0.054
Mof_H 	H 	0.10757	0.81293	0.60533	0.053
Mof_C 	C 	0.04967	0.76213	0.60973	-0.328
Mof_H 	H 	0.01387	0.74093	0.60983	0.095
Mof_H 	H 	0.05767	0.79533	0.60673	0.111
Mof_H 	H 	0.06237	0.76023	0.62373	0.093
Mof_C 	C 	0.79163	0.90057	0.03037	-0.239
Mof_C 	C 	0.77823	0.87817	0.05047	0.088
Mof_H 	H 	0.74643	0.85137	0.05227	-0.017
Mof_C 	C 	0.80983	0.89377	0.06767	-0.053
Mof_H 	H 	0.79883	0.87847	0.08127	0.046
Mof_C 	C 	0.85673	0.93087	0.06557	-0.014
Mof_C 	C 	0.87063	0.95627	0.04607	-0.071
Mof_H 	H 	0.90213	0.98347	0.04447	0.052
Mof_C 	C 	0.83793	0.94127	0.02917	0.09
Mof_H 	H 	0.84743	0.95937	0.01627	0.006
Mof_O 	O 	0.76993	0.92297	0.99817	-0.544
Mof_N 	N 	0.74193	0.91667	0.97937	-0.16
Mof_C 	C 	0.75183	0.95797	0.97217	0.071
Mof_H 	H 	0.77523	0.98587	0.97977	0.046
Mof_C 	C 	0.72993	0.96577	0.95327	-0.132
Mof_C 	C 	0.69633	0.92637	0.93997	0.233
Mof_C 	C 	0.67743	0.93877	0.92167	-0.14
Mof_C 	C 	0.69033	0.98727	0.91757	0.05
Mof_H 	H 	0.67683	0.99447	0.90557	0.008
Mof_C 	C 	0.72243	0.02477	0.93097	-0.135
Mof_C 	C 	0.74103	0.01327	0.94857	0.044
Mof_H 	H 	0.76233	0.03877	0.95787	0.015
Mof_C 	C 	0.64403	0.90317	0.90657	0.079
Mof_H 	H 	0.63453	0.91487	0.89457	0.036
Mof_N 	N 	0.62663	0.85777	0.90807	-0.16
Mof_O 	O 	0.59473	0.83487	0.89057	-0.557
Mof_C 	C 	0.51553	0.72137	0.86047	0.423
Mof_H 	H 	0.52713	0.70097	0.86557	-0.106
Mof_C 	C 	0.48463	0.70577	0.84307	-0.322
Mof_H 	H 	0.47483	0.67477	0.83717	0.149
Mof_O 	O 	0.68443	0.88187	0.94417	-0.502
Mof_C 	C 	0.73753	0.07767	0.92567	0.327
Mof_O 	O 	0.42073	0.67467	0.80816	-0.476
Mof_C 	C 	0.44953	0.72667	0.01657	0.102
Mof_C 	C 	0.46013	0.76197	0.03537	0.025
Mof_H 	H 	0.46773	0.79377	0.02977	0.093
Mof_H 	H 	0.48783	0.76527	0.04357	-0.009
Mof_H 	H 	0.43163	0.74937	0.04467	0.001
Mof_C 	C 	0.40623	0.72237	0.00397	-0.138
Mof_H 	H 	0.41333	0.75477	0.99927	0.023
Mof_H 	H 	0.37733	0.70797	0.01307	0.044
Mof_H 	H 	0.40043	0.70187	0.99137	0.042
Mof_C 	C 	0.69203	0.08027	0.92007	-0.232
Mof_H 	H 	0.67433	0.05727	0.90857	0.059
Mof_H 	H 	0.70153	0.11317	0.91527	0.075
Mof_H 	H 	0.67123	0.07217	0.93267	0.061
Mof_C 	C 	0.43723	0.67577	0.02347	-0.41
Mof_H 	H 	0.46443	0.67767	0.03167	0.005
Mof_H 	H 	0.43123	0.65547	0.01077	0.14
Mof_H 	H 	0.40813	0.66167	0.03257	0.124
Mof_C 	C 	0.72133	0.08167	0.90297	-0.206
Mof_H 	H 	0.68553	0.06037	0.90207	0.06
Mof_H 	H 	0.73623	0.06967	0.89267	0.053
Mof_H 	H 	0.73023	0.11457	0.89987	0.066
Mof_C 	C 	0.77213	0.09157	0.90637	-0.298
Mof_H 	H 	0.75563	0.06907	0.89457	0.09
Mof_H 	H 	0.80093	0.08977	0.91057	0.089
Mof_H 	H 	0.78193	0.12467	0.90187	0.1
Mof_C 	C 	0.79273	0.11047	0.92567	-0.209
Mof_H 	H 	0.80693	0.09957	0.91467	0.05
Mof_H 	H 	0.80553	0.10877	0.93977	0.06
Mof_H 	H 	0.80093	0.14397	0.92277	0.064
Mof_C 	C 	0.76433	0.11297	0.94347	-0.173
Mof_H 	H 	0.79393	0.11187	0.94717	0.062
Mof_H 	H 	0.74393	0.10527	0.95617	0.054
Mof_H 	H 	0.77423	0.14627	0.93867	0.053
Mof_C 	C 	0.71633	0.09547	0.94307	-0.328
Mof_H 	H 	0.68053	0.07427	0.94317	0.094
Mof_H 	H 	0.72433	0.12867	0.94007	0.111
Mof_H 	H 	0.72903	0.09357	0.95707	0.093
Mof_Co	Co	0.29622	0.14811	0.26527	1.142
Mof_Co	Co	0.35913	0.17956	0.30373	1.143
Mof_Zn	Zn	0.59976	0.29988	0.45668	1.217
Mof_B 	B 	0.4242	0.2121	0.3432	1.519
Mof_O 	O 	0.3747	0.18735	0.3512	-0.558
Mof_N 	N 	0.3382	0.1691	0.3362	-0.147
Mof_C 	C 	0.2963	0.14815	0.3447	0.061
Mof_H 	H 	0.2948	0.1474	0.3599	0.023
Mof_C 	C 	0.2508	0.1254	0.3331	-0.139
Mof_C 	C 	0.2473	0.12365	0.3101	0.245
Mof_C 	C 	0.1997	0.09985	0.3007	-0.141
Mof_C 	C 	0.1589	0.07945	0.3142	0.026
Mof_H 	H 	0.1275	0.06375	0.3079	0.017
Mof_C 	C 	0.1627	0.08135	0.3363	-0.093
Mof_C 	C 	0.2084	0.1042	0.3456	0.023
Mof_H 	H 	0.2111	0.10555	0.3608	0.008
Mof_C 	C 	0.19	0.095	0.2779	0.078
Mof_H 	H 	0.1571	0.07855	0.2735	0.037
Mof_N 	N 	0.2222	0.1111	0.2635	-0.159
Mof_O 	O 	0.1991	0.09955	0.2435	-0.596
Mof_B 	B 	0.2304	0.1152	0.2253	1.679
Mof_C 	C 	0.1975	0.09875	0.2042	-0.74
Mof_C 	C 	0.1343	0.06715	0.1675	0.146
Mof_C 	C 	0.559	0.2795	0.4171	0.393
Mof_O 	O 	0.6034	0.3017	0.4112	-0.586
Mof_O 	O 	0.546	0.273	0.4356	-0.494
Mof_O 	O 	0.2849	0.14245	0.2983	-0.525
Mof_C 	C 	0.1009	0.05045	0.1484	0.286
Mof_Co	Co	0.96289	0.48144	0.5986	1.142
Mof_Co	Co	0.0258	0.5129	0.63706	1.143
Mof_Zn	Zn	0.26643	0.63321	0.79001	1.217
Mof_B 	B 	0.09087	0.54543	0.67653	1.519
Mof_O 	O 	0.04137	0.52068	0.68453	-0.558
Mof_N 	N 	0.00487	0.50243	0.66953	-0.147
Mof_C 	C 	0.96297	0.48148	0.67803	0.062
Mof_H 	H 	0.96147	0.48073	0.69323	0.023
Mof_C 	C 	0.91747	0.45873	0.66643	-0.139
Mof_C 	C 	0.91397	0.45698	0.64343	0.245
Mof_C 	C 	0.86637	0.43318	0.63403	-0.141
Mof_C 	C 	0.82557	0.41278	0.64753	0.026
Mof_H 	H 	0.79417	0.39708	0.64123	0.018
Mof_C 	C 	0.82937	0.41468	0.66963	-0.093
Mof_C 	C 	0.87507	0.43753	0.67893	0.023
Mof_H 	H 	0.87777	0.43888	0.69413	0.008
Mof_C 	C 	0.85667	0.42833	0.61123	0.078
Mof_H 	H 	0.82377	0.41188	0.60683	0.037
Mof_N 	N 	0.88887	0.44443	0.59683	-0.159
Mof_O 	O 	0.86577	0.43288	0.57683	-0.596
Mof_B 	B 	0.89707	0.44853	0.55863	1.679
Mof_C 	C 	0.86417	0.43208	0.53753	-0.74
Mof_C 	C 	0.80097	0.40048	0.50083	0.146
Mof_C 	C 	0.22567	0.61283	0.75043	0.393
Mof_O 	O 	0.27007	0.63503	0.74453	-0.586
Mof_O 	O 	0.21267	0.60633	0.76893	-0.494
Mof_O 	O 	0.95157	0.47578	0.63163	-0.524
Mof_C 	C 	0.76757	0.38378	0.48173	0.286
Mof_Co	Co	0.62955	0.81478	0.93194	1.142
Mof_Co	Co	0.69246	0.84623	0.9704	1.143
Mof_Zn	Zn	0.93309	0.96655	0.12335	1.218
Mof_B 	B 	0.75753	0.87877	0.00987	1.519
Mof_O 	O 	0.70803	0.85402	0.01787	-0.558
Mof_N 	N 	0.67153	0.83577	0.00287	-0.147
Mof_C 	C 	0.62963	0.81482	0.01137	0.061
Mof_H 	H 	0.62813	0.81407	0.02657	0.023
Mof_C 	C 	0.58413	0.79207	0.99977	-0.139
Mof_C 	C 	0.58063	0.79032	0.97677	0.245
Mof_C 	C 	0.53303	0.76652	0.96737	-0.141
Mof_C 	C 	0.49223	0.74612	0.98087	0.026
Mof_H 	H 	0.46083	0.73042	0.97457	0.018
Mof_C 	C 	0.49603	0.74802	0.00297	-0.093
Mof_C 	C 	0.54173	0.77087	0.01227	0.023
Mof_H 	H 	0.54443	0.77222	0.02747	0.008
Mof_C 	C 	0.52333	0.76167	0.94457	0.078
Mof_H 	H 	0.49043	0.74522	0.94017	0.037
Mof_N 	N 	0.55553	0.77777	0.93017	-0.159
Mof_O 	O 	0.53243	0.76622	0.91017	-0.596
Mof_B 	B 	0.56373	0.78187	0.89197	1.679
Mof_C 	C 	0.53083	0.76542	0.87087	-0.74
Mof_C 	C 	0.46763	0.73382	0.83417	0.146
Mof_C 	C 	0.89233	0.94617	0.08377	0.393
Mof_O 	O 	0.93673	0.96837	0.07787	-0.585
Mof_O 	O 	0.87933	0.93967	0.10227	-0.494
Mof_O 	O 	0.61823	0.80912	0.96497	-0.525
Mof_C 	C 	0.43423	0.71712	0.81507	0.286
Mof_Co	Co	0.85189	0.14811	0.26527	1.142
Mof_Co	Co	0.82044	0.17956	0.30373	1.143
Mof_Zn	Zn	0.70012	0.29988	0.45668	1.217
Mof_B 	B 	0.7879	0.2121	0.3432	1.519
Mof_O 	O 	0.81265	0.18735	0.3512	-0.558
Mof_N 	N 	0.8309	0.1691	0.3362	-0.147
Mof_C 	C 	0.85185	0.14815	0.3447	0.061
Mof_H 	H 	0.8526	0.1474	0.3599	0.023
Mof_C 	C 	0.8746	0.1254	0.3331	-0.139
Mof_C 	C 	0.87635	0.12365	0.3101	0.245
Mof_C 	C 	0.90015	0.09985	0.3007	-0.141
Mof_C 	C 	0.92055	0.07945	0.3142	0.026
Mof_H 	H 	0.93625	0.06375	0.3079	0.018
Mof_C 	C 	0.91865	0.08135	0.3363	-0.093
Mof_C 	C 	0.8958	0.1042	0.3456	0.023
Mof_H 	H 	0.89445	0.10555	0.3608	0.008
Mof_C 	C 	0.905	0.095	0.2779	0.078
Mof_H 	H 	0.92145	0.07855	0.2735	0.037
Mof_N 	N 	0.8889	0.1111	0.2635	-0.159
Mof_O 	O 	0.90045	0.09955	0.2435	-0.596
Mof_B 	B 	0.8848	0.1152	0.2253	1.679
Mof_C 	C 	0.90125	0.09875	0.2042	-0.74
Mof_C 	C 	0.93285	0.06715	0.1675	0.147
Mof_C 	C 	0.7205	0.2795	0.4171	0.393
Mof_O 	O 	0.6983	0.3017	0.4112	-0.586
Mof_O 	O 	0.727	0.273	0.4356	-0.494
Mof_O 	O 	0.85755	0.14245	0.2983	-0.525
Mof_C 	C 	0.94955	0.05045	0.1484	0.286
Mof_Co	Co	0.51856	0.48144	0.5986	1.142
Mof_Co	Co	0.4871	0.5129	0.63706	1.143
Mof_Zn	Zn	0.36679	0.63321	0.79001	1.217
Mof_B 	B 	0.45457	0.54543	0.67653	1.519
Mof_O 	O 	0.47932	0.52068	0.68453	-0.558
Mof_N 	N 	0.49757	0.50243	0.66953	-0.147
Mof_C 	C 	0.51852	0.48148	0.67803	0.061
Mof_H 	H 	0.51927	0.48073	0.69323	0.023
Mof_C 	C 	0.54127	0.45873	0.66643	-0.139
Mof_C 	C 	0.54302	0.45698	0.64343	0.245
Mof_C 	C 	0.56682	0.43318	0.63403	-0.141
Mof_C 	C 	0.58722	0.41278	0.64753	0.026
Mof_H 	H 	0.60292	0.39708	0.64123	0.018
Mof_C 	C 	0.58532	0.41468	0.66963	-0.093
Mof_C 	C 	0.56247	0.43753	0.67893	0.023
Mof_H 	H 	0.56112	0.43888	0.69413	0.008
Mof_C 	C 	0.57167	0.42833	0.61123	0.078
Mof_H 	H 	0.58812	0.41188	0.60683	0.037
Mof_N 	N 	0.55557	0.44443	0.59683	-0.159
Mof_O 	O 	0.56712	0.43288	0.57683	-0.596
Mof_B 	B 	0.55147	0.44853	0.55863	1.679
Mof_C 	C 	0.56792	0.43208	0.53753	-0.74
Mof_C 	C 	0.59952	0.40048	0.50083	0.146
Mof_C 	C 	0.38717	0.61283	0.75043	0.393
Mof_O 	O 	0.36497	0.63503	0.74453	-0.586
Mof_O 	O 	0.39367	0.60633	0.76893	-0.494
Mof_O 	O 	0.52422	0.47578	0.63163	-0.525
Mof_C 	C 	0.61622	0.38378	0.48173	0.286
Mof_Co	Co	0.18522	0.81478	0.93194	1.142
Mof_Co	Co	0.15377	0.84623	0.9704	1.143
Mof_Zn	Zn	0.03345	0.96655	0.12335	1.217
Mof_B 	B 	0.12123	0.87877	0.00987	1.519
Mof_O 	O 	0.14598	0.85402	0.01787	-0.558
Mof_N 	N 	0.16423	0.83577	0.00287	-0.147
Mof_C 	C 	0.18518	0.81482	0.01137	0.061
Mof_H 	H 	0.18593	0.81407	0.02657	0.023
Mof_C 	C 	0.20793	0.79207	0.99977	-0.139
Mof_C 	C 	0.20968	0.79032	0.97677	0.245
Mof_C 	C 	0.23348	0.76652	0.96737	-0.141
Mof_C 	C 	0.25388	0.74612	0.98087	0.026
Mof_H 	H 	0.26958	0.73042	0.97457	0.018
Mof_C 	C 	0.25198	0.74802	0.00297	-0.093
Mof_C 	C 	0.22913	0.77087	0.01227	0.023
Mof_H 	H 	0.22778	0.77222	0.02747	0.008
Mof_C 	C 	0.23833	0.76167	0.94457	0.078
Mof_H 	H 	0.25478	0.74522	0.94017	0.037
Mof_N 	N 	0.22223	0.77777	0.93017	-0.159
Mof_O 	O 	0.23378	0.76622	0.91017	-0.596
Mof_B 	B 	0.21813	0.78187	0.89197	1.679
Mof_C 	C 	0.23458	0.76542	0.87087	-0.74
Mof_C 	C 	0.26618	0.73382	0.83417	0.146
Mof_C 	C 	0.05383	0.94617	0.08377	0.393
Mof_O 	O 	0.03163	0.96837	0.07787	-0.586
Mof_O 	O 	0.06033	0.93967	0.10227	-0.495
Mof_O 	O 	0.19088	0.80912	0.96497	-0.525
Mof_C 	C 	0.28288	0.71712	0.81507	0.286
Mof_Co	Co	0.85189	0.70378	0.26527	1.142
Mof_Co	Co	0.82044	0.64087	0.30373	1.143
Mof_Zn	Zn	0.70012	0.40024	0.45668	1.217
Mof_B 	B 	0.7879	0.5758	0.3432	1.519
Mof_O 	O 	0.81265	0.6253	0.3512	-0.558
Mof_N 	N 	0.8309	0.6618	0.3362	-0.147
Mof_C 	C 	0.85185	0.7037	0.3447	0.061
Mof_H 	H 	0.8526	0.7052	0.3599	0.023
Mof_C 	C 	0.8746	0.7492	0.3331	-0.139
Mof_C 	C 	0.87635	0.7527	0.3101	0.245
Mof_C 	C 	0.90015	0.8003	0.3007	-0.141
Mof_C 	C 	0.92055	0.8411	0.3142	0.026
Mof_H 	H 	0.93625	0.8725	0.3079	0.018
Mof_C 	C 	0.91865	0.8373	0.3363	-0.093
Mof_C 	C 	0.8958	0.7916	0.3456	0.023
Mof_H 	H 	0.89445	0.7889	0.3608	0.009
Mof_C 	C 	0.905	0.81	0.2779	0.078
Mof_H 	H 	0.92145	0.8429	0.2735	0.037
Mof_N 	N 	0.8889	0.7778	0.2635	-0.159
Mof_O 	O 	0.90045	0.8009	0.2435	-0.596
Mof_B 	B 	0.8848	0.7696	0.2253	1.679
Mof_C 	C 	0.90125	0.8025	0.2042	-0.74
Mof_C 	C 	0.93285	0.8657	0.1675	0.147
Mof_C 	C 	0.7205	0.441	0.4171	0.393
Mof_O 	O 	0.6983	0.3966	0.4112	-0.586
Mof_O 	O 	0.727	0.454	0.4356	-0.494
Mof_O 	O 	0.85755	0.7151	0.2983	-0.525
Mof_C 	C 	0.94955	0.8991	0.1484	0.286
Mof_Co	Co	0.51856	0.03711	0.5986	1.141
Mof_Co	Co	0.4871	0.9742	0.63706	1.143
Mof_Zn	Zn	0.36679	0.73357	0.79001	1.217
Mof_B 	B 	0.45457	0.90913	0.67653	1.518
Mof_O 	O 	0.47932	0.95863	0.68453	-0.557
Mof_N 	N 	0.49757	0.99513	0.66953	-0.145
Mof_C 	C 	0.51852	0.03703	0.67803	0.058
Mof_H 	H 	0.51927	0.03853	0.69323	0.024
Mof_C 	C 	0.54127	0.08253	0.66643	-0.139
Mof_C 	C 	0.54302	0.08603	0.64343	0.245
Mof_C 	C 	0.56682	0.13363	0.63403	-0.141
Mof_C 	C 	0.58722	0.17443	0.64753	0.026
Mof_H 	H 	0.60292	0.20583	0.64123	0.018
Mof_C 	C 	0.58532	0.17063	0.66963	-0.093
Mof_C 	C 	0.56247	0.12493	0.67893	0.023
Mof_H 	H 	0.56112	0.12223	0.69413	0.008
Mof_C 	C 	0.57167	0.14333	0.61123	0.078
Mof_H 	H 	0.58812	0.17623	0.60683	0.037
Mof_N 	N 	0.55557	0.11113	0.59683	-0.159
Mof_O 	O 	0.56712	0.13423	0.57683	-0.596
Mof_B 	B 	0.55147	0.10293	0.55863	1.679
Mof_C 	C 	0.56792	0.13583	0.53753	-0.74
Mof_C 	C 	0.59952	0.19903	0.50083	0.146
Mof_C 	C 	0.38717	0.77433	0.75043	0.393
Mof_O 	O 	0.36497	0.72993	0.74453	-0.586
Mof_O 	O 	0.39367	0.78733	0.76893	-0.494
Mof_O 	O 	0.52422	0.04843	0.63163	-0.526
Mof_C 	C 	0.61622	0.23243	0.48173	0.286
Mof_Co	Co	0.18522	0.37045	0.93194	1.142
Mof_Co	Co	0.15377	0.30754	0.9704	1.143
Mof_Zn	Zn	0.03345	0.06691	0.12335	1.217
Mof_B 	B 	0.12123	0.24247	0.00987	1.519
Mof_O 	O 	0.14598	0.29197	0.01787	-0.558
Mof_N 	N 	0.16423	0.32847	0.00287	-0.147
Mof_C 	C 	0.18518	0.37037	0.01137	0.061
Mof_H 	H 	0.18593	0.37187	0.02657	0.023
Mof_C 	C 	0.20793	0.41587	0.99977	-0.139
Mof_C 	C 	0.20968	0.41937	0.97677	0.245
Mof_C 	C 	0.23348	0.46697	0.96737	-0.141
Mof_C 	C 	0.25388	0.50777	0.98087	0.026
Mof_H 	H 	0.26958	0.53917	0.97457	0.018
Mof_C 	C 	0.25198	0.50397	0.00297	-0.093
Mof_C 	C 	0.22913	0.45827	0.01227	0.023
Mof_H 	H 	0.22778	0.45557	0.02747	0.008
Mof_C 	C 	0.23833	0.47667	0.94457	0.078
Mof_H 	H 	0.25478	0.50957	0.94017	0.037
Mof_N 	N 	0.22223	0.44447	0.93017	-0.159
Mof_O 	O 	0.23378	0.46757	0.91017	-0.596
Mof_B 	B 	0.21813	0.43627	0.89197	1.679
Mof_C 	C 	0.23458	0.46917	0.87087	-0.74
Mof_C 	C 	0.26618	0.53237	0.83417	0.146
Mof_C 	C 	0.05383	0.10767	0.08377	0.393
Mof_O 	O 	0.03163	0.06327	0.07787	-0.586
Mof_O 	O 	0.06033	0.12067	0.10227	-0.495
Mof_O 	O 	0.19088	0.38177	0.96497	-0.525
Mof_C 	C 	0.28288	0.56577	0.81507	0.286
Mof_Zn	Zn	0.66667	0.33333	0.41591	1.243
Mof_O 	O 	0.66667	0.33333	0.4485	-0.935
Mof_Zn	Zn	0.33333	0.66667	0.74924	1.243
Mof_O 	O 	0.33333	0.66667	0.78183	-0.935
Mof_Zn	Zn	-3.68631e-33	0	0.08258	1.242
Mof_O 	O 	-1.84315e-33	0	0.11517	-0.937
Mof_C 	C 	0.2244	0.4583	0.6363	-0.238
Mof_C 	C 	0.2334	0.4449	0.6162	0.082
Mof_H 	H 	0.2284	0.4131	0.6144	-0.015
Mof_C 	C 	0.2494	0.4765	0.599	-0.059
Mof_H 	H 	0.2537	0.4655	0.5854	0.048
Mof_C 	C 	0.2592	0.5234	0.6011	-0.014
Mof_C 	C 	0.2477	0.5373	0.6206	-0.072
Mof_H 	H 	0.252	0.5688	0.6222	0.052
Mof_C 	C 	0.23	0.5046	0.6375	0.089
Mof_H 	H 	0.2214	0.5141	0.6504	0.006
Mof_O 	O 	0.1803	0.4366	0.6685	-0.544
Mof_N 	N 	0.1586	0.4086	0.6873	-0.161
Mof_C 	C 	0.1272	0.4185	0.6945	0.071
Mof_H 	H 	0.1227	0.4419	0.6869	0.045
Mof_C 	C 	0.0975	0.3966	0.7134	-0.134
Mof_C 	C 	0.1033	0.363	0.7267	0.233
Mof_C 	C 	0.072	0.3441	0.745	-0.139
Mof_C 	C 	0.0364	0.357	0.7491	0.047
Mof_H 	H 	0.0157	0.3435	0.7611	0.008
Mof_C 	C 	0.031	0.3891	0.7357	-0.134
Mof_C 	C 	0.0611	0.4077	0.7181	0.046
Mof_H 	H 	0.0569	0.429	0.7088	0.014
Mof_C 	C 	0.0742	0.3107	0.7601	0.079
Mof_H 	H 	0.053	0.3012	0.7721	0.035
Mof_N 	N 	0.1022	0.2933	0.7586	-0.16
Mof_O 	O 	0.0932	0.2614	0.7761	-0.557
Mof_C 	C 	0.1275	0.1822	0.8062	0.422
Mof_H 	H 	0.1595	0.1938	0.8011	-0.106
Mof_C 	C 	0.1122	0.1513	0.8236	-0.322
Mof_H 	H 	0.1334	0.1415	0.8295	0.148
Mof_O 	O 	0.1359	0.3511	0.7225	-0.502
Mof_C 	C 	0.9932	0.4042	0.741	0.327
Mof_O 	O 	0.0794	0.0874	0.85851	-0.477
Mof_C 	C 	0.0562	0.1162	0.6501	0.102
Mof_C 	C 	0.0315	0.1268	0.6313	0.022
Mof_H 	H 	0.0073	0.1344	0.6369	0.094
Mof_H 	H 	0.0559	0.1545	0.6231	-0.008
Mof_H 	H 	0.0156	0.0983	0.622	0.002
Mof_C 	C 	0.0172	0.0729	0.6627	-0.141
Mof_H 	H 	0.9919	0.08	0.6674	0.024
Mof_H 	H 	0.0027	0.044	0.6536	0.044
Mof_H 	H 	0.0319	0.0671	0.6753	0.042
Mof_C 	C 	0.9451	0.3587	0.7466	-0.233
Mof_H 	H 	0.9504	0.341	0.7581	0.059
Mof_H 	H 	0.9217	0.3682	0.7514	0.075
Mof_H 	H 	0.9324	0.3379	0.734	0.061
Mof_C 	C 	0.0948	0.1039	0.6432	-0.407
Mof_H 	H 	0.1201	0.1311	0.635	0.005
Mof_H 	H 	0.1091	0.0979	0.6559	0.139
Mof_H 	H 	0.0798	0.0748	0.6341	0.122
Mof_C 	C 	0.973	0.388	0.7637	-0.206
Mof_H 	H 	0.9585	0.3522	0.7646	0.06
Mof_H 	H 	0.9999	0.4029	0.774	0.054
Mof_H 	H 	0.949	0.3969	0.7668	0.066
Mof_C 	C 	0.0139	0.4388	0.7603	-0.298
Mof_H 	H 	0.0199	0.4223	0.7721	0.09
Mof_H 	H 	0.0445	0.4676	0.7561	0.089
Mof_H 	H 	0.9906	0.4486	0.7648	0.1
Mof_C 	C 	0.0156	0.4594	0.741	-0.209
Mof_H 	H 	0.0407	0.4736	0.752	0.05
Mof_H 	H 	0.0301	0.4722	0.7269	0.06
Mof_H 	H 	0.9903	0.4676	0.7439	0.064
Mof_C 	C 	0.9847	0.431	0.7232	-0.173
Mof_H 	H 	0.0154	0.4606	0.7195	0.062
Mof_H 	H 	0.972	0.4106	0.7105	0.054
Mof_H 	H 	0.9613	0.4409	0.728	0.053
Mof_C 	C 	0.9542	0.383	0.7236	-0.328
Mof_H 	H 	0.9396	0.3472	0.7235	0.094
Mof_H 	H 	0.929	0.391	0.7266	0.111
Mof_H 	H 	0.9688	0.3957	0.7096	0.093
Mof_C 	C 	0.89107	0.79163	0.96963	-0.237
Mof_C 	C 	0.90007	0.77823	0.94953	0.077
Mof_H 	H 	0.89507	0.74643	0.94773	-0.013
Mof_C 	C 	0.91607	0.80983	0.93233	-0.065
Mof_H 	H 	0.92037	0.79883	0.91873	0.049
Mof_C 	C 	0.92587	0.85673	0.93443	-0.013
Mof_C 	C 	0.91437	0.87063	0.95393	-0.072
Mof_H 	H 	0.91867	0.90213	0.95553	0.052
Mof_C 	C 	0.89667	0.83793	0.97083	0.088
Mof_H 	H 	0.88807	0.84743	0.98373	0.006
Mof_O 	O 	0.84697	0.76993	0.00183	-0.544
Mof_N 	N 	0.82527	0.74193	0.02063	-0.161
Mof_C 	C 	0.79387	0.75183	0.02783	0.071
Mof_H 	H 	0.78937	0.77523	0.02023	0.045
Mof_C 	C 	0.76417	0.72993	0.04673	-0.134
Mof_C 	C 	0.76997	0.69633	0.06003	0.233
Mof_C 	C 	0.73867	0.67743	0.07833	-0.139
Mof_C 	C 	0.70307	0.69033	0.08243	0.047
Mof_H 	H 	0.68237	0.67683	0.09443	0.008
Mof_C 	C 	0.69767	0.72243	0.06903	-0.133
Mof_C 	C 	0.72777	0.74103	0.05143	0.046
Mof_H 	H 	0.72357	0.76233	0.04213	0.014
Mof_C 	C 	0.74087	0.64403	0.09343	0.079
Mof_H 	H 	0.71967	0.63453	0.10543	0.035
Mof_N 	N 	0.76887	0.62663	0.09193	-0.16
Mof_O 	O 	0.75987	0.59473	0.10943	-0.557
Mof_C 	C 	0.79417	0.51553	0.13953	0.423
Mof_H 	H 	0.82617	0.52713	0.13443	-0.105
Mof_C 	C 	0.77887	0.48463	0.15693	-0.322
Mof_H 	H 	0.80007	0.47483	0.16283	0.149
Mof_O 	O 	0.80257	0.68443	0.05583	-0.502
Mof_C 	C 	0.65987	0.73753	0.07433	0.326
Mof_O 	O 	0.74607	0.42073	0.19184	-0.476
Mof_C 	C 	0.72287	0.44953	0.98343	0.102
Mof_C 	C 	0.69817	0.46013	0.96463	0.025
Mof_H 	H 	0.67397	0.46773	0.97023	0.093
Mof_H 	H 	0.72257	0.48783	0.95643	-0.009
Mof_H 	H 	0.68227	0.43163	0.95533	0.001
Mof_C 	C 	0.68387	0.40623	0.99603	-0.138
Mof_H 	H 	0.65857	0.41333	0.00073	0.023
Mof_H 	H 	0.66937	0.37733	0.98693	0.044
Mof_H 	H 	0.69857	0.40043	0.00863	0.042
Mof_C 	C 	0.61177	0.69203	0.07993	-0.232
Mof_H 	H 	0.61707	0.67433	0.09143	0.059
Mof_H 	H 	0.58837	0.70153	0.08473	0.075
Mof_H 	H 	0.59907	0.67123	0.06733	0.061
Mof_C 	C 	0.76147	0.43723	0.97653	-0.41
Mof_H 	H 	0.78677	0.46443	0.96833	0.005
Mof_H 	H 	0.77577	0.43123	0.98923	0.14
Mof_H 	H 	0.74647	0.40813	0.96743	0.124
Mof_C 	C 	0.63967	0.72133	0.09703	-0.206
Mof_H 	H 	0.62517	0.68553	0.09793	0.06
Mof_H 	H 	0.66657	0.73623	0.10733	0.053
Mof_H 	H 	0.61567	0.73023	0.10013	0.066
Mof_C 	C 	0.68057	0.77213	0.09363	-0.297
Mof_H 	H 	0.68657	0.75563	0.10543	0.09
Mof_H 	H 	0.71117	0.80093	0.08943	0.089
Mof_H 	H 	0.65727	0.78193	0.09813	0.1
Mof_C 	C 	0.68227	0.79273	0.07433	-0.209
Mof_H 	H 	0.70737	0.80693	0.08533	0.05
Mof_H 	H 	0.69677	0.80553	0.06023	0.06
Mof_H 	H 	0.65697	0.80093	0.07723	0.064
Mof_C 	C 	0.65137	0.76433	0.05653	-0.173
Mof_H 	H 	0.68207	0.79393	0.05283	0.062
Mof_H 	H 	0.63867	0.74393	0.04383	0.054
Mof_H 	H 	0.62797	0.77423	0.06133	0.053
Mof_C 	C 	0.62087	0.71633	0.05693	-0.328
Mof_H 	H 	0.60627	0.68053	0.05683	0.094
Mof_H 	H 	0.59567	0.72433	0.05993	0.111
Mof_H 	H 	0.63547	0.72903	0.04293	0.093
Mof_C 	C 	0.55773	0.12497	0.30297	-0.238
Mof_C 	C 	0.56673	0.11157	0.28287	0.082
Mof_H 	H 	0.56173	0.07977	0.28107	-0.015
Mof_C 	C 	0.58273	0.14317	0.26567	-0.059
Mof_H 	H 	0.58703	0.13217	0.25207	0.048
Mof_C 	C 	0.59253	0.19007	0.26777	-0.014
Mof_C 	C 	0.58103	0.20397	0.28727	-0.072
Mof_H 	H 	0.58533	0.23547	0.28887	0.052
Mof_C 	C 	0.56333	0.17127	0.30417	0.089
Mof_H 	H 	0.55473	0.18077	0.31707	0.006
Mof_O 	O 	0.51363	0.10327	0.33517	-0.544
Mof_N 	N 	0.49193	0.07527	0.35397	-0.161
Mof_C 	C 	0.46053	0.08517	0.36117	0.071
Mof_H 	H 	0.45603	0.10857	0.35357	0.045
Mof_C 	C 	0.43083	0.06327	0.38007	-0.134
Mof_C 	C 	0.43663	0.02967	0.39337	0.234
Mof_C 	C 	0.40533	0.01077	0.41167	-0.14
Mof_C 	C 	0.36973	0.02367	0.41577	0.048
Mof_H 	H 	0.34903	0.01017	0.42777	0.007
Mof_C 	C 	0.36433	0.05577	0.40237	-0.133
Mof_C 	C 	0.39443	0.07437	0.38477	0.046
Mof_H 	H 	0.39023	0.09567	0.37547	0.014
Mof_C 	C 	0.40753	0.97737	0.42677	0.08
Mof_H 	H 	0.38633	0.96787	0.43877	0.035
Mof_N 	N 	0.43553	0.95997	0.42527	-0.16
Mof_O 	O 	0.42653	0.92807	0.44277	-0.557
Mof_C 	C 	0.46083	0.84887	0.47287	0.423
Mof_H 	H 	0.49283	0.86047	0.46777	-0.106
Mof_C 	C 	0.44553	0.81797	0.49027	-0.322
Mof_H 	H 	0.46673	0.80817	0.49617	0.149
Mof_O 	O 	0.46923	0.01777	0.38917	-0.503
Mof_C 	C 	0.32653	0.07087	0.40767	0.326
Mof_O 	O 	0.41273	0.75407	0.52518	-0.476
Mof_C 	C 	0.38953	0.78287	0.31677	0.102
Mof_C 	C 	0.36483	0.79347	0.29797	0.025
Mof_H 	H 	0.34063	0.80107	0.30357	0.093
Mof_H 	H 	0.38923	0.82117	0.28977	-0.009
Mof_H 	H 	0.34893	0.76497	0.28867	0.001
Mof_C 	C 	0.35053	0.73957	0.32937	-0.138
Mof_H 	H 	0.32523	0.74667	0.33407	0.023
Mof_H 	H 	0.33603	0.71067	0.32027	0.044
Mof_H 	H 	0.36523	0.73377	0.34197	0.042
Mof_C 	C 	0.27843	0.02537	0.41327	-0.232
Mof_H 	H 	0.28373	0.00767	0.42477	0.059
Mof_H 	H 	0.25503	0.03487	0.41807	0.075
Mof_H 	H 	0.26573	0.00457	0.40067	0.061
Mof_C 	C 	0.42813	0.77057	0.30987	-0.41
Mof_H 	H 	0.45343	0.79777	0.30167	0.005
Mof_H 	H 	0.44243	0.76457	0.32257	0.14
Mof_H 	H 	0.41313	0.74147	0.30077	0.124
Mof_C 	C 	0.30633	0.05467	0.43037	-0.206
Mof_H 	H 	0.29183	0.01887	0.43127	0.06
Mof_H 	H 	0.33323	0.06957	0.44067	0.053
Mof_H 	H 	0.28233	0.06357	0.43347	0.066
Mof_C 	C 	0.34723	0.10547	0.42697	-0.298
Mof_H 	H 	0.35323	0.08897	0.43877	0.09
Mof_H 	H 	0.37783	0.13427	0.42277	0.089
Mof_H 	H 	0.32393	0.11527	0.43147	0.1
Mof_C 	C 	0.34893	0.12607	0.40767	-0.209
Mof_H 	H 	0.37403	0.14027	0.41867	0.05
Mof_H 	H 	0.36343	0.13887	0.39357	0.06
Mof_H 	H 	0.32363	0.13427	0.41057	0.064
Mof_C 	C 	0.31803	0.09767	0.38987	-0.173
Mof_H 	H 	0.34873	0.12727	0.38617	0.062
Mof_H 	H 	0.30533	0.07727	0.37717	0.054
Mof_H 	H 	0.29463	0.10757	0.39467	0.053
Mof_C 	C 	0.28753	0.04967	0.39027	-0.328
Mof_H 	H 	0.27293	0.01387	0.39017	0.094
Mof_H 	H 	0.26233	0.05767	0.39327	0.111
Mof_H 	H 	0.30213	0.06237	0.37627	0.093
Mof_C 	C 	0.2339	0.7756	0.6363	-0.238
Mof_C 	C 	0.2115	0.7666	0.6162	0.083
Mof_H 	H 	0.1847	0.7716	0.6144	-0.015
Mof_C 	C 	0.2271	0.7506	0.599	-0.059
Mof_H 	H 	0.2118	0.7463	0.5854	0.047
Mof_C 	C 	0.2642	0.7408	0.6011	-0.014
Mof_C 	C 	0.2896	0.7523	0.6206	-0.072
Mof_H 	H 	0.3168	0.748	0.6222	0.052
Mof_C 	C 	0.2746	0.77	0.6375	0.089
Mof_H 	H 	0.2927	0.7786	0.6504	0.006
Mof_O 	O 	0.2563	0.8197	0.6685	-0.544
Mof_N 	N 	0.25	0.8414	0.6873	-0.16
Mof_C 	C 	0.2913	0.8728	0.6945	0.071
Mof_H 	H 	0.3192	0.8773	0.6869	0.046
Mof_C 	C 	0.2991	0.9025	0.7134	-0.132
Mof_C 	C 	0.2597	0.8967	0.7267	0.232
Mof_C 	C 	0.2721	0.928	0.745	-0.138
Mof_C 	C 	0.3206	0.9636	0.7491	0.044
Mof_H 	H 	0.3278	0.9843	0.7611	0.01
Mof_C 	C 	0.3581	0.969	0.7357	-0.127
Mof_C 	C 	0.3466	0.9389	0.7181	0.043
Mof_H 	H 	0.3721	0.9431	0.7088	0.016
Mof_C 	C 	0.2365	0.9258	0.7601	0.078
Mof_H 	H 	0.2482	0.947	0.7721	0.036
Mof_N 	N 	0.1911	0.8978	0.7586	-0.16
Mof_O 	O 	0.1682	0.9068	0.7761	-0.557
Mof_C 	C 	0.0547	0.8725	0.8062	0.423
Mof_H 	H 	0.0343	0.8405	0.8011	-0.106
Mof_C 	C 	0.0391	0.8878	0.8236	-0.322
Mof_H 	H 	0.0081	0.8666	0.8295	0.149
Mof_O 	O 	0.2152	0.8641	0.7225	-0.502
Mof_C 	C 	0.411	0.0068	0.741	0.317
Mof_O 	O 	0.008	0.9206	0.85851	-0.476
Mof_C 	C 	0.06	0.9438	0.6501	0.102
Mof_C 	C 	0.0953	0.9685	0.6313	0.043
Mof_H 	H 	0.1271	0.9927	0.6369	0.089
Mof_H 	H 	0.0986	0.9441	0.6231	-0.014
Mof_H 	H 	0.0827	0.9844	0.622	-0.003
Mof_C 	C 	0.0557	0.9828	0.6627	-0.119
Mof_H 	H 	0.0881	0.0081	0.6674	0.014
Mof_H 	H 	0.0413	0.9973	0.6536	0.039
Mof_H 	H 	0.0352	0.9681	0.6753	0.042
Mof_C 	C 	0.4136	0.0549	0.7466	-0.228
Mof_H 	H 	0.3906	0.0496	0.7581	0.058
Mof_H 	H 	0.4465	0.0783	0.7514	0.073
Mof_H 	H 	0.4055	0.0676	0.734	0.059
Mof_C 	C 	0.0091	0.9052	0.6432	-0.424
Mof_H 	H 	0.011	0.8799	0.635	0.007
Mof_H 	H 	0.9888	0.8909	0.6559	0.145
Mof_H 	H 	0.995	0.9202	0.6341	0.128
Mof_C 	C 	0.415	0.027	0.7637	-0.201
Mof_H 	H 	0.3937	0.0415	0.7646	0.059
Mof_H 	H 	0.403	0.0001	0.774	0.047
Mof_H 	H 	0.4479	0.051	0.7668	0.064
Mof_C 	C 	0.4249	0.9861	0.7603	-0.292
Mof_H 	H 	0.4024	0.9801	0.7721	0.094
Mof_H 	H 	0.4231	0.9555	0.7561	0.083
Mof_H 	H 	0.458	0.0094	0.7648	0.097
Mof_C 	C 	0.4438	0.9844	0.741	-0.198
Mof_H 	H 	0.4329	0.9593	0.752	0.053
Mof_H 	H 	0.4421	0.9699	0.7269	0.054
Mof_H 	H 	0.4773	0.0097	0.7439	0.06
Mof_C 	C 	0.4463	0.0153	0.7232	-0.173
Mof_H 	H 	0.4452	0.9846	0.7195	0.066
Mof_H 	H 	0.4386	0.028	0.7105	0.046
Mof_H 	H 	0.4796	0.0387	0.728	0.053
Mof_C 	C 	0.4288	0.0458	0.7236	-0.329
Mof_H 	H 	0.4076	0.0604	0.7235	0.095
Mof_H 	H 	0.462	0.071	0.7266	0.111
Mof_H 	H 	0.4269	0.0312	0.7096	0.101
Mof_C 	C 	0.90057	0.10893	0.96963	-0.241
Mof_C 	C 	0.87817	0.09993	0.94953	0.098
Mof_H 	H 	0.85137	0.10493	0.94773	-0.02
Mof_C 	C 	0.89377	0.08393	0.93233	-0.042
Mof_H 	H 	0.87847	0.07963	0.91873	0.042
Mof_C 	C 	0.93087	0.07413	0.93443	-0.015
Mof_C 	C 	0.95627	0.08563	0.95393	-0.07
Mof_H 	H 	0.98347	0.08133	0.95553	0.052
Mof_C 	C 	0.94127	0.10333	0.97083	0.091
Mof_H 	H 	0.95937	0.11193	0.98373	0.005
Mof_O 	O 	0.92297	0.15303	0.00183	-0.544
Mof_N 	N 	0.91667	0.17473	0.02063	-0.16
Mof_C 	C 	0.95797	0.20613	0.02783	0.071
Mof_H 	H 	0.98587	0.21063	0.02023	0.046
Mof_C 	C 	0.96577	0.23583	0.04673	-0.132
Mof_C 	C 	0.92637	0.23003	0.06003	0.233
Mof_C 	C 	0.93877	0.26133	0.07833	-0.14
Mof_C 	C 	0.98727	0.29693	0.08243	0.05
Mof_H 	H 	0.99447	0.31763	0.09443	0.008
Mof_C 	C 	0.02477	0.30233	0.06903	-0.135
Mof_C 	C 	0.01327	0.27223	0.05143	0.044
Mof_H 	H 	0.03877	0.27643	0.04213	0.015
Mof_C 	C 	0.90317	0.25913	0.09343	0.079
Mof_H 	H 	0.91487	0.28033	0.10543	0.036
Mof_N 	N 	0.85777	0.23113	0.09193	-0.16
Mof_O 	O 	0.83487	0.24013	0.10943	-0.557
Mof_C 	C 	0.72137	0.20583	0.13953	0.423
Mof_H 	H 	0.70097	0.17383	0.13443	-0.106
Mof_C 	C 	0.70577	0.22113	0.15693	-0.322
Mof_H 	H 	0.67477	0.19993	0.16283	0.149
Mof_O 	O 	0.88187	0.19743	0.05583	-0.502
Mof_C 	C 	0.07767	0.34013	0.07433	0.327
Mof_O 	O 	0.67467	0.25393	0.19184	-0.476
Mof_C 	C 	0.72667	0.27713	0.98343	0.102
Mof_C 	C 	0.76197	0.30183	0.96463	0.025
Mof_H 	H 	0.79377	0.32603	0.97023	0.093
Mof_H 	H 	0.76527	0.27743	0.95643	-0.009
Mof_H 	H 	0.74937	0.31773	0.95533	0.001
Mof_C 	C 	0.72237	0.31613	0.99603	-0.138
Mof_H 	H 	0.75477	0.34143	0.00073	0.023
Mof_H 	H 	0.70797	0.33063	0.98693	0.044
Mof_H 	H 	0.70187	0.30143	0.00863	0.042
Mof_C 	C 	0.08027	0.38823	0.07993	-0.232
Mof_H 	H 	0.05727	0.38293	0.09143	0.059
Mof_H 	H 	0.11317	0.41163	0.08473	0.075
Mof_H 	H 	0.07217	0.40093	0.06733	0.061
Mof_C 	C 	0.67577	0.23853	0.97653	-0.41
Mof_H 	H 	0.67767	0.21323	0.96833	0.005
Mof_H 	H 	0.65547	0.22423	0.98923	0.14
Mof_H 	H 	0.66167	0.25353	0.96743	0.124
Mof_C 	C 	0.08167	0.36033	0.09703	-0.206
Mof_H 	H 	0.06037	0.37483	0.09793	0.06
Mof_H 	H 	0.06967	0.33343	0.10733	0.053
Mof_H 	H 	0.11457	0.38433	0.10013	0.066
Mof_C 	C 	0.09157	0.31943	0.09363	-0.298
Mof_H 	H 	0.06907	0.31343	0.10543	0.09
Mof_H 	H 	0.08977	0.28883	0.08943	0.089
Mof_H 	H 	0.12467	0.34273	0.09813	0.1
Mof_C 	C 	0.11047	0.31773	0.07433	-0.209
Mof_H 	H 	0.09957	0.29263	0.08533	0.05
Mof_H 	H 	0.10877	0.30323	0.06023	0.06
Mof_H 	H 	0.14397	0.34303	0.07723	0.064
Mof_C 	C 	0.11297	0.34863	0.05653	-0.173
Mof_H 	H 	0.11187	0.31793	0.05283	0.062
Mof_H 	H 	0.10527	0.36133	0.04383	0.054
Mof_H 	H 	0.14627	0.37203	0.06133	0.053
Mof_C 	C 	0.09547	0.37913	0.05693	-0.328
Mof_H 	H 	0.07427	0.39373	0.05683	0.094
Mof_H 	H 	0.12867	0.40433	0.05993	0.111
Mof_H 	H 	0.09357	0.36453	0.04293	0.093
Mof_C 	C 	0.56723	0.44227	0.30297	-0.238
Mof_C 	C 	0.54483	0.43327	0.28287	0.082
Mof_H 	H 	0.51803	0.43827	0.28107	-0.015
Mof_C 	C 	0.56043	0.41727	0.26567	-0.059
Mof_H 	H 	0.54513	0.41297	0.25207	0.048
Mof_C 	C 	0.59753	0.40747	0.26777	-0.014
Mof_C 	C 	0.62293	0.41897	0.28727	-0.072
Mof_H 	H 	0.65013	0.41467	0.28887	0.052
Mof_C 	C 	0.60793	0.43667	0.30417	0.089
Mof_H 	H 	0.62603	0.44527	0.31707	0.006
Mof_O 	O 	0.58963	0.48637	0.33517	-0.544
Mof_N 	N 	0.58333	0.50807	0.35397	-0.161
Mof_C 	C 	0.62463	0.53947	0.36117	0.071
Mof_H 	H 	0.65253	0.54397	0.35357	0.045
Mof_C 	C 	0.63243	0.56917	0.38007	-0.134
Mof_C 	C 	0.59303	0.56337	0.39337	0.233
Mof_C 	C 	0.60543	0.59467	0.41167	-0.139
Mof_C 	C 	0.65393	0.63027	0.41577	0.047
Mof_H 	H 	0.66113	0.65097	0.42777	0.008
Mof_C 	C 	0.69143	0.63567	0.40237	-0.133
Mof_C 	C 	0.67993	0.60557	0.38477	0.046
Mof_H 	H 	0.70543	0.60977	0.37547	0.015
Mof_C 	C 	0.56983	0.59247	0.42677	0.079
Mof_H 	H 	0.58153	0.61367	0.43877	0.035
Mof_N 	N 	0.52443	0.56447	0.42527	-0.16
Mof_O 	O 	0.50153	0.57347	0.44277	-0.557
Mof_C 	C 	0.38803	0.53917	0.47287	0.423
Mof_H 	H 	0.36763	0.50717	0.46777	-0.106
Mof_C 	C 	0.37243	0.55447	0.49027	-0.322
Mof_H 	H 	0.34143	0.53327	0.49617	0.149
Mof_O 	O 	0.54853	0.53077	0.38917	-0.502
Mof_C 	C 	0.74433	0.67347	0.40767	0.327
Mof_O 	O 	0.34133	0.58727	0.52518	-0.476
Mof_C 	C 	0.39333	0.61047	0.31677	0.102
Mof_C 	C 	0.42863	0.63517	0.29797	0.025
Mof_H 	H 	0.46043	0.65937	0.30357	0.093
Mof_H 	H 	0.43193	0.61077	0.28977	-0.009
Mof_H 	H 	0.41603	0.65107	0.28867	0.001
Mof_C 	C 	0.38903	0.64947	0.32937	-0.138
Mof_H 	H 	0.42143	0.67477	0.33407	0.023
Mof_H 	H 	0.37463	0.66397	0.32027	0.044
Mof_H 	H 	0.36853	0.63477	0.34197	0.042
Mof_C 	C 	0.74693	0.72157	0.41327	-0.233
Mof_H 	H 	0.72393	0.71627	0.42477	0.059
Mof_H 	H 	0.77983	0.74497	0.41807	0.075
Mof_H 	H 	0.73883	0.73427	0.40067	0.061
Mof_C 	C 	0.34243	0.57187	0.30987	-0.41
Mof_H 	H 	0.34433	0.54657	0.30167	0.005
Mof_H 	H 	0.32213	0.55757	0.32257	0.14
Mof_H 	H 	0.32833	0.58687	0.30077	0.124
Mof_C 	C 	0.74833	0.69367	0.43037	-0.206
Mof_H 	H 	0.72703	0.70817	0.43127	0.06
Mof_H 	H 	0.73633	0.66677	0.44067	0.053
Mof_H 	H 	0.78123	0.71767	0.43347	0.066
Mof_C 	C 	0.75823	0.65277	0.42697	-0.297
Mof_H 	H 	0.73573	0.64677	0.43877	0.09
Mof_H 	H 	0.75643	0.62217	0.42277	0.089
Mof_H 	H 	0.79133	0.67607	0.43147	0.1
Mof_C 	C 	0.77713	0.65107	0.40767	-0.209
Mof_H 	H 	0.76623	0.62597	0.41867	0.05
Mof_H 	H 	0.77543	0.63657	0.39357	0.06
Mof_H 	H 	0.81063	0.67637	0.41057	0.064
Mof_C 	C 	0.77963	0.68197	0.38987	-0.173
Mof_H 	H 	0.77853	0.65127	0.38617	0.062
Mof_H 	H 	0.77193	0.69467	0.37717	0.054
Mof_H 	H 	0.81293	0.70537	0.39467	0.053
Mof_C 	C 	0.76213	0.71247	0.39027	-0.328
Mof_H 	H 	0.74093	0.72707	0.39017	0.094
Mof_H 	H 	0.79533	0.73767	0.39327	0.111
Mof_H 	H 	0.76023	0.69787	0.37627	0.093
Mof_C 	C 	0.5417	0.7661	0.6363	-0.238
Mof_C 	C 	0.5551	0.7885	0.6162	0.082
Mof_H 	H 	0.5869	0.8153	0.6144	-0.015
Mof_C 	C 	0.5235	0.7729	0.599	-0.059
Mof_H 	H 	0.5345	0.7882	0.5854	0.048
Mof_C 	C 	0.4766	0.7358	0.6011	-0.014
Mof_C 	C 	0.4627	0.7104	0.6206	-0.072
Mof_H 	H 	0.4312	0.6832	0.6222	0.052
Mof_C 	C 	0.4954	0.7254	0.6375	0.089
Mof_H 	H 	0.4859	0.7073	0.6504	0.006
Mof_O 	O 	0.5634	0.7437	0.6685	-0.544
Mof_N 	N 	0.5914	0.75	0.6873	-0.16
Mof_C 	C 	0.5815	0.7087	0.6945	0.071
Mof_H 	H 	0.5581	0.6808	0.6869	0.045
Mof_C 	C 	0.6034	0.7009	0.7134	-0.134
Mof_C 	C 	0.637	0.7403	0.7267	0.233
Mof_C 	C 	0.6559	0.7279	0.745	-0.139
Mof_C 	C 	0.643	0.6794	0.7491	0.047
Mof_H 	H 	0.6565	0.6722	0.7611	0.008
Mof_C 	C 	0.6109	0.6419	0.7357	-0.133
Mof_C 	C 	0.5923	0.6534	0.7181	0.046
Mof_H 	H 	0.571	0.6279	0.7088	0.015
Mof_C 	C 	0.6893	0.7635	0.7601	0.079
Mof_H 	H 	0.6988	0.7518	0.7721	0.035
Mof_N 	N 	0.7067	0.8089	0.7586	-0.16
Mof_O 	O 	0.7386	0.8318	0.7761	-0.557
Mof_C 	C 	0.8178	0.9453	0.8062	0.423
Mof_H 	H 	0.8062	0.9657	0.8011	-0.105
Mof_C 	C 	0.8487	0.9609	0.8236	-0.322
Mof_H 	H 	0.8585	0.9919	0.8295	0.149
Mof_O 	O 	0.6489	0.7848	0.7225	-0.502
Mof_C 	C 	0.5958	0.589	0.741	0.326
Mof_O 	O 	0.9126	0.992	0.85851	-0.475
Mof_C 	C 	0.8838	0.94	0.6501	0.101
Mof_C 	C 	0.8732	0.9047	0.6313	0.041
Mof_H 	H 	0.8656	0.8729	0.6369	0.09
Mof_H 	H 	0.8455	0.9014	0.6231	-0.013
Mof_H 	H 	0.9017	0.9173	0.622	-0.003
Mof_C 	C 	0.9271	0.9443	0.6627	-0.142
Mof_H 	H 	0.92	0.9119	0.6674	0.023
Mof_H 	H 	0.956	0.9587	0.6536	0.045
Mof_H 	H 	0.9329	0.9648	0.6753	0.04
Mof_C 	C 	0.6413	0.5864	0.7466	-0.232
Mof_H 	H 	0.659	0.6094	0.7581	0.059
Mof_H 	H 	0.6318	0.5535	0.7514	0.075
Mof_H 	H 	0.6621	0.5945	0.734	0.061
Mof_C 	C 	0.8961	0.9909	0.6432	-0.427
Mof_H 	H 	0.8689	0.989	0.635	0.008
Mof_H 	H 	0.9021	0.0112	0.6559	0.146
Mof_H 	H 	0.9252	0.005	0.6341	0.127
Mof_C 	C 	0.612	0.585	0.7637	-0.206
Mof_H 	H 	0.6478	0.6063	0.7646	0.06
Mof_H 	H 	0.5971	0.597	0.774	0.053
Mof_H 	H 	0.6031	0.5521	0.7668	0.066
Mof_C 	C 	0.5612	0.5751	0.7603	-0.297
Mof_H 	H 	0.5777	0.5976	0.7721	0.09
Mof_H 	H 	0.5324	0.5769	0.7561	0.089
Mof_H 	H 	0.5514	0.542	0.7648	0.1
Mof_C 	C 	0.5406	0.5562	0.741	-0.209
Mof_H 	H 	0.5264	0.5671	0.752	0.05
Mof_H 	H 	0.5278	0.5579	0.7269	0.06
Mof_H 	H 	0.5324	0.5227	0.7439	0.064
Mof_C 	C 	0.569	0.5537	0.7232	-0.173
Mof_H 	H 	0.5394	0.5548	0.7195	0.062
Mof_H 	H 	0.5894	0.5614	0.7105	0.054
Mof_H 	H 	0.5591	0.5204	0.728	0.053
Mof_C 	C 	0.617	0.5712	0.7236	-0.328
Mof_H 	H 	0.6528	0.5924	0.7235	0.094
Mof_H 	H 	0.609	0.538	0.7266	0.111
Mof_H 	H 	0.6043	0.5731	0.7096	0.093
Mof_C 	C 	0.20837	0.09943	0.96963	-0.237
Mof_C 	C 	0.22177	0.12183	0.94953	0.072
Mof_H 	H 	0.25357	0.14863	0.94773	-0.012
Mof_C 	C 	0.19017	0.10623	0.93233	-0.07
Mof_H 	H 	0.20117	0.12153	0.91873	0.051
Mof_C 	C 	0.14327	0.06913	0.93443	-0.013
Mof_C 	C 	0.12937	0.04373	0.95393	-0.072
Mof_H 	H 	0.09787	0.01653	0.95553	0.051
Mof_C 	C 	0.16207	0.05873	0.97083	0.087
Mof_H 	H 	0.15257	0.04063	0.98373	0.006
Mof_O 	O 	0.23007	0.07703	0.00183	-0.545
Mof_N 	N 	0.25807	0.08333	0.02063	-0.161
Mof_C 	C 	0.24817	0.04203	0.02783	0.072
Mof_H 	H 	0.22477	0.01413	0.02023	0.045
Mof_C 	C 	0.27007	0.03423	0.04673	-0.135
Mof_C 	C 	0.30367	0.07363	0.06003	0.234
Mof_C 	C 	0.32257	0.06123	0.07833	-0.139
Mof_C 	C 	0.30967	0.01273	0.08243	0.046
Mof_H 	H 	0.32317	0.00553	0.09443	0.008
Mof_C 	C 	0.27757	0.97523	0.06903	-0.133
Mof_C 	C 	0.25897	0.98673	0.05143	0.048
Mof_H 	H 	0.23767	0.96123	0.04213	0.014
Mof_C 	C 	0.35597	0.09683	0.09343	0.079
Mof_H 	H 	0.36547	0.08513	0.10543	0.035
Mof_N 	N 	0.37337	0.14223	0.09193	-0.16
Mof_O 	O 	0.40527	0.16513	0.10943	-0.557
Mof_C 	C 	0.48447	0.27863	0.13953	0.423
Mof_H 	H 	0.47287	0.29903	0.13443	-0.106
Mof_C 	C 	0.51537	0.29423	0.15693	-0.322
Mof_H 	H 	0.52517	0.32523	0.16283	0.149
Mof_O 	O 	0.31557	0.11813	0.05583	-0.502
Mof_C 	C 	0.26247	0.92233	0.07433	0.326
Mof_O 	O 	0.57927	0.32533	0.19184	-0.476
Mof_C 	C 	0.55047	0.27333	0.98343	0.102
Mof_C 	C 	0.53987	0.23803	0.96463	0.025
Mof_H 	H 	0.53227	0.20623	0.97023	0.093
Mof_H 	H 	0.51217	0.23473	0.95643	-0.009
Mof_H 	H 	0.56837	0.25063	0.95533	0.001
Mof_C 	C 	0.59377	0.27763	0.99603	-0.138
Mof_H 	H 	0.58667	0.24523	0.00073	0.023
Mof_H 	H 	0.62267	0.29203	0.98693	0.044
Mof_H 	H 	0.59957	0.29813	0.00863	0.042
Mof_C 	C 	0.30797	0.91973	0.07993	-0.232
Mof_H 	H 	0.32567	0.94273	0.09143	0.059
Mof_H 	H 	0.29847	0.88683	0.08473	0.075
Mof_H 	H 	0.32877	0.92783	0.06733	0.061
Mof_C 	C 	0.56277	0.32423	0.97653	-0.41
Mof_H 	H 	0.53557	0.32233	0.96833	0.005
Mof_H 	H 	0.56877	0.34453	0.98923	0.14
Mof_H 	H 	0.59187	0.33833	0.96743	0.124
Mof_C 	C 	0.27867	0.91833	0.09703	-0.206
Mof_H 	H 	0.31447	0.93963	0.09793	0.06
Mof_H 	H 	0.26377	0.93033	0.10733	0.053
Mof_H 	H 	0.26977	0.88543	0.10013	0.066
Mof_C 	C 	0.22787	0.90843	0.09363	-0.297
Mof_H 	H 	0.24437	0.93093	0.10543	0.09
Mof_H 	H 	0.19907	0.91023	0.08943	0.089
Mof_H 	H 	0.21807	0.87533	0.09813	0.1
Mof_C 	C 	0.20727	0.88953	0.07433	-0.208
Mof_H 	H 	0.19307	0.90043	0.08533	0.051
Mof_H 	H 	0.19447	0.89123	0.06023	0.06
Mof_H 	H 	0.19907	0.85603	0.07723	0.064
Mof_C 	C 	0.23567	0.88703	0.05653	-0.173
Mof_H 	H 	0.20607	0.88813	0.05283	0.062
Mof_H 	H 	0.25607	0.89473	0.04383	0.054
Mof_H 	H 	0.22577	0.85373	0.06133	0.053
Mof_C 	C 	0.28367	0.90453	0.05693	-0.328
Mof_H 	H 	0.31947	0.92573	0.05683	0.095
Mof_H 	H 	0.27567	0.87133	0.05993	0.111
Mof_H 	H 	0.27097	0.90643	0.04293	0.093
Mof_C 	C 	0.87503	0.43277	0.30297	-0.238
Mof_C 	C 	0.88843	0.45517	0.28287	0.082
Mof_H 	H 	0.92023	0.48197	0.28107	-0.015
Mof_C 	C 	0.85683	0.43957	0.26567	-0.059
Mof_H 	H 	0.86783	0.45487	0.25207	0.048
Mof_C 	C 	0.80993	0.40247	0.26777	-0.014
Mof_C 	C 	0.79603	0.37707	0.28727	-0.072
Mof_H 	H 	0.76453	0.34987	0.28887	0.052
Mof_C 	C 	0.82873	0.39207	0.30417	0.089
Mof_H 	H 	0.81923	0.37397	0.31707	0.006
Mof_O 	O 	0.89673	0.41037	0.33517	-0.544
Mof_N 	N 	0.92473	0.41667	0.35397	-0.16
Mof_C 	C 	0.91483	0.37537	0.36117	0.071
Mof_H 	H 	0.89143	0.34747	0.35357	0.046
Mof_C 	C 	0.93673	0.36757	0.38007	-0.133
Mof_C 	C 	0.97033	0.40697	0.39337	0.233
Mof_C 	C 	0.98923	0.39457	0.41167	-0.136
Mof_C 	C 	0.97633	0.34607	0.41577	0.046
Mof_H 	H 	0.98983	0.33887	0.42777	0.008
Mof_C 	C 	0.94423	0.30857	0.40237	-0.133
Mof_C 	C 	0.92563	0.32007	0.38477	0.046
Mof_H 	H 	0.90433	0.29457	0.37547	0.015
Mof_C 	C 	0.02263	0.43017	0.42677	0.076
Mof_H 	H 	0.03213	0.41847	0.43877	0.036
Mof_N 	N 	0.04003	0.47557	0.42527	-0.16
Mof_O 	O 	0.07193	0.49847	0.44277	-0.557
Mof_C 	C 	0.15113	0.61197	0.47287	0.423
Mof_H 	H 	0.13953	0.63237	0.46777	-0.106
Mof_C 	C 	0.18203	0.62757	0.49027	-0.322
Mof_H 	H 	0.19183	0.65857	0.49617	0.149
Mof_O 	O 	0.98223	0.45147	0.38917	-0.501
Mof_C 	C 	0.92913	0.25567	0.40767	0.326
Mof_O 	O 	0.24593	0.65867	0.52518	-0.476
Mof_C 	C 	0.21713	0.60667	0.31677	0.102
Mof_C 	C 	0.20653	0.57137	0.29797	0.025
Mof_H 	H 	0.19893	0.53957	0.30357	0.093
Mof_H 	H 	0.17883	0.56807	0.28977	-0.009
Mof_H 	H 	0.23503	0.58397	0.28867	0.001
Mof_C 	C 	0.26043	0.61097	0.32937	-0.138
Mof_H 	H 	0.25333	0.57857	0.33407	0.023
Mof_H 	H 	0.28933	0.62537	0.32027	0.044
Mof_H 	H 	0.26623	0.63147	0.34197	0.042
Mof_C 	C 	0.97463	0.25307	0.41327	-0.233
Mof_H 	H 	0.99233	0.27607	0.42477	0.059
Mof_H 	H 	0.96513	0.22017	0.41807	0.075
Mof_H 	H 	0.99543	0.26117	0.40067	0.061
Mof_C 	C 	0.22943	0.65757	0.30987	-0.409
Mof_H 	H 	0.20223	0.65567	0.30167	0.005
Mof_H 	H 	0.23543	0.67787	0.32257	0.14
Mof_H 	H 	0.25853	0.67167	0.30077	0.124
Mof_C 	C 	0.94533	0.25167	0.43037	-0.206
Mof_H 	H 	0.98113	0.27297	0.43127	0.06
Mof_H 	H 	0.93043	0.26367	0.44067	0.054
Mof_H 	H 	0.93643	0.21877	0.43347	0.066
Mof_C 	C 	0.89453	0.24177	0.42697	-0.297
Mof_H 	H 	0.91103	0.26427	0.43877	0.09
Mof_H 	H 	0.86573	0.24357	0.42277	0.089
Mof_H 	H 	0.88473	0.20867	0.43147	0.1
Mof_C 	C 	0.87393	0.22287	0.40767	-0.208
Mof_H 	H 	0.85973	0.23377	0.41867	0.05
Mof_H 	H 	0.86113	0.22457	0.39357	0.06
Mof_H 	H 	0.86573	0.18937	0.41057	0.064
Mof_C 	C 	0.90233	0.22037	0.38987	-0.173
Mof_H 	H 	0.87273	0.22147	0.38617	0.062
Mof_H 	H 	0.92273	0.22807	0.37717	0.054
Mof_H 	H 	0.89243	0.18707	0.39467	0.053
Mof_C 	C 	0.95033	0.23787	0.39027	-0.328
Mof_H 	H 	0.98613	0.25907	0.39017	0.095
Mof_H 	H 	0.94233	0.20467	0.39327	0.111
Mof_H 	H 	0.93763	0.23977	0.37627	0.093
Mof_C 	C 	0.5417	0.7756	0.6363	-0.238
Mof_C 	C 	0.5551	0.7666	0.6162	0.082
Mof_H 	H 	0.5869	0.7716	0.6144	-0.015
Mof_C 	C 	0.5235	0.7506	0.599	-0.059
Mof_H 	H 	0.5345	0.7463	0.5854	0.048
Mof_C 	C 	0.4766	0.7408	0.6011	-0.014
Mof_C 	C 	0.4627	0.7523	0.6206	-0.072
Mof_H 	H 	0.4312	0.748	0.6222	0.052
Mof_C 	C 	0.4954	0.77	0.6375	0.089
Mof_H 	H 	0.4859	0.7786	0.6504	0.006
Mof_O 	O 	0.5634	0.8197	0.6685	-0.544
Mof_N 	N 	0.5914	0.8414	0.6873	-0.16
Mof_C 	C 	0.5815	0.8728	0.6945	0.071
Mof_H 	H 	0.5581	0.8773	0.6869	0.046
Mof_C 	C 	0.6034	0.9025	0.7134	-0.132
Mof_C 	C 	0.637	0.8967	0.7267	0.232
Mof_C 	C 	0.6559	0.928	0.745	-0.138
Mof_C 	C 	0.643	0.9636	0.7491	0.044
Mof_H 	H 	0.6565	0.9843	0.7611	0.01
Mof_C 	C 	0.6109	0.969	0.7357	-0.127
Mof_C 	C 	0.5923	0.9389	0.7181	0.043
Mof_H 	H 	0.571	0.9431	0.7088	0.016
Mof_C 	C 	0.6893	0.9258	0.7601	0.078
Mof_H 	H 	0.6988	0.947	0.7721	0.036
Mof_N 	N 	0.7067	0.8978	0.7586	-0.16
Mof_O 	O 	0.7386	0.9068	0.7761	-0.557
Mof_C 	C 	0.8178	0.8725	0.8062	0.423
Mof_H 	H 	0.8062	0.8405	0.8011	-0.106
Mof_C 	C 	0.8487	0.8878	0.8236	-0.322
Mof_H 	H 	0.8585	0.8666	0.8295	0.149
Mof_O 	O 	0.6489	0.8641	0.7225	-0.502
Mof_C 	C 	0.5958	0.0068	0.741	0.317
Mof_O 	O 	0.9126	0.9206	0.85851	-0.476
Mof_C 	C 	0.8838	0.9438	0.6501	0.102
Mof_C 	C 	0.8732	0.9685	0.6313	0.043
Mof_H 	H 	0.8656	0.9927	0.6369	0.089
Mof_H 	H 	0.8455	0.9441	0.6231	-0.014
Mof_H 	H 	0.9017	0.9844	0.622	-0.003
Mof_C 	C 	0.9271	0.9828	0.6627	-0.121
Mof_H 	H 	0.92	0.0081	0.6674	0.015
Mof_H 	H 	0.956	0.9973	0.6536	0.04
Mof_H 	H 	0.9329	0.9681	0.6753	0.042
Mof_C 	C 	0.6413	0.0549	0.7466	-0.228
Mof_H 	H 	0.659	0.0496	0.7581	0.058
Mof_H 	H 	0.6318	0.0783	0.7514	0.073
Mof_H 	H 	0.6621	0.0676	0.734	0.059
Mof_C 	C 	0.8961	0.9052	0.6432	-0.425
Mof_H 	H 	0.8689	0.8799	0.635	0.008
Mof_H 	H 	0.9021	0.8909	0.6559	0.145
Mof_H 	H 	0.9252	0.9202	0.6341	0.129
Mof_C 	C 	0.612	0.027	0.7637	-0.201
Mof_H 	H 	0.6478	0.0415	0.7646	0.059
Mof_H 	H 	0.5971	0.0001	0.774	0.047
Mof_H 	H 	0.6031	0.051	0.7668	0.064
Mof_C 	C 	0.5612	0.9861	0.7603	-0.292
Mof_H 	H 	0.5777	0.9801	0.7721	0.094
Mof_H 	H 	0.5324	0.9555	0.7561	0.083
Mof_H 	H 	0.5514	0.0094	0.7648	0.097
Mof_C 	C 	0.5406	0.9844	0.741	-0.198
Mof_H 	H 	0.5264	0.9593	0.752	0.053
Mof_H 	H 	0.5278	0.9699	0.7269	0.054
Mof_H 	H 	0.5324	0.0097	0.7439	0.06
Mof_C 	C 	0.569	0.0153	0.7232	-0.173
Mof_H 	H 	0.5394	0.9846	0.7195	0.066
Mof_H 	H 	0.5894	0.028	0.7105	0.046
Mof_H 	H 	0.5591	0.0387	0.728	0.053
Mof_C 	C 	0.617	0.0458	0.7236	-0.329
Mof_H 	H 	0.6528	0.0604	0.7235	0.095
Mof_H 	H 	0.609	0.071	0.7266	0.111
Mof_H 	H 	0.6043	0.0312	0.7096	0.101
Mof_C 	C 	0.20837	0.10893	0.96963	-0.24
Mof_C 	C 	0.22177	0.09993	0.94953	0.092
Mof_H 	H 	0.25357	0.10493	0.94773	-0.018
Mof_C 	C 	0.19017	0.08393	0.93233	-0.048
Mof_H 	H 	0.20117	0.07963	0.91873	0.044
Mof_C 	C 	0.14327	0.07413	0.93443	-0.015
Mof_C 	C 	0.12937	0.08563	0.95393	-0.071
Mof_H 	H 	0.09787	0.08133	0.95553	0.051
Mof_C 	C 	0.16207	0.10333	0.97083	0.09
Mof_H 	H 	0.15257	0.11193	0.98373	0.005
Mof_O 	O 	0.23007	0.15303	0.00183	-0.544
Mof_N 	N 	0.25807	0.17473	0.02063	-0.161
Mof_C 	C 	0.24817	0.20613	0.02783	0.071
Mof_H 	H 	0.22477	0.21063	0.02023	0.046
Mof_C 	C 	0.27007	0.23583	0.04673	-0.134
Mof_C 	C 	0.30367	0.23003	0.06003	0.233
Mof_C 	C 	0.32257	0.26133	0.07833	-0.139
Mof_C 	C 	0.30967	0.29693	0.08243	0.047
Mof_H 	H 	0.32317	0.31763	0.09443	0.008
Mof_C 	C 	0.27757	0.30233	0.06903	-0.133
Mof_C 	C 	0.25897	0.27223	0.05143	0.046
Mof_H 	H 	0.23767	0.27643	0.04213	0.015
Mof_C 	C 	0.35597	0.25913	0.09343	0.079
Mof_H 	H 	0.36547	0.28033	0.10543	0.035
Mof_N 	N 	0.37337	0.23113	0.09193	-0.16
Mof_O 	O 	0.40527	0.24013	0.10943	-0.557
Mof_C 	C 	0.48447	0.20583	0.13953	0.423
Mof_H 	H 	0.47287	0.17383	0.13443	-0.106
Mof_C 	C 	0.51537	0.22113	0.15693	-0.322
Mof_H 	H 	0.52517	0.19993	0.16283	0.149
Mof_O 	O 	0.31557	0.19743	0.05583	-0.502
Mof_C 	C 	0.26247	0.34013	0.07433	0.326
Mof_O 	O 	0.57927	0.25393	0.19184	-0.476
Mof_C 	C 	0.55047	0.27713	0.98343	0.102
Mof_C 	C 	0.53987	0.30183	0.96463	0.025
Mof_H 	H 	0.53227	0.32603	0.97023	0.093
Mof_H 	H 	0.51217	0.27743	0.95643	-0.009
Mof_H 	H 	0.56837	0.31773	0.95533	0.001
Mof_C 	C 	0.59377	0.31613	0.99603	-0.138
Mof_H 	H 	0.58667	0.34143	0.00073	0.023
Mof_H 	H 	0.62267	0.33063	0.98693	0.044
Mof_H 	H 	0.59957	0.30143	0.00863	0.042
Mof_C 	C 	0.30797	0.38823	0.07993	-0.232
Mof_H 	H 	0.32567	0.38293	0.09143	0.059
Mof_H 	H 	0.29847	0.41163	0.08473	0.075
Mof_H 	H 	0.32877	0.40093	0.06733	0.061
Mof_C 	C 	0.56277	0.23853	0.97653	-0.409
Mof_H 	H 	0.53557	0.21323	0.96833	0.005
Mof_H 	H 	0.56877	0.22423	0.98923	0.14
Mof_H 	H 	0.59187	0.25353	0.96743	0.124
Mof_C 	C 	0.27867	0.36033	0.09703	-0.206
Mof_H 	H 	0.31447	0.37483	0.09793	0.06
Mof_H 	H 	0.26377	0.33343	0.10733	0.053
Mof_H 	H 	0.26977	0.38433	0.10013	0.066
Mof_C 	C 	0.22787	0.31943	0.09363	-0.297
Mof_H 	H 	0.24437	0.31343	0.10543	0.09
Mof_H 	H 	0.19907	0.28883	0.08943	0.089
Mof_H 	H 	0.21807	0.34273	0.09813	0.1
Mof_C 	C 	0.20727	0.31773	0.07433	-0.208
Mof_H 	H 	0.19307	0.29263	0.08533	0.05
Mof_H 	H 	0.19447	0.30323	0.06023	0.06
Mof_H 	H 	0.19907	0.34303	0.07723	0.064
Mof_C 	C 	0.23567	0.34863	0.05653	-0.173
Mof_H 	H 	0.20607	0.31793	0.05283	0.062
Mof_H 	H 	0.25607	0.36133	0.04383	0.054
Mof_H 	H 	0.22577	0.37203	0.06133	0.053
Mof_C 	C 	0.28367	0.37913	0.05693	-0.328
Mof_H 	H 	0.31947	0.39373	0.05683	0.094
Mof_H 	H 	0.27567	0.40433	0.05993	0.111
Mof_H 	H 	0.27097	0.36453	0.04293	0.093
Mof_C 	C 	0.87503	0.44227	0.30297	-0.238
Mof_C 	C 	0.88843	0.43327	0.28287	0.082
Mof_H 	H 	0.92023	0.43827	0.28107	-0.015
Mof_C 	C 	0.85683	0.41727	0.26567	-0.059
Mof_H 	H 	0.86783	0.41297	0.25207	0.048
Mof_C 	C 	0.80993	0.40747	0.26777	-0.014
Mof_C 	C 	0.79603	0.41897	0.28727	-0.072
Mof_H 	H 	0.76453	0.41467	0.28887	0.052
Mof_C 	C 	0.82873	0.43667	0.30417	0.089
Mof_H 	H 	0.81923	0.44527	0.31707	0.006
Mof_O 	O 	0.89673	0.48637	0.33517	-0.544
Mof_N 	N 	0.92473	0.50807	0.35397	-0.16
Mof_C 	C 	0.91483	0.53947	0.36117	0.071
Mof_H 	H 	0.89143	0.54397	0.35357	0.046
Mof_C 	C 	0.93673	0.56917	0.38007	-0.133
Mof_C 	C 	0.97033	0.56337	0.39337	0.233
Mof_C 	C 	0.98923	0.59467	0.41167	-0.136
Mof_C 	C 	0.97633	0.63027	0.41577	0.046
Mof_H 	H 	0.98983	0.65097	0.42777	0.008
Mof_C 	C 	0.94423	0.63567	0.40237	-0.133
Mof_C 	C 	0.92563	0.60557	0.38477	0.046
Mof_H 	H 	0.90433	0.60977	0.37547	0.015
Mof_C 	C 	0.02263	0.59247	0.42677	0.076
Mof_H 	H 	0.03213	0.61367	0.43877	0.036
Mof_N 	N 	0.04003	0.56447	0.42527	-0.16
Mof_O 	O 	0.07193	0.57347	0.44277	-0.557
Mof_C 	C 	0.15113	0.53917	0.47287	0.423
Mof_H 	H 	0.13953	0.50717	0.46777	-0.106
Mof_C 	C 	0.18203	0.55447	0.49027	-0.322
Mof_H 	H 	0.19183	0.53327	0.49617	0.149
Mof_O 	O 	0.98223	0.53077	0.38917	-0.501
Mof_C 	C 	0.92913	0.67347	0.40767	0.326
Mof_O 	O 	0.24593	0.58727	0.52518	-0.476
Mof_C 	C 	0.21713	0.61047	0.31677	0.102
Mof_C 	C 	0.20653	0.63517	0.29797	0.025
Mof_H 	H 	0.19893	0.65937	0.30357	0.093
Mof_H 	H 	0.17883	0.61077	0.28977	-0.009
Mof_H 	H 	0.23503	0.65107	0.28867	0.001
Mof_C 	C 	0.26043	0.64947	0.32937	-0.138
Mof_H 	H 	0.25333	0.67477	0.33407	0.023
Mof_H 	H 	0.28933	0.66397	0.32027	0.044
Mof_H 	H 	0.26623	0.63477	0.34197	0.042
Mof_C 	C 	0.97463	0.72157	0.41327	-0.233
Mof_H 	H 	0.99233	0.71627	0.42477	0.059
Mof_H 	H 	0.96513	0.74497	0.41807	0.075
Mof_H 	H 	0.99543	0.73427	0.40067	0.061
Mof_C 	C 	0.22943	0.57187	0.30987	-0.409
Mof_H 	H 	0.20223	0.54657	0.30167	0.005
Mof_H 	H 	0.23543	0.55757	0.32257	0.14
Mof_H 	H 	0.25853	0.58687	0.30077	0.124
Mof_C 	C 	0.94533	0.69367	0.43037	-0.206
Mof_H 	H 	0.98113	0.70817	0.43127	0.06
Mof_H 	H 	0.93043	0.66677	0.44067	0.054
Mof_H 	H 	0.93643	0.71767	0.43347	0.066
Mof_C 	C 	0.89453	0.65277	0.42697	-0.297
Mof_H 	H 	0.91103	0.64677	0.43877	0.09
Mof_H 	H 	0.86573	0.62217	0.42277	0.089
Mof_H 	H 	0.88473	0.67607	0.43147	0.1
Mof_C 	C 	0.87393	0.65107	0.40767	-0.209
Mof_H 	H 	0.85973	0.62597	0.41867	0.05
Mof_H 	H 	0.86113	0.63657	0.39357	0.06
Mof_H 	H 	0.86573	0.67637	0.41057	0.064
Mof_C 	C 	0.90233	0.68197	0.38987	-0.173
Mof_H 	H 	0.87273	0.65127	0.38617	0.062
Mof_H 	H 	0.92273	0.69467	0.37717	0.054
Mof_H 	H 	0.89243	0.70537	0.39467	0.053
Mof_C 	C 	0.95033	0.71247	0.39027	-0.328
Mof_H 	H 	0.98613	0.72707	0.39017	0.095
Mof_H 	H 	0.94233	0.73767	0.39327	0.111
Mof_H 	H 	0.93763	0.69787	0.37627	0.093
Mof_C 	C 	0.2244	0.7661	0.6363	-0.238
Mof_C 	C 	0.2334	0.7885	0.6162	0.082
Mof_H 	H 	0.2284	0.8153	0.6144	-0.015
Mof_C 	C 	0.2494	0.7729	0.599	-0.059
Mof_H 	H 	0.2537	0.7882	0.5854	0.048
Mof_C 	C 	0.2592	0.7358	0.6011	-0.014
Mof_C 	C 	0.2477	0.7104	0.6206	-0.072
Mof_H 	H 	0.252	0.6832	0.6222	0.052
Mof_C 	C 	0.23	0.7254	0.6375	0.089
Mof_H 	H 	0.2214	0.7073	0.6504	0.006
Mof_O 	O 	0.1803	0.7437	0.6685	-0.544
Mof_N 	N 	0.1586	0.75	0.6873	-0.16
Mof_C 	C 	0.1272	0.7087	0.6945	0.071
Mof_H 	H 	0.1227	0.6808	0.6869	0.045
Mof_C 	C 	0.0975	0.7009	0.7134	-0.134
Mof_C 	C 	0.1033	0.7403	0.7267	0.233
Mof_C 	C 	0.072	0.7279	0.745	-0.139
Mof_C 	C 	0.0364	0.6794	0.7491	0.047
Mof_H 	H 	0.0157	0.6722	0.7611	0.008
Mof_C 	C 	0.031	0.6419	0.7357	-0.134
Mof_C 	C 	0.0611	0.6534	0.7181	0.046
Mof_H 	H 	0.0569	0.6279	0.7088	0.014
Mof_C 	C 	0.0742	0.7635	0.7601	0.079
Mof_H 	H 	0.053	0.7518	0.7721	0.035
Mof_N 	N 	0.1022	0.8089	0.7586	-0.16
Mof_O 	O 	0.0932	0.8318	0.7761	-0.557
Mof_C 	C 	0.1275	0.9453	0.8062	0.423
Mof_H 	H 	0.1595	0.9657	0.8011	-0.105
Mof_C 	C 	0.1122	0.9609	0.8236	-0.322
Mof_H 	H 	0.1334	0.9919	0.8295	0.149
Mof_O 	O 	0.1359	0.7848	0.7225	-0.502
Mof_C 	C 	0.9932	0.589	0.741	0.327
Mof_O 	O 	0.0794	0.992	0.85851	-0.475
Mof_C 	C 	0.0562	0.94	0.6501	0.101
Mof_C 	C 	0.0315	0.9047	0.6313	0.041
Mof_H 	H 	0.0073	0.8729	0.6369	0.09
Mof_H 	H 	0.0559	0.9014	0.6231	-0.013
Mof_H 	H 	0.0156	0.9173	0.622	-0.003
Mof_C 	C 	0.0172	0.9443	0.6627	-0.144
Mof_H 	H 	0.9919	0.9119	0.6674	0.024
Mof_H 	H 	0.0027	0.9587	0.6536	0.046
Mof_H 	H 	0.0319	0.9648	0.6753	0.04
Mof_C 	C 	0.9451	0.5864	0.7466	-0.233
Mof_H 	H 	0.9504	0.6094	0.7581	0.059
Mof_H 	H 	0.9217	0.5535	0.7514	0.075
Mof_H 	H 	0.9324	0.5945	0.734	0.061
Mof_C 	C 	0.0948	0.9909	0.6432	-0.427
Mof_H 	H 	0.1201	0.989	0.635	0.008
Mof_H 	H 	0.1091	0.0112	0.6559	0.146
Mof_H 	H 	0.0798	0.005	0.6341	0.127
Mof_C 	C 	0.973	0.585	0.7637	-0.206
Mof_H 	H 	0.9585	0.6063	0.7646	0.06
Mof_H 	H 	0.9999	0.597	0.774	0.054
Mof_H 	H 	0.949	0.5521	0.7668	0.066
Mof_C 	C 	0.0139	0.5751	0.7603	-0.298
Mof_H 	H 	0.0199	0.5976	0.7721	0.09
Mof_H 	H 	0.0445	0.5769	0.7561	0.089
Mof_H 	H 	0.9906	0.542	0.7648	0.1
Mof_C 	C 	0.0156	0.5562	0.741	-0.209
Mof_H 	H 	0.0407	0.5671	0.752	0.05
Mof_H 	H 	0.0301	0.5579	0.7269	0.06
Mof_H 	H 	0.9903	0.5227	0.7439	0.064
Mof_C 	C 	0.9847	0.5537	0.7232	-0.173
Mof_H 	H 	0.0154	0.5548	0.7195	0.062
Mof_H 	H 	0.972	0.5614	0.7105	0.054
Mof_H 	H 	0.9613	0.5204	0.728	0.053
Mof_C 	C 	0.9542	0.5712	0.7236	-0.328
Mof_H 	H 	0.9396	0.5924	0.7235	0.094
Mof_H 	H 	0.929	0.538	0.7266	0.111
Mof_H 	H 	0.9688	0.5731	0.7096	0.093
Mof_C 	C 	0.89107	0.09943	0.96963	-0.236
Mof_C 	C 	0.90007	0.12183	0.94953	0.066
Mof_H 	H 	0.89507	0.14863	0.94773	-0.01
Mof_C 	C 	0.91607	0.10623	0.93233	-0.076
Mof_H 	H 	0.92037	0.12153	0.91873	0.053
Mof_C 	C 	0.92587	0.06913	0.93443	-0.012
Mof_C 	C 	0.91437	0.04373	0.95393	-0.073
Mof_H 	H 	0.91867	0.01653	0.95553	0.052
Mof_C 	C 	0.89667	0.05873	0.97083	0.086
Mof_H 	H 	0.88807	0.04063	0.98373	0.006
Mof_O 	O 	0.84697	0.07703	0.00183	-0.545
Mof_N 	N 	0.82527	0.08333	0.02063	-0.161
Mof_C 	C 	0.79387	0.04203	0.02783	0.072
Mof_H 	H 	0.78937	0.01413	0.02023	0.045
Mof_C 	C 	0.76417	0.03423	0.04673	-0.135
Mof_C 	C 	0.76997	0.07363	0.06003	0.234
Mof_C 	C 	0.73867	0.06123	0.07833	-0.139
Mof_C 	C 	0.70307	0.01273	0.08243	0.046
Mof_H 	H 	0.68237	0.00553	0.09443	0.008
Mof_C 	C 	0.69767	0.97523	0.06903	-0.133
Mof_C 	C 	0.72777	0.98673	0.05143	0.048
Mof_H 	H 	0.72357	0.96123	0.04213	0.014
Mof_C 	C 	0.74087	0.09683	0.09343	0.079
Mof_H 	H 	0.71967	0.08513	0.10543	0.035
Mof_N 	N 	0.76887	0.14223	0.09193	-0.16
Mof_O 	O 	0.75987	0.16513	0.10943	-0.557
Mof_C 	C 	0.79417	0.27863	0.13953	0.423
Mof_H 	H 	0.82617	0.29903	0.13443	-0.105
Mof_C 	C 	0.77887	0.29423	0.15693	-0.322
Mof_H 	H 	0.80007	0.32523	0.16283	0.149
Mof_O 	O 	0.80257	0.11813	0.05583	-0.502
Mof_C 	C 	0.65987	0.92233	0.07433	0.326
Mof_O 	O 	0.74607	0.32533	0.19184	-0.476
Mof_C 	C 	0.72287	0.27333	0.98343	0.102
Mof_C 	C 	0.69817	0.23803	0.96463	0.025
Mof_H 	H 	0.67397	0.20623	0.97023	0.093
Mof_H 	H 	0.72257	0.23473	0.95643	-0.009
Mof_H 	H 	0.68227	0.25063	0.95533	0.001
Mof_C 	C 	0.68387	0.27763	0.99603	-0.138
Mof_H 	H 	0.65857	0.24523	0.00073	0.023
Mof_H 	H 	0.66937	0.29203	0.98693	0.044
Mof_H 	H 	0.69857	0.29813	0.00863	0.042
Mof_C 	C 	0.61177	0.91973	0.07993	-0.232
Mof_H 	H 	0.61707	0.94273	0.09143	0.059
Mof_H 	H 	0.58837	0.88683	0.08473	0.075
Mof_H 	H 	0.59907	0.92783	0.06733	0.061
Mof_C 	C 	0.76147	0.32423	0.97653	-0.41
Mof_H 	H 	0.78677	0.32233	0.96833	0.005
Mof_H 	H 	0.77577	0.34453	0.98923	0.14
Mof_H 	H 	0.74647	0.33833	0.96743	0.124
Mof_C 	C 	0.63967	0.91833	0.09703	-0.206
Mof_H 	H 	0.62517	0.93963	0.09793	0.06
Mof_H 	H 	0.66657	0.93033	0.10733	0.053
Mof_H 	H 	0.61567	0.88543	0.10013	0.066
Mof_C 	C 	0.68057	0.90843	0.09363	-0.297
Mof_H 	H 	0.68657	0.93093	0.10543	0.09
Mof_H 	H 	0.71117	0.91023	0.08943	0.089
Mof_H 	H 	0.65727	0.87533	0.09813	0.1
Mof_C 	C 	0.68227	0.88953	0.07433	-0.209
Mof_H 	H 	0.70737	0.90043	0.08533	0.05
Mof_H 	H 	0.69677	0.89123	0.06023	0.06
Mof_H 	H 	0.65697	0.85603	0.07723	0.064
Mof_C 	C 	0.65137	0.88703	0.05653	-0.173
Mof_H 	H 	0.68207	0.88813	0.05283	0.062
Mof_H 	H 	0.63867	0.89473	0.04383	0.054
Mof_H 	H 	0.62797	0.85373	0.06133	0.053
Mof_C 	C 	0.62087	0.90453	0.05693	-0.328
Mof_H 	H 	0.60627	0.92573	0.05683	0.095
Mof_H 	H 	0.59567	0.87133	0.05993	0.111
Mof_H 	H 	0.63547	0.90643	0.04293	0.093
Mof_C 	C 	0.55773	0.43277	0.30297	-0.238
Mof_C 	C 	0.56673	0.45517	0.28287	0.082
Mof_H 	H 	0.56173	0.48197	0.28107	-0.015
Mof_C 	C 	0.58273	0.43957	0.26567	-0.059
Mof_H 	H 	0.58703	0.45487	0.25207	0.048
Mof_C 	C 	0.59253	0.40247	0.26777	-0.014
Mof_C 	C 	0.58103	0.37707	0.28727	-0.072
Mof_H 	H 	0.58533	0.34987	0.28887	0.052
Mof_C 	C 	0.56333	0.39207	0.30417	0.089
Mof_H 	H 	0.55473	0.37397	0.31707	0.006
Mof_O 	O 	0.51363	0.41037	0.33517	-0.544
Mof_N 	N 	0.49193	0.41667	0.35397	-0.161
Mof_C 	C 	0.46053	0.37537	0.36117	0.071
Mof_H 	H 	0.45603	0.34747	0.35357	0.045
Mof_C 	C 	0.43083	0.36757	0.38007	-0.134
Mof_C 	C 	0.43663	0.40697	0.39337	0.233
Mof_C 	C 	0.40533	0.39457	0.41167	-0.139
Mof_C 	C 	0.36973	0.34607	0.41577	0.047
Mof_H 	H 	0.34903	0.33887	0.42777	0.008
Mof_C 	C 	0.36433	0.30857	0.40237	-0.133
Mof_C 	C 	0.39443	0.32007	0.38477	0.046
Mof_H 	H 	0.39023	0.29457	0.37547	0.015
Mof_C 	C 	0.40753	0.43017	0.42677	0.079
Mof_H 	H 	0.38633	0.41847	0.43877	0.035
Mof_N 	N 	0.43553	0.47557	0.42527	-0.16
Mof_O 	O 	0.42653	0.49847	0.44277	-0.557
Mof_C 	C 	0.46083	0.61197	0.47287	0.423
Mof_H 	H 	0.49283	0.63237	0.46777	-0.106
Mof_C 	C 	0.44553	0.62757	0.49027	-0.322
Mof_H 	H 	0.46673	0.65857	0.49617	0.149
Mof_O 	O 	0.46923	0.45147	0.38917	-0.502
Mof_C 	C 	0.32653	0.25567	0.40767	0.326
Mof_O 	O 	0.41273	0.65867	0.52518	-0.476
Mof_C 	C 	0.38953	0.60667	0.31677	0.102
Mof_C 	C 	0.36483	0.57137	0.29797	0.025
Mof_H 	H 	0.34063	0.53957	0.30357	0.093
Mof_H 	H 	0.38923	0.56807	0.28977	-0.009
Mof_H 	H 	0.34893	0.58397	0.28867	0.001
Mof_C 	C 	0.35053	0.61097	0.32937	-0.138
Mof_H 	H 	0.32523	0.57857	0.33407	0.023
Mof_H 	H 	0.33603	0.62537	0.32027	0.044
Mof_H 	H 	0.36523	0.63147	0.34197	0.042
Mof_C 	C 	0.27843	0.25307	0.41327	-0.232
Mof_H 	H 	0.28373	0.27607	0.42477	0.059
Mof_H 	H 	0.25503	0.22017	0.41807	0.075
Mof_H 	H 	0.26573	0.26117	0.40067	0.061
Mof_C 	C 	0.42813	0.65757	0.30987	-0.41
Mof_H 	H 	0.45343	0.65567	0.30167	0.005
Mof_H 	H 	0.44243	0.67787	0.32257	0.14
Mof_H 	H 	0.41313	0.67167	0.30077	0.124
Mof_C 	C 	0.30633	0.25167	0.43037	-0.206
Mof_H 	H 	0.29183	0.27297	0.43127	0.06
Mof_H 	H 	0.33323	0.26367	0.44067	0.053
Mof_H 	H 	0.28233	0.21877	0.43347	0.066
Mof_C 	C 	0.34723	0.24177	0.42697	-0.297
Mof_H 	H 	0.35323	0.26427	0.43877	0.09
Mof_H 	H 	0.37783	0.24357	0.42277	0.089
Mof_H 	H 	0.32393	0.20867	0.43147	0.1
Mof_C 	C 	0.34893	0.22287	0.40767	-0.209
Mof_H 	H 	0.37403	0.23377	0.41867	0.05
Mof_H 	H 	0.36343	0.22457	0.39357	0.06
Mof_H 	H 	0.32363	0.18937	0.41057	0.064
Mof_C 	C 	0.31803	0.22037	0.38987	-0.173
Mof_H 	H 	0.34873	0.22147	0.38617	0.062
Mof_H 	H 	0.30533	0.22807	0.37717	0.054
Mof_H 	H 	0.29463	0.18707	0.39467	0.053
Mof_C 	C 	0.28753	0.23787	0.39027	-0.328
Mof_H 	H 	0.27293	0.25907	0.39017	0.094
Mof_H 	H 	0.26233	0.20467	0.39327	0.111
Mof_H 	H 	0.30213	0.23977	0.37627	0.093
Mof_C 	C 	0.2339	0.4583	0.6363	-0.238
Mof_C 	C 	0.2115	0.4449	0.6162	0.082
Mof_H 	H 	0.1847	0.4131	0.6144	-0.015
Mof_C 	C 	0.2271	0.4765	0.599	-0.059
Mof_H 	H 	0.2118	0.4655	0.5854	0.048
Mof_C 	C 	0.2642	0.5234	0.6011	-0.014
Mof_C 	C 	0.2896	0.5373	0.6206	-0.072
Mof_H 	H 	0.3168	0.5688	0.6222	0.052
Mof_C 	C 	0.2746	0.5046	0.6375	0.089
Mof_H 	H 	0.2927	0.5141	0.6504	0.006
Mof_O 	O 	0.2563	0.4366	0.6685	-0.544
Mof_N 	N 	0.25	0.4086	0.6873	-0.16
Mof_C 	C 	0.2913	0.4185	0.6945	0.071
Mof_H 	H 	0.3192	0.4419	0.6869	0.045
Mof_C 	C 	0.2991	0.3966	0.7134	-0.134
Mof_C 	C 	0.2597	0.363	0.7267	0.233
Mof_C 	C 	0.2721	0.3441	0.745	-0.139
Mof_C 	C 	0.3206	0.357	0.7491	0.047
Mof_H 	H 	0.3278	0.3435	0.7611	0.008
Mof_C 	C 	0.3581	0.3891	0.7357	-0.133
Mof_C 	C 	0.3466	0.4077	0.7181	0.046
Mof_H 	H 	0.3721	0.429	0.7088	0.015
Mof_C 	C 	0.2365	0.3107	0.7601	0.079
Mof_H 	H 	0.2482	0.3012	0.7721	0.035
Mof_N 	N 	0.1911	0.2933	0.7586	-0.16
Mof_O 	O 	0.1682	0.2614	0.7761	-0.557
Mof_C 	C 	0.0547	0.1822	0.8062	0.422
Mof_H 	H 	0.0343	0.1938	0.8011	-0.106
Mof_C 	C 	0.0391	0.1513	0.8236	-0.322
Mof_H 	H 	0.0081	0.1415	0.8295	0.148
Mof_O 	O 	0.2152	0.3511	0.7225	-0.502
Mof_C 	C 	0.411	0.4042	0.741	0.326
Mof_O 	O 	0.008	0.0874	0.85851	-0.477
Mof_C 	C 	0.06	0.1162	0.6501	0.102
Mof_C 	C 	0.0953	0.1268	0.6313	0.023
Mof_H 	H 	0.1271	0.1344	0.6369	0.094
Mof_H 	H 	0.0986	0.1545	0.6231	-0.008
Mof_H 	H 	0.0827	0.0983	0.622	0.002
Mof_C 	C 	0.0557	0.0729	0.6627	-0.137
Mof_H 	H 	0.0881	0.08	0.6674	0.023
Mof_H 	H 	0.0413	0.044	0.6536	0.043
Mof_H 	H 	0.0352	0.0671	0.6753	0.043
Mof_C 	C 	0.4136	0.3587	0.7466	-0.232
Mof_H 	H 	0.3906	0.341	0.7581	0.059
Mof_H 	H 	0.4465	0.3682	0.7514	0.075
Mof_H 	H 	0.4055	0.3379	0.734	0.061
Mof_C 	C 	0.0091	0.1039	0.6432	-0.406
Mof_H 	H 	0.011	0.1311	0.635	0.005
Mof_H 	H 	0.9888	0.0979	0.6559	0.139
Mof_H 	H 	0.995	0.0748	0.6341	0.123
Mof_C 	C 	0.415	0.388	0.7637	-0.206
Mof_H 	H 	0.3937	0.3522	0.7646	0.06
Mof_H 	H 	0.403	0.4029	0.774	0.053
Mof_H 	H 	0.4479	0.3969	0.7668	0.066
Mof_C 	C 	0.4249	0.4388	0.7603	-0.297
Mof_H 	H 	0.4024	0.4223	0.7721	0.09
Mof_H 	H 	0.4231	0.4676	0.7561	0.089
Mof_H 	H 	0.458	0.4486	0.7648	0.1
Mof_C 	C 	0.4438	0.4594	0.741	-0.209
Mof_H 	H 	0.4329	0.4736	0.752	0.05
Mof_H 	H 	0.4421	0.4722	0.7269	0.06
Mof_H 	H 	0.4773	0.4676	0.7439	0.064
Mof_C 	C 	0.4463	0.431	0.7232	-0.173
Mof_H 	H 	0.4452	0.4606	0.7195	0.062
Mof_H 	H 	0.4386	0.4106	0.7105	0.054
Mof_H 	H 	0.4796	0.4409	0.728	0.053
Mof_C 	C 	0.4288	0.383	0.7236	-0.328
Mof_H 	H 	0.4076	0.3472	0.7235	0.094
Mof_H 	H 	0.462	0.391	0.7266	0.111
Mof_H 	H 	0.4269	0.3957	0.7096	0.093
Mof_C 	C 	0.90057	0.79163	0.96963	-0.239
Mof_C 	C 	0.87817	0.77823	0.94953	0.088
Mof_H 	H 	0.85137	0.74643	0.94773	-0.017
Mof_C 	C 	0.89377	0.80983	0.93233	-0.053
Mof_H 	H 	0.87847	0.79883	0.91873	0.046
Mof_C 	C 	0.93087	0.85673	0.93443	-0.014
Mof_C 	C 	0.95627	0.87063	0.95393	-0.071
Mof_H 	H 	0.98347	0.90213	0.95553	0.052
Mof_C 	C 	0.94127	0.83793	0.97083	0.09
Mof_H 	H 	0.95937	0.84743	0.98373	0.006
Mof_O 	O 	0.92297	0.76993	0.00183	-0.544
Mof_N 	N 	0.91667	0.74193	0.02063	-0.16
Mof_C 	C 	0.95797	0.75183	0.02783	0.071
Mof_H 	H 	0.98587	0.77523	0.02023	0.046
Mof_C 	C 	0.96577	0.72993	0.04673	-0.132
Mof_C 	C 	0.92637	0.69633	0.06003	0.233
Mof_C 	C 	0.93877	0.67743	0.07833	-0.14
Mof_C 	C 	0.98727	0.69033	0.08243	0.05
Mof_H 	H 	0.99447	0.67683	0.09443	0.008
Mof_C 	C 	0.02477	0.72243	0.06903	-0.135
Mof_C 	C 	0.01327	0.74103	0.05143	0.044
Mof_H 	H 	0.03877	0.76233	0.04213	0.015
Mof_C 	C 	0.90317	0.64403	0.09343	0.079
Mof_H 	H 	0.91487	0.63453	0.10543	0.036
Mof_N 	N 	0.85777	0.62663	0.09193	-0.16
Mof_O 	O 	0.83487	0.59473	0.10943	-0.557
Mof_C 	C 	0.72137	0.51553	0.13953	0.423
Mof_H 	H 	0.70097	0.52713	0.13443	-0.106
Mof_C 	C 	0.70577	0.48463	0.15693	-0.322
Mof_H 	H 	0.67477	0.47483	0.16283	0.149
Mof_O 	O 	0.88187	0.68443	0.05583	-0.502
Mof_C 	C 	0.07767	0.73753	0.07433	0.327
Mof_O 	O 	0.67467	0.42073	0.19184	-0.476
Mof_C 	C 	0.72667	0.44953	0.98343	0.102
Mof_C 	C 	0.76197	0.46013	0.96463	0.025
Mof_H 	H 	0.79377	0.46773	0.97023	0.093
Mof_H 	H 	0.76527	0.48783	0.95643	-0.009
Mof_H 	H 	0.74937	0.43163	0.95533	0.001
Mof_C 	C 	0.72237	0.40623	0.99603	-0.138
Mof_H 	H 	0.75477	0.41333	0.00073	0.023
Mof_H 	H 	0.70797	0.37733	0.98693	0.044
Mof_H 	H 	0.70187	0.40043	0.00863	0.042
Mof_C 	C 	0.08027	0.69203	0.07993	-0.232
Mof_H 	H 	0.05727	0.67433	0.09143	0.059
Mof_H 	H 	0.11317	0.70153	0.08473	0.075
Mof_H 	H 	0.07217	0.67123	0.06733	0.061
Mof_C 	C 	0.67577	0.43723	0.97653	-0.41
Mof_H 	H 	0.67767	0.46443	0.96833	0.005
Mof_H 	H 	0.65547	0.43123	0.98923	0.14
Mof_H 	H 	0.66167	0.40813	0.96743	0.124
Mof_C 	C 	0.08167	0.72133	0.09703	-0.206
Mof_H 	H 	0.06037	0.68553	0.09793	0.06
Mof_H 	H 	0.06967	0.73623	0.10733	0.053
Mof_H 	H 	0.11457	0.73023	0.10013	0.066
Mof_C 	C 	0.09157	0.77213	0.09363	-0.298
Mof_H 	H 	0.06907	0.75563	0.10543	0.09
Mof_H 	H 	0.08977	0.80093	0.08943	0.089
Mof_H 	H 	0.12467	0.78193	0.09813	0.1
Mof_C 	C 	0.11047	0.79273	0.07433	-0.209
Mof_H 	H 	0.09957	0.80693	0.08533	0.05
Mof_H 	H 	0.10877	0.80553	0.06023	0.06
Mof_H 	H 	0.14397	0.80093	0.07723	0.064
Mof_C 	C 	0.11297	0.76433	0.05653	-0.173
Mof_H 	H 	0.11187	0.79393	0.05283	0.062
Mof_H 	H 	0.10527	0.74393	0.04383	0.054
Mof_H 	H 	0.14627	0.77423	0.06133	0.053
Mof_C 	C 	0.09547	0.71633	0.05693	-0.328
Mof_H 	H 	0.07427	0.68053	0.05683	0.094
Mof_H 	H 	0.12867	0.72433	0.05993	0.111
Mof_H 	H 	0.09357	0.72903	0.04293	0.093
Mof_C 	C 	0.56723	0.12497	0.30297	-0.238
Mof_C 	C 	0.54483	0.11157	0.28287	0.082
Mof_H 	H 	0.51803	0.07977	0.28107	-0.015
Mof_C 	C 	0.56043	0.14317	0.26567	-0.059
Mof_H 	H 	0.54513	0.13217	0.25207	0.048
Mof_C 	C 	0.59753	0.19007	0.26777	-0.014
Mof_C 	C 	0.62293	0.20397	0.28727	-0.072
Mof_H 	H 	0.65013	0.23547	0.28887	0.052
Mof_C 	C 	0.60793	0.17127	0.30417	0.089
Mof_H 	H 	0.62603	0.18077	0.31707	0.006
Mof_O 	O 	0.58963	0.10327	0.33517	-0.544
Mof_N 	N 	0.58333	0.07527	0.35397	-0.161
Mof_C 	C 	0.62463	0.08517	0.36117	0.071
Mof_H 	H 	0.65253	0.10857	0.35357	0.045
Mof_C 	C 	0.63243	0.06327	0.38007	-0.134
Mof_C 	C 	0.59303	0.02967	0.39337	0.234
Mof_C 	C 	0.60543	0.01077	0.41167	-0.14
Mof_C 	C 	0.65393	0.02367	0.41577	0.048
Mof_H 	H 	0.66113	0.01017	0.42777	0.007
Mof_C 	C 	0.69143	0.05577	0.40237	-0.134
Mof_C 	C 	0.67993	0.07437	0.38477	0.046
Mof_H 	H 	0.70543	0.09567	0.37547	0.014
Mof_C 	C 	0.56983	0.97737	0.42677	0.08
Mof_H 	H 	0.58153	0.96787	0.43877	0.035
Mof_N 	N 	0.52443	0.95997	0.42527	-0.16
Mof_O 	O 	0.50153	0.92807	0.44277	-0.557
Mof_C 	C 	0.38803	0.84887	0.47287	0.423
Mof_H 	H 	0.36763	0.86047	0.46777	-0.106
Mof_C 	C 	0.37243	0.81797	0.49027	-0.322
Mof_H 	H 	0.34143	0.80817	0.49617	0.149
Mof_O 	O 	0.54853	0.01777	0.38917	-0.503
Mof_C 	C 	0.74433	0.07087	0.40767	0.327
Mof_O 	O 	0.34133	0.75407	0.52518	-0.476
Mof_C 	C 	0.39333	0.78287	0.31677	0.102
Mof_C 	C 	0.42863	0.79347	0.29797	0.025
Mof_H 	H 	0.46043	0.80107	0.30357	0.093
Mof_H 	H 	0.43193	0.82117	0.28977	-0.009
Mof_H 	H 	0.41603	0.76497	0.28867	0.001
Mof_C 	C 	0.38903	0.73957	0.32937	-0.138
Mof_H 	H 	0.42143	0.74667	0.33407	0.023
Mof_H 	H 	0.37463	0.71067	0.32027	0.044
Mof_H 	H 	0.36853	0.73377	0.34197	0.042
Mof_C 	C 	0.74693	0.02537	0.41327	-0.232
Mof_H 	H 	0.72393	0.00767	0.42477	0.059
Mof_H 	H 	0.77983	0.03487	0.41807	0.075
Mof_H 	H 	0.73883	0.00457	0.40067	0.061
Mof_C 	C 	0.34243	0.77057	0.30987	-0.41
Mof_H 	H 	0.34433	0.79777	0.30167	0.005
Mof_H 	H 	0.32213	0.76457	0.32257	0.14
Mof_H 	H 	0.32833	0.74147	0.30077	0.124
Mof_C 	C 	0.74833	0.05467	0.43037	-0.206
Mof_H 	H 	0.72703	0.01887	0.43127	0.06
Mof_H 	H 	0.73633	0.06957	0.44067	0.053
Mof_H 	H 	0.78123	0.06357	0.43347	0.066
Mof_C 	C 	0.75823	0.10547	0.42697	-0.298
Mof_H 	H 	0.73573	0.08897	0.43877	0.09
Mof_H 	H 	0.75643	0.13427	0.42277	0.089
Mof_H 	H 	0.79133	0.11527	0.43147	0.1
Mof_C 	C 	0.77713	0.12607	0.40767	-0.209
Mof_H 	H 	0.76623	0.14027	0.41867	0.05
Mof_H 	H 	0.77543	0.13887	0.39357	0.06
Mof_H 	H 	0.81063	0.13427	0.41057	0.064
Mof_C 	C 	0.77963	0.09767	0.38987	-0.173
Mof_H 	H 	0.77853	0.12727	0.38617	0.062
Mof_H 	H 	0.77193	0.07727	0.37717	0.054
Mof_H 	H 	0.81293	0.10757	0.39467	0.053
Mof_C 	C 	0.76213	0.04967	0.39027	-0.328
Mof_H 	H 	0.74093	0.01387	0.39017	0.095
Mof_H 	H 	0.79533	0.05767	0.39327	0.111
Mof_H 	H 	0.76023	0.06237	0.37627	0.093
Mof_Co	Co	0.14811	0.29622	0.73473	1.142
Mof_Co	Co	0.17956	0.35913	0.69627	1.143
Mof_Zn	Zn	0.29988	0.59976	0.54332	1.217
Mof_B 	B 	0.2121	0.4242	0.6568	1.519
Mof_O 	O 	0.18735	0.3747	0.6488	-0.558
Mof_N 	N 	0.1691	0.3382	0.6638	-0.147
Mof_C 	C 	0.14815	0.2963	0.6553	0.061
Mof_H 	H 	0.1474	0.2948	0.6401	0.023
Mof_C 	C 	0.1254	0.2508	0.6669	-0.139
Mof_C 	C 	0.12365	0.2473	0.6899	0.245
Mof_C 	C 	0.09985	0.1997	0.6993	-0.141
Mof_C 	C 	0.07945	0.1589	0.6858	0.026
Mof_H 	H 	0.06375	0.1275	0.6921	0.017
Mof_C 	C 	0.08135	0.1627	0.6637	-0.093
Mof_C 	C 	0.1042	0.2084	0.6544	0.023
Mof_H 	H 	0.10555	0.2111	0.6392	0.008
Mof_C 	C 	0.095	0.19	0.7221	0.078
Mof_H 	H 	0.07855	0.1571	0.7265	0.037
Mof_N 	N 	0.1111	0.2222	0.7365	-0.159
Mof_O 	O 	0.09955	0.1991	0.7565	-0.596
Mof_B 	B 	0.1152	0.2304	0.7747	1.679
Mof_C 	C 	0.09875	0.1975	0.7958	-0.74
Mof_C 	C 	0.06715	0.1343	0.8325	0.146
Mof_C 	C 	0.2795	0.559	0.5829	0.393
Mof_O 	O 	0.3017	0.6034	0.5888	-0.586
Mof_O 	O 	0.273	0.546	0.5644	-0.494
Mof_O 	O 	0.14245	0.2849	0.7017	-0.525
Mof_C 	C 	0.05045	0.1009	0.8516	0.286
Mof_Co	Co	0.81478	0.62955	0.06806	1.142
Mof_Co	Co	0.84623	0.69246	0.0296	1.143
Mof_Zn	Zn	0.96655	0.93309	0.87665	1.218
Mof_B 	B 	0.87877	0.75753	0.99013	1.519
Mof_O 	O 	0.85402	0.70803	0.98213	-0.558
Mof_N 	N 	0.83577	0.67153	0.99713	-0.147
Mof_C 	C 	0.81482	0.62963	0.98863	0.061
Mof_H 	H 	0.81407	0.62813	0.97343	0.023
Mof_C 	C 	0.79207	0.58413	0.00023	-0.139
Mof_C 	C 	0.79032	0.58063	0.02323	0.245
Mof_C 	C 	0.76652	0.53303	0.03263	-0.141
Mof_C 	C 	0.74612	0.49223	0.01913	0.026
Mof_H 	H 	0.73042	0.46083	0.02543	0.018
Mof_C 	C 	0.74802	0.49603	0.99703	-0.093
Mof_C 	C 	0.77087	0.54173	0.98773	0.023
Mof_H 	H 	0.77222	0.54443	0.97253	0.008
Mof_C 	C 	0.76167	0.52333	0.05543	0.078
Mof_H 	H 	0.74522	0.49043	0.05983	0.037
Mof_N 	N 	0.77777	0.55553	0.06983	-0.159
Mof_O 	O 	0.76622	0.53243	0.08983	-0.596
Mof_B 	B 	0.78187	0.56373	0.10803	1.679
Mof_C 	C 	0.76542	0.53083	0.12913	-0.74
Mof_C 	C 	0.73382	0.46763	0.16583	0.146
Mof_C 	C 	0.94617	0.89233	0.91623	0.393
Mof_O 	O 	0.96837	0.93673	0.92213	-0.585
Mof_O 	O 	0.93967	0.87933	0.89773	-0.494
Mof_O 	O 	0.80912	0.61823	0.03503	-0.525
Mof_C 	C 	0.71712	0.43423	0.18493	0.286
Mof_Co	Co	0.48144	0.96289	0.4014	1.142
Mof_Co	Co	0.5129	0.0258	0.36294	1.143
Mof_Zn	Zn	0.63321	0.26643	0.20999	1.217
Mof_B 	B 	0.54543	0.09087	0.32347	1.519
Mof_O 	O 	0.52068	0.04137	0.31547	-0.558
Mof_N 	N 	0.50243	0.00487	0.33047	-0.147
Mof_C 	C 	0.48148	0.96297	0.32197	0.062
Mof_H 	H 	0.48073	0.96147	0.30677	0.023
Mof_C 	C 	0.45873	0.91747	0.33357	-0.139
Mof_C 	C 	0.45698	0.91397	0.35657	0.245
Mof_C 	C 	0.43318	0.86637	0.36597	-0.141
Mof_C 	C 	0.41278	0.82557	0.35247	0.026
Mof_H 	H 	0.39708	0.79417	0.35877	0.018
Mof_C 	C 	0.41468	0.82937	0.33037	-0.093
Mof_C 	C 	0.43753	0.87507	0.32107	0.023
Mof_H 	H 	0.43888	0.87777	0.30587	0.008
Mof_C 	C 	0.42833	0.85667	0.38877	0.078
Mof_H 	H 	0.41188	0.82377	0.39317	0.037
Mof_N 	N 	0.44443	0.88887	0.40317	-0.159
Mof_O 	O 	0.43288	0.86577	0.42317	-0.596
Mof_B 	B 	0.44853	0.89707	0.44137	1.679
Mof_C 	C 	0.43208	0.86417	0.46247	-0.74
Mof_C 	C 	0.40048	0.80097	0.49917	0.146
Mof_C 	C 	0.61283	0.22567	0.24957	0.393
Mof_O 	O 	0.63503	0.27007	0.25547	-0.586
Mof_O 	O 	0.60633	0.21267	0.23107	-0.494
Mof_O 	O 	0.47578	0.95157	0.36837	-0.524
Mof_C 	C 	0.38378	0.76757	0.51827	0.286
Mof_Co	Co	0.14811	0.85189	0.73473	1.142
Mof_Co	Co	0.17956	0.82044	0.69627	1.143
Mof_Zn	Zn	0.29988	0.70012	0.54332	1.217
Mof_B 	B 	0.2121	0.7879	0.6568	1.519
Mof_O 	O 	0.18735	0.81265	0.6488	-0.558
Mof_N 	N 	0.1691	0.8309	0.6638	-0.147
Mof_C 	C 	0.14815	0.85185	0.6553	0.061
Mof_H 	H 	0.1474	0.8526	0.6401	0.023
Mof_C 	C 	0.1254	0.8746	0.6669	-0.139
Mof_C 	C 	0.12365	0.87635	0.6899	0.245
Mof_C 	C 	0.09985	0.90015	0.6993	-0.141
Mof_C 	C 	0.07945	0.92055	0.6858	0.026
Mof_H 	H 	0.06375	0.93625	0.6921	0.018
Mof_C 	C 	0.08135	0.91865	0.6637	-0.093
Mof_C 	C 	0.1042	0.8958	0.6544	0.023
Mof_H 	H 	0.10555	0.89445	0.6392	0.008
Mof_C 	C 	0.095	0.905	0.7221	0.078
Mof_H 	H 	0.07855	0.92145	0.7265	0.037
Mof_N 	N 	0.1111	0.8889	0.7365	-0.159
Mof_O 	O 	0.09955	0.90045	0.7565	-0.596
Mof_B 	B 	0.1152	0.8848	0.7747	1.679
Mof_C 	C 	0.09875	0.90125	0.7958	-0.74
Mof_C 	C 	0.06715	0.93285	0.8325	0.147
Mof_C 	C 	0.2795	0.7205	0.5829	0.393
Mof_O 	O 	0.3017	0.6983	0.5888	-0.586
Mof_O 	O 	0.273	0.727	0.5644	-0.494
Mof_O 	O 	0.14245	0.85755	0.7017	-0.525
Mof_C 	C 	0.05045	0.94955	0.8516	0.286
Mof_Co	Co	0.81478	0.18522	0.06806	1.142
Mof_Co	Co	0.84623	0.15377	0.0296	1.143
Mof_Zn	Zn	0.96655	0.03345	0.87665	1.217
Mof_B 	B 	0.87877	0.12123	0.99013	1.519
Mof_O 	O 	0.85402	0.14598	0.98213	-0.558
Mof_N 	N 	0.83577	0.16423	0.99713	-0.147
Mof_C 	C 	0.81482	0.18518	0.98863	0.061
Mof_H 	H 	0.81407	0.18593	0.97343	0.023
Mof_C 	C 	0.79207	0.20793	0.00023	-0.139
Mof_C 	C 	0.79032	0.20968	0.02323	0.245
Mof_C 	C 	0.76652	0.23348	0.03263	-0.141
Mof_C 	C 	0.74612	0.25388	0.01913	0.026
Mof_H 	H 	0.73042	0.26958	0.02543	0.018
Mof_C 	C 	0.74802	0.25198	0.99703	-0.093
Mof_C 	C 	0.77087	0.22913	0.98773	0.023
Mof_H 	H 	0.77222	0.22778	0.97253	0.008
Mof_C 	C 	0.76167	0.23833	0.05543	0.078
Mof_H 	H 	0.74522	0.25478	0.05983	0.037
Mof_N 	N 	0.77777	0.22223	0.06983	-0.159
Mof_O 	O 	0.76622	0.23378	0.08983	-0.596
Mof_B 	B 	0.78187	0.21813	0.10803	1.679
Mof_C 	C 	0.76542	0.23458	0.12913	-0.74
Mof_C 	C 	0.73382	0.26618	0.16583	0.146
Mof_C 	C 	0.94617	0.05383	0.91623	0.393
Mof_O 	O 	0.96837	0.03163	0.92213	-0.586
Mof_O 	O 	0.93967	0.06033	0.89773	-0.495
Mof_O 	O 	0.80912	0.19088	0.03503	-0.525
Mof_C 	C 	0.71712	0.28288	0.18493	0.286
Mof_Co	Co	0.48144	0.51856	0.4014	1.142
Mof_Co	Co	0.5129	0.4871	0.36294	1.143
Mof_Zn	Zn	0.63321	0.36679	0.20999	1.217
Mof_B 	B 	0.54543	0.45457	0.32347	1.519
Mof_O 	O 	0.52068	0.47932	0.31547	-0.558
Mof_N 	N 	0.50243	0.49757	0.33047	-0.147
Mof_C 	C 	0.48148	0.51852	0.32197	0.061
Mof_H 	H 	0.48073	0.51927	0.30677	0.023
Mof_C 	C 	0.45873	0.54127	0.33357	-0.139
Mof_C 	C 	0.45698	0.54302	0.35657	0.245
Mof_C 	C 	0.43318	0.56682	0.36597	-0.141
Mof_C 	C 	0.41278	0.58722	0.35247	0.026
Mof_H 	H 	0.39708	0.60292	0.35877	0.018
Mof_C 	C 	0.41468	0.58532	0.33037	-0.093
Mof_C 	C 	0.43753	0.56247	0.32107	0.023
Mof_H 	H 	0.43888	0.56112	0.30587	0.008
Mof_C 	C 	0.42833	0.57167	0.38877	0.078
Mof_H 	H 	0.41188	0.58812	0.39317	0.037
Mof_N 	N 	0.44443	0.55557	0.40317	-0.159
Mof_O 	O 	0.43288	0.56712	0.42317	-0.596
Mof_B 	B 	0.44853	0.55147	0.44137	1.679
Mof_C 	C 	0.43208	0.56792	0.46247	-0.74
Mof_C 	C 	0.40048	0.59952	0.49917	0.146
Mof_C 	C 	0.61283	0.38717	0.24957	0.393
Mof_O 	O 	0.63503	0.36497	0.25547	-0.586
Mof_O 	O 	0.60633	0.39367	0.23107	-0.494
Mof_O 	O 	0.47578	0.52422	0.36837	-0.525
Mof_C 	C 	0.38378	0.61622	0.51827	0.286
Mof_Co	Co	0.70378	0.85189	0.73473	1.142
Mof_Co	Co	0.64087	0.82044	0.69627	1.143
Mof_Zn	Zn	0.40024	0.70012	0.54332	1.217
Mof_B 	B 	0.5758	0.7879	0.6568	1.519
Mof_O 	O 	0.6253	0.81265	0.6488	-0.558
Mof_N 	N 	0.6618	0.8309	0.6638	-0.147
Mof_C 	C 	0.7037	0.85185	0.6553	0.061
Mof_H 	H 	0.7052	0.8526	0.6401	0.023
Mof_C 	C 	0.7492	0.8746	0.6669	-0.139
Mof_C 	C 	0.7527	0.87635	0.6899	0.245
Mof_C 	C 	0.8003	0.90015	0.6993	-0.141
Mof_C 	C 	0.8411	0.92055	0.6858	0.026
Mof_H 	H 	0.8725	0.93625	0.6921	0.018
Mof_C 	C 	0.8373	0.91865	0.6637	-0.093
Mof_C 	C 	0.7916	0.8958	0.6544	0.023
Mof_H 	H 	0.7889	0.89445	0.6392	0.009
Mof_C 	C 	0.81	0.905	0.7221	0.078
Mof_H 	H 	0.8429	0.92145	0.7265	0.037
Mof_N 	N 	0.7778	0.8889	0.7365	-0.159
Mof_O 	O 	0.8009	0.90045	0.7565	-0.596
Mof_B 	B 	0.7696	0.8848	0.7747	1.679
Mof_C 	C 	0.8025	0.90125	0.7958	-0.74
Mof_C 	C 	0.8657	0.93285	0.8325	0.147
Mof_C 	C 	0.441	0.7205	0.5829	0.393
Mof_O 	O 	0.3966	0.6983	0.5888	-0.586
Mof_O 	O 	0.454	0.727	0.5644	-0.494
Mof_O 	O 	0.7151	0.85755	0.7017	-0.525
Mof_C 	C 	0.8991	0.94955	0.8516	0.286
Mof_Co	Co	0.37045	0.18522	0.06806	1.142
Mof_Co	Co	0.30754	0.15377	0.0296	1.143
Mof_Zn	Zn	0.06691	0.03345	0.87665	1.217
Mof_B 	B 	0.24247	0.12123	0.99013	1.519
Mof_O 	O 	0.29197	0.14598	0.98213	-0.558
Mof_N 	N 	0.32847	0.16423	0.99713	-0.147
Mof_C 	C 	0.37037	0.18518	0.98863	0.061
Mof_H 	H 	0.37187	0.18593	0.97343	0.023
Mof_C 	C 	0.41587	0.20793	0.00023	-0.139
Mof_C 	C 	0.41937	0.20968	0.02323	0.245
Mof_C 	C 	0.46697	0.23348	0.03263	-0.141
Mof_C 	C 	0.50777	0.25388	0.01913	0.026
Mof_H 	H 	0.53917	0.26958	0.02543	0.018
Mof_C 	C 	0.50397	0.25198	0.99703	-0.093
Mof_C 	C 	0.45827	0.22913	0.98773	0.023
Mof_H 	H 	0.45557	0.22778	0.97253	0.008
Mof_C 	C 	0.47667	0.23833	0.05543	0.078
Mof_H 	H 	0.50957	0.25478	0.05983	0.037
Mof_N 	N 	0.44447	0.22223	0.06983	-0.159
Mof_O 	O 	0.46757	0.23378	0.08983	-0.596
Mof_B 	B 	0.43627	0.21813	0.10803	1.679
Mof_C 	C 	0.46917	0.23458	0.12913	-0.74
Mof_C 	C 	0.53237	0.26618	0.16583	0.146
Mof_C 	C 	0.10767	0.05383	0.91623	0.393
Mof_O 	O 	0.06327	0.03163	0.92213	-0.586
Mof_O 	O 	0.12067	0.06033	0.89773	-0.495
Mof_O 	O 	0.38177	0.19088	0.03503	-0.525
Mof_C 	C 	0.56577	0.28288	0.18493	0.286
Mof_Co	Co	0.03711	0.51856	0.4014	1.141
Mof_Co	Co	0.9742	0.4871	0.36294	1.143
Mof_Zn	Zn	0.73357	0.36679	0.20999	1.217
Mof_B 	B 	0.90913	0.45457	0.32347	1.518
Mof_O 	O 	0.95863	0.47932	0.31547	-0.557
Mof_N 	N 	0.99513	0.49757	0.33047	-0.145
Mof_C 	C 	0.03703	0.51852	0.32197	0.058
Mof_H 	H 	0.03853	0.51927	0.30677	0.024
Mof_C 	C 	0.08253	0.54127	0.33357	-0.139
Mof_C 	C 	0.08603	0.54302	0.35657	0.245
Mof_C 	C 	0.13363	0.56682	0.36597	-0.141
Mof_C 	C 	0.17443	0.58722	0.35247	0.026
Mof_H 	H 	0.20583	0.60292	0.35877	0.018
Mof_C 	C 	0.17063	0.58532	0.33037	-0.093
Mof_C 	C 	0.12493	0.56247	0.32107	0.023
Mof_H 	H 	0.12223	0.56112	0.30587	0.008
Mof_C 	C 	0.14333	0.57167	0.38877	0.078
Mof_H 	H 	0.17623	0.58812	0.39317	0.037
Mof_N 	N 	0.11113	0.55557	0.40317	-0.159
Mof_O 	O 	0.13423	0.56712	0.42317	-0.596
Mof_B 	B 	0.10293	0.55147	0.44137	1.679
Mof_C 	C 	0.13583	0.56792	0.46247	-0.74
Mof_C 	C 	0.19903	0.59952	0.49917	0.146
Mof_C 	C 	0.77433	0.38717	0.24957	0.393
Mof_O 	O 	0.72993	0.36497	0.25547	-0.586
Mof_O 	O 	0.78733	0.39367	0.23107	-0.494
Mof_O 	O 	0.04843	0.52422	0.36837	-0.526
Mof_C 	C 	0.23243	0.61622	0.51827	0.286
Mof_Zn	Zn	0.33333	0.66667	0.58409	1.243
Mof_O 	O 	0.33333	0.66667	0.5515	-0.935
Mof_Zn	Zn	-0	0	0.91742	1.242
Mof_O 	O 	1.47452e-32	0	0.88483	-0.937
Mof_Zn	Zn	0.66667	0.33333	0.25076	1.243
Mof_O 	O 	0.66667	0.33333	0.21817	-0.935
_end
