# CIF file generated by openbabel 3.1.0, see https://openbabel.org
data_I
_chemical_name_common 'image0'
_cell_length_a 14.075
_cell_length_b 27.026
_cell_length_c 7.612
_cell_angle_alpha 90
_cell_angle_beta 90
_cell_angle_gamma 89.82
_space_group_name_H-M_alt 'P 1'
_space_group_name_Hall 'P 1'
loop_
    _symmetry_equiv_pos_as_xyz
    x,y,z
loop_
    _atom_site_label
    _atom_site_type_symbol
    _atom_site_fract_x
    _atom_site_fract_y
    _atom_site_fract_z
    _atom_site_occupancy
    Cd1      Cd       0.28403    0.13462    0.87387    1.000
    N1       N        0.26140    0.07860    0.08680    1.000
    N2       N        0.25920    0.07860    0.64470    1.000
    N3       N        0.13270    0.16920    0.86700    1.000
    N4       N        0.32420    0.19320    0.65160    1.000
    N5       N        0.45080    0.12470    0.83140    1.000
    C1       C        0.25630    0.04870    0.19250    1.000
    C2       C        0.25550    0.04860    0.53840    1.000
    C3       C        0.08120    0.19950    0.82340    1.000
    C4       C        0.42620    0.19200    0.62900    1.000
    C5       C        0.48290    0.15860    0.69600    1.000
    C6       C        0.58880    0.15900    0.66110    1.000
    N6       N        0.33250    0.69740    0.58840    1.000
    C7       C        0.39550    0.71740    0.65210    1.000
    Cd2      Cd       0.21597    0.86538    0.87387    1.000
    N7       N        0.23860    0.92140    0.08680    1.000
    N8       N        0.24080    0.92140    0.64470    1.000
    N9       N        0.36730    0.83080    0.86700    1.000
    N10      N        0.17580    0.80680    0.65160    1.000
    N11      N        0.04920    0.87530    0.83140    1.000
    C8       C        0.24370    0.95130    0.19250    1.000
    C9       C        0.24450    0.95140    0.53840    1.000
    C10      C        0.41880    0.80050    0.82340    1.000
    C11      C        0.07380    0.80800    0.62900    1.000
    C12      C        0.01710    0.84140    0.69600    1.000
    C13      C        0.91120    0.84100    0.66110    1.000
    N12      N        0.16750    0.30260    0.58840    1.000
    C14      C        0.10450    0.28260    0.65210    1.000
    N13      N        0.66750    0.80260    0.91160    1.000
    C15      C        0.60450    0.78260    0.84790    1.000
    Cd3      Cd       0.71597    0.36538    0.62613    1.000
    N14      N        0.73860    0.42140    0.41320    1.000
    N15      N        0.74080    0.42140    0.85530    1.000
    N16      N        0.86730    0.33080    0.63300    1.000
    N17      N        0.67580    0.30680    0.84840    1.000
    N18      N        0.54920    0.37530    0.66860    1.000
    C16      C        0.74370    0.45130    0.30750    1.000
    C17      C        0.74450    0.45140    0.96160    1.000
    C18      C        0.91880    0.30050    0.67660    1.000
    C19      C        0.57380    0.30800    0.87100    1.000
    C20      C        0.51710    0.34140    0.80400    1.000
    C21      C        0.41120    0.34100    0.83890    1.000
    N19      N        0.83250    0.19740    0.91160    1.000
    C22      C        0.89550    0.21740    0.84790    1.000
    Cd4      Cd       0.78403    0.63462    0.62613    1.000
    N20      N        0.76140    0.57860    0.41320    1.000
    N21      N        0.75920    0.57860    0.85530    1.000
    N22      N        0.63270    0.66920    0.63300    1.000
    N23      N        0.82420    0.69320    0.84840    1.000
    N24      N        0.95080    0.62470    0.66860    1.000
    C23      C        0.75630    0.54870    0.30750    1.000
    C24      C        0.75550    0.54860    0.96160    1.000
    C25      C        0.58120    0.69950    0.67660    1.000
    C26      C        0.92620    0.69200    0.87100    1.000
    C27      C        0.98290    0.65860    0.80400    1.000
    C28      C        0.08880    0.65900    0.83890    1.000
    Ni1      Ni       0.25000    0.00000    0.36530    1.000
    Ni2      Ni       0.75000    0.50000    0.13470    1.000
    Ni3      Ni       0.50000    0.75000    0.75000    1.000
    Ni4      Ni       0.00000    0.25000    0.75000    1.000
    N25      N        0.33250    0.19740    0.08840    1.000
    C29      C        0.39550    0.21740    0.15210    1.000
    Cd5      Cd       0.28403    0.63462    0.37387    1.000
    N26      N        0.26140    0.57860    0.58680    1.000
    N27      N        0.25920    0.57860    0.14470    1.000
    N28      N        0.13270    0.66920    0.36700    1.000
    N29      N        0.32420    0.69320    0.15160    1.000
    N30      N        0.45080    0.62470    0.33140    1.000
    C30      C        0.25630    0.54870    0.69250    1.000
    C31      C        0.25550    0.54860    0.03840    1.000
    C32      C        0.08120    0.69950    0.32340    1.000
    C33      C        0.42620    0.69200    0.12900    1.000
    C34      C        0.48290    0.65860    0.19600    1.000
    C35      C        0.58880    0.65900    0.16110    1.000
    N31      N        0.16750    0.80260    0.08840    1.000
    C36      C        0.10450    0.78260    0.15210    1.000
    Cd6      Cd       0.21597    0.36538    0.37387    1.000
    N32      N        0.23860    0.42140    0.58680    1.000
    N33      N        0.24080    0.42140    0.14470    1.000
    N34      N        0.36730    0.33080    0.36700    1.000
    N35      N        0.17580    0.30680    0.15160    1.000
    N36      N        0.04920    0.37530    0.33140    1.000
    C37      C        0.24370    0.45130    0.69250    1.000
    C38      C        0.24450    0.45140    0.03840    1.000
    C39      C        0.41880    0.30050    0.32340    1.000
    C40      C        0.07380    0.30800    0.12900    1.000
    C41      C        0.01710    0.34140    0.19600    1.000
    C42      C        0.91120    0.34100    0.16110    1.000
    Cd7      Cd       0.71597    0.86538    0.12613    1.000
    N37      N        0.73860    0.92140    0.91320    1.000
    N38      N        0.74080    0.92140    0.35530    1.000
    N39      N        0.86730    0.83080    0.13300    1.000
    N40      N        0.67580    0.80680    0.34840    1.000
    N41      N        0.54920    0.87530    0.16860    1.000
    C43      C        0.74370    0.95130    0.80750    1.000
    C44      C        0.74450    0.95140    0.46160    1.000
    C45      C        0.91880    0.80050    0.17660    1.000
    C46      C        0.57380    0.80800    0.37100    1.000
    C47      C        0.51710    0.84140    0.30400    1.000
    C48      C        0.41120    0.84100    0.33890    1.000
    N42      N        0.66750    0.30260    0.41160    1.000
    C49      C        0.60450    0.28260    0.34790    1.000
    Cd8      Cd       0.78403    0.13462    0.12613    1.000
    N43      N        0.76140    0.07860    0.91320    1.000
    N44      N        0.75920    0.07860    0.35530    1.000
    N45      N        0.63270    0.16920    0.13300    1.000
    N46      N        0.82420    0.19320    0.34840    1.000
    N47      N        0.95080    0.12470    0.16860    1.000
    C50      C        0.75630    0.04870    0.80750    1.000
    C51      C        0.75550    0.04860    0.46160    1.000
    C52      C        0.58120    0.19950    0.17660    1.000
    C53      C        0.92620    0.19200    0.37100    1.000
    C54      C        0.98290    0.15860    0.30400    1.000
    C55      C        0.08880    0.15900    0.33890    1.000
    N48      N        0.83250    0.69740    0.41160    1.000
    C56      C        0.89550    0.71740    0.34790    1.000
    Ni5      Ni       0.25000    0.50000    0.86530    1.000
    Ni6      Ni       0.75000    0.00000    0.63470    1.000
    Ni7      Ni       0.50000    0.25000    0.25000    1.000
    Ni8      Ni       0.00000    0.75000    0.25000    1.000
