# CIF file generated by openbabel 3.1.0, see https://openbabel.org
data_I
_chemical_name_common 'GIYSUD_clean'
_cell_length_a 8.969
_cell_length_b 9.419
_cell_length_c 17.29
_cell_angle_alpha 100.468
_cell_angle_beta 92.754
_cell_angle_gamma 117.702
_space_group_name_H-M_alt 'P 1'
_space_group_name_Hall 'P 1'
loop_
    _symmetry_equiv_pos_as_xyz
    x,y,z
loop_
    _atom_site_label
    _atom_site_type_symbol
    _atom_site_fract_x
    _atom_site_fract_y
    _atom_site_fract_z
    _atom_site_occupancy
    Cd1      Cd       0.45725    0.84964    0.79928    1.000
    Cd2      Cd       0.54275    0.15036    0.20072    1.000
    Cd3      Cd       0.50000    0.00000    0.00000    1.000
    H1       H        0.25100    0.44900    0.99200    1.000
    H2       H        0.44760    0.41310    0.91250    1.000
    H3       H        0.31350    0.35150    0.83570    1.000
    H4       H        0.29700    0.17900    0.96500    1.000
    H5       H        0.01500    0.97060    0.88400    1.000
    H6       H        0.03910    0.06680    0.81640    1.000
    H7       H        0.97500    0.16600    0.96400    1.000
    H8       H        0.99060    0.40040    0.93420    1.000
    H9       H        0.02810    0.34550    0.84940    1.000
    H10      H        0.23320    0.50280    0.69220    1.000
    H11      H        0.05140    0.35470    0.57570    1.000
    H12      H        0.11360    0.77390    0.52910    1.000
    H13      H        0.29320    0.91190    0.64710    1.000
    H14      H        0.74900    0.55100    0.00800    1.000
    H15      H        0.55240    0.58690    0.08750    1.000
    H16      H        0.68650    0.64850    0.16430    1.000
    H17      H        0.70300    0.82100    0.03500    1.000
    H18      H        0.98500    0.02940    0.11600    1.000
    H19      H        0.96090    0.93320    0.18360    1.000
    H20      H        0.02500    0.83400    0.03600    1.000
    H21      H        0.00940    0.59960    0.06580    1.000
    H22      H        0.97190    0.65450    0.15060    1.000
    H23      H        0.76680    0.49720    0.30780    1.000
    H24      H        0.94860    0.64530    0.42430    1.000
    H25      H        0.88640    0.22610    0.47090    1.000
    H26      H        0.70680    0.08810    0.35290    1.000
    C1       C        0.31120    0.61620    0.92490    1.000
    C2       C        0.23630    0.44020    0.93590    1.000
    C3       C        0.32680    0.35260    0.89180    1.000
    C4       C        0.25370    0.17560    0.90190    1.000
    C5       C        0.33020    0.08210    0.85200    1.000
    C6       C        0.06050    0.07970    0.87350    1.000
    C7       C        0.96850    0.16700    0.91480    1.000
    C8       C        0.78110    0.06460    0.88090    1.000
    C9       C        0.04670    0.34580    0.90520    1.000
    C10      C        0.20850    0.55920    0.65910    1.000
    C11      C        0.09860    0.46880    0.58870    1.000
    C12      C        0.05890    0.54580    0.53820    1.000
    C13      C        0.13530    0.71490    0.56160    1.000
    C14      C        0.24370    0.79760    0.63280    1.000
    C15      C        0.68880    0.38380    0.07510    1.000
    C16      C        0.76370    0.55980    0.06410    1.000
    C17      C        0.67320    0.64740    0.10820    1.000
    C18      C        0.74630    0.82440    0.09810    1.000
    C19      C        0.66980    0.91790    0.14800    1.000
    C20      C        0.93950    0.92030    0.12650    1.000
    C21      C        0.03150    0.83300    0.08520    1.000
    C22      C        0.21890    0.93540    0.11910    1.000
    C23      C        0.95330    0.65420    0.09480    1.000
    C24      C        0.79150    0.44080    0.34090    1.000
    C25      C        0.90140    0.53120    0.41130    1.000
    C26      C        0.94110    0.45420    0.46180    1.000
    C27      C        0.86470    0.28510    0.43840    1.000
    C28      C        0.75630    0.20240    0.36720    1.000
    N1       N        0.28060    0.72140    0.68210    1.000
    N2       N        0.71940    0.27860    0.31790    1.000
    O1       O        0.31880    0.63390    0.85480    1.000
    O2       O        0.35970    0.72800    0.98670    1.000
    O3       O        0.72920    0.07280    0.81380    1.000
    O4       O        0.68410    0.96260    0.91780    1.000
    O5       O        0.35870    0.09720    0.78430    1.000
    O6       O        0.35160    0.97920    0.88340    1.000
    O7       O        0.68120    0.36610    0.14520    1.000
    O8       O        0.64030    0.27200    0.01330    1.000
    O9       O        0.27080    0.92720    0.18620    1.000
    O10      O        0.31590    0.03740    0.08220    1.000
    O11      O        0.64130    0.90280    0.21570    1.000
    O12      O        0.64840    0.02080    0.11660    1.000
