# CIF file generated by openbabel 3.1.0, see https://openbabel.org
data_I
_chemical_name_common 'image0'
_cell_length_a 10.283
_cell_length_b 12.096
_cell_length_c 16.911
_cell_angle_alpha 76.07
_cell_angle_beta 72.38
_cell_angle_gamma 65.2
_space_group_name_H-M_alt 'P 1'
_space_group_name_Hall 'P 1'
loop_
    _symmetry_equiv_pos_as_xyz
    x,y,z
loop_
    _atom_site_label
    _atom_site_type_symbol
    _atom_site_fract_x
    _atom_site_fract_y
    _atom_site_fract_z
    _atom_site_occupancy
    Ga1      Ga       0.27335    0.49810    0.76132    1.000
    Ga2      Ga       0.53427    0.00087    0.74472    1.000
    Ga3      Ga       0.85725    0.59352    0.89893    1.000
    Ga4      Ga       0.34526    0.90775    0.60375    1.000
    Ga5      Ga       0.85072    0.73977    0.69607    1.000
    Ga6      Ga       0.28706    0.75935    0.80608    1.000
    P1       P        0.11510    0.59935    0.93639    1.000
    P2       P        0.00100    0.45861    0.73743    1.000
    P3       P        0.19700    0.04184    0.76537    1.000
    P4       P        0.65060    0.90897    0.56652    1.000
    P5       P        0.57180    0.75124    0.84528    1.000
    P6       P        0.17010    0.74404    0.65691    1.000
    P7       P        0.56020    0.25554    0.73445    1.000
    O1       O        0.66870    0.71270    0.75990    1.000
    O2       O        0.14270    0.78490    0.74120    1.000
    O3       O        0.15910    0.70920    0.90400    1.000
    O4       O        0.52070    0.89190    0.84160    1.000
    O5       O        0.25530    0.60290    0.66100    1.000
    O6       O        0.54460    0.86800    0.54280    1.000
    O7       O        0.26040    0.80780    0.58690    1.000
    O8       O        0.94490    0.64300    0.96200    1.000
    O9       O        0.77040    0.79580    0.59860    1.000
    O10      O        0.19780    0.92750    0.82680    1.000
    O11      O        0.32240    0.08100    0.76210    1.000
    O12      O        0.72230    0.97460    0.48920    1.000
    O13      O        0.95010    0.56970    0.67420    1.000
    O14      O        0.15830    0.51570    0.86950    1.000
    O15      O        0.43960    0.71250    0.86720    1.000
    O16      O        0.17940    0.52840    0.01160    1.000
    O17      O        0.02350    0.78070    0.63360    1.000
    O18      O        0.55260    0.13070    0.77320    1.000
    O19      O        0.20490    0.02580    0.67550    1.000
    O20      O        0.42360    0.35110    0.78170    1.000
    O21      O        0.16230    0.41750    0.73930    1.000
    O22      O        0.55330    0.99630    0.63310    1.000
    O23      O        0.98490    0.35300    0.70850    1.000
    H1       H        0.01450    0.28910    0.73970    1.000
    O24      O        0.90250    0.47570    0.82660    1.000
    F1       F        0.75270    0.91480    0.72120    1.000
    F2       F        0.38310    0.58390    0.78180    1.000
    O25      O        0.91170    0.70030    0.80120    1.000
    H2       H        0.93830    0.75700    0.81180    1.000
    O26      O        0.41260    0.80010    0.70070    1.000
    H3       H        0.51660    0.75700    0.69790    1.000
    O27      O        0.65500    0.68750    0.91550    1.000
    O28      O        0.69850    0.25780    0.74890    1.000
    O29      O        0.05330    0.14630    0.79470    1.000
    O30      O        0.56430    0.28050    0.64110    1.000
    Ga7      Ga       0.72665    0.50190    0.23868    1.000
    Ga8      Ga       0.46573    0.99913    0.25528    1.000
    Ga9      Ga       0.14275    0.40648    0.10107    1.000
    Ga10     Ga       0.65474    0.09225    0.39625    1.000
    Ga11     Ga       0.14928    0.26023    0.30393    1.000
    Ga12     Ga       0.71294    0.24065    0.19392    1.000
    P8       P        0.88490    0.40065    0.06361    1.000
    P9       P        0.99900    0.54139    0.26257    1.000
    P10      P        0.80300    0.95816    0.23463    1.000
    P11      P        0.34940    0.09103    0.43348    1.000
    P12      P        0.42820    0.24876    0.15472    1.000
    P13      P        0.82990    0.25596    0.34309    1.000
    P14      P        0.43980    0.74446    0.26555    1.000
    O31      O        0.33130    0.28730    0.24010    1.000
    O32      O        0.85730    0.21510    0.25880    1.000
    O33      O        0.84090    0.29080    0.09600    1.000
    O34      O        0.47930    0.10810    0.15840    1.000
    O35      O        0.74470    0.39710    0.33900    1.000
    O36      O        0.45540    0.13200    0.45720    1.000
    O37      O        0.73960    0.19220    0.41310    1.000
    O38      O        0.05510    0.35700    0.03800    1.000
    O39      O        0.22960    0.20420    0.40140    1.000
    O40      O        0.80220    0.07250    0.17320    1.000
    O41      O        0.67760    0.91900    0.23790    1.000
    O42      O        0.27770    0.02540    0.51080    1.000
    O43      O        0.04990    0.43030    0.32580    1.000
    O44      O        0.84170    0.48430    0.13050    1.000
    O45      O        0.56040    0.28750    0.13280    1.000
    O46      O        0.82060    0.47160    0.98840    1.000
    O47      O        0.97650    0.21930    0.36640    1.000
    O48      O        0.44740    0.86930    0.22680    1.000
    O49      O        0.79510    0.97420    0.32450    1.000
    O50      O        0.57640    0.64890    0.21830    1.000
    O51      O        0.83770    0.58250    0.26070    1.000
    O52      O        0.44670    0.00370    0.36690    1.000
    O53      O        0.01510    0.64700    0.29150    1.000
    H4       H        0.98550    0.71090    0.26030    1.000
    O54      O        0.09750    0.52430    0.17340    1.000
    F3       F        0.24730    0.08520    0.27880    1.000
    F4       F        0.61690    0.41610    0.21820    1.000
    O55      O        0.08830    0.29970    0.19880    1.000
    H5       H        0.06170    0.24300    0.18820    1.000
    O56      O        0.58740    0.19990    0.29930    1.000
    H6       H        0.48340    0.24300    0.30210    1.000
    O57      O        0.34500    0.31250    0.08450    1.000
    O58      O        0.30150    0.74220    0.25110    1.000
    O59      O        0.94670    0.85370    0.20530    1.000
    O60      O        0.43570    0.71950    0.35890    1.000
