# CIF file generated by openbabel 3.1.0, see https://openbabel.org
data_I
_chemical_name_common 'RUTNOK_clean5b'
_cell_length_a 30.3522
_cell_length_b 30.3522
_cell_length_c 30.3522
_cell_angle_alpha 60
_cell_angle_beta 60
_cell_angle_gamma 60
_space_group_name_H-M_alt 'P 1'
_space_group_name_Hall 'P 1'
loop_
    _symmetry_equiv_pos_as_xyz
    x,y,z
loop_
    _atom_site_label
    _atom_site_type_symbol
    _atom_site_fract_x
    _atom_site_fract_y
    _atom_site_fract_z
    _atom_site_occupancy
    Zn1      Zn       0.22383    0.32851    0.22383    1.000
    Zn2      Zn       0.32851    0.22383    0.22383    1.000
    Zn3      Zn       0.22383    0.22383    0.22383    1.000
    Zn4      Zn       0.22383    0.22383    0.32851    1.000
    Zn5      Zn       0.67149    0.77617    0.77617    1.000
    Zn6      Zn       0.77617    0.67149    0.77617    1.000
    Zn7      Zn       0.77617    0.77617    0.77617    1.000
    Zn8      Zn       0.77617    0.77617    0.67149    1.000
    H9       H        0.95863    0.39745    0.18012    1.000
    H10      H        0.46439    0.95766    0.39746    1.000
    H11      H        0.96682    0.17704    0.45791    1.000
    H12      H        0.40802    0.43821    0.17108    1.000
    H13      H        0.18131    0.39758    0.46564    1.000
    H14      H        0.40159    0.97565    0.17372    1.000
    H15      H        0.53942    0.79897    0.09700    1.000
    H16      H        0.58548    0.52802    0.08183    1.000
    H17      H        0.81057    0.06613    0.52712    1.000
    H18      H        0.57677    0.80163    0.53168    1.000
    H19      H        0.83000    0.56929    0.01445    1.000
    H20      H        0.80290    0.52975    0.08654    1.000
    H21      H        0.80967    0.59491    0.06854    1.000
    H22      H        0.52749    0.81149    0.59733    1.000
    H23      H        0.58970    0.82945    0.56494    1.000
    H24      H        0.80225    0.08829    0.57881    1.000
    H25      H        0.82975    0.01512    0.58803    1.000
    H26      H        0.52681    0.59139    0.07429    1.000
    H27      H        0.58166    0.57455    0.01340    1.000
    H28      H        0.03530    0.54039    0.60215    1.000
    H29      H        0.03440    0.60200    0.54110    1.000
    H30      H        0.09983    0.55156    0.55070    1.000
    H31      H        0.55278    0.82682    0.02291    1.000
    H32      H        0.60176    0.81678    0.04962    1.000
    H33      H        0.17451    0.45146    0.40047    1.000
    H34      H        0.20162    0.45701    0.43994    1.000
    H35      H        0.46715    0.95255    0.18241    1.000
    H36      H        0.43731    0.90227    0.20130    1.000
    H37      H        0.90021    0.20208    0.45045    1.000
    H38      H        0.96344    0.17831    0.39769    1.000
    H39      H        0.42626    0.46665    0.19919    1.000
    H40      H        0.47176    0.40118    0.18717    1.000
    H41      H        0.90077    0.45455    0.20187    1.000
    H42      H        0.97108    0.45405    0.17544    1.000
    H43      H        0.39973    0.97186    0.45326    1.000
    H44      H        0.44193    0.90095    0.45532    1.000
    H45      H        0.12795    0.30104    0.12795    1.000
    H46      H        0.06913    0.36235    0.06913    1.000
    H47      H        0.30104    0.12795    0.44306    1.000
    H48      H        0.35791    0.07166    0.49877    1.000
    H49      H        0.12795    0.44306    0.12795    1.000
    H50      H        0.07166    0.49877    0.07166    1.000
    H51      H        0.44306    0.12795    0.30104    1.000
    H52      H        0.49877    0.07166    0.35791    1.000
    H53      H        0.12795    0.12795    0.44306    1.000
    H54      H        0.06913    0.06913    0.49939    1.000
    H55      H        0.30104    0.44306    0.12795    1.000
    H56      H        0.35791    0.49877    0.07166    1.000
    H57      H        0.12795    0.12795    0.30104    1.000
    H58      H        0.06913    0.06913    0.36235    1.000
    H59      H        0.44306    0.30104    0.12795    1.000
    H60      H        0.49877    0.35791    0.07166    1.000
    H61      H        0.12795    0.44306    0.30104    1.000
    H62      H        0.07166    0.49877    0.35791    1.000
    H63      H        0.30104    0.12795    0.12795    1.000
    H64      H        0.35791    0.07166    0.07166    1.000
    H65      H        0.12795    0.30104    0.44306    1.000
    H66      H        0.06913    0.36235    0.49939    1.000
    H67      H        0.44306    0.12795    0.12795    1.000
    H68      H        0.49877    0.07166    0.07166    1.000
    H69      H        0.69896    0.87205    0.87205    1.000
    H70      H        0.64209    0.92834    0.92834    1.000
    H71      H        0.87205    0.69896    0.55694    1.000
    H72      H        0.92834    0.64209    0.50123    1.000
    H73      H        0.55694    0.87205    0.87205    1.000
    H74      H        0.50061    0.93087    0.93087    1.000
    H75      H        0.87205    0.55694    0.69896    1.000
    H76      H        0.92834    0.50123    0.64209    1.000
    H77      H        0.87205    0.87205    0.55694    1.000
    H78      H        0.93087    0.93087    0.50061    1.000
    H79      H        0.55694    0.69896    0.87205    1.000
    H80      H        0.50123    0.64209    0.92834    1.000
    H81      H        0.87205    0.87205    0.69896    1.000
    H82      H        0.92834    0.92834    0.64209    1.000
    H83      H        0.69896    0.55694    0.87205    1.000
    H84      H        0.64209    0.50123    0.92834    1.000
    H85      H        0.55694    0.87205    0.69896    1.000
    H86      H        0.50123    0.92834    0.64209    1.000
    H87      H        0.87205    0.69896    0.87205    1.000
    H88      H        0.92834    0.64209    0.92834    1.000
    H89      H        0.69896    0.87205    0.55694    1.000
    H90      H        0.64209    0.92834    0.50123    1.000
    H91      H        0.87205    0.55694    0.87205    1.000
    H92      H        0.93087    0.50061    0.93087    1.000
    H93      H        0.85007    0.49666    0.15660    1.000
    H94      H        0.49666    0.85007    0.49666    1.000
    H95      H        0.85007    0.15660    0.49666    1.000
    H96      H        0.49666    0.49666    0.15660    1.000
    H97      H        0.15660    0.49666    0.49666    1.000
    H98      H        0.49666    0.85007    0.15660    1.000
    C99      C        0.16630    0.33370    0.16630    1.000
    C100     C        0.13360    0.36640    0.13360    1.000
    C101     C        0.06490    0.43510    0.06490    1.000
    C102     C        0.03280    0.46720    0.03280    1.000
    C103     C        0.33370    0.16630    0.33370    1.000
    C104     C        0.36640    0.13360    0.36640    1.000
    C105     C        0.43510    0.06490    0.43510    1.000
    C106     C        0.46720    0.03280    0.46720    1.000
    C107     C        0.16630    0.16630    0.33370    1.000
    C108     C        0.13360    0.13360    0.36640    1.000
    C109     C        0.06490    0.06490    0.43510    1.000
    C110     C        0.03280    0.03280    0.46720    1.000
    C111     C        0.33370    0.33370    0.16630    1.000
    C112     C        0.36640    0.36640    0.13360    1.000
    C113     C        0.43510    0.43510    0.06490    1.000
    C114     C        0.46720    0.46720    0.03280    1.000
    C115     C        0.16630    0.33370    0.33370    1.000
    C116     C        0.13360    0.36640    0.36640    1.000
    C117     C        0.06490    0.43510    0.43510    1.000
    C118     C        0.03280    0.46720    0.46720    1.000
    C119     C        0.33370    0.16630    0.16630    1.000
    C120     C        0.36640    0.13360    0.13360    1.000
    C121     C        0.43510    0.06490    0.06490    1.000
    C122     C        0.46720    0.03280    0.03280    1.000
    C123     C        0.66630    0.83370    0.83370    1.000
    C124     C        0.63360    0.86640    0.86640    1.000
    C125     C        0.56490    0.93510    0.93510    1.000
    C126     C        0.53280    0.96720    0.96720    1.000
    C127     C        0.83370    0.66630    0.66630    1.000
    C128     C        0.86640    0.63360    0.63360    1.000
    C129     C        0.93510    0.56490    0.56490    1.000
    C130     C        0.96720    0.53280    0.53280    1.000
    C131     C        0.83370    0.83370    0.66630    1.000
    C132     C        0.86640    0.86640    0.63360    1.000
    C133     C        0.93510    0.93510    0.56490    1.000
    C134     C        0.96720    0.96720    0.53280    1.000
    C135     C        0.66630    0.66630    0.83370    1.000
    C136     C        0.63360    0.63360    0.86640    1.000
    C137     C        0.56490    0.56490    0.93510    1.000
    C138     C        0.53280    0.53280    0.96720    1.000
    C139     C        0.66630    0.83370    0.66630    1.000
    C140     C        0.63360    0.86640    0.63360    1.000
    C141     C        0.56490    0.93510    0.56490    1.000
    C142     C        0.53280    0.96720    0.53280    1.000
    C143     C        0.83370    0.66630    0.83370    1.000
    C144     C        0.86640    0.63360    0.86640    1.000
    C145     C        0.93510    0.56490    0.93510    1.000
    C146     C        0.96720    0.53280    0.96720    1.000
    C147     C        0.11610    0.34650    0.11610    1.000
    C148     C        0.08290    0.38070    0.08290    1.000
    C149     C        0.34650    0.11610    0.42130    1.000
    C150     C        0.38070    0.08290    0.45350    1.000
    C151     C        0.11610    0.42130    0.11610    1.000
    C152     C        0.08290    0.45350    0.08290    1.000
    C153     C        0.42130    0.11610    0.34650    1.000
    C154     C        0.45350    0.08290    0.38070    1.000
    C155     C        0.11610    0.11610    0.42130    1.000
    C156     C        0.08290    0.08290    0.45350    1.000
    C157     C        0.34650    0.42130    0.11610    1.000
    C158     C        0.38070    0.45350    0.08290    1.000
    C159     C        0.11610    0.11610    0.34650    1.000
    C160     C        0.08290    0.08290    0.38070    1.000
    C161     C        0.42130    0.34650    0.11610    1.000
    C162     C        0.45350    0.38070    0.08290    1.000
    C163     C        0.11610    0.42130    0.34650    1.000
    C164     C        0.08290    0.45350    0.38070    1.000
    C165     C        0.34650    0.11610    0.11610    1.000
    C166     C        0.38070    0.08290    0.08290    1.000
    C167     C        0.11610    0.34650    0.42130    1.000
    C168     C        0.08290    0.38070    0.45350    1.000
    C169     C        0.42130    0.11610    0.11610    1.000
    C170     C        0.45350    0.08290    0.08290    1.000
    C171     C        0.65350    0.88390    0.88390    1.000
    C172     C        0.61930    0.91710    0.91710    1.000
    C173     C        0.88390    0.65350    0.57870    1.000
    C174     C        0.91710    0.61930    0.54650    1.000
    C175     C        0.57870    0.88390    0.88390    1.000
    C176     C        0.54650    0.91710    0.91710    1.000
    C177     C        0.88390    0.57870    0.65350    1.000
    C178     C        0.91710    0.54650    0.61930    1.000
    C179     C        0.88390    0.88390    0.57870    1.000
    C180     C        0.91710    0.91710    0.54650    1.000
    C181     C        0.57870    0.65350    0.88390    1.000
    C182     C        0.54650    0.61930    0.91710    1.000
    C183     C        0.88390    0.88390    0.65350    1.000
    C184     C        0.91710    0.91710    0.61930    1.000
    C185     C        0.65350    0.57870    0.88390    1.000
    C186     C        0.61930    0.54650    0.91710    1.000
    C187     C        0.57870    0.88390    0.65350    1.000
    C188     C        0.54650    0.91710    0.61930    1.000
    C189     C        0.88390    0.65350    0.88390    1.000
    C190     C        0.91710    0.61930    0.91710    1.000
    C191     C        0.65350    0.88390    0.57870    1.000
    C192     C        0.61930    0.91710    0.54650    1.000
    C193     C        0.88390    0.57870    0.88390    1.000
    C194     C        0.91710    0.54650    0.91710    1.000
    C195     C        0.05540    0.48340    0.97780    1.000
    C196     C        0.48340    0.05540    0.48340    1.000
    C197     C        0.97780    0.48340    0.05540    1.000
    C198     C        0.94280    0.44280    0.17160    1.000
    C199     C        0.48340    0.97780    0.48340    1.000
    C200     C        0.44280    0.94280    0.44280    1.000
    C201     C        0.05540    0.97780    0.48340    1.000
    C202     C        0.48340    0.48340    0.97780    1.000
    C203     C        0.97780    0.05540    0.48340    1.000
    C204     C        0.94280    0.17160    0.44280    1.000
    C205     C        0.48340    0.48340    0.05540    1.000
    C206     C        0.44280    0.44280    0.17160    1.000
    C207     C        0.05540    0.48340    0.48340    1.000
    C208     C        0.17160    0.44280    0.44280    1.000
    C209     C        0.48340    0.97780    0.05540    1.000
    C210     C        0.44280    0.94280    0.17160    1.000
    C211     C        0.97780    0.48340    0.48340    1.000
    C212     C        0.48340    0.05540    0.97780    1.000
    C213     C        0.51660    0.94460    0.02220    1.000
    C214     C        0.55720    0.82840    0.05720    1.000
    C215     C        0.94460    0.51660    0.51660    1.000
    C216     C        0.51660    0.02220    0.94460    1.000
    C217     C        0.02220    0.51660    0.51660    1.000
    C218     C        0.05720    0.55720    0.55720    1.000
    C219     C        0.02220    0.94460    0.51660    1.000
    C220     C        0.51660    0.51660    0.02220    1.000
    C221     C        0.55720    0.55720    0.05720    1.000
    C222     C        0.94460    0.02220    0.51660    1.000
    C223     C        0.82840    0.05720    0.55720    1.000
    C224     C        0.51660    0.51660    0.94460    1.000
    C225     C        0.51660    0.94460    0.51660    1.000
    C226     C        0.55720    0.82840    0.55720    1.000
    C227     C        0.02220    0.51660    0.94460    1.000
    C228     C        0.51660    0.02220    0.51660    1.000
    C229     C        0.94460    0.51660    0.02220    1.000
    C230     C        0.82840    0.55720    0.05720    1.000
    C231     C        0.88400    0.50000    0.11600    1.000
    C232     C        0.50000    0.88400    0.50000    1.000
    C233     C        0.88400    0.11600    0.50000    1.000
    C234     C        0.50000    0.50000    0.11600    1.000
    C235     C        0.11600    0.50000    0.50000    1.000
    C236     C        0.50000    0.88400    0.11600    1.000
    N237     N        0.94000    0.47300    0.11400    1.000
    N238     N        0.47300    0.94000    0.47300    1.000
    N239     N        0.94000    0.11400    0.47300    1.000
    N240     N        0.47300    0.47300    0.11400    1.000
    N241     N        0.11400    0.47300    0.47300    1.000
    N242     N        0.47300    0.94000    0.11400    1.000
    N243     N        0.52700    0.88600    0.06000    1.000
    N244     N        0.06000    0.52700    0.52700    1.000
    N245     N        0.52700    0.52700    0.06000    1.000
    N246     N        0.88600    0.06000    0.52700    1.000
    N247     N        0.52700    0.88600    0.52700    1.000
    N248     N        0.88600    0.52700    0.06000    1.000
    O249     O        0.18080    0.35740    0.18080    1.000
    O250     O        0.35740    0.18080    0.28100    1.000
    O251     O        0.18080    0.28100    0.18080    1.000
    O252     O        0.28100    0.18080    0.35740    1.000
    O253     O        0.18080    0.18080    0.28100    1.000
    O254     O        0.35740    0.28100    0.18080    1.000
    O255     O        0.18080    0.18080    0.35740    1.000
    O256     O        0.28100    0.35740    0.18080    1.000
    O257     O        0.18080    0.28100    0.35740    1.000
    O258     O        0.35740    0.18080    0.18080    1.000
    O259     O        0.18080    0.35740    0.28100    1.000
    O260     O        0.28100    0.18080    0.18080    1.000
    O261     O        0.64260    0.81920    0.81920    1.000
    O262     O        0.81920    0.64260    0.71900    1.000
    O263     O        0.71900    0.81920    0.81920    1.000
    O264     O        0.81920    0.71900    0.64260    1.000
    O265     O        0.81920    0.81920    0.71900    1.000
    O266     O        0.71900    0.64260    0.81920    1.000
    O267     O        0.81920    0.81920    0.64260    1.000
    O268     O        0.64260    0.71900    0.81920    1.000
    O269     O        0.71900    0.81920    0.64260    1.000
    O270     O        0.81920    0.64260    0.81920    1.000
    O271     O        0.64260    0.81920    0.71900    1.000
    O272     O        0.81920    0.71900    0.81920    1.000
    O273     O        0.25000    0.25000    0.25000    1.000
    O274     O        0.75000    0.75000    0.75000    1.000
    H275     H        0.10116    0.47035    0.95814    1.000
    H276     H        0.47035    0.10116    0.47035    1.000
    H277     H        0.10116    0.95814    0.47035    1.000
    H278     H        0.47035    0.47035    0.95814    1.000
    H279     H        0.95814    0.47035    0.47035    1.000
    H280     H        0.47035    0.10116    0.95814    1.000
    H281     H        0.89879    0.52988    0.52988    1.000
    H282     H        0.52965    0.04186    0.89884    1.000
    H283     H        0.04145    0.89879    0.52988    1.000
    H284     H        0.52988    0.52988    0.89879    1.000
    H285     H        0.04145    0.52988    0.89879    1.000
    H286     H        0.52965    0.04186    0.52965    1.000
