data_functionalizedCrystal
_audit_creation_method	'EQeq! by Chris Wilmer'
_symmetry_space_group_name_H-M	'P1'
_symmetry_Int_Tables_number	1
_symmetry_cell_setting	triclinic
loop_
_symmetry_equiv_pos_as_xyz
  x,y,z
_cell_length_a	11.9245
_cell_length_b	11.9245
_cell_length_c	16.302
_cell_angle_alpha	90
_cell_angle_beta	90
_cell_angle_gamma	120
loop_
_atom_site_label
_atom_site_type_symbol
_atom_site_fract_x
_atom_site_fract_y
_atom_site_fract_z
_atom_site_charge
Mof_Ni	Ni	0.45662	0.50488	0.85893	1.007
Mof_Ni	Ni	0.04826	0.54338	0.5256	0.983
Mof_Ni	Ni	0.49512	0.95174	0.19226	1.017
Mof_Ni	Ni	0.95174	0.49512	0.14107	1.016
Mof_Ni	Ni	0.50488	0.45662	0.4744	1.001
Mof_Ni	Ni	0.54338	0.04826	0.80774	0.989
Mof_Ni	Ni	0.37325	0	-0	1.062
Mof_Ni	Ni	0.62675	0.62675	0.66667	1.104
Mof_Ni	Ni	-2.74909e-17	0.37325	0.33333	1.081
Mof_C 	C 	0.4861	0.2864	0.825	-0.011
Mof_C 	C 	0.3935	0.2323	0.939	0.076
Mof_C 	C 	0.5384	0.3649	0.7481	0.287
Mof_C 	C 	0.3199	0.2107	0.0172	0.203
Mof_C 	C 	0.8003	0.5139	0.49167	-0.004
Mof_C 	C 	0.8388	0.6065	0.60567	0.022
Mof_C 	C 	0.8265	0.4616	0.41477	0.284
Mof_C 	C 	0.8908	0.6801	0.68387	0.324
Mof_C 	C 	0.7136	0.1997	0.15833	-0.019
Mof_C 	C 	0.7677	0.1612	0.27233	0.038
Mof_C 	C 	0.6351	0.1735	0.08143	0.289
Mof_C 	C 	0.7893	0.1092	0.35053	0.199
Mof_C 	C 	0.1997	0.7136	0.175	-0.018
Mof_C 	C 	0.1612	0.7677	0.061	-0.016
Mof_C 	C 	0.1735	0.6351	0.2519	0.286
Mof_C 	C 	0.1092	0.7893	0.9828	0.245
Mof_C 	C 	0.2864	0.4861	0.50833	-0.015
Mof_C 	C 	0.2323	0.3935	0.39433	0.019
Mof_C 	C 	0.3649	0.5384	0.58523	0.285
Mof_C 	C 	0.2107	0.3199	0.31613	0.258
Mof_C 	C 	0.5139	0.8003	0.84167	0.003
Mof_C 	C 	0.6065	0.8388	0.72767	0.024
Mof_C 	C 	0.4616	0.8265	0.91857	0.282
Mof_C 	C 	0.6801	0.8908	0.64947	0.316
Mof_N 	N 	0.4255	0.145	0.92014	-0.202
Mof_N 	N 	0.4277	0.3229	0.8817	-0.239
Mof_N 	N 	0.4873	0.1782	0.8463	-0.208
Mof_N 	N 	0.7195	0.5745	0.58681	-0.198
Mof_N 	N 	0.8952	0.5723	0.54837	-0.219
Mof_N 	N 	0.6909	0.5127	0.51297	-0.207
Mof_N 	N 	0.855	0.2805	0.25347	-0.192
Mof_N 	N 	0.6771	0.1048	0.21503	-0.25
Mof_N 	N 	0.8218	0.3091	0.17963	-0.202
Mof_N 	N 	0.2805	0.855	0.07986	-0.194
Mof_N 	N 	0.1048	0.6771	0.1183	-0.249
Mof_N 	N 	0.3091	0.8218	0.1537	-0.204
Mof_N 	N 	0.145	0.4255	0.41319	-0.209
Mof_N 	N 	0.3229	0.4277	0.45163	-0.237
Mof_N 	N 	0.1782	0.4873	0.48703	-0.212
Mof_N 	N 	0.5745	0.7195	0.74653	-0.198
Mof_N 	N 	0.5723	0.8952	0.78497	-0.22
Mof_N 	N 	0.5127	0.6909	0.82037	-0.204
Mof_O 	O 	0.5432	0.4751	0.75137	-0.521
Mof_O 	O 	0.3016	0.111	0.05657	-0.375
Mof_O 	O 	0.5697	0.3229	0.689	-0.331
Mof_O 	O 	0.2808	0.2853	0.0388	-0.286
Mof_O 	O 	0.9319	0.4568	0.41804	-0.493
Mof_O 	O 	0.8094	0.6984	0.72324	-0.353
Mof_O 	O 	0.7532	0.4303	0.35567	-0.323
Mof_O 	O 	0.0045	0.7192	0.70547	-0.316
Mof_O 	O 	0.5249	0.0681	0.0847	-0.553
Mof_O 	O 	0.889	0.1906	0.3899	-0.326
Mof_O 	O 	0.6771	0.2468	0.02233	-0.35
Mof_O 	O 	0.7147	0.9955	0.37213	-0.21
Mof_O 	O 	0.0681	0.5249	0.24863	-0.546
Mof_O 	O 	0.1906	0.889	0.94343	-0.319
Mof_O 	O 	0.2468	0.6771	0.311	-0.328
Mof_O 	O 	0.9955	0.7147	0.9612	-0.193
Mof_O 	O 	0.4751	0.5432	0.58196	-0.523
Mof_O 	O 	0.111	0.3016	0.27676	-0.379
Mof_O 	O 	0.3229	0.5697	0.64433	-0.332
Mof_O 	O 	0.2853	0.2808	0.29453	-0.282
Mof_O 	O 	0.4568	0.9319	0.9153	-0.476
Mof_O 	O 	0.6984	0.8094	0.6101	-0.355
Mof_O 	O 	0.4303	0.7532	0.97767	-0.294
Mof_O 	O 	0.7192	0.0045	0.62787	-0.309
_end
