data_functionalizedCrystal
_audit_creation_method	'EQeq! by Chris Wilmer'
_symmetry_space_group_name_H-M	'P1'
_symmetry_Int_Tables_number	1
_symmetry_cell_setting	triclinic
loop_
_symmetry_equiv_pos_as_xyz
  x,y,z
_cell_length_a	9.42
_cell_length_b	9.42
_cell_length_c	10.242
_cell_angle_alpha	90
_cell_angle_beta	90
_cell_angle_gamma	120
loop_
_atom_site_label
_atom_site_type_symbol
_atom_site_fract_x
_atom_site_fract_y
_atom_site_fract_z
_atom_site_charge
Mof_Co	Co	0.6642	0.6652	0.5038	1.124
Mof_O 	O 	0.7663	0.8827	0.3803	-0.748
Mof_H 	H 	0.7058	0.8506	0.2976	0.129
Mof_O 	O 	0.7779	0.5592	0.4002	-0.723
Mof_H 	H 	0.7758	0.5591	0.3045	0.13
Mof_O 	O 	0.889	0.445	0.6059	-0.705
Mof_H 	H 	0.8901	0.4477	0.7016	0.144
Mof_H 	H 	0.9359	0.89	0.132	0.993
Mof_C 	C 	0.15	0.099	0.0679	-0.778
Mof_H 	H 	0.22	0.1991	0.1152	-0.135
Mof_H 	H 	0.2084	0.0386	0.06	0.539
Mof_C 	C 	0.881	0.858	0.0679	-0.798
Mof_H 	H 	0.219	0.1397	0.06	0.56
Mof_H 	H 	0.1964	0.9745	0.1152	-0.112
Mof_Co	Co	0.3348	0.999	0.5038	1.13
Mof_O 	O 	0.1173	0.8836	0.3803	-0.754
Mof_H 	H 	0.1494	0.8552	0.2976	0.128
Mof_O 	O 	0.4408	0.2187	0.4002	-0.726
Mof_H 	H 	0.4409	0.2167	0.3045	0.127
Mof_O 	O 	0.555	0.444	0.6059	-0.709
Mof_H 	H 	0.5523	0.4424	0.7016	0.142
Mof_H 	H 	0.11	0.0459	0.132	0.96
Mof_C 	C 	0.901	0.051	0.0679	-0.761
Mof_H 	H 	0.8009	0.0209	0.1152	-0.134
Mof_H 	H 	0.9614	0.1698	0.06	0.551
Mof_C 	C 	0.142	0.023	0.0679	-0.79
Mof_H 	H 	0.8603	0.0793	0.06	0.538
Mof_H 	H 	0.0255	0.2219	0.1152	-0.138
Mof_Co	Co	0.001	0.3358	0.5038	1.119
Mof_O 	O 	0.1164	0.2337	0.3803	-0.76
Mof_H 	H 	0.1448	0.2942	0.2976	0.129
Mof_O 	O 	0.7813	0.2221	0.4002	-0.722
Mof_H 	H 	0.7833	0.2242	0.3045	0.129
Mof_O 	O 	0.556	0.111	0.6059	-0.713
Mof_H 	H 	0.5576	0.1099	0.7016	0.141
Mof_H 	H 	0.9541	0.0641	0.132	0.953
Mof_C 	C 	0.949	0.85	0.0679	-0.813
Mof_H 	H 	0.9791	0.78	0.1152	-0.13
Mof_H 	H 	0.8302	0.7916	0.06	0.565
Mof_C 	C 	0.977	0.119	0.0679	-0.764
Mof_H 	H 	0.9207	0.781	0.06	0.577
Mof_H 	H 	0.7781	0.8036	0.1152	-0.131
Mof_Co	Co	0.3358	0.3348	0.4962	1.124
Mof_O 	O 	0.2337	0.1173	0.6197	-0.762
Mof_H 	H 	0.2942	0.1494	0.7024	0.128
Mof_O 	O 	0.2221	0.4408	0.5998	-0.725
Mof_H 	H 	0.2242	0.4409	0.6955	0.128
Mof_O 	O 	0.111	0.555	0.3941	-0.713
Mof_H 	H 	0.1099	0.5523	0.2984	0.141
Mof_H 	H 	0.0641	0.11	0.868	0.946
Mof_C 	C 	0.85	0.901	0.9321	-0.793
Mof_H 	H 	0.78	0.8009	0.8848	-0.131
Mof_H 	H 	0.7916	0.9614	0.94	0.561
Mof_C 	C 	0.119	0.142	0.9321	-0.772
Mof_H 	H 	0.781	0.8603	0.94	0.561
Mof_H 	H 	0.8036	0.0255	0.8848	-0.135
Mof_Co	Co	0.6652	0.001	0.4962	1.12
Mof_O 	O 	0.8827	0.1164	0.6197	-0.751
Mof_H 	H 	0.8506	0.1448	0.7024	0.13
Mof_O 	O 	0.5592	0.7813	0.5998	-0.72
Mof_H 	H 	0.5591	0.7833	0.6955	0.13
Mof_O 	O 	0.445	0.556	0.3941	-0.709
Mof_H 	H 	0.4477	0.5576	0.2984	0.142
Mof_H 	H 	0.89	0.9541	0.868	0.98
Mof_C 	C 	0.099	0.949	0.9321	-0.804
Mof_H 	H 	0.1991	0.9791	0.8848	-0.132
Mof_H 	H 	0.0386	0.8302	0.94	0.548
Mof_C 	C 	0.858	0.977	0.9321	-0.78
Mof_H 	H 	0.1397	0.9207	0.94	0.576
Mof_H 	H 	0.9745	0.7781	0.8848	-0.115
Mof_Co	Co	0.999	0.6642	0.4962	1.13
Mof_O 	O 	0.8836	0.7663	0.6197	-0.749
Mof_H 	H 	0.8552	0.7058	0.7024	0.129
Mof_O 	O 	0.2187	0.7779	0.5998	-0.725
Mof_H 	H 	0.2167	0.7758	0.6955	0.128
Mof_O 	O 	0.444	0.889	0.3941	-0.705
Mof_H 	H 	0.4424	0.8901	0.2984	0.144
Mof_H 	H 	0.0459	0.9359	0.868	0.98
Mof_C 	C 	0.051	0.15	0.9321	-0.755
Mof_H 	H 	0.0209	0.22	0.8848	-0.136
Mof_H 	H 	0.1698	0.2084	0.94	0.546
Mof_C 	C 	0.023	0.881	0.9321	-0.8
Mof_H 	H 	0.0793	0.219	0.94	0.538
Mof_H 	H 	0.2219	0.1964	0.8848	-0.13
Mof_Co	Co	0.66667	0.33333	0.5026	1.127
Mof_Co	Co	0.33333	0.66667	0.4974	1.127
Mof_Co	Co	-0	8.01813e-33	0.3375	1.068
Mof_N 	N 	2.00453e-33	0	0.144	-0.961
Mof_Co	Co	-0	0	0.6625	1.068
Mof_N 	N 	8.01813e-33	0	0.856	-0.961
_end
