data_functionalizedCrystal
_audit_creation_method	'EQeq! by Chris Wilmer'
_symmetry_space_group_name_H-M	'P1'
_symmetry_Int_Tables_number	1
_symmetry_cell_setting	triclinic
loop_
_symmetry_equiv_pos_as_xyz
  x,y,z
_cell_length_a	16.901
_cell_length_b	16.901
_cell_length_c	14.082
_cell_angle_alpha	90
_cell_angle_beta	90
_cell_angle_gamma	120
loop_
_atom_site_label
_atom_site_type_symbol
_atom_site_fract_x
_atom_site_fract_y
_atom_site_fract_z
_atom_site_charge
Mof_O 	O 	0.779	0.3545	0.1816	-0.417
Mof_N 	N 	0.1114	0.6047	0.4116	-0.157
Mof_N 	N 	0.2275	0.6669	0.516	-0.229
Mof_C 	C 	0.9672	0.508	0.3296	-0.15
Mof_H 	H 	0.9355	0.508	0.3835	0.097
Mof_C 	C 	0.0615	0.5559	0.3293	0.167
Mof_C 	C 	0.1907	0.6122	0.4429	0.095
Mof_H 	H 	0.217	0.581	0.4147	-0.011
Mof_C 	C 	0.1678	0.6994	0.5345	0.071
Mof_C 	C 	0.1721	0.759	0.6058	-0.119
Mof_H 	H 	0.2201	0.7841	0.6491	0.083
Mof_C 	C 	0.1036	0.7792	0.6096	-0.002
Mof_H 	H 	0.1048	0.8186	0.6565	0.028
Mof_C 	C 	0.0307	0.7413	0.5437	-0.039
Mof_H 	H 	0.9846	0.756	0.5484	0.043
Mof_C 	C 	0.0264	0.6827	0.4719	-0.082
Mof_H 	H 	0.9795	0.659	0.4272	0.062
Mof_C 	C 	0.0948	0.662	0.4707	0.054
Mof_O 	O 	0.6455	0.4245	0.1816	-0.418
Mof_N 	N 	0.3953	0.5067	0.4116	-0.158
Mof_N 	N 	0.3331	0.5606	0.516	-0.229
Mof_C 	C 	0.492	0.4592	0.3296	-0.15
Mof_H 	H 	0.492	0.4275	0.3835	0.097
Mof_C 	C 	0.4441	0.5056	0.3293	0.167
Mof_C 	C 	0.3878	0.5785	0.4429	0.095
Mof_H 	H 	0.419	0.636	0.4147	-0.011
Mof_C 	C 	0.3006	0.4684	0.5345	0.071
Mof_C 	C 	0.241	0.4131	0.6058	-0.119
Mof_H 	H 	0.2159	0.436	0.6491	0.083
Mof_C 	C 	0.2208	0.3244	0.6096	-0.002
Mof_H 	H 	0.1814	0.2862	0.6565	0.028
Mof_C 	C 	0.2587	0.2894	0.5437	-0.039
Mof_H 	H 	0.244	0.2286	0.5484	0.044
Mof_C 	C 	0.3173	0.3437	0.4719	-0.082
Mof_H 	H 	0.341	0.3205	0.4272	0.062
Mof_C 	C 	0.338	0.4328	0.4707	0.054
Mof_O 	O 	0.5755	0.221	0.1816	-0.418
Mof_N 	N 	0.4933	0.8886	0.4116	-0.158
Mof_N 	N 	0.4394	0.7725	0.516	-0.229
Mof_C 	C 	0.5408	0.0328	0.3296	-0.15
Mof_H 	H 	0.5725	0.0645	0.3835	0.097
Mof_C 	C 	0.4944	0.9385	0.3293	0.167
Mof_C 	C 	0.4215	0.8093	0.4429	0.095
Mof_H 	H 	0.364	0.783	0.4147	-0.011
Mof_C 	C 	0.5316	0.8322	0.5345	0.071
Mof_C 	C 	0.5869	0.8279	0.6058	-0.119
Mof_H 	H 	0.564	0.7799	0.6491	0.083
Mof_C 	C 	0.6756	0.8964	0.6096	-0.002
Mof_H 	H 	0.7138	0.8952	0.6565	0.028
Mof_C 	C 	0.7106	0.9693	0.5437	-0.039
Mof_H 	H 	0.7714	0.0154	0.5484	0.043
Mof_C 	C 	0.6563	0.9736	0.4719	-0.082
Mof_H 	H 	0.6795	0.0205	0.4272	0.063
Mof_C 	C 	0.5672	0.9052	0.4707	0.054
Mof_O 	O 	0.6455	0.221	0.3184	-0.418
Mof_N 	N 	0.3953	0.8886	0.0884	-0.158
Mof_N 	N 	0.3331	0.7725	0.984	-0.229
Mof_C 	C 	0.492	0.0328	0.1704	-0.15
Mof_H 	H 	0.492	0.0645	0.1165	0.097
Mof_C 	C 	0.4441	0.9385	0.1707	0.167
Mof_C 	C 	0.3878	0.8093	0.0571	0.094
Mof_H 	H 	0.419	0.783	0.0853	-0.011
Mof_C 	C 	0.3006	0.8322	0.9655	0.07
Mof_C 	C 	0.241	0.8279	0.8942	-0.117
Mof_H 	H 	0.2159	0.7799	0.8509	0.082
Mof_C 	C 	0.2208	0.8964	0.8904	-0.004
Mof_H 	H 	0.1814	0.8952	0.8435	0.029
Mof_C 	C 	0.2587	0.9693	0.9563	-0.035
Mof_H 	H 	0.244	0.0154	0.9516	0.042
Mof_C 	C 	0.3173	0.9736	0.0281	-0.086
Mof_H 	H 	0.341	0.0205	0.0728	0.064
Mof_C 	C 	0.338	0.9052	0.0293	0.055
Mof_O 	O 	0.5755	0.3545	0.3184	-0.418
Mof_N 	N 	0.4933	0.6047	0.0884	-0.158
Mof_N 	N 	0.4394	0.6669	0.984	-0.229
Mof_C 	C 	0.5408	0.508	0.1704	-0.15
Mof_H 	H 	0.5725	0.508	0.1165	0.097
Mof_C 	C 	0.4944	0.5559	0.1707	0.167
Mof_C 	C 	0.4215	0.6122	0.0571	0.094
Mof_H 	H 	0.364	0.581	0.0853	-0.011
Mof_C 	C 	0.5316	0.6994	0.9655	0.071
Mof_C 	C 	0.5869	0.759	0.8942	-0.119
Mof_H 	H 	0.564	0.7841	0.8509	0.083
Mof_C 	C 	0.6756	0.7792	0.8904	-0.002
Mof_H 	H 	0.7138	0.8186	0.8435	0.028
Mof_C 	C 	0.7106	0.7413	0.9563	-0.039
Mof_H 	H 	0.7714	0.756	0.9516	0.044
Mof_C 	C 	0.6563	0.6827	0.0281	-0.082
Mof_H 	H 	0.6795	0.659	0.0728	0.062
Mof_C 	C 	0.5672	0.662	0.0293	0.054
Mof_O 	O 	0.779	0.4245	0.3184	-0.418
Mof_N 	N 	0.1114	0.5067	0.0884	-0.158
Mof_N 	N 	0.2275	0.5606	0.984	-0.229
Mof_C 	C 	0.9672	0.4592	0.1704	-0.15
Mof_H 	H 	0.9355	0.4275	0.1165	0.097
Mof_C 	C 	0.0615	0.5056	0.1707	0.167
Mof_C 	C 	0.1907	0.5785	0.0571	0.094
Mof_H 	H 	0.217	0.636	0.0853	-0.011
Mof_C 	C 	0.1678	0.4684	0.9655	0.07
Mof_C 	C 	0.1721	0.4131	0.8942	-0.118
Mof_H 	H 	0.2201	0.436	0.8509	0.082
Mof_C 	C 	0.1036	0.3244	0.8904	-0.004
Mof_H 	H 	0.1048	0.2862	0.8435	0.029
Mof_C 	C 	0.0307	0.2894	0.9563	-0.036
Mof_H 	H 	0.9846	0.2286	0.9516	0.042
Mof_C 	C 	0.0264	0.3437	0.0281	-0.085
Mof_H 	H 	0.9795	0.3205	0.0728	0.064
Mof_C 	C 	0.0948	0.4328	0.0293	0.055
Mof_O 	O 	0.221	0.6455	0.8184	-0.418
Mof_N 	N 	0.8886	0.3953	0.5884	-0.158
Mof_N 	N 	0.7725	0.3331	0.484	-0.229
Mof_C 	C 	0.0328	0.492	0.6704	-0.15
Mof_H 	H 	0.0645	0.492	0.6165	0.097
Mof_C 	C 	0.9385	0.4441	0.6707	0.167
Mof_C 	C 	0.8093	0.3878	0.5571	0.095
Mof_H 	H 	0.783	0.419	0.5853	-0.011
Mof_C 	C 	0.8322	0.3006	0.4655	0.071
Mof_C 	C 	0.8279	0.241	0.3942	-0.119
Mof_H 	H 	0.7799	0.2159	0.3509	0.083
Mof_C 	C 	0.8964	0.2208	0.3904	-0.002
Mof_H 	H 	0.8952	0.1814	0.3435	0.028
Mof_C 	C 	0.9693	0.2587	0.4563	-0.039
Mof_H 	H 	0.0154	0.244	0.4516	0.043
Mof_C 	C 	0.9736	0.3173	0.5281	-0.082
Mof_H 	H 	0.0205	0.341	0.5728	0.062
Mof_C 	C 	0.9052	0.338	0.5293	0.054
Mof_O 	O 	0.3545	0.5755	0.8184	-0.418
Mof_N 	N 	0.6047	0.4933	0.5884	-0.158
Mof_N 	N 	0.6669	0.4394	0.484	-0.229
Mof_C 	C 	0.508	0.5408	0.6704	-0.15
Mof_H 	H 	0.508	0.5725	0.6165	0.097
Mof_C 	C 	0.5559	0.4944	0.6707	0.167
Mof_C 	C 	0.6122	0.4215	0.5571	0.095
Mof_H 	H 	0.581	0.364	0.5853	-0.011
Mof_C 	C 	0.6994	0.5316	0.4655	0.071
Mof_C 	C 	0.759	0.5869	0.3942	-0.119
Mof_H 	H 	0.7841	0.564	0.3509	0.083
Mof_C 	C 	0.7792	0.6756	0.3904	-0.002
Mof_H 	H 	0.8186	0.7138	0.3435	0.028
Mof_C 	C 	0.7413	0.7106	0.4563	-0.039
Mof_H 	H 	0.756	0.7714	0.4516	0.044
Mof_C 	C 	0.6827	0.6563	0.5281	-0.082
Mof_H 	H 	0.659	0.6795	0.5728	0.062
Mof_C 	C 	0.662	0.5672	0.5293	0.054
Mof_O 	O 	0.4245	0.779	0.8184	-0.418
Mof_N 	N 	0.5067	0.1114	0.5884	-0.158
Mof_N 	N 	0.5606	0.2275	0.484	-0.229
Mof_C 	C 	0.4592	0.9672	0.6704	-0.15
Mof_H 	H 	0.4275	0.9355	0.6165	0.097
Mof_C 	C 	0.5056	0.0615	0.6707	0.167
Mof_C 	C 	0.5785	0.1907	0.5571	0.095
Mof_H 	H 	0.636	0.217	0.5853	-0.011
Mof_C 	C 	0.4684	0.1678	0.4655	0.071
Mof_C 	C 	0.4131	0.1721	0.3942	-0.119
Mof_H 	H 	0.436	0.2201	0.3509	0.083
Mof_C 	C 	0.3244	0.1036	0.3904	-0.002
Mof_H 	H 	0.2862	0.1048	0.3435	0.028
Mof_C 	C 	0.2894	0.0307	0.4563	-0.039
Mof_H 	H 	0.2286	0.9846	0.4516	0.043
Mof_C 	C 	0.3437	0.0264	0.5281	-0.082
Mof_H 	H 	0.3205	0.9795	0.5728	0.063
Mof_C 	C 	0.4328	0.0948	0.5293	0.054
Mof_O 	O 	0.3545	0.779	0.6816	-0.418
Mof_N 	N 	0.6047	0.1114	0.9116	-0.158
Mof_N 	N 	0.6669	0.2275	0.016	-0.229
Mof_C 	C 	0.508	0.9672	0.8296	-0.15
Mof_H 	H 	0.508	0.9355	0.8835	0.097
Mof_C 	C 	0.5559	0.0615	0.8293	0.167
Mof_C 	C 	0.6122	0.1907	0.9429	0.094
Mof_H 	H 	0.581	0.217	0.9147	-0.011
Mof_C 	C 	0.6994	0.1678	0.0345	0.07
Mof_C 	C 	0.759	0.1721	0.1058	-0.117
Mof_H 	H 	0.7841	0.2201	0.1491	0.082
Mof_C 	C 	0.7792	0.1036	0.1096	-0.004
Mof_H 	H 	0.8186	0.1048	0.1565	0.029
Mof_C 	C 	0.7413	0.0307	0.0437	-0.035
Mof_H 	H 	0.756	0.9846	0.0484	0.042
Mof_C 	C 	0.6827	0.0264	0.9719	-0.086
Mof_H 	H 	0.659	0.9795	0.9272	0.064
Mof_C 	C 	0.662	0.0948	0.9707	0.055
Mof_O 	O 	0.4245	0.6455	0.6816	-0.418
Mof_N 	N 	0.5067	0.3953	0.9116	-0.158
Mof_N 	N 	0.5606	0.3331	0.016	-0.229
Mof_C 	C 	0.4592	0.492	0.8296	-0.15
Mof_H 	H 	0.4275	0.492	0.8835	0.097
Mof_C 	C 	0.5056	0.4441	0.8293	0.167
Mof_C 	C 	0.5785	0.3878	0.9429	0.094
Mof_H 	H 	0.636	0.419	0.9147	-0.011
Mof_C 	C 	0.4684	0.3006	0.0345	0.071
Mof_C 	C 	0.4131	0.241	0.1058	-0.119
Mof_H 	H 	0.436	0.2159	0.1491	0.083
Mof_C 	C 	0.3244	0.2208	0.1096	-0.002
Mof_H 	H 	0.2862	0.1814	0.1565	0.028
Mof_C 	C 	0.2894	0.2587	0.0437	-0.039
Mof_H 	H 	0.2286	0.244	0.0484	0.044
Mof_C 	C 	0.3437	0.3173	0.9719	-0.082
Mof_H 	H 	0.3205	0.341	0.9272	0.062
Mof_C 	C 	0.4328	0.338	0.9707	0.054
Mof_O 	O 	0.221	0.5755	0.6816	-0.418
Mof_N 	N 	0.8886	0.4933	0.9116	-0.158
Mof_N 	N 	0.7725	0.4394	0.016	-0.229
Mof_C 	C 	0.0328	0.5408	0.8296	-0.15
Mof_H 	H 	0.0645	0.5725	0.8835	0.097
Mof_C 	C 	0.9385	0.4944	0.8293	0.167
Mof_C 	C 	0.8093	0.4215	0.9429	0.094
Mof_H 	H 	0.783	0.364	0.9147	-0.011
Mof_C 	C 	0.8322	0.5316	0.0345	0.07
Mof_C 	C 	0.8279	0.5869	0.1058	-0.118
Mof_H 	H 	0.7799	0.564	0.1491	0.082
Mof_C 	C 	0.8964	0.6756	0.1096	-0.004
Mof_H 	H 	0.8952	0.7138	0.1565	0.029
Mof_C 	C 	0.9693	0.7106	0.0437	-0.036
Mof_H 	H 	0.0154	0.7714	0.0484	0.042
Mof_C 	C 	0.9736	0.6563	0.9719	-0.085
Mof_H 	H 	0.0205	0.6795	0.9272	0.064
Mof_C 	C 	0.9052	0.5672	0.9707	0.055
Mof_Co	Co	0.66667	0.33333	0.10379	1.167
Mof_Co	Co	0.66667	0.33333	0.39621	1.167
Mof_Co	Co	0.33333	0.66667	0.89621	1.167
Mof_Co	Co	0.33333	0.66667	0.60379	1.167
Mof_C 	C 	0.8169	0.40845	0.25	0.329
Mof_C 	C 	0.92	0.46	0.25	0.017
Mof_C 	C 	0.1087	0.55435	0.25	-0.221
Mof_H 	H 	0.1723	0.58615	0.25	0.112
Mof_C 	C 	0.59155	0.40845	0.25	0.329
Mof_C 	C 	0.54	0.46	0.25	0.018
Mof_C 	C 	0.44565	0.55435	0.25	-0.221
Mof_H 	H 	0.41385	0.58615	0.25	0.112
Mof_C 	C 	0.59155	0.1831	0.25	0.329
Mof_C 	C 	0.54	0.08	0.25	0.017
Mof_C 	C 	0.44565	0.8913	0.25	-0.221
Mof_H 	H 	0.41385	0.8277	0.25	0.112
Mof_C 	C 	0.1831	0.59155	0.75	0.329
Mof_C 	C 	0.08	0.54	0.75	0.017
Mof_C 	C 	0.8913	0.44565	0.75	-0.221
Mof_H 	H 	0.8277	0.41385	0.75	0.112
Mof_C 	C 	0.40845	0.59155	0.75	0.329
Mof_C 	C 	0.46	0.54	0.75	0.018
Mof_C 	C 	0.55435	0.44565	0.75	-0.221
Mof_H 	H 	0.58615	0.41385	0.75	0.112
Mof_C 	C 	0.40845	0.8169	0.75	0.329
Mof_C 	C 	0.46	0.92	0.75	0.017
Mof_C 	C 	0.55435	0.1087	0.75	-0.221
Mof_H 	H 	0.58615	0.1723	0.75	0.112
_end
