data_functionalizedCrystal
_audit_creation_method	'EQeq! by Chris Wilmer'
_symmetry_space_group_name_H-M	'P1'
_symmetry_Int_Tables_number	1
_symmetry_cell_setting	triclinic
loop_
_symmetry_equiv_pos_as_xyz
  x,y,z
_cell_length_a	16.792
_cell_length_b	41.0465
_cell_length_c	41.0465
_cell_angle_alpha	120
_cell_angle_beta	90
_cell_angle_gamma	90
loop_
_atom_site_label
_atom_site_type_symbol
_atom_site_fract_x
_atom_site_fract_y
_atom_site_fract_z
_atom_site_charge
Mof_Zr	Zr	0.04221	0.54828	0.46083	3.219
Mof_Zr	Zr	0.95091	0.01451	0.53588	3.213
Mof_Zr	Zr	0.04182	0.08216	0.52614	3.235
Mof_Zr	Zr	0.15676	0.01327	0.52896	3.225
Mof_Zr	Zr	0.13798	0.01507	0.44617	3.236
Mof_Zr	Zr	0.95595	0.46883	0.44798	3.219
Mof_Zr	Zr	0.93362	0.55209	0.53132	3.219
Mof_Zr	Zr	0.16232	0.47857	0.45705	3.223
Mof_Zr	Zr	0.93424	0.01447	0.45169	3.224
Mof_Zr	Zr	0.04348	0.94893	0.45843	3.215
Mof_Zr	Zr	0.93656	0.55483	0.9925	3.213
Mof_Zr	Zr	0.14105	0.5551	0.99223	3.219
Mof_Zr	Zr	0.93449	0.47095	0.99222	3.22
Mof_Zr	Zr	0.04005	0.47987	0.92754	3.216
Mof_Zr	Zr	0.04607	0.48175	0.52622	3.218
Mof_Zr	Zr	0.13866	0.47077	0.9946	3.228
Mof_Zr	Zr	0.13498	0.56162	0.54009	3.22
Mof_Zr	Zr	0.03721	0.5466	0.05856	3.234
Mof_H 	H 	0.77077	0.46659	0.08017	0.112
Mof_H 	H 	0.24567	0.34249	0.5368	0.054
Mof_H 	H 	0.31143	0.10097	0.44206	0.115
Mof_H 	H 	0.93192	0.18541	0.52998	0.052
Mof_H 	H 	0.82243	0.51245	0.74194	0.066
Mof_H 	H 	0.82114	0.26205	0.48696	0.078
Mof_H 	H 	0.84935	0.47014	0.77183	0.054
Mof_H 	H 	0.16121	0.47058	0.82406	0.046
Mof_H 	H 	0.22217	0.54856	0.21221	0.053
Mof_H 	H 	0.78968	0.56243	0.63075	0.134
Mof_H 	H 	0.17064	0.39306	0.53418	0.04
Mof_H 	H 	0.61354	0.51207	0.65958	0.076
Mof_H 	H 	0.85546	0.79447	0.30866	0.056
Mof_H 	H 	0.77762	0.38115	0.44517	0.145
Mof_H 	H 	0.3757	0.87268	0.29944	0.13
Mof_H 	H 	0.14703	0.54973	0.16146	0.05
Mof_H 	H 	0.30672	0.92655	0.35091	0.115
Mof_H 	H 	0.69799	0.46512	0.13149	0.108
Mof_H 	H 	0.70171	0.32904	0.44353	0.159
Mof_H 	H 	0.25473	0.76371	0.23988	0.074
Mof_H 	H 	0.61062	0.84604	0.49056	0.063
Mof_H 	H 	0.91024	0.18197	0.61784	0.052
Mof_H 	H 	0.84141	0.55461	0.31591	0.053
Mof_H 	H 	0.4702	0.50668	0.82181	0.053
Mof_H 	H 	0.69804	0.87872	0.54027	0.126
Mof_H 	H 	0.6059	0.17701	0.66322	0.078
Mof_H 	H 	0.37413	0.56851	0.68679	0.147
Mof_H 	H 	0.45987	0.17625	0.66515	0.097
Mof_H 	H 	0.81538	0.26062	0.74416	0.07
Mof_H 	H 	0.707	0.45986	0.30322	0.108
Mof_H 	H 	0.92834	0.38427	0.53125	0.054
Mof_H 	H 	0.7556	0.38858	0.90385	0.119
Mof_H 	H 	0.60754	0.35015	0.81744	0.051
Mof_H 	H 	0.61481	0.522	0.1662	0.055
Mof_H 	H 	0.61134	0.51179	0.32521	0.064
Mof_H 	H 	0.6848	0.33415	0.85422	0.126
Mof_H 	H 	0.84905	0.69467	0.21208	0.055
Mof_H 	H 	0.83717	0.46446	0.66512	0.053
Mof_H 	H 	0.70632	0.14904	0.68361	0.14
Mof_H 	H 	0.3117	0.37735	0.90763	0.089
Mof_H 	H 	0.85349	0.79608	0.4564	0.054
Mof_H 	H 	0.25434	0.26093	0.74678	0.064
Mof_H 	H 	0.77036	0.92886	0.5367	0.129
Mof_H 	H 	0.32211	0.47821	0.08127	0.113
Mof_H 	H 	0.61517	0.50522	0.82067	0.053
Mof_H 	H 	0.92937	0.84651	0.45502	0.054
Mof_H 	H 	0.22887	0.79684	0.31667	0.054
Mof_H 	H 	0.30899	0.65008	0.54361	0.122
Mof_H 	H 	0.85565	0.32737	0.773	0.055
Mof_H 	H 	0.28819	0.36512	0.43048	0.146
Mof_H 	H 	0.3811	0.15338	0.44211	0.114
Mof_H 	H 	0.23487	0.23199	0.53386	0.054
Mof_H 	H 	0.23735	0.55522	0.31523	0.055
Mof_H 	H 	0.15635	0.38848	0.83055	0.036
Mof_H 	H 	0.25739	0.10278	0.64784	0.124
Mof_H 	H 	0.61409	0.68136	0.49019	0.062
Mof_H 	H 	0.92381	0.64328	0.16062	0.053
Mof_H 	H 	0.16199	0.17897	0.53267	0.037
Mof_H 	H 	0.46577	0.51173	0.3247	0.066
Mof_H 	H 	0.36945	0.87771	0.54837	0.118
Mof_H 	H 	0.60514	0.83989	0.32969	0.059
Mof_H 	H 	0.6139	0.18472	0.49688	0.058
Mof_H 	H 	0.70419	0.70278	0.54351	0.112
Mof_H 	H 	0.15956	0.55497	0.36603	0.035
Mof_H 	H 	0.2603	0.76749	0.50055	0.067
Mof_H 	H 	0.38071	0.32503	0.85472	0.111
Mof_H 	H 	0.33639	0.15374	0.6986	0.144
Mof_H 	H 	0.24177	0.47178	0.66958	0.052
Mof_H 	H 	0.83287	0.23203	0.66927	0.053
Mof_H 	H 	0.26166	0.51778	0.7458	0.066
Mof_H 	H 	0.46486	0.67626	0.16515	0.055
Mof_H 	H 	0.93155	0.84566	0.35975	0.054
Mof_H 	H 	0.15864	0.64443	0.45609	0.049
Mof_H 	H 	0.30008	0.56907	0.63497	0.134
Mof_H 	H 	0.91218	0.46313	0.61287	0.05
Mof_H 	H 	0.23402	0.69598	0.45671	0.052
Mof_H 	H 	0.25964	0.2622	0.4892	0.07
Mof_H 	H 	0.76191	0.64436	0.08018	0.127
Mof_H 	H 	0.46821	0.51393	0.66087	0.077
Mof_H 	H 	0.46539	0.84697	0.49332	0.068
Mof_H 	H 	0.6116	0.34748	0.49345	0.081
Mof_H 	H 	0.82129	0.76699	0.4965	0.069
Mof_H 	H 	0.46901	0.18471	0.49732	0.059
Mof_H 	H 	0.75485	0.92503	0.36861	0.133
Mof_H 	H 	0.38211	0.56129	0.85539	0.099
Mof_H 	H 	0.22485	0.68978	0.20914	0.054
Mof_H 	H 	0.71407	0.56375	0.68275	0.137
Mof_H 	H 	0.77427	0.55818	0.90432	0.109
Mof_H 	H 	0.25967	0.50974	0.24036	0.075
Mof_H 	H 	0.91938	0.64063	0.4502	0.052
Mof_H 	H 	0.26736	0.22845	0.65871	0.055
Mof_H 	H 	0.23845	0.79464	0.45291	0.051
Mof_H 	H 	0.23572	0.47213	0.77326	0.052
Mof_H 	H 	0.46061	0.84186	0.32742	0.063
Mof_H 	H 	0.46954	0.68175	0.49188	0.062
Mof_H 	H 	0.60935	0.67707	0.16527	0.055
Mof_H 	H 	0.46596	0.34579	0.49043	0.1
Mof_H 	H 	0.19245	0.177	0.60685	0.032
Mof_H 	H 	0.36451	0.31582	0.4337	0.143
Mof_H 	H 	0.39192	0.47311	0.13103	0.123
Mof_H 	H 	0.77589	0.10076	0.44915	0.108
Mof_H 	H 	0.38196	0.703	0.54549	0.114
Mof_H 	H 	0.30856	0.55933	0.90629	0.093
Mof_H 	H 	0.69079	0.69783	0.13136	0.125
Mof_H 	H 	0.92304	0.46938	0.82319	0.052
Mof_H 	H 	0.31835	0.64443	0.07907	0.12
Mof_H 	H 	0.15835	0.85114	0.36814	0.038
Mof_H 	H 	0.92441	0.55273	0.16147	0.053
Mof_H 	H 	0.81584	0.76526	0.24175	0.074
Mof_H 	H 	0.78257	0.09867	0.63131	0.123
Mof_H 	H 	0.85382	0.23454	0.52801	0.057
Mof_H 	H 	0.15522	0.63698	0.15563	0.038
Mof_H 	H 	0.15887	0.84468	0.45237	0.047
Mof_H 	H 	0.6998	0.15019	0.44505	0.113
Mof_H 	H 	0.29273	0.45948	0.3522	0.105
Mof_H 	H 	0.85092	0.33297	0.53031	0.055
Mof_H 	H 	0.78301	0.46075	0.35507	0.107
Mof_H 	H 	0.85031	0.55191	0.2127	0.054
Mof_H 	H 	0.38356	0.69847	0.13165	0.127
Mof_H 	H 	0.82067	0.50853	0.24143	0.069
Mof_H 	H 	0.4629	0.34917	0.82018	0.055
Mof_H 	H 	0.93143	0.37913	0.82373	0.052
Mof_H 	H 	0.68472	0.87512	0.31411	0.135
Mof_H 	H 	0.36991	0.45941	0.30105	0.121
Mof_H 	H 	0.84598	0.69332	0.45199	0.053
Mof_H 	H 	0.91797	0.55523	0.36718	0.051
Mof_H 	H 	0.47033	0.52518	0.16767	0.051
Mof_H 	H 	0.22708	0.33614	0.77707	0.054
Mof_H 	H 	0.70254	0.55994	0.85297	0.102
Mof_H 	H 	0.77589	0.64916	0.54088	0.119
Mof_H 	H 	0.28937	0.9279	0.54811	0.129
Mof_H 	H 	0.16719	0.47241	0.61841	0.048
Mof_C 	C 	0.22403	0.6811	0.03231	0.444
Mof_C 	C 	0.32975	0.54705	0.67189	-0.034
Mof_C 	C 	0.44662	0.73288	0.21173	0.027
Mof_C 	C 	0.76035	0.19592	0.68146	0.049
Mof_C 	C 	0.87251	0.65433	0.15338	0.035
Mof_C 	C 	0.82524	0.4861	0.65804	-0.054
Mof_C 	C 	0.25069	0.82352	0.47404	-0.054
Mof_C 	C 	0.67227	0.27984	0.35808	0.745
Mof_C 	C 	0.86236	0.13763	0.48959	-0.092
Mof_C 	C 	0.90503	0.10349	0.58579	0.446
Mof_C 	C 	0.74966	0.53944	0.84566	-0.04
Mof_C 	C 	0.85394	0.13492	0.61868	-0.069
Mof_C 	C 	0.36385	0.29276	0.48774	0.007
Mof_C 	C 	0.38514	0.4507	0.45228	0.416
Mof_C 	C 	0.4941	0.26194	0.48752	0.015
Mof_C 	C 	0.44506	0.22947	0.71675	0.032
Mof_C 	C 	0.82738	0.53378	0.32385	-0.055
Mof_C 	C 	0.90842	0.50921	0.39957	0.448
Mof_C 	C 	0.25229	0.20359	0.5134	-0.06
Mof_C 	C 	0.24639	0.34451	0.80536	-0.066
Mof_C 	C 	0.79194	0.65799	0.52093	0.044
Mof_C 	C 	0.80476	0.63219	0.61745	0.382
Mof_C 	C 	0.7175	0.51414	0.71188	0.007
Mof_C 	C 	0.31298	0.83099	0.50028	0.043
Mof_C 	C 	0.26035	0.12965	0.64905	0.091
Mof_C 	C 	0.24189	0.02634	0.34121	0.409
Mof_C 	C 	0.56255	0.09821	0.72592	0.345
Mof_C 	C 	0.83411	0.8248	0.47444	-0.05
Mof_C 	C 	0.32252	0.33219	0.45602	-0.03
Mof_C 	C 	0.71563	0.50813	0.27216	0.006
Mof_C 	C 	0.8687	0.48525	0.62742	0.032
Mof_C 	C 	0.17786	0.60885	0.49878	0.45
Mof_C 	C 	0.76536	0.50903	0.1776	0.045
Mof_C 	C 	0.31915	0.76337	0.24061	-0.021
Mof_C 	C 	0.78657	0.66722	0.01924	0.437
Mof_C 	C 	0.2961	0.82017	0.12387	0.348
Mof_C 	C 	0.91486	0.10788	0.49342	0.5
Mof_C 	C 	0.17698	0.51408	0.08355	0.446
Mof_C 	C 	0.29817	0.86047	0.13031	0.747
Mof_C 	C 	0.22819	0.72155	0.03838	0.418
Mof_C 	C 	0.7666	0.32608	0.48745	0.057
Mof_C 	C 	0.22725	0.38857	0.87467	-0.119
Mof_C 	C 	0.76602	0.70316	0.49731	0.045
Mof_C 	C 	0.83186	0.48975	0.80049	-0.055
Mof_C 	C 	0.7497	0.15698	0.66932	-0.038
Mof_C 	C 	0.45	0.50838	0.27066	0.028
Mof_C 	C 	0.62978	0.29233	0.48733	0.029
Mof_C 	C 	0.31668	0.51966	0.68293	0.05
Mof_C 	C 	0.24584	0.68068	0.18094	-0.058
Mof_C 	C 	0.31652	0.51159	0.17741	0.058
Mof_C 	C 	0.63037	0.23208	0.48796	0.025
Mof_C 	C 	0.25562	0.49336	0.66264	-0.055
Mof_C 	C 	0.8606	0.38848	0.48857	-0.056
Mof_C 	C 	0.45149	0.51182	0.212	0.027
Mof_C 	C 	0.20426	0.85276	0.47377	0.029
Mof_C 	C 	0.325	0.48091	0.31509	-0.05
Mof_C 	C 	0.85157	0.38927	0.86936	-0.065
Mof_C 	C 	0.3401	0.49114	0.13886	-0.025
Mof_C 	C 	0.71299	0.98369	0.31426	0.442
Mof_C 	C 	0.36021	0.73201	0.20999	0.01
Mof_C 	C 	0.73104	0.95834	0.65344	0.419
Mof_C 	C 	0.71159	0.73357	0.21083	0.013
Mof_C 	C 	0.24668	0.82491	0.32353	-0.062
Mof_C 	C 	0.45242	0.51769	0.71512	0.028
Mof_C 	C 	0.49476	0.50948	0.30019	-0.022
Mof_C 	C 	0.30054	0.01371	0.54925	0.344
Mof_C 	C 	0.22791	0.39739	0.04903	0.415
Mof_C 	C 	0.30794	0.74023	0.69385	0.421
Mof_C 	C 	0.16826	0.50743	0.39674	0.599
Mof_C 	C 	0.58665	0.51045	0.80016	-0.027
Mof_C 	C 	0.35595	0.33995	0.16115	0.74
Mof_C 	C 	0.8326	0.82283	0.3207	-0.048
Mof_C 	C 	0.63005	0.51074	0.21209	0.023
Mof_C 	C 	0.57801	0.82007	0.30329	-0.016
Mof_C 	C 	0.21574	0.89159	0.50018	-0.066
Mof_C 	C 	0.77915	0.89703	0.35543	0.054
Mof_C 	C 	0.79663	0.48173	0.34728	0.043
Mof_C 	C 	0.8783	0.85435	0.47351	0.031
Mof_C 	C 	0.45305	0.51553	0.77445	0.022
Mof_C 	C 	0.1914	0.65195	0.99308	0.354
Mof_C 	C 	0.18381	0.38301	0.01126	0.394
Mof_C 	C 	0.84398	0.64301	0.98647	0.357
Mof_C 	C 	0.21239	0.49371	0.63268	0.036
Mof_C 	C 	0.29184	0.53973	0.8775	0.04
Mof_C 	C 	0.27986	0.48085	0.34485	0.073
Mof_C 	C 	0.33432	0.15989	0.4626	-0.044
Mof_C 	C 	0.85759	0.01789	0.39972	0.352
Mof_C 	C 	0.27694	0.89906	0.527	0.044
Mof_C 	C 	0.49577	0.51689	0.74482	0.014
Mof_C 	C 	0.89867	0.01247	0.63122	0.356
Mof_C 	C 	0.31213	0.32544	0.8103	0.051
Mof_C 	C 	0.36669	0.51642	0.77603	0.005
Mof_C 	C 	0.33475	0.68528	0.13794	-0.038
Mof_C 	C 	0.70183	0.29793	0.91686	0.423
Mof_C 	C 	0.26434	0.79113	0.08424	0.437
Mof_C 	C 	0.91855	0.01292	0.59578	0.357
Mof_C 	C 	0.33485	0.5408	0.84774	-0.045
Mof_C 	C 	0.20585	0.85655	0.35364	0.049
Mof_C 	C 	0.28851	0.89855	0.34415	0.064
Mof_C 	C 	0.5865	0.5088	0.24116	0.014
Mof_C 	C 	0.94328	0.15508	0.2908	0.741
Mof_C 	C 	0.31058	0.82912	0.30313	0.056
Mof_C 	C 	0.18353	0.42135	0.90942	0.537
Mof_C 	C 	0.74057	0.68597	0.13869	-0.031
Mof_C 	C 	0.49492	0.82525	0.49635	-0.021
Mof_C 	C 	0.20558	0.53393	0.35245	0.058
Mof_C 	C 	0.45054	0.79786	0.49934	0.025
Mof_C 	C 	0.88103	0.17669	0.51129	0.043
Mof_C 	C 	0.75621	0.50899	0.24156	-0.028
Mof_C 	C 	0.71792	0.51392	0.77391	0.006
Mof_C 	C 	0.3661	0.51829	0.71484	0.009
Mof_C 	C 	0.57404	0.2045	0.87534	0.742
Mof_C 	C 	0.28709	0.38242	0.09791	0.422
Mof_C 	C 	0.87194	0.65338	0.47062	0.032
Mof_C 	C 	0.32412	0.26238	0.48923	-0.025
Mof_C 	C 	0.22195	0.38451	0.4821	-0.081
Mof_C 	C 	0.27794	0.36102	0.45416	0.083
Mof_C 	C 	0.1827	0.92958	0.39766	0.535
Mof_C 	C 	0.48905	0.76385	0.24141	0.018
Mof_C 	C 	0.74662	0.48489	0.13885	-0.039
Mof_C 	C 	0.94785	0.33695	0.36484	0.431
Mof_C 	C 	0.49525	0.32152	0.48868	-0.01
Mof_C 	C 	0.62468	0.29203	0.77368	0.026
Mof_C 	C 	0.75797	0.51308	0.74236	-0.028
Mof_C 	C 	0.80704	0.98252	0.65985	0.445
Mof_C 	C 	0.7659	0.83167	0.49755	0.048
Mof_C 	C 	0.35973	0.29266	0.77668	0.003
Mof_C 	C 	0.79954	0.54019	0.63697	0.053
Mof_C 	C 	0.92654	0.3673	0.35444	0.374
Mof_C 	C 	0.95447	0.1957	0.32321	0.356
Mof_C 	C 	0.58215	0.63583	0.65097	0.418
Mof_C 	C 	0.49446	0.76798	0.49964	0.013
Mof_C 	C 	0.51168	0.35977	0.38415	0.407
Mof_C 	C 	0.90311	0.51081	0.08304	0.447
Mof_C 	C 	0.71693	0.73618	0.49738	0.008
Mof_C 	C 	0.7111	0.29261	0.77496	0.015
Mof_C 	C 	0.41292	0.65742	0.72581	0.739
Mof_C 	C 	0.23893	0.36704	0.06065	0.423
Mof_C 	C 	0.21212	0.37637	0.51173	0.048
Mof_C 	C 	0.85138	0.89108	0.36955	-0.06
Mof_C 	C 	0.62972	0.79783	0.498	0.024
Mof_C 	C 	0.24843	0.02522	0.30287	0.397
Mof_C 	C 	0.30902	0.78388	0.71753	0.443
Mof_C 	C 	0.83184	0.53289	0.18404	-0.053
Mof_C 	C 	0.66786	0.94586	0.29043	0.42
Mof_C 	C 	0.76652	0.51375	0.67887	0.046
Mof_C 	C 	0.93539	0.2962	0.33181	0.421
Mof_C 	C 	0.85664	0.51203	0.61546	-0.066
Mof_C 	C 	0.33237	0.33852	0.84852	-0.055
Mof_C 	C 	0.36349	0.50872	0.2713	0.009
Mof_C 	C 	0.36579	0.73667	0.49998	0.007
Mof_C 	C 	0.79179	0.53862	0.87568	0.04
Mof_C 	C 	0.31667	0.19817	0.48855	0.051
Mof_C 	C 	0.45144	0.23252	0.48919	0.025
Mof_C 	C 	0.34704	0.36853	0.14755	0.342
Mof_C 	C 	0.21016	0.17272	0.51286	0.046
Mof_C 	C 	0.57801	0.20014	0.68741	-0.004
Mof_C 	C 	0.54858	0.06456	0.68557	0.435
Mof_C 	C 	0.18672	0.60213	0.07697	0.523
Mof_C 	C 	0.7651	0.5077	0.30467	0.044
Mof_C 	C 	0.90579	0.5115	0.5826	0.451
Mof_C 	C 	0.87484	0.53344	0.15407	0.033
Mof_C 	C 	0.76694	0.51442	0.80693	0.043
Mof_C 	C 	0.57946	0.32356	0.79882	-0.02
Mof_C 	C 	0.58045	0.33781	0.38984	0.446
Mof_C 	C 	0.16786	0.10266	0.5893	0.605
Mof_C 	C 	0.79462	0.37134	0.46422	0.071
Mof_C 	C 	0.45043	0.29195	0.48735	0.03
Mof_C 	C 	0.73711	0.34399	0.84633	-0.029
Mof_C 	C 	0.76089	0.70125	0.17741	0.05
Mof_C 	C 	0.90261	0.6052	0.49333	0.454
Mof_C 	C 	0.39425	0.0445	0.6046	0.413
Mof_C 	C 	0.83283	0.3398	0.80139	-0.05
Mof_C 	C 	0.22666	0.51393	0.1159	-0.062
Mof_C 	C 	0.82073	0.20318	0.66168	-0.055
Mof_C 	C 	0.17381	0.61539	0.99162	0.355
Mof_C 	C 	0.6306	0.73718	0.49777	0.023
Mof_C 	C 	0.90105	0.42197	0.90181	0.449
Mof_C 	C 	0.226	0.8945	0.36516	-0.106
Mof_C 	C 	0.587	0.26184	0.48702	0.021
Mof_C 	C 	0.31382	0.3243	0.4858	0.053
Mof_C 	C 	0.84084	0.37943	0.99165	0.359
Mof_C 	C 	0.31787	0.51626	0.80888	0.044
Mof_C 	C 	0.8997	0.60537	0.08236	0.454
Mof_C 	C 	0.42747	0.03866	0.24743	0.356
Mof_C 	C 	0.45192	0.64595	0.68764	0.341
Mof_C 	C 	0.75008	0.68931	0.5224	-0.036
Mof_C 	C 	0.83553	0.20563	0.51009	-0.055
Mof_C 	C 	0.63161	0.51418	0.7733	0.021
Mof_C 	C 	0.91136	0.42106	0.48924	0.454
Mof_C 	C 	0.70633	0.95605	0.68875	0.444
Mof_C 	C 	0.87554	0.41345	0.99215	0.359
Mof_C 	C 	0.32476	0.76743	0.4999	-0.027
Mof_C 	C 	0.54359	0.65012	0.69019	0.438
Mof_C 	C 	0.75684	0.76713	0.49679	-0.026
Mof_C 	C 	0.61055	0.94679	0.26123	0.438
Mof_C 	C 	0.36407	0.79862	0.49996	0.007
Mof_C 	C 	0.75669	0.26216	0.48739	-0.022
Mof_C 	C 	0.49376	0.50908	0.24096	0.017
Mof_C 	C 	0.17877	0.41759	0.48037	0.539
Mof_C 	C 	0.71055	0.22873	0.71418	0.014
Mof_C 	C 	0.55424	0.81216	0.07331	0.747
Mof_C 	C 	0.69287	0.72496	0.04936	0.419
Mof_C 	C 	0.31903	0.47256	0.44505	0.286
Mof_C 	C 	0.28665	0.54738	0.64179	0.057
Mof_C 	C 	0.90115	0.92374	0.40203	0.449
Mof_C 	C 	0.93749	0.40567	0.38809	0.372
Mof_C 	C 	0.26333	0.75033	0.07749	0.425
Mof_C 	C 	0.58064	0.70277	0.18569	-0.021
Mof_C 	C 	0.58334	0.82497	0.49525	-0.019
Mof_C 	C 	0.33437	0.6902	0.52519	-0.036
Mof_C 	C 	0.1677	0.41512	0.00439	0.397
Mof_C 	C 	0.32887	0.86709	0.31411	-0.045
Mof_C 	C 	0.44602	0.29199	0.77469	0.026
Mof_C 	C 	0.32397	0.86979	0.52702	-0.035
Mof_C 	C 	0.49758	0.70705	0.49561	-0.023
Mof_C 	C 	0.75096	0.26081	0.74427	-0.023
Mof_C 	C 	0.79463	0.12962	0.46609	0.053
Mof_C 	C 	0.65069	0.75595	0.04442	0.441
Mof_C 	C 	0.87683	0.3703	0.83107	0.035
Mof_C 	C 	0.8548	0.51001	0.1154	-0.068
Mof_C 	C 	0.62084	0.0888	0.74895	0.741
Mof_C 	C 	0.31705	0.70418	0.50043	0.046
Mof_C 	C 	0.62892	0.93272	0.682	0.344
Mof_C 	C 	0.20559	0.6497	0.14977	0.048
Mof_C 	C 	0.78928	0.4856	0.10884	0.042
Mof_C 	C 	0.32611	0.51721	0.74542	-0.026
Mof_C 	C 	0.2299	0.63511	0.11174	-0.099
Mof_C 	C 	0.95178	0.26628	0.34372	0.436
Mof_C 	C 	0.22977	0.13449	0.48743	-0.105
Mof_C 	C 	0.90398	0.51296	0.90159	0.447
Mof_C 	C 	0.87857	0.37299	0.512	0.039
Mof_C 	C 	0.36498	0.23151	0.48934	0.006
Mof_C 	C 	0.51032	0.9092	0.20799	0.744
Mof_C 	C 	0.31881	0.26109	0.74642	-0.025
Mof_C 	C 	0.22672	0.52055	0.62098	-0.069
Mof_C 	C 	0.2983	0.4933	0.10948	0.06
Mof_C 	C 	0.58567	0.51643	0.18636	-0.025
Mof_C 	C 	0.26653	0.20119	0.65681	-0.072
Mof_C 	C 	0.74702	0.87065	0.52059	-0.029
Mof_C 	C 	0.83347	0.34288	0.51137	-0.047
Mof_C 	C 	0.60009	0.93229	0.71734	0.744
Mof_C 	C 	0.17848	0.5137	0.90273	0.448
Mof_C 	C 	0.3887	0.79931	0.73905	0.343
Mof_C 	C 	0.33453	0.03307	0.29457	0.431
Mof_C 	C 	0.25144	0.68661	0.47608	-0.054
Mof_C 	C 	0.87783	0.61104	0.99001	0.357
Mof_C 	C 	0.5818	0.76423	0.24177	0.02
Mof_C 	C 	0.18511	0.09999	0.48523	0.516
Mof_C 	C 	0.48982	0.8206	0.30228	-0.018
Mof_C 	C 	0.49252	0.70227	0.18562	-0.022
Mof_C 	C 	0.47236	0.04061	0.62263	0.422
Mof_C 	C 	0.93989	0.22536	0.31088	0.434
Mof_C 	C 	0.16744	0.92343	0.49837	0.444
Mof_C 	C 	0.75612	0.5411	0.66757	-0.036
Mof_C 	C 	0.82947	0.68437	0.4718	-0.053
Mof_C 	C 	0.75457	0.31995	0.95263	0.419
Mof_C 	C 	0.61377	0.23936	0.87759	0.345
Mof_C 	C 	0.48219	0.07282	0.66428	0.42
Mof_C 	C 	0.71647	0.29329	0.48734	0.021
Mof_C 	C 	0.75211	0.48131	0.3171	-0.04
Mof_C 	C 	0.86567	0.17385	0.63147	0.031
Mof_C 	C 	0.34306	0.02804	0.25458	0.414
Mof_C 	C 	0.85565	0.51343	0.86917	-0.072
Mof_C 	C 	0.71639	0.79872	0.49757	0.012
Mof_C 	C 	0.8746	0.48924	0.83052	0.031
Mof_C 	C 	0.71092	0.79562	0.27359	0.015
Mof_C 	C 	0.36506	0.51116	0.21029	0.018
Mof_C 	C 	0.71686	0.23077	0.48712	0.014
Mof_C 	C 	0.44538	0.79372	0.27151	0.028
Mof_C 	C 	0.76059	0.3257	0.80775	0.052
Mof_C 	C 	0.24487	0.53241	0.1838	-0.048
Mof_C 	C 	0.7672	0.19799	0.48708	0.051
Mof_C 	C 	0.57197	0.90788	0.235	0.345
Mof_C 	C 	0.63113	0.51558	0.7136	0.026
Mof_C 	C 	0.20134	0.53337	0.15415	0.039
Mof_C 	C 	0.87676	0.85279	0.35088	0.035
Mof_C 	C 	0.58378	0.32213	0.48964	0.002
Mof_C 	C 	0.3053	0.15952	0.67893	-0.045
Mof_C 	C 	0.29191	0.36904	0.87944	0.059
Mof_C 	C 	0.20782	0.65639	0.47562	0.033
Mof_C 	C 	0.31291	0.50786	0.30332	0.057
Mof_C 	C 	0.49762	0.51768	0.1868	-0.023
Mof_C 	C 	0.85061	0.63824	0.11481	-0.065
Mof_C 	C 	0.58721	0.76795	0.499	0.015
Mof_C 	C 	0.35906	0.79492	0.27155	0.008
Mof_C 	C 	0.22677	0.6416	0.49951	-0.07
Mof_C 	C 	0.85786	0.89312	0.49561	-0.06
Mof_C 	C 	0.79442	0.12752	0.63883	0.049
Mof_C 	C 	0.45204	0.73737	0.49914	0.023
Mof_C 	C 	0.62403	0.2292	0.71572	0.028
Mof_C 	C 	0.49139	0.32329	0.79987	-0.024
Mof_C 	C 	0.58136	0.26029	0.74534	0.022
Mof_C 	C 	0.62429	0.79401	0.27274	0.028
Mof_C 	C 	0.14382	0.66511	0.63307	0.377
Mof_C 	C 	0.76021	0.82886	0.30643	0.052
Mof_C 	C 	0.74997	0.34103	0.46343	-0.021
Mof_C 	C 	0.85137	0.6033	0.58445	0.342
Mof_C 	C 	0.83066	0.98423	0.62412	0.439
Mof_C 	C 	0.58324	0.50947	0.30049	-0.022
Mof_C 	C 	0.32411	0.51014	0.24074	-0.016
Mof_C 	C 	0.78956	0.35653	0.956	0.419
Mof_C 	C 	0.62529	0.73375	0.21211	0.026
Mof_C 	C 	0.58547	0.51477	0.68448	-0.014
Mof_C 	C 	0.87188	0.53418	0.35391	0.031
Mof_C 	C 	0.14954	0.02015	0.38676	0.358
Mof_C 	C 	0.66483	0.26175	0.91373	0.436
Mof_C 	C 	0.38446	0.01409	0.56246	0.361
Mof_C 	C 	0.75144	0.76473	0.24218	-0.023
Mof_C 	C 	0.25289	0.49148	0.80204	-0.058
Mof_C 	C 	0.2096	0.49052	0.83175	0.031
Mof_C 	C 	0.71628	0.50952	0.21068	0.007
Mof_C 	C 	0.39213	0.84256	0.76068	0.747
Mof_C 	C 	0.62911	0.50811	0.27114	0.023
Mof_C 	C 	0.49709	0.2057	0.49268	-0.024
Mof_C 	C 	0.48868	0.26043	0.74578	0.015
Mof_C 	C 	0.73683	0.86743	0.32423	-0.029
Mof_C 	C 	0.15496	0.02207	0.3512	0.357
Mof_C 	C 	0.3095	0.19634	0.68383	0.055
Mof_C 	C 	0.22289	0.17121	0.62665	0.06
Mof_C 	C 	0.85413	0.63871	0.49478	-0.068
Mof_C 	C 	0.296	0.65396	0.1071	0.068
Mof_C 	C 	0.31277	0.69923	0.17614	0.056
Mof_C 	C 	0.9082	0.92503	0.49465	0.443
Mof_C 	C 	0.43808	0.03146	0.20712	0.72
Mof_C 	C 	0.41868	0.41757	0.41503	0.401
Mof_C 	C 	0.8292	0.6846	0.18353	-0.051
Mof_C 	C 	0.76183	0.98391	0.34645	0.436
Mof_C 	C 	0.58534	0.20552	0.49213	-0.022
Mof_C 	C 	0.74816	0.69967	0.01558	0.441
Mof_C 	C 	0.22781	0.51443	0.87056	-0.079
Mof_C 	C 	0.74946	0.15873	0.46441	-0.037
Mof_C 	C 	0.29143	0.65958	0.52437	0.047
Mof_C 	C 	0.59909	0.78268	0.079	0.346
Mof_C 	C 	0.81338	0.01942	0.36857	0.36
Mof_C 	C 	0.20542	0.37516	0.83652	0.048
Mof_C 	C 	0.22816	0.68159	0.64613	0.423
Mof_C 	C 	0.35881	0.22918	0.7161	0.003
Mof_C 	C 	0.4855	0.39517	0.42148	0.43
Mof_C 	C 	0.71445	0.62279	0.6147	0.413
Mof_C 	C 	0.85795	0.50834	0.36689	-0.071
Mof_C 	C 	0.49716	0.51591	0.68528	-0.013
Mof_C 	C 	0.49847	0.51116	0.80076	-0.027
Mof_C 	C 	0.17796	0.52041	0.58834	0.456
Mof_C 	C 	0.22571	0.72443	0.67536	0.425
Mof_C 	C 	0.67324	0.64293	0.65371	0.419
Mof_C 	C 	0.48951	0.19999	0.68821	-0.012
Mof_C 	C 	0.79018	0.90015	0.51902	0.054
Mof_C 	C 	0.21885	0.50749	0.36468	-0.136
Mof_C 	C 	0.2972	0.35299	0.11084	0.436
Mof_C 	C 	0.25074	0.53401	0.32274	-0.068
Mof_C 	C 	0.78277	0.65506	0.10861	0.051
Mof_C 	C 	0.25602	0.34697	0.5133	-0.055
Mof_C 	C 	0.29322	0.12927	0.46239	0.06
Mof_C 	C 	0.58568	0.70689	0.49476	-0.023
Mof_C 	C 	0.60498	0.30209	0.35261	0.332
Mof_C 	C 	0.14349	0.62595	0.59972	0.362
Mof_C 	C 	0.21857	0.13439	0.62163	-0.137
Mof_C 	C 	0.58839	0.51599	0.74411	0.014
Mof_C 	C 	0.7795	0.37531	0.87569	0.054
Mof_O 	O 	0.13628	0.04302	0.5014	-1.325
Mof_O 	O 	0.03811	0.57505	0.02691	-1.188
Mof_O 	O 	0.00377	0.42008	0.40234	-0.551
Mof_O 	O 	0.82594	0.01887	0.42819	-0.539
Mof_O 	O 	0.87944	0.49095	0.0478	-0.544
Mof_O 	O 	0.15398	0.97997	0.46991	-1.177
Mof_O 	O 	0.87899	0.58872	0.51218	-0.548
Mof_O 	O 	0.92975	0.49593	0.95858	-1.279
Mof_O 	O 	0.98778	0.01067	0.58288	-0.545
Mof_O 	O 	0.03922	0.53987	0.95865	-1.286
Mof_O 	O 	0.11561	0.10789	0.56988	-0.723
Mof_O 	O 	0.03781	0.45089	0.95894	-1.206
Mof_O 	O 	0.21303	0.58887	0.04283	-0.551
Mof_O 	O 	0.19682	0.54318	0.57544	-0.54
Mof_O 	O 	0.05918	0.45458	0.46674	-1.244
Mof_O 	O 	0.89203	0.48632	0.41247	-0.556
Mof_O 	O 	0.88158	0.42731	0.40719	-0.513
Mof_O 	O 	0.2024	0.53298	0.93797	-0.58
Mof_O 	O 	0.92641	0.60245	0.58302	-0.482
Mof_O 	O 	0.97055	0.49154	0.57184	-0.601
Mof_O 	O 	0.93208	0.01479	0.40069	-0.495
Mof_O 	O 	0.03303	0.57571	0.52058	-1.286
Mof_O 	O 	0.20617	0.96385	0.40896	-0.541
Mof_O 	O 	0.20712	0.43326	0.94373	-0.586
Mof_O 	O 	0.23956	0.01143	0.566	-0.509
Mof_O 	O 	0.17647	0.06646	0.57299	-0.658
Mof_O 	O 	0.96586	0.53372	0.41369	-0.594
Mof_O 	O 	0.1147	0.53148	0.41644	-0.714
Mof_O 	O 	0.97253	0.12034	0.51719	-0.609
Mof_O 	O 	0.8875	0.06765	0.57157	-0.558
Mof_O 	O 	0.14956	0.49565	0.95965	-1.201
Mof_O 	O 	0.20226	0.49585	0.04849	-0.555
Mof_O 	O 	0.03954	0.04342	0.46782	-1.34
Mof_O 	O 	0.08564	0.01584	0.40013	-0.532
Mof_O 	O 	0.15061	0.53749	0.48192	-1.24
Mof_O 	O 	0.93781	0.4932	0.50603	-1.281
Mof_O 	O 	0.05375	0.04826	0.55276	-1.19
Mof_O 	O 	0.86804	0.01618	0.57489	-0.528
Mof_O 	O 	0.12351	0.928	0.41673	-0.718
Mof_O 	O 	0.25883	0.44871	0.42186	-0.435
Mof_O 	O 	0.22484	0.59442	0.99461	-0.529
Mof_O 	O 	0.9334	0.04872	0.51147	-1.201
Mof_O 	O 	0.03597	0.98018	0.42916	-1.168
Mof_O 	O 	0.2087	0.06578	0.46249	-0.545
Mof_O 	O 	0.03463	0.54149	0.55425	-1.295
Mof_O 	O 	0.96402	0.11424	0.57284	-0.594
Mof_O 	O 	0.08055	0.60887	0.58413	-0.531
Mof_O 	O 	0.27858	0.49739	0.47805	-0.492
Mof_O 	O 	0.88137	0.53078	0.56665	-0.54
Mof_O 	O 	0.96709	0.91464	0.41212	-0.601
Mof_O 	O 	0.93514	0.98108	0.4774	-1.254
Mof_O 	O 	0.96713	0.49183	0.89236	-0.598
Mof_O 	O 	0.20308	0.60609	0.58222	-0.504
Mof_O 	O 	0.9091	0.07101	0.47471	-0.667
Mof_O 	O 	0.95091	0.60559	0.99222	-0.501
Mof_O 	O 	0.19415	0.4253	0.45389	-0.523
Mof_O 	O 	0.87639	0.5894	0.047	-0.544
Mof_O 	O 	0.21986	0.43658	0.00314	-0.506
Mof_O 	O 	0.09972	0.4251	0.99998	-0.552
Mof_O 	O 	0.96602	0.53202	0.09239	-0.599
Mof_O 	O 	0.05778	0.48849	0.43386	-1.235
Mof_O 	O 	0.83761	0.58495	0.9898	-0.536
Mof_O 	O 	0.88029	0.53309	0.93686	-0.553
Mof_O 	O 	0.123	0.43952	0.90744	-0.729
Mof_O 	O 	0.93549	0.52699	0.47233	-1.278
Mof_O 	O 	0.15329	0.50355	0.51612	-1.247
Mof_O 	O 	0.96652	0.59446	0.47286	-0.604
Mof_O 	O 	0.89117	0.43573	0.46823	-0.541
Mof_O 	O 	0.19992	0.59393	0.51932	-0.542
Mof_O 	O 	0.12324	0.5855	0.0788	-0.711
Mof_O 	O 	0.8759	0.43852	0.93694	-0.552
Mof_O 	O 	0.12628	0.43976	0.50422	-0.713
Mof_O 	O 	0.12822	0.52831	0.02341	-1.358
Mof_O 	O 	0.92729	0.53023	0.02679	-1.216
Mof_O 	O 	0.20717	0.02222	0.4074	-0.503
Mof_O 	O 	0.11418	0.49325	0.89341	-0.604
Mof_O 	O 	0.11953	0.49639	0.57415	-0.605
Mof_O 	O 	0.17931	0.48756	0.4129	-0.656
Mof_O 	O 	0.03877	0.48889	0.02178	-1.376
Mof_O 	O 	0.11052	0.53287	0.09256	-0.594
Mof_O 	O 	0.11978	0.91405	0.47	-0.604
Mof_O 	O 	0.8875	0.96072	0.51539	-0.538
Mof_O 	O 	0.96669	0.43239	0.89281	-0.6
Mof_O 	O 	0.28027	0.01534	0.52034	-0.559
Mof_O 	O 	0.1242	0.10214	0.50542	-0.707
Mof_O 	O 	0.94883	0.41991	0.99201	-0.503
Mof_O 	O 	0.10502	0.60197	0.98853	-0.525
Mof_O 	O 	0.87631	0.95901	0.41841	-0.535
Mof_O 	O 	0.96983	0.91501	0.47236	-0.598
Mof_O 	O 	0.1759	0.95863	0.52512	-0.53
Mof_O 	O 	0.83547	0.43969	0.99264	-0.539
Mof_O 	O 	0.35102	0.49268	0.42898	-0.095
Mof_O 	O 	0.82269	0.5754	0.55527	-0.509
Mof_O 	O 	0.96346	0.59423	0.09185	-0.607
Mof_O 	O 	0.05341	0.98045	0.51834	-1.253
Mof_O 	O 	0.97258	0.43361	0.51175	-0.591
Mof_O 	O 	0.11617	0.59646	0.47656	-0.597
Mof_F 	F 	0.4226	0.3781	0.1416	-0.278
Mof_F 	F 	0.02938	0.27036	0.3567	-0.292
Mof_F 	F 	0.33475	0.32138	0.08261	-0.243
Mof_F 	F 	0.54006	0.27834	0.33744	-0.242
Mof_F 	F 	0.69453	0.99206	0.71871	-0.224
Mof_F 	F 	0.67883	0.63354	0.59106	-0.321
Mof_F 	F 	0.87559	0.04846	0.65794	-0.303
Mof_F 	F 	0.33029	0.85742	0.78629	-0.269
Mof_F 	F 	0.63052	0.88227	0.21357	-0.25
Mof_F 	F 	0.10988	0.05241	0.35601	-0.286
Mof_F 	F 	0.39865	0.78703	0.76469	-0.216
Mof_F 	F 	0.28719	0.99733	0.33964	-0.291
Mof_F 	F 	0.6354	0.70273	0.05295	-0.298
Mof_F 	F 	0.86643	0.1496	0.27686	-0.269
Mof_F 	F 	0.83671	0.34716	0.92483	-0.351
Mof_F 	F 	0.66143	0.2275	0.84608	-0.272
Mof_F 	F 	0.73799	0.74187	0.08201	-0.284
Mof_F 	F 	0.72321	0.91735	0.27178	-0.289
Mof_F 	F 	0.3725	0.81041	0.12847	-0.238
Mof_F 	F 	0.44899	0.43189	0.39333	-0.319
Mof_F 	F 	0.99214	0.21869	0.28207	-0.241
Mof_F 	F 	0.17146	0.73094	0.70344	-0.248
Mof_F 	F 	0.46337	0.85419	0.78011	-0.257
Mof_F 	F 	0.27168	0.06021	0.36957	-0.332
Mof_F 	F 	0.70428	0.6843	0.98258	-0.298
Mof_F 	F 	0.10441	0.66422	0.66226	-0.282
Mof_F 	F 	0.84792	0.36346	0.34284	-0.278
Mof_F 	F 	0.5342	0.89486	0.25632	-0.298
Mof_F 	F 	0.7275	0.37925	0.95694	-0.352
Mof_F 	F 	0.85543	0.94883	0.59665	-0.349
Mof_F 	F 	0.50061	0.79492	0.04392	-0.258
Mof_F 	F 	0.27227	0.67622	0.61528	-0.33
Mof_F 	F 	0.27495	0.72114	0.01036	-0.24
Mof_F 	F 	0.59298	0.12843	0.72371	-0.303
Mof_F 	F 	0.45855	0.38386	0.44617	-0.35
Mof_F 	F 	0.64593	0.36128	0.40431	-0.331
Mof_F 	F 	0.70644	0.63	0.67607	-0.308
Mof_F 	F 	0.27855	0.33644	0.03214	-0.242
Mof_F 	F 	0.5681	0.94744	0.67044	-0.235
Mof_F 	F 	0.56281	0.68768	0.71347	-0.247
Mof_F 	F 	0.76491	0.99448	0.61081	-0.299
Mof_F 	F 	0.44162	0.07645	0.27216	-0.237
Mof_F 	F 	0.6912	0.24883	0.32374	-0.263
Mof_F 	F 	0.51257	0.83589	0.1057	-0.246
Mof_F 	F 	0.5361	0.37082	0.35888	-0.27
Mof_F 	F 	0.6872	0.68128	0.67056	-0.251
Mof_F 	F 	0.55651	0.32721	0.4155	-0.356
Mof_F 	F 	0.34055	0.73982	0.07995	-0.28
Mof_F 	F 	0.29967	0.66987	0.03597	-0.326
Mof_F 	F 	0.22265	0.34254	0.11691	-0.26
Mof_F 	F 	0.41122	0.07794	0.68347	-0.295
Mof_F 	F 	0.79344	0.01858	0.6892	-0.263
Mof_F 	F 	0.70765	0.7771	0.03884	-0.237
Mof_F 	F 	0.2644	0.6622	0.66163	-0.282
Mof_F 	F 	0.98628	0.29011	0.30273	-0.246
Mof_F 	F 	0.312	0.79212	0.05719	-0.233
Mof_F 	F 	0.61728	0.27181	0.94493	-0.26
Mof_F 	F 	0.22439	0.99006	0.27454	-0.223
Mof_F 	F 	0.72678	0.64423	0.01981	-0.338
Mof_F 	F 	0.1877	0.80135	0.08051	-0.244
Mof_F 	F 	0.55101	0.97282	0.28034	-0.236
Mof_F 	F 	0.44691	0.33591	0.3689	-0.279
Mof_F 	F 	0.61901	0.05661	0.66542	-0.284
Mof_F 	F 	0.22298	0.87175	0.12622	-0.263
Mof_F 	F 	0.40186	0.35556	0.19346	-0.316
Mof_F 	F 	0.49117	0.1092	0.74538	-0.254
Mof_F 	F 	0.90625	0.66497	0.98609	-0.269
Mof_F 	F 	0.85779	0.29226	0.31892	-0.237
Mof_F 	F 	0.64083	0.32111	0.91772	-0.315
Mof_F 	F 	0.54346	0.762	0.08602	-0.252
Mof_F 	F 	0.70916	0.32928	0.98427	-0.272
Mof_F 	F 	0.29747	0.79835	0.69377	-0.27
Mof_F 	F 	0.47168	0.00618	0.62125	-0.283
Mof_F 	F 	0.95695	0.13041	0.30393	-0.276
Mof_F 	F 	0.62379	0.93786	0.31411	-0.318
Mof_F 	F 	0.12173	0.66493	0.98542	-0.28
Mof_F 	F 	0.63262	0.12044	0.78377	-0.273
Mof_F 	F 	0.72539	0.23867	0.91346	-0.252
Mof_F 	F 	0.10075	0.68762	0.62316	-0.302
Mof_F 	F 	0.02688	0.34152	0.3761	-0.328
Mof_F 	F 	0.38674	0.00871	0.29782	-0.266
Mof_F 	F 	0.48153	0.8733	0.18458	-0.269
Mof_F 	F 	0.82896	0.68212	0.05262	-0.332
Mof_F 	F 	0.99646	0.147	0.26198	-0.263
Mof_F 	F 	0.21825	0.74961	0.10541	-0.299
Mof_F 	F 	0.80413	0.62802	0.95249	-0.329
Mof_F 	F 	0.74798	0.288	0.88529	-0.31
Mof_F 	F 	0.6024	0.7389	0.01285	-0.249
Mof_F 	F 	0.34955	0.86274	0.10517	-0.246
Mof_F 	F 	0.534	0.90921	0.70833	-0.274
Mof_F 	F 	0.6308	0.18017	0.87553	-0.27
Mof_F 	F 	0.64731	0.80156	0.11042	-0.24
Mof_F 	F 	0.40047	0.97874	0.55726	-0.315
Mof_F 	F 	0.112	0.36664	0.01176	-0.262
Mof_F 	F 	0.16466	0.35525	0.06535	-0.255
Mof_F 	F 	0.33083	0.04179	0.62475	-0.332
Mof_F 	F 	0.64218	0.8959	0.65393	-0.271
Mof_F 	F 	0.5444	0.92241	0.1861	-0.246
Mof_F 	F 	0.86985	0.96734	0.66974	-0.252
Mof_F 	F 	0.30215	0.41011	0.04567	-0.333
Mof_F 	F 	0.45181	0.78603	0.71397	-0.233
Mof_F 	F 	0.4998	0.10592	0.66447	-0.34
Mof_F 	F 	0.22973	0.3565	0.98198	-0.32
Mof_F 	F 	0.43011	0.69453	0.75172	-0.272
Mof_F 	F 	0.60683	0.83354	0.06583	-0.254
Mof_F 	F 	0.35707	0.39323	0.39522	-0.318
Mof_F 	F 	0.86279	0.22135	0.29735	-0.237
Mof_F 	F 	0.76736	0.93946	0.69802	-0.251
Mof_F 	F 	0.35462	0.43719	0.47455	-0.374
Mof_F 	F 	0.15201	0.73283	0.03547	-0.24
Mof_F 	F 	0.90083	0.34275	0.395	-0.34
Mof_F 	F 	0.32765	0.99084	0.22807	-0.206
Mof_F 	F 	0.70371	0.58437	0.59909	-0.35
Mof_F 	F 	0.69357	0.07769	0.73095	-0.288
Mof_F 	F 	0.03137	0.19919	0.3368	-0.269
Mof_F 	F 	0.53675	0.04129	0.60191	-0.307
Mof_F 	F 	0.24708	0.79592	0.74328	-0.248
Mof_F 	F 	0.97506	0.364	0.32568	-0.288
Mof_F 	F 	0.48444	0.01789	0.25349	-0.229
Mof_F 	F 	0.43697	0.02116	0.54072	-0.336
Mof_F 	F 	0.70943	0.9818	0.37142	-0.338
Mof_F 	F 	0.42949	0.9936	0.18118	-0.225
Mof_F 	F 	0.44705	0.93217	0.22781	-0.264
Mof_F 	F 	0.65217	0.95814	0.23948	-0.228
Mof_F 	F 	0.52249	0.21487	0.90527	-0.286
Mof_F 	F 	0.76586	0.05115	0.38385	-0.327
Mof_F 	F 	0.63065	0.3123	0.32688	-0.23
Mof_F 	F 	0.83782	0.63422	0.64932	-0.3
Mof_F 	F 	0.53095	0.18568	0.84227	-0.287
Mof_F 	F 	0.31114	0.40055	0.17602	-0.305
Mof_F 	F 	0.55429	0.2622	0.87652	-0.29
Mof_F 	F 	0.36185	0.39346	0.09281	-0.301
Mof_F 	F 	0.57381	0.62963	0.70588	-0.31
Mof_F 	F 	0.19991	0.74339	0.65728	-0.278
Mof_F 	F 	0.81504	0.66675	0.61975	-0.294
Mof_F 	F 	0.17539	0.68121	0.05969	-0.343
Mof_F 	F 	0.51368	0.04258	0.20334	-0.256
Mof_F 	F 	0.55046	0.41866	0.43765	-0.311
Mof_F 	F 	0.65883	0.01311	0.32984	-0.289
Mof_F 	F 	0.76385	0.98922	0.29088	-0.229
Mof_F 	F 	0.36566	0.72859	0.6661	-0.262
Mof_F 	F 	0.42129	0.66826	0.67427	-0.229
Mof_F 	F 	0.5673	0.59761	0.62904	-0.309
Mof_F 	F 	0.33119	0.65351	0.72141	-0.314
Mof_F 	F 	0.64867	0.26739	0.3823	-0.355
Mof_F 	F 	0.18516	0.42727	0.07684	-0.359
Mof_F 	F 	0.81191	0.95295	0.3315	-0.338
Mof_F 	F 	0.74464	0.92229	0.62381	-0.307
Mof_F 	F 	0.9019	0.20164	0.35168	-0.268
Mof_F 	F 	0.35514	0.06959	0.32113	-0.276
Mof_F 	F 	0.12187	0.98945	0.32241	-0.258
Mof_F 	F 	0.6588	0.91872	0.73107	-0.272
Mof_F 	F 	0.43167	0.60901	0.66257	-0.325
Mof_F 	F 	0.24782	0.82017	0.15124	-0.267
Mof_F 	F 	0.86831	0.02197	0.34475	-0.267
Mof_F 	F 	0.8167	0.29706	0.95124	-0.254
Mof_F 	F 	0.32443	0.88492	0.16644	-0.255
Mof_F 	F 	0.19772	0.05195	0.30306	-0.249
Mof_F 	F 	0.57861	0.96809	0.74512	-0.254
Mof_F 	F 	0.73967	0.30187	0.37228	-0.323
Mof_F 	F 	0.39236	0.07956	0.6074	-0.369
Mof_F 	F 	0.59051	0.06055	0.75447	-0.267
Mof_F 	F 	0.79476	0.39138	0.02359	-0.289
Mof_F 	F 	0.966	0.00284	0.64401	-0.295
Mof_F 	F 	0.38302	0.05182	0.19947	-0.266
Mof_F 	F 	0.2875	0.05052	0.25019	-0.245
Mof_F 	F 	0.52692	0.03325	0.68802	-0.254
Mof_F 	F 	0.44615	0.47552	0.47206	-0.324
Mof_F 	F 	0.38783	0.8564	0.73614	-0.277
Mof_F 	F 	0.90244	0.35744	0.9925	-0.27
Mof_F 	F 	0.2483	0.41367	0.12603	-0.32
Mof_F 	F 	0.39312	0.30756	0.13408	-0.276
Mof_F 	F 	0.24672	0.64558	0.96551	-0.314
Mof_F 	F 	0.2823	0.33071	0.16936	-0.294
Mof_F 	F 	0.4394	0.63471	0.73961	-0.358
Mof_F 	F 	0.80802	0.72174	0.01342	-0.235
Mof_F 	F 	0.66866	0.97393	0.64376	-0.25
Mof_F 	F 	0.326	0.72578	0.71706	-0.236
Mof_F 	F 	0.90078	0.27253	0.37283	-0.285
Mof_F 	F 	0.54777	0.65394	0.63364	-0.271
_end
