data_functionalizedCrystal
_audit_creation_method	'EQeq! by Chris Wilmer'
_symmetry_space_group_name_H-M	'P1'
_symmetry_Int_Tables_number	1
_symmetry_cell_setting	triclinic
loop_
_symmetry_equiv_pos_as_xyz
  x,y,z
_cell_length_a	9.0362
_cell_length_b	17.484
_cell_length_c	24.772
_cell_angle_alpha	69.717
_cell_angle_beta	84.873
_cell_angle_gamma	82.904
loop_
_atom_site_label
_atom_site_type_symbol
_atom_site_fract_x
_atom_site_fract_y
_atom_site_fract_z
_atom_site_charge
Mof_Ba	Ba	0.74853	0.81612	0.68982	1.847
Mof_Ba	Ba	0.24832	0.73573	0.76987	1.886
Mof_O 	O 	0.5431	0.7831	0.7887	-0.498
Mof_O 	O 	0.6457	0.711	0.6402	-0.438
Mof_O 	O 	0.351	0.8183	0.839	-0.379
Mof_O 	O 	0.4507	0.7726	0.673	-0.513
Mof_O 	O 	0.5951	0.0176	0.7401	-0.53
Mof_H 	H 	0.6801	0.9968	0.7363	0.307
Mof_O 	O 	0.0985	0.8744	0.8795	-0.515
Mof_H 	H 	0.0883	0.865	0.9143	0.278
Mof_O 	O 	0.851	0.9427	0.7177	-0.443
Mof_O 	O 	0.3966	0.775	0.1902	-0.126
Mof_O 	O 	0.4547	0.6059	0.7788	-0.497
Mof_O 	O 	0.5276	0.7012	0.1248	-0.154
Mof_O 	O 	0.5451	0.9509	0.6833	-0.477
Mof_O 	O 	0.0999	0.0784	0.957	-0.149
Mof_C 	C 	0.507	0.7265	0.6465	0.38
Mof_O 	O 	0.8936	0.437	0.5452	-0.129
Mof_O 	O 	0.3999	0.4985	0.76	-0.542
Mof_H 	H 	0.316	0.5232	0.7577	0.313
Mof_O 	O 	0.4002	0.2872	0.6957	-0.13
Mof_C 	C 	0.363	0.5967	0.5699	-0.012
Mof_O 	O 	0.5448	0.2066	0.6352	-0.157
Mof_O 	O 	0.9632	0.2116	0.9657	-0.176
Mof_C 	C 	0.4558	0.4598	0.5587	0.024
Mof_O 	O 	0.0336	0.3038	0.5379	-0.154
Mof_C 	C 	0.6343	0.9129	0.923	-0.015
Mof_C 	C 	0.405	0.6873	0.6211	-0.162
Mof_C 	C 	0.4872	0.813	0.8258	0.369
Mof_C 	C 	0.7854	0.8981	0.9143	0.026
Mof_H 	H 	0.8504	0.9168	0.9329	0.032
Mof_C 	C 	0.245	0.9662	0.7128	0.091
Mof_H 	H 	0.2832	0.9222	0.7012	-0.05
Mof_C 	C 	0.4583	0.6328	0.5938	0.01
Mof_H 	H 	0.5608	0.6193	0.5909	0.033
Mof_C 	C 	0.0228	0.2501	0.697	0.027
Mof_C 	C 	0.2104	0.6142	0.5763	0.01
Mof_H 	H 	0.1452	0.5887	0.5626	0.056
Mof_C 	C 	0.5913	0.8417	0.858	-0.15
Mof_C 	C 	0.1342	0.1042	0.7408	-0.01
Mof_C 	C 	0.5255	0.913	0.0204	0.034
Mof_C 	C 	0.4297	0.5464	0.5344	-0.03
Mof_C 	C 	0.2521	0.7076	0.6251	0.09
Mof_H 	H 	0.2146	0.7462	0.6421	-0.051
Mof_C 	C 	0.9525	0.3253	0.7013	0.026
Mof_C 	C 	0.0908	0.9817	0.7216	-0.154
Mof_C 	C 	0.5384	0.8839	0.895	0.007
Mof_H 	H 	0.4359	0.8931	0.9015	0.045
Mof_C 	C 	0.5438	0.044	0.9417	0.028
Mof_C 	C 	0.5276	0.4151	0.5238	0.028
Mof_C 	C 	0.9888	0.9251	0.7139	0.385
Mof_C 	C 	0.5685	0.9584	0.9633	-0.037
Mof_C 	C 	0.0681	0.184	0.7475	-0.032
Mof_C 	C 	0.7547	0.5689	0.7664	0.102
Mof_H 	H 	0.7178	0.6195	0.7693	-0.04
Mof_C 	C 	0.0414	0.1937	0.8015	0.027
Mof_C 	C 	0.7442	0.8277	0.8497	0.115
Mof_H 	H 	0.7819	0.7995	0.825	-0.048
Mof_C 	C 	0.0377	0.0521	0.734	0.009
Mof_H 	H 	0.9352	0.0649	0.7379	0.036
Mof_C 	C 	0.9062	0.5497	0.762	-0.152
Mof_C 	C 	0.2853	0.0856	0.7353	0.015
Mof_H 	H 	0.3503	0.1193	0.7407	0.056
Mof_C 	C 	0.9721	0.2687	0.8061	0.029
Mof_C 	C 	0.8615	0.4154	0.7606	-0.01
Mof_C 	C 	0.9281	0.3343	0.7561	-0.032
Mof_C 	C 	0.9596	0.4719	0.7597	0.006
Mof_H 	H 	0.0621	0.4576	0.7575	0.036
Mof_C 	C 	0.1545	0.6707	0.6038	-0.155
Mof_C 	C 	0.9324	0.3801	0.5974	0.096
Mof_C 	C 	0.4105	0.4167	0.6175	-0.126
Mof_H 	H 	0.3612	0.4457	0.6401	0.087
Mof_C 	C 	0.0056	0.3055	0.5931	0.093
Mof_C 	C 	0.4349	0.8262	0.135	0.087
Mof_C 	C 	0.4388	0.3344	0.6402	0.091
Mof_C 	C 	0.0512	0.2427	0.6416	-0.124
Mof_H 	H 	0.1014	0.1947	0.6381	0.081
Mof_C 	C 	0.558	0.3268	0.5503	-0.128
Mof_H 	H 	0.6066	0.2962	0.5287	0.083
Mof_C 	C 	0.4111	0.909	0.1153	-0.126
Mof_H 	H 	0.3641	0.9356	0.1398	0.089
Mof_C 	C 	0.646	0.1627	0.607	-0.197
Mof_H 	H 	0.6009	0.1597	0.5742	0.082
Mof_H 	H 	0.6715	0.1083	0.6331	0.096
Mof_H 	H 	0.7351	0.1903	0.5943	0.093
Mof_C 	C 	0.0859	0.1291	0.8537	-0.135
Mof_H 	H 	0.1332	0.0801	0.851	0.093
Mof_C 	C 	0.7112	0.4355	0.7642	0.014
Mof_H 	H 	0.6456	0.398	0.765	0.056
Mof_C 	C 	0.5498	0.8259	0.0445	-0.135
Mof_H 	H 	0.5966	0.797	0.0214	0.084
Mof_C 	C 	0.5038	0.9917	0.7139	0.453
Mof_C 	C 	0.33	0.3284	0.7326	-0.301
Mof_H 	H 	0.2357	0.3559	0.7179	0.133
Mof_H 	H 	0.3926	0.3679	0.7345	0.153
Mof_H 	H 	0.3142	0.2895	0.7705	0.147
Mof_C 	C 	0.3416	0.0168	0.7216	-0.152
Mof_C 	C 	0.99	0.2102	0.9112	0.098
Mof_C 	C 	0.0622	0.1364	0.9059	0.101
Mof_C 	C 	0.6551	0.5137	0.7667	-0.169
Mof_C 	C 	0.1646	0.0015	0.9552	-0.242
Mof_H 	H 	0.1012	0.9809	0.9354	0.116
Mof_H 	H 	0.1759	0.9638	0.9937	0.123
Mof_H 	H 	0.2607	0.0076	0.9351	0.116
Mof_C 	C 	0.5075	0.7841	0.0991	0.105
Mof_C 	C 	0.9086	0.3893	0.6491	-0.132
Mof_H 	H 	0.8622	0.4388	0.6512	0.091
Mof_C 	C 	0.8428	0.8547	0.8774	-0.198
Mof_C 	C 	0.0037	0.8365	0.8641	0.487
Mof_C 	C 	0.8256	0.5132	0.5457	-0.298
Mof_H 	H 	0.803	0.5476	0.5072	0.146
Mof_H 	H 	0.8922	0.5386	0.5608	0.153
Mof_H 	H 	0.735	0.5056	0.5696	0.131
Mof_C 	C 	0.3274	0.8143	0.2289	-0.309
Mof_H 	H 	0.237	0.8462	0.2133	0.136
Mof_H 	H 	0.3941	0.8495	0.2342	0.157
Mof_H 	H 	0.3045	0.7736	0.2654	0.149
Mof_C 	C 	0.9452	0.2751	0.8623	-0.123
Mof_H 	H 	0.8972	0.3233	0.8662	0.082
Mof_C 	C 	0.5161	0.2885	0.6064	0.1
Mof_C 	C 	0.4946	0.5427	0.7693	0.476
Mof_C 	C 	0.133	0.2374	0.532	-0.208
Mof_H 	H 	0.1599	0.2474	0.4919	0.098
Mof_H 	H 	0.085	0.1878	0.5476	0.086
Mof_H 	H 	0.2211	0.2322	0.5524	0.096
Mof_C 	C 	0.629	0.6582	0.0961	-0.215
Mof_H 	H 	0.5838	0.6568	0.0628	0.089
Mof_H 	H 	0.6524	0.6033	0.1216	0.102
Mof_H 	H 	0.7181	0.6854	0.0844	0.1
Mof_O 	O 	0.0452	0.8634	0.7026	-0.511
Mof_O 	O 	0.9537	0.6845	0.7539	-0.496
Mof_O 	O 	0.9011	0.6425	0.6119	-0.525
Mof_H 	H 	0.8146	0.6599	0.6173	0.306
Mof_O 	O 	0.9503	0.7614	0.6178	-0.484
Mof_O 	O 	0.1464	0.5911	0.7621	-0.434
Mof_O 	O 	0.0429	0.7903	0.8386	-0.489
Mof_C 	C 	0.0104	0.6122	0.7586	0.375
Mof_C 	C 	0.9924	0.6968	0.6119	0.448
Mof_C 	C 	0.859	0.2695	0.9764	-0.157
Mof_H 	H 	0.7655	0.2674	0.9616	0.083
Mof_H 	H 	0.8923	0.3229	0.9578	0.071
Mof_H 	H 	0.8464	0.2586	0.0172	0.069
Mof_Ba	Ba	0.25147	0.18388	0.31018	1.846
Mof_Ba	Ba	0.75168	0.26427	0.23013	1.885
Mof_O 	O 	0.4569	0.2169	0.2113	-0.499
Mof_O 	O 	0.3543	0.289	0.3598	-0.439
Mof_O 	O 	0.649	0.1817	0.161	-0.38
Mof_O 	O 	0.5493	0.2274	0.327	-0.514
Mof_O 	O 	0.4049	0.9824	0.2599	-0.53
Mof_H 	H 	0.3199	0.0032	0.2637	0.307
Mof_O 	O 	0.9015	0.1256	0.1205	-0.515
Mof_H 	H 	0.9117	0.135	0.0857	0.278
Mof_O 	O 	0.149	0.0573	0.2823	-0.443
Mof_O 	O 	0.6034	0.225	0.8098	-0.126
Mof_O 	O 	0.5453	0.3941	0.2212	-0.497
Mof_O 	O 	0.4724	0.2988	0.8752	-0.154
Mof_O 	O 	0.4549	0.0491	0.3167	-0.477
Mof_O 	O 	0.9001	0.9216	0.043	-0.149
Mof_C 	C 	0.493	0.2735	0.3535	0.38
Mof_O 	O 	0.1064	0.563	0.4548	-0.129
Mof_O 	O 	0.6001	0.5015	0.24	-0.542
Mof_H 	H 	0.684	0.4768	0.2423	0.313
Mof_O 	O 	0.5998	0.7128	0.3043	-0.13
Mof_C 	C 	0.637	0.4033	0.4301	-0.012
Mof_O 	O 	0.4552	0.7934	0.3648	-0.157
Mof_O 	O 	0.0368	0.7884	0.0343	-0.176
Mof_C 	C 	0.5442	0.5402	0.4413	0.024
Mof_O 	O 	0.9664	0.6962	0.4621	-0.154
Mof_C 	C 	0.3657	0.0871	0.077	-0.015
Mof_C 	C 	0.595	0.3127	0.3789	-0.162
Mof_C 	C 	0.5128	0.187	0.1742	0.369
Mof_C 	C 	0.2146	0.1019	0.0857	0.026
Mof_H 	H 	0.1496	0.0832	0.0671	0.032
Mof_C 	C 	0.755	0.0338	0.2872	0.091
Mof_H 	H 	0.7168	0.0778	0.2988	-0.05
Mof_C 	C 	0.5417	0.3672	0.4062	0.01
Mof_H 	H 	0.4392	0.3807	0.4091	0.033
Mof_C 	C 	0.9772	0.7499	0.303	0.027
Mof_C 	C 	0.7896	0.3858	0.4237	0.01
Mof_H 	H 	0.8548	0.4113	0.4374	0.056
Mof_C 	C 	0.4087	0.1583	0.142	-0.15
Mof_C 	C 	0.8658	0.8958	0.2592	-0.01
Mof_C 	C 	0.4745	0.087	0.9796	0.034
Mof_C 	C 	0.5703	0.4536	0.4656	-0.03
Mof_C 	C 	0.7479	0.2924	0.3749	0.09
Mof_H 	H 	0.7854	0.2538	0.3579	-0.051
Mof_C 	C 	0.0475	0.6747	0.2987	0.026
Mof_C 	C 	0.9092	0.0183	0.2784	-0.154
Mof_C 	C 	0.4616	0.1161	0.105	0.007
Mof_H 	H 	0.5641	0.1069	0.0985	0.045
Mof_C 	C 	0.4562	0.956	0.0583	0.028
Mof_C 	C 	0.4724	0.5849	0.4762	0.028
Mof_C 	C 	0.0112	0.0749	0.2861	0.385
Mof_C 	C 	0.4315	0.0416	0.0367	-0.037
Mof_C 	C 	0.9319	0.816	0.2525	-0.032
Mof_C 	C 	0.2453	0.4311	0.2336	0.102
Mof_H 	H 	0.2822	0.3805	0.2307	-0.04
Mof_C 	C 	0.9586	0.8063	0.1985	0.027
Mof_C 	C 	0.2558	0.1723	0.1503	0.115
Mof_H 	H 	0.2181	0.2005	0.175	-0.048
Mof_C 	C 	0.9623	0.9479	0.266	0.009
Mof_H 	H 	0.0648	0.9351	0.2621	0.036
Mof_C 	C 	0.0938	0.4503	0.238	-0.152
Mof_C 	C 	0.7147	0.9144	0.2647	0.015
Mof_H 	H 	0.6497	0.8807	0.2593	0.056
Mof_C 	C 	0.0279	0.7313	0.1939	0.029
Mof_C 	C 	0.1385	0.5846	0.2394	-0.01
Mof_C 	C 	0.0719	0.6657	0.2439	-0.032
Mof_C 	C 	0.0404	0.5281	0.2403	0.006
Mof_H 	H 	0.9379	0.5424	0.2425	0.036
Mof_C 	C 	0.8455	0.3293	0.3962	-0.155
Mof_C 	C 	0.0676	0.6199	0.4026	0.096
Mof_C 	C 	0.5895	0.5833	0.3825	-0.126
Mof_H 	H 	0.6388	0.5543	0.3599	0.087
Mof_C 	C 	0.9944	0.6945	0.4069	0.093
Mof_C 	C 	0.5651	0.1738	0.865	0.087
Mof_C 	C 	0.5612	0.6656	0.3598	0.091
Mof_C 	C 	0.9488	0.7573	0.3584	-0.124
Mof_H 	H 	0.8986	0.8053	0.3619	0.081
Mof_C 	C 	0.442	0.6732	0.4497	-0.128
Mof_H 	H 	0.3934	0.7038	0.4713	0.083
Mof_C 	C 	0.5889	0.091	0.8847	-0.126
Mof_H 	H 	0.6359	0.0644	0.8602	0.089
Mof_C 	C 	0.354	0.8373	0.393	-0.197
Mof_H 	H 	0.3991	0.8403	0.4258	0.082
Mof_H 	H 	0.3285	0.8917	0.3669	0.096
Mof_H 	H 	0.2649	0.8097	0.4057	0.093
Mof_C 	C 	0.9141	0.8709	0.1463	-0.135
Mof_H 	H 	0.8668	0.9199	0.149	0.093
Mof_C 	C 	0.2888	0.5645	0.2358	0.014
Mof_H 	H 	0.3544	0.602	0.235	0.056
Mof_C 	C 	0.4502	0.1741	0.9555	-0.135
Mof_H 	H 	0.4034	0.203	0.9786	0.084
Mof_C 	C 	0.4962	0.0083	0.2861	0.453
Mof_C 	C 	0.67	0.6716	0.2674	-0.301
Mof_H 	H 	0.7643	0.6441	0.2821	0.133
Mof_H 	H 	0.6074	0.6321	0.2655	0.153
Mof_H 	H 	0.6858	0.7105	0.2295	0.147
Mof_C 	C 	0.6584	0.9832	0.2784	-0.152
Mof_C 	C 	0.01	0.7898	0.0888	0.098
Mof_C 	C 	0.9378	0.8636	0.0941	0.101
Mof_C 	C 	0.3449	0.4863	0.2333	-0.169
Mof_C 	C 	0.8354	0.9985	0.0448	-0.242
Mof_H 	H 	0.8988	0.0191	0.0646	0.116
Mof_H 	H 	0.8241	0.0362	0.0063	0.123
Mof_H 	H 	0.7393	0.9924	0.0649	0.116
Mof_C 	C 	0.4925	0.2159	0.9009	0.105
Mof_C 	C 	0.0914	0.6107	0.3509	-0.132
Mof_H 	H 	0.1378	0.5612	0.3488	0.091
Mof_C 	C 	0.1572	0.1453	0.1226	-0.198
Mof_C 	C 	0.9963	0.1635	0.1359	0.487
Mof_C 	C 	0.1744	0.4868	0.4543	-0.298
Mof_H 	H 	0.197	0.4524	0.4928	0.146
Mof_H 	H 	0.1078	0.4614	0.4392	0.153
Mof_H 	H 	0.265	0.4944	0.4304	0.131
Mof_C 	C 	0.6726	0.1857	0.7711	-0.309
Mof_H 	H 	0.763	0.1538	0.7867	0.136
Mof_H 	H 	0.6059	0.1505	0.7658	0.157
Mof_H 	H 	0.6955	0.2264	0.7346	0.149
Mof_C 	C 	0.0548	0.7249	0.1377	-0.123
Mof_H 	H 	0.1028	0.6767	0.1338	0.082
Mof_C 	C 	0.4839	0.7115	0.3936	0.1
Mof_C 	C 	0.5054	0.4573	0.2307	0.476
Mof_C 	C 	0.867	0.7626	0.468	-0.208
Mof_H 	H 	0.8401	0.7526	0.5081	0.098
Mof_H 	H 	0.915	0.8122	0.4524	0.086
Mof_H 	H 	0.7789	0.7678	0.4476	0.096
Mof_C 	C 	0.371	0.3418	0.9039	-0.215
Mof_H 	H 	0.4162	0.3432	0.9372	0.089
Mof_H 	H 	0.3476	0.3967	0.8784	0.102
Mof_H 	H 	0.2819	0.3146	0.9156	0.1
Mof_O 	O 	0.9548	0.1366	0.2974	-0.511
Mof_O 	O 	0.0463	0.3155	0.2461	-0.496
Mof_O 	O 	0.0989	0.3575	0.3881	-0.525
Mof_H 	H 	0.1854	0.3401	0.3827	0.306
Mof_O 	O 	0.0497	0.2386	0.3822	-0.484
Mof_O 	O 	0.8536	0.4089	0.2379	-0.434
Mof_O 	O 	0.9571	0.2097	0.1614	-0.489
Mof_C 	C 	0.9896	0.3878	0.2414	0.375
Mof_C 	C 	0.0076	0.3032	0.3881	0.448
Mof_C 	C 	0.141	0.7305	0.0236	-0.157
Mof_H 	H 	0.2345	0.7326	0.0384	0.083
Mof_H 	H 	0.1077	0.6771	0.0422	0.071
Mof_H 	H 	0.1536	0.7414	0.9828	0.069
_end
