data_functionalizedCrystal
_audit_creation_method	'EQeq! by Chris Wilmer'
_symmetry_space_group_name_H-M	'P1'
_symmetry_Int_Tables_number	1
_symmetry_cell_setting	triclinic
loop_
_symmetry_equiv_pos_as_xyz
  x,y,z
_cell_length_a	21.8567
_cell_length_b	11.5525
_cell_length_c	21.4604
_cell_angle_alpha	90
_cell_angle_beta	117.611
_cell_angle_gamma	90
loop_
_atom_site_label
_atom_site_type_symbol
_atom_site_fract_x
_atom_site_fract_y
_atom_site_fract_z
_atom_site_charge
Mof_Cu	Cu	0.74493	0.3263	0.4194	0.831
Mof_Cu	Cu	0.75677	0.30125	0.60247	0.858
Mof_N 	N 	0.79112	0.4561	0.48675	-0.207
Mof_N 	N 	0.78699	0.46706	0.54803	-0.155
Mof_N 	N 	0.84907	0.61079	0.53973	-0.171
Mof_N 	N 	0.79626	0.20053	0.49529	-0.208
Mof_N 	N 	0.78872	0.18071	0.5549	-0.2
Mof_N 	N 	0.84942	0.03911	0.54394	-0.171
Mof_N 	N 	0.14259	0.81029	0.82263	-0.198
Mof_N 	N 	0.09019	0.8199	0.84177	-0.108
Mof_N 	N 	0.0444	0.82214	0.72592	-0.173
Mof_N 	N 	0.97355	0.82778	0.52902	-0.047
Mof_N 	N 	0.65948	0.29143	0.45152	-0.179
Mof_N 	N 	0.66216	0.2937	0.51753	-0.204
Mof_N 	N 	0.55565	0.25648	0.43952	-0.172
Mof_N 	N 	0.31238	0.94719	0.1511	-0.214
Mof_N 	N 	0.36167	0.0056	0.14051	-0.111
Mof_N 	N 	0.36462	0.06625	0.23905	-0.174
Mof_N 	N 	0.27328	0.57805	0.35149	-0.208
Mof_N 	N 	0.24677	0.5636	0.27962	-0.122
Mof_N 	N 	0.32019	0.42311	0.33558	-0.172
Mof_N 	N 	0.38853	0.13222	0.42148	-0.047
Mof_C 	C 	0.82733	0.5422	0.48172	0.1
Mof_H 	H 	0.8369	0.5549	0.4439	-0.031
Mof_C 	C 	0.82225	0.5606	0.57948	0.097
Mof_H 	H 	0.8282	0.5888	0.623	-0.009
Mof_C 	C 	0.89245	0.7169	0.55734	0.222
Mof_C 	C 	0.84571	0.8248	0.54238	-0.336
Mof_H 	H 	0.8106	0.8259	0.4929	0.126
Mof_H 	H 	0.8223	0.8236	0.5718	0.125
Mof_C 	C 	0.89246	0.9326	0.55935	0.229
Mof_C 	C 	0.94637	0.9331	0.63702	-0.339
Mof_H 	H 	0.9234	0.9326	0.6669	0.126
Mof_H 	H 	0.975	0.0029	0.6477	0.13
Mof_C 	C 	0.9919	0.8238	0.6513	0.223
Mof_C 	C 	0.94693	0.7136	0.63556	-0.335
Mof_H 	H 	0.9758	0.6443	0.645	0.126
Mof_H 	H 	0.9241	0.7113	0.6655	0.126
Mof_C 	C 	0.93025	0.7226	0.5117	-0.184
Mof_H 	H 	0.9593	0.6538	0.5203	0.079
Mof_H 	H 	0.8963	0.7237	0.4618	0.08
Mof_C 	C 	0.9288	0.9314	0.51279	-0.194
Mof_H 	H 	0.8943	0.9303	0.4631	0.083
Mof_H 	H 	0.9568	0.0015	0.5213	0.089
Mof_C 	C 	0.02636	0.8271	0.60304	-0.183
Mof_H 	H 	0.0551	0.8967	0.6131	0.08
Mof_H 	H 	0.0562	0.7593	0.6121	0.073
Mof_C 	C 	0.82089	0.0838	0.58321	0.098
Mof_H 	H 	0.8238	0.0503	0.6244	-0.03
Mof_C 	C 	0.83244	0.1153	0.48987	0.092
Mof_H 	H 	0.8451	0.1073	0.4538	-0.034
Mof_C 	C 	0.11368	0.8115	0.75369	0.1
Mof_H 	H 	0.1379	0.8058	0.7272	-0.026
Mof_C 	C 	0.03266	0.8267	0.78314	0.092
Mof_H 	H 	0.9887	0.8338	0.7806	-0.01
Mof_C 	C 	0.59554	0.2688	0.40606	0.094
Mof_H 	H 	0.5792	0.2619	0.3573	-0.025
Mof_C 	C 	0.59944	0.2734	0.50877	0.097
Mof_H 	H 	0.5868	0.271	0.5451	-0.026
Mof_C 	C 	0.48039	0.2321	0.40544	0.227
Mof_C 	C 	0.46091	0.1627	0.33755	-0.343
Mof_H 	H 	0.4706	0.2085	0.3047	0.126
Mof_H 	H 	0.4881	0.0913	0.3484	0.126
Mof_C 	C 	0.38378	0.134	0.3045	0.229
Mof_C 	C 	0.34073	0.246	0.28464	-0.341
Mof_H 	H 	0.2914	0.2276	0.2628	0.126
Mof_H 	H 	0.3498	0.2913	0.2512	0.126
Mof_C 	C 	0.362	0.3152	0.35307	0.227
Mof_C 	C 	0.43916	0.3463	0.38785	-0.341
Mof_H 	H 	0.4517	0.3911	0.4309	0.127
Mof_H 	H 	0.4494	0.393	0.3557	0.128
Mof_C 	C 	0.46286	0.1592	0.45544	-0.188
Mof_H 	H 	0.4896	0.0872	0.4675	0.082
Mof_H 	H 	0.4754	0.2024	0.499	0.081
Mof_C 	C 	0.36852	0.0637	0.35641	-0.188
Mof_H 	H 	0.3192	0.045	0.335	0.075
Mof_H 	H 	0.3945	0.991	0.3678	0.077
Mof_C 	C 	0.34738	0.2405	0.40444	-0.189
Mof_H 	H 	0.3593	0.2842	0.4477	0.085
Mof_H 	H 	0.2981	0.2216	0.383	0.082
Mof_C 	C 	0.31495	0.9849	0.20956	0.096
Mof_H 	H 	0.2863	0.959	0.2285	-0.039
Mof_C 	C 	0.3918	0.0762	0.1939	0.091
Mof_H 	H 	0.4277	0.1272	0.2002	-0.01
Mof_C 	C 	0.31715	0.4951	0.38386	0.094
Mof_H 	H 	0.3426	0.4867	0.4329	-0.016
Mof_C 	C 	0.27617	0.4696	0.27235	0.09
Mof_H 	H 	0.2678	0.438	0.2287	-0.014
Mof_Cu	Cu	0.25507	0.8263	0.0806	0.832
Mof_Cu	Cu	0.24323	0.80125	0.89753	0.859
Mof_N 	N 	0.20888	0.9561	0.01325	-0.206
Mof_N 	N 	0.21301	0.96706	0.95197	-0.153
Mof_N 	N 	0.15093	0.11079	0.96027	-0.17
Mof_N 	N 	0.20374	0.70053	0.00471	-0.208
Mof_N 	N 	0.21128	0.68071	0.9451	-0.2
Mof_N 	N 	0.15058	0.53911	0.95606	-0.17
Mof_N 	N 	0.85741	0.31029	0.67737	-0.198
Mof_N 	N 	0.90981	0.3199	0.65823	-0.107
Mof_N 	N 	0.9556	0.32214	0.77408	-0.174
Mof_N 	N 	0.02645	0.32778	0.97098	-0.046
Mof_N 	N 	0.34052	0.79143	0.04848	-0.179
Mof_N 	N 	0.33784	0.7937	0.98247	-0.204
Mof_N 	N 	0.44435	0.75648	0.06048	-0.172
Mof_N 	N 	0.68762	0.44719	0.3489	-0.214
Mof_N 	N 	0.63833	0.5056	0.35949	-0.111
Mof_N 	N 	0.63538	0.56625	0.26095	-0.175
Mof_N 	N 	0.72672	0.07805	0.14851	-0.208
Mof_N 	N 	0.75323	0.0636	0.22038	-0.121
Mof_N 	N 	0.67981	0.92311	0.16442	-0.172
Mof_N 	N 	0.61147	0.63222	0.07852	-0.047
Mof_C 	C 	0.17267	0.0422	0.01828	0.099
Mof_H 	H 	0.1631	0.0549	0.0561	-0.03
Mof_C 	C 	0.17775	0.0606	0.92052	0.096
Mof_H 	H 	0.1718	0.0888	0.877	-0.009
Mof_C 	C 	0.10755	0.2169	0.94266	0.221
Mof_C 	C 	0.15429	0.3248	0.95762	-0.334
Mof_H 	H 	0.1894	0.3259	0.0071	0.124
Mof_H 	H 	0.1777	0.3236	0.9282	0.124
Mof_C 	C 	0.10754	0.4326	0.94065	0.228
Mof_C 	C 	0.05363	0.4331	0.86298	-0.34
Mof_H 	H 	0.0766	0.4326	0.8331	0.126
Mof_H 	H 	0.025	0.5029	0.8523	0.131
Mof_C 	C 	0.0081	0.3238	0.8487	0.226
Mof_C 	C 	0.05307	0.2136	0.86444	-0.336
Mof_H 	H 	0.0242	0.1443	0.855	0.126
Mof_H 	H 	0.0759	0.2113	0.8345	0.126
Mof_C 	C 	0.06975	0.2226	0.9883	-0.181
Mof_H 	H 	0.0407	0.1538	0.9797	0.078
Mof_H 	H 	0.1037	0.2237	0.0382	0.079
Mof_C 	C 	0.0712	0.4314	0.98721	-0.191
Mof_H 	H 	0.1057	0.4303	0.0369	0.082
Mof_H 	H 	0.0432	0.5015	0.9787	0.088
Mof_C 	C 	0.97364	0.3271	0.89696	-0.188
Mof_H 	H 	0.9449	0.3967	0.8869	0.08
Mof_H 	H 	0.9438	0.2593	0.8879	0.073
Mof_C 	C 	0.17911	0.5838	0.91679	0.098
Mof_H 	H 	0.1762	0.5503	0.8756	-0.03
Mof_C 	C 	0.16756	0.6153	0.01013	0.09
Mof_H 	H 	0.1549	0.6073	0.0462	-0.034
Mof_C 	C 	0.88632	0.3115	0.74631	0.1
Mof_H 	H 	0.8621	0.3058	0.7728	-0.026
Mof_C 	C 	0.96734	0.3267	0.71686	0.089
Mof_H 	H 	0.0113	0.3338	0.7194	-0.008
Mof_C 	C 	0.40446	0.7688	0.09394	0.094
Mof_H 	H 	0.4208	0.7619	0.1427	-0.025
Mof_C 	C 	0.40056	0.7734	0.99123	0.097
Mof_H 	H 	0.4132	0.771	0.9549	-0.026
Mof_C 	C 	0.51961	0.7321	0.09456	0.227
Mof_C 	C 	0.53909	0.6627	0.16245	-0.342
Mof_H 	H 	0.5294	0.7085	0.1953	0.126
Mof_H 	H 	0.5119	0.5913	0.1516	0.126
Mof_C 	C 	0.61622	0.634	0.1955	0.229
Mof_C 	C 	0.65927	0.746	0.21536	-0.341
Mof_H 	H 	0.7086	0.7276	0.2372	0.126
Mof_H 	H 	0.6502	0.7913	0.2488	0.126
Mof_C 	C 	0.638	0.8152	0.14693	0.227
Mof_C 	C 	0.56084	0.8463	0.11215	-0.341
Mof_H 	H 	0.5483	0.8911	0.0691	0.127
Mof_H 	H 	0.5506	0.893	0.1443	0.128
Mof_C 	C 	0.53714	0.6592	0.04456	-0.188
Mof_H 	H 	0.5104	0.5872	0.0325	0.081
Mof_H 	H 	0.5246	0.7024	0.001	0.081
Mof_C 	C 	0.63148	0.5637	0.14359	-0.188
Mof_H 	H 	0.6808	0.545	0.165	0.075
Mof_H 	H 	0.6055	0.491	0.1322	0.077
Mof_C 	C 	0.65262	0.7405	0.09556	-0.189
Mof_H 	H 	0.6407	0.7842	0.0523	0.085
Mof_H 	H 	0.7019	0.7216	0.117	0.082
Mof_C 	C 	0.68505	0.4849	0.29044	0.096
Mof_H 	H 	0.7137	0.459	0.2715	-0.039
Mof_C 	C 	0.6082	0.5762	0.3061	0.091
Mof_H 	H 	0.5723	0.6272	0.2998	-0.01
Mof_C 	C 	0.68285	0.9951	0.11614	0.094
Mof_H 	H 	0.6574	0.9867	0.0671	-0.016
Mof_C 	C 	0.72383	0.9696	0.22765	0.09
Mof_H 	H 	0.7322	0.938	0.2713	-0.014
Mof_Cu	Cu	0.25507	0.6737	0.5806	0.832
Mof_Cu	Cu	0.24323	0.69875	0.39753	0.859
Mof_N 	N 	0.20888	0.5439	0.51325	-0.206
Mof_N 	N 	0.21301	0.53294	0.45197	-0.154
Mof_N 	N 	0.15093	0.38921	0.46027	-0.171
Mof_N 	N 	0.20374	0.79947	0.50471	-0.208
Mof_N 	N 	0.21128	0.81929	0.4451	-0.2
Mof_N 	N 	0.15058	0.96089	0.45606	-0.171
Mof_N 	N 	0.85741	0.18971	0.17737	-0.198
Mof_N 	N 	0.90981	0.1801	0.15823	-0.108
Mof_N 	N 	0.9556	0.17786	0.27408	-0.173
Mof_N 	N 	0.02645	0.17222	0.47098	-0.047
Mof_N 	N 	0.34052	0.70857	0.54848	-0.179
Mof_N 	N 	0.33784	0.7063	0.48247	-0.204
Mof_N 	N 	0.44435	0.74352	0.56048	-0.172
Mof_N 	N 	0.68762	0.05281	0.8489	-0.214
Mof_N 	N 	0.63833	0.9944	0.85949	-0.111
Mof_N 	N 	0.63538	0.93375	0.76095	-0.174
Mof_N 	N 	0.72672	0.42195	0.64851	-0.208
Mof_N 	N 	0.75323	0.4364	0.72038	-0.122
Mof_N 	N 	0.67981	0.57689	0.66442	-0.172
Mof_N 	N 	0.61147	0.86778	0.57852	-0.047
Mof_C 	C 	0.17267	0.4578	0.51828	0.1
Mof_H 	H 	0.1631	0.4451	0.5561	-0.031
Mof_C 	C 	0.17775	0.4394	0.42052	0.097
Mof_H 	H 	0.1718	0.4112	0.377	-0.009
Mof_C 	C 	0.10755	0.2831	0.44266	0.222
Mof_C 	C 	0.15429	0.1752	0.45762	-0.336
Mof_H 	H 	0.1894	0.1741	0.5071	0.126
Mof_H 	H 	0.1777	0.1764	0.4282	0.125
Mof_C 	C 	0.10754	0.0674	0.44065	0.229
Mof_C 	C 	0.05363	0.0669	0.36298	-0.339
Mof_H 	H 	0.0766	0.0674	0.3331	0.126
Mof_H 	H 	0.025	0.9971	0.3523	0.13
Mof_C 	C 	0.0081	0.1762	0.3487	0.223
Mof_C 	C 	0.05307	0.2864	0.36444	-0.335
Mof_H 	H 	0.0242	0.3557	0.355	0.126
Mof_H 	H 	0.0759	0.2887	0.3345	0.126
Mof_C 	C 	0.06975	0.2774	0.4883	-0.184
Mof_H 	H 	0.0407	0.3462	0.4797	0.079
Mof_H 	H 	0.1037	0.2763	0.5382	0.08
Mof_C 	C 	0.0712	0.0686	0.48721	-0.194
Mof_H 	H 	0.1057	0.0697	0.5369	0.083
Mof_H 	H 	0.0432	0.9985	0.4787	0.089
Mof_C 	C 	0.97364	0.1729	0.39696	-0.183
Mof_H 	H 	0.9449	0.1033	0.3869	0.08
Mof_H 	H 	0.9438	0.2407	0.3879	0.073
Mof_C 	C 	0.17911	0.9162	0.41679	0.098
Mof_H 	H 	0.1762	0.9497	0.3756	-0.03
Mof_C 	C 	0.16756	0.8847	0.51013	0.092
Mof_H 	H 	0.1549	0.8927	0.5462	-0.034
Mof_C 	C 	0.88632	0.1885	0.24631	0.1
Mof_H 	H 	0.8621	0.1942	0.2728	-0.026
Mof_C 	C 	0.96734	0.1733	0.21686	0.092
Mof_H 	H 	0.0113	0.1662	0.2194	-0.01
Mof_C 	C 	0.40446	0.7312	0.59394	0.094
Mof_H 	H 	0.4208	0.7381	0.6427	-0.025
Mof_C 	C 	0.40056	0.7266	0.49123	0.097
Mof_H 	H 	0.4132	0.729	0.4549	-0.026
Mof_C 	C 	0.51961	0.7679	0.59456	0.227
Mof_C 	C 	0.53909	0.8373	0.66245	-0.343
Mof_H 	H 	0.5294	0.7915	0.6953	0.126
Mof_H 	H 	0.5119	0.9087	0.6516	0.126
Mof_C 	C 	0.61622	0.866	0.6955	0.229
Mof_C 	C 	0.65927	0.754	0.71536	-0.341
Mof_H 	H 	0.7086	0.7724	0.7372	0.126
Mof_H 	H 	0.6502	0.7087	0.7488	0.126
Mof_C 	C 	0.638	0.6848	0.64693	0.227
Mof_C 	C 	0.56084	0.6537	0.61215	-0.341
Mof_H 	H 	0.5483	0.6089	0.5691	0.127
Mof_H 	H 	0.5506	0.607	0.6443	0.128
Mof_C 	C 	0.53714	0.8408	0.54456	-0.188
Mof_H 	H 	0.5104	0.9128	0.5325	0.082
Mof_H 	H 	0.5246	0.7976	0.501	0.081
Mof_C 	C 	0.63148	0.9363	0.64359	-0.188
Mof_H 	H 	0.6808	0.955	0.665	0.075
Mof_H 	H 	0.6055	0.009	0.6322	0.077
Mof_C 	C 	0.65262	0.7595	0.59556	-0.189
Mof_H 	H 	0.6407	0.7158	0.5523	0.085
Mof_H 	H 	0.7019	0.7784	0.617	0.082
Mof_C 	C 	0.68505	0.0151	0.79044	0.096
Mof_H 	H 	0.7137	0.041	0.7715	-0.039
Mof_C 	C 	0.6082	0.9238	0.8061	0.091
Mof_H 	H 	0.5723	0.8728	0.7998	-0.01
Mof_C 	C 	0.68285	0.5049	0.61614	0.094
Mof_H 	H 	0.6574	0.5133	0.5671	-0.016
Mof_C 	C 	0.72383	0.5304	0.72765	0.09
Mof_H 	H 	0.7322	0.562	0.7713	-0.014
Mof_Cu	Cu	0.74493	0.1737	0.9194	0.832
Mof_Cu	Cu	0.75677	0.19875	0.10247	0.859
Mof_N 	N 	0.79112	0.0439	0.98675	-0.206
Mof_N 	N 	0.78699	0.03294	0.04803	-0.153
Mof_N 	N 	0.84907	0.88921	0.03973	-0.17
Mof_N 	N 	0.79626	0.29947	0.99529	-0.208
Mof_N 	N 	0.78872	0.31929	0.0549	-0.2
Mof_N 	N 	0.84942	0.46089	0.04394	-0.17
Mof_N 	N 	0.14259	0.68971	0.32263	-0.198
Mof_N 	N 	0.09019	0.6801	0.34177	-0.107
Mof_N 	N 	0.0444	0.67786	0.22592	-0.174
Mof_N 	N 	0.97355	0.67222	0.02902	-0.046
Mof_N 	N 	0.65948	0.20857	0.95152	-0.179
Mof_N 	N 	0.66216	0.2063	0.01753	-0.204
Mof_N 	N 	0.55565	0.24352	0.93952	-0.172
Mof_N 	N 	0.31238	0.55281	0.6511	-0.214
Mof_N 	N 	0.36167	0.4944	0.64051	-0.111
Mof_N 	N 	0.36462	0.43375	0.73905	-0.175
Mof_N 	N 	0.27328	0.92195	0.85149	-0.208
Mof_N 	N 	0.24677	0.9364	0.77962	-0.121
Mof_N 	N 	0.32019	0.07689	0.83558	-0.172
Mof_N 	N 	0.38853	0.36778	0.92148	-0.047
Mof_C 	C 	0.82733	0.9578	0.98172	0.099
Mof_H 	H 	0.8369	0.9451	0.9439	-0.03
Mof_C 	C 	0.82225	0.9394	0.07948	0.096
Mof_H 	H 	0.8282	0.9112	0.123	-0.009
Mof_C 	C 	0.89245	0.7831	0.05734	0.221
Mof_C 	C 	0.84571	0.6752	0.04238	-0.334
Mof_H 	H 	0.8106	0.6741	0.9929	0.124
Mof_H 	H 	0.8223	0.6764	0.0718	0.124
Mof_C 	C 	0.89246	0.5674	0.05935	0.228
Mof_C 	C 	0.94637	0.5669	0.13702	-0.34
Mof_H 	H 	0.9234	0.5674	0.1669	0.126
Mof_H 	H 	0.975	0.4971	0.1477	0.131
Mof_C 	C 	0.9919	0.6762	0.1513	0.226
Mof_C 	C 	0.94693	0.7864	0.13556	-0.336
Mof_H 	H 	0.9758	0.8557	0.145	0.126
Mof_H 	H 	0.9241	0.7887	0.1655	0.126
Mof_C 	C 	0.93025	0.7774	0.0117	-0.181
Mof_H 	H 	0.9593	0.8462	0.0203	0.078
Mof_H 	H 	0.8963	0.7763	0.9618	0.079
Mof_C 	C 	0.9288	0.5686	0.01279	-0.191
Mof_H 	H 	0.8943	0.5697	0.9631	0.082
Mof_H 	H 	0.9568	0.4985	0.0213	0.088
Mof_C 	C 	0.02636	0.6729	0.10304	-0.188
Mof_H 	H 	0.0551	0.6033	0.1131	0.08
Mof_H 	H 	0.0562	0.7407	0.1121	0.073
Mof_C 	C 	0.82089	0.4162	0.08321	0.098
Mof_H 	H 	0.8238	0.4497	0.1244	-0.03
Mof_C 	C 	0.83244	0.3847	0.98987	0.09
Mof_H 	H 	0.8451	0.3927	0.9538	-0.034
Mof_C 	C 	0.11368	0.6885	0.25369	0.1
Mof_H 	H 	0.1379	0.6942	0.2272	-0.026
Mof_C 	C 	0.03266	0.6733	0.28314	0.089
Mof_H 	H 	0.9887	0.6662	0.2806	-0.008
Mof_C 	C 	0.59554	0.2312	0.90606	0.094
Mof_H 	H 	0.5792	0.2381	0.8573	-0.025
Mof_C 	C 	0.59944	0.2266	0.00877	0.097
Mof_H 	H 	0.5868	0.229	0.0451	-0.026
Mof_C 	C 	0.48039	0.2679	0.90544	0.227
Mof_C 	C 	0.46091	0.3373	0.83755	-0.342
Mof_H 	H 	0.4706	0.2915	0.8047	0.126
Mof_H 	H 	0.4881	0.4087	0.8484	0.126
Mof_C 	C 	0.38378	0.366	0.8045	0.229
Mof_C 	C 	0.34073	0.254	0.78464	-0.341
Mof_H 	H 	0.2914	0.2724	0.7628	0.126
Mof_H 	H 	0.3498	0.2087	0.7512	0.126
Mof_C 	C 	0.362	0.1848	0.85307	0.227
Mof_C 	C 	0.43916	0.1537	0.88785	-0.341
Mof_H 	H 	0.4517	0.1089	0.9309	0.127
Mof_H 	H 	0.4494	0.107	0.8557	0.128
Mof_C 	C 	0.46286	0.3408	0.95544	-0.188
Mof_H 	H 	0.4896	0.4128	0.9675	0.081
Mof_H 	H 	0.4754	0.2976	0.999	0.081
Mof_C 	C 	0.36852	0.4363	0.85641	-0.188
Mof_H 	H 	0.3192	0.455	0.835	0.075
Mof_H 	H 	0.3945	0.509	0.8678	0.077
Mof_C 	C 	0.34738	0.2595	0.90444	-0.189
Mof_H 	H 	0.3593	0.2158	0.9477	0.085
Mof_H 	H 	0.2981	0.2784	0.883	0.082
Mof_C 	C 	0.31495	0.5151	0.70956	0.096
Mof_H 	H 	0.2863	0.541	0.7285	-0.039
Mof_C 	C 	0.3918	0.4238	0.6939	0.091
Mof_H 	H 	0.4277	0.3728	0.7002	-0.01
Mof_C 	C 	0.31715	0.0049	0.88386	0.094
Mof_H 	H 	0.3426	0.0133	0.9329	-0.016
Mof_C 	C 	0.27617	0.0304	0.77235	0.09
Mof_H 	H 	0.2678	0.062	0.7287	-0.014
_end
