data_functionalizedCrystal
_audit_creation_method	'EQeq! by Chris Wilmer'
_symmetry_space_group_name_H-M	'P1'
_symmetry_Int_Tables_number	1
_symmetry_cell_setting	triclinic
loop_
_symmetry_equiv_pos_as_xyz
  x,y,z
_cell_length_a	25.9557
_cell_length_b	25.9557
_cell_length_c	25.9557
_cell_angle_alpha	90
_cell_angle_beta	90
_cell_angle_gamma	90
loop_
_atom_site_label
_atom_site_type_symbol
_atom_site_fract_x
_atom_site_fract_y
_atom_site_fract_z
_atom_site_charge
Mof_O 	O 	0.3198	0.2481	0.9428	-0.395
Mof_O 	O 	0.3198	0.7481	0.4428	-0.463
Mof_O 	O 	0.8198	0.2481	0.4428	-0.459
Mof_O 	O 	0.8198	0.7481	0.9428	-0.388
Mof_O 	O 	0.6802	0.7519	0.9428	-0.392
Mof_O 	O 	0.6802	0.2519	0.4428	-0.464
Mof_O 	O 	0.1802	0.7519	0.4428	-0.465
Mof_O 	O 	0.1802	0.2519	0.9428	-0.398
Mof_O 	O 	0.6802	0.2481	0.0572	-0.45
Mof_O 	O 	0.6802	0.7481	0.5572	-0.463
Mof_O 	O 	0.1802	0.2481	0.5572	-0.468
Mof_O 	O 	0.1802	0.7481	0.0572	-0.451
Mof_O 	O 	0.3198	0.7519	0.0572	-0.448
Mof_O 	O 	0.3198	0.2519	0.5572	-0.465
Mof_O 	O 	0.8198	0.7519	0.5572	-0.457
Mof_O 	O 	0.8198	0.2519	0.0572	-0.445
Mof_O 	O 	0.9428	0.3198	0.2481	-0.396
Mof_O 	O 	0.9428	0.8198	0.7481	-0.389
Mof_O 	O 	0.4428	0.3198	0.7481	-0.464
Mof_O 	O 	0.4428	0.8198	0.2481	-0.46
Mof_O 	O 	0.9428	0.6802	0.7519	-0.393
Mof_O 	O 	0.9428	0.1802	0.2519	-0.399
Mof_O 	O 	0.4428	0.6802	0.2519	-0.465
Mof_O 	O 	0.4428	0.1802	0.7519	-0.466
Mof_O 	O 	0.0572	0.6802	0.2481	-0.451
Mof_O 	O 	0.0572	0.1802	0.7481	-0.452
Mof_O 	O 	0.5572	0.6802	0.7481	-0.464
Mof_O 	O 	0.5572	0.1802	0.2481	-0.469
Mof_O 	O 	0.0572	0.3198	0.7519	-0.448
Mof_O 	O 	0.0572	0.8198	0.2519	-0.445
Mof_O 	O 	0.5572	0.3198	0.2519	-0.465
Mof_O 	O 	0.5572	0.8198	0.7519	-0.457
Mof_O 	O 	0.2481	0.9428	0.3198	-0.396
Mof_O 	O 	0.2481	0.4428	0.8198	-0.46
Mof_O 	O 	0.7481	0.9428	0.8198	-0.389
Mof_O 	O 	0.7481	0.4428	0.3198	-0.464
Mof_O 	O 	0.7519	0.9428	0.6802	-0.393
Mof_O 	O 	0.7519	0.4428	0.1802	-0.466
Mof_O 	O 	0.2519	0.9428	0.1802	-0.399
Mof_O 	O 	0.2519	0.4428	0.6802	-0.465
Mof_O 	O 	0.2481	0.0572	0.6802	-0.451
Mof_O 	O 	0.2481	0.5572	0.1802	-0.469
Mof_O 	O 	0.7481	0.0572	0.1802	-0.452
Mof_O 	O 	0.7481	0.5572	0.6802	-0.464
Mof_O 	O 	0.7519	0.0572	0.3198	-0.448
Mof_O 	O 	0.7519	0.5572	0.8198	-0.457
Mof_O 	O 	0.2519	0.0572	0.8198	-0.445
Mof_O 	O 	0.2519	0.5572	0.3198	-0.465
Mof_O 	O 	0.2481	0.3198	0.0572	-0.451
Mof_O 	O 	0.2481	0.8198	0.5572	-0.46
Mof_O 	O 	0.7481	0.3198	0.5572	-0.464
Mof_O 	O 	0.7481	0.8198	0.0572	-0.443
Mof_O 	O 	0.7519	0.6802	0.0572	-0.448
Mof_O 	O 	0.7519	0.1802	0.5572	-0.466
Mof_O 	O 	0.2519	0.6802	0.5572	-0.465
Mof_O 	O 	0.2519	0.1802	0.0572	-0.454
Mof_O 	O 	0.2481	0.6802	0.9428	-0.396
Mof_O 	O 	0.2481	0.1802	0.4428	-0.469
Mof_O 	O 	0.7481	0.6802	0.4428	-0.464
Mof_O 	O 	0.7481	0.1802	0.9428	-0.398
Mof_O 	O 	0.7519	0.3198	0.9428	-0.393
Mof_O 	O 	0.7519	0.8198	0.4428	-0.457
Mof_O 	O 	0.2519	0.3198	0.4428	-0.465
Mof_O 	O 	0.2519	0.8198	0.9428	-0.39
Mof_O 	O 	0.3198	0.9428	0.7519	-0.393
Mof_O 	O 	0.3198	0.4428	0.2519	-0.465
Mof_O 	O 	0.8198	0.9428	0.2519	-0.39
Mof_O 	O 	0.8198	0.4428	0.7519	-0.457
Mof_O 	O 	0.6802	0.9428	0.2481	-0.396
Mof_O 	O 	0.6802	0.4428	0.7481	-0.464
Mof_O 	O 	0.1802	0.9428	0.7481	-0.398
Mof_O 	O 	0.1802	0.4428	0.2481	-0.469
Mof_O 	O 	0.6802	0.0572	0.7519	-0.448
Mof_O 	O 	0.6802	0.5572	0.2519	-0.465
Mof_O 	O 	0.1802	0.0572	0.2519	-0.454
Mof_O 	O 	0.1802	0.5572	0.7519	-0.466
Mof_O 	O 	0.3198	0.0572	0.2481	-0.451
Mof_O 	O 	0.3198	0.5572	0.7481	-0.464
Mof_O 	O 	0.8198	0.0572	0.7481	-0.443
Mof_O 	O 	0.8198	0.5572	0.2481	-0.46
Mof_O 	O 	0.9428	0.2481	0.6802	-0.396
Mof_O 	O 	0.9428	0.7481	0.1802	-0.398
Mof_O 	O 	0.4428	0.2481	0.1802	-0.469
Mof_O 	O 	0.4428	0.7481	0.6802	-0.464
Mof_O 	O 	0.9428	0.7519	0.3198	-0.393
Mof_O 	O 	0.9428	0.2519	0.8198	-0.39
Mof_O 	O 	0.4428	0.7519	0.8198	-0.457
Mof_O 	O 	0.4428	0.2519	0.3198	-0.465
Mof_O 	O 	0.0572	0.2481	0.3198	-0.451
Mof_O 	O 	0.0572	0.7481	0.8198	-0.443
Mof_O 	O 	0.5572	0.2481	0.8198	-0.46
Mof_O 	O 	0.5572	0.7481	0.3198	-0.464
Mof_O 	O 	0.0572	0.7519	0.6802	-0.448
Mof_O 	O 	0.0572	0.2519	0.1802	-0.454
Mof_O 	O 	0.5572	0.7519	0.1802	-0.466
Mof_O 	O 	0.5572	0.2519	0.6802	-0.465
Mof_O 	O 	0.6802	0.7519	0.0572	-0.448
Mof_O 	O 	0.6802	0.2519	0.5572	-0.465
Mof_O 	O 	0.1802	0.7519	0.5572	-0.466
Mof_O 	O 	0.1802	0.2519	0.0572	-0.454
Mof_O 	O 	0.3198	0.2481	0.0572	-0.451
Mof_O 	O 	0.3198	0.7481	0.5572	-0.464
Mof_O 	O 	0.8198	0.2481	0.5572	-0.46
Mof_O 	O 	0.8198	0.7481	0.0572	-0.443
Mof_O 	O 	0.3198	0.7519	0.9428	-0.393
Mof_O 	O 	0.3198	0.2519	0.4428	-0.465
Mof_O 	O 	0.8198	0.7519	0.4428	-0.457
Mof_O 	O 	0.8198	0.2519	0.9428	-0.39
Mof_O 	O 	0.6802	0.2481	0.9428	-0.396
Mof_O 	O 	0.6802	0.7481	0.4428	-0.464
Mof_O 	O 	0.1802	0.2481	0.4428	-0.469
Mof_O 	O 	0.1802	0.7481	0.9428	-0.398
Mof_O 	O 	0.0572	0.6802	0.7519	-0.448
Mof_O 	O 	0.0572	0.1802	0.2519	-0.454
Mof_O 	O 	0.5572	0.6802	0.2519	-0.465
Mof_O 	O 	0.5572	0.1802	0.7519	-0.466
Mof_O 	O 	0.0572	0.3198	0.2481	-0.451
Mof_O 	O 	0.0572	0.8198	0.7481	-0.443
Mof_O 	O 	0.5572	0.3198	0.7481	-0.464
Mof_O 	O 	0.5572	0.8198	0.2481	-0.46
Mof_O 	O 	0.9428	0.3198	0.7519	-0.393
Mof_O 	O 	0.9428	0.8198	0.2519	-0.39
Mof_O 	O 	0.4428	0.3198	0.2519	-0.465
Mof_O 	O 	0.4428	0.8198	0.7519	-0.457
Mof_O 	O 	0.9428	0.6802	0.2481	-0.396
Mof_O 	O 	0.9428	0.1802	0.7481	-0.398
Mof_O 	O 	0.4428	0.6802	0.7481	-0.464
Mof_O 	O 	0.4428	0.1802	0.2481	-0.469
Mof_O 	O 	0.7519	0.0572	0.6802	-0.448
Mof_O 	O 	0.7519	0.5572	0.1802	-0.466
Mof_O 	O 	0.2519	0.0572	0.1802	-0.454
Mof_O 	O 	0.2519	0.5572	0.6802	-0.465
Mof_O 	O 	0.2481	0.0572	0.3198	-0.451
Mof_O 	O 	0.2481	0.5572	0.8198	-0.46
Mof_O 	O 	0.7481	0.0572	0.8198	-0.443
Mof_O 	O 	0.7481	0.5572	0.3198	-0.464
Mof_O 	O 	0.7519	0.9428	0.3198	-0.393
Mof_O 	O 	0.7519	0.4428	0.8198	-0.457
Mof_O 	O 	0.2519	0.9428	0.8198	-0.39
Mof_O 	O 	0.2519	0.4428	0.3198	-0.465
Mof_O 	O 	0.2481	0.9428	0.6802	-0.396
Mof_O 	O 	0.2481	0.4428	0.1802	-0.469
Mof_O 	O 	0.7481	0.9428	0.1802	-0.398
Mof_O 	O 	0.7481	0.4428	0.6802	-0.464
Mof_O 	O 	0.7519	0.6802	0.9428	-0.393
Mof_O 	O 	0.7519	0.1802	0.4428	-0.466
Mof_O 	O 	0.2519	0.6802	0.4428	-0.465
Mof_O 	O 	0.2519	0.1802	0.9428	-0.399
Mof_O 	O 	0.2481	0.3198	0.9428	-0.396
Mof_O 	O 	0.2481	0.8198	0.4428	-0.46
Mof_O 	O 	0.7481	0.3198	0.4428	-0.464
Mof_O 	O 	0.7481	0.8198	0.9428	-0.389
Mof_O 	O 	0.7519	0.3198	0.0572	-0.448
Mof_O 	O 	0.7519	0.8198	0.5572	-0.457
Mof_O 	O 	0.2519	0.3198	0.5572	-0.465
Mof_O 	O 	0.2519	0.8198	0.0572	-0.445
Mof_O 	O 	0.2481	0.6802	0.0572	-0.451
Mof_O 	O 	0.2481	0.1802	0.5572	-0.469
Mof_O 	O 	0.7481	0.6802	0.5572	-0.464
Mof_O 	O 	0.7481	0.1802	0.0572	-0.452
Mof_O 	O 	0.6802	0.0572	0.2481	-0.451
Mof_O 	O 	0.6802	0.5572	0.7481	-0.464
Mof_O 	O 	0.1802	0.0572	0.7481	-0.452
Mof_O 	O 	0.1802	0.5572	0.2481	-0.469
Mof_O 	O 	0.3198	0.0572	0.7519	-0.448
Mof_O 	O 	0.3198	0.5572	0.2519	-0.465
Mof_O 	O 	0.8198	0.0572	0.2519	-0.445
Mof_O 	O 	0.8198	0.5572	0.7519	-0.457
Mof_O 	O 	0.3198	0.9428	0.2481	-0.396
Mof_O 	O 	0.3198	0.4428	0.7481	-0.464
Mof_O 	O 	0.8198	0.9428	0.7481	-0.389
Mof_O 	O 	0.8198	0.4428	0.2481	-0.46
Mof_O 	O 	0.6802	0.9428	0.7519	-0.393
Mof_O 	O 	0.6802	0.4428	0.2519	-0.465
Mof_O 	O 	0.1802	0.9428	0.2519	-0.399
Mof_O 	O 	0.1802	0.4428	0.7519	-0.466
Mof_O 	O 	0.0572	0.7519	0.3198	-0.448
Mof_O 	O 	0.0572	0.2519	0.8198	-0.445
Mof_O 	O 	0.5572	0.7519	0.8198	-0.457
Mof_O 	O 	0.5572	0.2519	0.3198	-0.465
Mof_O 	O 	0.0572	0.2481	0.6802	-0.451
Mof_O 	O 	0.0572	0.7481	0.1802	-0.452
Mof_O 	O 	0.5572	0.2481	0.1802	-0.469
Mof_O 	O 	0.5572	0.7481	0.6802	-0.464
Mof_O 	O 	0.9428	0.7519	0.6802	-0.393
Mof_O 	O 	0.9428	0.2519	0.1802	-0.399
Mof_O 	O 	0.4428	0.7519	0.1802	-0.466
Mof_O 	O 	0.4428	0.2519	0.6802	-0.465
Mof_O 	O 	0.9428	0.2481	0.3198	-0.396
Mof_O 	O 	0.9428	0.7481	0.8198	-0.389
Mof_O 	O 	0.4428	0.2481	0.8198	-0.46
Mof_O 	O 	0.4428	0.7481	0.3198	-0.464
Mof_C 	C 	0.29671	0.20329	0.92915	0.294
Mof_C 	C 	0.32224	0.17776	0.88596	-0.088
Mof_C 	C 	0.29671	0.70329	0.42915	0.3
Mof_C 	C 	0.32224	0.67776	0.38596	-0.099
Mof_C 	C 	0.70329	0.79671	0.92915	0.293
Mof_C 	C 	0.67776	0.82224	0.88596	-0.073
Mof_C 	C 	0.70329	0.29671	0.42915	0.3
Mof_C 	C 	0.67776	0.32224	0.38596	-0.099
Mof_C 	C 	0.20329	0.29671	0.92915	0.294
Mof_C 	C 	0.17776	0.32224	0.88596	-0.088
Mof_C 	C 	0.70329	0.20329	0.07085	0.285
Mof_C 	C 	0.67776	0.17776	0.11404	-0.106
Mof_C 	C 	0.70329	0.70329	0.57085	0.298
Mof_C 	C 	0.67776	0.67776	0.61404	-0.095
Mof_C 	C 	0.20329	0.20329	0.57085	0.298
Mof_C 	C 	0.17776	0.17776	0.61404	-0.106
Mof_C 	C 	0.29671	0.79671	0.07085	0.286
Mof_C 	C 	0.32224	0.82224	0.11404	-0.095
Mof_C 	C 	0.29671	0.29671	0.57085	0.3
Mof_C 	C 	0.32224	0.32224	0.61404	-0.1
Mof_C 	C 	0.92915	0.29671	0.20329	0.294
Mof_C 	C 	0.88596	0.32224	0.17776	-0.088
Mof_C 	C 	0.42915	0.29671	0.70329	0.3
Mof_C 	C 	0.38596	0.32224	0.67776	-0.099
Mof_C 	C 	0.92915	0.70329	0.79671	0.293
Mof_C 	C 	0.88596	0.67776	0.82224	-0.073
Mof_C 	C 	0.92915	0.20329	0.29671	0.294
Mof_C 	C 	0.88596	0.17776	0.32224	-0.088
Mof_C 	C 	0.42915	0.70329	0.29671	0.3
Mof_C 	C 	0.38596	0.67776	0.32224	-0.099
Mof_C 	C 	0.07085	0.70329	0.20329	0.285
Mof_C 	C 	0.11404	0.67776	0.17776	-0.106
Mof_C 	C 	0.57085	0.70329	0.70329	0.298
Mof_C 	C 	0.61404	0.67776	0.67776	-0.095
Mof_C 	C 	0.57085	0.20329	0.20329	0.298
Mof_C 	C 	0.61404	0.17776	0.17776	-0.106
Mof_C 	C 	0.07085	0.29671	0.79671	0.286
Mof_C 	C 	0.11404	0.32224	0.82224	-0.095
Mof_C 	C 	0.57085	0.29671	0.29671	0.3
Mof_C 	C 	0.61404	0.32224	0.32224	-0.1
Mof_C 	C 	0.20329	0.92915	0.29671	0.294
Mof_C 	C 	0.17776	0.88596	0.32224	-0.088
Mof_C 	C 	0.20329	0.42915	0.79671	0.298
Mof_C 	C 	0.17776	0.38596	0.82224	-0.094
Mof_C 	C 	0.79671	0.92915	0.70329	0.293
Mof_C 	C 	0.82224	0.88596	0.67776	-0.073
Mof_C 	C 	0.79671	0.42915	0.20329	0.298
Mof_C 	C 	0.82224	0.38596	0.17776	-0.094
Mof_C 	C 	0.29671	0.92915	0.20329	0.294
Mof_C 	C 	0.32224	0.88596	0.17776	-0.088
Mof_C 	C 	0.20329	0.07085	0.70329	0.285
Mof_C 	C 	0.17776	0.11404	0.67776	-0.106
Mof_C 	C 	0.20329	0.57085	0.20329	0.298
Mof_C 	C 	0.17776	0.61404	0.17776	-0.106
Mof_C 	C 	0.79671	0.07085	0.29671	0.286
Mof_C 	C 	0.82224	0.11404	0.32224	-0.095
Mof_C 	C 	0.79671	0.57085	0.79671	0.298
Mof_C 	C 	0.82224	0.61404	0.82224	-0.08
Mof_C 	C 	0.29671	0.57085	0.29671	0.3
Mof_C 	C 	0.32224	0.61404	0.32224	-0.1
Mof_C 	C 	0.20329	0.29671	0.07085	0.286
Mof_C 	C 	0.17776	0.32224	0.11404	-0.108
Mof_C 	C 	0.20329	0.79671	0.57085	0.298
Mof_C 	C 	0.17776	0.82224	0.61404	-0.093
Mof_C 	C 	0.79671	0.70329	0.07085	0.285
Mof_C 	C 	0.82224	0.67776	0.11404	-0.093
Mof_C 	C 	0.79671	0.20329	0.57085	0.298
Mof_C 	C 	0.82224	0.17776	0.61404	-0.093
Mof_C 	C 	0.29671	0.20329	0.07085	0.286
Mof_C 	C 	0.32224	0.17776	0.11404	-0.108
Mof_C 	C 	0.20329	0.70329	0.92915	0.293
Mof_C 	C 	0.17776	0.67776	0.88596	-0.086
Mof_C 	C 	0.20329	0.20329	0.42915	0.299
Mof_C 	C 	0.17776	0.17776	0.38596	-0.107
Mof_C 	C 	0.79671	0.29671	0.92915	0.294
Mof_C 	C 	0.82224	0.32224	0.88596	-0.075
Mof_C 	C 	0.79671	0.79671	0.42915	0.298
Mof_C 	C 	0.82224	0.82224	0.38596	-0.081
Mof_C 	C 	0.29671	0.29671	0.42915	0.301
Mof_C 	C 	0.32224	0.32224	0.38596	-0.101
Mof_C 	C 	0.29671	0.92915	0.79671	0.294
Mof_C 	C 	0.32224	0.88596	0.82224	-0.075
Mof_C 	C 	0.29671	0.42915	0.29671	0.301
Mof_C 	C 	0.32224	0.38596	0.32224	-0.101
Mof_C 	C 	0.70329	0.92915	0.20329	0.293
Mof_C 	C 	0.67776	0.88596	0.17776	-0.086
Mof_C 	C 	0.70329	0.42915	0.70329	0.298
Mof_C 	C 	0.67776	0.38596	0.67776	-0.096
Mof_C 	C 	0.20329	0.42915	0.20329	0.299
Mof_C 	C 	0.17776	0.38596	0.17776	-0.107
Mof_C 	C 	0.70329	0.07085	0.79671	0.285
Mof_C 	C 	0.67776	0.11404	0.82224	-0.093
Mof_C 	C 	0.70329	0.57085	0.29671	0.299
Mof_C 	C 	0.67776	0.61404	0.32224	-0.098
Mof_C 	C 	0.20329	0.07085	0.29671	0.286
Mof_C 	C 	0.17776	0.11404	0.32224	-0.108
Mof_C 	C 	0.29671	0.07085	0.20329	0.286
Mof_C 	C 	0.32224	0.11404	0.17776	-0.108
Mof_C 	C 	0.29671	0.57085	0.70329	0.299
Mof_C 	C 	0.32224	0.61404	0.67776	-0.098
Mof_C 	C 	0.92915	0.20329	0.70329	0.293
Mof_C 	C 	0.88596	0.17776	0.67776	-0.086
Mof_C 	C 	0.42915	0.20329	0.20329	0.299
Mof_C 	C 	0.38596	0.17776	0.17776	-0.107
Mof_C 	C 	0.92915	0.79671	0.29671	0.294
Mof_C 	C 	0.88596	0.82224	0.32224	-0.075
Mof_C 	C 	0.42915	0.79671	0.79671	0.298
Mof_C 	C 	0.38596	0.82224	0.82224	-0.081
Mof_C 	C 	0.42915	0.29671	0.29671	0.301
Mof_C 	C 	0.38596	0.32224	0.32224	-0.101
Mof_C 	C 	0.07085	0.20329	0.29671	0.286
Mof_C 	C 	0.11404	0.17776	0.32224	-0.108
Mof_C 	C 	0.57085	0.20329	0.79671	0.298
Mof_C 	C 	0.61404	0.17776	0.82224	-0.093
Mof_C 	C 	0.07085	0.79671	0.70329	0.285
Mof_C 	C 	0.11404	0.82224	0.67776	-0.093
Mof_C 	C 	0.07085	0.29671	0.20329	0.286
Mof_C 	C 	0.11404	0.32224	0.17776	-0.108
Mof_C 	C 	0.57085	0.79671	0.20329	0.298
Mof_C 	C 	0.61404	0.82224	0.17776	-0.093
Mof_C 	C 	0.70329	0.79671	0.07085	0.285
Mof_C 	C 	0.67776	0.82224	0.11404	-0.093
Mof_C 	C 	0.70329	0.29671	0.57085	0.299
Mof_C 	C 	0.67776	0.32224	0.61404	-0.098
Mof_C 	C 	0.29671	0.70329	0.57085	0.299
Mof_C 	C 	0.32224	0.67776	0.61404	-0.098
Mof_C 	C 	0.29671	0.79671	0.92915	0.294
Mof_C 	C 	0.32224	0.82224	0.88596	-0.075
Mof_C 	C 	0.70329	0.20329	0.92915	0.293
Mof_C 	C 	0.67776	0.17776	0.88596	-0.086
Mof_C 	C 	0.70329	0.70329	0.42915	0.298
Mof_C 	C 	0.67776	0.67776	0.38596	-0.096
Mof_C 	C 	0.07085	0.70329	0.79671	0.285
Mof_C 	C 	0.11404	0.67776	0.82224	-0.093
Mof_C 	C 	0.57085	0.70329	0.29671	0.299
Mof_C 	C 	0.61404	0.67776	0.32224	-0.098
Mof_C 	C 	0.57085	0.29671	0.70329	0.299
Mof_C 	C 	0.61404	0.32224	0.67776	-0.098
Mof_C 	C 	0.92915	0.29671	0.79671	0.294
Mof_C 	C 	0.88596	0.32224	0.82224	-0.075
Mof_C 	C 	0.92915	0.70329	0.20329	0.293
Mof_C 	C 	0.88596	0.67776	0.17776	-0.086
Mof_C 	C 	0.42915	0.70329	0.70329	0.298
Mof_C 	C 	0.38596	0.67776	0.67776	-0.096
Mof_C 	C 	0.79671	0.07085	0.70329	0.285
Mof_C 	C 	0.82224	0.11404	0.67776	-0.093
Mof_C 	C 	0.79671	0.57085	0.20329	0.298
Mof_C 	C 	0.82224	0.61404	0.17776	-0.093
Mof_C 	C 	0.20329	0.57085	0.79671	0.298
Mof_C 	C 	0.17776	0.61404	0.82224	-0.093
Mof_C 	C 	0.79671	0.92915	0.29671	0.294
Mof_C 	C 	0.82224	0.88596	0.32224	-0.075
Mof_C 	C 	0.79671	0.42915	0.79671	0.298
Mof_C 	C 	0.82224	0.38596	0.82224	-0.081
Mof_C 	C 	0.20329	0.92915	0.70329	0.293
Mof_C 	C 	0.17776	0.88596	0.67776	-0.086
Mof_C 	C 	0.79671	0.70329	0.92915	0.293
Mof_C 	C 	0.82224	0.67776	0.88596	-0.073
Mof_C 	C 	0.79671	0.20329	0.42915	0.298
Mof_C 	C 	0.82224	0.17776	0.38596	-0.094
Mof_C 	C 	0.20329	0.79671	0.42915	0.298
Mof_C 	C 	0.17776	0.82224	0.38596	-0.094
Mof_C 	C 	0.79671	0.29671	0.07085	0.286
Mof_C 	C 	0.82224	0.32224	0.11404	-0.095
Mof_C 	C 	0.79671	0.79671	0.57085	0.298
Mof_C 	C 	0.82224	0.82224	0.61404	-0.08
Mof_C 	C 	0.20329	0.70329	0.07085	0.285
Mof_C 	C 	0.17776	0.67776	0.11404	-0.106
Mof_C 	C 	0.70329	0.07085	0.20329	0.285
Mof_C 	C 	0.67776	0.11404	0.17776	-0.106
Mof_C 	C 	0.70329	0.57085	0.70329	0.298
Mof_C 	C 	0.67776	0.61404	0.67776	-0.095
Mof_C 	C 	0.29671	0.07085	0.79671	0.286
Mof_C 	C 	0.32224	0.11404	0.82224	-0.095
Mof_C 	C 	0.29671	0.42915	0.70329	0.3
Mof_C 	C 	0.32224	0.38596	0.67776	-0.099
Mof_C 	C 	0.70329	0.92915	0.79671	0.293
Mof_C 	C 	0.67776	0.88596	0.82224	-0.073
Mof_C 	C 	0.70329	0.42915	0.29671	0.3
Mof_C 	C 	0.67776	0.38596	0.32224	-0.099
Mof_C 	C 	0.07085	0.79671	0.29671	0.286
Mof_C 	C 	0.11404	0.82224	0.32224	-0.095
Mof_C 	C 	0.57085	0.79671	0.79671	0.298
Mof_C 	C 	0.61404	0.82224	0.82224	-0.08
Mof_C 	C 	0.07085	0.20329	0.70329	0.285
Mof_C 	C 	0.11404	0.17776	0.67776	-0.106
Mof_C 	C 	0.92915	0.79671	0.70329	0.293
Mof_C 	C 	0.88596	0.82224	0.67776	-0.073
Mof_C 	C 	0.42915	0.79671	0.20329	0.298
Mof_C 	C 	0.38596	0.82224	0.17776	-0.094
Mof_C 	C 	0.42915	0.20329	0.79671	0.298
Mof_C 	C 	0.38596	0.17776	0.82224	-0.094
Mof_C 	C 	0.36461	0.20056	0.86461	0.046
Mof_H 	H 	0.37921	0.23369	0.87921	0.054
Mof_C 	C 	0.36461	0.70056	0.36461	0.05
Mof_H 	H 	0.37921	0.73369	0.37921	0.048
Mof_C 	C 	0.86461	0.70056	0.86461	0.039
Mof_H 	H 	0.87921	0.73369	0.87921	0.068
Mof_C 	C 	0.63539	0.79944	0.86461	0.04
Mof_H 	H 	0.62079	0.76631	0.87921	0.058
Mof_C 	C 	0.63539	0.29944	0.36461	0.05
Mof_H 	H 	0.62079	0.26631	0.37921	0.044
Mof_C 	C 	0.63539	0.20056	0.13539	0.047
Mof_H 	H 	0.62079	0.23369	0.12079	0.039
Mof_C 	C 	0.63539	0.70056	0.63539	0.047
Mof_H 	H 	0.62079	0.73369	0.62079	0.049
Mof_C 	C 	0.36461	0.79944	0.13539	0.045
Mof_H 	H 	0.37921	0.76631	0.12079	0.042
Mof_C 	C 	0.36461	0.29944	0.63539	0.05
Mof_H 	H 	0.37921	0.26631	0.62079	0.044
Mof_C 	C 	0.86461	0.79944	0.63539	0.04
Mof_H 	H 	0.87921	0.76631	0.62079	0.058
Mof_C 	C 	0.86461	0.36461	0.20056	0.046
Mof_H 	H 	0.87921	0.37921	0.23369	0.054
Mof_C 	C 	0.86461	0.86461	0.70056	0.039
Mof_H 	H 	0.87921	0.87921	0.73369	0.068
Mof_C 	C 	0.86461	0.63539	0.79944	0.04
Mof_H 	H 	0.87921	0.62079	0.76631	0.058
Mof_C 	C 	0.86461	0.13539	0.29944	0.044
Mof_H 	H 	0.87921	0.12079	0.26631	0.048
Mof_C 	C 	0.13539	0.63539	0.20056	0.047
Mof_H 	H 	0.12079	0.62079	0.23369	0.039
Mof_C 	C 	0.13539	0.13539	0.70056	0.045
Mof_H 	H 	0.12079	0.12079	0.73369	0.037
Mof_C 	C 	0.63539	0.63539	0.70056	0.047
Mof_H 	H 	0.62079	0.62079	0.73369	0.049
Mof_C 	C 	0.13539	0.36461	0.79944	0.045
Mof_H 	H 	0.12079	0.37921	0.76631	0.042
Mof_C 	C 	0.13539	0.86461	0.29944	0.044
Mof_H 	H 	0.12079	0.87921	0.26631	0.048
Mof_C 	C 	0.63539	0.86461	0.79944	0.04
Mof_H 	H 	0.62079	0.87921	0.76631	0.058
Mof_C 	C 	0.20056	0.86461	0.36461	0.046
Mof_H 	H 	0.23369	0.87921	0.37921	0.054
Mof_C 	C 	0.70056	0.86461	0.86461	0.039
Mof_H 	H 	0.73369	0.87921	0.87921	0.068
Mof_C 	C 	0.79944	0.86461	0.63539	0.04
Mof_H 	H 	0.76631	0.87921	0.62079	0.058
Mof_C 	C 	0.29944	0.86461	0.13539	0.044
Mof_H 	H 	0.26631	0.87921	0.12079	0.048
Mof_C 	C 	0.20056	0.13539	0.63539	0.047
Mof_H 	H 	0.23369	0.12079	0.62079	0.039
Mof_C 	C 	0.70056	0.13539	0.13539	0.045
Mof_H 	H 	0.73369	0.12079	0.12079	0.037
Mof_C 	C 	0.70056	0.63539	0.63539	0.047
Mof_H 	H 	0.73369	0.62079	0.62079	0.049
Mof_C 	C 	0.79944	0.13539	0.36461	0.045
Mof_H 	H 	0.76631	0.12079	0.37921	0.042
Mof_C 	C 	0.79944	0.63539	0.86461	0.04
Mof_H 	H 	0.76631	0.62079	0.87921	0.058
Mof_C 	C 	0.29944	0.13539	0.86461	0.044
Mof_H 	H 	0.26631	0.12079	0.87921	0.048
Mof_C 	C 	0.20056	0.36461	0.13539	0.049
Mof_H 	H 	0.23369	0.37921	0.12079	0.038
Mof_C 	C 	0.20056	0.86461	0.63539	0.044
Mof_H 	H 	0.23369	0.87921	0.62079	0.054
Mof_C 	C 	0.70056	0.36461	0.63539	0.048
Mof_H 	H 	0.73369	0.37921	0.62079	0.048
Mof_C 	C 	0.79944	0.63539	0.13539	0.043
Mof_H 	H 	0.76631	0.62079	0.12079	0.042
Mof_C 	C 	0.29944	0.63539	0.63539	0.049
Mof_H 	H 	0.26631	0.62079	0.62079	0.044
Mof_C 	C 	0.20056	0.63539	0.86461	0.044
Mof_H 	H 	0.23369	0.62079	0.87921	0.054
Mof_C 	C 	0.70056	0.63539	0.36461	0.048
Mof_H 	H 	0.73369	0.62079	0.37921	0.048
Mof_C 	C 	0.79944	0.36461	0.86461	0.042
Mof_H 	H 	0.76631	0.37921	0.87921	0.058
Mof_C 	C 	0.29944	0.36461	0.36461	0.051
Mof_H 	H 	0.26631	0.37921	0.37921	0.043
Mof_C 	C 	0.29944	0.86461	0.86461	0.041
Mof_H 	H 	0.26631	0.87921	0.87921	0.064
Mof_C 	C 	0.36461	0.86461	0.79944	0.042
Mof_H 	H 	0.37921	0.87921	0.76631	0.058
Mof_C 	C 	0.36461	0.36461	0.29944	0.051
Mof_H 	H 	0.37921	0.37921	0.26631	0.043
Mof_C 	C 	0.86461	0.86461	0.29944	0.041
Mof_H 	H 	0.87921	0.87921	0.26631	0.064
Mof_C 	C 	0.63539	0.86461	0.20056	0.044
Mof_H 	H 	0.62079	0.87921	0.23369	0.054
Mof_C 	C 	0.63539	0.36461	0.70056	0.048
Mof_H 	H 	0.62079	0.37921	0.73369	0.048
Mof_C 	C 	0.63539	0.13539	0.79944	0.043
Mof_H 	H 	0.62079	0.12079	0.76631	0.042
Mof_C 	C 	0.63539	0.63539	0.29944	0.049
Mof_H 	H 	0.62079	0.62079	0.26631	0.044
Mof_C 	C 	0.36461	0.13539	0.20056	0.049
Mof_H 	H 	0.37921	0.12079	0.23369	0.038
Mof_C 	C 	0.36461	0.63539	0.70056	0.048
Mof_H 	H 	0.37921	0.62079	0.73369	0.048
Mof_C 	C 	0.86461	0.63539	0.20056	0.044
Mof_H 	H 	0.87921	0.62079	0.23369	0.054
Mof_C 	C 	0.86461	0.20056	0.63539	0.044
Mof_H 	H 	0.87921	0.23369	0.62079	0.054
Mof_C 	C 	0.86461	0.70056	0.13539	0.042
Mof_H 	H 	0.87921	0.73369	0.12079	0.053
Mof_C 	C 	0.86461	0.79944	0.36461	0.042
Mof_H 	H 	0.87921	0.76631	0.37921	0.058
Mof_C 	C 	0.86461	0.29944	0.86461	0.041
Mof_H 	H 	0.87921	0.26631	0.87921	0.064
Mof_C 	C 	0.13539	0.20056	0.36461	0.049
Mof_H 	H 	0.12079	0.23369	0.37921	0.038
Mof_C 	C 	0.13539	0.70056	0.86461	0.042
Mof_H 	H 	0.12079	0.73369	0.87921	0.053
Mof_C 	C 	0.63539	0.20056	0.86461	0.044
Mof_H 	H 	0.62079	0.23369	0.87921	0.054
Mof_C 	C 	0.13539	0.79944	0.63539	0.043
Mof_H 	H 	0.12079	0.76631	0.62079	0.042
Mof_C 	C 	0.13539	0.29944	0.13539	0.047
Mof_H 	H 	0.12079	0.26631	0.12079	0.033
Mof_C 	C 	0.63539	0.29944	0.63539	0.049
Mof_H 	H 	0.62079	0.26631	0.62079	0.044
Mof_C 	C 	0.63539	0.79944	0.13539	0.043
Mof_H 	H 	0.62079	0.76631	0.12079	0.042
Mof_C 	C 	0.36461	0.20056	0.13539	0.049
Mof_H 	H 	0.37921	0.23369	0.12079	0.038
Mof_C 	C 	0.36461	0.70056	0.63539	0.048
Mof_H 	H 	0.37921	0.73369	0.62079	0.048
Mof_C 	C 	0.36461	0.79944	0.86461	0.042
Mof_H 	H 	0.37921	0.76631	0.87921	0.058
Mof_C 	C 	0.36461	0.29944	0.36461	0.051
Mof_H 	H 	0.37921	0.26631	0.37921	0.043
Mof_C 	C 	0.63539	0.70056	0.36461	0.048
Mof_H 	H 	0.62079	0.73369	0.37921	0.048
Mof_C 	C 	0.13539	0.63539	0.79944	0.043
Mof_H 	H 	0.12079	0.62079	0.76631	0.042
Mof_C 	C 	0.13539	0.13539	0.29944	0.047
Mof_H 	H 	0.12079	0.12079	0.26631	0.033
Mof_C 	C 	0.13539	0.36461	0.20056	0.049
Mof_H 	H 	0.12079	0.37921	0.23369	0.038
Mof_C 	C 	0.13539	0.86461	0.70056	0.042
Mof_H 	H 	0.12079	0.87921	0.73369	0.053
Mof_C 	C 	0.86461	0.36461	0.79944	0.042
Mof_H 	H 	0.87921	0.37921	0.76631	0.058
Mof_C 	C 	0.86461	0.13539	0.70056	0.042
Mof_H 	H 	0.87921	0.12079	0.73369	0.053
Mof_C 	C 	0.79944	0.13539	0.63539	0.043
Mof_H 	H 	0.76631	0.12079	0.62079	0.042
Mof_C 	C 	0.29944	0.13539	0.13539	0.047
Mof_H 	H 	0.26631	0.12079	0.12079	0.033
Mof_C 	C 	0.20056	0.13539	0.36461	0.049
Mof_H 	H 	0.23369	0.12079	0.37921	0.038
Mof_C 	C 	0.70056	0.13539	0.86461	0.042
Mof_H 	H 	0.73369	0.12079	0.87921	0.053
Mof_C 	C 	0.79944	0.86461	0.36461	0.042
Mof_H 	H 	0.76631	0.87921	0.37921	0.058
Mof_C 	C 	0.70056	0.86461	0.13539	0.042
Mof_H 	H 	0.73369	0.87921	0.12079	0.053
Mof_C 	C 	0.29944	0.63539	0.36461	0.05
Mof_H 	H 	0.26631	0.62079	0.37921	0.044
Mof_C 	C 	0.20056	0.36461	0.86461	0.046
Mof_H 	H 	0.23369	0.37921	0.87921	0.054
Mof_C 	C 	0.70056	0.36461	0.36461	0.05
Mof_H 	H 	0.73369	0.37921	0.37921	0.048
Mof_C 	C 	0.79944	0.36461	0.13539	0.045
Mof_H 	H 	0.76631	0.37921	0.12079	0.042
Mof_C 	C 	0.29944	0.36461	0.63539	0.05
Mof_H 	H 	0.26631	0.37921	0.62079	0.044
Mof_C 	C 	0.20056	0.63539	0.13539	0.047
Mof_H 	H 	0.23369	0.62079	0.12079	0.039
Mof_C 	C 	0.63539	0.13539	0.20056	0.047
Mof_H 	H 	0.62079	0.12079	0.23369	0.039
Mof_C 	C 	0.36461	0.13539	0.79944	0.045
Mof_H 	H 	0.37921	0.12079	0.76631	0.042
Mof_C 	C 	0.36461	0.63539	0.29944	0.05
Mof_H 	H 	0.37921	0.62079	0.26631	0.044
Mof_C 	C 	0.36461	0.86461	0.20056	0.046
Mof_H 	H 	0.37921	0.87921	0.23369	0.054
Mof_C 	C 	0.36461	0.36461	0.70056	0.05
Mof_H 	H 	0.37921	0.37921	0.73369	0.048
Mof_C 	C 	0.63539	0.36461	0.29944	0.05
Mof_H 	H 	0.62079	0.37921	0.26631	0.044
Mof_C 	C 	0.13539	0.79944	0.36461	0.045
Mof_H 	H 	0.12079	0.76631	0.37921	0.042
Mof_C 	C 	0.13539	0.29944	0.86461	0.044
Mof_H 	H 	0.12079	0.26631	0.87921	0.048
Mof_C 	C 	0.13539	0.20056	0.63539	0.047
Mof_H 	H 	0.12079	0.23369	0.62079	0.039
Mof_C 	C 	0.13539	0.70056	0.13539	0.045
Mof_H 	H 	0.12079	0.73369	0.12079	0.037
Mof_C 	C 	0.86461	0.29944	0.13539	0.044
Mof_H 	H 	0.87921	0.26631	0.12079	0.048
Mof_C 	C 	0.86461	0.20056	0.36461	0.046
Mof_H 	H 	0.87921	0.23369	0.37921	0.054
Mof_Cr	Cr	0.288	0.288	-0	1.092
Mof_Cr	Cr	0.288	0.788	0.5	1.285
Mof_Cr	Cr	0.788	0.288	0.5	1.285
Mof_Cr	Cr	0.788	0.788	-0	1.123
Mof_Cr	Cr	0.712	0.712	-0	1.086
Mof_Cr	Cr	0.712	0.212	0.5	1.255
Mof_Cr	Cr	0.212	0.712	0.5	1.255
Mof_Cr	Cr	0.212	0.212	-0	1.072
Mof_Cr	Cr	0.712	0.288	-0	1.089
Mof_Cr	Cr	0.712	0.788	0.5	1.282
Mof_Cr	Cr	0.212	0.288	0.5	1.258
Mof_Cr	Cr	0.212	0.788	-0	1.098
Mof_Cr	Cr	0.288	0.712	-0	1.089
Mof_Cr	Cr	0.288	0.212	0.5	1.258
Mof_Cr	Cr	0.788	0.712	0.5	1.282
Mof_Cr	Cr	0.788	0.212	-0	1.098
Mof_Cr	Cr	-1.80741e-33	0.288	0.288	1.092
Mof_Cr	Cr	-8.59441e-33	0.788	0.788	1.123
Mof_Cr	Cr	0.5	0.288	0.788	1.285
Mof_Cr	Cr	0.5	0.788	0.288	1.285
Mof_Cr	Cr	2.66957e-33	0.712	0.712	1.086
Mof_Cr	Cr	7.94873e-34	0.212	0.212	1.072
Mof_Cr	Cr	0.5	0.712	0.212	1.255
Mof_Cr	Cr	0.5	0.212	0.712	1.255
Mof_Cr	Cr	3.96706e-33	0.712	0.288	1.089
Mof_Cr	Cr	2.95453e-33	0.212	0.788	1.098
Mof_Cr	Cr	0.5	0.712	0.788	1.282
Mof_Cr	Cr	0.5	0.212	0.288	1.258
Mof_Cr	Cr	2.66957e-33	0.288	0.712	1.089
Mof_Cr	Cr	-6.48745e-34	0.788	0.212	1.098
Mof_Cr	Cr	0.5	0.288	0.212	1.258
Mof_Cr	Cr	0.5	0.788	0.712	1.282
Mof_Cr	Cr	0.288	0	0.288	1.092
Mof_Cr	Cr	0.288	0.5	0.788	1.285
Mof_Cr	Cr	0.788	-5.77447e-33	0.788	1.123
Mof_Cr	Cr	0.788	0.5	0.288	1.285
Mof_Cr	Cr	0.712	0	0.712	1.086
Mof_Cr	Cr	0.712	0.5	0.212	1.255
Mof_Cr	Cr	0.212	0	0.212	1.072
Mof_Cr	Cr	0.212	0.5	0.712	1.255
Mof_Cr	Cr	0.288	0	0.712	1.089
Mof_Cr	Cr	0.288	0.5	0.212	1.258
Mof_Cr	Cr	0.788	0	0.212	1.098
Mof_Cr	Cr	0.788	0.5	0.712	1.282
Mof_Cr	Cr	0.712	0	0.288	1.089
Mof_Cr	Cr	0.712	0.5	0.788	1.282
Mof_Cr	Cr	0.212	-5.77447e-33	0.788	1.098
Mof_Cr	Cr	0.212	0.5	0.288	1.258
_end
