data_functionalizedCrystal
_audit_creation_method	'EQeq! by Chris Wilmer'
_symmetry_space_group_name_H-M	'P1'
_symmetry_Int_Tables_number	1
_symmetry_cell_setting	triclinic
loop_
_symmetry_equiv_pos_as_xyz
  x,y,z
_cell_length_a	36.5362
_cell_length_b	36.5362
_cell_length_c	36.5362
_cell_angle_alpha	60
_cell_angle_beta	60
_cell_angle_gamma	60
loop_
_atom_site_label
_atom_site_type_symbol
_atom_site_fract_x
_atom_site_fract_y
_atom_site_fract_z
_atom_site_charge
Mof_Cu	Cu	0.78806	0	0.21194	0.937
Mof_Cu	Cu	0.71734	1.31861e-17	0.28266	0.925
Mof_Cu	Cu	1.05488e-16	0.78806	-0	0.915
Mof_Cu	Cu	1.05488e-16	0.71734	-0	0.901
Mof_Cu	Cu	0.21194	5.27442e-17	0.78806	0.937
Mof_Cu	Cu	0.28266	0	0.71734	0.925
Mof_Cu	Cu	1.31861e-17	0.21194	-0	0.912
Mof_Cu	Cu	2.63721e-17	0.28266	-0	0.9
Mof_Cu	Cu	0.78806	0.21194	-0	0.937
Mof_Cu	Cu	0.71734	0.28266	-0	0.925
Mof_Cu	Cu	1.31861e-17	0	0.21194	0.912
Mof_Cu	Cu	-0	1.31861e-17	0.28266	0.9
Mof_Cu	Cu	0.21194	0.78806	-0	0.937
Mof_Cu	Cu	0.28266	0.71734	-0	0.925
Mof_Cu	Cu	7.91164e-17	5.27442e-17	0.78806	0.915
Mof_Cu	Cu	5.27442e-17	0	0.71734	0.901
Mof_Cu	Cu	0.78806	0	-0	0.915
Mof_Cu	Cu	0.71734	0	-0	0.901
Mof_Cu	Cu	7.91164e-17	0.21194	0.78806	0.937
Mof_Cu	Cu	1.05488e-16	0.28266	0.71734	0.925
Mof_Cu	Cu	0.21194	0	-0	0.912
Mof_Cu	Cu	0.28266	0	-0	0.899
Mof_Cu	Cu	1.71419e-16	0.78806	0.21194	0.936
Mof_Cu	Cu	6.59303e-17	0.71734	0.28266	0.924
Mof_H 	H 	0.4432	0.262	0.3614	0.039
Mof_H 	H 	0.6494	0.1374	0.2456	-0.013
Mof_H 	H 	0.51	0.2186	0.3126	0.077
Mof_H 	H 	0.262	0.4432	0.9334	0.043
Mof_H 	H 	0.1374	0.6494	0.9676	0.007
Mof_H 	H 	0.2186	0.51	0.9588	0.082
Mof_H 	H 	0.3614	0.9334	0.4432	0.044
Mof_H 	H 	0.2456	0.9676	0.6494	0.01
Mof_H 	H 	0.3126	0.9588	0.51	0.085
Mof_H 	H 	0.9334	0.3614	0.262	0.043
Mof_H 	H 	0.9676	0.2456	0.1374	0.002
Mof_H 	H 	0.9588	0.3126	0.2186	0.082
Mof_H 	H 	0.4432	0.3614	0.9334	0.044
Mof_H 	H 	0.6494	0.2456	0.9676	0.01
Mof_H 	H 	0.51	0.3126	0.9588	0.085
Mof_H 	H 	0.262	0.9334	0.3614	0.043
Mof_H 	H 	0.1374	0.9676	0.2456	0.002
Mof_H 	H 	0.2186	0.9588	0.3126	0.082
Mof_H 	H 	0.3614	0.4432	0.262	0.039
Mof_H 	H 	0.2456	0.6494	0.1374	-0.013
Mof_H 	H 	0.3126	0.51	0.2186	0.077
Mof_H 	H 	0.9334	0.262	0.4432	0.043
Mof_H 	H 	0.9676	0.1374	0.6494	0.007
Mof_H 	H 	0.9588	0.2186	0.51	0.082
Mof_H 	H 	0.4432	0.9334	0.262	0.043
Mof_H 	H 	0.6494	0.9676	0.1374	0.007
Mof_H 	H 	0.51	0.9588	0.2186	0.082
Mof_H 	H 	0.262	0.3614	0.4432	0.039
Mof_H 	H 	0.1374	0.2456	0.6494	-0.013
Mof_H 	H 	0.2186	0.3126	0.51	0.077
Mof_H 	H 	0.3614	0.262	0.9334	0.043
Mof_H 	H 	0.2456	0.1374	0.9676	0.002
Mof_H 	H 	0.3126	0.2186	0.9588	0.082
Mof_H 	H 	0.9334	0.4432	0.3614	0.044
Mof_H 	H 	0.9676	0.6494	0.2456	0.01
Mof_H 	H 	0.9588	0.51	0.3126	0.085
Mof_H 	H 	0.738	0.5568	0.6386	0.045
Mof_H 	H 	0.8626	0.3506	0.7544	0.013
Mof_H 	H 	0.7814	0.49	0.6874	0.085
Mof_H 	H 	0.5568	0.738	0.0666	0.041
Mof_H 	H 	0.3506	0.8626	0.0324	-0.004
Mof_H 	H 	0.49	0.7814	0.0412	0.081
Mof_H 	H 	0.0666	0.6386	0.5568	0.04
Mof_H 	H 	0.0324	0.7544	0.3506	-0.008
Mof_H 	H 	0.0412	0.6874	0.49	0.077
Mof_H 	H 	0.6386	0.0666	0.738	0.041
Mof_H 	H 	0.7544	0.0324	0.8626	0.002
Mof_H 	H 	0.6874	0.0412	0.7814	0.081
Mof_H 	H 	0.6386	0.5568	0.0666	0.04
Mof_H 	H 	0.7544	0.3506	0.0324	-0.008
Mof_H 	H 	0.6874	0.49	0.0412	0.077
Mof_H 	H 	0.0666	0.738	0.6386	0.041
Mof_H 	H 	0.0324	0.8626	0.7544	0.002
Mof_H 	H 	0.0412	0.7814	0.6874	0.081
Mof_H 	H 	0.5568	0.6386	0.738	0.045
Mof_H 	H 	0.3506	0.7544	0.8626	0.013
Mof_H 	H 	0.49	0.6874	0.7814	0.085
Mof_H 	H 	0.738	0.0666	0.5568	0.041
Mof_H 	H 	0.8626	0.0324	0.3506	-0.004
Mof_H 	H 	0.7814	0.0412	0.49	0.081
Mof_H 	H 	0.0666	0.5568	0.738	0.041
Mof_H 	H 	0.0324	0.3506	0.8626	-0.004
Mof_H 	H 	0.0412	0.49	0.7814	0.081
Mof_H 	H 	0.6386	0.738	0.5568	0.045
Mof_H 	H 	0.7544	0.8626	0.3506	0.013
Mof_H 	H 	0.6874	0.7814	0.49	0.085
Mof_H 	H 	0.738	0.6386	0.0666	0.041
Mof_H 	H 	0.8626	0.7544	0.0324	0.002
Mof_H 	H 	0.7814	0.6874	0.0412	0.081
Mof_H 	H 	0.5568	0.0666	0.6386	0.04
Mof_H 	H 	0.3506	0.0324	0.7544	-0.008
Mof_H 	H 	0.49	0.0412	0.6874	0.077
Mof_H 	H 	0.5568	0.738	0.6386	0.045
Mof_H 	H 	0.3506	0.8626	0.7544	0.013
Mof_H 	H 	0.49	0.7814	0.6874	0.085
Mof_H 	H 	0.738	0.5568	0.0666	0.041
Mof_H 	H 	0.8626	0.3506	0.0324	-0.004
Mof_H 	H 	0.7814	0.49	0.0412	0.081
Mof_H 	H 	0.6386	0.0666	0.5568	0.04
Mof_H 	H 	0.7544	0.0324	0.3506	-0.008
Mof_H 	H 	0.6874	0.0412	0.49	0.077
Mof_H 	H 	0.0666	0.6386	0.738	0.041
Mof_H 	H 	0.0324	0.7544	0.8626	0.002
Mof_H 	H 	0.0412	0.6874	0.7814	0.081
Mof_H 	H 	0.5568	0.6386	0.0666	0.04
Mof_H 	H 	0.3506	0.7544	0.0324	-0.008
Mof_H 	H 	0.49	0.6874	0.0412	0.077
Mof_H 	H 	0.738	0.0666	0.6386	0.041
Mof_H 	H 	0.8626	0.0324	0.7544	0.002
Mof_H 	H 	0.7814	0.0412	0.6874	0.081
Mof_H 	H 	0.6386	0.5568	0.738	0.045
Mof_H 	H 	0.7544	0.3506	0.8626	0.013
Mof_H 	H 	0.6874	0.49	0.7814	0.085
Mof_H 	H 	0.0666	0.738	0.5568	0.041
Mof_H 	H 	0.0324	0.8626	0.3506	-0.004
Mof_H 	H 	0.0412	0.7814	0.49	0.081
Mof_H 	H 	0.5568	0.0666	0.738	0.041
Mof_H 	H 	0.3506	0.0324	0.8626	-0.004
Mof_H 	H 	0.49	0.0412	0.7814	0.081
Mof_H 	H 	0.738	0.6386	0.5568	0.045
Mof_H 	H 	0.8626	0.7544	0.3506	0.013
Mof_H 	H 	0.7814	0.6874	0.49	0.085
Mof_H 	H 	0.6386	0.738	0.0666	0.041
Mof_H 	H 	0.7544	0.8626	0.0324	0.002
Mof_H 	H 	0.6874	0.7814	0.0412	0.081
Mof_H 	H 	0.0666	0.5568	0.6386	0.04
Mof_H 	H 	0.0324	0.3506	0.7544	-0.008
Mof_H 	H 	0.0412	0.49	0.6874	0.077
Mof_H 	H 	0.262	0.4432	0.3614	0.039
Mof_H 	H 	0.1374	0.6494	0.2456	-0.013
Mof_H 	H 	0.2186	0.51	0.3126	0.077
Mof_H 	H 	0.4432	0.262	0.9334	0.043
Mof_H 	H 	0.6494	0.1374	0.9676	0.007
Mof_H 	H 	0.51	0.2186	0.9588	0.082
Mof_H 	H 	0.9334	0.3614	0.4432	0.044
Mof_H 	H 	0.9676	0.2456	0.6494	0.01
Mof_H 	H 	0.9588	0.3126	0.51	0.085
Mof_H 	H 	0.3614	0.9334	0.262	0.043
Mof_H 	H 	0.2456	0.9676	0.1374	0.002
Mof_H 	H 	0.3126	0.9588	0.2186	0.082
Mof_H 	H 	0.3614	0.4432	0.9334	0.044
Mof_H 	H 	0.2456	0.6494	0.9676	0.01
Mof_H 	H 	0.3126	0.51	0.9588	0.085
Mof_H 	H 	0.9334	0.262	0.3614	0.043
Mof_H 	H 	0.9676	0.1374	0.2456	0.002
Mof_H 	H 	0.9588	0.2186	0.3126	0.082
Mof_H 	H 	0.4432	0.3614	0.262	0.039
Mof_H 	H 	0.6494	0.2456	0.1374	-0.013
Mof_H 	H 	0.51	0.3126	0.2186	0.077
Mof_H 	H 	0.262	0.9334	0.4432	0.043
Mof_H 	H 	0.1374	0.9676	0.6494	0.007
Mof_H 	H 	0.2186	0.9588	0.51	0.082
Mof_H 	H 	0.9334	0.4432	0.262	0.043
Mof_H 	H 	0.9676	0.6494	0.1374	0.007
Mof_H 	H 	0.9588	0.51	0.2186	0.082
Mof_H 	H 	0.3614	0.262	0.4432	0.039
Mof_H 	H 	0.2456	0.1374	0.6494	-0.013
Mof_H 	H 	0.3126	0.2186	0.51	0.077
Mof_H 	H 	0.262	0.3614	0.9334	0.043
Mof_H 	H 	0.1374	0.2456	0.9676	0.002
Mof_H 	H 	0.2186	0.3126	0.9588	0.082
Mof_H 	H 	0.4432	0.9334	0.3614	0.044
Mof_H 	H 	0.6494	0.9676	0.2456	0.01
Mof_H 	H 	0.51	0.9588	0.3126	0.085
Mof_H 	H 	0.7453	0.1317	0.1317	-0.037
Mof_H 	H 	0.1317	0.7453	0.9913	-0.008
Mof_H 	H 	0.1317	0.9913	0.7453	-0.008
Mof_H 	H 	0.9913	0.1317	0.1317	-0.018
Mof_H 	H 	0.7453	0.1317	0.9913	-0.008
Mof_H 	H 	0.1317	0.9913	0.1317	-0.018
Mof_H 	H 	0.1317	0.7453	0.1317	-0.037
Mof_H 	H 	0.9913	0.1317	0.7453	-0.008
Mof_H 	H 	0.7453	0.9913	0.1317	-0.008
Mof_H 	H 	0.1317	0.1317	0.7453	-0.037
Mof_H 	H 	0.1317	0.1317	0.9913	-0.018
Mof_H 	H 	0.9913	0.7453	0.1317	-0.008
Mof_H 	H 	0.8683	0.2547	0.8683	-0.002
Mof_H 	H 	0.2547	0.8683	0.0087	-0.028
Mof_H 	H 	0.0087	0.8683	0.2547	-0.028
Mof_H 	H 	0.8683	0.0087	0.8683	-0.016
Mof_H 	H 	0.8683	0.2547	0.0087	-0.028
Mof_H 	H 	0.0087	0.8683	0.8683	-0.016
Mof_H 	H 	0.2547	0.8683	0.8683	-0.002
Mof_H 	H 	0.8683	0.0087	0.2547	-0.028
Mof_H 	H 	0.0087	0.2547	0.8683	-0.028
Mof_H 	H 	0.8683	0.8683	0.2547	-0.002
Mof_H 	H 	0.8683	0.8683	0.0087	-0.016
Mof_H 	H 	0.2547	0.0087	0.8683	-0.028
Mof_H 	H 	0.3931	0.2801	0.3931	0.061
Mof_H 	H 	0.2801	0.3931	0.9337	0.064
Mof_H 	H 	0.3931	0.9337	0.3931	0.065
Mof_H 	H 	0.9337	0.3931	0.2801	0.064
Mof_H 	H 	0.3931	0.3931	0.9337	0.065
Mof_H 	H 	0.2801	0.9337	0.3931	0.064
Mof_H 	H 	0.3931	0.3931	0.2801	0.061
Mof_H 	H 	0.9337	0.2801	0.3931	0.064
Mof_H 	H 	0.3931	0.9337	0.2801	0.064
Mof_H 	H 	0.2801	0.3931	0.3931	0.061
Mof_H 	H 	0.3931	0.2801	0.9337	0.064
Mof_H 	H 	0.9337	0.3931	0.3931	0.065
Mof_H 	H 	0.7199	0.6069	0.6069	0.065
Mof_H 	H 	0.6069	0.7199	0.0663	0.063
Mof_H 	H 	0.0663	0.6069	0.6069	0.062
Mof_H 	H 	0.6069	0.0663	0.7199	0.063
Mof_H 	H 	0.6069	0.6069	0.0663	0.062
Mof_H 	H 	0.0663	0.7199	0.6069	0.063
Mof_H 	H 	0.6069	0.6069	0.7199	0.065
Mof_H 	H 	0.7199	0.0663	0.6069	0.063
Mof_H 	H 	0.0663	0.6069	0.7199	0.063
Mof_H 	H 	0.6069	0.7199	0.6069	0.065
Mof_H 	H 	0.7199	0.6069	0.0663	0.063
Mof_H 	H 	0.6069	0.0663	0.6069	0.062
Mof_C 	C 	0.7189	0.0825	0.2117	0.436
Mof_C 	C 	0.7016	0.1278	0.1908	-0.307
Mof_C 	C 	0.4579	0.2743	0.3311	-0.039
Mof_C 	C 	0.6623	0.1507	0.2151	0.17
Mof_C 	C 	0.501	0.2498	0.3014	-0.138
Mof_C 	C 	0.0825	0.7189	0.9869	0.416
Mof_C 	C 	0.1278	0.7016	0.9798	-0.257
Mof_C 	C 	0.2743	0.4579	0.9367	-0.039
Mof_C 	C 	0.1507	0.6623	0.9719	0.13
Mof_C 	C 	0.2498	0.501	0.9478	-0.129
Mof_C 	C 	0.2117	0.9869	0.7189	0.417
Mof_C 	C 	0.1908	0.9798	0.7016	-0.255
Mof_C 	C 	0.3311	0.9367	0.4579	-0.038
Mof_C 	C 	0.2151	0.9719	0.6623	0.129
Mof_C 	C 	0.3014	0.9478	0.501	-0.129
Mof_C 	C 	0.9869	0.2117	0.0825	0.421
Mof_C 	C 	0.9798	0.1908	0.1278	-0.271
Mof_C 	C 	0.9367	0.3311	0.2743	-0.039
Mof_C 	C 	0.9719	0.2151	0.1507	0.141
Mof_C 	C 	0.9478	0.3014	0.2498	-0.131
Mof_C 	C 	0.7189	0.2117	0.9869	0.417
Mof_C 	C 	0.7016	0.1908	0.9798	-0.255
Mof_C 	C 	0.4579	0.3311	0.9367	-0.038
Mof_C 	C 	0.6623	0.2151	0.9719	0.129
Mof_C 	C 	0.501	0.3014	0.9478	-0.129
Mof_C 	C 	0.0825	0.9869	0.2117	0.421
Mof_C 	C 	0.1278	0.9798	0.1908	-0.271
Mof_C 	C 	0.2743	0.9367	0.3311	-0.039
Mof_C 	C 	0.1507	0.9719	0.2151	0.141
Mof_C 	C 	0.2498	0.9478	0.3014	-0.131
Mof_C 	C 	0.2117	0.7189	0.0825	0.436
Mof_C 	C 	0.1908	0.7016	0.1278	-0.307
Mof_C 	C 	0.3311	0.4579	0.2743	-0.039
Mof_C 	C 	0.2151	0.6623	0.1507	0.17
Mof_C 	C 	0.3014	0.501	0.2498	-0.138
Mof_C 	C 	0.9869	0.0825	0.7189	0.416
Mof_C 	C 	0.9798	0.1278	0.7016	-0.257
Mof_C 	C 	0.9367	0.2743	0.4579	-0.039
Mof_C 	C 	0.9719	0.1507	0.6623	0.13
Mof_C 	C 	0.9478	0.2498	0.501	-0.129
Mof_C 	C 	0.7189	0.9869	0.0825	0.416
Mof_C 	C 	0.7016	0.9798	0.1278	-0.257
Mof_C 	C 	0.4579	0.9367	0.2743	-0.039
Mof_C 	C 	0.6623	0.9719	0.1507	0.13
Mof_C 	C 	0.501	0.9478	0.2498	-0.129
Mof_C 	C 	0.0825	0.2117	0.7189	0.436
Mof_C 	C 	0.1278	0.1908	0.7016	-0.307
Mof_C 	C 	0.2743	0.3311	0.4579	-0.039
Mof_C 	C 	0.1507	0.2151	0.6623	0.17
Mof_C 	C 	0.2498	0.3014	0.501	-0.138
Mof_C 	C 	0.2117	0.0825	0.9869	0.421
Mof_C 	C 	0.1908	0.1278	0.9798	-0.271
Mof_C 	C 	0.3311	0.2743	0.9367	-0.039
Mof_C 	C 	0.2151	0.1507	0.9719	0.141
Mof_C 	C 	0.3014	0.2498	0.9478	-0.131
Mof_C 	C 	0.9869	0.7189	0.2117	0.417
Mof_C 	C 	0.9798	0.7016	0.1908	-0.255
Mof_C 	C 	0.9367	0.4579	0.3311	-0.038
Mof_C 	C 	0.9719	0.6623	0.2151	0.129
Mof_C 	C 	0.9478	0.501	0.3014	-0.129
Mof_C 	C 	0.9175	0.2811	0.7883	0.414
Mof_C 	C 	0.8722	0.2984	0.8092	-0.246
Mof_C 	C 	0.7257	0.5421	0.6689	-0.039
Mof_C 	C 	0.8493	0.3377	0.7849	0.122
Mof_C 	C 	0.7502	0.499	0.6986	-0.127
Mof_C 	C 	0.2811	0.9175	0.0131	0.426
Mof_C 	C 	0.2984	0.8722	0.0202	-0.288
Mof_C 	C 	0.5421	0.7257	0.0633	-0.038
Mof_C 	C 	0.3377	0.8493	0.0281	0.155
Mof_C 	C 	0.499	0.7502	0.0522	-0.135
Mof_C 	C 	0.0131	0.7883	0.2811	0.431
Mof_C 	C 	0.0202	0.8092	0.2984	-0.293
Mof_C 	C 	0.0633	0.6689	0.5421	-0.04
Mof_C 	C 	0.0281	0.7849	0.3377	0.157
Mof_C 	C 	0.0522	0.6986	0.499	-0.135
Mof_C 	C 	0.7883	0.0131	0.9175	0.419
Mof_C 	C 	0.8092	0.0202	0.8722	-0.268
Mof_C 	C 	0.6689	0.0633	0.7257	-0.038
Mof_C 	C 	0.7849	0.0281	0.8493	0.138
Mof_C 	C 	0.6986	0.0522	0.7502	-0.134
Mof_C 	C 	0.7883	0.2811	0.0131	0.431
Mof_C 	C 	0.8092	0.2984	0.0202	-0.293
Mof_C 	C 	0.6689	0.5421	0.0633	-0.04
Mof_C 	C 	0.7849	0.3377	0.0281	0.157
Mof_C 	C 	0.6986	0.499	0.0522	-0.135
Mof_C 	C 	0.0131	0.9175	0.7883	0.419
Mof_C 	C 	0.0202	0.8722	0.8092	-0.268
Mof_C 	C 	0.0633	0.7257	0.6689	-0.038
Mof_C 	C 	0.0281	0.8493	0.7849	0.138
Mof_C 	C 	0.0522	0.7502	0.6986	-0.134
Mof_C 	C 	0.2811	0.7883	0.9175	0.414
Mof_C 	C 	0.2984	0.8092	0.8722	-0.246
Mof_C 	C 	0.5421	0.6689	0.7257	-0.039
Mof_C 	C 	0.3377	0.7849	0.8493	0.122
Mof_C 	C 	0.499	0.6986	0.7502	-0.127
Mof_C 	C 	0.9175	0.0131	0.2811	0.426
Mof_C 	C 	0.8722	0.0202	0.2984	-0.288
Mof_C 	C 	0.7257	0.0633	0.5421	-0.038
Mof_C 	C 	0.8493	0.0281	0.3377	0.155
Mof_C 	C 	0.7502	0.0522	0.499	-0.135
Mof_C 	C 	0.0131	0.2811	0.9175	0.426
Mof_C 	C 	0.0202	0.2984	0.8722	-0.288
Mof_C 	C 	0.0633	0.5421	0.7257	-0.038
Mof_C 	C 	0.0281	0.3377	0.8493	0.155
Mof_C 	C 	0.0522	0.499	0.7502	-0.135
Mof_C 	C 	0.7883	0.9175	0.2811	0.414
Mof_C 	C 	0.8092	0.8722	0.2984	-0.246
Mof_C 	C 	0.6689	0.7257	0.5421	-0.039
Mof_C 	C 	0.7849	0.8493	0.3377	0.122
Mof_C 	C 	0.6986	0.7502	0.499	-0.127
Mof_C 	C 	0.9175	0.7883	0.0131	0.419
Mof_C 	C 	0.8722	0.8092	0.0202	-0.268
Mof_C 	C 	0.7257	0.6689	0.0633	-0.038
Mof_C 	C 	0.8493	0.7849	0.0281	0.138
Mof_C 	C 	0.7502	0.6986	0.0522	-0.134
Mof_C 	C 	0.2811	0.0131	0.7883	0.431
Mof_C 	C 	0.2984	0.0202	0.8092	-0.293
Mof_C 	C 	0.5421	0.0633	0.6689	-0.04
Mof_C 	C 	0.3377	0.0281	0.7849	0.157
Mof_C 	C 	0.499	0.0522	0.6986	-0.135
Mof_C 	C 	0.2811	0.9175	0.7883	0.414
Mof_C 	C 	0.2984	0.8722	0.8092	-0.246
Mof_C 	C 	0.5421	0.7257	0.6689	-0.039
Mof_C 	C 	0.3377	0.8493	0.7849	0.122
Mof_C 	C 	0.499	0.7502	0.6986	-0.127
Mof_C 	C 	0.9175	0.2811	0.0131	0.426
Mof_C 	C 	0.8722	0.2984	0.0202	-0.288
Mof_C 	C 	0.7257	0.5421	0.0633	-0.038
Mof_C 	C 	0.8493	0.3377	0.0281	0.155
Mof_C 	C 	0.7502	0.499	0.0522	-0.135
Mof_C 	C 	0.7883	0.0131	0.2811	0.431
Mof_C 	C 	0.8092	0.0202	0.2984	-0.293
Mof_C 	C 	0.6689	0.0633	0.5421	-0.04
Mof_C 	C 	0.7849	0.0281	0.3377	0.157
Mof_C 	C 	0.6986	0.0522	0.499	-0.135
Mof_C 	C 	0.0131	0.7883	0.9175	0.419
Mof_C 	C 	0.0202	0.8092	0.8722	-0.268
Mof_C 	C 	0.0633	0.6689	0.7257	-0.038
Mof_C 	C 	0.0281	0.7849	0.8493	0.138
Mof_C 	C 	0.0522	0.6986	0.7502	-0.134
Mof_C 	C 	0.2811	0.7883	0.0131	0.431
Mof_C 	C 	0.2984	0.8092	0.0202	-0.293
Mof_C 	C 	0.5421	0.6689	0.0633	-0.04
Mof_C 	C 	0.3377	0.7849	0.0281	0.157
Mof_C 	C 	0.499	0.6986	0.0522	-0.135
Mof_C 	C 	0.9175	0.0131	0.7883	0.419
Mof_C 	C 	0.8722	0.0202	0.8092	-0.268
Mof_C 	C 	0.7257	0.0633	0.6689	-0.038
Mof_C 	C 	0.8493	0.0281	0.7849	0.138
Mof_C 	C 	0.7502	0.0522	0.6986	-0.134
Mof_C 	C 	0.7883	0.2811	0.9175	0.414
Mof_C 	C 	0.8092	0.2984	0.8722	-0.246
Mof_C 	C 	0.6689	0.5421	0.7257	-0.039
Mof_C 	C 	0.7849	0.3377	0.8493	0.122
Mof_C 	C 	0.6986	0.499	0.7502	-0.127
Mof_C 	C 	0.0131	0.9175	0.2811	0.426
Mof_C 	C 	0.0202	0.8722	0.2984	-0.288
Mof_C 	C 	0.0633	0.7257	0.5421	-0.038
Mof_C 	C 	0.0281	0.8493	0.3377	0.155
Mof_C 	C 	0.0522	0.7502	0.499	-0.135
Mof_C 	C 	0.2811	0.0131	0.9175	0.426
Mof_C 	C 	0.2984	0.0202	0.8722	-0.288
Mof_C 	C 	0.5421	0.0633	0.7257	-0.038
Mof_C 	C 	0.3377	0.0281	0.8493	0.155
Mof_C 	C 	0.499	0.0522	0.7502	-0.135
Mof_C 	C 	0.9175	0.7883	0.2811	0.414
Mof_C 	C 	0.8722	0.8092	0.2984	-0.246
Mof_C 	C 	0.7257	0.6689	0.5421	-0.039
Mof_C 	C 	0.8493	0.7849	0.3377	0.122
Mof_C 	C 	0.7502	0.6986	0.499	-0.127
Mof_C 	C 	0.7883	0.9175	0.0131	0.419
Mof_C 	C 	0.8092	0.8722	0.0202	-0.268
Mof_C 	C 	0.6689	0.7257	0.0633	-0.038
Mof_C 	C 	0.7849	0.8493	0.0281	0.138
Mof_C 	C 	0.6986	0.7502	0.0522	-0.134
Mof_C 	C 	0.0131	0.2811	0.7883	0.431
Mof_C 	C 	0.0202	0.2984	0.8092	-0.293
Mof_C 	C 	0.0633	0.5421	0.6689	-0.04
Mof_C 	C 	0.0281	0.3377	0.7849	0.157
Mof_C 	C 	0.0522	0.499	0.6986	-0.135
Mof_C 	C 	0.0825	0.7189	0.2117	0.436
Mof_C 	C 	0.1278	0.7016	0.1908	-0.307
Mof_C 	C 	0.2743	0.4579	0.3311	-0.039
Mof_C 	C 	0.1507	0.6623	0.2151	0.17
Mof_C 	C 	0.2498	0.501	0.3014	-0.138
Mof_C 	C 	0.7189	0.0825	0.9869	0.416
Mof_C 	C 	0.7016	0.1278	0.9798	-0.257
Mof_C 	C 	0.4579	0.2743	0.9367	-0.039
Mof_C 	C 	0.6623	0.1507	0.9719	0.13
Mof_C 	C 	0.501	0.2498	0.9478	-0.129
Mof_C 	C 	0.9869	0.2117	0.7189	0.417
Mof_C 	C 	0.9798	0.1908	0.7016	-0.255
Mof_C 	C 	0.9367	0.3311	0.4579	-0.038
Mof_C 	C 	0.9719	0.2151	0.6623	0.129
Mof_C 	C 	0.9478	0.3014	0.501	-0.129
Mof_C 	C 	0.2117	0.9869	0.0825	0.421
Mof_C 	C 	0.1908	0.9798	0.1278	-0.271
Mof_C 	C 	0.3311	0.9367	0.2743	-0.039
Mof_C 	C 	0.2151	0.9719	0.1507	0.141
Mof_C 	C 	0.3014	0.9478	0.2498	-0.131
Mof_C 	C 	0.2117	0.7189	0.9869	0.417
Mof_C 	C 	0.1908	0.7016	0.9798	-0.255
Mof_C 	C 	0.3311	0.4579	0.9367	-0.038
Mof_C 	C 	0.2151	0.6623	0.9719	0.129
Mof_C 	C 	0.3014	0.501	0.9478	-0.129
Mof_C 	C 	0.9869	0.0825	0.2117	0.421
Mof_C 	C 	0.9798	0.1278	0.1908	-0.271
Mof_C 	C 	0.9367	0.2743	0.3311	-0.039
Mof_C 	C 	0.9719	0.1507	0.2151	0.141
Mof_C 	C 	0.9478	0.2498	0.3014	-0.131
Mof_C 	C 	0.7189	0.2117	0.0825	0.436
Mof_C 	C 	0.7016	0.1908	0.1278	-0.307
Mof_C 	C 	0.4579	0.3311	0.2743	-0.039
Mof_C 	C 	0.6623	0.2151	0.1507	0.17
Mof_C 	C 	0.501	0.3014	0.2498	-0.138
Mof_C 	C 	0.0825	0.9869	0.7189	0.416
Mof_C 	C 	0.1278	0.9798	0.7016	-0.257
Mof_C 	C 	0.2743	0.9367	0.4579	-0.039
Mof_C 	C 	0.1507	0.9719	0.6623	0.13
Mof_C 	C 	0.2498	0.9478	0.501	-0.129
Mof_C 	C 	0.9869	0.7189	0.0825	0.416
Mof_C 	C 	0.9798	0.7016	0.1278	-0.257
Mof_C 	C 	0.9367	0.4579	0.2743	-0.039
Mof_C 	C 	0.9719	0.6623	0.1507	0.13
Mof_C 	C 	0.9478	0.501	0.2498	-0.129
Mof_C 	C 	0.2117	0.0825	0.7189	0.436
Mof_C 	C 	0.1908	0.1278	0.7016	-0.307
Mof_C 	C 	0.3311	0.2743	0.4579	-0.039
Mof_C 	C 	0.2151	0.1507	0.6623	0.17
Mof_C 	C 	0.3014	0.2498	0.501	-0.138
Mof_C 	C 	0.0825	0.2117	0.9869	0.421
Mof_C 	C 	0.1278	0.1908	0.9798	-0.271
Mof_C 	C 	0.2743	0.3311	0.9367	-0.039
Mof_C 	C 	0.1507	0.2151	0.9719	0.141
Mof_C 	C 	0.2498	0.3014	0.9478	-0.131
Mof_C 	C 	0.7189	0.9869	0.2117	0.417
Mof_C 	C 	0.7016	0.9798	0.1908	-0.255
Mof_C 	C 	0.4579	0.9367	0.3311	-0.038
Mof_C 	C 	0.6623	0.9719	0.2151	0.129
Mof_C 	C 	0.501	0.9478	0.3014	-0.129
Mof_C 	C 	0.7188	0.1484	0.1484	0.28
Mof_C 	C 	0.4475	0.3097	0.3097	0.026
Mof_C 	C 	0.4006	0.335	0.335	0.045
Mof_C 	C 	0.6432	0.1932	0.1932	-0.156
Mof_C 	C 	0.6001	0.2207	0.2207	0.087
Mof_C 	C 	0.568	0.2384	0.2384	-0.12
Mof_C 	C 	0.5246	0.2656	0.2656	0.144
Mof_C 	C 	0.1484	0.7188	0.9844	0.232
Mof_C 	C 	0.3097	0.4475	0.9331	0.028
Mof_C 	C 	0.335	0.4006	0.9294	0.048
Mof_C 	C 	0.1932	0.6432	0.9704	-0.112
Mof_C 	C 	0.2207	0.6001	0.9585	0.075
Mof_C 	C 	0.2384	0.568	0.9552	-0.098
Mof_C 	C 	0.2656	0.5246	0.9442	0.136
Mof_C 	C 	0.1484	0.9844	0.7188	0.232
Mof_C 	C 	0.3097	0.9331	0.4475	0.028
Mof_C 	C 	0.335	0.9294	0.4006	0.048
Mof_C 	C 	0.1932	0.9704	0.6432	-0.112
Mof_C 	C 	0.2207	0.9585	0.6001	0.075
Mof_C 	C 	0.2384	0.9552	0.568	-0.098
Mof_C 	C 	0.2656	0.9442	0.5246	0.136
Mof_C 	C 	0.9844	0.1484	0.1484	0.246
Mof_C 	C 	0.9331	0.3097	0.3097	0.028
Mof_C 	C 	0.9294	0.335	0.335	0.047
Mof_C 	C 	0.9704	0.1932	0.1932	-0.124
Mof_C 	C 	0.9585	0.2207	0.2207	0.078
Mof_C 	C 	0.9552	0.2384	0.2384	-0.103
Mof_C 	C 	0.9442	0.2656	0.2656	0.138
Mof_C 	C 	0.7188	0.1484	0.9844	0.232
Mof_C 	C 	0.4475	0.3097	0.9331	0.028
Mof_C 	C 	0.4006	0.335	0.9294	0.048
Mof_C 	C 	0.6432	0.1932	0.9704	-0.112
Mof_C 	C 	0.6001	0.2207	0.9585	0.075
Mof_C 	C 	0.568	0.2384	0.9552	-0.098
Mof_C 	C 	0.5246	0.2656	0.9442	0.136
Mof_C 	C 	0.1484	0.9844	0.1484	0.246
Mof_C 	C 	0.3097	0.9331	0.3097	0.028
Mof_C 	C 	0.335	0.9294	0.335	0.047
Mof_C 	C 	0.1932	0.9704	0.1932	-0.124
Mof_C 	C 	0.2207	0.9585	0.2207	0.078
Mof_C 	C 	0.2384	0.9552	0.2384	-0.103
Mof_C 	C 	0.2656	0.9442	0.2656	0.138
Mof_C 	C 	0.1484	0.7188	0.1484	0.28
Mof_C 	C 	0.3097	0.4475	0.3097	0.026
Mof_C 	C 	0.335	0.4006	0.335	0.045
Mof_C 	C 	0.1932	0.6432	0.1932	-0.156
Mof_C 	C 	0.2207	0.6001	0.2207	0.087
Mof_C 	C 	0.2384	0.568	0.2384	-0.12
Mof_C 	C 	0.2656	0.5246	0.2656	0.144
Mof_C 	C 	0.9844	0.1484	0.7188	0.232
Mof_C 	C 	0.9331	0.3097	0.4475	0.028
Mof_C 	C 	0.9294	0.335	0.4006	0.048
Mof_C 	C 	0.9704	0.1932	0.6432	-0.112
Mof_C 	C 	0.9585	0.2207	0.6001	0.075
Mof_C 	C 	0.9552	0.2384	0.568	-0.098
Mof_C 	C 	0.9442	0.2656	0.5246	0.136
Mof_C 	C 	0.7188	0.9844	0.1484	0.232
Mof_C 	C 	0.4475	0.9331	0.3097	0.028
Mof_C 	C 	0.4006	0.9294	0.335	0.048
Mof_C 	C 	0.6432	0.9704	0.1932	-0.112
Mof_C 	C 	0.6001	0.9585	0.2207	0.075
Mof_C 	C 	0.568	0.9552	0.2384	-0.098
Mof_C 	C 	0.5246	0.9442	0.2656	0.136
Mof_C 	C 	0.1484	0.1484	0.7188	0.28
Mof_C 	C 	0.3097	0.3097	0.4475	0.026
Mof_C 	C 	0.335	0.335	0.4006	0.045
Mof_C 	C 	0.1932	0.1932	0.6432	-0.156
Mof_C 	C 	0.2207	0.2207	0.6001	0.087
Mof_C 	C 	0.2384	0.2384	0.568	-0.12
Mof_C 	C 	0.2656	0.2656	0.5246	0.144
Mof_C 	C 	0.1484	0.1484	0.9844	0.246
Mof_C 	C 	0.3097	0.3097	0.9331	0.028
Mof_C 	C 	0.335	0.335	0.9294	0.047
Mof_C 	C 	0.1932	0.1932	0.9704	-0.124
Mof_C 	C 	0.2207	0.2207	0.9585	0.078
Mof_C 	C 	0.2384	0.2384	0.9552	-0.103
Mof_C 	C 	0.2656	0.2656	0.9442	0.138
Mof_C 	C 	0.9844	0.7188	0.1484	0.232
Mof_C 	C 	0.9331	0.4475	0.3097	0.028
Mof_C 	C 	0.9294	0.4006	0.335	0.048
Mof_C 	C 	0.9704	0.6432	0.1932	-0.112
Mof_C 	C 	0.9585	0.6001	0.2207	0.075
Mof_C 	C 	0.9552	0.568	0.2384	-0.098
Mof_C 	C 	0.9442	0.5246	0.2656	0.136
Mof_C 	C 	0.8516	0.2812	0.8516	0.224
Mof_C 	C 	0.6903	0.5525	0.6903	0.03
Mof_C 	C 	0.665	0.5994	0.665	0.048
Mof_C 	C 	0.8068	0.3568	0.8068	-0.104
Mof_C 	C 	0.7793	0.3999	0.7793	0.073
Mof_C 	C 	0.7616	0.432	0.7616	-0.093
Mof_C 	C 	0.7344	0.4754	0.7344	0.135
Mof_C 	C 	0.2812	0.8516	0.0156	0.264
Mof_C 	C 	0.5525	0.6903	0.0669	0.026
Mof_C 	C 	0.5994	0.665	0.0706	0.046
Mof_C 	C 	0.3568	0.8068	0.0296	-0.142
Mof_C 	C 	0.3999	0.7793	0.0415	0.083
Mof_C 	C 	0.432	0.7616	0.0448	-0.113
Mof_C 	C 	0.4754	0.7344	0.0558	0.141
Mof_C 	C 	0.0156	0.8516	0.2812	0.264
Mof_C 	C 	0.0669	0.6903	0.5525	0.026
Mof_C 	C 	0.0706	0.665	0.5994	0.046
Mof_C 	C 	0.0296	0.8068	0.3568	-0.142
Mof_C 	C 	0.0415	0.7793	0.3999	0.083
Mof_C 	C 	0.0448	0.7616	0.432	-0.113
Mof_C 	C 	0.0558	0.7344	0.4754	0.141
Mof_C 	C 	0.8516	0.0156	0.8516	0.242
Mof_C 	C 	0.6903	0.0669	0.6903	0.025
Mof_C 	C 	0.665	0.0706	0.665	0.047
Mof_C 	C 	0.8068	0.0296	0.8068	-0.124
Mof_C 	C 	0.7793	0.0415	0.7793	0.078
Mof_C 	C 	0.7616	0.0448	0.7616	-0.106
Mof_C 	C 	0.7344	0.0558	0.7344	0.14
Mof_C 	C 	0.8516	0.2812	0.0156	0.264
Mof_C 	C 	0.6903	0.5525	0.0669	0.026
Mof_C 	C 	0.665	0.5994	0.0706	0.046
Mof_C 	C 	0.8068	0.3568	0.0296	-0.142
Mof_C 	C 	0.7793	0.3999	0.0415	0.083
Mof_C 	C 	0.7616	0.432	0.0448	-0.113
Mof_C 	C 	0.7344	0.4754	0.0558	0.141
Mof_C 	C 	0.0156	0.8516	0.8516	0.242
Mof_C 	C 	0.0669	0.6903	0.6903	0.025
Mof_C 	C 	0.0706	0.665	0.665	0.047
Mof_C 	C 	0.0296	0.8068	0.8068	-0.124
Mof_C 	C 	0.0415	0.7793	0.7793	0.078
Mof_C 	C 	0.0448	0.7616	0.7616	-0.106
Mof_C 	C 	0.0558	0.7344	0.7344	0.14
Mof_C 	C 	0.2812	0.8516	0.8516	0.224
Mof_C 	C 	0.5525	0.6903	0.6903	0.03
Mof_C 	C 	0.5994	0.665	0.665	0.048
Mof_C 	C 	0.3568	0.8068	0.8068	-0.104
Mof_C 	C 	0.3999	0.7793	0.7793	0.073
Mof_C 	C 	0.432	0.7616	0.7616	-0.093
Mof_C 	C 	0.4754	0.7344	0.7344	0.135
Mof_C 	C 	0.8516	0.0156	0.2812	0.264
Mof_C 	C 	0.6903	0.0669	0.5525	0.026
Mof_C 	C 	0.665	0.0706	0.5994	0.046
Mof_C 	C 	0.8068	0.0296	0.3568	-0.142
Mof_C 	C 	0.7793	0.0415	0.3999	0.083
Mof_C 	C 	0.7616	0.0448	0.432	-0.113
Mof_C 	C 	0.7344	0.0558	0.4754	0.141
Mof_C 	C 	0.0156	0.2812	0.8516	0.264
Mof_C 	C 	0.0669	0.5525	0.6903	0.026
Mof_C 	C 	0.0706	0.5994	0.665	0.046
Mof_C 	C 	0.0296	0.3568	0.8068	-0.142
Mof_C 	C 	0.0415	0.3999	0.7793	0.083
Mof_C 	C 	0.0448	0.432	0.7616	-0.113
Mof_C 	C 	0.0558	0.4754	0.7344	0.141
Mof_C 	C 	0.8516	0.8516	0.2812	0.224
Mof_C 	C 	0.6903	0.6903	0.5525	0.03
Mof_C 	C 	0.665	0.665	0.5994	0.048
Mof_C 	C 	0.8068	0.8068	0.3568	-0.104
Mof_C 	C 	0.7793	0.7793	0.3999	0.073
Mof_C 	C 	0.7616	0.7616	0.432	-0.093
Mof_C 	C 	0.7344	0.7344	0.4754	0.135
Mof_C 	C 	0.8516	0.8516	0.0156	0.242
Mof_C 	C 	0.6903	0.6903	0.0669	0.025
Mof_C 	C 	0.665	0.665	0.0706	0.047
Mof_C 	C 	0.8068	0.8068	0.0296	-0.124
Mof_C 	C 	0.7793	0.7793	0.0415	0.078
Mof_C 	C 	0.7616	0.7616	0.0448	-0.106
Mof_C 	C 	0.7344	0.7344	0.0558	0.14
Mof_C 	C 	0.2812	0.0156	0.8516	0.264
Mof_C 	C 	0.5525	0.0669	0.6903	0.026
Mof_C 	C 	0.5994	0.0706	0.665	0.046
Mof_C 	C 	0.3568	0.0296	0.8068	-0.142
Mof_C 	C 	0.3999	0.0415	0.7793	0.083
Mof_C 	C 	0.432	0.0448	0.7616	-0.113
Mof_C 	C 	0.4754	0.0558	0.7344	0.141
Mof_C 	C 	0.3792	0.3104	0.3792	-0.111
Mof_C 	C 	0.3104	0.3792	0.9312	-0.109
Mof_C 	C 	0.3792	0.9312	0.3792	-0.109
Mof_C 	C 	0.9312	0.3792	0.3104	-0.109
Mof_C 	C 	0.3792	0.3792	0.9312	-0.109
Mof_C 	C 	0.3104	0.9312	0.3792	-0.109
Mof_C 	C 	0.3792	0.3792	0.3104	-0.111
Mof_C 	C 	0.9312	0.3104	0.3792	-0.109
Mof_C 	C 	0.3792	0.9312	0.3104	-0.109
Mof_C 	C 	0.3104	0.3792	0.3792	-0.111
Mof_C 	C 	0.3792	0.3104	0.9312	-0.109
Mof_C 	C 	0.9312	0.3792	0.3792	-0.109
Mof_C 	C 	0.6896	0.6208	0.6208	-0.108
Mof_C 	C 	0.6208	0.6896	0.0688	-0.111
Mof_C 	C 	0.0688	0.6208	0.6208	-0.11
Mof_C 	C 	0.6208	0.0688	0.6896	-0.111
Mof_C 	C 	0.6208	0.6208	0.0688	-0.11
Mof_C 	C 	0.0688	0.6896	0.6208	-0.111
Mof_C 	C 	0.6208	0.6208	0.6896	-0.108
Mof_C 	C 	0.6896	0.0688	0.6208	-0.111
Mof_C 	C 	0.0688	0.6208	0.6896	-0.111
Mof_C 	C 	0.6208	0.6896	0.6208	-0.108
Mof_C 	C 	0.6896	0.6208	0.0688	-0.111
Mof_C 	C 	0.6208	0.0688	0.6208	-0.11
Mof_O 	O 	0.75945	0.05927	0.19333	-0.438
Mof_O 	O 	0.69811	0.05989	0.25187	-0.438
Mof_O 	O 	0.05927	0.75945	0.98795	-0.406
Mof_O 	O 	0.05989	0.69811	0.99013	-0.407
Mof_O 	O 	0.19333	0.98795	0.75945	-0.398
Mof_O 	O 	0.25187	0.99013	0.69811	-0.396
Mof_O 	O 	0.98795	0.19333	0.05927	-0.411
Mof_O 	O 	0.99013	0.25187	0.05989	-0.409
Mof_O 	O 	0.75945	0.19333	0.98795	-0.398
Mof_O 	O 	0.69811	0.25187	0.99013	-0.396
Mof_O 	O 	0.05927	0.98795	0.19333	-0.411
Mof_O 	O 	0.05989	0.99013	0.25187	-0.409
Mof_O 	O 	0.19333	0.75945	0.05927	-0.438
Mof_O 	O 	0.25187	0.69811	0.05989	-0.438
Mof_O 	O 	0.98795	0.05927	0.75945	-0.406
Mof_O 	O 	0.99013	0.05989	0.69811	-0.407
Mof_O 	O 	0.75945	0.98795	0.05927	-0.406
Mof_O 	O 	0.69811	0.99013	0.05989	-0.407
Mof_O 	O 	0.05927	0.19333	0.75945	-0.438
Mof_O 	O 	0.05989	0.25187	0.69811	-0.438
Mof_O 	O 	0.19333	0.05927	0.98795	-0.411
Mof_O 	O 	0.25187	0.05989	0.99013	-0.409
Mof_O 	O 	0.98795	0.75945	0.19333	-0.398
Mof_O 	O 	0.99013	0.69811	0.25187	-0.396
Mof_O 	O 	0.94073	0.24055	0.80667	-0.397
Mof_O 	O 	0.94011	0.30189	0.74813	-0.395
Mof_O 	O 	0.24055	0.94073	0.01205	-0.415
Mof_O 	O 	0.30189	0.94011	0.00987	-0.411
Mof_O 	O 	0.01205	0.80667	0.24055	-0.436
Mof_O 	O 	0.00987	0.74813	0.30189	-0.436
Mof_O 	O 	0.80667	0.01205	0.94073	-0.409
Mof_O 	O 	0.74813	0.00987	0.94011	-0.409
Mof_O 	O 	0.80667	0.24055	0.01205	-0.436
Mof_O 	O 	0.74813	0.30189	0.00987	-0.436
Mof_O 	O 	0.01205	0.94073	0.80667	-0.409
Mof_O 	O 	0.00987	0.94011	0.74813	-0.409
Mof_O 	O 	0.24055	0.80667	0.94073	-0.397
Mof_O 	O 	0.30189	0.74813	0.94011	-0.395
Mof_O 	O 	0.94073	0.01205	0.24055	-0.415
Mof_O 	O 	0.94011	0.00987	0.30189	-0.411
Mof_O 	O 	0.01205	0.24055	0.94073	-0.415
Mof_O 	O 	0.00987	0.30189	0.94011	-0.411
Mof_O 	O 	0.80667	0.94073	0.24055	-0.397
Mof_O 	O 	0.74813	0.94011	0.30189	-0.395
Mof_O 	O 	0.94073	0.80667	0.01205	-0.409
Mof_O 	O 	0.94011	0.74813	0.00987	-0.409
Mof_O 	O 	0.24055	0.01205	0.80667	-0.436
Mof_O 	O 	0.30189	0.00987	0.74813	-0.436
Mof_O 	O 	0.24055	0.94073	0.80667	-0.397
Mof_O 	O 	0.30189	0.94011	0.74813	-0.395
Mof_O 	O 	0.94073	0.24055	0.01205	-0.415
Mof_O 	O 	0.94011	0.30189	0.00987	-0.411
Mof_O 	O 	0.80667	0.01205	0.24055	-0.436
Mof_O 	O 	0.74813	0.00987	0.30189	-0.436
Mof_O 	O 	0.01205	0.80667	0.94073	-0.409
Mof_O 	O 	0.00987	0.74813	0.94011	-0.409
Mof_O 	O 	0.24055	0.80667	0.01205	-0.436
Mof_O 	O 	0.30189	0.74813	0.00987	-0.436
Mof_O 	O 	0.94073	0.01205	0.80667	-0.409
Mof_O 	O 	0.94011	0.00987	0.74813	-0.409
Mof_O 	O 	0.80667	0.24055	0.94073	-0.397
Mof_O 	O 	0.74813	0.30189	0.94011	-0.395
Mof_O 	O 	0.01205	0.94073	0.24055	-0.415
Mof_O 	O 	0.00987	0.94011	0.30189	-0.411
Mof_O 	O 	0.24055	0.01205	0.94073	-0.415
Mof_O 	O 	0.30189	0.00987	0.94011	-0.411
Mof_O 	O 	0.94073	0.80667	0.24055	-0.397
Mof_O 	O 	0.94011	0.74813	0.30189	-0.395
Mof_O 	O 	0.80667	0.94073	0.01205	-0.409
Mof_O 	O 	0.74813	0.94011	0.00987	-0.409
Mof_O 	O 	0.01205	0.24055	0.80667	-0.436
Mof_O 	O 	0.00987	0.30189	0.74813	-0.436
Mof_O 	O 	0.05927	0.75945	0.19333	-0.438
Mof_O 	O 	0.05989	0.69811	0.25187	-0.438
Mof_O 	O 	0.75945	0.05927	0.98795	-0.406
Mof_O 	O 	0.69811	0.05989	0.99013	-0.407
Mof_O 	O 	0.98795	0.19333	0.75945	-0.398
Mof_O 	O 	0.99013	0.25187	0.69811	-0.396
Mof_O 	O 	0.19333	0.98795	0.05927	-0.411
Mof_O 	O 	0.25187	0.99013	0.05989	-0.409
Mof_O 	O 	0.19333	0.75945	0.98795	-0.398
Mof_O 	O 	0.25187	0.69811	0.99013	-0.396
Mof_O 	O 	0.98795	0.05927	0.19333	-0.411
Mof_O 	O 	0.99013	0.05989	0.25187	-0.409
Mof_O 	O 	0.75945	0.19333	0.05927	-0.438
Mof_O 	O 	0.69811	0.25187	0.05989	-0.438
Mof_O 	O 	0.05927	0.98795	0.75945	-0.406
Mof_O 	O 	0.05989	0.99013	0.69811	-0.407
Mof_O 	O 	0.98795	0.75945	0.05927	-0.406
Mof_O 	O 	0.99013	0.69811	0.05989	-0.407
Mof_O 	O 	0.19333	0.05927	0.75945	-0.438
Mof_O 	O 	0.25187	0.05989	0.69811	-0.438
Mof_O 	O 	0.05927	0.19333	0.98795	-0.411
Mof_O 	O 	0.05989	0.25187	0.99013	-0.409
Mof_O 	O 	0.75945	0.98795	0.19333	-0.398
Mof_O 	O 	0.69811	0.99013	0.25187	-0.396
_end
