data_functionalizedCrystal
_audit_creation_method	'EQeq! by Chris Wilmer'
_symmetry_space_group_name_H-M	'P1'
_symmetry_Int_Tables_number	1
_symmetry_cell_setting	triclinic
loop_
_symmetry_equiv_pos_as_xyz
  x,y,z
_cell_length_a	26.867
_cell_length_b	20.084
_cell_length_c	13.099
_cell_angle_alpha	90
_cell_angle_beta	90
_cell_angle_gamma	90
loop_
_atom_site_label
_atom_site_type_symbol
_atom_site_fract_x
_atom_site_fract_y
_atom_site_fract_z
_atom_site_charge
Mof_W 	W 	0.65363	0.16622	0.52874	1.02
Mof_W 	W 	0.76624	0.16667	0.36822	1.269
Mof_W 	W 	0.86864	0.34216	0.68514	0.992
Mof_W 	W 	0.76589	0.07493	0.61145	1.3
Mof_W 	W 	0.7667	0.15837	0.83299	1.31
Mof_Co	Co	0.74025	0.89045	0.6069	1.159
Mof_O 	O 	0.8372	0.1837	0.3595	-0.454
Mof_O 	O 	0.6269	0.1828	0.6632	-0.429
Mof_O 	O 	0.701	0.185	0.7992	-0.482
Mof_O 	O 	0.7557	0.078	0.7568	-0.457
Mof_O 	O 	0.8762	0.3174	0.5438	-0.456
Mof_O 	O 	0.7594	0.1132	0.2676	-0.532
Mof_O 	O 	0.6992	0.106	0.5953	-0.474
Mof_O 	O 	0.7784	0.106	0.4772	-0.495
Mof_O 	O 	0.7833	0.3158	0.662	-0.73
Mof_O 	O 	0.8371	0.3549	0.8146	-0.453
Mof_O 	O 	0.6994	0.1706	0.4196	-0.486
Mof_O 	O 	0.8364	0.4218	0.6384	-0.44
Mof_O 	O 	0.7579	0.9912	0.5933	-0.514
Mof_N 	N 	0.8197	0.8776	0.6114	-0.22
Mof_N 	N 	0.9003	0.8841	0.6538	-0.141
Mof_N 	N 	0.0801	0.9296	0.8598	-0.128
Mof_C 	C 	0.0276	0.8585	0.756	-0.061
Mof_H 	H 	0.0527	0.8268	0.7506	0.041
Mof_C 	C 	0.0901	0.9689	0.944	-0.008
Mof_H 	H 	0.0672	0.9945	0.9804	0.024
Mof_C 	C 	0.0352	0.9174	0.8098	0.07
Mof_C 	C 	0.9446	0.8953	0.7073	0.107
Mof_C 	C 	0.8951	0.8439	0.5624	-0.015
Mof_H 	H 	0.9205	0.8227	0.5266	0.024
Mof_C 	C 	0.8477	0.8435	0.5405	0.015
Mof_H 	H 	0.8344	0.8225	0.4834	0.009
Mof_C 	C 	0.8528	0.9023	0.676	0.111
Mof_H 	H 	0.8444	0.9293	0.7316	-0.003
Mof_C 	C 	0.98	0.8485	0.711	-0.103
Mof_H 	H 	0.9731	0.8071	0.6822	0.06
Mof_C 	C 	0.9524	0.9566	0.7523	-0.104
Mof_H 	H 	0.9288	0.9904	0.7475	0.063
Mof_C 	C 	0.1381	0.9633	0.9647	0.015
Mof_H 	H 	0.1546	0.9862	0.0163	0.019
Mof_C 	C 	0.9971	0.966	0.806	-0.052
Mof_H 	H 	0.002	0.006	0.8396	0.042
Mof_C 	C 	0.1264	0.9006	0.8323	0.081
Mof_H 	H 	0.1316	0.8733	0.7761	0.005
Mof_N 	N 	0.1607	0.918	0.8978	-0.213
Mof_O 	O 	0.759	0.1281	0.9539	-0.556
Mof_W 	W 	0.84637	0.83378	0.02874	1.012
Mof_W 	W 	0.73376	0.83333	0.86822	1.27
Mof_W 	W 	0.63136	0.65784	0.18514	0.992
Mof_W 	W 	0.73411	0.92507	0.11145	1.293
Mof_W 	W 	0.7333	0.84163	0.33299	1.31
Mof_Co	Co	0.75975	0.10955	0.1069	1.159
Mof_O 	O 	0.6628	0.8163	0.8595	-0.454
Mof_O 	O 	0.8731	0.8172	0.1632	-0.428
Mof_O 	O 	0.799	0.815	0.2992	-0.482
Mof_O 	O 	0.7443	0.922	0.2568	-0.456
Mof_O 	O 	0.6238	0.6826	0.0438	-0.458
Mof_O 	O 	0.7406	0.8868	0.7676	-0.532
Mof_O 	O 	0.8008	0.894	0.0953	-0.474
Mof_O 	O 	0.7216	0.894	0.9772	-0.491
Mof_O 	O 	0.7167	0.6842	0.162	-0.73
Mof_O 	O 	0.6629	0.6451	0.3146	-0.453
Mof_O 	O 	0.8006	0.8294	0.9196	-0.483
Mof_O 	O 	0.6636	0.5782	0.1384	-0.441
Mof_O 	O 	0.7421	0.0088	0.0933	-0.512
Mof_N 	N 	0.6803	0.1224	0.1114	-0.22
Mof_N 	N 	0.5997	0.1159	0.1538	-0.14
Mof_N 	N 	0.4199	0.0704	0.3598	-0.129
Mof_C 	C 	0.4724	0.1415	0.256	-0.062
Mof_H 	H 	0.4473	0.1732	0.2506	0.042
Mof_C 	C 	0.4099	0.0311	0.444	-0.007
Mof_H 	H 	0.4328	0.0055	0.4804	0.024
Mof_C 	C 	0.4648	0.0826	0.3098	0.076
Mof_C 	C 	0.5554	0.1047	0.2073	0.104
Mof_C 	C 	0.6049	0.1561	0.0624	-0.016
Mof_H 	H 	0.5795	0.1773	0.0266	0.024
Mof_C 	C 	0.6523	0.1565	0.0405	0.016
Mof_H 	H 	0.6656	0.1775	0.9834	0.008
Mof_C 	C 	0.6472	0.0977	0.176	0.111
Mof_H 	H 	0.6556	0.0707	0.2316	-0.003
Mof_C 	C 	0.52	0.1515	0.211	-0.102
Mof_H 	H 	0.5269	0.1929	0.1822	0.06
Mof_C 	C 	0.5476	0.0434	0.2523	-0.097
Mof_H 	H 	0.5712	0.0096	0.2475	0.06
Mof_C 	C 	0.3619	0.0367	0.4647	0.014
Mof_H 	H 	0.3454	0.0138	0.5163	0.02
Mof_C 	C 	0.5029	0.034	0.306	-0.066
Mof_H 	H 	0.498	0.994	0.3396	0.049
Mof_C 	C 	0.3736	0.0994	0.3323	0.081
Mof_H 	H 	0.3684	0.1267	0.2761	0.005
Mof_N 	N 	0.3393	0.082	0.3978	-0.213
Mof_O 	O 	0.741	0.8719	0.4539	-0.556
Mof_W 	W 	0.34637	0.66622	0.47126	1.021
Mof_W 	W 	0.23376	0.66667	0.63178	1.27
Mof_W 	W 	0.13136	0.84216	0.31486	0.992
Mof_W 	W 	0.23411	0.57493	0.38855	1.301
Mof_W 	W 	0.2333	0.65837	0.16701	1.31
Mof_Co	Co	0.25975	0.39045	0.3931	1.159
Mof_O 	O 	0.1628	0.6837	0.6405	-0.454
Mof_O 	O 	0.3731	0.6828	0.3368	-0.429
Mof_O 	O 	0.299	0.685	0.2008	-0.482
Mof_O 	O 	0.2443	0.578	0.2432	-0.456
Mof_O 	O 	0.1238	0.8174	0.4562	-0.456
Mof_O 	O 	0.2406	0.6132	0.7324	-0.532
Mof_O 	O 	0.3008	0.606	0.4047	-0.474
Mof_O 	O 	0.2216	0.606	0.5228	-0.495
Mof_O 	O 	0.2167	0.8158	0.338	-0.73
Mof_O 	O 	0.1629	0.8549	0.1854	-0.453
Mof_O 	O 	0.3006	0.6706	0.5804	-0.486
Mof_O 	O 	0.1636	0.9218	0.3616	-0.441
Mof_O 	O 	0.2421	0.4912	0.4067	-0.514
Mof_N 	N 	0.1803	0.3776	0.3886	-0.22
Mof_N 	N 	0.0997	0.3841	0.3462	-0.14
Mof_N 	N 	0.9199	0.4296	0.1402	-0.13
Mof_C 	C 	0.9724	0.3585	0.244	-0.063
Mof_H 	H 	0.9473	0.3268	0.2494	0.042
Mof_C 	C 	0.9099	0.4689	0.056	-0.004
Mof_H 	H 	0.9328	0.4945	0.0196	0.022
Mof_C 	C 	0.9648	0.4174	0.1902	0.073
Mof_C 	C 	0.0554	0.3953	0.2927	0.105
Mof_C 	C 	0.1049	0.3439	0.4376	-0.015
Mof_H 	H 	0.0795	0.3227	0.4734	0.024
Mof_C 	C 	0.1523	0.3435	0.4595	0.015
Mof_H 	H 	0.1656	0.3225	0.5166	0.009
Mof_C 	C 	0.1472	0.4023	0.324	0.111
Mof_H 	H 	0.1556	0.4293	0.2684	-0.003
Mof_C 	C 	0.02	0.3485	0.289	-0.1
Mof_H 	H 	0.0269	0.3071	0.3178	0.059
Mof_C 	C 	0.0476	0.4566	0.2477	-0.099
Mof_H 	H 	0.0712	0.4904	0.2525	0.061
Mof_C 	C 	0.8619	0.4633	0.0353	0.007
Mof_H 	H 	0.8454	0.4862	0.9837	0.025
Mof_C 	C 	0.0029	0.466	0.194	-0.06
Mof_H 	H 	0.998	0.506	0.1604	0.046
Mof_C 	C 	0.8736	0.4006	0.1677	0.081
Mof_H 	H 	0.8684	0.3733	0.2239	0.005
Mof_N 	N 	0.8393	0.418	0.1022	-0.213
Mof_O 	O 	0.241	0.6281	0.0461	-0.555
Mof_W 	W 	0.15363	0.33378	0.97126	1.014
Mof_W 	W 	0.26624	0.33333	0.13178	1.27
Mof_W 	W 	0.36864	0.15784	0.81486	0.991
Mof_W 	W 	0.26589	0.42507	0.88855	1.298
Mof_W 	W 	0.2667	0.34163	0.66701	1.31
Mof_Co	Co	0.24025	0.60955	0.8931	1.159
Mof_O 	O 	0.3372	0.3163	0.1405	-0.454
Mof_O 	O 	0.1269	0.3172	0.8368	-0.428
Mof_O 	O 	0.201	0.315	0.7008	-0.482
Mof_O 	O 	0.2557	0.422	0.7432	-0.456
Mof_O 	O 	0.3762	0.1826	0.9562	-0.459
Mof_O 	O 	0.2594	0.3868	0.2324	-0.532
Mof_O 	O 	0.1992	0.394	0.9047	-0.474
Mof_O 	O 	0.2784	0.394	0.0228	-0.493
Mof_O 	O 	0.2833	0.1842	0.838	-0.73
Mof_O 	O 	0.3371	0.1451	0.6854	-0.453
Mof_O 	O 	0.1994	0.3294	0.0804	-0.483
Mof_O 	O 	0.3364	0.0782	0.8616	-0.441
Mof_O 	O 	0.2579	0.5088	0.9067	-0.514
Mof_N 	N 	0.3197	0.6224	0.8886	-0.22
Mof_N 	N 	0.4003	0.6159	0.8462	-0.14
Mof_N 	N 	0.5801	0.5704	0.6402	-0.13
Mof_C 	C 	0.5276	0.6415	0.744	-0.063
Mof_H 	H 	0.5527	0.6732	0.7494	0.042
Mof_C 	C 	0.5901	0.5311	0.556	-0.007
Mof_H 	H 	0.5672	0.5055	0.5196	0.024
Mof_C 	C 	0.5352	0.5826	0.6902	0.077
Mof_C 	C 	0.4446	0.6047	0.7927	0.103
Mof_C 	C 	0.3951	0.6561	0.9376	-0.015
Mof_H 	H 	0.4205	0.6773	0.9734	0.024
Mof_C 	C 	0.3477	0.6565	0.9595	0.013
Mof_H 	H 	0.3344	0.6775	0.0166	0.01
Mof_C 	C 	0.3528	0.5977	0.824	0.111
Mof_H 	H 	0.3444	0.5707	0.7684	-0.003
Mof_C 	C 	0.48	0.6515	0.789	-0.101
Mof_H 	H 	0.4731	0.6929	0.8178	0.059
Mof_C 	C 	0.4524	0.5434	0.7477	-0.095
Mof_H 	H 	0.4288	0.5096	0.7525	0.059
Mof_C 	C 	0.6381	0.5367	0.5353	0.014
Mof_H 	H 	0.6546	0.5138	0.4837	0.02
Mof_C 	C 	0.4971	0.534	0.694	-0.069
Mof_H 	H 	0.502	0.494	0.6604	0.051
Mof_C 	C 	0.6264	0.5994	0.6677	0.081
Mof_H 	H 	0.6316	0.6267	0.7239	0.005
Mof_N 	N 	0.6607	0.582	0.6022	-0.213
Mof_O 	O 	0.259	0.3719	0.5461	-0.556
Mof_W 	W 	0.34637	0.83378	0.47126	1.021
Mof_W 	W 	0.23376	0.83333	0.63178	1.27
Mof_W 	W 	0.13136	0.65784	0.31486	0.992
Mof_W 	W 	0.23411	0.92507	0.38855	1.3
Mof_W 	W 	0.2333	0.84163	0.16701	1.31
Mof_Co	Co	0.25975	0.10955	0.3931	1.159
Mof_O 	O 	0.1628	0.8163	0.6405	-0.454
Mof_O 	O 	0.3731	0.8172	0.3368	-0.429
Mof_O 	O 	0.299	0.815	0.2008	-0.482
Mof_O 	O 	0.2443	0.922	0.2432	-0.457
Mof_O 	O 	0.1238	0.6826	0.4562	-0.456
Mof_O 	O 	0.2406	0.8868	0.7324	-0.532
Mof_O 	O 	0.3008	0.894	0.4047	-0.474
Mof_O 	O 	0.2216	0.894	0.5228	-0.495
Mof_O 	O 	0.2167	0.6842	0.338	-0.73
Mof_O 	O 	0.1629	0.6451	0.1854	-0.453
Mof_O 	O 	0.3006	0.8294	0.5804	-0.486
Mof_O 	O 	0.1636	0.5782	0.3616	-0.44
Mof_O 	O 	0.2421	0.0088	0.4067	-0.514
Mof_N 	N 	0.1803	0.1224	0.3886	-0.22
Mof_N 	N 	0.0997	0.1159	0.3462	-0.141
Mof_N 	N 	0.9199	0.0704	0.1402	-0.128
Mof_C 	C 	0.9724	0.1415	0.244	-0.061
Mof_H 	H 	0.9473	0.1732	0.2494	0.041
Mof_C 	C 	0.9099	0.0311	0.056	-0.008
Mof_H 	H 	0.9328	0.0055	0.0196	0.024
Mof_C 	C 	0.9648	0.0826	0.1902	0.07
Mof_C 	C 	0.0554	0.1047	0.2927	0.107
Mof_C 	C 	0.1049	0.1561	0.4376	-0.015
Mof_H 	H 	0.0795	0.1773	0.4734	0.024
Mof_C 	C 	0.1523	0.1565	0.4595	0.015
Mof_H 	H 	0.1656	0.1775	0.5166	0.009
Mof_C 	C 	0.1472	0.0977	0.324	0.111
Mof_H 	H 	0.1556	0.0707	0.2684	-0.003
Mof_C 	C 	0.02	0.1515	0.289	-0.103
Mof_H 	H 	0.0269	0.1929	0.3178	0.06
Mof_C 	C 	0.0476	0.0434	0.2477	-0.104
Mof_H 	H 	0.0712	0.0096	0.2525	0.063
Mof_C 	C 	0.8619	0.0367	0.0353	0.015
Mof_H 	H 	0.8454	0.0138	0.9837	0.019
Mof_C 	C 	0.0029	0.034	0.194	-0.052
Mof_H 	H 	0.998	0.994	0.1604	0.042
Mof_C 	C 	0.8736	0.0994	0.1677	0.081
Mof_H 	H 	0.8684	0.1267	0.2239	0.005
Mof_N 	N 	0.8393	0.082	0.1022	-0.213
Mof_O 	O 	0.241	0.8719	0.0461	-0.556
Mof_W 	W 	0.15363	0.16622	0.97126	1.012
Mof_W 	W 	0.26624	0.16667	0.13178	1.27
Mof_W 	W 	0.36864	0.34216	0.81486	0.992
Mof_W 	W 	0.26589	0.07493	0.88855	1.293
Mof_W 	W 	0.2667	0.15837	0.66701	1.31
Mof_Co	Co	0.24025	0.89045	0.8931	1.159
Mof_O 	O 	0.3372	0.1837	0.1405	-0.454
Mof_O 	O 	0.1269	0.1828	0.8368	-0.428
Mof_O 	O 	0.201	0.185	0.7008	-0.482
Mof_O 	O 	0.2557	0.078	0.7432	-0.456
Mof_O 	O 	0.3762	0.3174	0.9562	-0.458
Mof_O 	O 	0.2594	0.1132	0.2324	-0.532
Mof_O 	O 	0.1992	0.106	0.9047	-0.474
Mof_O 	O 	0.2784	0.106	0.0228	-0.491
Mof_O 	O 	0.2833	0.3158	0.838	-0.73
Mof_O 	O 	0.3371	0.3549	0.6854	-0.453
Mof_O 	O 	0.1994	0.1706	0.0804	-0.483
Mof_O 	O 	0.3364	0.4218	0.8616	-0.441
Mof_O 	O 	0.2579	0.9912	0.9067	-0.512
Mof_N 	N 	0.3197	0.8776	0.8886	-0.22
Mof_N 	N 	0.4003	0.8841	0.8462	-0.14
Mof_N 	N 	0.5801	0.9296	0.6402	-0.129
Mof_C 	C 	0.5276	0.8585	0.744	-0.062
Mof_H 	H 	0.5527	0.8268	0.7494	0.042
Mof_C 	C 	0.5901	0.9689	0.556	-0.007
Mof_H 	H 	0.5672	0.9945	0.5196	0.024
Mof_C 	C 	0.5352	0.9174	0.6902	0.076
Mof_C 	C 	0.4446	0.8953	0.7927	0.104
Mof_C 	C 	0.3951	0.8439	0.9376	-0.016
Mof_H 	H 	0.4205	0.8227	0.9734	0.024
Mof_C 	C 	0.3477	0.8435	0.9595	0.016
Mof_H 	H 	0.3344	0.8225	0.0166	0.008
Mof_C 	C 	0.3528	0.9023	0.824	0.111
Mof_H 	H 	0.3444	0.9293	0.7684	-0.003
Mof_C 	C 	0.48	0.8485	0.789	-0.102
Mof_H 	H 	0.4731	0.8071	0.8178	0.06
Mof_C 	C 	0.4524	0.9566	0.7477	-0.097
Mof_H 	H 	0.4288	0.9904	0.7525	0.06
Mof_C 	C 	0.6381	0.9633	0.5353	0.014
Mof_H 	H 	0.6546	0.9862	0.4837	0.02
Mof_C 	C 	0.4971	0.966	0.694	-0.066
Mof_H 	H 	0.502	0.006	0.6604	0.049
Mof_C 	C 	0.6264	0.9006	0.6677	0.081
Mof_H 	H 	0.6316	0.8733	0.7239	0.005
Mof_N 	N 	0.6607	0.918	0.6022	-0.213
Mof_O 	O 	0.259	0.1281	0.5461	-0.556
Mof_W 	W 	0.65363	0.33378	0.52874	1.021
Mof_W 	W 	0.76624	0.33333	0.36822	1.27
Mof_W 	W 	0.86864	0.15784	0.68514	0.992
Mof_W 	W 	0.76589	0.42507	0.61145	1.301
Mof_W 	W 	0.7667	0.34163	0.83299	1.31
Mof_Co	Co	0.74025	0.60955	0.6069	1.159
Mof_O 	O 	0.8372	0.3163	0.3595	-0.454
Mof_O 	O 	0.6269	0.3172	0.6632	-0.429
Mof_O 	O 	0.701	0.315	0.7992	-0.482
Mof_O 	O 	0.7557	0.422	0.7568	-0.456
Mof_O 	O 	0.8762	0.1826	0.5438	-0.456
Mof_O 	O 	0.7594	0.3868	0.2676	-0.532
Mof_O 	O 	0.6992	0.394	0.5953	-0.474
Mof_O 	O 	0.7784	0.394	0.4772	-0.495
Mof_O 	O 	0.7833	0.1842	0.662	-0.73
Mof_O 	O 	0.8371	0.1451	0.8146	-0.453
Mof_O 	O 	0.6994	0.3294	0.4196	-0.486
Mof_O 	O 	0.8364	0.0782	0.6384	-0.441
Mof_O 	O 	0.7579	0.5088	0.5933	-0.514
Mof_N 	N 	0.8197	0.6224	0.6114	-0.22
Mof_N 	N 	0.9003	0.6159	0.6538	-0.14
Mof_N 	N 	0.0801	0.5704	0.8598	-0.13
Mof_C 	C 	0.0276	0.6415	0.756	-0.063
Mof_H 	H 	0.0527	0.6732	0.7506	0.042
Mof_C 	C 	0.0901	0.5311	0.944	-0.004
Mof_H 	H 	0.0672	0.5055	0.9804	0.022
Mof_C 	C 	0.0352	0.5826	0.8098	0.073
Mof_C 	C 	0.9446	0.6047	0.7073	0.105
Mof_C 	C 	0.8951	0.6561	0.5624	-0.015
Mof_H 	H 	0.9205	0.6773	0.5266	0.024
Mof_C 	C 	0.8477	0.6565	0.5405	0.015
Mof_H 	H 	0.8344	0.6775	0.4834	0.009
Mof_C 	C 	0.8528	0.5977	0.676	0.111
Mof_H 	H 	0.8444	0.5707	0.7316	-0.003
Mof_C 	C 	0.98	0.6515	0.711	-0.1
Mof_H 	H 	0.9731	0.6929	0.6822	0.059
Mof_C 	C 	0.9524	0.5434	0.7523	-0.099
Mof_H 	H 	0.9288	0.5096	0.7475	0.061
Mof_C 	C 	0.1381	0.5367	0.9647	0.007
Mof_H 	H 	0.1546	0.5138	0.0163	0.025
Mof_C 	C 	0.9971	0.534	0.806	-0.06
Mof_H 	H 	0.002	0.494	0.8396	0.046
Mof_C 	C 	0.1264	0.5994	0.8323	0.081
Mof_H 	H 	0.1316	0.6267	0.7761	0.005
Mof_N 	N 	0.1607	0.582	0.8978	-0.213
Mof_O 	O 	0.759	0.3719	0.9539	-0.555
Mof_W 	W 	0.84637	0.66622	0.02874	1.014
Mof_W 	W 	0.73376	0.66667	0.86822	1.27
Mof_W 	W 	0.63136	0.84216	0.18514	0.991
Mof_W 	W 	0.73411	0.57493	0.11145	1.298
Mof_W 	W 	0.7333	0.65837	0.33299	1.31
Mof_Co	Co	0.75975	0.39045	0.1069	1.159
Mof_O 	O 	0.6628	0.6837	0.8595	-0.454
Mof_O 	O 	0.8731	0.6828	0.1632	-0.428
Mof_O 	O 	0.799	0.685	0.2992	-0.482
Mof_O 	O 	0.7443	0.578	0.2568	-0.456
Mof_O 	O 	0.6238	0.8174	0.0438	-0.459
Mof_O 	O 	0.7406	0.6132	0.7676	-0.532
Mof_O 	O 	0.8008	0.606	0.0953	-0.474
Mof_O 	O 	0.7216	0.606	0.9772	-0.493
Mof_O 	O 	0.7167	0.8158	0.162	-0.73
Mof_O 	O 	0.6629	0.8549	0.3146	-0.453
Mof_O 	O 	0.8006	0.6706	0.9196	-0.483
Mof_O 	O 	0.6636	0.9218	0.1384	-0.441
Mof_O 	O 	0.7421	0.4912	0.0933	-0.514
Mof_N 	N 	0.6803	0.3776	0.1114	-0.22
Mof_N 	N 	0.5997	0.3841	0.1538	-0.14
Mof_N 	N 	0.4199	0.4296	0.3598	-0.13
Mof_C 	C 	0.4724	0.3585	0.256	-0.063
Mof_H 	H 	0.4473	0.3268	0.2506	0.042
Mof_C 	C 	0.4099	0.4689	0.444	-0.007
Mof_H 	H 	0.4328	0.4945	0.4804	0.024
Mof_C 	C 	0.4648	0.4174	0.3098	0.077
Mof_C 	C 	0.5554	0.3953	0.2073	0.103
Mof_C 	C 	0.6049	0.3439	0.0624	-0.015
Mof_H 	H 	0.5795	0.3227	0.0266	0.024
Mof_C 	C 	0.6523	0.3435	0.0405	0.013
Mof_H 	H 	0.6656	0.3225	0.9834	0.01
Mof_C 	C 	0.6472	0.4023	0.176	0.111
Mof_H 	H 	0.6556	0.4293	0.2316	-0.003
Mof_C 	C 	0.52	0.3485	0.211	-0.101
Mof_H 	H 	0.5269	0.3071	0.1822	0.059
Mof_C 	C 	0.5476	0.4566	0.2523	-0.095
Mof_H 	H 	0.5712	0.4904	0.2475	0.059
Mof_C 	C 	0.3619	0.4633	0.4647	0.014
Mof_H 	H 	0.3454	0.4862	0.5163	0.02
Mof_C 	C 	0.5029	0.466	0.306	-0.069
Mof_H 	H 	0.498	0.506	0.3396	0.051
Mof_C 	C 	0.3736	0.4006	0.3323	0.081
Mof_H 	H 	0.3684	0.3733	0.2761	0.005
Mof_N 	N 	0.3393	0.418	0.3978	-0.213
Mof_O 	O 	0.741	0.6281	0.4539	-0.556
Mof_W 	W 	0.6538	0.25	0.75134	1.008
Mof_W 	W 	0.86842	0.25	0.4411	1.003
Mof_V 	V 	0.76358	0.25	0.6034	1.868
Mof_O 	O 	0.8761	0.25	0.7193	-0.465
Mof_O 	O 	0.7552	0.25	0.2981	-0.503
Mof_O 	O 	0.7021	0.25	0.603	-0.681
Mof_O 	O 	0.6261	0.25	0.488	-0.436
Mof_O 	O 	0.7789	0.25	0.8582	-0.529
Mof_O 	O 	0.7846	0.25	0.4866	-0.728
Mof_W 	W 	0.8462	0.75	0.25134	1.008
Mof_W 	W 	0.63158	0.75	0.9411	1.008
Mof_V 	V 	0.73642	0.75	0.1034	1.867
Mof_O 	O 	0.6239	0.75	0.2193	-0.465
Mof_O 	O 	0.7448	0.75	0.7981	-0.503
Mof_O 	O 	0.7979	0.75	0.103	-0.681
Mof_O 	O 	0.8739	0.75	0.988	-0.43
Mof_O 	O 	0.7211	0.75	0.3582	-0.529
Mof_O 	O 	0.7154	0.75	0.9866	-0.726
Mof_W 	W 	0.3462	0.75	0.24866	1.008
Mof_W 	W 	0.13158	0.75	0.5589	1.003
Mof_V 	V 	0.23642	0.75	0.3966	1.868
Mof_O 	O 	0.1239	0.75	0.2807	-0.465
Mof_O 	O 	0.2448	0.75	0.7019	-0.503
Mof_O 	O 	0.2979	0.75	0.397	-0.681
Mof_O 	O 	0.3739	0.75	0.512	-0.436
Mof_O 	O 	0.2211	0.75	0.1418	-0.529
Mof_O 	O 	0.2154	0.75	0.5134	-0.728
Mof_W 	W 	0.1538	0.25	0.74866	1.008
Mof_W 	W 	0.36842	0.25	0.0589	1.008
Mof_V 	V 	0.26358	0.25	0.8966	1.867
Mof_O 	O 	0.3761	0.25	0.7807	-0.465
Mof_O 	O 	0.2552	0.25	0.2019	-0.503
Mof_O 	O 	0.2021	0.25	0.897	-0.681
Mof_O 	O 	0.1261	0.25	0.012	-0.43
Mof_O 	O 	0.2789	0.25	0.6418	-0.529
Mof_O 	O 	0.2846	0.25	0.0134	-0.726
_end
