# CIF file generated by openbabel 3.1.0, see https://openbabel.org
data_I
_chemical_name_common 'image0'
_cell_length_a 9.0362
_cell_length_b 17.484
_cell_length_c 24.772
_cell_angle_alpha 69.717
_cell_angle_beta 84.873
_cell_angle_gamma 82.904
_space_group_name_H-M_alt 'P 1'
_space_group_name_Hall 'P 1'
loop_
    _symmetry_equiv_pos_as_xyz
    x,y,z
loop_
    _atom_site_label
    _atom_site_type_symbol
    _atom_site_fract_x
    _atom_site_fract_y
    _atom_site_fract_z
    _atom_site_occupancy
    Ba1      Ba       0.74853    0.81612    0.68982    1.000
    Ba2      Ba       0.24832    0.73573    0.76987    1.000
    O1       O        0.54310    0.78310    0.78870    1.000
    O2       O        0.64570    0.71100    0.64020    1.000
    O3       O        0.35100    0.81830    0.83900    1.000
    O4       O        0.45070    0.77260    0.67300    1.000
    O5       O        0.59510    0.01760    0.74010    1.000
    H1       H        0.68010    0.99680    0.73630    1.000
    O6       O        0.09850    0.87440    0.87950    1.000
    H2       H        0.08830    0.86500    0.91430    1.000
    O7       O        0.85100    0.94270    0.71770    1.000
    O8       O        0.39660    0.77500    0.19020    1.000
    O9       O        0.45470    0.60590    0.77880    1.000
    O10      O        0.52760    0.70120    0.12480    1.000
    O11      O        0.54510    0.95090    0.68330    1.000
    O12      O        0.09990    0.07840    0.95700    1.000
    C1       C        0.50700    0.72650    0.64650    1.000
    O13      O        0.89360    0.43700    0.54520    1.000
    O14      O        0.39990    0.49850    0.76000    1.000
    H3       H        0.31600    0.52320    0.75770    1.000
    O15      O        0.40020    0.28720    0.69570    1.000
    C2       C        0.36300    0.59670    0.56990    1.000
    O16      O        0.54480    0.20660    0.63520    1.000
    O17      O        0.96320    0.21160    0.96570    1.000
    C3       C        0.45580    0.45980    0.55870    1.000
    O18      O        0.03360    0.30380    0.53790    1.000
    C4       C        0.63430    0.91290    0.92300    1.000
    C5       C        0.40500    0.68730    0.62110    1.000
    C6       C        0.48720    0.81300    0.82580    1.000
    C7       C        0.78540    0.89810    0.91430    1.000
    H4       H        0.85040    0.91680    0.93290    1.000
    C8       C        0.24500    0.96620    0.71280    1.000
    H5       H        0.28320    0.92220    0.70120    1.000
    C9       C        0.45830    0.63280    0.59380    1.000
    H6       H        0.56080    0.61930    0.59090    1.000
    C10      C        0.02280    0.25010    0.69700    1.000
    C11      C        0.21040    0.61420    0.57630    1.000
    H7       H        0.14520    0.58870    0.56260    1.000
    C12      C        0.59130    0.84170    0.85800    1.000
    C13      C        0.13420    0.10420    0.74080    1.000
    C14      C        0.52550    0.91300    0.02040    1.000
    C15      C        0.42970    0.54640    0.53440    1.000
    C16      C        0.25210    0.70760    0.62510    1.000
    H8       H        0.21460    0.74620    0.64210    1.000
    C17      C        0.95250    0.32530    0.70130    1.000
    C18      C        0.09080    0.98170    0.72160    1.000
    C19      C        0.53840    0.88390    0.89500    1.000
    H9       H        0.43590    0.89310    0.90150    1.000
    C20      C        0.54380    0.04400    0.94170    1.000
    C21      C        0.52760    0.41510    0.52380    1.000
    C22      C        0.98880    0.92510    0.71390    1.000
    C23      C        0.56850    0.95840    0.96330    1.000
    C24      C        0.06810    0.18400    0.74750    1.000
    C25      C        0.75470    0.56890    0.76640    1.000
    H10      H        0.71780    0.61950    0.76930    1.000
    C26      C        0.04140    0.19370    0.80150    1.000
    C27      C        0.74420    0.82770    0.84970    1.000
    H11      H        0.78190    0.79950    0.82500    1.000
    C28      C        0.03770    0.05210    0.73400    1.000
    H12      H        0.93520    0.06490    0.73790    1.000
    C29      C        0.90620    0.54970    0.76200    1.000
    C30      C        0.28530    0.08560    0.73530    1.000
    H13      H        0.35030    0.11930    0.74070    1.000
    C31      C        0.97210    0.26870    0.80610    1.000
    C32      C        0.86150    0.41540    0.76060    1.000
    C33      C        0.92810    0.33430    0.75610    1.000
    C34      C        0.95960    0.47190    0.75970    1.000
    H14      H        0.06210    0.45760    0.75750    1.000
    C35      C        0.15450    0.67070    0.60380    1.000
    C36      C        0.93240    0.38010    0.59740    1.000
    C37      C        0.41050    0.41670    0.61750    1.000
    H15      H        0.36120    0.44570    0.64010    1.000
    C38      C        0.00560    0.30550    0.59310    1.000
    C39      C        0.43490    0.82620    0.13500    1.000
    C40      C        0.43880    0.33440    0.64020    1.000
    C41      C        0.05120    0.24270    0.64160    1.000
    H16      H        0.10140    0.19470    0.63810    1.000
    C42      C        0.55800    0.32680    0.55030    1.000
    H17      H        0.60660    0.29620    0.52870    1.000
    C43      C        0.41110    0.90900    0.11530    1.000
    H18      H        0.36410    0.93560    0.13980    1.000
    C44      C        0.64600    0.16270    0.60700    1.000
    H19      H        0.60090    0.15970    0.57420    1.000
    H20      H        0.67150    0.10830    0.63310    1.000
    H21      H        0.73510    0.19030    0.59430    1.000
    C45      C        0.08590    0.12910    0.85370    1.000
    H22      H        0.13320    0.08010    0.85100    1.000
    C46      C        0.71120    0.43550    0.76420    1.000
    H23      H        0.64560    0.39800    0.76500    1.000
    C47      C        0.54980    0.82590    0.04450    1.000
    H24      H        0.59660    0.79700    0.02140    1.000
    C48      C        0.50380    0.99170    0.71390    1.000
    C49      C        0.33000    0.32840    0.73260    1.000
    H25      H        0.23570    0.35590    0.71790    1.000
    H26      H        0.39260    0.36790    0.73450    1.000
    H27      H        0.31420    0.28950    0.77050    1.000
    C50      C        0.34160    0.01680    0.72160    1.000
    C51      C        0.99000    0.21020    0.91120    1.000
    C52      C        0.06220    0.13640    0.90590    1.000
    C53      C        0.65510    0.51370    0.76670    1.000
    C54      C        0.16460    0.00150    0.95520    1.000
    H28      H        0.10120    0.98090    0.93540    1.000
    H29      H        0.17590    0.96380    0.99370    1.000
    H30      H        0.26070    0.00760    0.93510    1.000
    C55      C        0.50750    0.78410    0.09910    1.000
    C56      C        0.90860    0.38930    0.64910    1.000
    H31      H        0.86220    0.43880    0.65120    1.000
    C57      C        0.84280    0.85470    0.87740    1.000
    C58      C        0.00370    0.83650    0.86410    1.000
    C59      C        0.82560    0.51320    0.54570    1.000
    H32      H        0.80300    0.54760    0.50720    1.000
    H33      H        0.89220    0.53860    0.56080    1.000
    H34      H        0.73500    0.50560    0.56960    1.000
    C60      C        0.32740    0.81430    0.22890    1.000
    H35      H        0.23700    0.84620    0.21330    1.000
    H36      H        0.39410    0.84950    0.23420    1.000
    H37      H        0.30450    0.77360    0.26540    1.000
    C61      C        0.94520    0.27510    0.86230    1.000
    H38      H        0.89720    0.32330    0.86620    1.000
    C62      C        0.51610    0.28850    0.60640    1.000
    C63      C        0.49460    0.54270    0.76930    1.000
    C64      C        0.13300    0.23740    0.53200    1.000
    H39      H        0.15990    0.24740    0.49190    1.000
    H40      H        0.08500    0.18780    0.54760    1.000
    H41      H        0.22110    0.23220    0.55240    1.000
    C65      C        0.62900    0.65820    0.09610    1.000
    H42      H        0.58380    0.65680    0.06280    1.000
    H43      H        0.65240    0.60330    0.12160    1.000
    H44      H        0.71810    0.68540    0.08440    1.000
    O19      O        0.04520    0.86340    0.70260    1.000
    O20      O        0.95370    0.68450    0.75390    1.000
    O21      O        0.90110    0.64250    0.61190    1.000
    H45      H        0.81460    0.65990    0.61730    1.000
    O22      O        0.95030    0.76140    0.61780    1.000
    O23      O        0.14640    0.59110    0.76210    1.000
    O24      O        0.04290    0.79030    0.83860    1.000
    C66      C        0.01040    0.61220    0.75860    1.000
    C67      C        0.99240    0.69680    0.61190    1.000
    C68      C        0.85900    0.26950    0.97640    1.000
    H46      H        0.76550    0.26740    0.96160    1.000
    H47      H        0.89230    0.32290    0.95780    1.000
    H48      H        0.84640    0.25860    0.01720    1.000
    Ba3      Ba       0.25147    0.18388    0.31018    1.000
    Ba4      Ba       0.75168    0.26427    0.23013    1.000
    O25      O        0.45690    0.21690    0.21130    1.000
    O26      O        0.35430    0.28900    0.35980    1.000
    O27      O        0.64900    0.18170    0.16100    1.000
    O28      O        0.54930    0.22740    0.32700    1.000
    O29      O        0.40490    0.98240    0.25990    1.000
    H49      H        0.31990    0.00320    0.26370    1.000
    O30      O        0.90150    0.12560    0.12050    1.000
    H50      H        0.91170    0.13500    0.08570    1.000
    O31      O        0.14900    0.05730    0.28230    1.000
    O32      O        0.60340    0.22500    0.80980    1.000
    O33      O        0.54530    0.39410    0.22120    1.000
    O34      O        0.47240    0.29880    0.87520    1.000
    O35      O        0.45490    0.04910    0.31670    1.000
    O36      O        0.90010    0.92160    0.04300    1.000
    C69      C        0.49300    0.27350    0.35350    1.000
    O37      O        0.10640    0.56300    0.45480    1.000
    O38      O        0.60010    0.50150    0.24000    1.000
    H51      H        0.68400    0.47680    0.24230    1.000
    O39      O        0.59980    0.71280    0.30430    1.000
    C70      C        0.63700    0.40330    0.43010    1.000
    O40      O        0.45520    0.79340    0.36480    1.000
    O41      O        0.03680    0.78840    0.03430    1.000
    C71      C        0.54420    0.54020    0.44130    1.000
    O42      O        0.96640    0.69620    0.46210    1.000
    C72      C        0.36570    0.08710    0.07700    1.000
    C73      C        0.59500    0.31270    0.37890    1.000
    C74      C        0.51280    0.18700    0.17420    1.000
    C75      C        0.21460    0.10190    0.08570    1.000
    H52      H        0.14960    0.08320    0.06710    1.000
    C76      C        0.75500    0.03380    0.28720    1.000
    H53      H        0.71680    0.07780    0.29880    1.000
    C77      C        0.54170    0.36720    0.40620    1.000
    H54      H        0.43920    0.38070    0.40910    1.000
    C78      C        0.97720    0.74990    0.30300    1.000
    C79      C        0.78960    0.38580    0.42370    1.000
    H55      H        0.85480    0.41130    0.43740    1.000
    C80      C        0.40870    0.15830    0.14200    1.000
    C81      C        0.86580    0.89580    0.25920    1.000
    C82      C        0.47450    0.08700    0.97960    1.000
    C83      C        0.57030    0.45360    0.46560    1.000
    C84      C        0.74790    0.29240    0.37490    1.000
    H56      H        0.78540    0.25380    0.35790    1.000
    C85      C        0.04750    0.67470    0.29870    1.000
    C86      C        0.90920    0.01830    0.27840    1.000
    C87      C        0.46160    0.11610    0.10500    1.000
    H57      H        0.56410    0.10690    0.09850    1.000
    C88      C        0.45620    0.95600    0.05830    1.000
    C89      C        0.47240    0.58490    0.47620    1.000
    C90      C        0.01120    0.07490    0.28610    1.000
    C91      C        0.43150    0.04160    0.03670    1.000
    C92      C        0.93190    0.81600    0.25250    1.000
    C93      C        0.24530    0.43110    0.23360    1.000
    H58      H        0.28220    0.38050    0.23070    1.000
    C94      C        0.95860    0.80630    0.19850    1.000
    C95      C        0.25580    0.17230    0.15030    1.000
    H59      H        0.21810    0.20050    0.17500    1.000
    C96      C        0.96230    0.94790    0.26600    1.000
    H60      H        0.06480    0.93510    0.26210    1.000
    C97      C        0.09380    0.45030    0.23800    1.000
    C98      C        0.71470    0.91440    0.26470    1.000
    H61      H        0.64970    0.88070    0.25930    1.000
    C99      C        0.02790    0.73130    0.19390    1.000
    C100     C        0.13850    0.58460    0.23940    1.000
    C101     C        0.07190    0.66570    0.24390    1.000
    C102     C        0.04040    0.52810    0.24030    1.000
    H62      H        0.93790    0.54240    0.24250    1.000
    C103     C        0.84550    0.32930    0.39620    1.000
    C104     C        0.06760    0.61990    0.40260    1.000
    C105     C        0.58950    0.58330    0.38250    1.000
    H63      H        0.63880    0.55430    0.35990    1.000
    C106     C        0.99440    0.69450    0.40690    1.000
    C107     C        0.56510    0.17380    0.86500    1.000
    C108     C        0.56120    0.66560    0.35980    1.000
    C109     C        0.94880    0.75730    0.35840    1.000
    H64      H        0.89860    0.80530    0.36190    1.000
    C110     C        0.44200    0.67320    0.44970    1.000
    H65      H        0.39340    0.70380    0.47130    1.000
    C111     C        0.58890    0.09100    0.88470    1.000
    H66      H        0.63590    0.06440    0.86020    1.000
    C112     C        0.35400    0.83730    0.39300    1.000
    H67      H        0.39910    0.84030    0.42580    1.000
    H68      H        0.32850    0.89170    0.36690    1.000
    H69      H        0.26490    0.80970    0.40570    1.000
    C113     C        0.91410    0.87090    0.14630    1.000
    H70      H        0.86680    0.91990    0.14900    1.000
    C114     C        0.28880    0.56450    0.23580    1.000
    H71      H        0.35440    0.60200    0.23500    1.000
    C115     C        0.45020    0.17410    0.95550    1.000
    H72      H        0.40340    0.20300    0.97860    1.000
    C116     C        0.49620    0.00830    0.28610    1.000
    C117     C        0.67000    0.67160    0.26740    1.000
    H73      H        0.76430    0.64410    0.28210    1.000
    H74      H        0.60740    0.63210    0.26550    1.000
    H75      H        0.68580    0.71050    0.22950    1.000
    C118     C        0.65840    0.98320    0.27840    1.000
    C119     C        0.01000    0.78980    0.08880    1.000
    C120     C        0.93780    0.86360    0.09410    1.000
    C121     C        0.34490    0.48630    0.23330    1.000
    C122     C        0.83540    0.99850    0.04480    1.000
    H76      H        0.89880    0.01910    0.06460    1.000
    H77      H        0.82410    0.03620    0.00630    1.000
    H78      H        0.73930    0.99240    0.06490    1.000
    C123     C        0.49250    0.21590    0.90090    1.000
    C124     C        0.09140    0.61070    0.35090    1.000
    H79      H        0.13780    0.56120    0.34880    1.000
    C125     C        0.15720    0.14530    0.12260    1.000
    C126     C        0.99630    0.16350    0.13590    1.000
    C127     C        0.17440    0.48680    0.45430    1.000
    H80      H        0.19700    0.45240    0.49280    1.000
    H81      H        0.10780    0.46140    0.43920    1.000
    H82      H        0.26500    0.49440    0.43040    1.000
    C128     C        0.67260    0.18570    0.77110    1.000
    H83      H        0.76300    0.15380    0.78670    1.000
    H84      H        0.60590    0.15050    0.76580    1.000
    H85      H        0.69550    0.22640    0.73460    1.000
    C129     C        0.05480    0.72490    0.13770    1.000
    H86      H        0.10280    0.67670    0.13380    1.000
    C130     C        0.48390    0.71150    0.39360    1.000
    C131     C        0.50540    0.45730    0.23070    1.000
    C132     C        0.86700    0.76260    0.46800    1.000
    H87      H        0.84010    0.75260    0.50810    1.000
    H88      H        0.91500    0.81220    0.45240    1.000
    H89      H        0.77890    0.76780    0.44760    1.000
    C133     C        0.37100    0.34180    0.90390    1.000
    H90      H        0.41620    0.34320    0.93720    1.000
    H91      H        0.34760    0.39670    0.87840    1.000
    H92      H        0.28190    0.31460    0.91560    1.000
    O43      O        0.95480    0.13660    0.29740    1.000
    O44      O        0.04630    0.31550    0.24610    1.000
    O45      O        0.09890    0.35750    0.38810    1.000
    H93      H        0.18540    0.34010    0.38270    1.000
    O46      O        0.04970    0.23860    0.38220    1.000
    O47      O        0.85360    0.40890    0.23790    1.000
    O48      O        0.95710    0.20970    0.16140    1.000
    C134     C        0.98960    0.38780    0.24140    1.000
    C135     C        0.00760    0.30320    0.38810    1.000
    C136     C        0.14100    0.73050    0.02360    1.000
    H94      H        0.23450    0.73260    0.03840    1.000
    H95      H        0.10770    0.67710    0.04220    1.000
    H96      H        0.15360    0.74140    0.98280    1.000
