data_functionalizedCrystal
_audit_creation_method	'EQeq! by Chris Wilmer'
_symmetry_space_group_name_H-M	'P1'
_symmetry_Int_Tables_number	1
_symmetry_cell_setting	triclinic
loop_
_symmetry_equiv_pos_as_xyz
  x,y,z
_cell_length_a	9.3824
_cell_length_b	13.6113
_cell_length_c	18.2701
_cell_angle_alpha	74.7319
_cell_angle_beta	86.3824
_cell_angle_gamma	88.5107
loop_
_atom_site_label
_atom_site_type_symbol
_atom_site_fract_x
_atom_site_fract_y
_atom_site_fract_z
_atom_site_charge
Mof_Eu	Eu	0.22305	0.03201	0.99712	2.492
Mof_Eu	Eu	0.77695	0.96799	0.00288	2.492
Mof_H 	H 	0.3366	0.8095	0.0298	0.262
Mof_H 	H 	0.7599	0.0218	0.1856	-0.001
Mof_H 	H 	0.6742	0.0316	0.3055	0.082
Mof_H 	H 	0.9885	0.2303	0.3067	0.075
Mof_H 	H 	0.0781	0.2142	0.1891	0.004
Mof_H 	H 	0.5073	0.1216	0.5222	0.057
Mof_H 	H 	0.9803	0.1231	0.4327	0.06
Mof_H 	H 	0.4997	0.1976	0.6245	0.086
Mof_H 	H 	0.4167	0.161	0.7501	-0.01
Mof_H 	H 	0.7328	0.9527	0.8079	0.001
Mof_H 	H 	0.8144	0.9865	0.6807	0.086
Mof_H 	H 	0.0118	0.0459	0.5995	0.043
Mof_H 	H 	0.9462	0.1461	0.62	0.051
Mof_H 	H 	0.2812	0.221	0.5408	0.096
Mof_H 	H 	0.1896	0.1876	0.62	0.087
Mof_H 	H 	0.2553	0.1028	0.581	0.087
Mof_H 	H 	0.4625	0.0875	0.3784	0.047
Mof_H 	H 	0.5448	0.183	0.3228	0.044
Mof_H 	H 	0.2175	0.2717	0.3838	0.09
Mof_H 	H 	0.3016	0.2567	0.3085	0.08
Mof_H 	H 	0.241	0.1599	0.3721	0.085
Mof_H 	H 	0.1874	0.2653	0.7952	-0.013
Mof_H 	H 	0.1973	0.381	0.6758	0.101
Mof_H 	H 	0.7837	0.324	0.6529	0.092
Mof_H 	H 	0.7757	0.2058	0.7714	-0.003
Mof_H 	H 	0.9102	0.3359	0.5253	0.068
Mof_H 	H 	0.055	0.5459	0.6701	0.044
Mof_H 	H 	0.0753	0.6541	0.6088	0.049
Mof_H 	H 	0.4076	0.5716	0.6884	0.093
Mof_H 	H 	0.3062	0.6703	0.6746	0.096
Mof_H 	H 	0.2524	0.5652	0.731	0.083
Mof_H 	H 	0.6634	0.1905	0.9702	0.261
Mof_H 	H 	0.2401	0.9782	0.8144	-0.002
Mof_H 	H 	0.3258	0.9684	0.6945	0.082
Mof_H 	H 	0.0115	0.7697	0.6933	0.075
Mof_H 	H 	0.9219	0.7858	0.8109	0.004
Mof_H 	H 	0.4927	0.8784	0.4778	0.057
Mof_H 	H 	0.0197	0.8769	0.5673	0.06
Mof_H 	H 	0.5003	0.8024	0.3755	0.086
Mof_H 	H 	0.5833	0.839	0.2499	-0.01
Mof_H 	H 	0.2672	0.0473	0.1921	0.001
Mof_H 	H 	0.1856	0.0135	0.3193	0.086
Mof_H 	H 	0.9882	0.9541	0.4005	0.043
Mof_H 	H 	0.0538	0.8539	0.38	0.051
Mof_H 	H 	0.7188	0.779	0.4592	0.096
Mof_H 	H 	0.8104	0.8124	0.38	0.087
Mof_H 	H 	0.7447	0.8972	0.419	0.087
Mof_H 	H 	0.5375	0.9125	0.6216	0.047
Mof_H 	H 	0.4552	0.817	0.6772	0.044
Mof_H 	H 	0.7825	0.7283	0.6162	0.09
Mof_H 	H 	0.6984	0.7433	0.6915	0.08
Mof_H 	H 	0.759	0.8401	0.6279	0.085
Mof_H 	H 	0.8126	0.7347	0.2048	-0.013
Mof_H 	H 	0.8027	0.619	0.3242	0.101
Mof_H 	H 	0.2163	0.676	0.3471	0.092
Mof_H 	H 	0.2243	0.7942	0.2286	-0.003
Mof_H 	H 	0.0898	0.6641	0.4747	0.068
Mof_H 	H 	0.945	0.4541	0.3299	0.044
Mof_H 	H 	0.9247	0.3459	0.3912	0.049
Mof_H 	H 	0.5924	0.4284	0.3116	0.093
Mof_H 	H 	0.6938	0.3297	0.3254	0.096
Mof_H 	H 	0.7476	0.4348	0.269	0.083
Mof_C 	C 	0.9904	0.1017	0.1017	0.496
Mof_C 	C 	0.9282	0.1164	0.176	-0.199
Mof_C 	C 	0.8076	0.063	0.2108	0.104
Mof_C 	C 	0.7562	0.0693	0.282	-0.16
Mof_C 	C 	0.8239	0.1311	0.3202	0.084
Mof_C 	C 	0.9429	0.1862	0.2831	-0.159
Mof_C 	C 	0.9952	0.1777	0.2126	0.091
Mof_C 	C 	0.7785	0.1302	0.4003	-0.033
Mof_C 	C 	0.6335	0.1332	0.4272	0.029
Mof_C 	C 	0.6044	0.1219	0.504	-0.058
Mof_C 	C 	0.7107	0.1107	0.5567	-0.04
Mof_C 	C 	0.8537	0.1147	0.5294	0.033
Mof_C 	C 	0.8833	0.1228	0.4511	-0.063
Mof_C 	C 	0.6647	0.0942	0.6383	0.1
Mof_C 	C 	0.5466	0.1467	0.6613	-0.179
Mof_C 	C 	0.498	0.1254	0.7361	0.115
Mof_C 	C 	0.5654	0.053	0.7916	-0.227
Mof_C 	C 	0.6845	0.0018	0.7704	0.109
Mof_C 	C 	0.7331	0.0222	0.6945	-0.174
Mof_C 	C 	0.5102	0.028	0.8739	0.555
Mof_C 	C 	0.9771	0.1162	0.5777	-0.039
Mof_C 	C 	0.2129	0.1713	0.5715	-0.184
Mof_C 	C 	0.5098	0.1525	0.376	-0.037
Mof_C 	C 	0.2834	0.2273	0.3632	-0.179
Mof_C 	C 	0.9768	0.1504	0.8732	0.552
Mof_C 	C 	0.9802	0.2252	0.7957	-0.224
Mof_C 	C 	0.105	0.2772	0.7663	0.118
Mof_C 	C 	0.1109	0.3462	0.6954	-0.187
Mof_C 	C 	0.9897	0.3648	0.6527	0.114
Mof_C 	C 	0.8663	0.3122	0.6817	-0.179
Mof_C 	C 	0.8611	0.2422	0.7525	0.115
Mof_C 	C 	0.9463	0.403	0.5151	-0.067
Mof_C 	C 	0.9953	0.4367	0.5747	-0.033
Mof_C 	C 	0.051	0.5352	0.5586	0.039
Mof_C 	C 	0.1011	0.5809	0.6201	-0.043
Mof_C 	C 	0.3085	0.5961	0.6839	-0.192
Mof_C 	C 	0.0096	0.8983	0.8983	0.496
Mof_C 	C 	0.0718	0.8836	0.824	-0.199
Mof_C 	C 	0.1924	0.937	0.7892	0.104
Mof_C 	C 	0.2438	0.9307	0.718	-0.16
Mof_C 	C 	0.1761	0.8689	0.6798	0.084
Mof_C 	C 	0.0571	0.8138	0.7169	-0.159
Mof_C 	C 	0.0048	0.8223	0.7874	0.091
Mof_C 	C 	0.2215	0.8698	0.5997	-0.033
Mof_C 	C 	0.3665	0.8668	0.5728	0.029
Mof_C 	C 	0.3956	0.8781	0.496	-0.058
Mof_C 	C 	0.2893	0.8893	0.4433	-0.04
Mof_C 	C 	0.1463	0.8853	0.4706	0.033
Mof_C 	C 	0.1167	0.8772	0.5489	-0.063
Mof_C 	C 	0.3353	0.9058	0.3617	0.1
Mof_C 	C 	0.4534	0.8533	0.3387	-0.179
Mof_C 	C 	0.502	0.8746	0.2639	0.115
Mof_C 	C 	0.4346	0.947	0.2084	-0.227
Mof_C 	C 	0.3155	0.9982	0.2296	0.109
Mof_C 	C 	0.2669	0.9778	0.3055	-0.174
Mof_C 	C 	0.4898	0.972	0.1261	0.555
Mof_C 	C 	0.0229	0.8838	0.4223	-0.039
Mof_C 	C 	0.7871	0.8287	0.4285	-0.184
Mof_C 	C 	0.4902	0.8475	0.624	-0.037
Mof_C 	C 	0.7166	0.7727	0.6368	-0.179
Mof_C 	C 	0.0232	0.8496	0.1268	0.552
Mof_C 	C 	0.0198	0.7748	0.2043	-0.224
Mof_C 	C 	0.895	0.7228	0.2337	0.118
Mof_C 	C 	0.8891	0.6538	0.3046	-0.187
Mof_C 	C 	0.0103	0.6352	0.3473	0.114
Mof_C 	C 	0.1337	0.6878	0.3183	-0.179
Mof_C 	C 	0.1389	0.7578	0.2475	0.115
Mof_C 	C 	0.0537	0.597	0.4849	-0.067
Mof_C 	C 	0.0047	0.5633	0.4253	-0.033
Mof_C 	C 	0.949	0.4648	0.4414	0.039
Mof_C 	C 	0.8989	0.4191	0.3799	-0.043
Mof_C 	C 	0.6915	0.4039	0.3161	-0.192
Mof_O 	O 	0.1176	0.1287	0.0821	-0.538
Mof_O 	O 	0.9157	0.0602	0.0635	-0.619
Mof_O 	O 	0.4138	0.2181	0.3997	-0.145
Mof_O 	O 	0.0872	0.1748	0.5322	-0.146
Mof_O 	O 	0.3897	0.0606	0.8888	-0.583
Mof_O 	O 	0.5882	0.9742	0.9219	-0.58
Mof_O 	O 	0.8669	0.0966	0.8945	-0.581
Mof_O 	O 	0.0834	0.1487	0.9112	-0.618
Mof_O 	O 	0.249	0.5684	0.6216	-0.14
Mof_O 	O 	0.3521	0.8694	0.002	-0.561
Mof_O 	O 	0.8824	0.8713	0.9179	-0.538
Mof_O 	O 	0.0843	0.9398	0.9365	-0.619
Mof_O 	O 	0.5862	0.7819	0.6003	-0.145
Mof_O 	O 	0.9128	0.8252	0.4678	-0.146
Mof_O 	O 	0.6103	0.9394	0.1112	-0.583
Mof_O 	O 	0.4118	0.0258	0.0781	-0.58
Mof_O 	O 	0.1331	0.9034	0.1055	-0.581
Mof_O 	O 	0.9166	0.8513	0.0888	-0.618
Mof_O 	O 	0.751	0.4316	0.3784	-0.14
Mof_O 	O 	0.6479	0.1306	0.998	-0.561
_end
