# CIF file generated by openbabel 3.1.0, see https://openbabel.org
data_I
_chemical_name_common 'SAHYAD03_charged'
_cell_length_a 15.8633
_cell_length_b 15.8633
_cell_length_c 21.586
_cell_angle_alpha 90
_cell_angle_beta 90
_cell_angle_gamma 90
_space_group_name_H-M_alt 'P 1'
_space_group_name_Hall 'P 1'
loop_
    _symmetry_equiv_pos_as_xyz
    x,y,z
loop_
    _atom_site_label
    _atom_site_type_symbol
    _atom_site_fract_x
    _atom_site_fract_y
    _atom_site_fract_z
    _atom_site_occupancy
    Cd1      Cd       0.44095    0.55905    0.25000    1.000
    Cd2      Cd       0.55905    0.44095    0.75000    1.000
    Cd3      Cd       0.94095    0.94095    0.50000    1.000
    Cd4      Cd       0.05905    0.05905    0.00000    1.000
    H1       H        0.38960    0.53740    0.09800    1.000
    H2       H        0.28590    0.58590    0.03240    1.000
    H3       H        0.26060    0.78810    0.14500    1.000
    H4       H        0.35920    0.73040    0.20920    1.000
    H5       H        0.20000    0.64910    0.96850    1.000
    H6       H        0.08590    0.69820    0.91430    1.000
    H7       H        0.99300    0.79690    0.95750    1.000
    H8       H        0.13980    0.80320    0.11150    1.000
    H9       H        0.88070    0.04590    0.21000    1.000
    H10      H        0.76890    0.06450    0.27960    1.000
    H11      H        0.66370    0.96360    0.28750    1.000
    H12      H        0.77630    0.82540    0.15460    1.000
    H13      H        0.60120    0.84770    0.31480    1.000
    H14      H        0.50690    0.73820    0.32420    1.000
    H15      H        0.56000    0.65760    0.15700    1.000
    H16      H        0.65510    0.76540    0.14210    1.000
    H17      H        0.97100    0.74250    0.14460    1.000
    H18      H        0.91350    0.74010    0.09780    1.000
    H19      H        0.61040    0.46260    0.59800    1.000
    H20      H        0.71410    0.41410    0.53240    1.000
    H21      H        0.73940    0.21190    0.64500    1.000
    H22      H        0.64080    0.26960    0.70920    1.000
    H23      H        0.80000    0.35090    0.46850    1.000
    H24      H        0.91410    0.30180    0.41430    1.000
    H25      H        0.00700    0.20310    0.45750    1.000
    H26      H        0.86020    0.19680    0.61150    1.000
    H27      H        0.11930    0.95410    0.71000    1.000
    H28      H        0.23110    0.93550    0.77960    1.000
    H29      H        0.33630    0.03640    0.78750    1.000
    H30      H        0.22370    0.17460    0.65460    1.000
    H31      H        0.39880    0.15230    0.81480    1.000
    H32      H        0.49310    0.26180    0.82420    1.000
    H33      H        0.44000    0.34240    0.65700    1.000
    H34      H        0.34490    0.23460    0.64210    1.000
    H35      H        0.02900    0.25750    0.64460    1.000
    H36      H        0.08650    0.25990    0.59780    1.000
    H37      H        0.96260    0.88960    0.34800    1.000
    H38      H        0.91410    0.78590    0.28240    1.000
    H39      H        0.71190    0.76060    0.39500    1.000
    H40      H        0.76960    0.85920    0.45920    1.000
    H41      H        0.85090    0.70000    0.21850    1.000
    H42      H        0.80180    0.58590    0.16430    1.000
    H43      H        0.70310    0.49300    0.20750    1.000
    H44      H        0.69680    0.63980    0.36150    1.000
    H45      H        0.45410    0.38070    0.46000    1.000
    H46      H        0.43550    0.26890    0.52960    1.000
    H47      H        0.53640    0.16370    0.53750    1.000
    H48      H        0.67460    0.27630    0.40460    1.000
    H49      H        0.65230    0.10120    0.56480    1.000
    H50      H        0.76180    0.00690    0.57420    1.000
    H51      H        0.84240    0.06000    0.40700    1.000
    H52      H        0.73460    0.15510    0.39210    1.000
    H53      H        0.75750    0.47100    0.39460    1.000
    H54      H        0.75990    0.41350    0.34780    1.000
    H55      H        0.03740    0.11040    0.84800    1.000
    H56      H        0.08590    0.21410    0.78240    1.000
    H57      H        0.28810    0.23940    0.89500    1.000
    H58      H        0.23040    0.14080    0.95920    1.000
    H59      H        0.14910    0.30000    0.71850    1.000
    H60      H        0.19820    0.41410    0.66430    1.000
    H61      H        0.29690    0.50700    0.70750    1.000
    H62      H        0.30320    0.36020    0.86150    1.000
    H63      H        0.54590    0.61930    0.96000    1.000
    H64      H        0.56450    0.73110    0.02960    1.000
    H65      H        0.46360    0.83630    0.03750    1.000
    H66      H        0.32540    0.72370    0.90460    1.000
    H67      H        0.34770    0.89880    0.06480    1.000
    H68      H        0.23820    0.99310    0.07420    1.000
    H69      H        0.15760    0.94000    0.90700    1.000
    H70      H        0.26540    0.84490    0.89210    1.000
    H71      H        0.24250    0.52900    0.89460    1.000
    H72      H        0.24010    0.58650    0.84780    1.000
    H73      H        0.11040    0.03740    0.15200    1.000
    H74      H        0.21410    0.08590    0.21760    1.000
    H75      H        0.23940    0.28810    0.10500    1.000
    H76      H        0.14080    0.23040    0.04080    1.000
    H77      H        0.30000    0.14910    0.28150    1.000
    H78      H        0.41410    0.19820    0.33570    1.000
    H79      H        0.50700    0.29690    0.29250    1.000
    H80      H        0.36020    0.30320    0.13850    1.000
    H81      H        0.61930    0.54590    0.04000    1.000
    H82      H        0.73110    0.56450    0.97040    1.000
    H83      H        0.83630    0.46360    0.96250    1.000
    H84      H        0.72370    0.32540    0.09540    1.000
    H85      H        0.89880    0.34770    0.93520    1.000
    H86      H        0.99310    0.23820    0.92580    1.000
    H87      H        0.94000    0.15760    0.09300    1.000
    H88      H        0.84490    0.26540    0.10790    1.000
    H89      H        0.52900    0.24250    0.10540    1.000
    H90      H        0.58650    0.24010    0.15220    1.000
    H91      H        0.88960    0.96260    0.65200    1.000
    H92      H        0.78590    0.91410    0.71760    1.000
    H93      H        0.76060    0.71190    0.60500    1.000
    H94      H        0.85920    0.76960    0.54080    1.000
    H95      H        0.70000    0.85090    0.78150    1.000
    H96      H        0.58590    0.80180    0.83570    1.000
    H97      H        0.49300    0.70310    0.79250    1.000
    H98      H        0.63980    0.69680    0.63850    1.000
    H99      H        0.38070    0.45410    0.54000    1.000
    H100     H        0.26890    0.43550    0.47040    1.000
    H101     H        0.16370    0.53640    0.46250    1.000
    H102     H        0.27630    0.67460    0.59540    1.000
    H103     H        0.10120    0.65230    0.43520    1.000
    H104     H        0.00690    0.76180    0.42580    1.000
    H105     H        0.06000    0.84240    0.59300    1.000
    H106     H        0.15510    0.73460    0.60790    1.000
    H107     H        0.47100    0.75750    0.60540    1.000
    H108     H        0.41350    0.75990    0.65220    1.000
    H109     H        0.53740    0.38960    0.90200    1.000
    H110     H        0.58590    0.28590    0.96760    1.000
    H111     H        0.78810    0.26060    0.85500    1.000
    H112     H        0.73040    0.35920    0.79080    1.000
    H113     H        0.64910    0.20000    0.03150    1.000
    H114     H        0.69820    0.08590    0.08570    1.000
    H115     H        0.79690    0.99300    0.04250    1.000
    H116     H        0.80320    0.13980    0.88850    1.000
    H117     H        0.04590    0.88070    0.79000    1.000
    H118     H        0.06450    0.76890    0.72040    1.000
    H119     H        0.96360    0.66370    0.71250    1.000
    H120     H        0.82540    0.77630    0.84540    1.000
    H121     H        0.84770    0.60120    0.68520    1.000
    H122     H        0.73820    0.50690    0.67580    1.000
    H123     H        0.65760    0.56000    0.84300    1.000
    H124     H        0.76540    0.65510    0.85790    1.000
    H125     H        0.74250    0.97100    0.85540    1.000
    H126     H        0.74010    0.91350    0.90220    1.000
    H127     H        0.46260    0.61040    0.40200    1.000
    H128     H        0.41410    0.71410    0.46760    1.000
    H129     H        0.21190    0.73940    0.35500    1.000
    H130     H        0.26960    0.64080    0.29080    1.000
    H131     H        0.35090    0.80000    0.53150    1.000
    H132     H        0.30180    0.91410    0.58570    1.000
    H133     H        0.20310    0.00700    0.54250    1.000
    H134     H        0.19680    0.86020    0.38850    1.000
    H135     H        0.95410    0.11930    0.29000    1.000
    H136     H        0.93550    0.23110    0.22040    1.000
    H137     H        0.03640    0.33630    0.21250    1.000
    H138     H        0.17460    0.22370    0.34540    1.000
    H139     H        0.15230    0.39880    0.18520    1.000
    H140     H        0.26180    0.49310    0.17580    1.000
    H141     H        0.34240    0.44000    0.34300    1.000
    H142     H        0.23460    0.34490    0.35790    1.000
    H143     H        0.25750    0.02900    0.35540    1.000
    H144     H        0.25990    0.08650    0.40220    1.000
    C1       C        0.36020    0.58730    0.10900    1.000
    C2       C        0.29860    0.61620    0.06920    1.000
    C3       C        0.25510    0.69020    0.08310    1.000
    C4       C        0.28340    0.73420    0.13560    1.000
    C5       C        0.34330    0.69980    0.17320    1.000
    C6       C        0.18280    0.72100    0.04620    1.000
    C7       C        0.16450    0.69040    0.98670    1.000
    C8       C        0.09620    0.71930    0.95480    1.000
    C9       C        0.04140    0.77860    0.97970    1.000
    C10      C        0.06000    0.81040    0.03860    1.000
    C11      C        0.12890    0.78150    0.07130    1.000
    C12      C        0.00380    0.87270    0.06940    1.000
    C13      C        0.90920    0.92390    0.13200    1.000
    C14      C        0.83880    0.93250    0.17650    1.000
    C15      C        0.83730    0.00480    0.21320    1.000
    C16      C        0.77110    0.01550    0.25430    1.000
    C17      C        0.70840    0.95540    0.25890    1.000
    C18      C        0.70930    0.88350    0.22260    1.000
    C19      C        0.77520    0.87360    0.18070    1.000
    C20      C        0.64250    0.81800    0.22810    1.000
    C21      C        0.59480    0.80880    0.28170    1.000
    C22      C        0.53830    0.74330    0.28690    1.000
    C23      C        0.56900    0.69650    0.18970    1.000
    C24      C        0.62650    0.76050    0.18060    1.000
    C25      C        0.63980    0.41270    0.60900    1.000
    C26      C        0.70140    0.38380    0.56920    1.000
    C27      C        0.74490    0.30980    0.58310    1.000
    C28      C        0.71660    0.26580    0.63560    1.000
    C29      C        0.65670    0.30020    0.67320    1.000
    C30      C        0.81720    0.27900    0.54620    1.000
    C31      C        0.83550    0.30960    0.48670    1.000
    C32      C        0.90380    0.28070    0.45480    1.000
    C33      C        0.95860    0.22140    0.47970    1.000
    C34      C        0.94000    0.18960    0.53860    1.000
    C35      C        0.87110    0.21850    0.57130    1.000
    C36      C        0.99620    0.12730    0.56940    1.000
    C37      C        0.09080    0.07610    0.63200    1.000
    C38      C        0.16120    0.06750    0.67650    1.000
    C39      C        0.16270    0.99520    0.71320    1.000
    C40      C        0.22890    0.98450    0.75430    1.000
    C41      C        0.29160    0.04460    0.75890    1.000
    C42      C        0.29070    0.11650    0.72260    1.000
    C43      C        0.22480    0.12640    0.68070    1.000
    C44      C        0.35750    0.18200    0.72810    1.000
    C45      C        0.40520    0.19120    0.78170    1.000
    C46      C        0.46170    0.25670    0.78690    1.000
    C47      C        0.43100    0.30350    0.68970    1.000
    C48      C        0.37350    0.23950    0.68060    1.000
    C49      C        0.91270    0.86020    0.35900    1.000
    C50      C        0.88380    0.79860    0.31920    1.000
    C51      C        0.80980    0.75510    0.33310    1.000
    C52      C        0.76580    0.78340    0.38560    1.000
    C53      C        0.80020    0.84330    0.42320    1.000
    C54      C        0.77900    0.68280    0.29620    1.000
    C55      C        0.80960    0.66450    0.23670    1.000
    C56      C        0.78070    0.59620    0.20480    1.000
    C57      C        0.72140    0.54140    0.22970    1.000
    C58      C        0.68960    0.56000    0.28860    1.000
    C59      C        0.71850    0.62890    0.32130    1.000
    C60      C        0.62730    0.50380    0.31940    1.000
    C61      C        0.57610    0.40920    0.38200    1.000
    C62      C        0.56750    0.33880    0.42650    1.000
    C63      C        0.49520    0.33730    0.46320    1.000
    C64      C        0.48450    0.27110    0.50430    1.000
    C65      C        0.54460    0.20840    0.50890    1.000
    C66      C        0.61650    0.20930    0.47260    1.000
    C67      C        0.62640    0.27520    0.43070    1.000
    C68      C        0.68200    0.14250    0.47810    1.000
    C69      C        0.69120    0.09480    0.53170    1.000
    C70      C        0.75670    0.03830    0.53690    1.000
    C71      C        0.80350    0.06900    0.43970    1.000
    C72      C        0.73950    0.12650    0.43060    1.000
    C73      C        0.08730    0.13980    0.85900    1.000
    C74      C        0.11620    0.20140    0.81920    1.000
    C75      C        0.19020    0.24490    0.83310    1.000
    C76      C        0.23420    0.21660    0.88560    1.000
    C77      C        0.19980    0.15670    0.92320    1.000
    C78      C        0.22100    0.31720    0.79620    1.000
    C79      C        0.19040    0.33550    0.73670    1.000
    C80      C        0.21930    0.40380    0.70480    1.000
    C81      C        0.27860    0.45860    0.72970    1.000
    C82      C        0.31040    0.44000    0.78860    1.000
    C83      C        0.28150    0.37110    0.82130    1.000
    C84      C        0.37270    0.49620    0.81940    1.000
    C85      C        0.42390    0.59080    0.88200    1.000
    C86      C        0.43250    0.66120    0.92650    1.000
    C87      C        0.50480    0.66270    0.96320    1.000
    C88      C        0.51550    0.72890    0.00430    1.000
    C89      C        0.45540    0.79160    0.00890    1.000
    C90      C        0.38350    0.79070    0.97260    1.000
    C91      C        0.37360    0.72480    0.93070    1.000
    C92      C        0.31800    0.85750    0.97810    1.000
    C93      C        0.30880    0.90520    0.03170    1.000
    C94      C        0.24330    0.96170    0.03690    1.000
    C95      C        0.19650    0.93100    0.93970    1.000
    C96      C        0.26050    0.87350    0.93060    1.000
    C97      C        0.13980    0.08730    0.14100    1.000
    C98      C        0.20140    0.11620    0.18080    1.000
    C99      C        0.24490    0.19020    0.16690    1.000
    C100     C        0.21660    0.23420    0.11440    1.000
    C101     C        0.15670    0.19980    0.07680    1.000
    C102     C        0.31720    0.22100    0.20380    1.000
    C103     C        0.33550    0.19040    0.26330    1.000
    C104     C        0.40380    0.21930    0.29520    1.000
    C105     C        0.45860    0.27860    0.27030    1.000
    C106     C        0.44000    0.31040    0.21140    1.000
    C107     C        0.37110    0.28150    0.17870    1.000
    C108     C        0.49620    0.37270    0.18060    1.000
    C109     C        0.59080    0.42390    0.11800    1.000
    C110     C        0.66120    0.43250    0.07350    1.000
    C111     C        0.66270    0.50480    0.03680    1.000
    C112     C        0.72890    0.51550    0.99570    1.000
    C113     C        0.79160    0.45540    0.99110    1.000
    C114     C        0.79070    0.38350    0.02740    1.000
    C115     C        0.72480    0.37360    0.06930    1.000
    C116     C        0.85750    0.31800    0.02190    1.000
    C117     C        0.90520    0.30880    0.96830    1.000
    C118     C        0.96170    0.24330    0.96310    1.000
    C119     C        0.93100    0.19650    0.06030    1.000
    C120     C        0.87350    0.26050    0.06940    1.000
    C121     C        0.86020    0.91270    0.64100    1.000
    C122     C        0.79860    0.88380    0.68080    1.000
    C123     C        0.75510    0.80980    0.66690    1.000
    C124     C        0.78340    0.76580    0.61440    1.000
    C125     C        0.84330    0.80020    0.57680    1.000
    C126     C        0.68280    0.77900    0.70380    1.000
    C127     C        0.66450    0.80960    0.76330    1.000
    C128     C        0.59620    0.78070    0.79520    1.000
    C129     C        0.54140    0.72140    0.77030    1.000
    C130     C        0.56000    0.68960    0.71140    1.000
    C131     C        0.62890    0.71850    0.67870    1.000
    C132     C        0.50380    0.62730    0.68060    1.000
    C133     C        0.40920    0.57610    0.61800    1.000
    C134     C        0.33880    0.56750    0.57350    1.000
    C135     C        0.33730    0.49520    0.53680    1.000
    C136     C        0.27110    0.48450    0.49570    1.000
    C137     C        0.20840    0.54460    0.49110    1.000
    C138     C        0.20930    0.61650    0.52740    1.000
    C139     C        0.27520    0.62640    0.56930    1.000
    C140     C        0.14250    0.68200    0.52190    1.000
    C141     C        0.09480    0.69120    0.46830    1.000
    C142     C        0.03830    0.75670    0.46310    1.000
    C143     C        0.06900    0.80350    0.56030    1.000
    C144     C        0.12650    0.73950    0.56940    1.000
    C145     C        0.58730    0.36020    0.89100    1.000
    C146     C        0.61620    0.29860    0.93080    1.000
    C147     C        0.69020    0.25510    0.91690    1.000
    C148     C        0.73420    0.28340    0.86440    1.000
    C149     C        0.69980    0.34330    0.82680    1.000
    C150     C        0.72100    0.18280    0.95380    1.000
    C151     C        0.69040    0.16450    0.01330    1.000
    C152     C        0.71930    0.09620    0.04520    1.000
    C153     C        0.77860    0.04140    0.02030    1.000
    C154     C        0.81040    0.06000    0.96140    1.000
    C155     C        0.78150    0.12890    0.92870    1.000
    C156     C        0.87270    0.00380    0.93060    1.000
    C157     C        0.92390    0.90920    0.86800    1.000
    C158     C        0.93250    0.83880    0.82350    1.000
    C159     C        0.00480    0.83730    0.78680    1.000
    C160     C        0.01550    0.77110    0.74570    1.000
    C161     C        0.95540    0.70840    0.74110    1.000
    C162     C        0.88350    0.70930    0.77740    1.000
    C163     C        0.87360    0.77520    0.81930    1.000
    C164     C        0.81800    0.64250    0.77190    1.000
    C165     C        0.80880    0.59480    0.71830    1.000
    C166     C        0.74330    0.53830    0.71310    1.000
    C167     C        0.69650    0.56900    0.81030    1.000
    C168     C        0.76050    0.62650    0.81940    1.000
    C169     C        0.41270    0.63980    0.39100    1.000
    C170     C        0.38380    0.70140    0.43080    1.000
    C171     C        0.30980    0.74490    0.41690    1.000
    C172     C        0.26580    0.71660    0.36440    1.000
    C173     C        0.30020    0.65670    0.32680    1.000
    C174     C        0.27900    0.81720    0.45380    1.000
    C175     C        0.30960    0.83550    0.51330    1.000
    C176     C        0.28070    0.90380    0.54520    1.000
    C177     C        0.22140    0.95860    0.52030    1.000
    C178     C        0.18960    0.94000    0.46140    1.000
    C179     C        0.21850    0.87110    0.42870    1.000
    C180     C        0.12730    0.99620    0.43060    1.000
    C181     C        0.07610    0.09080    0.36800    1.000
    C182     C        0.06750    0.16120    0.32350    1.000
    C183     C        0.99520    0.16270    0.28680    1.000
    C184     C        0.98450    0.22890    0.24570    1.000
    C185     C        0.04460    0.29160    0.24110    1.000
    C186     C        0.11650    0.29070    0.27740    1.000
    C187     C        0.12640    0.22480    0.31930    1.000
    C188     C        0.18200    0.35750    0.27190    1.000
    C189     C        0.19120    0.40520    0.21830    1.000
    C190     C        0.25670    0.46170    0.21310    1.000
    C191     C        0.30350    0.43100    0.31030    1.000
    C192     C        0.23950    0.37350    0.31940    1.000
    N1       N        0.38120    0.62570    0.16250    1.000
    N2       N        0.00640    0.95590    0.06550    1.000
    N3       N        0.94580    0.98830    0.10450    1.000
    N4       N        0.94400    0.85090    0.11120    1.000
    N5       N        0.92560    0.76910    0.13170    1.000
    N6       N        0.52540    0.68630    0.24210    1.000
    N7       N        0.61880    0.37430    0.66250    1.000
    N8       N        0.99360    0.04410    0.56550    1.000
    N9       N        0.05420    0.01170    0.60450    1.000
    N10      N        0.05600    0.14910    0.61120    1.000
    N11      N        0.07440    0.23090    0.63170    1.000
    N12      N        0.47460    0.31370    0.74210    1.000
    N13      N        0.87430    0.88120    0.41250    1.000
    N14      N        0.54410    0.50640    0.31550    1.000
    N15      N        0.51170    0.44580    0.35450    1.000
    N16      N        0.64910    0.44400    0.36120    1.000
    N17      N        0.73090    0.42560    0.38170    1.000
    N18      N        0.81370    0.02540    0.49210    1.000
    N19      N        0.12570    0.11880    0.91250    1.000
    N20      N        0.45590    0.49360    0.81550    1.000
    N21      N        0.48830    0.55420    0.85450    1.000
    N22      N        0.35090    0.55600    0.86120    1.000
    N23      N        0.26910    0.57440    0.88170    1.000
    N24      N        0.18630    0.97460    0.99210    1.000
    N25      N        0.11880    0.12570    0.08750    1.000
    N26      N        0.49360    0.45590    0.18450    1.000
    N27      N        0.55420    0.48830    0.14550    1.000
    N28      N        0.55600    0.35090    0.13880    1.000
    N29      N        0.57440    0.26910    0.11830    1.000
    N30      N        0.97460    0.18630    0.00790    1.000
    N31      N        0.88120    0.87430    0.58750    1.000
    N32      N        0.50640    0.54410    0.68450    1.000
    N33      N        0.44580    0.51170    0.64550    1.000
    N34      N        0.44400    0.64910    0.63880    1.000
    N35      N        0.42560    0.73090    0.61830    1.000
    N36      N        0.02540    0.81370    0.50790    1.000
    N37      N        0.62570    0.38120    0.83750    1.000
    N38      N        0.95590    0.00640    0.93450    1.000
    N39      N        0.98830    0.94580    0.89550    1.000
    N40      N        0.85090    0.94400    0.88880    1.000
    N41      N        0.76910    0.92560    0.86830    1.000
    N42      N        0.68630    0.52540    0.75790    1.000
    N43      N        0.37430    0.61880    0.33750    1.000
    N44      N        0.04410    0.99360    0.43450    1.000
    N45      N        0.01170    0.05420    0.39550    1.000
    N46      N        0.14910    0.05600    0.38880    1.000
    N47      N        0.23090    0.07440    0.36830    1.000
    N48      N        0.31370    0.47460    0.25790    1.000
    Cl1      Cl       0.76888    0.76888    0.00000    1.000
    O1       O        0.74480    0.72750    0.05220    1.000
    O2       O        0.70590    0.84170    0.02230    1.000
    O3       O        0.72750    0.74480    0.94780    1.000
    O4       O        0.84170    0.70590    0.97770    1.000
    Cl2      Cl       0.23112    0.23112    0.50000    1.000
    O5       O        0.25520    0.27250    0.55220    1.000
    O6       O        0.29410    0.15830    0.52230    1.000
    O7       O        0.27250    0.25520    0.44780    1.000
    O8       O        0.15830    0.29410    0.47770    1.000
    Cl3      Cl       0.73112    0.26888    0.25000    1.000
    O9       O        0.77250    0.24480    0.30220    1.000
    O10      O        0.65830    0.20590    0.27230    1.000
    O11      O        0.75520    0.22750    0.19780    1.000
    O12      O        0.79410    0.34170    0.22770    1.000
    Cl4      Cl       0.26888    0.73112    0.75000    1.000
    O13      O        0.22750    0.75520    0.80220    1.000
    O14      O        0.34170    0.79410    0.77230    1.000
    O15      O        0.24480    0.77250    0.69780    1.000
    O16      O        0.20590    0.65830    0.72770    1.000
