# CIF file generated by openbabel 3.1.0, see https://openbabel.org
data_I
_chemical_name_common 'image0'
_cell_length_a 41.1895
_cell_length_b 20.6334
_cell_length_c 27.0979
_cell_angle_alpha 90
_cell_angle_beta 129.772
_cell_angle_gamma 90
_space_group_name_H-M_alt 'P 1'
_space_group_name_Hall 'P 1'
loop_
    _symmetry_equiv_pos_as_xyz
    x,y,z
loop_
    _atom_site_label
    _atom_site_type_symbol
    _atom_site_fract_x
    _atom_site_fract_y
    _atom_site_fract_z
    _atom_site_occupancy
    Cu1      Cu       0.25288    0.99004    0.11360    1.000
    O1       O        0.48760    0.52200    0.92960    1.000
    O2       O        0.53950    0.48100    0.93260    1.000
    O3       O        0.40440    0.27490    0.01700    1.000
    O4       O        0.41700    0.33540    0.96230    1.000
    O5       O        0.39300    0.24700    0.67200    1.000
    O6       O        0.41820    0.23170    0.77300    1.000
    O7       O        0.47960    0.97070    0.53580    1.000
    O8       O        0.52740    0.01980    0.63030    1.000
    O9       O        0.42720    0.31400    0.61500    1.000
    O10      O        0.38700    0.23610    0.54840    1.000
    O11      O        0.41700    0.21270    0.30250    1.000
    O12      O        0.40250    0.18590    0.36560    1.000
    N1       N        0.50390    0.67880    0.80540    1.000
    N2       N        0.29430    0.44810    0.91410    1.000
    N3       N        0.29980    0.07440    0.64660    1.000
    N4       N        0.50100    0.82010    0.69820    1.000
    N5       N        0.29170    0.42280    0.44660    1.000
    N6       N        0.29690    0.05670    0.17470    1.000
    C1       C        0.53440    0.63430    0.83180    1.000
    H1       H        0.55460    0.63790    0.82560    1.000
    C2       C        0.53750    0.58370    0.86740    1.000
    H2       H        0.55960    0.55270    0.88540    1.000
    C3       C        0.50900    0.57780    0.87710    1.000
    C4       C        0.47820    0.62290    0.85090    1.000
    H3       H        0.45780    0.62040    0.85660    1.000
    C5       C        0.47690    0.67320    0.81520    1.000
    H4       H        0.45520    0.70480    0.79710    1.000
    C6       C        0.51150    0.52400    0.91560    1.000
    C7       C        0.54720    0.43050    0.97700    1.000
    H5       H        0.54930    0.45080    0.01210    1.000
    H6       H        0.57450    0.40920    0.99650    1.000
    C8       C        0.32500    0.46510    0.91300    1.000
    H7       H        0.32420    0.50690    0.89750    1.000
    C9       C        0.35790    0.42450    0.93330    1.000
    H8       H        0.37840    0.43780    0.92970    1.000
    C10      C        0.36140    0.36580    0.95860    1.000
    C11      C        0.33060    0.34820    0.96160    1.000
    H9       H        0.33240    0.30820    0.98060    1.000
    C12      C        0.29720    0.38940    0.93700    1.000
    H10      H        0.27490    0.37510    0.93610    1.000
    C13      C        0.39640    0.32020    0.98270    1.000
    C14      C        0.45140    0.29100    0.98110    1.000
    H11      H        0.47460    0.29290    0.02810    1.000
    H12      H        0.44080    0.24590    0.96920    1.000
    C15      C        0.30460    0.10000    0.60660    1.000
    H13      H        0.28750    0.08520    0.56350    1.000
    C16      C        0.33480    0.14900    0.62700    1.000
    H14      H        0.33660    0.17010    0.59780    1.000
    C17      C        0.36100    0.16500    0.69000    1.000
    C18      C        0.35630    0.13960    0.73030    1.000
    H15      H        0.37350    0.15340    0.77380    1.000
    C19      C        0.32650    0.09400    0.70790    1.000
    H16      H        0.32420    0.07450    0.73730    1.000
    C20      C        0.39300    0.22000    0.71200    1.000
    C21      C        0.45200    0.27800    0.79600    1.000
    H17      H        0.44150    0.31370    0.76460    1.000
    H18      H        0.47590    0.25680    0.80270    1.000
    C22      C        0.46610    0.30520    0.85760    1.000
    C23      C        0.49590    0.35220    0.88550    1.000
    H19      H        0.50580    0.36690    0.86400    1.000
    C24      C        0.51270    0.37990    0.94430    1.000
    C25      C        0.49750    0.35920    0.97360    1.000
    H20      H        0.50840    0.37790    0.01360    1.000
    C26      C        0.46660    0.31160    0.94720    1.000
    C27      C        0.45050    0.28550    0.88830    1.000
    H21      H        0.42870    0.25390    0.86860    1.000
    C28      C        0.47490    0.81960    0.63430    1.000
    H22      H        0.45570    0.78460    0.61220    1.000
    C29      C        0.47460    0.86730    0.59960    1.000
    H23      H        0.45580    0.86520    0.55410    1.000
    C30      C        0.50260    0.91970    0.63210    1.000
    C31      C        0.52960    0.91990    0.69720    1.000
    H24      H        0.54880    0.95490    0.72020    1.000
    C32      C        0.52920    0.86940    0.72970    1.000
    H25      H        0.54900    0.86890    0.77530    1.000
    C33      C        0.50050    0.97280    0.59300    1.000
    C34      C        0.53290    0.07170    0.59860    1.000
    H26      H        0.53480    0.05240    0.56710    1.000
    H27      H        0.55950    0.09540    0.63100    1.000
    C35      C        0.32290    0.43760    0.50620    1.000
    H28      H        0.32230    0.47860    0.52160    1.000
    C36      C        0.35720    0.39700    0.54900    1.000
    H29      H        0.37890    0.40950    0.59230    1.000
    C37      C        0.35850    0.34000    0.52700    1.000
    C38      C        0.32680    0.32400    0.46600    1.000
    H30      H        0.32720    0.28350    0.44900    1.000
    C39      C        0.29200    0.36800    0.42600    1.000
    H31      H        0.26880    0.35560    0.38310    1.000
    C40      C        0.39400    0.29300    0.56900    1.000
    C41      C        0.42000    0.18900    0.58800    1.000
    H32      H        0.40780    0.14670    0.58640    1.000
    H33      H        0.43970    0.20360    0.63330    1.000
    C42      C        0.32670    0.07210    0.17230    1.000
    H34      H        0.32620    0.05420    0.13950    1.000
    C43      C        0.35940    0.11460    0.21720    1.000
    H35      H        0.38090    0.12410    0.21480    1.000
    C44      C        0.36100    0.14250    0.26440    1.000
    C45      C        0.32880    0.12590    0.26510    1.000
    H36      H        0.32870    0.14300    0.29760    1.000
    C46      C        0.29700    0.08520    0.21970    1.000
    H37      H        0.27440    0.07680    0.21980    1.000
    C47      C        0.39560    0.18380    0.31150    1.000
    C48      C        0.43770    0.22330    0.41800    1.000
    H38      H        0.42900    0.26880    0.41490    1.000
    H39      H        0.46100    0.22280    0.41630    1.000
    C49      C        0.49640    0.11800    0.56490    1.000
    C50      C        0.47610    0.13460    0.58910    1.000
    H40      H        0.48400    0.11330    0.62640    1.000
    C51      C        0.44520    0.18040    0.56050    1.000
    C52      C        0.43140    0.21030    0.50280    1.000
    H41      H        0.40870    0.24050    0.48120    1.000
    C53      C        0.45180    0.19440    0.47830    1.000
    C54      C        0.48350    0.14920    0.50980    1.000
    H42      H        0.49720    0.13870    0.49300    1.000
    Cu2      Cu       0.75288    0.49004    0.11360    1.000
    O13      O        0.98760    0.02200    0.92960    1.000
    O14      O        0.03950    0.98100    0.93260    1.000
    O15      O        0.90440    0.77490    0.01700    1.000
    O16      O        0.91700    0.83540    0.96230    1.000
    O17      O        0.89300    0.74700    0.67200    1.000
    O18      O        0.91820    0.73170    0.77300    1.000
    O19      O        0.97960    0.47070    0.53580    1.000
    O20      O        0.02740    0.51980    0.63030    1.000
    O21      O        0.92720    0.81400    0.61500    1.000
    O22      O        0.88700    0.73610    0.54840    1.000
    O23      O        0.91700    0.71270    0.30250    1.000
    O24      O        0.90250    0.68590    0.36560    1.000
    N7       N        0.00390    0.17880    0.80540    1.000
    N8       N        0.79430    0.94810    0.91410    1.000
    N9       N        0.79980    0.57440    0.64660    1.000
    N10      N        0.00100    0.32010    0.69820    1.000
    N11      N        0.79170    0.92280    0.44660    1.000
    N12      N        0.79690    0.55670    0.17470    1.000
    C55      C        0.03440    0.13430    0.83180    1.000
    H43      H        0.05460    0.13790    0.82560    1.000
    C56      C        0.03750    0.08370    0.86740    1.000
    H44      H        0.05960    0.05270    0.88540    1.000
    C57      C        0.00900    0.07780    0.87710    1.000
    C58      C        0.97820    0.12290    0.85090    1.000
    H45      H        0.95780    0.12040    0.85660    1.000
    C59      C        0.97690    0.17320    0.81520    1.000
    H46      H        0.95520    0.20480    0.79710    1.000
    C60      C        0.01150    0.02400    0.91560    1.000
    C61      C        0.04720    0.93050    0.97700    1.000
    H47      H        0.04930    0.95080    0.01210    1.000
    H48      H        0.07450    0.90920    0.99650    1.000
    C62      C        0.82500    0.96510    0.91300    1.000
    H49      H        0.82420    0.00690    0.89750    1.000
    C63      C        0.85790    0.92450    0.93330    1.000
    H50      H        0.87840    0.93780    0.92970    1.000
    C64      C        0.86140    0.86580    0.95860    1.000
    C65      C        0.83060    0.84820    0.96160    1.000
    H51      H        0.83240    0.80820    0.98060    1.000
    C66      C        0.79720    0.88940    0.93700    1.000
    H52      H        0.77490    0.87510    0.93610    1.000
    C67      C        0.89640    0.82020    0.98270    1.000
    C68      C        0.95140    0.79100    0.98110    1.000
    H53      H        0.97460    0.79290    0.02810    1.000
    H54      H        0.94080    0.74590    0.96920    1.000
    C69      C        0.80460    0.60000    0.60660    1.000
    H55      H        0.78750    0.58520    0.56350    1.000
    C70      C        0.83480    0.64900    0.62700    1.000
    H56      H        0.83660    0.67010    0.59780    1.000
    C71      C        0.86100    0.66500    0.69000    1.000
    C72      C        0.85630    0.63960    0.73030    1.000
    H57      H        0.87350    0.65340    0.77380    1.000
    C73      C        0.82650    0.59400    0.70790    1.000
    H58      H        0.82420    0.57450    0.73730    1.000
    C74      C        0.89300    0.72000    0.71200    1.000
    C75      C        0.95200    0.77800    0.79600    1.000
    H59      H        0.94150    0.81370    0.76460    1.000
    H60      H        0.97590    0.75680    0.80270    1.000
    C76      C        0.96610    0.80520    0.85760    1.000
    C77      C        0.99590    0.85220    0.88550    1.000
    H61      H        0.00580    0.86690    0.86400    1.000
    C78      C        0.01270    0.87990    0.94430    1.000
    C79      C        0.99750    0.85920    0.97360    1.000
    H62      H        0.00840    0.87790    0.01360    1.000
    C80      C        0.96660    0.81160    0.94720    1.000
    C81      C        0.95050    0.78550    0.88830    1.000
    H63      H        0.92870    0.75390    0.86860    1.000
    C82      C        0.97490    0.31960    0.63430    1.000
    H64      H        0.95570    0.28460    0.61220    1.000
    C83      C        0.97460    0.36730    0.59960    1.000
    H65      H        0.95580    0.36520    0.55410    1.000
    C84      C        0.00260    0.41970    0.63210    1.000
    C85      C        0.02960    0.41990    0.69720    1.000
    H66      H        0.04880    0.45490    0.72020    1.000
    C86      C        0.02920    0.36940    0.72970    1.000
    H67      H        0.04900    0.36890    0.77530    1.000
    C87      C        0.00050    0.47280    0.59300    1.000
    C88      C        0.03290    0.57170    0.59860    1.000
    H68      H        0.03480    0.55240    0.56710    1.000
    H69      H        0.05950    0.59540    0.63100    1.000
    C89      C        0.82290    0.93760    0.50620    1.000
    H70      H        0.82230    0.97860    0.52160    1.000
    C90      C        0.85720    0.89700    0.54900    1.000
    H71      H        0.87890    0.90950    0.59230    1.000
    C91      C        0.85850    0.84000    0.52700    1.000
    C92      C        0.82680    0.82400    0.46600    1.000
    H72      H        0.82720    0.78350    0.44900    1.000
    C93      C        0.79200    0.86800    0.42600    1.000
    H73      H        0.76880    0.85560    0.38310    1.000
    C94      C        0.89400    0.79300    0.56900    1.000
    C95      C        0.92000    0.68900    0.58800    1.000
    H74      H        0.90780    0.64670    0.58640    1.000
    H75      H        0.93970    0.70360    0.63330    1.000
    C96      C        0.82670    0.57210    0.17230    1.000
    H76      H        0.82620    0.55420    0.13950    1.000
    C97      C        0.85940    0.61460    0.21720    1.000
    H77      H        0.88090    0.62410    0.21480    1.000
    C98      C        0.86100    0.64250    0.26440    1.000
    C99      C        0.82880    0.62590    0.26510    1.000
    H78      H        0.82870    0.64300    0.29760    1.000
    C100     C        0.79700    0.58520    0.21970    1.000
    H79      H        0.77440    0.57680    0.21980    1.000
    C101     C        0.89560    0.68380    0.31150    1.000
    C102     C        0.93770    0.72330    0.41800    1.000
    H80      H        0.92900    0.76880    0.41490    1.000
    H81      H        0.96100    0.72280    0.41630    1.000
    C103     C        0.99640    0.61800    0.56490    1.000
    C104     C        0.97610    0.63460    0.58910    1.000
    H82      H        0.98400    0.61330    0.62640    1.000
    C105     C        0.94520    0.68040    0.56050    1.000
    C106     C        0.93140    0.71030    0.50280    1.000
    H83      H        0.90870    0.74050    0.48120    1.000
    C107     C        0.95180    0.69440    0.47830    1.000
    C108     C        0.98350    0.64920    0.50980    1.000
    H84      H        0.99720    0.63870    0.49300    1.000
    Cu3      Cu       0.74712    0.99004    0.38640    1.000
    O25      O        0.51240    0.52200    0.57040    1.000
    O26      O        0.46050    0.48100    0.56740    1.000
    O27      O        0.59560    0.27490    0.48300    1.000
    O28      O        0.58300    0.33540    0.53770    1.000
    O29      O        0.60700    0.24700    0.82800    1.000
    O30      O        0.58180    0.23170    0.72700    1.000
    O31      O        0.52040    0.97070    0.96420    1.000
    O32      O        0.47260    0.01980    0.86970    1.000
    O33      O        0.57280    0.31400    0.88500    1.000
    O34      O        0.61300    0.23610    0.95160    1.000
    O35      O        0.58300    0.21270    0.19750    1.000
    O36      O        0.59750    0.18590    0.13440    1.000
    N13      N        0.49610    0.67880    0.69460    1.000
    N14      N        0.70570    0.44810    0.58590    1.000
    N15      N        0.70020    0.07440    0.85340    1.000
    N16      N        0.49900    0.82010    0.80180    1.000
    N17      N        0.70830    0.42280    0.05340    1.000
    N18      N        0.70310    0.05670    0.32530    1.000
    C109     C        0.46560    0.63430    0.66820    1.000
    H85      H        0.44540    0.63790    0.67440    1.000
    C110     C        0.46250    0.58370    0.63260    1.000
    H86      H        0.44040    0.55270    0.61460    1.000
    C111     C        0.49100    0.57780    0.62290    1.000
    C112     C        0.52180    0.62290    0.64910    1.000
    H87      H        0.54220    0.62040    0.64340    1.000
    C113     C        0.52310    0.67320    0.68480    1.000
    H88      H        0.54480    0.70480    0.70290    1.000
    C114     C        0.48850    0.52400    0.58440    1.000
    C115     C        0.45280    0.43050    0.52300    1.000
    H89      H        0.45070    0.45080    0.48790    1.000
    H90      H        0.42550    0.40920    0.50350    1.000
    C116     C        0.67500    0.46510    0.58700    1.000
    H91      H        0.67580    0.50690    0.60250    1.000
    C117     C        0.64210    0.42450    0.56670    1.000
    H92      H        0.62160    0.43780    0.57030    1.000
    C118     C        0.63860    0.36580    0.54140    1.000
    C119     C        0.66940    0.34820    0.53840    1.000
    H93      H        0.66760    0.30820    0.51940    1.000
    C120     C        0.70280    0.38940    0.56300    1.000
    H94      H        0.72510    0.37510    0.56390    1.000
    C121     C        0.60360    0.32020    0.51730    1.000
    C122     C        0.54860    0.29100    0.51890    1.000
    H95      H        0.52540    0.29290    0.47190    1.000
    H96      H        0.55920    0.24590    0.53080    1.000
    C123     C        0.69540    0.10000    0.89340    1.000
    H97      H        0.71250    0.08520    0.93650    1.000
    C124     C        0.66520    0.14900    0.87300    1.000
    H98      H        0.66340    0.17010    0.90220    1.000
    C125     C        0.63900    0.16500    0.81000    1.000
    C126     C        0.64370    0.13960    0.76970    1.000
    H99      H        0.62650    0.15340    0.72620    1.000
    C127     C        0.67350    0.09400    0.79210    1.000
    H100     H        0.67580    0.07450    0.76270    1.000
    C128     C        0.60700    0.22000    0.78800    1.000
    C129     C        0.54800    0.27800    0.70400    1.000
    H101     H        0.55850    0.31370    0.73540    1.000
    H102     H        0.52410    0.25680    0.69730    1.000
    C130     C        0.53390    0.30520    0.64240    1.000
    C131     C        0.50410    0.35220    0.61450    1.000
    H103     H        0.49420    0.36690    0.63600    1.000
    C132     C        0.48730    0.37990    0.55570    1.000
    C133     C        0.50250    0.35920    0.52640    1.000
    H104     H        0.49160    0.37790    0.48640    1.000
    C134     C        0.53340    0.31160    0.55280    1.000
    C135     C        0.54950    0.28550    0.61170    1.000
    H105     H        0.57130    0.25390    0.63140    1.000
    C136     C        0.52510    0.81960    0.86570    1.000
    H106     H        0.54430    0.78460    0.88780    1.000
    C137     C        0.52540    0.86730    0.90040    1.000
    H107     H        0.54420    0.86520    0.94590    1.000
    C138     C        0.49740    0.91970    0.86790    1.000
    C139     C        0.47040    0.91990    0.80280    1.000
    H108     H        0.45120    0.95490    0.77980    1.000
    C140     C        0.47080    0.86940    0.77030    1.000
    H109     H        0.45100    0.86890    0.72470    1.000
    C141     C        0.49950    0.97280    0.90700    1.000
    C142     C        0.46710    0.07170    0.90140    1.000
    H110     H        0.46520    0.05240    0.93290    1.000
    H111     H        0.44050    0.09540    0.86900    1.000
    C143     C        0.67710    0.43760    0.99380    1.000
    H112     H        0.67770    0.47860    0.97840    1.000
    C144     C        0.64280    0.39700    0.95100    1.000
    H113     H        0.62110    0.40950    0.90770    1.000
    C145     C        0.64150    0.34000    0.97300    1.000
    C146     C        0.67320    0.32400    0.03400    1.000
    H114     H        0.67280    0.28350    0.05100    1.000
    C147     C        0.70800    0.36800    0.07400    1.000
    H115     H        0.73120    0.35560    0.11690    1.000
    C148     C        0.60600    0.29300    0.93100    1.000
    C149     C        0.58000    0.18900    0.91200    1.000
    H116     H        0.59220    0.14670    0.91360    1.000
    H117     H        0.56030    0.20360    0.86670    1.000
    C150     C        0.67330    0.07210    0.32770    1.000
    H118     H        0.67380    0.05420    0.36050    1.000
    C151     C        0.64060    0.11460    0.28280    1.000
    H119     H        0.61910    0.12410    0.28520    1.000
    C152     C        0.63900    0.14250    0.23560    1.000
    C153     C        0.67120    0.12590    0.23490    1.000
    H120     H        0.67130    0.14300    0.20240    1.000
    C154     C        0.70300    0.08520    0.28030    1.000
    H121     H        0.72560    0.07680    0.28020    1.000
    C155     C        0.60440    0.18380    0.18850    1.000
    C156     C        0.56230    0.22330    0.08200    1.000
    H122     H        0.57100    0.26880    0.08510    1.000
    H123     H        0.53900    0.22280    0.08370    1.000
    C157     C        0.50360    0.11800    0.93510    1.000
    C158     C        0.52390    0.13460    0.91090    1.000
    H124     H        0.51600    0.11330    0.87360    1.000
    C159     C        0.55480    0.18040    0.93950    1.000
    C160     C        0.56860    0.21030    0.99720    1.000
    H125     H        0.59130    0.24050    0.01880    1.000
    C161     C        0.54820    0.19440    0.02170    1.000
    C162     C        0.51650    0.14920    0.99020    1.000
    H126     H        0.50280    0.13870    0.00700    1.000
    Cu4      Cu       0.24712    0.49004    0.38640    1.000
    O37      O        0.01240    0.02200    0.57040    1.000
    O38      O        0.96050    0.98100    0.56740    1.000
    O39      O        0.09560    0.77490    0.48300    1.000
    O40      O        0.08300    0.83540    0.53770    1.000
    O41      O        0.10700    0.74700    0.82800    1.000
    O42      O        0.08180    0.73170    0.72700    1.000
    O43      O        0.02040    0.47070    0.96420    1.000
    O44      O        0.97260    0.51980    0.86970    1.000
    O45      O        0.07280    0.81400    0.88500    1.000
    O46      O        0.11300    0.73610    0.95160    1.000
    O47      O        0.08300    0.71270    0.19750    1.000
    O48      O        0.09750    0.68590    0.13440    1.000
    N19      N        0.99610    0.17880    0.69460    1.000
    N20      N        0.20570    0.94810    0.58590    1.000
    N21      N        0.20020    0.57440    0.85340    1.000
    N22      N        0.99900    0.32010    0.80180    1.000
    N23      N        0.20830    0.92280    0.05340    1.000
    N24      N        0.20310    0.55670    0.32530    1.000
    C163     C        0.96560    0.13430    0.66820    1.000
    H127     H        0.94540    0.13790    0.67440    1.000
    C164     C        0.96250    0.08370    0.63260    1.000
    H128     H        0.94040    0.05270    0.61460    1.000
    C165     C        0.99100    0.07780    0.62290    1.000
    C166     C        0.02180    0.12290    0.64910    1.000
    H129     H        0.04220    0.12040    0.64340    1.000
    C167     C        0.02310    0.17320    0.68480    1.000
    H130     H        0.04480    0.20480    0.70290    1.000
    C168     C        0.98850    0.02400    0.58440    1.000
    C169     C        0.95280    0.93050    0.52300    1.000
    H131     H        0.95070    0.95080    0.48790    1.000
    H132     H        0.92550    0.90920    0.50350    1.000
    C170     C        0.17500    0.96510    0.58700    1.000
    H133     H        0.17580    0.00690    0.60250    1.000
    C171     C        0.14210    0.92450    0.56670    1.000
    H134     H        0.12160    0.93780    0.57030    1.000
    C172     C        0.13860    0.86580    0.54140    1.000
    C173     C        0.16940    0.84820    0.53840    1.000
    H135     H        0.16760    0.80820    0.51940    1.000
    C174     C        0.20280    0.88940    0.56300    1.000
    H136     H        0.22510    0.87510    0.56390    1.000
    C175     C        0.10360    0.82020    0.51730    1.000
    C176     C        0.04860    0.79100    0.51890    1.000
    H137     H        0.02540    0.79290    0.47190    1.000
    H138     H        0.05920    0.74590    0.53080    1.000
    C177     C        0.19540    0.60000    0.89340    1.000
    H139     H        0.21250    0.58520    0.93650    1.000
    C178     C        0.16520    0.64900    0.87300    1.000
    H140     H        0.16340    0.67010    0.90220    1.000
    C179     C        0.13900    0.66500    0.81000    1.000
    C180     C        0.14370    0.63960    0.76970    1.000
    H141     H        0.12650    0.65340    0.72620    1.000
    C181     C        0.17350    0.59400    0.79210    1.000
    H142     H        0.17580    0.57450    0.76270    1.000
    C182     C        0.10700    0.72000    0.78800    1.000
    C183     C        0.04800    0.77800    0.70400    1.000
    H143     H        0.05850    0.81370    0.73540    1.000
    H144     H        0.02410    0.75680    0.69730    1.000
    C184     C        0.03390    0.80520    0.64240    1.000
    C185     C        0.00410    0.85220    0.61450    1.000
    H145     H        0.99420    0.86690    0.63600    1.000
    C186     C        0.98730    0.87990    0.55570    1.000
    C187     C        0.00250    0.85920    0.52640    1.000
    H146     H        0.99160    0.87790    0.48640    1.000
    C188     C        0.03340    0.81160    0.55280    1.000
    C189     C        0.04950    0.78550    0.61170    1.000
    H147     H        0.07130    0.75390    0.63140    1.000
    C190     C        0.02510    0.31960    0.86570    1.000
    H148     H        0.04430    0.28460    0.88780    1.000
    C191     C        0.02540    0.36730    0.90040    1.000
    H149     H        0.04420    0.36520    0.94590    1.000
    C192     C        0.99740    0.41970    0.86790    1.000
    C193     C        0.97040    0.41990    0.80280    1.000
    H150     H        0.95120    0.45490    0.77980    1.000
    C194     C        0.97080    0.36940    0.77030    1.000
    H151     H        0.95100    0.36890    0.72470    1.000
    C195     C        0.99950    0.47280    0.90700    1.000
    C196     C        0.96710    0.57170    0.90140    1.000
    H152     H        0.96520    0.55240    0.93290    1.000
    H153     H        0.94050    0.59540    0.86900    1.000
    C197     C        0.17710    0.93760    0.99380    1.000
    H154     H        0.17770    0.97860    0.97840    1.000
    C198     C        0.14280    0.89700    0.95100    1.000
    H155     H        0.12110    0.90950    0.90770    1.000
    C199     C        0.14150    0.84000    0.97300    1.000
    C200     C        0.17320    0.82400    0.03400    1.000
    H156     H        0.17280    0.78350    0.05100    1.000
    C201     C        0.20800    0.86800    0.07400    1.000
    H157     H        0.23120    0.85560    0.11690    1.000
    C202     C        0.10600    0.79300    0.93100    1.000
    C203     C        0.08000    0.68900    0.91200    1.000
    H158     H        0.09220    0.64670    0.91360    1.000
    H159     H        0.06030    0.70360    0.86670    1.000
    C204     C        0.17330    0.57210    0.32770    1.000
    H160     H        0.17380    0.55420    0.36050    1.000
    C205     C        0.14060    0.61460    0.28280    1.000
    H161     H        0.11910    0.62410    0.28520    1.000
    C206     C        0.13900    0.64250    0.23560    1.000
    C207     C        0.17120    0.62590    0.23490    1.000
    H162     H        0.17130    0.64300    0.20240    1.000
    C208     C        0.20300    0.58520    0.28030    1.000
    H163     H        0.22560    0.57680    0.28020    1.000
    C209     C        0.10440    0.68380    0.18850    1.000
    C210     C        0.06230    0.72330    0.08200    1.000
    H164     H        0.07100    0.76880    0.08510    1.000
    H165     H        0.03900    0.72280    0.08370    1.000
    C211     C        0.00360    0.61800    0.93510    1.000
    C212     C        0.02390    0.63460    0.91090    1.000
    H166     H        0.01600    0.61330    0.87360    1.000
    C213     C        0.05480    0.68040    0.93950    1.000
    C214     C        0.06860    0.71030    0.99720    1.000
    H167     H        0.09130    0.74050    0.01880    1.000
    C215     C        0.04820    0.69440    0.02170    1.000
    C216     C        0.01650    0.64920    0.99020    1.000
    H168     H        0.00280    0.63870    0.00700    1.000
    Cu5      Cu       0.74712    0.00996    0.88640    1.000
    O49      O        0.51240    0.47800    0.07040    1.000
    O50      O        0.46050    0.51900    0.06740    1.000
    O51      O        0.59560    0.72510    0.98300    1.000
    O52      O        0.58300    0.66460    0.03770    1.000
    O53      O        0.60700    0.75300    0.32800    1.000
    O54      O        0.58180    0.76830    0.22700    1.000
    O55      O        0.52040    0.02930    0.46420    1.000
    O56      O        0.47260    0.98020    0.36970    1.000
    O57      O        0.57280    0.68600    0.38500    1.000
    O58      O        0.61300    0.76390    0.45160    1.000
    O59      O        0.58300    0.78730    0.69750    1.000
    O60      O        0.59750    0.81410    0.63440    1.000
    N25      N        0.49610    0.32120    0.19460    1.000
    N26      N        0.70570    0.55190    0.08590    1.000
    N27      N        0.70020    0.92560    0.35340    1.000
    N28      N        0.49900    0.17990    0.30180    1.000
    N29      N        0.70830    0.57720    0.55340    1.000
    N30      N        0.70310    0.94330    0.82530    1.000
    C217     C        0.46560    0.36570    0.16820    1.000
    H169     H        0.44540    0.36210    0.17440    1.000
    C218     C        0.46250    0.41630    0.13260    1.000
    H170     H        0.44040    0.44730    0.11460    1.000
    C219     C        0.49100    0.42220    0.12290    1.000
    C220     C        0.52180    0.37710    0.14910    1.000
    H171     H        0.54220    0.37960    0.14340    1.000
    C221     C        0.52310    0.32680    0.18480    1.000
    H172     H        0.54480    0.29520    0.20290    1.000
    C222     C        0.48850    0.47600    0.08440    1.000
    C223     C        0.45280    0.56950    0.02300    1.000
    H173     H        0.45070    0.54920    0.98790    1.000
    H174     H        0.42550    0.59080    0.00350    1.000
    C224     C        0.67500    0.53490    0.08700    1.000
    H175     H        0.67580    0.49310    0.10250    1.000
    C225     C        0.64210    0.57550    0.06670    1.000
    H176     H        0.62160    0.56220    0.07030    1.000
    C226     C        0.63860    0.63420    0.04140    1.000
    C227     C        0.66940    0.65180    0.03840    1.000
    H177     H        0.66760    0.69180    0.01940    1.000
    C228     C        0.70280    0.61060    0.06300    1.000
    H178     H        0.72510    0.62490    0.06390    1.000
    C229     C        0.60360    0.67980    0.01730    1.000
    C230     C        0.54860    0.70900    0.01890    1.000
    H179     H        0.52540    0.70710    0.97190    1.000
    H180     H        0.55920    0.75410    0.03080    1.000
    C231     C        0.69540    0.90000    0.39340    1.000
    H181     H        0.71250    0.91480    0.43650    1.000
    C232     C        0.66520    0.85100    0.37300    1.000
    H182     H        0.66340    0.82990    0.40220    1.000
    C233     C        0.63900    0.83500    0.31000    1.000
    C234     C        0.64370    0.86040    0.26970    1.000
    H183     H        0.62650    0.84660    0.22620    1.000
    C235     C        0.67350    0.90600    0.29210    1.000
    H184     H        0.67580    0.92550    0.26270    1.000
    C236     C        0.60700    0.78000    0.28800    1.000
    C237     C        0.54800    0.72200    0.20400    1.000
    H185     H        0.55850    0.68630    0.23540    1.000
    H186     H        0.52410    0.74320    0.19730    1.000
    C238     C        0.53390    0.69480    0.14240    1.000
    C239     C        0.50410    0.64780    0.11450    1.000
    H187     H        0.49420    0.63310    0.13600    1.000
    C240     C        0.48730    0.62010    0.05570    1.000
    C241     C        0.50250    0.64080    0.02640    1.000
    H188     H        0.49160    0.62210    0.98640    1.000
    C242     C        0.53340    0.68840    0.05280    1.000
    C243     C        0.54950    0.71450    0.11170    1.000
    H189     H        0.57130    0.74610    0.13140    1.000
    C244     C        0.52510    0.18040    0.36570    1.000
    H190     H        0.54430    0.21540    0.38780    1.000
    C245     C        0.52540    0.13270    0.40040    1.000
    H191     H        0.54420    0.13480    0.44590    1.000
    C246     C        0.49740    0.08030    0.36790    1.000
    C247     C        0.47040    0.08010    0.30280    1.000
    H192     H        0.45120    0.04510    0.27980    1.000
    C248     C        0.47080    0.13060    0.27030    1.000
    H193     H        0.45100    0.13110    0.22470    1.000
    C249     C        0.49950    0.02720    0.40700    1.000
    C250     C        0.46710    0.92830    0.40140    1.000
    H194     H        0.46520    0.94760    0.43290    1.000
    H195     H        0.44050    0.90460    0.36900    1.000
    C251     C        0.67710    0.56240    0.49380    1.000
    H196     H        0.67770    0.52140    0.47840    1.000
    C252     C        0.64280    0.60300    0.45100    1.000
    H197     H        0.62110    0.59050    0.40770    1.000
    C253     C        0.64150    0.66000    0.47300    1.000
    C254     C        0.67320    0.67600    0.53400    1.000
    H198     H        0.67280    0.71650    0.55100    1.000
    C255     C        0.70800    0.63200    0.57400    1.000
    H199     H        0.73120    0.64440    0.61690    1.000
    C256     C        0.60600    0.70700    0.43100    1.000
    C257     C        0.58000    0.81100    0.41200    1.000
    H200     H        0.59220    0.85330    0.41360    1.000
    H201     H        0.56030    0.79640    0.36670    1.000
    C258     C        0.67330    0.92790    0.82770    1.000
    H202     H        0.67380    0.94580    0.86050    1.000
    C259     C        0.64060    0.88540    0.78280    1.000
    H203     H        0.61910    0.87590    0.78520    1.000
    C260     C        0.63900    0.85750    0.73560    1.000
    C261     C        0.67120    0.87410    0.73490    1.000
    H204     H        0.67130    0.85700    0.70240    1.000
    C262     C        0.70300    0.91480    0.78030    1.000
    H205     H        0.72560    0.92320    0.78020    1.000
    C263     C        0.60440    0.81620    0.68850    1.000
    C264     C        0.56230    0.77670    0.58200    1.000
    H206     H        0.57100    0.73120    0.58510    1.000
    H207     H        0.53900    0.77720    0.58370    1.000
    C265     C        0.50360    0.88200    0.43510    1.000
    C266     C        0.52390    0.86540    0.41090    1.000
    H208     H        0.51600    0.88670    0.37360    1.000
    C267     C        0.55480    0.81960    0.43950    1.000
    C268     C        0.56860    0.78970    0.49720    1.000
    H209     H        0.59130    0.75950    0.51880    1.000
    C269     C        0.54820    0.80560    0.52170    1.000
    C270     C        0.51650    0.85080    0.49020    1.000
    H210     H        0.50280    0.86130    0.50700    1.000
    Cu6      Cu       0.24712    0.50996    0.88640    1.000
    O61      O        0.01240    0.97800    0.07040    1.000
    O62      O        0.96050    0.01900    0.06740    1.000
    O63      O        0.09560    0.22510    0.98300    1.000
    O64      O        0.08300    0.16460    0.03770    1.000
    O65      O        0.10700    0.25300    0.32800    1.000
    O66      O        0.08180    0.26830    0.22700    1.000
    O67      O        0.02040    0.52930    0.46420    1.000
    O68      O        0.97260    0.48020    0.36970    1.000
    O69      O        0.07280    0.18600    0.38500    1.000
    O70      O        0.11300    0.26390    0.45160    1.000
    O71      O        0.08300    0.28730    0.69750    1.000
    O72      O        0.09750    0.31410    0.63440    1.000
    N31      N        0.99610    0.82120    0.19460    1.000
    N32      N        0.20570    0.05190    0.08590    1.000
    N33      N        0.20020    0.42560    0.35340    1.000
    N34      N        0.99900    0.67990    0.30180    1.000
    N35      N        0.20830    0.07720    0.55340    1.000
    N36      N        0.20310    0.44330    0.82530    1.000
    C271     C        0.96560    0.86570    0.16820    1.000
    H211     H        0.94540    0.86210    0.17440    1.000
    C272     C        0.96250    0.91630    0.13260    1.000
    H212     H        0.94040    0.94730    0.11460    1.000
    C273     C        0.99100    0.92220    0.12290    1.000
    C274     C        0.02180    0.87710    0.14910    1.000
    H213     H        0.04220    0.87960    0.14340    1.000
    C275     C        0.02310    0.82680    0.18480    1.000
    H214     H        0.04480    0.79520    0.20290    1.000
    C276     C        0.98850    0.97600    0.08440    1.000
    C277     C        0.95280    0.06950    0.02300    1.000
    H215     H        0.95070    0.04920    0.98790    1.000
    H216     H        0.92550    0.09080    0.00350    1.000
    C278     C        0.17500    0.03490    0.08700    1.000
    H217     H        0.17580    0.99310    0.10250    1.000
    C279     C        0.14210    0.07550    0.06670    1.000
    H218     H        0.12160    0.06220    0.07030    1.000
    C280     C        0.13860    0.13420    0.04140    1.000
    C281     C        0.16940    0.15180    0.03840    1.000
    H219     H        0.16760    0.19180    0.01940    1.000
    C282     C        0.20280    0.11060    0.06300    1.000
    H220     H        0.22510    0.12490    0.06390    1.000
    C283     C        0.10360    0.17980    0.01730    1.000
    C284     C        0.04860    0.20900    0.01890    1.000
    H221     H        0.02540    0.20710    0.97190    1.000
    H222     H        0.05920    0.25410    0.03080    1.000
    C285     C        0.19540    0.40000    0.39340    1.000
    H223     H        0.21250    0.41480    0.43650    1.000
    C286     C        0.16520    0.35100    0.37300    1.000
    H224     H        0.16340    0.32990    0.40220    1.000
    C287     C        0.13900    0.33500    0.31000    1.000
    C288     C        0.14370    0.36040    0.26970    1.000
    H225     H        0.12650    0.34660    0.22620    1.000
    C289     C        0.17350    0.40600    0.29210    1.000
    H226     H        0.17580    0.42550    0.26270    1.000
    C290     C        0.10700    0.28000    0.28800    1.000
    C291     C        0.04800    0.22200    0.20400    1.000
    H227     H        0.05850    0.18630    0.23540    1.000
    H228     H        0.02410    0.24320    0.19730    1.000
    C292     C        0.03390    0.19480    0.14240    1.000
    C293     C        0.00410    0.14780    0.11450    1.000
    H229     H        0.99420    0.13310    0.13600    1.000
    C294     C        0.98730    0.12010    0.05570    1.000
    C295     C        0.00250    0.14080    0.02640    1.000
    H230     H        0.99160    0.12210    0.98640    1.000
    C296     C        0.03340    0.18840    0.05280    1.000
    C297     C        0.04950    0.21450    0.11170    1.000
    H231     H        0.07130    0.24610    0.13140    1.000
    C298     C        0.02510    0.68040    0.36570    1.000
    H232     H        0.04430    0.71540    0.38780    1.000
    C299     C        0.02540    0.63270    0.40040    1.000
    H233     H        0.04420    0.63480    0.44590    1.000
    C300     C        0.99740    0.58030    0.36790    1.000
    C301     C        0.97040    0.58010    0.30280    1.000
    H234     H        0.95120    0.54510    0.27980    1.000
    C302     C        0.97080    0.63060    0.27030    1.000
    H235     H        0.95100    0.63110    0.22470    1.000
    C303     C        0.99950    0.52720    0.40700    1.000
    C304     C        0.96710    0.42830    0.40140    1.000
    H236     H        0.96520    0.44760    0.43290    1.000
    H237     H        0.94050    0.40460    0.36900    1.000
    C305     C        0.17710    0.06240    0.49380    1.000
    H238     H        0.17770    0.02140    0.47840    1.000
    C306     C        0.14280    0.10300    0.45100    1.000
    H239     H        0.12110    0.09050    0.40770    1.000
    C307     C        0.14150    0.16000    0.47300    1.000
    C308     C        0.17320    0.17600    0.53400    1.000
    H240     H        0.17280    0.21650    0.55100    1.000
    C309     C        0.20800    0.13200    0.57400    1.000
    H241     H        0.23120    0.14440    0.61690    1.000
    C310     C        0.10600    0.20700    0.43100    1.000
    C311     C        0.08000    0.31100    0.41200    1.000
    H242     H        0.09220    0.35330    0.41360    1.000
    H243     H        0.06030    0.29640    0.36670    1.000
    C312     C        0.17330    0.42790    0.82770    1.000
    H244     H        0.17380    0.44580    0.86050    1.000
    C313     C        0.14060    0.38540    0.78280    1.000
    H245     H        0.11910    0.37590    0.78520    1.000
    C314     C        0.13900    0.35750    0.73560    1.000
    C315     C        0.17120    0.37410    0.73490    1.000
    H246     H        0.17130    0.35700    0.70240    1.000
    C316     C        0.20300    0.41480    0.78030    1.000
    H247     H        0.22560    0.42320    0.78020    1.000
    C317     C        0.10440    0.31620    0.68850    1.000
    C318     C        0.06230    0.27670    0.58200    1.000
    H248     H        0.07100    0.23120    0.58510    1.000
    H249     H        0.03900    0.27720    0.58370    1.000
    C319     C        0.00360    0.38200    0.43510    1.000
    C320     C        0.02390    0.36540    0.41090    1.000
    H250     H        0.01600    0.38670    0.37360    1.000
    C321     C        0.05480    0.31960    0.43950    1.000
    C322     C        0.06860    0.28970    0.49720    1.000
    H251     H        0.09130    0.25950    0.51880    1.000
    C323     C        0.04820    0.30560    0.52170    1.000
    C324     C        0.01650    0.35080    0.49020    1.000
    H252     H        0.00280    0.36130    0.50700    1.000
    Cu7      Cu       0.25288    0.00996    0.61360    1.000
    O73      O        0.48760    0.47800    0.42960    1.000
    O74      O        0.53950    0.51900    0.43260    1.000
    O75      O        0.40440    0.72510    0.51700    1.000
    O76      O        0.41700    0.66460    0.46230    1.000
    O77      O        0.39300    0.75300    0.17200    1.000
    O78      O        0.41820    0.76830    0.27300    1.000
    O79      O        0.47960    0.02930    0.03580    1.000
    O80      O        0.52740    0.98020    0.13030    1.000
    O81      O        0.42720    0.68600    0.11500    1.000
    O82      O        0.38700    0.76390    0.04840    1.000
    O83      O        0.41700    0.78730    0.80250    1.000
    O84      O        0.40250    0.81410    0.86560    1.000
    N37      N        0.50390    0.32120    0.30540    1.000
    N38      N        0.29430    0.55190    0.41410    1.000
    N39      N        0.29980    0.92560    0.14660    1.000
    N40      N        0.50100    0.17990    0.19820    1.000
    N41      N        0.29170    0.57720    0.94660    1.000
    N42      N        0.29690    0.94330    0.67470    1.000
    C325     C        0.53440    0.36570    0.33180    1.000
    H253     H        0.55460    0.36210    0.32560    1.000
    C326     C        0.53750    0.41630    0.36740    1.000
    H254     H        0.55960    0.44730    0.38540    1.000
    C327     C        0.50900    0.42220    0.37710    1.000
    C328     C        0.47820    0.37710    0.35090    1.000
    H255     H        0.45780    0.37960    0.35660    1.000
    C329     C        0.47690    0.32680    0.31520    1.000
    H256     H        0.45520    0.29520    0.29710    1.000
    C330     C        0.51150    0.47600    0.41560    1.000
    C331     C        0.54720    0.56950    0.47700    1.000
    H257     H        0.54930    0.54920    0.51210    1.000
    H258     H        0.57450    0.59080    0.49650    1.000
    C332     C        0.32500    0.53490    0.41300    1.000
    H259     H        0.32420    0.49310    0.39750    1.000
    C333     C        0.35790    0.57550    0.43330    1.000
    H260     H        0.37840    0.56220    0.42970    1.000
    C334     C        0.36140    0.63420    0.45860    1.000
    C335     C        0.33060    0.65180    0.46160    1.000
    H261     H        0.33240    0.69180    0.48060    1.000
    C336     C        0.29720    0.61060    0.43700    1.000
    H262     H        0.27490    0.62490    0.43610    1.000
    C337     C        0.39640    0.67980    0.48270    1.000
    C338     C        0.45140    0.70900    0.48110    1.000
    H263     H        0.47460    0.70710    0.52810    1.000
    H264     H        0.44080    0.75410    0.46920    1.000
    C339     C        0.30460    0.90000    0.10660    1.000
    H265     H        0.28750    0.91480    0.06350    1.000
    C340     C        0.33480    0.85100    0.12700    1.000
    H266     H        0.33660    0.82990    0.09780    1.000
    C341     C        0.36100    0.83500    0.19000    1.000
    C342     C        0.35630    0.86040    0.23030    1.000
    H267     H        0.37350    0.84660    0.27380    1.000
    C343     C        0.32650    0.90600    0.20790    1.000
    H268     H        0.32420    0.92550    0.23730    1.000
    C344     C        0.39300    0.78000    0.21200    1.000
    C345     C        0.45200    0.72200    0.29600    1.000
    H269     H        0.44150    0.68630    0.26460    1.000
    H270     H        0.47590    0.74320    0.30270    1.000
    C346     C        0.46610    0.69480    0.35760    1.000
    C347     C        0.49590    0.64780    0.38550    1.000
    H271     H        0.50580    0.63310    0.36400    1.000
    C348     C        0.51270    0.62010    0.44430    1.000
    C349     C        0.49750    0.64080    0.47360    1.000
    H272     H        0.50840    0.62210    0.51360    1.000
    C350     C        0.46660    0.68840    0.44720    1.000
    C351     C        0.45050    0.71450    0.38830    1.000
    H273     H        0.42870    0.74610    0.36860    1.000
    C352     C        0.47490    0.18040    0.13430    1.000
    H274     H        0.45570    0.21540    0.11220    1.000
    C353     C        0.47460    0.13270    0.09960    1.000
    H275     H        0.45580    0.13480    0.05410    1.000
    C354     C        0.50260    0.08030    0.13210    1.000
    C355     C        0.52960    0.08010    0.19720    1.000
    H276     H        0.54880    0.04510    0.22020    1.000
    C356     C        0.52920    0.13060    0.22970    1.000
    H277     H        0.54900    0.13110    0.27530    1.000
    C357     C        0.50050    0.02720    0.09300    1.000
    C358     C        0.53290    0.92830    0.09860    1.000
    H278     H        0.53480    0.94760    0.06710    1.000
    H279     H        0.55950    0.90460    0.13100    1.000
    C359     C        0.32290    0.56240    0.00620    1.000
    H280     H        0.32230    0.52140    0.02160    1.000
    C360     C        0.35720    0.60300    0.04900    1.000
    H281     H        0.37890    0.59050    0.09230    1.000
    C361     C        0.35850    0.66000    0.02700    1.000
    C362     C        0.32680    0.67600    0.96600    1.000
    H282     H        0.32720    0.71650    0.94900    1.000
    C363     C        0.29200    0.63200    0.92600    1.000
    H283     H        0.26880    0.64440    0.88310    1.000
    C364     C        0.39400    0.70700    0.06900    1.000
    C365     C        0.42000    0.81100    0.08800    1.000
    H284     H        0.40780    0.85330    0.08640    1.000
    H285     H        0.43970    0.79640    0.13330    1.000
    C366     C        0.32670    0.92790    0.67230    1.000
    H286     H        0.32620    0.94580    0.63950    1.000
    C367     C        0.35940    0.88540    0.71720    1.000
    H287     H        0.38090    0.87590    0.71480    1.000
    C368     C        0.36100    0.85750    0.76440    1.000
    C369     C        0.32880    0.87410    0.76510    1.000
    H288     H        0.32870    0.85700    0.79760    1.000
    C370     C        0.29700    0.91480    0.71970    1.000
    H289     H        0.27440    0.92320    0.71980    1.000
    C371     C        0.39560    0.81620    0.81150    1.000
    C372     C        0.43770    0.77670    0.91800    1.000
    H290     H        0.42900    0.73120    0.91490    1.000
    H291     H        0.46100    0.77720    0.91630    1.000
    C373     C        0.49640    0.88200    0.06490    1.000
    C374     C        0.47610    0.86540    0.08910    1.000
    H292     H        0.48400    0.88670    0.12640    1.000
    C375     C        0.44520    0.81960    0.06050    1.000
    C376     C        0.43140    0.78970    0.00280    1.000
    H293     H        0.40870    0.75950    0.98120    1.000
    C377     C        0.45180    0.80560    0.97830    1.000
    C378     C        0.48350    0.85080    0.00980    1.000
    H294     H        0.49720    0.86130    0.99300    1.000
    Cu8      Cu       0.75288    0.50996    0.61360    1.000
    O85      O        0.98760    0.97800    0.42960    1.000
    O86      O        0.03950    0.01900    0.43260    1.000
    O87      O        0.90440    0.22510    0.51700    1.000
    O88      O        0.91700    0.16460    0.46230    1.000
    O89      O        0.89300    0.25300    0.17200    1.000
    O90      O        0.91820    0.26830    0.27300    1.000
    O91      O        0.97960    0.52930    0.03580    1.000
    O92      O        0.02740    0.48020    0.13030    1.000
    O93      O        0.92720    0.18600    0.11500    1.000
    O94      O        0.88700    0.26390    0.04840    1.000
    O95      O        0.91700    0.28730    0.80250    1.000
    O96      O        0.90250    0.31410    0.86560    1.000
    N43      N        0.00390    0.82120    0.30540    1.000
    N44      N        0.79430    0.05190    0.41410    1.000
    N45      N        0.79980    0.42560    0.14660    1.000
    N46      N        0.00100    0.67990    0.19820    1.000
    N47      N        0.79170    0.07720    0.94660    1.000
    N48      N        0.79690    0.44330    0.67470    1.000
    C379     C        0.03440    0.86570    0.33180    1.000
    H295     H        0.05460    0.86210    0.32560    1.000
    C380     C        0.03750    0.91630    0.36740    1.000
    H296     H        0.05960    0.94730    0.38540    1.000
    C381     C        0.00900    0.92220    0.37710    1.000
    C382     C        0.97820    0.87710    0.35090    1.000
    H297     H        0.95780    0.87960    0.35660    1.000
    C383     C        0.97690    0.82680    0.31520    1.000
    H298     H        0.95520    0.79520    0.29710    1.000
    C384     C        0.01150    0.97600    0.41560    1.000
    C385     C        0.04720    0.06950    0.47700    1.000
    H299     H        0.04930    0.04920    0.51210    1.000
    H300     H        0.07450    0.09080    0.49650    1.000
    C386     C        0.82500    0.03490    0.41300    1.000
    H301     H        0.82420    0.99310    0.39750    1.000
    C387     C        0.85790    0.07550    0.43330    1.000
    H302     H        0.87840    0.06220    0.42970    1.000
    C388     C        0.86140    0.13420    0.45860    1.000
    C389     C        0.83060    0.15180    0.46160    1.000
    H303     H        0.83240    0.19180    0.48060    1.000
    C390     C        0.79720    0.11060    0.43700    1.000
    H304     H        0.77490    0.12490    0.43610    1.000
    C391     C        0.89640    0.17980    0.48270    1.000
    C392     C        0.95140    0.20900    0.48110    1.000
    H305     H        0.97460    0.20710    0.52810    1.000
    H306     H        0.94080    0.25410    0.46920    1.000
    C393     C        0.80460    0.40000    0.10660    1.000
    H307     H        0.78750    0.41480    0.06350    1.000
    C394     C        0.83480    0.35100    0.12700    1.000
    H308     H        0.83660    0.32990    0.09780    1.000
    C395     C        0.86100    0.33500    0.19000    1.000
    C396     C        0.85630    0.36040    0.23030    1.000
    H309     H        0.87350    0.34660    0.27380    1.000
    C397     C        0.82650    0.40600    0.20790    1.000
    H310     H        0.82420    0.42550    0.23730    1.000
    C398     C        0.89300    0.28000    0.21200    1.000
    C399     C        0.95200    0.22200    0.29600    1.000
    H311     H        0.94150    0.18630    0.26460    1.000
    H312     H        0.97590    0.24320    0.30270    1.000
    C400     C        0.96610    0.19480    0.35760    1.000
    C401     C        0.99590    0.14780    0.38550    1.000
    H313     H        0.00580    0.13310    0.36400    1.000
    C402     C        0.01270    0.12010    0.44430    1.000
    C403     C        0.99750    0.14080    0.47360    1.000
    H314     H        0.00840    0.12210    0.51360    1.000
    C404     C        0.96660    0.18840    0.44720    1.000
    C405     C        0.95050    0.21450    0.38830    1.000
    H315     H        0.92870    0.24610    0.36860    1.000
    C406     C        0.97490    0.68040    0.13430    1.000
    H316     H        0.95570    0.71540    0.11220    1.000
    C407     C        0.97460    0.63270    0.09960    1.000
    H317     H        0.95580    0.63480    0.05410    1.000
    C408     C        0.00260    0.58030    0.13210    1.000
    C409     C        0.02960    0.58010    0.19720    1.000
    H318     H        0.04880    0.54510    0.22020    1.000
    C410     C        0.02920    0.63060    0.22970    1.000
    H319     H        0.04900    0.63110    0.27530    1.000
    C411     C        0.00050    0.52720    0.09300    1.000
    C412     C        0.03290    0.42830    0.09860    1.000
    H320     H        0.03480    0.44760    0.06710    1.000
    H321     H        0.05950    0.40460    0.13100    1.000
    C413     C        0.82290    0.06240    0.00620    1.000
    H322     H        0.82230    0.02140    0.02160    1.000
    C414     C        0.85720    0.10300    0.04900    1.000
    H323     H        0.87890    0.09050    0.09230    1.000
    C415     C        0.85850    0.16000    0.02700    1.000
    C416     C        0.82680    0.17600    0.96600    1.000
    H324     H        0.82720    0.21650    0.94900    1.000
    C417     C        0.79200    0.13200    0.92600    1.000
    H325     H        0.76880    0.14440    0.88310    1.000
    C418     C        0.89400    0.20700    0.06900    1.000
    C419     C        0.92000    0.31100    0.08800    1.000
    H326     H        0.90780    0.35330    0.08640    1.000
    H327     H        0.93970    0.29640    0.13330    1.000
    C420     C        0.82670    0.42790    0.67230    1.000
    H328     H        0.82620    0.44580    0.63950    1.000
    C421     C        0.85940    0.38540    0.71720    1.000
    H329     H        0.88090    0.37590    0.71480    1.000
    C422     C        0.86100    0.35750    0.76440    1.000
    C423     C        0.82880    0.37410    0.76510    1.000
    H330     H        0.82870    0.35700    0.79760    1.000
    C424     C        0.79700    0.41480    0.71970    1.000
    H331     H        0.77440    0.42320    0.71980    1.000
    C425     C        0.89560    0.31620    0.81150    1.000
    C426     C        0.93770    0.27670    0.91800    1.000
    H332     H        0.92900    0.23120    0.91490    1.000
    H333     H        0.96100    0.27720    0.91630    1.000
    C427     C        0.99640    0.38200    0.06490    1.000
    C428     C        0.97610    0.36540    0.08910    1.000
    H334     H        0.98400    0.38670    0.12640    1.000
    C429     C        0.94520    0.31960    0.06050    1.000
    C430     C        0.93140    0.28970    0.00280    1.000
    H335     H        0.90870    0.25950    0.98120    1.000
    C431     C        0.95180    0.30560    0.97830    1.000
    C432     C        0.98350    0.35080    0.00980    1.000
    H336     H        0.99720    0.36130    0.99300    1.000
    Cu9      Cu       0.50000    0.74990    0.75000    1.000
    Cu10     Cu       0.00000    0.24990    0.75000    1.000
    Cu11     Cu       0.50000    0.25010    0.25000    1.000
    Cu12     Cu       0.00000    0.75010    0.25000    1.000
