data_functionalizedCrystal
_audit_creation_method	'EQeq! by Chris Wilmer'
_symmetry_space_group_name_H-M	'P1'
_symmetry_Int_Tables_number	1
_symmetry_cell_setting	triclinic
loop_
_symmetry_equiv_pos_as_xyz
  x,y,z
_cell_length_a	18.6881
_cell_length_b	18.6881
_cell_length_c	50.6437
_cell_angle_alpha	90
_cell_angle_beta	90
_cell_angle_gamma	90
loop_
_atom_site_label
_atom_site_type_symbol
_atom_site_fract_x
_atom_site_fract_y
_atom_site_fract_z
_atom_site_charge
Mof_O 	O 	0.76379	0.13134	0.74707	-0.4
Mof_O 	O 	0.70713	0.18976	0.71416	-0.402
Mof_C 	C 	0.6299	0.0475	0.60106	-0.036
Mof_H 	H 	0.6422	0.0822	0.5887	0.048
Mof_C 	C 	0.6651	0.0472	0.626	-0.048
Mof_H 	H 	0.7015	0.08	0.6293	0.049
Mof_C 	C 	0.6903	0.06479	0.68542	-0.016
Mof_H 	H 	0.6813	0.1081	0.677	0.05
Mof_C 	C 	0.71837	0.06469	0.71123	-0.077
Mof_C 	C 	0.73038	0.13442	0.72512	0.348
Mof_C 	C 	0.5644	0.0593	0.61291	-0.034
Mof_H 	H 	0.5344	0.0966	0.6079	0.037
Mof_C 	C 	0.5964	0.0575	0.63788	-0.049
Mof_H 	H 	0.5859	0.0931	0.6501	0.049
Mof_O 	O 	0.26379	0.63134	0.24707	-0.4
Mof_O 	O 	0.20713	0.68976	0.21416	-0.402
Mof_C 	C 	0.1299	0.5475	0.10106	-0.036
Mof_H 	H 	0.1422	0.5822	0.0887	0.048
Mof_C 	C 	0.1651	0.5472	0.126	-0.047
Mof_H 	H 	0.2015	0.58	0.1293	0.048
Mof_C 	C 	0.1903	0.56479	0.18542	-0.015
Mof_H 	H 	0.1813	0.6081	0.177	0.05
Mof_C 	C 	0.21837	0.56469	0.21123	-0.08
Mof_C 	C 	0.23038	0.63442	0.22512	0.348
Mof_C 	C 	0.0644	0.5593	0.11291	-0.036
Mof_H 	H 	0.0344	0.5966	0.1079	0.035
Mof_C 	C 	0.0964	0.5575	0.13788	-0.05
Mof_H 	H 	0.0859	0.5931	0.1501	0.048
Mof_O 	O 	0.23621	0.86866	0.74707	-0.4
Mof_O 	O 	0.29287	0.81024	0.71416	-0.403
Mof_C 	C 	0.3701	0.9525	0.60106	-0.034
Mof_H 	H 	0.3578	0.9178	0.5887	0.047
Mof_C 	C 	0.3349	0.9528	0.626	-0.046
Mof_H 	H 	0.2985	0.92	0.6293	0.047
Mof_C 	C 	0.3097	0.93521	0.68542	-0.014
Mof_H 	H 	0.3187	0.8919	0.677	0.049
Mof_C 	C 	0.28163	0.93531	0.71123	-0.076
Mof_C 	C 	0.26962	0.86558	0.72512	0.347
Mof_C 	C 	0.4356	0.9407	0.61291	-0.034
Mof_H 	H 	0.4656	0.9034	0.6079	0.036
Mof_C 	C 	0.4036	0.9425	0.63788	-0.049
Mof_H 	H 	0.4141	0.9069	0.6501	0.048
Mof_O 	O 	0.73621	0.36866	0.24707	-0.401
Mof_O 	O 	0.79287	0.31024	0.21416	-0.403
Mof_C 	C 	0.8701	0.4525	0.10106	-0.036
Mof_H 	H 	0.8578	0.4178	0.0887	0.047
Mof_C 	C 	0.8349	0.4528	0.126	-0.049
Mof_H 	H 	0.7985	0.42	0.1293	0.048
Mof_C 	C 	0.8097	0.43521	0.18542	-0.016
Mof_H 	H 	0.8187	0.3919	0.177	0.049
Mof_C 	C 	0.78163	0.43531	0.21123	-0.079
Mof_C 	C 	0.76962	0.36558	0.22512	0.348
Mof_C 	C 	0.9356	0.4407	0.11291	-0.035
Mof_H 	H 	0.9656	0.4034	0.1079	0.037
Mof_C 	C 	0.9036	0.4425	0.13788	-0.05
Mof_H 	H 	0.9141	0.4069	0.1501	0.049
Mof_O 	O 	0.86866	0.76379	0.74707	-0.4
Mof_O 	O 	0.81024	0.70713	0.71416	-0.403
Mof_C 	C 	0.9525	0.6299	0.60106	-0.033
Mof_H 	H 	0.9178	0.6422	0.5887	0.047
Mof_C 	C 	0.9528	0.6651	0.626	-0.046
Mof_H 	H 	0.92	0.7015	0.6293	0.048
Mof_C 	C 	0.93521	0.6903	0.68542	-0.014
Mof_H 	H 	0.8919	0.6813	0.677	0.049
Mof_C 	C 	0.93531	0.71837	0.71123	-0.076
Mof_C 	C 	0.86558	0.73038	0.72512	0.347
Mof_C 	C 	0.9407	0.5644	0.61291	-0.034
Mof_H 	H 	0.9034	0.5344	0.6079	0.036
Mof_C 	C 	0.9425	0.5964	0.63788	-0.049
Mof_H 	H 	0.9069	0.5859	0.6501	0.048
Mof_O 	O 	0.36866	0.26379	0.24707	-0.401
Mof_O 	O 	0.31024	0.20713	0.21416	-0.404
Mof_C 	C 	0.4525	0.1299	0.10106	-0.037
Mof_H 	H 	0.4178	0.1422	0.0887	0.047
Mof_C 	C 	0.4528	0.1651	0.126	-0.048
Mof_H 	H 	0.42	0.2015	0.1293	0.047
Mof_C 	C 	0.43521	0.1903	0.18542	-0.016
Mof_H 	H 	0.3919	0.1813	0.177	0.049
Mof_C 	C 	0.43531	0.21837	0.21123	-0.08
Mof_C 	C 	0.36558	0.23038	0.22512	0.348
Mof_C 	C 	0.4407	0.0644	0.11291	-0.036
Mof_H 	H 	0.4034	0.0344	0.1079	0.035
Mof_C 	C 	0.4425	0.0964	0.13788	-0.05
Mof_H 	H 	0.4069	0.0859	0.1501	0.048
Mof_O 	O 	0.13134	0.23621	0.74707	-0.402
Mof_O 	O 	0.18976	0.29287	0.71416	-0.403
Mof_C 	C 	0.0475	0.3701	0.60106	-0.037
Mof_H 	H 	0.0822	0.3578	0.5887	0.047
Mof_C 	C 	0.0472	0.3349	0.626	-0.049
Mof_H 	H 	0.08	0.2985	0.6293	0.047
Mof_C 	C 	0.06479	0.3097	0.68542	-0.017
Mof_H 	H 	0.1081	0.3187	0.677	0.049
Mof_C 	C 	0.06469	0.28163	0.71123	-0.079
Mof_C 	C 	0.13442	0.26962	0.72512	0.347
Mof_C 	C 	0.0593	0.4356	0.61291	-0.035
Mof_H 	H 	0.0966	0.4656	0.6079	0.036
Mof_C 	C 	0.0575	0.4036	0.63788	-0.05
Mof_H 	H 	0.0931	0.4141	0.6501	0.048
Mof_O 	O 	0.63134	0.73621	0.24707	-0.401
Mof_O 	O 	0.68976	0.79287	0.21416	-0.403
Mof_C 	C 	0.5475	0.8701	0.10106	-0.037
Mof_H 	H 	0.5822	0.8578	0.0887	0.047
Mof_C 	C 	0.5472	0.8349	0.126	-0.049
Mof_H 	H 	0.58	0.7985	0.1293	0.048
Mof_C 	C 	0.56479	0.8097	0.18542	-0.016
Mof_H 	H 	0.6081	0.8187	0.177	0.049
Mof_C 	C 	0.56469	0.78163	0.21123	-0.079
Mof_C 	C 	0.63442	0.76962	0.22512	0.348
Mof_C 	C 	0.5593	0.9356	0.11291	-0.035
Mof_H 	H 	0.5966	0.9656	0.1079	0.038
Mof_C 	C 	0.5575	0.9036	0.13788	-0.05
Mof_H 	H 	0.5931	0.9141	0.1501	0.049
Mof_O 	O 	0.23621	0.13134	0.25293	-0.402
Mof_O 	O 	0.29287	0.18976	0.28584	-0.403
Mof_C 	C 	0.3701	0.0475	0.39894	-0.037
Mof_H 	H 	0.3578	0.0822	0.4113	0.047
Mof_C 	C 	0.3349	0.0472	0.374	-0.049
Mof_H 	H 	0.2985	0.08	0.3707	0.047
Mof_C 	C 	0.3097	0.06479	0.31458	-0.017
Mof_H 	H 	0.3187	0.1081	0.323	0.049
Mof_C 	C 	0.28163	0.06469	0.28877	-0.079
Mof_C 	C 	0.26962	0.13442	0.27488	0.347
Mof_C 	C 	0.4356	0.0593	0.38709	-0.035
Mof_H 	H 	0.4656	0.0966	0.3921	0.036
Mof_C 	C 	0.4036	0.0575	0.36212	-0.05
Mof_H 	H 	0.4141	0.0931	0.3499	0.048
Mof_O 	O 	0.73621	0.63134	0.75293	-0.401
Mof_O 	O 	0.79287	0.68976	0.78584	-0.403
Mof_C 	C 	0.8701	0.5475	0.89894	-0.037
Mof_H 	H 	0.8578	0.5822	0.9113	0.047
Mof_C 	C 	0.8349	0.5472	0.874	-0.049
Mof_H 	H 	0.7985	0.58	0.8707	0.048
Mof_C 	C 	0.8097	0.56479	0.81458	-0.016
Mof_H 	H 	0.8187	0.6081	0.823	0.049
Mof_C 	C 	0.78163	0.56469	0.78877	-0.079
Mof_C 	C 	0.76962	0.63442	0.77488	0.348
Mof_C 	C 	0.9356	0.5593	0.88709	-0.035
Mof_H 	H 	0.9656	0.5966	0.8921	0.038
Mof_C 	C 	0.9036	0.5575	0.86212	-0.05
Mof_H 	H 	0.9141	0.5931	0.8499	0.049
Mof_O 	O 	0.76379	0.86866	0.25293	-0.4
Mof_O 	O 	0.70713	0.81024	0.28584	-0.403
Mof_C 	C 	0.6299	0.9525	0.39894	-0.033
Mof_H 	H 	0.6422	0.9178	0.4113	0.047
Mof_C 	C 	0.6651	0.9528	0.374	-0.046
Mof_H 	H 	0.7015	0.92	0.3707	0.048
Mof_C 	C 	0.6903	0.93521	0.31458	-0.014
Mof_H 	H 	0.6813	0.8919	0.323	0.049
Mof_C 	C 	0.71837	0.93531	0.28877	-0.076
Mof_C 	C 	0.73038	0.86558	0.27488	0.347
Mof_C 	C 	0.5644	0.9407	0.38709	-0.034
Mof_H 	H 	0.5344	0.9034	0.3921	0.036
Mof_C 	C 	0.5964	0.9425	0.36212	-0.049
Mof_H 	H 	0.5859	0.9069	0.3499	0.048
Mof_O 	O 	0.26379	0.36866	0.75293	-0.401
Mof_O 	O 	0.20713	0.31024	0.78584	-0.404
Mof_C 	C 	0.1299	0.4525	0.89894	-0.037
Mof_H 	H 	0.1422	0.4178	0.9113	0.047
Mof_C 	C 	0.1651	0.4528	0.874	-0.048
Mof_H 	H 	0.2015	0.42	0.8707	0.047
Mof_C 	C 	0.1903	0.43521	0.81458	-0.016
Mof_H 	H 	0.1813	0.3919	0.823	0.049
Mof_C 	C 	0.21837	0.43531	0.78877	-0.08
Mof_C 	C 	0.23038	0.36558	0.77488	0.348
Mof_C 	C 	0.0644	0.4407	0.88709	-0.036
Mof_H 	H 	0.0344	0.4034	0.8921	0.035
Mof_C 	C 	0.0964	0.4425	0.86212	-0.05
Mof_H 	H 	0.0859	0.4069	0.8499	0.048
Mof_O 	O 	0.13134	0.76379	0.25293	-0.401
Mof_O 	O 	0.18976	0.70713	0.28584	-0.403
Mof_C 	C 	0.0475	0.6299	0.39894	-0.037
Mof_H 	H 	0.0822	0.6422	0.4113	0.047
Mof_C 	C 	0.0472	0.6651	0.374	-0.049
Mof_H 	H 	0.08	0.7015	0.3707	0.048
Mof_C 	C 	0.06479	0.6903	0.31458	-0.017
Mof_H 	H 	0.1081	0.6813	0.323	0.049
Mof_C 	C 	0.06469	0.71837	0.28877	-0.078
Mof_C 	C 	0.13442	0.73038	0.27488	0.347
Mof_C 	C 	0.0593	0.5644	0.38709	-0.035
Mof_H 	H 	0.0966	0.5344	0.3921	0.036
Mof_C 	C 	0.0575	0.5964	0.36212	-0.05
Mof_H 	H 	0.0931	0.5859	0.3499	0.048
Mof_O 	O 	0.63134	0.26379	0.75293	-0.401
Mof_O 	O 	0.68976	0.20713	0.78584	-0.403
Mof_C 	C 	0.5475	0.1299	0.89894	-0.037
Mof_H 	H 	0.5822	0.1422	0.9113	0.047
Mof_C 	C 	0.5472	0.1651	0.874	-0.048
Mof_H 	H 	0.58	0.2015	0.8707	0.047
Mof_C 	C 	0.56479	0.1903	0.81458	-0.016
Mof_H 	H 	0.6081	0.1813	0.823	0.049
Mof_C 	C 	0.56469	0.21837	0.78877	-0.08
Mof_C 	C 	0.63442	0.23038	0.77488	0.348
Mof_C 	C 	0.5593	0.0644	0.88709	-0.036
Mof_H 	H 	0.5966	0.0344	0.8921	0.035
Mof_C 	C 	0.5575	0.0964	0.86212	-0.05
Mof_H 	H 	0.5931	0.0859	0.8499	0.048
Mof_O 	O 	0.86866	0.23621	0.25293	-0.4
Mof_O 	O 	0.81024	0.29287	0.28584	-0.403
Mof_C 	C 	0.9525	0.3701	0.39894	-0.034
Mof_H 	H 	0.9178	0.3578	0.4113	0.047
Mof_C 	C 	0.9528	0.3349	0.374	-0.046
Mof_H 	H 	0.92	0.2985	0.3707	0.047
Mof_C 	C 	0.93521	0.3097	0.31458	-0.014
Mof_H 	H 	0.8919	0.3187	0.323	0.049
Mof_C 	C 	0.93531	0.28163	0.28877	-0.076
Mof_C 	C 	0.86558	0.26962	0.27488	0.347
Mof_C 	C 	0.9407	0.4356	0.38709	-0.034
Mof_H 	H 	0.9034	0.4656	0.3921	0.036
Mof_C 	C 	0.9425	0.4036	0.36212	-0.049
Mof_H 	H 	0.9069	0.4141	0.3499	0.048
Mof_O 	O 	0.36866	0.73621	0.75293	-0.401
Mof_O 	O 	0.31024	0.79287	0.78584	-0.403
Mof_C 	C 	0.4525	0.8701	0.89894	-0.036
Mof_H 	H 	0.4178	0.8578	0.9113	0.047
Mof_C 	C 	0.4528	0.8349	0.874	-0.049
Mof_H 	H 	0.42	0.7985	0.8707	0.048
Mof_C 	C 	0.43521	0.8097	0.81458	-0.016
Mof_H 	H 	0.3919	0.8187	0.823	0.049
Mof_C 	C 	0.43531	0.78163	0.78877	-0.079
Mof_C 	C 	0.36558	0.76962	0.77488	0.348
Mof_C 	C 	0.4407	0.9356	0.88709	-0.035
Mof_H 	H 	0.4034	0.9656	0.8921	0.037
Mof_C 	C 	0.4425	0.9036	0.86212	-0.05
Mof_H 	H 	0.4069	0.9141	0.8499	0.049
Mof_O 	O 	0.23621	0.86866	0.25293	-0.4
Mof_O 	O 	0.29287	0.81024	0.28584	-0.403
Mof_C 	C 	0.3701	0.9525	0.39894	-0.034
Mof_H 	H 	0.3578	0.9178	0.4113	0.047
Mof_C 	C 	0.3349	0.9528	0.374	-0.046
Mof_H 	H 	0.2985	0.92	0.3707	0.047
Mof_C 	C 	0.3097	0.93521	0.31458	-0.014
Mof_H 	H 	0.3187	0.8919	0.323	0.049
Mof_C 	C 	0.28163	0.93531	0.28877	-0.076
Mof_C 	C 	0.26962	0.86558	0.27488	0.347
Mof_C 	C 	0.4356	0.9407	0.38709	-0.034
Mof_H 	H 	0.4656	0.9034	0.3921	0.036
Mof_C 	C 	0.4036	0.9425	0.36212	-0.049
Mof_H 	H 	0.4141	0.9069	0.3499	0.048
Mof_O 	O 	0.73621	0.36866	0.75293	-0.401
Mof_O 	O 	0.79287	0.31024	0.78584	-0.403
Mof_C 	C 	0.8701	0.4525	0.89894	-0.036
Mof_H 	H 	0.8578	0.4178	0.9113	0.047
Mof_C 	C 	0.8349	0.4528	0.874	-0.049
Mof_H 	H 	0.7985	0.42	0.8707	0.048
Mof_C 	C 	0.8097	0.43521	0.81458	-0.016
Mof_H 	H 	0.8187	0.3919	0.823	0.049
Mof_C 	C 	0.78163	0.43531	0.78877	-0.079
Mof_C 	C 	0.76962	0.36558	0.77488	0.348
Mof_C 	C 	0.9356	0.4407	0.88709	-0.035
Mof_H 	H 	0.9656	0.4034	0.8921	0.037
Mof_C 	C 	0.9036	0.4425	0.86212	-0.05
Mof_H 	H 	0.9141	0.4069	0.8499	0.049
Mof_O 	O 	0.76379	0.13134	0.25293	-0.401
Mof_O 	O 	0.70713	0.18976	0.28584	-0.403
Mof_C 	C 	0.6299	0.0475	0.39894	-0.037
Mof_H 	H 	0.6422	0.0822	0.4113	0.047
Mof_C 	C 	0.6651	0.0472	0.374	-0.049
Mof_H 	H 	0.7015	0.08	0.3707	0.048
Mof_C 	C 	0.6903	0.06479	0.31458	-0.017
Mof_H 	H 	0.6813	0.1081	0.323	0.049
Mof_C 	C 	0.71837	0.06469	0.28877	-0.078
Mof_C 	C 	0.73038	0.13442	0.27488	0.347
Mof_C 	C 	0.5644	0.0593	0.38709	-0.035
Mof_H 	H 	0.5344	0.0966	0.3921	0.036
Mof_C 	C 	0.5964	0.0575	0.36212	-0.05
Mof_H 	H 	0.5859	0.0931	0.3499	0.048
Mof_O 	O 	0.26379	0.63134	0.75293	-0.401
Mof_O 	O 	0.20713	0.68976	0.78584	-0.403
Mof_C 	C 	0.1299	0.5475	0.89894	-0.037
Mof_H 	H 	0.1422	0.5822	0.9113	0.047
Mof_C 	C 	0.1651	0.5472	0.874	-0.048
Mof_H 	H 	0.2015	0.58	0.8707	0.047
Mof_C 	C 	0.1903	0.56479	0.81458	-0.016
Mof_H 	H 	0.1813	0.6081	0.823	0.049
Mof_C 	C 	0.21837	0.56469	0.78877	-0.08
Mof_C 	C 	0.23038	0.63442	0.77488	0.348
Mof_C 	C 	0.0644	0.5593	0.88709	-0.036
Mof_H 	H 	0.0344	0.5966	0.8921	0.035
Mof_C 	C 	0.0964	0.5575	0.86212	-0.05
Mof_H 	H 	0.0859	0.5931	0.8499	0.048
Mof_O 	O 	0.13134	0.23621	0.25293	-0.402
Mof_O 	O 	0.18976	0.29287	0.28584	-0.403
Mof_C 	C 	0.0475	0.3701	0.39894	-0.037
Mof_H 	H 	0.0822	0.3578	0.4113	0.047
Mof_C 	C 	0.0472	0.3349	0.374	-0.049
Mof_H 	H 	0.08	0.2985	0.3707	0.047
Mof_C 	C 	0.06479	0.3097	0.31458	-0.017
Mof_H 	H 	0.1081	0.3187	0.323	0.049
Mof_C 	C 	0.06469	0.28163	0.28877	-0.079
Mof_C 	C 	0.13442	0.26962	0.27488	0.347
Mof_C 	C 	0.0593	0.4356	0.38709	-0.035
Mof_H 	H 	0.0966	0.4656	0.3921	0.036
Mof_C 	C 	0.0575	0.4036	0.36212	-0.05
Mof_H 	H 	0.0931	0.4141	0.3499	0.048
Mof_O 	O 	0.63134	0.73621	0.75293	-0.401
Mof_O 	O 	0.68976	0.79287	0.78584	-0.403
Mof_C 	C 	0.5475	0.8701	0.89894	-0.037
Mof_H 	H 	0.5822	0.8578	0.9113	0.047
Mof_C 	C 	0.5472	0.8349	0.874	-0.049
Mof_H 	H 	0.58	0.7985	0.8707	0.048
Mof_C 	C 	0.56479	0.8097	0.81458	-0.016
Mof_H 	H 	0.6081	0.8187	0.823	0.049
Mof_C 	C 	0.56469	0.78163	0.78877	-0.079
Mof_C 	C 	0.63442	0.76962	0.77488	0.348
Mof_C 	C 	0.5593	0.9356	0.88709	-0.035
Mof_H 	H 	0.5966	0.9656	0.8921	0.038
Mof_C 	C 	0.5575	0.9036	0.86212	-0.05
Mof_H 	H 	0.5931	0.9141	0.8499	0.049
Mof_O 	O 	0.86866	0.76379	0.25293	-0.4
Mof_O 	O 	0.81024	0.70713	0.28584	-0.403
Mof_C 	C 	0.9525	0.6299	0.39894	-0.033
Mof_H 	H 	0.9178	0.6422	0.4113	0.047
Mof_C 	C 	0.9528	0.6651	0.374	-0.046
Mof_H 	H 	0.92	0.7015	0.3707	0.048
Mof_C 	C 	0.93521	0.6903	0.31458	-0.014
Mof_H 	H 	0.8919	0.6813	0.323	0.049
Mof_C 	C 	0.93531	0.71837	0.28877	-0.076
Mof_C 	C 	0.86558	0.73038	0.27488	0.347
Mof_C 	C 	0.9407	0.5644	0.38709	-0.034
Mof_H 	H 	0.9034	0.5344	0.3921	0.036
Mof_C 	C 	0.9425	0.5964	0.36212	-0.049
Mof_H 	H 	0.9069	0.5859	0.3499	0.048
Mof_O 	O 	0.36866	0.26379	0.75293	-0.401
Mof_O 	O 	0.31024	0.20713	0.78584	-0.404
Mof_C 	C 	0.4525	0.1299	0.89894	-0.037
Mof_H 	H 	0.4178	0.1422	0.9113	0.047
Mof_C 	C 	0.4528	0.1651	0.874	-0.048
Mof_H 	H 	0.42	0.2015	0.8707	0.047
Mof_C 	C 	0.43521	0.1903	0.81458	-0.016
Mof_H 	H 	0.3919	0.1813	0.823	0.049
Mof_C 	C 	0.43531	0.21837	0.78877	-0.08
Mof_C 	C 	0.36558	0.23038	0.77488	0.348
Mof_C 	C 	0.4407	0.0644	0.88709	-0.036
Mof_H 	H 	0.4034	0.0344	0.8921	0.035
Mof_C 	C 	0.4425	0.0964	0.86212	-0.05
Mof_H 	H 	0.4069	0.0859	0.8499	0.048
Mof_O 	O 	0.76379	0.86866	0.74707	-0.4
Mof_O 	O 	0.70713	0.81024	0.71416	-0.403
Mof_C 	C 	0.6299	0.9525	0.60106	-0.033
Mof_H 	H 	0.6422	0.9178	0.5887	0.047
Mof_C 	C 	0.6651	0.9528	0.626	-0.046
Mof_H 	H 	0.7015	0.92	0.6293	0.048
Mof_C 	C 	0.6903	0.93521	0.68542	-0.014
Mof_H 	H 	0.6813	0.8919	0.677	0.049
Mof_C 	C 	0.71837	0.93531	0.71123	-0.076
Mof_C 	C 	0.73038	0.86558	0.72512	0.347
Mof_C 	C 	0.5644	0.9407	0.61291	-0.034
Mof_H 	H 	0.5344	0.9034	0.6079	0.036
Mof_C 	C 	0.5964	0.9425	0.63788	-0.049
Mof_H 	H 	0.5859	0.9069	0.6501	0.048
Mof_O 	O 	0.26379	0.36866	0.24707	-0.401
Mof_O 	O 	0.20713	0.31024	0.21416	-0.404
Mof_C 	C 	0.1299	0.4525	0.10106	-0.037
Mof_H 	H 	0.1422	0.4178	0.0887	0.047
Mof_C 	C 	0.1651	0.4528	0.126	-0.048
Mof_H 	H 	0.2015	0.42	0.1293	0.047
Mof_C 	C 	0.1903	0.43521	0.18542	-0.016
Mof_H 	H 	0.1813	0.3919	0.177	0.049
Mof_C 	C 	0.21837	0.43531	0.21123	-0.08
Mof_C 	C 	0.23038	0.36558	0.22512	0.348
Mof_C 	C 	0.0644	0.4407	0.11291	-0.036
Mof_H 	H 	0.0344	0.4034	0.1079	0.035
Mof_C 	C 	0.0964	0.4425	0.13788	-0.05
Mof_H 	H 	0.0859	0.4069	0.1501	0.048
Mof_O 	O 	0.23621	0.13134	0.74707	-0.402
Mof_O 	O 	0.29287	0.18976	0.71416	-0.403
Mof_C 	C 	0.3701	0.0475	0.60106	-0.037
Mof_H 	H 	0.3578	0.0822	0.5887	0.047
Mof_C 	C 	0.3349	0.0472	0.626	-0.049
Mof_H 	H 	0.2985	0.08	0.6293	0.047
Mof_C 	C 	0.3097	0.06479	0.68542	-0.017
Mof_H 	H 	0.3187	0.1081	0.677	0.049
Mof_C 	C 	0.28163	0.06469	0.71123	-0.079
Mof_C 	C 	0.26962	0.13442	0.72512	0.347
Mof_C 	C 	0.4356	0.0593	0.61291	-0.035
Mof_H 	H 	0.4656	0.0966	0.6079	0.036
Mof_C 	C 	0.4036	0.0575	0.63788	-0.05
Mof_H 	H 	0.4141	0.0931	0.6501	0.048
Mof_O 	O 	0.73621	0.63134	0.24707	-0.401
Mof_O 	O 	0.79287	0.68976	0.21416	-0.403
Mof_C 	C 	0.8701	0.5475	0.10106	-0.037
Mof_H 	H 	0.8578	0.5822	0.0887	0.047
Mof_C 	C 	0.8349	0.5472	0.126	-0.049
Mof_H 	H 	0.7985	0.58	0.1293	0.048
Mof_C 	C 	0.8097	0.56479	0.18542	-0.016
Mof_H 	H 	0.8187	0.6081	0.177	0.049
Mof_C 	C 	0.78163	0.56469	0.21123	-0.079
Mof_C 	C 	0.76962	0.63442	0.22512	0.348
Mof_C 	C 	0.9356	0.5593	0.11291	-0.035
Mof_H 	H 	0.9656	0.5966	0.1079	0.038
Mof_C 	C 	0.9036	0.5575	0.13788	-0.05
Mof_H 	H 	0.9141	0.5931	0.1501	0.049
Mof_O 	O 	0.86866	0.23621	0.74707	-0.4
Mof_O 	O 	0.81024	0.29287	0.71416	-0.403
Mof_C 	C 	0.9525	0.3701	0.60106	-0.034
Mof_H 	H 	0.9178	0.3578	0.5887	0.047
Mof_C 	C 	0.9528	0.3349	0.626	-0.046
Mof_H 	H 	0.92	0.2985	0.6293	0.047
Mof_C 	C 	0.93521	0.3097	0.68542	-0.014
Mof_H 	H 	0.8919	0.3187	0.677	0.049
Mof_C 	C 	0.93531	0.28163	0.71123	-0.076
Mof_C 	C 	0.86558	0.26962	0.72512	0.347
Mof_C 	C 	0.9407	0.4356	0.61291	-0.034
Mof_H 	H 	0.9034	0.4656	0.6079	0.036
Mof_C 	C 	0.9425	0.4036	0.63788	-0.049
Mof_H 	H 	0.9069	0.4141	0.6501	0.048
Mof_O 	O 	0.36866	0.73621	0.24707	-0.401
Mof_O 	O 	0.31024	0.79287	0.21416	-0.403
Mof_C 	C 	0.4525	0.8701	0.10106	-0.036
Mof_H 	H 	0.4178	0.8578	0.0887	0.047
Mof_C 	C 	0.4528	0.8349	0.126	-0.049
Mof_H 	H 	0.42	0.7985	0.1293	0.048
Mof_C 	C 	0.43521	0.8097	0.18542	-0.016
Mof_H 	H 	0.3919	0.8187	0.177	0.049
Mof_C 	C 	0.43531	0.78163	0.21123	-0.079
Mof_C 	C 	0.36558	0.76962	0.22512	0.348
Mof_C 	C 	0.4407	0.9356	0.11291	-0.035
Mof_H 	H 	0.4034	0.9656	0.1079	0.037
Mof_C 	C 	0.4425	0.9036	0.13788	-0.05
Mof_H 	H 	0.4069	0.9141	0.1501	0.049
Mof_O 	O 	0.13134	0.76379	0.74707	-0.401
Mof_O 	O 	0.18976	0.70713	0.71416	-0.403
Mof_C 	C 	0.0475	0.6299	0.60106	-0.037
Mof_H 	H 	0.0822	0.6422	0.5887	0.047
Mof_C 	C 	0.0472	0.6651	0.626	-0.049
Mof_H 	H 	0.08	0.7015	0.6293	0.048
Mof_C 	C 	0.06479	0.6903	0.68542	-0.017
Mof_H 	H 	0.1081	0.6813	0.677	0.049
Mof_C 	C 	0.06469	0.71837	0.71123	-0.078
Mof_C 	C 	0.13442	0.73038	0.72512	0.347
Mof_C 	C 	0.0593	0.5644	0.61291	-0.035
Mof_H 	H 	0.0966	0.5344	0.6079	0.036
Mof_C 	C 	0.0575	0.5964	0.63788	-0.05
Mof_H 	H 	0.0931	0.5859	0.6501	0.048
Mof_O 	O 	0.63134	0.26379	0.24707	-0.401
Mof_O 	O 	0.68976	0.20713	0.21416	-0.403
Mof_C 	C 	0.5475	0.1299	0.10106	-0.037
Mof_H 	H 	0.5822	0.1422	0.0887	0.047
Mof_C 	C 	0.5472	0.1651	0.126	-0.048
Mof_H 	H 	0.58	0.2015	0.1293	0.047
Mof_C 	C 	0.56479	0.1903	0.18542	-0.016
Mof_H 	H 	0.6081	0.1813	0.177	0.049
Mof_C 	C 	0.56469	0.21837	0.21123	-0.08
Mof_C 	C 	0.63442	0.23038	0.22512	0.348
Mof_C 	C 	0.5593	0.0644	0.11291	-0.036
Mof_H 	H 	0.5966	0.0344	0.1079	0.035
Mof_C 	C 	0.5575	0.0964	0.13788	-0.05
Mof_H 	H 	0.5931	0.0859	0.1501	0.048
Mof_Cu	Cu	0.71514	0.28486	0.73083	0.901
Mof_Cu	Cu	0.21514	0.78486	0.23083	0.901
Mof_Cu	Cu	0.28486	0.71514	0.73083	0.901
Mof_Cu	Cu	0.78486	0.21514	0.23083	0.901
Mof_Cu	Cu	0.71514	0.71514	0.73083	0.901
Mof_Cu	Cu	0.21514	0.21514	0.23083	0.901
Mof_Cu	Cu	0.28486	0.28486	0.73083	0.901
Mof_Cu	Cu	0.78486	0.78486	0.23083	0.902
Mof_Cu	Cu	0.28486	0.28486	0.26917	0.901
Mof_Cu	Cu	0.78486	0.78486	0.76917	0.902
Mof_Cu	Cu	0.71514	0.71514	0.26917	0.901
Mof_Cu	Cu	0.21514	0.21514	0.76917	0.901
Mof_Cu	Cu	0.28486	0.71514	0.26917	0.901
Mof_Cu	Cu	0.78486	0.21514	0.76917	0.901
Mof_Cu	Cu	0.71514	0.28486	0.26917	0.901
Mof_Cu	Cu	0.21514	0.78486	0.76917	0.901
Mof_N 	N 	0.5758	2.28357e-32	0.54741	-0.12
Mof_C 	C 	0.5379	0	0.52409	0.066
Mof_C 	C 	0.5381	0	0.56953	0.026
Mof_C 	C 	0.5802	1.14179e-32	0.59505	0.024
Mof_C 	C 	0.6464	0	0.64487	0.044
Mof_C 	C 	0.6758	0	0.67225	-0.02
Mof_C 	C 	0.7328	0	0.72369	0.018
Mof_H 	H 	0.7524	2.28357e-32	0.7406	0.053
Mof_N 	N 	0.0758	0.5	0.04741	-0.119
Mof_C 	C 	0.0379	0.5	0.02409	0.061
Mof_C 	C 	0.0381	0.5	0.06953	0.021
Mof_C 	C 	0.0802	0.5	0.09505	0.03
Mof_C 	C 	0.1464	0.5	0.14487	0.047
Mof_C 	C 	0.1758	0.5	0.17225	-0.018
Mof_C 	C 	0.2328	0.5	0.22369	0.023
Mof_H 	H 	0.2524	0.5	0.2406	0.052
Mof_N 	N 	0.4242	2.28357e-32	0.54741	-0.121
Mof_C 	C 	0.4621	0	0.52409	0.066
Mof_C 	C 	0.4619	0	0.56953	0.026
Mof_C 	C 	0.4198	1.14179e-32	0.59505	0.024
Mof_C 	C 	0.3536	0	0.64487	0.044
Mof_C 	C 	0.3242	0	0.67225	-0.02
Mof_C 	C 	0.2672	0	0.72369	0.018
Mof_H 	H 	0.2476	2.28357e-32	0.7406	0.053
Mof_N 	N 	0.9242	0.5	0.04741	-0.121
Mof_C 	C 	0.9621	0.5	0.02409	0.072
Mof_C 	C 	0.9619	0.5	0.06953	0.03
Mof_C 	C 	0.9198	0.5	0.09505	0.028
Mof_C 	C 	0.8536	0.5	0.14487	0.048
Mof_C 	C 	0.8242	0.5	0.17225	-0.018
Mof_C 	C 	0.7672	0.5	0.22369	0.023
Mof_H 	H 	0.7476	0.5	0.2406	0.053
Mof_N 	N 	5.56205e-33	0.5758	0.54741	-0.12
Mof_C 	C 	-6.09276e-33	0.5379	0.52409	0.066
Mof_C 	C 	-1.70489e-32	0.5381	0.56953	0.026
Mof_C 	C 	1.7464e-32	0.5802	0.59505	0.024
Mof_C 	C 	-1.62834e-32	0.6464	0.64487	0.044
Mof_C 	C 	-1.60052e-32	0.6758	0.67225	-0.02
Mof_C 	C 	7.35317e-33	0.7328	0.72369	0.018
Mof_H 	H 	3.03607e-32	0.7524	0.7406	0.053
Mof_N 	N 	0.5	0.0758	0.04741	-0.119
Mof_C 	C 	0.5	0.0379	0.02409	0.061
Mof_C 	C 	0.5	0.0381	0.06953	0.021
Mof_C 	C 	0.5	0.0802	0.09505	0.03
Mof_C 	C 	0.5	0.1464	0.14487	0.047
Mof_C 	C 	0.5	0.1758	0.17225	-0.018
Mof_C 	C 	0.5	0.2328	0.22369	0.023
Mof_H 	H 	0.5	0.2524	0.2406	0.052
Mof_N 	N 	2.83978e-32	0.4242	0.54741	-0.121
Mof_C 	C 	-6.09276e-33	0.4621	0.52409	0.066
Mof_C 	C 	-1.70489e-32	0.4619	0.56953	0.026
Mof_C 	C 	1.7464e-32	0.4198	0.59505	0.024
Mof_C 	C 	6.55231e-33	0.3536	0.64487	0.044
Mof_C 	C 	6.8305e-33	0.3242	0.67225	-0.02
Mof_C 	C 	7.35317e-33	0.2672	0.72369	0.018
Mof_H 	H 	7.52499e-33	0.2476	0.7406	0.053
Mof_N 	N 	0.5	0.9242	0.04741	-0.121
Mof_C 	C 	0.5	0.9621	0.02409	0.072
Mof_C 	C 	0.5	0.9619	0.06953	0.03
Mof_C 	C 	0.5	0.9198	0.09505	0.028
Mof_C 	C 	0.5	0.8536	0.14487	0.048
Mof_C 	C 	0.5	0.8242	0.17225	-0.018
Mof_C 	C 	0.5	0.7672	0.22369	0.023
Mof_H 	H 	0.5	0.7476	0.2406	0.053
Mof_N 	N 	0.4242	0	0.45259	-0.121
Mof_C 	C 	0.4621	2.28357e-32	0.47591	0.066
Mof_C 	C 	0.4619	0	0.43047	0.026
Mof_C 	C 	0.4198	0	0.40495	0.024
Mof_C 	C 	0.3536	0	0.35513	0.044
Mof_C 	C 	0.3242	0	0.32775	-0.02
Mof_C 	C 	0.2672	5.70893e-33	0.27631	0.018
Mof_H 	H 	0.2476	0	0.2594	0.053
Mof_N 	N 	0.9242	0.5	0.95259	-0.121
Mof_C 	C 	0.9621	0.5	0.97591	0.072
Mof_C 	C 	0.9619	0.5	0.93047	0.03
Mof_C 	C 	0.9198	0.5	0.90495	0.028
Mof_C 	C 	0.8536	0.5	0.85513	0.048
Mof_C 	C 	0.8242	0.5	0.82775	-0.018
Mof_C 	C 	0.7672	0.5	0.77631	0.023
Mof_H 	H 	0.7476	0.5	0.7594	0.053
Mof_N 	N 	0.5758	0	0.45259	-0.12
Mof_C 	C 	0.5379	2.28357e-32	0.47591	0.066
Mof_C 	C 	0.5381	0	0.43047	0.026
Mof_C 	C 	0.5802	0	0.40495	0.024
Mof_C 	C 	0.6464	0	0.35513	0.044
Mof_C 	C 	0.6758	0	0.32775	-0.02
Mof_C 	C 	0.7328	5.70893e-33	0.27631	0.018
Mof_H 	H 	0.7524	0	0.2594	0.053
Mof_N 	N 	0.0758	0.5	0.95259	-0.119
Mof_C 	C 	0.0379	0.5	0.97591	0.061
Mof_C 	C 	0.0381	0.5	0.93047	0.021
Mof_C 	C 	0.0802	0.5	0.90495	0.03
Mof_C 	C 	0.1464	0.5	0.85513	0.047
Mof_C 	C 	0.1758	0.5	0.82775	-0.018
Mof_C 	C 	0.2328	0.5	0.77631	0.023
Mof_H 	H 	0.2524	0.5	0.7594	0.052
Mof_N 	N 	-2.9655e-32	0.5758	0.45259	-0.12
Mof_C 	C 	2.76713e-32	0.5379	0.47591	0.066
Mof_C 	C 	-7.044e-33	0.5381	0.43047	0.026
Mof_C 	C 	1.55324e-32	0.5802	0.40495	0.024
Mof_C 	C 	-1.92274e-32	0.6464	0.35513	0.044
Mof_C 	C 	3.33016e-33	0.6758	0.32775	-0.02
Mof_C 	C 	-2.90144e-33	0.7328	0.27631	0.018
Mof_H 	H 	8.34461e-33	0.7524	0.2594	0.053
Mof_N 	N 	0.5	0.0758	0.95259	-0.119
Mof_C 	C 	0.5	0.0379	0.97591	0.061
Mof_C 	C 	0.5	0.0381	0.93047	0.021
Mof_C 	C 	0.5	0.0802	0.90495	0.03
Mof_C 	C 	0.5	0.1464	0.85513	0.047
Mof_C 	C 	0.5	0.1758	0.82775	-0.018
Mof_C 	C 	0.5	0.2328	0.77631	0.023
Mof_H 	H 	0.5	0.2524	0.7594	0.052
Mof_N 	N 	-6.81925e-33	0.4242	0.45259	-0.121
Mof_C 	C 	4.83556e-33	0.4621	0.47591	0.066
Mof_C 	C 	-7.044e-33	0.4619	0.43047	0.026
Mof_C 	C 	-7.3033e-33	0.4198	0.40495	0.024
Mof_C 	C 	3.60836e-33	0.3536	0.35513	0.044
Mof_C 	C 	3.33016e-33	0.3242	0.32775	-0.02
Mof_C 	C 	2.80749e-33	0.2672	0.27631	0.018
Mof_H 	H 	-3.07325e-33	0.2476	0.2594	0.053
Mof_N 	N 	0.5	0.9242	0.95259	-0.121
Mof_C 	C 	0.5	0.9621	0.97591	0.072
Mof_C 	C 	0.5	0.9619	0.93047	0.03
Mof_C 	C 	0.5	0.9198	0.90495	0.028
Mof_C 	C 	0.5	0.8536	0.85513	0.048
Mof_C 	C 	0.5	0.8242	0.82775	-0.018
Mof_C 	C 	0.5	0.7672	0.77631	0.023
Mof_H 	H 	0.5	0.7476	0.7594	0.053
Mof_C 	C 	0.576	1.14179e-32	0.5	-0.124
Mof_H 	H 	0.6257	1.14179e-32	0.5	0.088
Mof_C 	C 	0.076	0.5	-0	-0.12
Mof_H 	H 	0.1257	0.5	-0	0.087
Mof_C 	C 	0.424	1.14179e-32	0.5	-0.124
Mof_H 	H 	0.3743	1.14179e-32	0.5	0.088
Mof_C 	C 	0.924	0.5	-0	-0.127
Mof_H 	H 	0.8743	0.5	-0	0.09
Mof_C 	C 	5.08033e-33	0.576	0.5	-0.124
Mof_H 	H 	1.64982e-32	0.6257	0.5	0.088
Mof_C 	C 	0.5	0.076	-0	-0.12
Mof_H 	H 	0.5	0.1257	-0	0.087
Mof_C 	C 	5.08033e-33	0.424	0.5	-0.124
Mof_H 	H 	-6.33753e-33	0.3743	0.5	0.088
Mof_C 	C 	0.5	0.924	-0	-0.127
Mof_H 	H 	0.5	0.8743	-0	0.09
_end
