# CIF file generated by openbabel 3.1.0, see https://openbabel.org
data_I
_chemical_name_common 'QOZPIG_clean'
_cell_length_a 9.376
_cell_length_b 14.919
_cell_length_c 19.138
_cell_angle_alpha 90
_cell_angle_beta 90
_cell_angle_gamma 90
_space_group_name_H-M_alt 'P 1'
_space_group_name_Hall 'P 1'
loop_
    _symmetry_equiv_pos_as_xyz
    x,y,z
loop_
    _atom_site_label
    _atom_site_type_symbol
    _atom_site_fract_x
    _atom_site_fract_y
    _atom_site_fract_z
    _atom_site_occupancy
    Cd1      Cd       0.69059    0.50000    0.25000    1.000
    Cd2      Cd       0.30941    0.50000    0.75000    1.000
    Cd3      Cd       0.80941    0.00000    0.75000    1.000
    Cd4      Cd       0.19059    0.00000    0.25000    1.000
    H1       H        0.88200    0.28720    0.23360    1.000
    H2       H        0.90320    0.71700    0.43700    1.000
    H3       H        0.09680    0.71700    0.93700    1.000
    H4       H        0.60120    0.37470    0.10920    1.000
    H5       H        0.39880    0.62530    0.89080    1.000
    H6       H        0.89880    0.12530    0.60920    1.000
    H7       H        0.17230    0.39150    0.97590    1.000
    H8       H        0.61800    0.78720    0.76640    1.000
    H9       H        0.59680    0.78300    0.93700    1.000
    H10      H        0.40320    0.78300    0.43700    1.000
    H11      H        0.11800    0.71280    0.76640    1.000
    H12      H        0.17230    0.60850    0.52410    1.000
    H13      H        0.88200    0.71280    0.26640    1.000
    H14      H        0.67230    0.89150    0.52410    1.000
    H15      H        0.11800    0.28720    0.73360    1.000
    H16      H        0.89880    0.87470    0.89080    1.000
    H17      H        0.38200    0.78720    0.26640    1.000
    H18      H        0.32770    0.89150    0.02410    1.000
    H19      H        0.90320    0.28300    0.06300    1.000
    H20      H        0.59680    0.21700    0.56300    1.000
    H21      H        0.61800    0.21280    0.73360    1.000
    H22      H        0.38200    0.21280    0.23360    1.000
    H23      H        0.60120    0.62530    0.39080    1.000
    H24      H        0.09680    0.28300    0.56300    1.000
    H25      H        0.67230    0.10850    0.97590    1.000
    H26      H        0.10120    0.87470    0.39080    1.000
    H27      H        0.39880    0.37470    0.60920    1.000
    H28      H        0.82770    0.39150    0.47590    1.000
    H29      H        0.82770    0.60850    0.02410    1.000
    H30      H        0.40320    0.21700    0.06300    1.000
    H31      H        0.10120    0.12530    0.10920    1.000
    H32      H        0.32770    0.10850    0.47590    1.000
    C1       C        0.94460    0.15010    0.64910    1.000
    C2       C        0.60190    0.93560    0.51440    1.000
    C3       C        0.92460    0.49720    0.06280    1.000
    C4       C        0.02710    0.43210    0.04770    1.000
    C5       C        0.93600    0.76240    0.28280    1.000
    C6       C        0.60190    0.06440    0.98560    1.000
    C7       C        0.93730    0.64240    0.90230    1.000
    C8       C        0.43600    0.26240    0.21720    1.000
    C9       C        0.56270    0.14240    0.09770    1.000
    C10      C        0.34310    0.00180    0.13090    1.000
    C11      C        0.97290    0.56790    0.95230    1.000
    C12      C        0.06400    0.23760    0.71720    1.000
    C13      C        0.05540    0.15010    0.14910    1.000
    C14      C        0.52710    0.06790    0.04770    1.000
    C15      C        0.93730    0.35760    0.59770    1.000
    C16      C        0.39810    0.06440    0.48560    1.000
    C17      C        0.65690    0.00180    0.63090    1.000
    C18      C        0.93600    0.23760    0.21720    1.000
    C19      C        0.47290    0.06790    0.54770    1.000
    C20      C        0.34310    0.99820    0.36910    1.000
    C21      C        0.39810    0.93560    0.01440    1.000
    C22      C        0.97290    0.43210    0.54770    1.000
    C23      C        0.55540    0.34990    0.14910    1.000
    C24      C        0.43730    0.14240    0.59770    1.000
    C25      C        0.02710    0.56790    0.45230    1.000
    C26      C        0.89810    0.56440    0.01440    1.000
    C27      C        0.56270    0.85760    0.40230    1.000
    C28      C        0.47290    0.93210    0.95230    1.000
    C29      C        0.56400    0.26240    0.71720    1.000
    C30      C        0.65690    0.99820    0.86910    1.000
    C31      C        0.15690    0.49820    0.63090    1.000
    C32      C        0.44460    0.65010    0.85090    1.000
    C33      C        0.43730    0.85760    0.90230    1.000
    C34      C        0.10190    0.43560    0.98560    1.000
    C35      C        0.92460    0.50280    0.43720    1.000
    C36      C        0.57540    0.99720    0.93720    1.000
    C37      C        0.52710    0.93210    0.45230    1.000
    C38      C        0.94460    0.84990    0.85090    1.000
    C39      C        0.42460    0.99720    0.43720    1.000
    C40      C        0.89810    0.43560    0.48560    1.000
    C41      C        0.57540    0.00280    0.56280    1.000
    C42      C        0.07540    0.49720    0.56280    1.000
    C43      C        0.06400    0.76240    0.78280    1.000
    C44      C        0.44460    0.34990    0.64910    1.000
    C45      C        0.06270    0.64240    0.40230    1.000
    C46      C        0.07540    0.50280    0.93720    1.000
    C47      C        0.43600    0.73760    0.28280    1.000
    C48      C        0.42460    0.00280    0.06280    1.000
    C49      C        0.15690    0.50180    0.86910    1.000
    C50      C        0.55540    0.65010    0.35090    1.000
    C51      C        0.06270    0.35760    0.09770    1.000
    C52      C        0.10190    0.56440    0.51440    1.000
    C53      C        0.05540    0.84990    0.35090    1.000
    C54      C        0.56400    0.73760    0.78280    1.000
    C55      C        0.84310    0.49820    0.13090    1.000
    C56      C        0.84310    0.50180    0.36910    1.000
    N1       N        0.97880    0.17110    0.25590    1.000
    N2       N        0.03220    0.28810    0.59610    1.000
    N3       N        0.96780    0.28810    0.09610    1.000
    N4       N        0.52060    0.72620    0.84990    1.000
    N5       N        0.47880    0.67110    0.24410    1.000
    N6       N        0.47940    0.72620    0.34990    1.000
    N7       N        0.55610    0.61560    0.28820    1.000
    N8       N        0.46780    0.78810    0.40390    1.000
    N9       N        0.97940    0.77380    0.34990    1.000
    N10      N        0.47880    0.32890    0.25590    1.000
    N11      N        0.94390    0.88440    0.78820    1.000
    N12      N        0.02120    0.17110    0.75590    1.000
    N13      N        0.44390    0.61560    0.78820    1.000
    N14      N        0.96780    0.71190    0.40390    1.000
    N15      N        0.52120    0.67110    0.74410    1.000
    N16      N        0.05610    0.88440    0.28820    1.000
    N17      N        0.53220    0.21190    0.59610    1.000
    N18      N        0.02120    0.82890    0.74410    1.000
    N19      N        0.55610    0.38440    0.21180    1.000
    N20      N        0.05610    0.11560    0.21180    1.000
    N21      N        0.94390    0.11560    0.71180    1.000
    N22      N        0.52060    0.27380    0.65010    1.000
    N23      N        0.97880    0.82890    0.24410    1.000
    N24      N        0.97940    0.22620    0.15010    1.000
    N25      N        0.44390    0.38440    0.71180    1.000
    N26      N        0.46780    0.21190    0.09610    1.000
    N27      N        0.53220    0.78810    0.90390    1.000
    N28      N        0.02060    0.77380    0.84990    1.000
    N29      N        0.03220    0.71190    0.90390    1.000
    N30      N        0.02060    0.22620    0.65010    1.000
    N31      N        0.52120    0.32890    0.75590    1.000
    N32      N        0.47940    0.27380    0.15010    1.000
    O1       O        0.67120    0.14440    0.13280    1.000
    O2       O        0.62430    0.05840    0.67700    1.000
    O3       O        0.67120    0.85560    0.36720    1.000
    O4       O        0.12430    0.44160    0.67700    1.000
    O5       O        0.74500    0.55440    0.13930    1.000
    O6       O        0.37570    0.94160    0.32300    1.000
    O7       O        0.37570    0.05840    0.17700    1.000
    O8       O        0.82880    0.64440    0.86720    1.000
    O9       O        0.87570    0.44160    0.17700    1.000
    O10      O        0.87570    0.55840    0.32300    1.000
    O11      O        0.62430    0.94160    0.82300    1.000
    O12      O        0.17120    0.35560    0.13280    1.000
    O13      O        0.17120    0.64440    0.36720    1.000
    O14      O        0.24500    0.94560    0.13930    1.000
    O15      O        0.82880    0.35560    0.63280    1.000
    O16      O        0.25500    0.44560    0.86070    1.000
    O17      O        0.75500    0.05440    0.86070    1.000
    O18      O        0.32880    0.85560    0.86720    1.000
    O19      O        0.25500    0.55440    0.63930    1.000
    O20      O        0.24500    0.05440    0.36070    1.000
    O21      O        0.12430    0.55840    0.82300    1.000
    O22      O        0.74500    0.44560    0.36070    1.000
    O23      O        0.32880    0.14440    0.63280    1.000
    O24      O        0.75500    0.94560    0.63930    1.000
