# CIF file generated by openbabel 3.1.0, see https://openbabel.org
data_I
_chemical_name_common 'LUFNAC04_clean'
_cell_length_a 11.887
_cell_length_b 11.887
_cell_length_c 16.355
_cell_angle_alpha 73.3759
_cell_angle_beta 73.3759
_cell_angle_gamma 78.4194
_space_group_name_H-M_alt 'P 1'
_space_group_name_Hall 'P 1'
loop_
    _symmetry_equiv_pos_as_xyz
    x,y,z
loop_
    _atom_site_label
    _atom_site_type_symbol
    _atom_site_fract_x
    _atom_site_fract_y
    _atom_site_fract_z
    _atom_site_occupancy
    Mn1      Mn       0.83243    0.61587    0.54667    1.000
    Mn2      Mn       0.38413    0.16757    0.95333    1.000
    Mn3      Mn       0.16757    0.38413    0.45333    1.000
    Mn4      Mn       0.61587    0.83243    0.04667    1.000
    H1       H        0.16660    0.45260    0.03720    1.000
    H2       H        0.81350    0.66330    0.27450    1.000
    H3       H        0.14280    0.48600    0.24540    1.000
    H4       H        0.97990    0.57390    0.04660    1.000
    H5       H        0.32820    0.36080    0.07810    1.000
    H6       H        0.26690    0.37810    0.17290    1.000
    H7       H        0.29380    0.63620    0.00300    1.000
    H8       H        0.45870    0.42390    0.18030    1.000
    H9       H        0.57700    0.56620    0.15240    1.000
    H10      H        0.41420    0.77360    0.98180    1.000
    H11      H        0.54740    0.83340    0.46280    1.000
    H12      H        0.33670    0.18650    0.22550    1.000
    H13      H        0.51400    0.85720    0.25460    1.000
    H14      H        0.42610    0.02010    0.45340    1.000
    H15      H        0.63920    0.67180    0.42190    1.000
    H16      H        0.62190    0.73310    0.32710    1.000
    H17      H        0.36380    0.70620    0.49700    1.000
    H18      H        0.57610    0.54130    0.31970    1.000
    H19      H        0.43380    0.42300    0.34760    1.000
    H20      H        0.22640    0.58580    0.51820    1.000
    H21      H        0.83340    0.54740    0.96280    1.000
    H22      H        0.18650    0.33670    0.72550    1.000
    H23      H        0.85720    0.51400    0.75460    1.000
    H24      H        0.02010    0.42610    0.95340    1.000
    H25      H        0.67180    0.63920    0.92190    1.000
    H26      H        0.73310    0.62190    0.82710    1.000
    H27      H        0.70620    0.36380    0.99700    1.000
    H28      H        0.54130    0.57610    0.81970    1.000
    H29      H        0.42300    0.43380    0.84760    1.000
    H30      H        0.58580    0.22640    0.01820    1.000
    H31      H        0.45260    0.16660    0.53720    1.000
    H32      H        0.66330    0.81350    0.77450    1.000
    H33      H        0.48600    0.14280    0.74540    1.000
    H34      H        0.57390    0.97990    0.54660    1.000
    H35      H        0.36080    0.32820    0.57810    1.000
    H36      H        0.37810    0.26690    0.67290    1.000
    H37      H        0.63620    0.29380    0.50300    1.000
    H38      H        0.42390    0.45870    0.68030    1.000
    H39      H        0.56620    0.57700    0.65240    1.000
    H40      H        0.77360    0.41420    0.48180    1.000
    C1       C        0.97680    0.57320    0.27380    1.000
    C2       C        0.07840    0.51800    0.13760    1.000
    C3       C        0.77780    0.68920    0.11670    1.000
    C4       C        0.87950    0.62690    0.24030    1.000
    C5       C        0.88100    0.62600    0.15520    1.000
    C6       C        0.07710    0.51990    0.22270    1.000
    C7       C        0.97670    0.57310    0.36650    1.000
    C8       C        0.97930    0.57310    0.10380    1.000
    C9       C        0.35990    0.51210    0.09620    1.000
    C10      C        0.28380    0.41860    0.11100    1.000
    C11      C        0.35010    0.61970    0.03570    1.000
    C12      C        0.44670    0.49490    0.13940    1.000
    C13      C        0.51710    0.58230    0.12290    1.000
    C14      C        0.42270    0.70250    0.02350    1.000
    C15      C        0.42680    0.02320    0.22620    1.000
    C16      C        0.48200    0.92160    0.36240    1.000
    C17      C        0.31080    0.22220    0.38330    1.000
    C18      C        0.37310    0.12050    0.25970    1.000
    C19      C        0.37400    0.11900    0.34480    1.000
    C20      C        0.48010    0.92290    0.27730    1.000
    C21      C        0.42690    0.02330    0.13350    1.000
    C22      C        0.42690    0.02070    0.39620    1.000
    C23      C        0.48790    0.64010    0.40380    1.000
    C24      C        0.58140    0.71620    0.38900    1.000
    C25      C        0.38030    0.64990    0.46430    1.000
    C26      C        0.50510    0.55330    0.36060    1.000
    C27      C        0.41770    0.48290    0.37710    1.000
    C28      C        0.29750    0.57730    0.47650    1.000
    C29      C        0.02320    0.42680    0.72620    1.000
    C30      C        0.92160    0.48200    0.86240    1.000
    C31      C        0.22220    0.31080    0.88330    1.000
    C32      C        0.12050    0.37310    0.75970    1.000
    C33      C        0.11900    0.37400    0.84480    1.000
    C34      C        0.92290    0.48010    0.77730    1.000
    C35      C        0.02330    0.42690    0.63350    1.000
    C36      C        0.02070    0.42690    0.89620    1.000
    C37      C        0.64010    0.48790    0.90380    1.000
    C38      C        0.71620    0.58140    0.88900    1.000
    C39      C        0.64990    0.38030    0.96430    1.000
    C40      C        0.55330    0.50510    0.86060    1.000
    C41      C        0.48290    0.41770    0.87710    1.000
    C42      C        0.57730    0.29750    0.97650    1.000
    C43      C        0.57320    0.97680    0.77380    1.000
    C44      C        0.51800    0.07840    0.63760    1.000
    C45      C        0.68920    0.77780    0.61670    1.000
    C46      C        0.62690    0.87950    0.74030    1.000
    C47      C        0.62600    0.88100    0.65520    1.000
    C48      C        0.51990    0.07710    0.72270    1.000
    C49      C        0.57310    0.97670    0.86650    1.000
    C50      C        0.57310    0.97930    0.60380    1.000
    C51      C        0.51210    0.35990    0.59620    1.000
    C52      C        0.41860    0.28380    0.61100    1.000
    C53      C        0.61970    0.35010    0.53570    1.000
    C54      C        0.49490    0.44670    0.63940    1.000
    C55      C        0.58230    0.51710    0.62290    1.000
    C56      C        0.70250    0.42270    0.52350    1.000
    N1       N        0.17360    0.46180    0.08580    1.000
    N2       N        0.50530    0.68650    0.06830    1.000
    N3       N        0.53820    0.82640    0.41420    1.000
    N4       N        0.31350    0.49470    0.43170    1.000
    N5       N        0.82640    0.53820    0.91420    1.000
    N6       N        0.49470    0.31350    0.93170    1.000
    N7       N        0.46180    0.17360    0.58580    1.000
    N8       N        0.68650    0.50530    0.56830    1.000
    O1       O        0.68900    0.73740    0.16380    1.000
    O2       O        0.78490    0.69610    0.03630    1.000
    O3       O        0.06910    0.53670    0.39210    1.000
    O4       O        0.87960    0.61340    0.41240    1.000
    O5       O        0.26260    0.31100    0.33620    1.000
    O6       O        0.30390    0.21510    0.46370    1.000
    O7       O        0.46330    0.93090    0.10790    1.000
    O8       O        0.38660    0.12040    0.08760    1.000
    O9       O        0.31100    0.26260    0.83620    1.000
    O10      O        0.21510    0.30390    0.96370    1.000
    O11      O        0.93090    0.46330    0.60790    1.000
    O12      O        0.12040    0.38660    0.58760    1.000
    O13      O        0.73740    0.68900    0.66380    1.000
    O14      O        0.69610    0.78490    0.53630    1.000
    O15      O        0.53670    0.06910    0.89210    1.000
    O16      O        0.61340    0.87960    0.91240    1.000
