# CIF file generated by openbabel 3.1.0, see https://openbabel.org
data_I
_chemical_name_common 'image0'
_cell_length_a 11.34
_cell_length_b 15.77
_cell_length_c 22.9
_cell_angle_alpha 90
_cell_angle_beta 97.98
_cell_angle_gamma 90
_space_group_name_H-M_alt 'P 1'
_space_group_name_Hall 'P 1'
loop_
    _symmetry_equiv_pos_as_xyz
    x,y,z
loop_
    _atom_site_label
    _atom_site_type_symbol
    _atom_site_fract_x
    _atom_site_fract_y
    _atom_site_fract_z
    _atom_site_occupancy
    Cu1      Cu       0.38700    0.75661    0.72854    1.000
    N1       N        0.26610    0.67360    0.68880    1.000
    N2       N        0.17620    0.55060    0.66760    1.000
    N3       N        0.10820    0.61300    0.64180    1.000
    N4       N        0.48970    0.72970    0.66830    1.000
    N5       N        0.64050    0.66600    0.63180    1.000
    N6       N        0.55890    0.69520    0.58740    1.000
    N7       N        0.51750    0.83380    0.76880    1.000
    C1       C        0.56450    0.84010    0.82440    1.000
    H1       H        0.54070    0.81010    0.85580    1.000
    N8       N        0.65080    0.89630    0.82800    1.000
    N9       N        0.65730    0.92480    0.77460    1.000
    C2       C        0.57490    0.88620    0.73800    1.000
    H2       H        0.55980    0.89440    0.69740    1.000
    N10      N        0.27360    0.78880    0.78400    1.000
    C3       C        0.24170    0.86750    0.79490    1.000
    H3       H        0.27350    0.91670    0.78110    1.000
    N11      N        0.15660    0.86380    0.82910    1.000
    N12      N        0.13580    0.78270    0.83930    1.000
    C4       C        0.20810    0.73640    0.81140    1.000
    H4       H        0.21220    0.67750    0.81120    1.000
    C5       C        0.27000    0.58970    0.69510    1.000
    H5       H        0.33330    0.56140    0.71690    1.000
    C6       C        0.16300    0.68570    0.65360    1.000
    H6       H        0.13420    0.73810    0.63960    1.000
    C7       C        0.99270    0.59450    0.60700    1.000
    H7       H        0.95270    0.64780    0.59610    1.000
    H8       H        0.94440    0.56360    0.63150    1.000
    C8       C        0.99910    0.54490    0.55250    1.000
    C9       C        0.07810    0.56600    0.51290    1.000
    H9       H        0.13120    0.61070    0.52140    1.000
    C10      C        0.92250    0.47860    0.53800    1.000
    H10      H        0.86930    0.46370    0.56370    1.000
    C11      C        0.59530    0.68790    0.67920    1.000
    H11      H        0.63240    0.67590    0.71710    1.000
    C12      C        0.47210    0.73230    0.60950    1.000
    H12      H        0.40650    0.75720    0.58710    1.000
    C13      C        0.56670    0.67530    0.52600    1.000
    H13      H        0.64760    0.68460    0.51810    1.000
    H14      H        0.51460    0.71280    0.50060    1.000
    C14      C        0.53170    0.58400    0.51200    1.000
    C15      C        0.42570    0.55320    0.52330    1.000
    H15      H        0.37320    0.58860    0.53950    1.000
    C16      C        0.60530    0.53070    0.48900    1.000
    H16      H        0.67880    0.55040    0.48120    1.000
    C17      C        0.74050    0.99180    0.76130    1.000
    H17      H        0.79810    0.96830    0.73820    1.000
    H18      H        0.78330    0.01390    0.79770    1.000
    C18      C        0.67140    0.06340    0.72690    1.000
    C19      C        0.64030    0.05530    0.66650    1.000
    H19      H        0.66670    0.00860    0.64710    1.000
    C20      C        0.57100    0.11540    0.63510    1.000
    H20      H        0.54900    0.10850    0.59480    1.000
    C21      C        0.53330    0.18630    0.66290    1.000
    C22      C        0.56910    0.19590    0.72320    1.000
    H21      H        0.54790    0.24440    0.74230    1.000
    C23      C        0.63600    0.13360    0.75460    1.000
    H22      H        0.65710    0.13950    0.79510    1.000
    C24      C        0.04300    0.75320    0.87140    1.000
    H23      H        0.99330    0.80070    0.87940    1.000
    H24      H        0.07860    0.72960    0.90890    1.000
    Cu2      Cu       0.11300    0.25661    0.77146    1.000
    N13      N        0.23390    0.17360    0.81120    1.000
    N14      N        0.32380    0.05060    0.83240    1.000
    N15      N        0.39180    0.11300    0.85820    1.000
    N16      N        0.01030    0.22970    0.83170    1.000
    N17      N        0.85950    0.16600    0.86820    1.000
    N18      N        0.94110    0.19520    0.91260    1.000
    N19      N        0.98250    0.33380    0.73120    1.000
    C25      C        0.93550    0.34010    0.67560    1.000
    H25      H        0.95930    0.31010    0.64420    1.000
    N20      N        0.84920    0.39630    0.67200    1.000
    N21      N        0.84270    0.42480    0.72540    1.000
    C26      C        0.92510    0.38620    0.76200    1.000
    H26      H        0.94020    0.39440    0.80260    1.000
    N22      N        0.22640    0.28880    0.71600    1.000
    C27      C        0.25830    0.36750    0.70510    1.000
    H27      H        0.22650    0.41670    0.71890    1.000
    N23      N        0.34340    0.36380    0.67090    1.000
    N24      N        0.36420    0.28270    0.66070    1.000
    C28      C        0.29190    0.23640    0.68860    1.000
    H28      H        0.28780    0.17750    0.68880    1.000
    C29      C        0.23000    0.08970    0.80490    1.000
    H29      H        0.16670    0.06140    0.78310    1.000
    C30      C        0.33700    0.18570    0.84640    1.000
    H30      H        0.36580    0.23810    0.86040    1.000
    C31      C        0.50730    0.09450    0.89300    1.000
    H31      H        0.54730    0.14780    0.90390    1.000
    H32      H        0.55560    0.06360    0.86850    1.000
    C32      C        0.50090    0.04490    0.94750    1.000
    C33      C        0.42190    0.06600    0.98710    1.000
    H33      H        0.36880    0.11070    0.97860    1.000
    C34      C        0.57750    0.97860    0.96200    1.000
    H34      H        0.63070    0.96370    0.93630    1.000
    C35      C        0.90470    0.18790    0.82080    1.000
    H35      H        0.86760    0.17590    0.78290    1.000
    C36      C        0.02790    0.23230    0.89050    1.000
    H36      H        0.09350    0.25720    0.91290    1.000
    C37      C        0.93330    0.17530    0.97400    1.000
    H37      H        0.85240    0.18460    0.98190    1.000
    H38      H        0.98540    0.21280    0.99940    1.000
    C38      C        0.96830    0.08400    0.98800    1.000
    C39      C        0.07430    0.05320    0.97670    1.000
    H39      H        0.12680    0.08860    0.96050    1.000
    C40      C        0.89470    0.03070    0.01100    1.000
    H40      H        0.82120    0.05040    0.01880    1.000
    C41      C        0.75950    0.49180    0.73870    1.000
    H41      H        0.70190    0.46830    0.76180    1.000
    H42      H        0.71670    0.51390    0.70230    1.000
    C42      C        0.82860    0.56340    0.77310    1.000
    C43      C        0.85970    0.55530    0.83350    1.000
    H43      H        0.83330    0.50860    0.85290    1.000
    C44      C        0.92900    0.61540    0.86490    1.000
    H44      H        0.95100    0.60850    0.90520    1.000
    C45      C        0.96670    0.68630    0.83710    1.000
    C46      C        0.93090    0.69590    0.77680    1.000
    H45      H        0.95210    0.74440    0.75770    1.000
    C47      C        0.86400    0.63360    0.74540    1.000
    H46      H        0.84290    0.63950    0.70490    1.000
    C48      C        0.45700    0.25320    0.62860    1.000
    H47      H        0.50670    0.30070    0.62060    1.000
    H48      H        0.42140    0.22960    0.59110    1.000
    Cu3      Cu       0.61300    0.24339    0.27146    1.000
    N25      N        0.73390    0.32640    0.31120    1.000
    N26      N        0.82380    0.44940    0.33240    1.000
    N27      N        0.89180    0.38700    0.35820    1.000
    N28      N        0.51030    0.27030    0.33170    1.000
    N29      N        0.35950    0.33400    0.36820    1.000
    N30      N        0.44110    0.30480    0.41260    1.000
    N31      N        0.48250    0.16620    0.23120    1.000
    C49      C        0.43550    0.15990    0.17560    1.000
    H49      H        0.45930    0.18990    0.14420    1.000
    N32      N        0.34920    0.10370    0.17200    1.000
    N33      N        0.34270    0.07520    0.22540    1.000
    C50      C        0.42510    0.11380    0.26200    1.000
    H50      H        0.44020    0.10560    0.30260    1.000
    N34      N        0.72640    0.21120    0.21600    1.000
    C51      C        0.75830    0.13250    0.20510    1.000
    H51      H        0.72650    0.08330    0.21890    1.000
    N35      N        0.84340    0.13620    0.17090    1.000
    N36      N        0.86420    0.21730    0.16070    1.000
    C52      C        0.79190    0.26360    0.18860    1.000
    H52      H        0.78780    0.32250    0.18880    1.000
    C53      C        0.73000    0.41030    0.30490    1.000
    H53      H        0.66670    0.43860    0.28310    1.000
    C54      C        0.83700    0.31430    0.34640    1.000
    H54      H        0.86580    0.26190    0.36040    1.000
    C55      C        0.00730    0.40550    0.39300    1.000
    H55      H        0.04730    0.35220    0.40390    1.000
    H56      H        0.05560    0.43640    0.36850    1.000
    C56      C        0.00090    0.45510    0.44750    1.000
    C57      C        0.92190    0.43400    0.48710    1.000
    H57      H        0.86880    0.38930    0.47860    1.000
    C58      C        0.07750    0.52140    0.46200    1.000
    H58      H        0.13070    0.53630    0.43630    1.000
    C59      C        0.40470    0.31210    0.32080    1.000
    H59      H        0.36760    0.32410    0.28290    1.000
    C60      C        0.52790    0.26770    0.39050    1.000
    H60      H        0.59350    0.24280    0.41290    1.000
    C61      C        0.43330    0.32470    0.47400    1.000
    H61      H        0.35240    0.31540    0.48190    1.000
    H62      H        0.48540    0.28720    0.49940    1.000
    C62      C        0.46830    0.41600    0.48800    1.000
    C63      C        0.57430    0.44680    0.47670    1.000
    H63      H        0.62680    0.41140    0.46050    1.000
    C64      C        0.39470    0.46930    0.51100    1.000
    H64      H        0.32120    0.44960    0.51880    1.000
    C65      C        0.25950    0.00820    0.23870    1.000
    H65      H        0.20190    0.03170    0.26180    1.000
    H66      H        0.21670    0.98610    0.20230    1.000
    C66      C        0.32860    0.93660    0.27310    1.000
    C67      C        0.35970    0.94470    0.33350    1.000
    H67      H        0.33330    0.99140    0.35290    1.000
    C68      C        0.42900    0.88460    0.36490    1.000
    H68      H        0.45100    0.89150    0.40520    1.000
    C69      C        0.46670    0.81370    0.33710    1.000
    C70      C        0.43090    0.80410    0.27680    1.000
    H69      H        0.45210    0.75560    0.25770    1.000
    C71      C        0.36400    0.86640    0.24540    1.000
    H70      H        0.34290    0.86050    0.20490    1.000
    C72      C        0.95700    0.24680    0.12860    1.000
    H71      H        0.00670    0.19930    0.12060    1.000
    H72      H        0.92140    0.27040    0.09110    1.000
    Cu4      Cu       0.88700    0.74339    0.22854    1.000
    N37      N        0.76610    0.82640    0.18880    1.000
    N38      N        0.67620    0.94940    0.16760    1.000
    N39      N        0.60820    0.88700    0.14180    1.000
    N40      N        0.98970    0.77030    0.16830    1.000
    N41      N        0.14050    0.83400    0.13180    1.000
    N42      N        0.05890    0.80480    0.08740    1.000
    N43      N        0.01750    0.66620    0.26880    1.000
    C73      C        0.06450    0.65990    0.32440    1.000
    H73      H        0.04070    0.68990    0.35580    1.000
    N44      N        0.15080    0.60370    0.32800    1.000
    N45      N        0.15730    0.57520    0.27460    1.000
    C74      C        0.07490    0.61380    0.23800    1.000
    H74      H        0.05980    0.60560    0.19740    1.000
    N46      N        0.77360    0.71120    0.28400    1.000
    C75      C        0.74170    0.63250    0.29490    1.000
    H75      H        0.77350    0.58330    0.28110    1.000
    N47      N        0.65660    0.63620    0.32910    1.000
    N48      N        0.63580    0.71730    0.33930    1.000
    C76      C        0.70810    0.76360    0.31140    1.000
    H76      H        0.71220    0.82250    0.31120    1.000
    C77      C        0.77000    0.91030    0.19510    1.000
    H77      H        0.83330    0.93860    0.21690    1.000
    C78      C        0.66300    0.81430    0.15360    1.000
    H78      H        0.63420    0.76190    0.13960    1.000
    C79      C        0.49270    0.90550    0.10700    1.000
    H79      H        0.45270    0.85220    0.09610    1.000
    H80      H        0.44440    0.93640    0.13150    1.000
    C80      C        0.49910    0.95510    0.05250    1.000
    C81      C        0.57810    0.93400    0.01290    1.000
    H81      H        0.63120    0.88930    0.02140    1.000
    C82      C        0.42250    0.02140    0.03800    1.000
    H82      H        0.36930    0.03630    0.06370    1.000
    C83      C        0.09530    0.81210    0.17920    1.000
    H83      H        0.13240    0.82410    0.21710    1.000
    C84      C        0.97210    0.76770    0.10950    1.000
    H84      H        0.90650    0.74280    0.08710    1.000
    C85      C        0.06670    0.82470    0.02600    1.000
    H85      H        0.14760    0.81540    0.01810    1.000
    H86      H        0.01460    0.78720    0.00060    1.000
    C86      C        0.03170    0.91600    0.01200    1.000
    C87      C        0.92570    0.94680    0.02330    1.000
    H87      H        0.87320    0.91140    0.03950    1.000
    C88      C        0.10530    0.96930    0.98900    1.000
    H88      H        0.17880    0.94960    0.98120    1.000
    C89      C        0.24050    0.50820    0.26130    1.000
    H89      H        0.29810    0.53170    0.23820    1.000
    H90      H        0.28330    0.48610    0.29770    1.000
    C90      C        0.17140    0.43660    0.22690    1.000
    C91      C        0.14030    0.44470    0.16650    1.000
    H91      H        0.16670    0.49140    0.14710    1.000
    C92      C        0.07100    0.38460    0.13510    1.000
    H92      H        0.04900    0.39150    0.09480    1.000
    C93      C        0.03330    0.31370    0.16290    1.000
    C94      C        0.06910    0.30410    0.22320    1.000
    H93      H        0.04790    0.25560    0.24230    1.000
    C95      C        0.13600    0.36640    0.25460    1.000
    H94      H        0.15710    0.36050    0.29510    1.000
    C96      C        0.54300    0.74680    0.37140    1.000
    H95      H        0.49330    0.69930    0.37940    1.000
    H96      H        0.57860    0.77040    0.40890    1.000
