data_functionalizedCrystal
_audit_creation_method	'EQeq! by Chris Wilmer'
_symmetry_space_group_name_H-M	'P1'
_symmetry_Int_Tables_number	1
_symmetry_cell_setting	triclinic
loop_
_symmetry_equiv_pos_as_xyz
  x,y,z
_cell_length_a	7.5409
_cell_length_b	12.8501
_cell_length_c	18.865
_cell_angle_alpha	90
_cell_angle_beta	90
_cell_angle_gamma	90
loop_
_atom_site_label
_atom_site_type_symbol
_atom_site_fract_x
_atom_site_fract_y
_atom_site_fract_z
_atom_site_charge
Mof_Mn	Mn	0.23965	0.84457	0.38634	0.791
Mof_N 	N 	0.2483	0.5928	0.39493	-0.014
Mof_N 	N 	0.9535	0.866	0.26383	-0.018
Mof_N 	N 	0.2328	0.67557	0.37237	-0.126
Mof_N 	N 	0.5242	0.75074	0.48596	-0.027
Mof_N 	N 	0.4848	0.82642	0.45464	-0.115
Mof_N 	N 	0.9958	0.86998	0.32352	-0.124
Mof_N 	N 	0.2638	0.50894	0.41798	-0.124
Mof_N 	N 	0.5626	0.67515	0.51687	-0.113
Mof_N 	N 	0.9119	0.86576	0.20511	-0.129
Mof_Mn	Mn	0.26035	0.15543	0.88634	0.791
Mof_N 	N 	0.2517	0.4072	0.89493	-0.015
Mof_N 	N 	0.5465	0.134	0.76383	-0.018
Mof_N 	N 	0.2672	0.32443	0.87237	-0.126
Mof_N 	N 	0.9758	0.24926	0.98596	-0.027
Mof_N 	N 	0.0152	0.17358	0.95464	-0.115
Mof_N 	N 	0.5042	0.13002	0.82352	-0.124
Mof_N 	N 	0.2362	0.49106	0.91798	-0.124
Mof_N 	N 	0.9374	0.32485	0.01687	-0.113
Mof_N 	N 	0.5881	0.13424	0.70511	-0.129
Mof_Mn	Mn	0.76035	0.34457	0.11365	0.791
Mof_N 	N 	0.7517	0.0928	0.10507	-0.015
Mof_N 	N 	0.0465	0.366	0.23617	-0.018
Mof_N 	N 	0.7672	0.17557	0.12763	-0.126
Mof_N 	N 	0.4758	0.25074	0.01404	-0.026
Mof_N 	N 	0.5152	0.32642	0.04536	-0.115
Mof_N 	N 	0.0042	0.36998	0.17648	-0.123
Mof_N 	N 	0.7362	0.00894	0.08202	-0.124
Mof_N 	N 	0.4374	0.17515	0.98313	-0.114
Mof_N 	N 	0.0881	0.36576	0.29489	-0.129
Mof_Mn	Mn	0.73965	0.65543	0.61365	0.791
Mof_N 	N 	0.7483	0.9072	0.60507	-0.015
Mof_N 	N 	0.4535	0.634	0.73617	-0.018
Mof_N 	N 	0.7328	0.82443	0.62763	-0.126
Mof_N 	N 	0.0242	0.74926	0.51404	-0.027
Mof_N 	N 	0.9848	0.67358	0.54536	-0.115
Mof_N 	N 	0.4958	0.63002	0.67648	-0.124
Mof_N 	N 	0.7638	0.99106	0.58202	-0.124
Mof_N 	N 	0.0626	0.82485	0.48313	-0.114
Mof_N 	N 	0.4119	0.63424	0.79489	-0.129
Mof_Mn	Mn	0.76035	0.15543	0.61365	0.79
Mof_N 	N 	0.7517	0.4072	0.60507	-0.015
Mof_N 	N 	0.0465	0.134	0.73617	-0.018
Mof_N 	N 	0.7672	0.32443	0.62763	-0.126
Mof_N 	N 	0.4758	0.24926	0.51404	-0.027
Mof_N 	N 	0.5152	0.17358	0.54536	-0.115
Mof_N 	N 	0.0042	0.13002	0.67648	-0.124
Mof_N 	N 	0.7362	0.49106	0.58202	-0.124
Mof_N 	N 	0.4374	0.32485	0.48313	-0.113
Mof_N 	N 	0.0881	0.13424	0.79489	-0.129
Mof_Mn	Mn	0.73965	0.84457	0.11365	0.791
Mof_N 	N 	0.7483	0.5928	0.10507	-0.015
Mof_N 	N 	0.4535	0.866	0.23617	-0.018
Mof_N 	N 	0.7328	0.67557	0.12763	-0.126
Mof_N 	N 	0.0242	0.75074	0.01404	-0.027
Mof_N 	N 	0.9848	0.82642	0.04536	-0.115
Mof_N 	N 	0.4958	0.86998	0.17648	-0.124
Mof_N 	N 	0.7638	0.50894	0.08202	-0.124
Mof_N 	N 	0.0626	0.67515	0.98313	-0.113
Mof_N 	N 	0.4119	0.86576	0.29489	-0.129
Mof_Mn	Mn	0.23965	0.65543	0.88634	0.791
Mof_N 	N 	0.2483	0.9072	0.89493	-0.015
Mof_N 	N 	0.9535	0.634	0.76383	-0.018
Mof_N 	N 	0.2328	0.82443	0.87237	-0.126
Mof_N 	N 	0.5242	0.74926	0.98596	-0.026
Mof_N 	N 	0.4848	0.67358	0.95464	-0.115
Mof_N 	N 	0.9958	0.63002	0.82352	-0.123
Mof_N 	N 	0.2638	0.99106	0.91798	-0.124
Mof_N 	N 	0.5626	0.82485	0.01687	-0.114
Mof_N 	N 	0.9119	0.63424	0.70511	-0.129
Mof_Mn	Mn	0.26035	0.34457	0.38634	0.791
Mof_N 	N 	0.2517	0.0928	0.39493	-0.015
Mof_N 	N 	0.5465	0.366	0.26383	-0.018
Mof_N 	N 	0.2672	0.17557	0.37237	-0.126
Mof_N 	N 	0.9758	0.25074	0.48596	-0.027
Mof_N 	N 	0.0152	0.32642	0.45464	-0.115
Mof_N 	N 	0.5042	0.36998	0.32352	-0.124
Mof_N 	N 	0.2362	0.00894	0.41798	-0.124
Mof_N 	N 	0.9374	0.17515	0.51687	-0.114
Mof_N 	N 	0.5881	0.36576	0.20511	-0.129
_end
