# CIF file generated by openbabel 3.1.0, see https://openbabel.org
data_I
_chemical_name_common 'image0'
_cell_length_a 19.2945
_cell_length_b 19.2945
_cell_length_c 19.2945
_cell_angle_alpha 90
_cell_angle_beta 90
_cell_angle_gamma 90
_space_group_name_H-M_alt 'P 1'
_space_group_name_Hall 'P 1'
loop_
    _symmetry_equiv_pos_as_xyz
    x,y,z
loop_
    _atom_site_label
    _atom_site_type_symbol
    _atom_site_fract_x
    _atom_site_fract_y
    _atom_site_fract_z
    _atom_site_occupancy
    N1       N        0.36620    0.41350    0.08200    1.000
    N2       N        0.32320    0.40400    0.13530    1.000
    N3       N        0.63380    0.58650    0.08200    1.000
    N4       N        0.67680    0.59600    0.13530    1.000
    N5       N        0.63380    0.41350    0.91800    1.000
    N6       N        0.67680    0.40400    0.86470    1.000
    N7       N        0.36620    0.58650    0.91800    1.000
    N8       N        0.32320    0.59600    0.86470    1.000
    N9       N        0.08200    0.36620    0.41350    1.000
    N10      N        0.13530    0.32320    0.40400    1.000
    N11      N        0.08200    0.63380    0.58650    1.000
    N12      N        0.13530    0.67680    0.59600    1.000
    N13      N        0.91800    0.63380    0.41350    1.000
    N14      N        0.86470    0.67680    0.40400    1.000
    N15      N        0.91800    0.36620    0.58650    1.000
    N16      N        0.86470    0.32320    0.59600    1.000
    N17      N        0.41350    0.08200    0.36620    1.000
    N18      N        0.40400    0.13530    0.32320    1.000
    N19      N        0.58650    0.08200    0.63380    1.000
    N20      N        0.59600    0.13530    0.67680    1.000
    N21      N        0.41350    0.91800    0.63380    1.000
    N22      N        0.40400    0.86470    0.67680    1.000
    N23      N        0.58650    0.91800    0.36620    1.000
    N24      N        0.59600    0.86470    0.32320    1.000
    N25      N        0.41350    0.36620    0.91800    1.000
    N26      N        0.40400    0.32320    0.86470    1.000
    N27      N        0.58650    0.63380    0.91800    1.000
    N28      N        0.59600    0.67680    0.86470    1.000
    N29      N        0.41350    0.63380    0.08200    1.000
    N30      N        0.40400    0.67680    0.13530    1.000
    N31      N        0.58650    0.36620    0.08200    1.000
    N32      N        0.59600    0.32320    0.13530    1.000
    N33      N        0.36620    0.08200    0.58650    1.000
    N34      N        0.32320    0.13530    0.59600    1.000
    N35      N        0.63380    0.08200    0.41350    1.000
    N36      N        0.67680    0.13530    0.40400    1.000
    N37      N        0.63380    0.91800    0.58650    1.000
    N38      N        0.67680    0.86470    0.59600    1.000
    N39      N        0.36620    0.91800    0.41350    1.000
    N40      N        0.32320    0.86470    0.40400    1.000
    N41      N        0.08200    0.41350    0.63380    1.000
    N42      N        0.13530    0.40400    0.67680    1.000
    N43      N        0.08200    0.58650    0.36620    1.000
    N44      N        0.13530    0.59600    0.32320    1.000
    N45      N        0.91800    0.41350    0.36620    1.000
    N46      N        0.86470    0.40400    0.32320    1.000
    N47      N        0.91800    0.58650    0.63380    1.000
    N48      N        0.86470    0.59600    0.67680    1.000
    N49      N        0.63380    0.58650    0.91800    1.000
    N50      N        0.67680    0.59600    0.86470    1.000
    N51      N        0.36620    0.41350    0.91800    1.000
    N52      N        0.32320    0.40400    0.86470    1.000
    N53      N        0.36620    0.58650    0.08200    1.000
    N54      N        0.32320    0.59600    0.13530    1.000
    N55      N        0.63380    0.41350    0.08200    1.000
    N56      N        0.67680    0.40400    0.13530    1.000
    N57      N        0.91800    0.63380    0.58650    1.000
    N58      N        0.86470    0.67680    0.59600    1.000
    N59      N        0.91800    0.36620    0.41350    1.000
    N60      N        0.86470    0.32320    0.40400    1.000
    N61      N        0.08200    0.36620    0.58650    1.000
    N62      N        0.13530    0.32320    0.59600    1.000
    N63      N        0.08200    0.63380    0.41350    1.000
    N64      N        0.13530    0.67680    0.40400    1.000
    N65      N        0.58650    0.91800    0.63380    1.000
    N66      N        0.59600    0.86470    0.67680    1.000
    N67      N        0.41350    0.91800    0.36620    1.000
    N68      N        0.40400    0.86470    0.32320    1.000
    N69      N        0.58650    0.08200    0.36620    1.000
    N70      N        0.59600    0.13530    0.32320    1.000
    N71      N        0.41350    0.08200    0.63380    1.000
    N72      N        0.40400    0.13530    0.67680    1.000
    N73      N        0.58650    0.63380    0.08200    1.000
    N74      N        0.59600    0.67680    0.13530    1.000
    N75      N        0.41350    0.36620    0.08200    1.000
    N76      N        0.40400    0.32320    0.13530    1.000
    N77      N        0.58650    0.36620    0.91800    1.000
    N78      N        0.59600    0.32320    0.86470    1.000
    N79      N        0.41350    0.63380    0.91800    1.000
    N80      N        0.40400    0.67680    0.86470    1.000
    N81      N        0.63380    0.91800    0.41350    1.000
    N82      N        0.67680    0.86470    0.40400    1.000
    N83      N        0.36620    0.91800    0.58650    1.000
    N84      N        0.32320    0.86470    0.59600    1.000
    N85      N        0.36620    0.08200    0.41350    1.000
    N86      N        0.32320    0.13530    0.40400    1.000
    N87      N        0.63380    0.08200    0.58650    1.000
    N88      N        0.67680    0.13530    0.59600    1.000
    N89      N        0.91800    0.58650    0.36620    1.000
    N90      N        0.86470    0.59600    0.32320    1.000
    N91      N        0.91800    0.41350    0.63380    1.000
    N92      N        0.86470    0.40400    0.67680    1.000
    N93      N        0.08200    0.58650    0.63380    1.000
    N94      N        0.13530    0.59600    0.67680    1.000
    N95      N        0.08200    0.41350    0.36620    1.000
    N96      N        0.13530    0.40400    0.32320    1.000
    Cd1      Cd       0.35474    0.50000    0.00000    1.000
    Cl1      Cl       0.22930    0.50000    0.00000    1.000
    Cd2      Cd       0.64526    0.50000    0.00000    1.000
    Cl2      Cl       0.77070    0.50000    0.00000    1.000
    Cd3      Cd       0.00000    0.35474    0.50000    1.000
    Cl3      Cl       0.00000    0.22930    0.50000    1.000
    Cd4      Cd       0.00000    0.64526    0.50000    1.000
    Cl4      Cl       0.00000    0.77070    0.50000    1.000
    Cd5      Cd       0.50000    0.00000    0.35474    1.000
    Cl5      Cl       0.50000    0.00000    0.22930    1.000
    Cd6      Cd       0.50000    0.00000    0.64526    1.000
    Cl6      Cl       0.50000    0.00000    0.77070    1.000
    Cd7      Cd       0.50000    0.35474    0.00000    1.000
    Cl7      Cl       0.50000    0.22930    0.00000    1.000
    Cd8      Cd       0.50000    0.64526    0.00000    1.000
    Cl8      Cl       0.50000    0.77070    0.00000    1.000
    Cd9      Cd       0.35474    0.00000    0.50000    1.000
    Cl9      Cl       0.22930    0.00000    0.50000    1.000
    Cd10     Cd       0.64526    0.00000    0.50000    1.000
    Cl10     Cl       0.77070    0.00000    0.50000    1.000
    Cd11     Cd       0.00000    0.50000    0.64526    1.000
    Cl11     Cl       0.00000    0.50000    0.77070    1.000
    Cd12     Cd       0.00000    0.50000    0.35474    1.000
    Cl12     Cl       0.00000    0.50000    0.22930    1.000
    C1       C        0.34750    0.34750    0.16780    1.000
    C2       C        0.31570    0.31570    0.22800    1.000
    C3       C        0.65250    0.65250    0.16780    1.000
    C4       C        0.68430    0.68430    0.22800    1.000
    C5       C        0.65250    0.34750    0.83220    1.000
    C6       C        0.68430    0.31570    0.77200    1.000
    C7       C        0.34750    0.65250    0.83220    1.000
    C8       C        0.31570    0.68430    0.77200    1.000
    C9       C        0.16780    0.34750    0.34750    1.000
    C10      C        0.22800    0.31570    0.31570    1.000
    C11      C        0.16780    0.65250    0.65250    1.000
    C12      C        0.22800    0.68430    0.68430    1.000
    C13      C        0.83220    0.65250    0.34750    1.000
    C14      C        0.77200    0.68430    0.31570    1.000
    C15      C        0.83220    0.34750    0.65250    1.000
    C16      C        0.77200    0.31570    0.68430    1.000
    C17      C        0.34750    0.16780    0.34750    1.000
    C18      C        0.31570    0.22800    0.31570    1.000
    C19      C        0.65250    0.16780    0.65250    1.000
    C20      C        0.68430    0.22800    0.68430    1.000
    C21      C        0.34750    0.83220    0.65250    1.000
    C22      C        0.31570    0.77200    0.68430    1.000
    C23      C        0.65250    0.83220    0.34750    1.000
    C24      C        0.68430    0.77200    0.31570    1.000
    C25      C        0.34750    0.34750    0.83220    1.000
    C26      C        0.31570    0.31570    0.77200    1.000
    C27      C        0.65250    0.65250    0.83220    1.000
    C28      C        0.68430    0.68430    0.77200    1.000
    C29      C        0.34750    0.65250    0.16780    1.000
    C30      C        0.31570    0.68430    0.22800    1.000
    C31      C        0.65250    0.34750    0.16780    1.000
    C32      C        0.68430    0.31570    0.22800    1.000
    C33      C        0.34750    0.16780    0.65250    1.000
    C34      C        0.31570    0.22800    0.68430    1.000
    C35      C        0.65250    0.16780    0.34750    1.000
    C36      C        0.68430    0.22800    0.31570    1.000
    C37      C        0.65250    0.83220    0.65250    1.000
    C38      C        0.68430    0.77200    0.68430    1.000
    C39      C        0.34750    0.83220    0.34750    1.000
    C40      C        0.31570    0.77200    0.31570    1.000
    C41      C        0.16780    0.34750    0.65250    1.000
    C42      C        0.22800    0.31570    0.68430    1.000
    C43      C        0.16780    0.65250    0.34750    1.000
    C44      C        0.22800    0.68430    0.31570    1.000
    C45      C        0.83220    0.34750    0.34750    1.000
    C46      C        0.77200    0.31570    0.31570    1.000
    C47      C        0.83220    0.65250    0.65250    1.000
    C48      C        0.77200    0.68430    0.68430    1.000
    C49      C        0.25760    0.34590    0.25760    1.000
    H1       H        0.23870    0.38590    0.23870    1.000
    C50      C        0.74240    0.65410    0.25760    1.000
    H2       H        0.76130    0.61410    0.23870    1.000
    C51      C        0.74240    0.34590    0.74240    1.000
    H3       H        0.76130    0.38590    0.76130    1.000
    C52      C        0.25760    0.65410    0.74240    1.000
    H4       H        0.23870    0.61410    0.76130    1.000
    C53      C        0.25760    0.25760    0.34590    1.000
    H5       H        0.23870    0.23870    0.38590    1.000
    C54      C        0.25760    0.74240    0.65410    1.000
    H6       H        0.23870    0.76130    0.61410    1.000
    C55      C        0.74240    0.74240    0.34590    1.000
    H7       H        0.76130    0.76130    0.38590    1.000
    C56      C        0.74240    0.25760    0.65410    1.000
    H8       H        0.76130    0.23870    0.61410    1.000
    C57      C        0.34590    0.25760    0.25760    1.000
    H9       H        0.38590    0.23870    0.23870    1.000
    C58      C        0.65410    0.25760    0.74240    1.000
    H10      H        0.61410    0.23870    0.76130    1.000
    C59      C        0.34590    0.74240    0.74240    1.000
    H11      H        0.38590    0.76130    0.76130    1.000
    C60      C        0.65410    0.74240    0.25760    1.000
    H12      H        0.61410    0.76130    0.23870    1.000
    C61      C        0.34590    0.25760    0.74240    1.000
    H13      H        0.38590    0.23870    0.76130    1.000
    C62      C        0.65410    0.74240    0.74240    1.000
    H14      H        0.61410    0.76130    0.76130    1.000
    C63      C        0.34590    0.74240    0.25760    1.000
    H15      H        0.38590    0.76130    0.23870    1.000
    C64      C        0.65410    0.25760    0.25760    1.000
    H16      H        0.61410    0.23870    0.23870    1.000
    C65      C        0.25760    0.25760    0.65410    1.000
    H17      H        0.23870    0.23870    0.61410    1.000
    C66      C        0.74240    0.25760    0.34590    1.000
    H18      H        0.76130    0.23870    0.38590    1.000
    C67      C        0.74240    0.74240    0.65410    1.000
    H19      H        0.76130    0.76130    0.61410    1.000
    C68      C        0.25760    0.74240    0.34590    1.000
    H20      H        0.23870    0.76130    0.38590    1.000
    C69      C        0.25760    0.34590    0.74240    1.000
    H21      H        0.23870    0.38590    0.76130    1.000
    C70      C        0.25760    0.65410    0.25760    1.000
    H22      H        0.23870    0.61410    0.23870    1.000
    C71      C        0.74240    0.34590    0.25760    1.000
    H23      H        0.76130    0.38590    0.23870    1.000
    C72      C        0.74240    0.65410    0.74240    1.000
    H24      H        0.76130    0.61410    0.76130    1.000
    Cd13     Cd       0.24430    0.50000    0.14600    1.000
    Cd14     Cd       0.75570    0.50000    0.14600    1.000
    Cd15     Cd       0.75570    0.50000    0.85400    1.000
    Cd16     Cd       0.24430    0.50000    0.85400    1.000
    Cd17     Cd       0.14600    0.24430    0.50000    1.000
    Cd18     Cd       0.14600    0.75570    0.50000    1.000
    Cd19     Cd       0.85400    0.75570    0.50000    1.000
    Cd20     Cd       0.85400    0.24430    0.50000    1.000
    Cd21     Cd       0.50000    0.14600    0.24430    1.000
    Cd22     Cd       0.50000    0.14600    0.75570    1.000
    Cd23     Cd       0.50000    0.85400    0.75570    1.000
    Cd24     Cd       0.50000    0.85400    0.24430    1.000
    Cd25     Cd       0.50000    0.24430    0.85400    1.000
    Cd26     Cd       0.50000    0.75570    0.85400    1.000
    Cd27     Cd       0.50000    0.75570    0.14600    1.000
    Cd28     Cd       0.50000    0.24430    0.14600    1.000
    Cd29     Cd       0.24430    0.14600    0.50000    1.000
    Cd30     Cd       0.75570    0.14600    0.50000    1.000
    Cd31     Cd       0.75570    0.85400    0.50000    1.000
    Cd32     Cd       0.24430    0.85400    0.50000    1.000
    Cd33     Cd       0.14600    0.50000    0.75570    1.000
    Cd34     Cd       0.14600    0.50000    0.24430    1.000
    Cd35     Cd       0.85400    0.50000    0.24430    1.000
    Cd36     Cd       0.85400    0.50000    0.75570    1.000
