data_functionalizedCrystal
_audit_creation_method	'EQeq! by Chris Wilmer'
_symmetry_space_group_name_H-M	'P1'
_symmetry_Int_Tables_number	1
_symmetry_cell_setting	triclinic
loop_
_symmetry_equiv_pos_as_xyz
  x,y,z
_cell_length_a	10.1978
_cell_length_b	13.502
_cell_length_c	17.707
_cell_angle_alpha	90
_cell_angle_beta	90
_cell_angle_gamma	90
loop_
_atom_site_label
_atom_site_type_symbol
_atom_site_fract_x
_atom_site_fract_y
_atom_site_fract_z
_atom_site_charge
Mof_Mn	Mn	0.92547	0.15327	0.4834	0.915
Mof_Mn	Mn	0.08119	0.38919	0.46763	0.876
Mof_Mn	Mn	0.42547	0.84673	0.0166	0.916
Mof_Mn	Mn	0.58119	0.61081	0.03237	0.877
Mof_Mn	Mn	0.07453	0.84673	0.5166	0.916
Mof_Mn	Mn	0.91881	0.61081	0.53237	0.877
Mof_Mn	Mn	0.57453	0.15327	0.9834	0.916
Mof_Mn	Mn	0.41881	0.38919	0.96763	0.877
Mof_H 	H 	0.8078	0.4879	0.2855	0.049
Mof_H 	H 	0.6986	0.5063	0.1731	0.044
Mof_H 	H 	0.6247	0.2124	0.1678	0.037
Mof_H 	H 	0.7238	0.1977	0.2864	0.053
Mof_H 	H 	0.7958	0.6961	0.2405	0.049
Mof_H 	H 	0.8824	0.7701	0.3482	0.047
Mof_H 	H 	0.771	0.0364	0.2697	0.046
Mof_H 	H 	0.6837	0.9616	0.1631	0.045
Mof_H 	H 	0.3078	0.5121	0.2145	0.049
Mof_H 	H 	0.1986	0.4937	0.3269	0.044
Mof_H 	H 	0.1247	0.7876	0.3322	0.036
Mof_H 	H 	0.2238	0.8023	0.2136	0.053
Mof_H 	H 	0.2958	0.3039	0.2595	0.05
Mof_H 	H 	0.3824	0.2299	0.1518	0.046
Mof_H 	H 	0.271	0.9636	0.2303	0.042
Mof_H 	H 	0.1837	0.0384	0.3369	0.048
Mof_H 	H 	0.1922	0.5121	0.7145	0.049
Mof_H 	H 	0.3014	0.4937	0.8269	0.044
Mof_H 	H 	0.3753	0.7876	0.8322	0.037
Mof_H 	H 	0.2762	0.8023	0.7136	0.053
Mof_H 	H 	0.2042	0.3039	0.7595	0.049
Mof_H 	H 	0.1176	0.2299	0.6518	0.047
Mof_H 	H 	0.229	0.9636	0.7303	0.046
Mof_H 	H 	0.3163	0.0384	0.8369	0.045
Mof_H 	H 	0.6922	0.4879	0.7855	0.049
Mof_H 	H 	0.8014	0.5063	0.6731	0.044
Mof_H 	H 	0.8753	0.2124	0.6678	0.036
Mof_H 	H 	0.7762	0.1977	0.7864	0.053
Mof_H 	H 	0.7042	0.6961	0.7405	0.05
Mof_H 	H 	0.6176	0.7701	0.8482	0.046
Mof_H 	H 	0.729	0.0364	0.7697	0.042
Mof_H 	H 	0.8163	0.9616	0.6631	0.048
Mof_C 	C 	0.8511	0.3283	0.3693	0.362
Mof_C 	C 	0.7779	0.3398	0.2959	-0.071
Mof_C 	C 	0.77	0.4332	0.2621	-0.026
Mof_C 	C 	0.7066	0.4438	0.1947	-0.007
Mof_C 	C 	0.6532	0.3604	0.1576	-0.101
Mof_C 	C 	0.6601	0.2677	0.1915	-0.009
Mof_C 	C 	0.7215	0.2588	0.2623	-0.027
Mof_C 	C 	0.6764	0.7707	0.1219	0.352
Mof_C 	C 	0.7319	0.8205	0.1908	-0.076
Mof_C 	C 	0.7908	0.7645	0.2462	-0.019
Mof_C 	C 	0.8435	0.809	0.3111	-0.02
Mof_C 	C 	0.8373	0.9124	0.3198	-0.084
Mof_C 	C 	0.7767	0.9681	0.2642	-0.015
Mof_C 	C 	0.7241	0.9231	0.2	-0.022
Mof_C 	C 	0.8974	0.961	0.3893	0.387
Mof_C 	C 	0.5886	0.3724	0.0829	0.359
Mof_C 	C 	0.3511	0.6717	0.1307	0.362
Mof_C 	C 	0.2779	0.6602	0.2041	-0.071
Mof_C 	C 	0.27	0.5668	0.2379	-0.026
Mof_C 	C 	0.2066	0.5562	0.3053	-0.007
Mof_C 	C 	0.1532	0.6396	0.3424	-0.102
Mof_C 	C 	0.1601	0.7323	0.3085	-0.009
Mof_C 	C 	0.2215	0.7412	0.2377	-0.028
Mof_C 	C 	0.1764	0.2293	0.3781	0.351
Mof_C 	C 	0.2319	0.1795	0.3092	-0.073
Mof_C 	C 	0.2908	0.2355	0.2538	-0.021
Mof_C 	C 	0.3435	0.191	0.1889	-0.017
Mof_C 	C 	0.3373	0.0876	0.1802	-0.088
Mof_C 	C 	0.2767	0.0319	0.2358	-0.007
Mof_C 	C 	0.2241	0.0769	0.3	-0.026
Mof_C 	C 	0.3974	0.039	0.1107	0.391
Mof_C 	C 	0.0886	0.6276	0.4171	0.359
Mof_C 	C 	0.1489	0.6717	0.6307	0.362
Mof_C 	C 	0.2221	0.6602	0.7041	-0.071
Mof_C 	C 	0.23	0.5668	0.7379	-0.026
Mof_C 	C 	0.2934	0.5562	0.8053	-0.007
Mof_C 	C 	0.3468	0.6396	0.8424	-0.101
Mof_C 	C 	0.3399	0.7323	0.8085	-0.009
Mof_C 	C 	0.2785	0.7412	0.7377	-0.027
Mof_C 	C 	0.3236	0.2293	0.8781	0.352
Mof_C 	C 	0.2681	0.1795	0.8092	-0.076
Mof_C 	C 	0.2092	0.2355	0.7538	-0.019
Mof_C 	C 	0.1565	0.191	0.6889	-0.02
Mof_C 	C 	0.1627	0.0876	0.6802	-0.084
Mof_C 	C 	0.2233	0.0319	0.7358	-0.015
Mof_C 	C 	0.2759	0.0769	0.8	-0.022
Mof_C 	C 	0.1026	0.039	0.6107	0.387
Mof_C 	C 	0.4114	0.6276	0.9171	0.359
Mof_C 	C 	0.6489	0.3283	0.8693	0.362
Mof_C 	C 	0.7221	0.3398	0.7959	-0.071
Mof_C 	C 	0.73	0.4332	0.7621	-0.026
Mof_C 	C 	0.7934	0.4438	0.6947	-0.007
Mof_C 	C 	0.8468	0.3604	0.6576	-0.102
Mof_C 	C 	0.8399	0.2677	0.6915	-0.009
Mof_C 	C 	0.7785	0.2588	0.7623	-0.028
Mof_C 	C 	0.8236	0.7707	0.6219	0.351
Mof_C 	C 	0.7681	0.8205	0.6908	-0.073
Mof_C 	C 	0.7092	0.7645	0.7462	-0.021
Mof_C 	C 	0.6565	0.809	0.8111	-0.017
Mof_C 	C 	0.6627	0.9124	0.8198	-0.088
Mof_C 	C 	0.7233	0.9681	0.7642	-0.007
Mof_C 	C 	0.7759	0.9231	0.7	-0.026
Mof_C 	C 	0.6026	0.961	0.8893	0.391
Mof_C 	C 	0.9114	0.3724	0.5829	0.359
Mof_O 	O 	0.8208	0.2565	0.4109	-0.372
Mof_O 	O 	0.9386	0.3916	0.3823	-0.378
Mof_O 	O 	0.603	0.8195	0.0781	-0.388
Mof_O 	O 	0.7073	0.6812	0.1106	-0.375
Mof_O 	O 	0.5235	0.3005	0.0537	-0.421
Mof_O 	O 	0.8528	0.0446	0.4064	-0.382
Mof_O 	O 	0.9838	0.9144	0.4239	-0.408
Mof_O 	O 	0.5955	0.4533	0.0492	-0.422
Mof_O 	O 	0.3208	0.7435	0.0891	-0.372
Mof_O 	O 	0.4386	0.6084	0.1177	-0.378
Mof_O 	O 	0.103	0.1805	0.4219	-0.387
Mof_O 	O 	0.2073	0.3188	0.3894	-0.375
Mof_O 	O 	0.0235	0.6995	0.4463	-0.422
Mof_O 	O 	0.3528	0.9554	0.0936	-0.384
Mof_O 	O 	0.4838	0.0856	0.0761	-0.408
Mof_O 	O 	0.0955	0.5467	0.4508	-0.422
Mof_O 	O 	0.1792	0.7435	0.5891	-0.372
Mof_O 	O 	0.0614	0.6084	0.6177	-0.378
Mof_O 	O 	0.397	0.1805	0.9219	-0.388
Mof_O 	O 	0.2927	0.3188	0.8894	-0.375
Mof_O 	O 	0.4765	0.6995	0.9463	-0.421
Mof_O 	O 	0.1472	0.9554	0.5936	-0.382
Mof_O 	O 	0.0162	0.0856	0.5761	-0.408
Mof_O 	O 	0.4045	0.5467	0.9508	-0.422
Mof_O 	O 	0.6792	0.2565	0.9109	-0.372
Mof_O 	O 	0.5614	0.3916	0.8823	-0.378
Mof_O 	O 	0.897	0.8195	0.5781	-0.387
Mof_O 	O 	0.7927	0.6812	0.6106	-0.375
Mof_O 	O 	0.9765	0.3005	0.5537	-0.422
Mof_O 	O 	0.6472	0.0446	0.9064	-0.384
Mof_O 	O 	0.5162	0.9144	0.9239	-0.408
Mof_O 	O 	0.9045	0.4533	0.5492	-0.422
_end
