data_functionalizedCrystal
_audit_creation_method	'EQeq! by Chris Wilmer'
_symmetry_space_group_name_H-M	'P1'
_symmetry_Int_Tables_number	1
_symmetry_cell_setting	triclinic
loop_
_symmetry_equiv_pos_as_xyz
  x,y,z
_cell_length_a	12.763
_cell_length_b	17.7075
_cell_length_c	17.7075
_cell_angle_alpha	65.5804
_cell_angle_beta	76.0984
_cell_angle_gamma	103.902
loop_
_atom_site_label
_atom_site_type_symbol
_atom_site_fract_x
_atom_site_fract_y
_atom_site_fract_z
_atom_site_charge
Mof_Mn	Mn	0.86427	0.30059	0.16879	0.768
Mof_Mn	Mn	0.5387	0.75149	0.82913	0.731
Mof_Mn	Mn	0.03306	0.16879	0.53062	0.721
Mof_Mn	Mn	0.36783	0.82913	0.41938	0.73
Mof_Mn	Mn	0.56368	0.53062	0.30059	0.748
Mof_Mn	Mn	0.78721	0.41938	0.75149	0.735
Mof_Mo	Mo	0.7182	0.53319	0.99543	0.891
Mof_Mo	Mo	0.71363	0.99543	0.47138	0.878
Mof_Mo	Mo	0.18501	0.47138	0.53319	0.973
Mof_H 	H 	0.5364	0.1436	0.238	0.052
Mof_H 	H 	0.6067	0.2416	0.1557	0.053
Mof_H 	H 	0.5287	0.2468	0.2884	0.048
Mof_H 	H 	0.5984	0.1917	0.3323	0.052
Mof_H 	H 	0.7348	0.2998	0.3435	0.05
Mof_H 	H 	0.6617	0.36	0.3215	0.053
Mof_H 	H 	0.7534	0.8219	0.8843	0.034
Mof_H 	H 	0.8137	0.9259	0.8161	0.027
Mof_H 	H 	0.0554	0.5344	0.9169	0.02
Mof_H 	H 	0.2704	0.5283	0.0803	0.05
Mof_H 	H 	0.8205	0.7476	0.6822	0.055
Mof_H 	H 	0.7407	0.7982	0.6497	0.048
Mof_H 	H 	0.8244	0.4809	0.2048	0.047
Mof_H 	H 	0.86	0.4446	0.2882	0.044
Mof_H 	H 	0.3793	0.4631	0.0232	0.036
Mof_H 	H 	0.0292	0.5826	0.1505	0.222
Mof_H 	H 	0.1571	0.5873	0.1159	0.232
Mof_H 	H 	0.0817	0.5352	0.2195	0.229
Mof_H 	H 	0.6501	0.6562	0.676	0.041
Mof_H 	H 	0.6653	0.6114	0.768	0.038
Mof_H 	H 	0.8115	0.8993	0.6974	0.045
Mof_H 	H 	0.8819	0.8503	0.7477	0.053
Mof_H 	H 	0.8492	0.096	0.1679	0.053
Mof_H 	H 	0.8889	0.1446	0.0626	0.049
Mof_H 	H 	0.2841	0.3322	0.0261	0.053
Mof_H 	H 	0.0536	0.1266	0.0935	0.161
Mof_H 	H 	0.1727	0.19	0.0822	0.159
Mof_H 	H 	0.1371	0.2103	0.9993	0.131
Mof_H 	H 	0.0905	0.6481	0.9505	0.025
Mof_H 	H 	0.4127	0.5247	0.7386	0.259
Mof_H 	H 	0.3668	0.4638	0.8433	0.244
Mof_H 	H 	0.5011	0.5051	0.7847	0.255
Mof_H 	H 	0.6246	0.9251	0.914	0.028
Mof_H 	H 	0.5803	0.82	0.9664	0.032
Mof_H 	H 	0.2086	0.5054	0.8522	0.042
Mof_H 	H 	0.2226	0.7978	0.0048	0.267
Mof_H 	H 	0.1408	0.7557	0.9672	0.241
Mof_H 	H 	0.235	0.8539	0.9055	0.239
Mof_H 	H 	0.7549	0.2131	0.0684	0.056
Mof_H 	H 	0.6863	0.1091	0.1342	0.058
Mof_H 	H 	0.4152	0.8521	0.9802	0.004
Mof_H 	H 	0.4633	0.9199	0.8761	0.014
Mof_H 	H 	0.7744	0.238	0.6184	0.045
Mof_H 	H 	0.7624	0.1557	0.6027	0.051
Mof_H 	H 	0.8171	0.2884	0.4648	0.052
Mof_H 	H 	0.9307	0.3323	0.476	0.061
Mof_H 	H 	0.0783	0.3435	0.3567	0.079
Mof_H 	H 	0.9832	0.3215	0.3185	0.107
Mof_H 	H 	0.6377	0.8843	0.2938	0.035
Mof_H 	H 	0.6298	0.8161	0.258	0.038
Mof_H 	H 	0.9723	0.9169	0.5487	0.078
Mof_H 	H 	0.3507	0.0803	0.3914	0.043
Mof_H 	H 	0.5027	0.6822	0.5702	0.053
Mof_H 	H 	0.3904	0.6497	0.5521	0.049
Mof_H 	H 	0.0292	0.2048	0.3143	0.014
Mof_H 	H 	0.1482	0.2882	0.2672	0.018
Mof_H 	H 	0.4025	0.0232	0.5137	0.042
Mof_H 	H 	0.1797	0.1505	0.2669	0.25
Mof_H 	H 	0.273	0.1159	0.2968	0.253
Mof_H 	H 	0.3012	0.2195	0.2453	0.256
Mof_H 	H 	0.3261	0.676	0.6678	0.041
Mof_H 	H 	0.4333	0.768	0.6206	0.038
Mof_H 	H 	0.5089	0.6974	0.4033	0.053
Mof_H 	H 	0.6296	0.7477	0.402	0.051
Mof_H 	H 	0.0171	0.1679	0.7361	-0.011
Mof_H 	H 	0.9515	0.0626	0.7928	0.011
Mof_H 	H 	0.3102	0.0261	0.6417	0.046
Mof_H 	H 	0.1471	0.0935	0.7799	0.165
Mof_H 	H 	0.2549	0.0822	0.7278	0.162
Mof_H 	H 	0.1364	0.9993	0.7904	0.127
Mof_H 	H 	0.041	0.9505	0.4014	0.001
Mof_H 	H 	0.1513	0.7386	0.7367	0.254
Mof_H 	H 	0.2101	0.8433	0.6929	0.241
Mof_H 	H 	0.2858	0.7847	0.7102	0.254
Mof_H 	H 	0.5386	0.914	0.1609	0.041
Mof_H 	H 	0.5467	0.9664	0.2136	0.034
Mof_H 	H 	0.0608	0.8522	0.6424	0.013
Mof_H 	H 	0.2274	0.0048	0.1974	0.29
Mof_H 	H 	0.108	0.9672	0.2771	0.256
Mof_H 	H 	0.1405	0.9055	0.2406	0.254
Mof_H 	H 	0.8233	0.0684	0.7185	0.072
Mof_H 	H 	0.8205	0.1342	0.7567	0.065
Mof_H 	H 	0.3954	0.9802	0.1677	0.011
Mof_H 	H 	0.3394	0.8761	0.204	0.023
Mof_H 	H 	0.3928	0.6184	0.1436	0.05
Mof_H 	H 	0.3651	0.6027	0.2416	0.049
Mof_H 	H 	0.2819	0.4648	0.2468	0.047
Mof_H 	H 	0.4067	0.476	0.1917	0.053
Mof_H 	H 	0.435	0.3567	0.2998	0.051
Mof_H 	H 	0.3017	0.3185	0.36	0.055
Mof_H 	H 	0.9315	0.2938	0.8219	0.059
Mof_H 	H 	0.8878	0.258	0.9259	0.049
Mof_H 	H 	0.521	0.5487	0.5344	0.032
Mof_H 	H 	0.7421	0.3914	0.5283	0.036
Mof_H 	H 	0.0729	0.5702	0.7476	0.025
Mof_H 	H 	0.9425	0.5521	0.7982	0.038
Mof_H 	H 	0.3435	0.3143	0.4809	0.04
Mof_H 	H 	0.4154	0.2672	0.4446	0.037
Mof_H 	H 	0.9162	0.5137	0.4631	0.042
Mof_H 	H 	0.4466	0.2669	0.5826	0.246
Mof_H 	H 	0.5698	0.2968	0.5873	0.245
Mof_H 	H 	0.5465	0.2453	0.5352	0.252
Mof_H 	H 	0.9939	0.6678	0.6562	0.041
Mof_H 	H 	0.0539	0.6206	0.6114	0.012
Mof_H 	H 	0.9122	0.4033	0.8993	0.025
Mof_H 	H 	0.0316	0.402	0.8503	0.008
Mof_H 	H 	0.7532	0.7361	0.096	0.042
Mof_H 	H 	0.7443	0.7928	0.1446	0.026
Mof_H 	H 	0.9519	0.6417	0.3322	0.036
Mof_H 	H 	0.927	0.7799	0.1266	0.236
Mof_H 	H 	0.9827	0.7278	0.19	0.23
Mof_H 	H 	0.9268	0.7904	0.2103	0.226
Mof_H 	H 	0.4424	0.4014	0.6481	0.043
Mof_H 	H 	0.888	0.7367	0.5247	0.274
Mof_H 	H 	0.903	0.6929	0.4638	0.263
Mof_H 	H 	0.996	0.7102	0.5051	0.278
Mof_H 	H 	0.6995	0.1609	0.9251	0.042
Mof_H 	H 	0.7603	0.2136	0.82	0.045
Mof_H 	H 	0.7032	0.6424	0.5054	0.044
Mof_H 	H 	0.4248	0.1974	0.7978	0.214
Mof_H 	H 	0.3851	0.2771	0.7557	0.219
Mof_H 	H 	0.3811	0.2406	0.8539	0.21
Mof_H 	H 	0.5418	0.7185	0.2131	0.047
Mof_H 	H 	0.5772	0.7567	0.1091	0.053
Mof_H 	H 	0.5631	0.1677	0.8521	0.022
Mof_H 	H 	0.5434	0.204	0.9199	0.022
Mof_C 	C 	0.6052	0.198	0.212	-0.07
Mof_C 	C 	0.3344	0.6044	0.8459	-0.022
Mof_C 	C 	0.5995	0.235	0.276	-0.065
Mof_C 	C 	0.0495	0.2435	0.0841	0.129
Mof_C 	C 	0.0345	0.4667	0.1579	0.187
Mof_C 	C 	0.8139	0.4494	0.0236	-0.101
Mof_C 	C 	0.1225	0.3248	0.0811	0.025
Mof_C 	C 	0.6053	0.6056	0.9725	-0.146
Mof_C 	C 	0.7263	0.3472	0.2952	-0.075
Mof_C 	C 	0.6602	0.5048	0.13	-0.099
Mof_C 	C 	0.8512	0.6363	0.8679	-0.137
Mof_C 	C 	0.7597	0.8693	0.8282	-0.052
Mof_C 	C 	0.3051	0.7593	0.9225	0.223
Mof_C 	C 	0.1316	0.5688	0.9042	-0.024
Mof_C 	C 	0.2336	0.4757	0.0811	-0.068
Mof_C 	C 	0.7439	0.75	0.7005	-0.071
Mof_C 	C 	0.267	0.6861	0.9042	-0.038
Mof_C 	C 	0.8369	0.4304	0.2458	-0.041
Mof_C 	C 	0.2981	0.4372	0.0468	0.006
Mof_C 	C 	0.0797	0.5504	0.1612	-0.695
Mof_C 	C 	0.6499	0.6611	0.7286	-0.041
Mof_C 	C 	0.8049	0.8517	0.7536	-0.074
Mof_C 	C 	0.86	0.1501	0.1152	-0.046
Mof_C 	C 	0.2417	0.3599	0.0478	-0.092
Mof_C 	C 	0.1085	0.1877	0.0628	-0.488
Mof_C 	C 	0.152	0.6361	0.9241	-0.066
Mof_C 	C 	0.4297	0.5153	0.791	-0.766
Mof_C 	C 	0.4426	0.5955	0.801	0.244
Mof_C 	C 	0.8378	0.6252	0.0143	-0.094
Mof_C 	C 	0.5841	0.8711	0.9143	-0.072
Mof_C 	C 	0.1132	0.4353	0.1166	0
Mof_C 	C 	0.5637	0.4107	0.071	-0.101
Mof_C 	C 	0.2223	0.5518	0.8653	-0.063
Mof_C 	C 	0.2181	0.7949	0.9527	-0.806
Mof_C 	C 	0.7454	0.1625	0.1237	-0.077
Mof_C 	C 	0.4617	0.8643	0.9213	-0.023
Mof_C 	C 	0.7013	0.4852	0.9028	-0.127
Mof_C 	C 	0.8172	0.212	0.59	-0.064
Mof_C 	C 	0.1803	0.8459	0.5497	-0.049
Mof_C 	C 	0.8755	0.276	0.489	-0.075
Mof_C 	C 	0.1336	0.0841	0.6724	0.165
Mof_C 	C 	0.1924	0.1579	0.3754	0.236
Mof_C 	C 	0.8375	0.0236	0.527	-0.098
Mof_C 	C 	0.2036	0.0811	0.5941	0.01
Mof_C 	C 	0.5778	0.9725	0.4219	-0.146
Mof_C 	C 	0.0215	0.2952	0.3576	-0.189
Mof_C 	C 	0.7902	0.13	0.3652	-0.092
Mof_C 	C 	0.7191	0.8679	0.4958	-0.137
Mof_C 	C 	0.5879	0.8282	0.3025	-0.054
Mof_C 	C 	0.2276	0.9225	0.3182	0.242
Mof_C 	C 	0.0358	0.9042	0.527	-0.127
Mof_C 	C 	0.3147	0.0811	0.4432	-0.05
Mof_C 	C 	0.4444	0.7005	0.5495	-0.069
Mof_C 	C 	0.1712	0.9042	0.4097	-0.069
Mof_C 	C 	0.0827	0.2458	0.3238	0.023
Mof_C 	C 	0.3449	0.0468	0.516	-0.01
Mof_C 	C 	0.2409	0.1612	0.2884	-0.759
Mof_C 	C 	0.3785	0.7286	0.6103	-0.042
Mof_C 	C 	0.5585	0.7536	0.3947	-0.074
Mof_C 	C 	0.9752	0.1152	0.7347	0.068
Mof_C 	C 	0.2895	0.0478	0.5923	-0.076
Mof_C 	C 	0.1713	0.0628	0.7495	-0.504
Mof_C 	C 	0.0761	0.9241	0.4398	-0.007
Mof_C 	C 	0.2207	0.791	0.6937	-0.765
Mof_C 	C 	0.2436	0.801	0.6035	0.249
Mof_C 	C 	0.8521	0.0143	0.3605	-0.088
Mof_C 	C 	0.4984	0.9143	0.2146	-0.073
Mof_C 	C 	0.2298	0.1166	0.4481	-0.018
Mof_C 	C 	0.6347	0.071	0.5183	-0.097
Mof_C 	C 	0.0876	0.8653	0.5829	-0.005
Mof_C 	C 	0.1708	0.9527	0.2524	-0.85
Mof_C 	C 	0.8691	0.1237	0.7138	-0.125
Mof_C 	C 	0.383	0.9213	0.2144	-0.025
Mof_C 	C 	0.6041	0.9028	0.612	-0.128
Mof_C 	C 	0.4072	0.59	0.198	-0.068
Mof_C 	C 	0.73	0.5497	0.6044	-0.023
Mof_C 	C 	0.3645	0.489	0.235	-0.066
Mof_C 	C 	0.806	0.6724	0.2435	0.223
Mof_C 	C 	0.5678	0.3754	0.4667	0.231
Mof_C 	C 	0.3645	0.527	0.4494	-0.141
Mof_C 	C 	0.7977	0.5941	0.3248	-0.018
Mof_C 	C 	0.9997	0.4219	0.6056	-0.119
Mof_C 	C 	0.3791	0.3576	0.3472	-0.08
Mof_C 	C 	0.1554	0.3652	0.5048	-0.131
Mof_C 	C 	0.2149	0.4958	0.6363	-0.149
Mof_C 	C 	0.8904	0.3025	0.8693	-0.099
Mof_C 	C 	0.5458	0.3182	0.7593	0.194
Mof_C 	C 	0.5628	0.527	0.5688	-0.016
Mof_C 	C 	0.7579	0.4432	0.4757	-0.046
Mof_C 	C 	0.9939	0.5495	0.75	-0.026
Mof_C 	C 	0.5809	0.4097	0.6861	-0.019
Mof_C 	C 	0.4065	0.3238	0.4304	-0.032
Mof_C 	C 	0.8609	0.516	0.4372	-0.025
Mof_C 	C 	0.5293	0.2884	0.5504	-0.749
Mof_C 	C 	0.9888	0.6103	0.6611	-0.013
Mof_C 	C 	0.9532	0.3947	0.8517	0.006
Mof_C 	C 	0.7099	0.7347	0.1501	-0.032
Mof_C 	C 	0.8818	0.5923	0.3599	-0.059
Mof_C 	C 	0.9208	0.7495	0.1877	-0.72
Mof_C 	C 	0.5159	0.4398	0.6361	-0.072
Mof_C 	C 	0.9144	0.6937	0.5153	-0.805
Mof_C 	C 	0.8471	0.6035	0.5955	0.261
Mof_C 	C 	0.2126	0.3605	0.6252	-0.138
Mof_C 	C 	0.713	0.2146	0.8711	-0.079
Mof_C 	C 	0.6779	0.4481	0.4353	-0.023
Mof_C 	C 	0.153	0.5183	0.4107	-0.142
Mof_C 	C 	0.6705	0.5829	0.5518	-0.059
Mof_C 	C 	0.4232	0.2524	0.7949	-0.68
Mof_C 	C 	0.5829	0.7138	0.1625	-0.079
Mof_C 	C 	0.5974	0.2144	0.8643	-0.027
Mof_C 	C 	0.2161	0.612	0.4852	-0.132
Mof_N 	N 	0.7089	0.1783	0.1965	-0.131
Mof_N 	N 	0.3541	0.6686	0.8651	-0.159
Mof_N 	N 	0.9262	0.413	0.1972	-0.186
Mof_N 	N 	0.9226	0.6947	0.8012	-0.082
Mof_N 	N 	0.0618	0.3623	0.1147	-0.173
Mof_N 	N 	0.8573	0.3991	0.0432	-0.133
Mof_N 	N 	0.9419	0.2277	0.107	-0.171
Mof_N 	N 	0.5477	0.6474	0.9582	-0.135
Mof_N 	N 	0.5356	0.658	0.7756	-0.217
Mof_N 	N 	0.7013	0.3174	0.2345	-0.139
Mof_N 	N 	0.648	0.8734	0.835	-0.146
Mof_N 	N 	0.7264	0.7671	0.7728	-0.138
Mof_N 	N 	0.4828	0.3456	0.1121	-0.095
Mof_N 	N 	0.4137	0.7912	0.907	-0.214
Mof_N 	N 	0.9017	0.6719	0.0262	-0.09
Mof_N 	N 	0.6321	0.4917	0.2012	-0.141
Mof_N 	N 	0.7003	0.4537	0.8572	-0.139
Mof_N 	N 	0.9054	0.1965	0.6252	-0.119
Mof_N 	N 	0.2192	0.8651	0.4663	-0.15
Mof_N 	N 	0.1234	0.1972	0.3898	-0.215
Mof_N 	N 	0.7238	0.8012	0.5041	-0.088
Mof_N 	N 	0.1765	0.1147	0.523	-0.157
Mof_N 	N 	0.9005	0.0432	0.5577	-0.128
Mof_N 	N 	0.0489	0.107	0.6653	-0.217
Mof_N 	N 	0.5059	0.9582	0.3944	-0.136
Mof_N 	N 	0.3112	0.7756	0.5664	-0.219
Mof_N 	N 	0.9358	0.2345	0.4481	-0.107
Mof_N 	N 	0.483	0.835	0.2916	-0.14
Mof_N 	N 	0.4992	0.7728	0.4601	-0.138
Mof_N 	N 	0.5949	0.1121	0.5423	-0.096
Mof_N 	N 	0.3207	0.907	0.3018	-0.217
Mof_N 	N 	0.9279	0.0262	0.3019	-0.085
Mof_N 	N 	0.8333	0.2012	0.3071	-0.14
Mof_N 	N 	0.5575	0.8572	0.6891	-0.139
Mof_N 	N 	0.5306	0.6252	0.1783	-0.131
Mof_N 	N 	0.6855	0.4663	0.6686	-0.16
Mof_N 	N 	0.5132	0.3898	0.413	-0.207
Mof_N 	N 	0.2279	0.5041	0.6947	-0.085
Mof_N 	N 	0.6995	0.523	0.3623	-0.154
Mof_N 	N 	0.4582	0.5577	0.3991	-0.136
Mof_N 	N 	0.7142	0.6653	0.2277	-0.21
Mof_N 	N 	0.9003	0.3944	0.6474	-0.131
Mof_N 	N 	0.8776	0.5664	0.658	-0.223
Mof_N 	N 	0.3839	0.4481	0.3174	-0.137
Mof_N 	N 	0.7746	0.2916	0.8734	-0.137
Mof_N 	N 	0.9593	0.4601	0.7671	-0.149
Mof_N 	N 	0.1372	0.5423	0.3456	-0.095
Mof_N 	N 	0.6225	0.3018	0.7912	-0.204
Mof_N 	N 	0.2298	0.3019	0.6719	-0.095
Mof_N 	N 	0.1404	0.3071	0.4917	-0.135
Mof_N 	N 	0.2466	0.6891	0.4537	-0.135
_end
