# CIF file generated by openbabel 3.1.0, see https://openbabel.org
data_I
_chemical_name_common 'LEDLAJ_clean'
_cell_length_a 17.2
_cell_length_b 21.1459
_cell_length_c 21.1459
_cell_angle_alpha 80.4793
_cell_angle_beta 66.0024
_cell_angle_gamma 66.0024
_space_group_name_H-M_alt 'P 1'
_space_group_name_Hall 'P 1'
loop_
    _symmetry_equiv_pos_as_xyz
    x,y,z
loop_
    _atom_site_label
    _atom_site_type_symbol
    _atom_site_fract_x
    _atom_site_fract_y
    _atom_site_fract_z
    _atom_site_occupancy
    Zn1      Zn       0.39749    0.96431    0.24599    1.000
    Zn2      Zn       0.10779    0.53569    0.25401    1.000
    Zn3      Zn       0.64348    0.75401    0.46431    1.000
    Zn4      Zn       0.36180    0.74599    0.03569    1.000
    H1       H        0.64360    0.00010    0.28850    1.000
    H2       H        0.77430    0.02850    0.24050    1.000
    H3       H        0.77410    0.03190    0.05730    1.000
    H4       H        0.64260    0.00420    0.10140    1.000
    H5       H        0.91610    0.92000    0.10560    1.000
    H6       H        0.06680    0.84600    0.07580    1.000
    H7       H        0.13900    0.00120    0.07000    1.000
    H8       H        0.99160    0.07700    0.09600    1.000
    H9       H        0.47360    0.84430    0.33290    1.000
    H10      H        0.55850    0.73030    0.32270    1.000
    H11      H        0.56000    0.74030    0.13190    1.000
    H12      H        0.47840    0.85390    0.14670    1.000
    H13      H        0.69160    0.63410    0.27630    1.000
    H14      H        0.77680    0.51820    0.25700    1.000
    H15      H        0.66240    0.51050    0.14030    1.000
    H16      H        0.57040    0.62970    0.15570    1.000
    H17      H        0.31300    0.07850    0.34250    1.000
    H18      H        0.24830    0.19460    0.34940    1.000
    H19      H        0.30290    0.19660    0.14860    1.000
    H20      H        0.36030    0.08140    0.15160    1.000
    H21      H        0.43220    0.49990    0.21150    1.000
    H22      H        0.54330    0.47150    0.25950    1.000
    H23      H        0.36330    0.46810    0.44270    1.000
    H24      H        0.24820    0.49580    0.39860    1.000
    H25      H        0.44170    0.58000    0.39440    1.000
    H26      H        0.48860    0.65400    0.42420    1.000
    H27      H        0.71020    0.49880    0.43000    1.000
    H28      H        0.66460    0.42300    0.40400    1.000
    H29      H        0.15080    0.65570    0.16710    1.000
    H30      H        0.11150    0.76970    0.17730    1.000
    H31      H        0.93220    0.75970    0.36810    1.000
    H32      H        0.97900    0.64610    0.35330    1.000
    H33      H        0.10200    0.86590    0.22370    1.000
    H34      H        0.05200    0.98180    0.24300    1.000
    H35      H        0.81320    0.98950    0.35970    1.000
    H36      H        0.85580    0.87030    0.34430    1.000
    H37      H        0.23400    0.42150    0.15750    1.000
    H38      H        0.29230    0.30540    0.15060    1.000
    H39      H        0.14810    0.30340    0.35140    1.000
    H40      H        0.09330    0.41860    0.34840    1.000
    H41      H        0.93210    0.71150    0.50010    1.000
    H42      H        0.01480    0.75950    0.52850    1.000
    H43      H        0.83140    0.94270    0.53190    1.000
    H44      H        0.74400    0.89860    0.50420    1.000
    H45      H        0.02170    0.89440    0.42000    1.000
    H46      H        0.14260    0.92420    0.34600    1.000
    H47      H        0.20900    0.93000    0.50120    1.000
    H48      H        0.08760    0.90400    0.57700    1.000
    H49      H        0.80650    0.66710    0.34430    1.000
    H50      H        0.88120    0.67730    0.23030    1.000
    H51      H        0.69190    0.86810    0.24030    1.000
    H52      H        0.62510    0.85330    0.35390    1.000
    H53      H        0.96790    0.72370    0.13410    1.000
    H54      H        0.03380    0.74300    0.01820    1.000
    H55      H        0.80270    0.85970    0.01050    1.000
    H56      H        0.72610    0.84430    0.12970    1.000
    H57      H        0.65550    0.65750    0.57850    1.000
    H58      H        0.59770    0.65060    0.69460    1.000
    H59      H        0.45150    0.85140    0.69660    1.000
    H60      H        0.51190    0.84840    0.58140    1.000
    H61      H        0.64370    0.78850    0.99990    1.000
    H62      H        0.80280    0.74050    0.97150    1.000
    H63      H        0.80600    0.55730    0.96810    1.000
    H64      H        0.64680    0.60140    0.99580    1.000
    H65      H        0.83610    0.60560    0.08000    1.000
    H66      H        0.91280    0.57580    0.15400    1.000
    H67      H        0.14020    0.57000    0.99880    1.000
    H68      H        0.06860    0.59600    0.92300    1.000
    H69      H        0.31790    0.83290    0.15570    1.000
    H70      H        0.28880    0.82270    0.26970    1.000
    H71      H        0.30030    0.63190    0.25970    1.000
    H72      H        0.33230    0.64670    0.14610    1.000
    H73      H        0.32570    0.77630    0.36590    1.000
    H74      H        0.29500    0.75700    0.48180    1.000
    H75      H        0.17290    0.64030    0.48950    1.000
    H76      H        0.20010    0.65570    0.37030    1.000
    H77      H        0.39150    0.84250    0.92150    1.000
    H78      H        0.44290    0.84940    0.80540    1.000
    H79      H        0.49950    0.64860    0.80340    1.000
    H80      H        0.44170    0.65160    0.91860    1.000
    C1       C        0.54360    0.98370    0.22850    1.000
    C2       C        0.62830    0.00300    0.19900    1.000
    C3       C        0.66830    0.00760    0.24120    1.000
    C4       C        0.74740    0.02400    0.21200    1.000
    C5       C        0.78190    0.03260    0.14740    1.000
    C6       C        0.74650    0.02590    0.10470    1.000
    C7       C        0.66720    0.00980    0.13100    1.000
    C8       C        0.94420    0.00420    0.10220    1.000
    C9       C        0.96220    0.93620    0.09740    1.000
    C10      C        0.05160    0.89300    0.08020    1.000
    C11      C        0.11900    0.91500    0.06920    1.000
    C12      C        0.09380    0.98460    0.07640    1.000
    C13      C        0.00710    0.02980    0.09220    1.000
    C14      C        0.21430    0.86790    0.05290    1.000
    C15      C        0.49270    0.82290    0.29130    1.000
    C16      C        0.54290    0.75410    0.28590    1.000
    C17      C        0.57080    0.71940    0.22640    1.000
    C18      C        0.54380    0.76060    0.17340    1.000
    C19      C        0.49480    0.82880    0.18280    1.000
    C20      C        0.62280    0.64580    0.21700    1.000
    C21      C        0.68360    0.61080    0.24720    1.000
    C22      C        0.73480    0.54030    0.23570    1.000
    C23      C        0.66910    0.53570    0.16850    1.000
    C24      C        0.61260    0.60890    0.17710    1.000
    C25      C        0.30860    0.10300    0.30260    1.000
    C26      C        0.27190    0.17310    0.30710    1.000
    C27      C        0.26990    0.21180    0.24860    1.000
    C28      C        0.30320    0.17410    0.19030    1.000
    C29      C        0.33620    0.10520    0.19280    1.000
    C30      C        0.25580    0.51630    0.27150    1.000
    C31      C        0.33030    0.49700    0.30100    1.000
    C32      C        0.41710    0.49240    0.25880    1.000
    C33      C        0.48340    0.47600    0.28800    1.000
    C34      C        0.46190    0.46740    0.35260    1.000
    C35      C        0.37710    0.47410    0.39530    1.000
    C36      C        0.30800    0.49020    0.36900    1.000
    C37      C        0.55060    0.49580    0.39780    1.000
    C38      C        0.49580    0.56380    0.40260    1.000
    C39      C        0.52480    0.60700    0.41980    1.000
    C40      C        0.60320    0.58500    0.43080    1.000
    C41      C        0.65480    0.51540    0.42360    1.000
    C42      C        0.62910    0.47020    0.40780    1.000
    C43      C        0.63510    0.63210    0.44710    1.000
    C44      C        0.10690    0.67710    0.20870    1.000
    C45      C        0.08290    0.74590    0.21410    1.000
    C46      C        0.01660    0.78060    0.27360    1.000
    C47      C        0.97780    0.73940    0.32660    1.000
    C48      C        0.00640    0.67120    0.31720    1.000
    C49      C        0.98560    0.85420    0.28300    1.000
    C50      C        0.04160    0.88920    0.25280    1.000
    C51      C        0.01080    0.95970    0.26430    1.000
    C52      C        0.87330    0.96430    0.33150    1.000
    C53      C        0.89860    0.89110    0.32290    1.000
    C54      C        0.21420    0.39700    0.19740    1.000
    C55      C        0.25210    0.32690    0.19290    1.000
    C56      C        0.23030    0.28820    0.25140    1.000
    C57      C        0.16760    0.32590    0.30970    1.000
    C58      C        0.13420    0.39480    0.30720    1.000
    C59      C        0.77210    0.77150    0.48370    1.000
    C60      C        0.82730    0.80100    0.50300    1.000
    C61      C        0.90950    0.75880    0.50760    1.000
    C62      C        0.95940    0.78800    0.52400    1.000
    C63      C        0.92930    0.85260    0.53260    1.000
    C64      C        0.85120    0.89530    0.52590    1.000
    C65      C        0.79820    0.86900    0.50980    1.000
    C66      C        0.04640    0.89780    0.50420    1.000
    C67      C        0.05960    0.90260    0.43620    1.000
    C68      C        0.13180    0.91980    0.39300    1.000
    C69      C        0.18820    0.93080    0.41500    1.000
    C70      C        0.17020    0.92360    0.48460    1.000
    C71      C        0.09930    0.90780    0.52980    1.000
    C72      C        0.26720    0.94710    0.36790    1.000
    C73      C        0.78400    0.70870    0.32290    1.000
    C74      C        0.82880    0.71410    0.25410    1.000
    C75      C        0.79720    0.77360    0.21940    1.000
    C76      C        0.71720    0.82660    0.26060    1.000
    C77      C        0.67760    0.81720    0.32880    1.000
    C78      C        0.83980    0.78300    0.14580    1.000
    C79      C        0.93080    0.75280    0.11080    1.000
    C80      C        0.97050    0.76430    0.04030    1.000
    C81      C        0.83760    0.83150    0.03570    1.000
    C82      C        0.78970    0.82290    0.10890    1.000
    C83      C        0.61120    0.69740    0.60300    1.000
    C84      C        0.57900    0.69290    0.67310    1.000
    C85      C        0.51850    0.75140    0.71180    1.000
    C86      C        0.49350    0.80970    0.67410    1.000
    C87      C        0.52900    0.80720    0.60520    1.000
    C88      C        0.52730    0.72850    0.01630    1.000
    C89      C        0.63130    0.69900    0.99700    1.000
    C90      C        0.67590    0.74120    0.99240    1.000
    C91      C        0.77140    0.71200    0.97600    1.000
    C92      C        0.81450    0.64740    0.96740    1.000
    C93      C        0.77240    0.60470    0.97410    1.000
    C94      C        0.67700    0.63100    0.99020    1.000
    C95      C        0.94840    0.60220    0.99580    1.000
    C96      C        0.89840    0.59740    0.06380    1.000
    C97      C        0.94460    0.58020    0.10700    1.000
    C98      C        0.03400    0.56920    0.08500    1.000
    C99      C        0.07840    0.57640    0.01540    1.000
    C100     C        0.03690    0.59220    0.97020    1.000
    C101     C        0.08220    0.55290    0.13210    1.000
    C102     C        0.31560    0.79130    0.17710    1.000
    C103     C        0.29700    0.78590    0.24590    1.000
    C104     C        0.29020    0.72640    0.28060    1.000
    C105     C        0.30440    0.67340    0.23940    1.000
    C106     C        0.32360    0.68280    0.17120    1.000
    C107     C        0.26860    0.71700    0.35420    1.000
    C108     C        0.29440    0.74720    0.38920    1.000
    C109     C        0.27510    0.73570    0.45970    1.000
    C110     C        0.20480    0.66850    0.46430    1.000
    C111     C        0.22150    0.67710    0.39110    1.000
    C112     C        0.41160    0.80260    0.89700    1.000
    C113     C        0.44500    0.80710    0.82690    1.000
    C114     C        0.48170    0.74860    0.78820    1.000
    C115     C        0.47730    0.69030    0.82590    1.000
    C116     C        0.44140    0.69280    0.89480    1.000
    N1       N        0.46810    0.86310    0.23990    1.000
    N2       N        0.72650    0.50400    0.19660    1.000
    N3       N        0.33730    0.06840    0.24920    1.000
    N4       N        0.07110    0.63690    0.26010    1.000
    N5       N        0.92710    0.99600    0.30340    1.000
    N6       N        0.15490    0.43160    0.25080    1.000
    N7       N        0.70800    0.76010    0.36310    1.000
    N8       N        0.92310    0.80340    0.00400    1.000
    N9       N        0.58650    0.75080    0.56840    1.000
    N10      N        0.33120    0.73990    0.13690    1.000
    N11      N        0.23050    0.69660    0.49600    1.000
    N12      N        0.40570    0.74920    0.93160    1.000
    O1       O        0.51330    0.97590    0.18990    1.000
    O2       O        0.51020    0.97860    0.29120    1.000
    O3       O        0.85460    0.05370    0.12050    1.000
    O4       O        0.23430    0.80470    0.04810    1.000
    O5       O        0.27650    0.88950    0.04510    1.000
    O6       O        0.17910    0.52410    0.31010    1.000
    O7       O        0.28000    0.52140    0.20880    1.000
    O8       O        0.52880    0.44630    0.37950    1.000
    O9       O        0.58710    0.69530    0.45190    1.000
    O10      O        0.71110    0.61050    0.45490    1.000
    O11      O        0.70320    0.81010    0.47590    1.000
    O12      O        0.80140    0.70880    0.47860    1.000
    O13      O        0.97510    0.87950    0.55370    1.000
    O14      O        0.28240    0.95190    0.30470    1.000
    O15      O        0.32160    0.95490    0.38950    1.000
    O16      O        0.48920    0.68990    0.02410    1.000
    O17      O        0.48880    0.79120    0.02140    1.000
    O18      O        0.90830    0.62050    0.94630    1.000
    O19      O        0.03900    0.54810    0.19530    1.000
    O20      O        0.16600    0.54510    0.11050    1.000
    Zn5      Zn       0.60251    0.03569    0.75401    1.000
    Zn6      Zn       0.89221    0.46431    0.74599    1.000
    Zn7      Zn       0.35652    0.24599    0.53569    1.000
    Zn8      Zn       0.63820    0.25401    0.96431    1.000
    H81      H        0.35640    0.99990    0.71150    1.000
    H82      H        0.22570    0.97150    0.75950    1.000
    H83      H        0.22590    0.96810    0.94270    1.000
    H84      H        0.35740    0.99580    0.89860    1.000
    H85      H        0.08390    0.08000    0.89440    1.000
    H86      H        0.93320    0.15400    0.92420    1.000
    H87      H        0.86100    0.99880    0.93000    1.000
    H88      H        0.00840    0.92300    0.90400    1.000
    H89      H        0.52640    0.15570    0.66710    1.000
    H90      H        0.44150    0.26970    0.67730    1.000
    H91      H        0.44000    0.25970    0.86810    1.000
    H92      H        0.52160    0.14610    0.85330    1.000
    H93      H        0.30840    0.36590    0.72370    1.000
    H94      H        0.22320    0.48180    0.74300    1.000
    H95      H        0.33760    0.48950    0.85970    1.000
    H96      H        0.42960    0.37030    0.84430    1.000
    H97      H        0.68700    0.92150    0.65750    1.000
    H98      H        0.75170    0.80540    0.65060    1.000
    H99      H        0.69710    0.80340    0.85140    1.000
    H100     H        0.63970    0.91860    0.84840    1.000
    H101     H        0.56780    0.50010    0.78850    1.000
    H102     H        0.45670    0.52850    0.74050    1.000
    H103     H        0.63670    0.53190    0.55730    1.000
    H104     H        0.75180    0.50420    0.60140    1.000
    H105     H        0.55830    0.42000    0.60560    1.000
    H106     H        0.51140    0.34600    0.57580    1.000
    H107     H        0.28980    0.50120    0.57000    1.000
    H108     H        0.33540    0.57700    0.59600    1.000
    H109     H        0.84920    0.34430    0.83290    1.000
    H110     H        0.88850    0.23030    0.82270    1.000
    H111     H        0.06780    0.24030    0.63190    1.000
    H112     H        0.02100    0.35390    0.64670    1.000
    H113     H        0.89800    0.13410    0.77630    1.000
    H114     H        0.94800    0.01820    0.75700    1.000
    H115     H        0.18680    0.01050    0.64030    1.000
    H116     H        0.14420    0.12970    0.65570    1.000
    H117     H        0.76600    0.57850    0.84250    1.000
    H118     H        0.70770    0.69460    0.84940    1.000
    H119     H        0.85190    0.69660    0.64860    1.000
    H120     H        0.90670    0.58140    0.65160    1.000
    H121     H        0.06790    0.28850    0.49990    1.000
    H122     H        0.98520    0.24050    0.47150    1.000
    H123     H        0.16860    0.05730    0.46810    1.000
    H124     H        0.25600    0.10140    0.49580    1.000
    H125     H        0.97830    0.10560    0.58000    1.000
    H126     H        0.85740    0.07580    0.65400    1.000
    H127     H        0.79100    0.07000    0.49880    1.000
    H128     H        0.91240    0.09600    0.42300    1.000
    H129     H        0.19350    0.33290    0.65570    1.000
    H130     H        0.11880    0.32270    0.76970    1.000
    H131     H        0.30810    0.13190    0.75970    1.000
    H132     H        0.37490    0.14670    0.64610    1.000
    H133     H        0.03210    0.27630    0.86590    1.000
    H134     H        0.96620    0.25700    0.98180    1.000
    H135     H        0.19730    0.14030    0.98950    1.000
    H136     H        0.27390    0.15570    0.87030    1.000
    H137     H        0.34450    0.34250    0.42150    1.000
    H138     H        0.40230    0.34940    0.30540    1.000
    H139     H        0.54850    0.14860    0.30340    1.000
    H140     H        0.48810    0.15160    0.41860    1.000
    H141     H        0.35630    0.21150    0.00010    1.000
    H142     H        0.19720    0.25950    0.02850    1.000
    H143     H        0.19400    0.44270    0.03190    1.000
    H144     H        0.35320    0.39860    0.00420    1.000
    H145     H        0.16390    0.39440    0.92000    1.000
    H146     H        0.08720    0.42420    0.84600    1.000
    H147     H        0.85980    0.43000    0.00120    1.000
    H148     H        0.93140    0.40400    0.07700    1.000
    H149     H        0.68210    0.16710    0.84430    1.000
    H150     H        0.71120    0.17730    0.73030    1.000
    H151     H        0.69970    0.36810    0.74030    1.000
    H152     H        0.66770    0.35330    0.85390    1.000
    H153     H        0.67430    0.22370    0.63410    1.000
    H154     H        0.70500    0.24300    0.51820    1.000
    H155     H        0.82710    0.35970    0.51050    1.000
    H156     H        0.79990    0.34430    0.62970    1.000
    H157     H        0.60850    0.15750    0.07850    1.000
    H158     H        0.55710    0.15060    0.19460    1.000
    H159     H        0.50050    0.35140    0.19660    1.000
    H160     H        0.55830    0.34840    0.08140    1.000
    C117     C        0.45640    0.01630    0.77150    1.000
    C118     C        0.37170    0.99700    0.80100    1.000
    C119     C        0.33170    0.99240    0.75880    1.000
    C120     C        0.25260    0.97600    0.78800    1.000
    C121     C        0.21810    0.96740    0.85260    1.000
    C122     C        0.25350    0.97410    0.89530    1.000
    C123     C        0.33280    0.99020    0.86900    1.000
    C124     C        0.05580    0.99580    0.89780    1.000
    C125     C        0.03780    0.06380    0.90260    1.000
    C126     C        0.94840    0.10700    0.91980    1.000
    C127     C        0.88100    0.08500    0.93080    1.000
    C128     C        0.90620    0.01540    0.92360    1.000
    C129     C        0.99290    0.97020    0.90780    1.000
    C130     C        0.78570    0.13210    0.94710    1.000
    C131     C        0.50730    0.17710    0.70870    1.000
    C132     C        0.45710    0.24590    0.71410    1.000
    C133     C        0.42920    0.28060    0.77360    1.000
    C134     C        0.45620    0.23940    0.82660    1.000
    C135     C        0.50520    0.17120    0.81720    1.000
    C136     C        0.37720    0.35420    0.78300    1.000
    C137     C        0.31640    0.38920    0.75280    1.000
    C138     C        0.26520    0.45970    0.76430    1.000
    C139     C        0.33090    0.46430    0.83150    1.000
    C140     C        0.38740    0.39110    0.82290    1.000
    C141     C        0.69140    0.89700    0.69740    1.000
    C142     C        0.72810    0.82690    0.69290    1.000
    C143     C        0.73010    0.78820    0.75140    1.000
    C144     C        0.69680    0.82590    0.80970    1.000
    C145     C        0.66380    0.89480    0.80720    1.000
    C146     C        0.74420    0.48370    0.72850    1.000
    C147     C        0.66970    0.50300    0.69900    1.000
    C148     C        0.58290    0.50760    0.74120    1.000
    C149     C        0.51660    0.52400    0.71200    1.000
    C150     C        0.53810    0.53260    0.64740    1.000
    C151     C        0.62290    0.52590    0.60470    1.000
    C152     C        0.69200    0.50980    0.63100    1.000
    C153     C        0.44940    0.50420    0.60220    1.000
    C154     C        0.50420    0.43620    0.59740    1.000
    C155     C        0.47520    0.39300    0.58020    1.000
    C156     C        0.39680    0.41500    0.56920    1.000
    C157     C        0.34520    0.48460    0.57640    1.000
    C158     C        0.37090    0.52980    0.59220    1.000
    C159     C        0.36490    0.36790    0.55290    1.000
    C160     C        0.89310    0.32290    0.79130    1.000
    C161     C        0.91710    0.25410    0.78590    1.000
    C162     C        0.98340    0.21940    0.72640    1.000
    C163     C        0.02220    0.26060    0.67340    1.000
    C164     C        0.99360    0.32880    0.68280    1.000
    C165     C        0.01440    0.14580    0.71700    1.000
    C166     C        0.95840    0.11080    0.74720    1.000
    C167     C        0.98920    0.04030    0.73570    1.000
    C168     C        0.12670    0.03570    0.66850    1.000
    C169     C        0.10140    0.10890    0.67710    1.000
    C170     C        0.78580    0.60300    0.80260    1.000
    C171     C        0.74790    0.67310    0.80710    1.000
    C172     C        0.76970    0.71180    0.74860    1.000
    C173     C        0.83240    0.67410    0.69030    1.000
    C174     C        0.86580    0.60520    0.69280    1.000
    C175     C        0.22790    0.22850    0.51630    1.000
    C176     C        0.17270    0.19900    0.49700    1.000
    C177     C        0.09050    0.24120    0.49240    1.000
    C178     C        0.04060    0.21200    0.47600    1.000
    C179     C        0.07070    0.14740    0.46740    1.000
    C180     C        0.14880    0.10470    0.47410    1.000
    C181     C        0.20180    0.13100    0.49020    1.000
    C182     C        0.95360    0.10220    0.49580    1.000
    C183     C        0.94040    0.09740    0.56380    1.000
    C184     C        0.86820    0.08020    0.60700    1.000
    C185     C        0.81180    0.06920    0.58500    1.000
    C186     C        0.82980    0.07640    0.51540    1.000
    C187     C        0.90070    0.09220    0.47020    1.000
    C188     C        0.73280    0.05290    0.63210    1.000
    C189     C        0.21600    0.29130    0.67710    1.000
    C190     C        0.17120    0.28590    0.74590    1.000
    C191     C        0.20280    0.22640    0.78060    1.000
    C192     C        0.28280    0.17340    0.73940    1.000
    C193     C        0.32240    0.18280    0.67120    1.000
    C194     C        0.16020    0.21700    0.85420    1.000
    C195     C        0.06920    0.24720    0.88920    1.000
    C196     C        0.02950    0.23570    0.95970    1.000
    C197     C        0.16240    0.16850    0.96430    1.000
    C198     C        0.21030    0.17710    0.89110    1.000
    C199     C        0.38880    0.30260    0.39700    1.000
    C200     C        0.42100    0.30710    0.32690    1.000
    C201     C        0.48150    0.24860    0.28820    1.000
    C202     C        0.50650    0.19030    0.32590    1.000
    C203     C        0.47100    0.19280    0.39480    1.000
    C204     C        0.47270    0.27150    0.98370    1.000
    C205     C        0.36870    0.30100    0.00300    1.000
    C206     C        0.32410    0.25880    0.00760    1.000
    C207     C        0.22860    0.28800    0.02400    1.000
    C208     C        0.18550    0.35260    0.03260    1.000
    C209     C        0.22760    0.39530    0.02590    1.000
    C210     C        0.32300    0.36900    0.00980    1.000
    C211     C        0.05160    0.39780    0.00420    1.000
    C212     C        0.10160    0.40260    0.93620    1.000
    C213     C        0.05540    0.41980    0.89300    1.000
    C214     C        0.96600    0.43080    0.91500    1.000
    C215     C        0.92160    0.42360    0.98460    1.000
    C216     C        0.96310    0.40780    0.02980    1.000
    C217     C        0.91780    0.44710    0.86790    1.000
    C218     C        0.68440    0.20870    0.82290    1.000
    C219     C        0.70300    0.21410    0.75410    1.000
    C220     C        0.70980    0.27360    0.71940    1.000
    C221     C        0.69560    0.32660    0.76060    1.000
    C222     C        0.67640    0.31720    0.82880    1.000
    C223     C        0.73140    0.28300    0.64580    1.000
    C224     C        0.70560    0.25280    0.61080    1.000
    C225     C        0.72490    0.26430    0.54030    1.000
    C226     C        0.79520    0.33150    0.53570    1.000
    C227     C        0.77850    0.32290    0.60890    1.000
    C228     C        0.58840    0.19740    0.10300    1.000
    C229     C        0.55500    0.19290    0.17310    1.000
    C230     C        0.51830    0.25140    0.21180    1.000
    C231     C        0.52270    0.30970    0.17410    1.000
    C232     C        0.55860    0.30720    0.10520    1.000
    N13      N        0.53190    0.13690    0.76010    1.000
    N14      N        0.27350    0.49600    0.80340    1.000
    N15      N        0.66270    0.93160    0.75080    1.000
    N16      N        0.92890    0.36310    0.73990    1.000
    N17      N        0.07290    0.00400    0.69660    1.000
    N18      N        0.84510    0.56840    0.74920    1.000
    N19      N        0.29200    0.23990    0.63690    1.000
    N20      N        0.07690    0.19660    0.99600    1.000
    N21      N        0.41350    0.24920    0.43160    1.000
    N22      N        0.66880    0.26010    0.86310    1.000
    N23      N        0.76950    0.30340    0.50400    1.000
    N24      N        0.59430    0.25080    0.06840    1.000
    O21      O        0.48670    0.02410    0.81010    1.000
    O22      O        0.48980    0.02140    0.70880    1.000
    O23      O        0.14540    0.94630    0.87950    1.000
    O24      O        0.76570    0.19530    0.95190    1.000
    O25      O        0.72350    0.11050    0.95490    1.000
    O26      O        0.82090    0.47590    0.68990    1.000
    O27      O        0.72000    0.47860    0.79120    1.000
    O28      O        0.47120    0.55370    0.62050    1.000
    O29      O        0.41290    0.30470    0.54810    1.000
    O30      O        0.28890    0.38950    0.54510    1.000
    O31      O        0.29680    0.18990    0.52410    1.000
    O32      O        0.19860    0.29120    0.52140    1.000
    O33      O        0.02490    0.12050    0.44630    1.000
    O34      O        0.71760    0.04810    0.69530    1.000
    O35      O        0.67840    0.04510    0.61050    1.000
    O36      O        0.51080    0.31010    0.97590    1.000
    O37      O        0.51120    0.20880    0.97860    1.000
    O38      O        0.09170    0.37950    0.05370    1.000
    O39      O        0.96100    0.45190    0.80470    1.000
    O40      O        0.83400    0.45490    0.88950    1.000
