data_functionalizedCrystal
_audit_creation_method	'EQeq! by Chris Wilmer'
_symmetry_space_group_name_H-M	'P1'
_symmetry_Int_Tables_number	1
_symmetry_cell_setting	triclinic
loop_
_symmetry_equiv_pos_as_xyz
  x,y,z
_cell_length_a	20.049
_cell_length_b	20.287
_cell_length_c	20.8323
_cell_angle_alpha	60.8622
_cell_angle_beta	77.3212
_cell_angle_gamma	63.2069
loop_
_atom_site_label
_atom_site_type_symbol
_atom_site_fract_x
_atom_site_fract_y
_atom_site_fract_z
_atom_site_charge
Mof_Zn	Zn	0.88033	0.84024	0.02982	1.19
Mof_Zn	Zn	0.64996	0.03294	0.80052	1.191
Mof_Zn	Zn	0.61967	0.12994	0.02982	1.191
Mof_Zn	Zn	0.85004	0.16654	0.80052	1.19
Mof_Zn	Zn	0.75	0.04176	0.91648	1.141
Mof_H 	H 	0.356	0.1023	0.9024	0.029
Mof_H 	H 	0.5189	0.0057	0.6644	0.062
Mof_H 	H 	0.0681	0.6678	0.2106	0.017
Mof_H 	H 	0.4359	0.1568	0.0234	0.07
Mof_H 	H 	0.4687	0.0626	0.847	0.069
Mof_H 	H 	0.638	0.0087	0.2154	0.068
Mof_H 	H 	0.4642	0.2365	0.6278	0.034
Mof_H 	H 	0.3392	0.1494	0.9822	0.032
Mof_H 	H 	0.3763	0.2844	0.5428	0.086
Mof_H 	H 	0.8903	0.6903	0.9926	0.078
Mof_H 	H 	0.7069	0.8459	0.8092	0.06
Mof_H 	H 	0.8608	0.6259	0.9438	0.03
Mof_H 	H 	0.7726	0.706	0.8472	0.046
Mof_H 	H 	0.6966	0.8926	0.324	0.05
Mof_H 	H 	0.452	0.9303	0.5836	0.126
Mof_H 	H 	0.5193	0.9455	0.5914	0.126
Mof_H 	H 	0.4602	0.9342	0.6546	0.12
Mof_H 	H 	0.2782	0.3109	0.4906	0.057
Mof_H 	H 	0.3382	0.3115	0.4274	0.06
Mof_H 	H 	0.1477	0.5406	0.2912	0.098
Mof_H 	H 	0.2437	0.4105	0.3338	0.058
Mof_H 	H 	0.1817	0.4141	0.3948	0.057
Mof_H 	H 	0.9817	0.5641	0.1526	0.045
Mof_H 	H 	0.6618	0.1305	0.6194	0.06
Mof_H 	H 	0.7305	0.2034	0.5074	0.041
Mof_H 	H 	0.024	0.353	0.2118	0.115
Mof_H 	H 	0.9647	0.4343	0.2156	0.11
Mof_H 	H 	0.0196	0.4388	0.1486	0.11
Mof_H 	H 	0.144	0.9953	0.9024	0.033
Mof_H 	H 	0.9811	0.3299	0.6644	0.062
Mof_H 	H 	0.4319	0.1216	0.2106	0.018
Mof_H 	H 	0.0641	0.8198	0.0234	0.072
Mof_H 	H 	0.0313	0.0904	0.847	0.065
Mof_H 	H 	0.862	0.7759	0.2154	0.067
Mof_H 	H 	0.0358	0.1357	0.6278	0.035
Mof_H 	H 	0.1608	0.8684	0.9822	0.03
Mof_H 	H 	0.1237	0.1728	0.5428	0.086
Mof_H 	H 	0.6097	0.3171	0.9926	0.077
Mof_H 	H 	0.7931	0.3449	0.8092	0.059
Mof_H 	H 	0.6392	0.4303	0.9438	0.029
Mof_H 	H 	0.7274	0.4468	0.8472	0.045
Mof_H 	H 	0.8034	0.7834	0.324	0.05
Mof_H 	H 	0.048	0.4861	0.5836	0.126
Mof_H 	H 	0.9807	0.4631	0.5914	0.126
Mof_H 	H 	0.0398	0.4112	0.6546	0.12
Mof_H 	H 	0.2218	0.1985	0.4906	0.057
Mof_H 	H 	0.1618	0.2611	0.4274	0.06
Mof_H 	H 	0.3523	0.1682	0.2912	0.098
Mof_H 	H 	0.2563	0.2557	0.3338	0.058
Mof_H 	H 	0.3183	0.1911	0.3948	0.057
Mof_H 	H 	0.5183	0.2833	0.1526	0.047
Mof_H 	H 	0.8382	0.2501	0.6194	0.06
Mof_H 	H 	0.7695	0.2892	0.5074	0.041
Mof_H 	H 	0.476	0.4352	0.2118	0.116
Mof_H 	H 	0.5353	0.3501	0.2156	0.113
Mof_H 	H 	0.4804	0.4126	0.1486	0.111
Mof_C 	C 	0.3964	0.1051	0.9144	-0.012
Mof_C 	C 	0.5122	0.113	0.9548	0.066
Mof_C 	C 	0.5222	0.0844	0.9032	0.068
Mof_C 	C 	0.4904	0.06197	0.63946	-0.052
Mof_C 	C 	0.067	0.62037	0.21526	0.082
Mof_C 	C 	0.4438	0.1382	0.9884	-0.117
Mof_C 	C 	0.7192	0.95896	0.15128	0.056
Mof_C 	C 	0.4626	0.0808	0.882	-0.112
Mof_C 	C 	0.8118	0.8023	0.9362	0.077
Mof_C 	C 	0.4993	0.1175	0.6534	-0.076
Mof_C 	C 	0.4385	0.09133	0.58794	0.051
Mof_C 	C 	0.6815	0.96421	0.21538	-0.106
Mof_C 	C 	0.4577	0.19975	0.6179	0.035
Mof_C 	C 	0.3869	0.1325	0.9628	-0.027
Mof_C 	C 	0.4055	0.22813	0.56654	-0.15
Mof_C 	C 	0.7592	0.8488	0.8792	0.063
Mof_C 	C 	0.8525	0.7202	0.9578	-0.133
Mof_C 	C 	0.7428	0.8145	0.846	-0.115
Mof_C 	C 	0.8365	0.6827	0.9272	-0.006
Mof_C 	C 	0.7816	0.7316	0.8692	-0.025
Mof_C 	C 	0.7172	0.8944	0.279	-0.02
Mof_C 	C 	0.4674	0.9561	0.6024	-0.27
Mof_C 	C 	0.9646	0.709	0.1212	0.411
Mof_C 	C 	0.3048	0.28541	0.45818	-0.037
Mof_C 	C 	0.3957	0.17601	0.54958	0.134
Mof_C 	C 	0.1146	0.54419	0.26342	-0.193
Mof_C 	C 	0.2087	0.38649	0.36402	-0.033
Mof_C 	C 	0.114	0.47423	0.27114	0.154
Mof_C 	C 	0.5533	0.0896	0.7116	0.319
Mof_C 	C 	0.0183	0.62675	0.1743	-0.142
Mof_C 	C 	0.0155	0.5594	0.1806	-0.008
Mof_C 	C 	0.0646	0.4807	0.2302	0.03
Mof_C 	C 	0.7291	0.1385	0.6874	0.063
Mof_C 	C 	0.6957	0.15	0.6196	-0.102
Mof_C 	C 	0.7327	0.2023	0.552	-0.03
Mof_C 	C 	0.0145	0.4082	0.2006	-0.26
Mof_C 	C 	0.1036	0.9805	0.9144	-0.022
Mof_C 	C 	0.9878	0.9322	0.9548	0.079
Mof_C 	C 	0.9778	0.0124	0.9032	0.057
Mof_C 	C 	0.0096	0.29857	0.63946	-0.052
Mof_C 	C 	0.433	0.16437	0.21526	0.08
Mof_C 	C 	0.0562	0.8734	0.9884	-0.127
Mof_C 	C 	0.7808	0.88976	0.15128	0.056
Mof_C 	C 	0.0374	0.0372	0.882	-0.102
Mof_C 	C 	0.6882	0.2615	0.9362	0.076
Mof_C 	C 	0.0007	0.2291	0.6534	-0.075
Mof_C 	C 	0.0615	0.32073	0.58794	0.052
Mof_C 	C 	0.8185	0.82041	0.21538	-0.104
Mof_C 	C 	0.0423	0.18235	0.6179	0.035
Mof_C 	C 	0.1131	0.9047	0.9628	-0.018
Mof_C 	C 	0.0945	0.20533	0.56654	-0.15
Mof_C 	C 	0.7408	0.272	0.8792	0.063
Mof_C 	C 	0.6475	0.322	0.9578	-0.133
Mof_C 	C 	0.7572	0.3395	0.846	-0.115
Mof_C 	C 	0.6635	0.3901	0.9272	-0.007
Mof_C 	C 	0.7184	0.3992	0.8692	-0.025
Mof_C 	C 	0.7828	0.8266	0.279	-0.021
Mof_C 	C 	0.0326	0.4415	0.6024	-0.27
Mof_C 	C 	0.5354	0.1698	0.1212	0.41
Mof_C 	C 	0.1952	0.25641	0.45818	-0.037
Mof_C 	C 	0.1043	0.27441	0.54958	0.134
Mof_C 	C 	0.3854	0.19239	0.26342	-0.192
Mof_C 	C 	0.2913	0.24949	0.36402	-0.033
Mof_C 	C 	0.386	0.25463	0.27114	0.154
Mof_C 	C 	0.9467	0.1988	0.7116	0.319
Mof_C 	C 	0.4817	0.19895	0.1743	-0.14
Mof_C 	C 	0.4845	0.26	0.1806	-0.011
Mof_C 	C 	0.4354	0.2891	0.2302	0.031
Mof_C 	C 	0.7709	0.1741	0.6874	0.063
Mof_C 	C 	0.8043	0.2304	0.6196	-0.102
Mof_C 	C 	0.7673	0.2457	0.552	-0.03
Mof_C 	C 	0.4855	0.3912	0.2006	-0.266
Mof_C 	C 	0.25	0.29445	0.4111	0.061
Mof_N 	N 	0.6289	0.07817	0.91886	-0.203
Mof_N 	N 	0.8156	0.85445	0.9561	-0.24
Mof_N 	N 	0.7657	0.92962	0.91376	-0.204
Mof_N 	N 	0.5953	0.06374	0.88192	-0.236
Mof_N 	N 	0.5811	0.10879	0.96422	-0.245
Mof_N 	N 	0.7028	0.01495	0.0777	-0.23
Mof_N 	N 	0.732	0.92639	0.86782	-0.239
Mof_N 	N 	0.7126	0.0945	0.7556	-0.254
Mof_N 	N 	0.8711	0.00297	0.91886	-0.204
Mof_N 	N 	0.6844	0.18945	0.9561	-0.241
Mof_N 	N 	0.7343	0.15662	0.91376	-0.205
Mof_N 	N 	0.9047	0.05434	0.88192	-0.235
Mof_N 	N 	0.9189	0.92699	0.96422	-0.244
Mof_N 	N 	0.7972	0.90735	0.0777	-0.232
Mof_N 	N 	0.768	0.20579	0.86782	-0.24
Mof_N 	N 	0.7874	0.1499	0.7556	-0.254
Mof_N 	N 	0.75	0.98213	0.03574	-0.206
Mof_N 	N 	0.75	0.10177	0.79646	-0.203
Mof_O 	O 	0.5956	0.01548	0.74344	-0.454
Mof_O 	O 	0.9214	0.71637	0.08486	-0.494
Mof_O 	O 	0.5566	0.1417	0.7238	-0.387
Mof_O 	O 	0.424	0.04265	0.5691	-0.132
Mof_O 	O 	0.15775	0.39558	0.31864	-0.191
Mof_O 	O 	0.3461	0.19851	0.50018	-0.19
Mof_O 	O 	0.9659	0.77171	0.11358	-0.443
Mof_O 	O 	0.0695	0.40638	0.24044	-0.131
Mof_O 	O 	0.9044	0.24108	0.74344	-0.454
Mof_O 	O 	0.5786	0.19877	0.08486	-0.493
Mof_O 	O 	0.9434	0.1345	0.7238	-0.388
Mof_O 	O 	0.076	0.38825	0.5691	-0.132
Mof_O 	O 	0.34225	0.28578	0.31864	-0.19
Mof_O 	O 	0.1539	0.30131	0.50018	-0.19
Mof_O 	O 	0.5341	0.11471	0.11358	-0.441
Mof_O 	O 	0.4305	0.35318	0.24044	-0.13
Mof_Zn	Zn	0.11967	0.15976	0.97018	1.189
Mof_Zn	Zn	0.35004	0.96706	0.19948	1.19
Mof_Zn	Zn	0.38033	0.87006	0.97018	1.191
Mof_Zn	Zn	0.14996	0.83346	0.19948	1.19
Mof_Zn	Zn	0.25	0.95824	0.08352	1.141
Mof_H 	H 	0.644	0.8977	0.0976	0.029
Mof_H 	H 	0.4811	0.9943	0.3356	0.062
Mof_H 	H 	0.9319	0.3322	0.7894	0.017
Mof_H 	H 	0.5641	0.8432	0.9766	0.07
Mof_H 	H 	0.5313	0.9374	0.153	0.069
Mof_H 	H 	0.362	0.9913	0.7846	0.068
Mof_H 	H 	0.5358	0.7635	0.3722	0.034
Mof_H 	H 	0.6608	0.8506	0.0178	0.032
Mof_H 	H 	0.6237	0.7156	0.4572	0.086
Mof_H 	H 	0.1097	0.3097	0.0074	0.078
Mof_H 	H 	0.2931	0.1541	0.1908	0.06
Mof_H 	H 	0.1392	0.3741	0.0562	0.03
Mof_H 	H 	0.2274	0.294	0.1528	0.046
Mof_H 	H 	0.3034	0.1074	0.676	0.05
Mof_H 	H 	0.548	0.0697	0.4164	0.126
Mof_H 	H 	0.4807	0.0545	0.4086	0.126
Mof_H 	H 	0.5398	0.0658	0.3454	0.12
Mof_H 	H 	0.7218	0.6891	0.5094	0.057
Mof_H 	H 	0.6618	0.6885	0.5726	0.06
Mof_H 	H 	0.8523	0.4594	0.7088	0.098
Mof_H 	H 	0.7563	0.5895	0.6662	0.058
Mof_H 	H 	0.8183	0.5859	0.6052	0.057
Mof_H 	H 	0.0183	0.4359	0.8474	0.045
Mof_H 	H 	0.3382	0.8695	0.3806	0.06
Mof_H 	H 	0.2695	0.7966	0.4926	0.041
Mof_H 	H 	0.976	0.647	0.7882	0.115
Mof_H 	H 	0.0353	0.5657	0.7844	0.11
Mof_H 	H 	0.9804	0.5612	0.8514	0.11
Mof_H 	H 	0.856	0.0047	0.0976	0.033
Mof_H 	H 	0.0189	0.6701	0.3356	0.062
Mof_H 	H 	0.5681	0.8784	0.7894	0.018
Mof_H 	H 	0.9359	0.1802	0.9766	0.072
Mof_H 	H 	0.9687	0.9096	0.153	0.065
Mof_H 	H 	0.138	0.2241	0.7846	0.067
Mof_H 	H 	0.9642	0.8643	0.3722	0.035
Mof_H 	H 	0.8392	0.1316	0.0178	0.03
Mof_H 	H 	0.8763	0.8272	0.4572	0.086
Mof_H 	H 	0.3903	0.6829	0.0074	0.077
Mof_H 	H 	0.2069	0.6551	0.1908	0.059
Mof_H 	H 	0.3608	0.5697	0.0562	0.029
Mof_H 	H 	0.2726	0.5532	0.1528	0.045
Mof_H 	H 	0.1966	0.2166	0.676	0.05
Mof_H 	H 	0.952	0.5139	0.4164	0.126
Mof_H 	H 	0.0193	0.5369	0.4086	0.126
Mof_H 	H 	0.9602	0.5888	0.3454	0.12
Mof_H 	H 	0.7782	0.8015	0.5094	0.057
Mof_H 	H 	0.8382	0.7389	0.5726	0.06
Mof_H 	H 	0.6477	0.8318	0.7088	0.098
Mof_H 	H 	0.7437	0.7443	0.6662	0.058
Mof_H 	H 	0.6817	0.8089	0.6052	0.057
Mof_H 	H 	0.4817	0.7167	0.8474	0.047
Mof_H 	H 	0.1618	0.7499	0.3806	0.06
Mof_H 	H 	0.2305	0.7108	0.4926	0.041
Mof_H 	H 	0.524	0.5648	0.7882	0.116
Mof_H 	H 	0.4647	0.6499	0.7844	0.113
Mof_H 	H 	0.5196	0.5874	0.8514	0.111
Mof_C 	C 	0.6036	0.8949	0.0856	-0.012
Mof_C 	C 	0.4878	0.887	0.0452	0.066
Mof_C 	C 	0.4778	0.9156	0.0968	0.068
Mof_C 	C 	0.5096	0.93803	0.36054	-0.052
Mof_C 	C 	0.933	0.37963	0.78474	0.082
Mof_C 	C 	0.5562	0.8618	0.0116	-0.117
Mof_C 	C 	0.2808	0.04104	0.84872	0.056
Mof_C 	C 	0.5374	0.9192	0.118	-0.112
Mof_C 	C 	0.1882	0.1977	0.0638	0.077
Mof_C 	C 	0.5007	0.8825	0.3466	-0.076
Mof_C 	C 	0.5615	0.90867	0.41206	0.051
Mof_C 	C 	0.3185	0.03579	0.78462	-0.106
Mof_C 	C 	0.5423	0.80025	0.3821	0.035
Mof_C 	C 	0.6131	0.8675	0.0372	-0.027
Mof_C 	C 	0.5945	0.77187	0.43346	-0.15
Mof_C 	C 	0.2408	0.1512	0.1208	0.063
Mof_C 	C 	0.1475	0.2798	0.0422	-0.133
Mof_C 	C 	0.2572	0.1855	0.154	-0.115
Mof_C 	C 	0.1635	0.3173	0.0728	-0.006
Mof_C 	C 	0.2184	0.2684	0.1308	-0.025
Mof_C 	C 	0.2828	0.1056	0.721	-0.02
Mof_C 	C 	0.5326	0.0439	0.3976	-0.27
Mof_C 	C 	0.0354	0.291	0.8788	0.411
Mof_C 	C 	0.6952	0.71459	0.54182	-0.037
Mof_C 	C 	0.6043	0.82399	0.45042	0.134
Mof_C 	C 	0.8854	0.45581	0.73658	-0.193
Mof_C 	C 	0.7913	0.61351	0.63598	-0.033
Mof_C 	C 	0.886	0.52577	0.72886	0.154
Mof_C 	C 	0.4467	0.9104	0.2884	0.319
Mof_C 	C 	0.9817	0.37325	0.8257	-0.142
Mof_C 	C 	0.9845	0.4406	0.8194	-0.008
Mof_C 	C 	0.9354	0.5193	0.7698	0.03
Mof_C 	C 	0.2709	0.8615	0.3126	0.063
Mof_C 	C 	0.3043	0.85	0.3804	-0.102
Mof_C 	C 	0.2673	0.7977	0.448	-0.03
Mof_C 	C 	0.9855	0.5918	0.7994	-0.26
Mof_C 	C 	0.8964	0.0195	0.0856	-0.022
Mof_C 	C 	0.0122	0.0678	0.0452	0.079
Mof_C 	C 	0.0222	0.9876	0.0968	0.057
Mof_C 	C 	0.9904	0.70143	0.36054	-0.052
Mof_C 	C 	0.567	0.83563	0.78474	0.08
Mof_C 	C 	0.9438	0.1266	0.0116	-0.127
Mof_C 	C 	0.2192	0.11024	0.84872	0.056
Mof_C 	C 	0.9626	0.9628	0.118	-0.102
Mof_C 	C 	0.3118	0.7385	0.0638	0.076
Mof_C 	C 	0.9993	0.7709	0.3466	-0.075
Mof_C 	C 	0.9385	0.67927	0.41206	0.052
Mof_C 	C 	0.1815	0.17959	0.78462	-0.104
Mof_C 	C 	0.9577	0.81765	0.3821	0.035
Mof_C 	C 	0.8869	0.0953	0.0372	-0.018
Mof_C 	C 	0.9055	0.79467	0.43346	-0.15
Mof_C 	C 	0.2592	0.728	0.1208	0.063
Mof_C 	C 	0.3525	0.678	0.0422	-0.133
Mof_C 	C 	0.2428	0.6605	0.154	-0.115
Mof_C 	C 	0.3365	0.6099	0.0728	-0.007
Mof_C 	C 	0.2816	0.6008	0.1308	-0.025
Mof_C 	C 	0.2172	0.1734	0.721	-0.021
Mof_C 	C 	0.9674	0.5585	0.3976	-0.27
Mof_C 	C 	0.4646	0.8302	0.8788	0.41
Mof_C 	C 	0.8048	0.74359	0.54182	-0.037
Mof_C 	C 	0.8957	0.72559	0.45042	0.134
Mof_C 	C 	0.6146	0.80761	0.73658	-0.192
Mof_C 	C 	0.7087	0.75051	0.63598	-0.033
Mof_C 	C 	0.614	0.74537	0.72886	0.154
Mof_C 	C 	0.0533	0.8012	0.2884	0.319
Mof_C 	C 	0.5183	0.80105	0.8257	-0.14
Mof_C 	C 	0.5155	0.74	0.8194	-0.011
Mof_C 	C 	0.5646	0.7109	0.7698	0.031
Mof_C 	C 	0.2291	0.8259	0.3126	0.063
Mof_C 	C 	0.1957	0.7696	0.3804	-0.102
Mof_C 	C 	0.2327	0.7543	0.448	-0.03
Mof_C 	C 	0.5145	0.6088	0.7994	-0.266
Mof_C 	C 	0.75	0.70555	0.5889	0.061
Mof_N 	N 	0.3711	0.92183	0.08114	-0.203
Mof_N 	N 	0.1844	0.14555	0.0439	-0.24
Mof_N 	N 	0.2343	0.07038	0.08624	-0.204
Mof_N 	N 	0.4047	0.93626	0.11808	-0.236
Mof_N 	N 	0.4189	0.89121	0.03578	-0.245
Mof_N 	N 	0.2972	0.98505	0.9223	-0.23
Mof_N 	N 	0.268	0.07361	0.13218	-0.239
Mof_N 	N 	0.2874	0.9055	0.2444	-0.254
Mof_N 	N 	0.1289	0.99703	0.08114	-0.204
Mof_N 	N 	0.3156	0.81055	0.0439	-0.241
Mof_N 	N 	0.2657	0.84338	0.08624	-0.205
Mof_N 	N 	0.0953	0.94566	0.11808	-0.235
Mof_N 	N 	0.0811	0.07301	0.03578	-0.244
Mof_N 	N 	0.2028	0.09265	0.9223	-0.232
Mof_N 	N 	0.232	0.79421	0.13218	-0.24
Mof_N 	N 	0.2126	0.8501	0.2444	-0.254
Mof_N 	N 	0.25	0.01787	0.96426	-0.206
Mof_N 	N 	0.25	0.89823	0.20354	-0.203
Mof_O 	O 	0.4044	0.98452	0.25656	-0.454
Mof_O 	O 	0.0786	0.28363	0.91514	-0.494
Mof_O 	O 	0.4434	0.8583	0.2762	-0.387
Mof_O 	O 	0.576	0.95735	0.4309	-0.132
Mof_O 	O 	0.84225	0.60442	0.68136	-0.191
Mof_O 	O 	0.6539	0.80149	0.49982	-0.19
Mof_O 	O 	0.0341	0.22829	0.88642	-0.443
Mof_O 	O 	0.9305	0.59362	0.75956	-0.131
Mof_O 	O 	0.0956	0.75892	0.25656	-0.454
Mof_O 	O 	0.4214	0.80123	0.91514	-0.493
Mof_O 	O 	0.0566	0.8655	0.2762	-0.388
Mof_O 	O 	0.924	0.61175	0.4309	-0.132
Mof_O 	O 	0.65775	0.71422	0.68136	-0.19
Mof_O 	O 	0.8461	0.69869	0.49982	-0.19
Mof_O 	O 	0.4659	0.88529	0.88642	-0.441
Mof_O 	O 	0.5695	0.64682	0.75956	-0.13
_end
