data_functionalizedCrystal
_audit_creation_method	'EQeq! by Chris Wilmer'
_symmetry_space_group_name_H-M	'P1'
_symmetry_Int_Tables_number	1
_symmetry_cell_setting	triclinic
loop_
_symmetry_equiv_pos_as_xyz
  x,y,z
_cell_length_a	34.026
_cell_length_b	15.046
_cell_length_c	30.424
_cell_angle_alpha	90
_cell_angle_beta	100.625
_cell_angle_gamma	90
loop_
_atom_site_label
_atom_site_type_symbol
_atom_site_fract_x
_atom_site_fract_y
_atom_site_fract_z
_atom_site_charge
Mof_Zn	Zn	0.08216	0.6249	0.09429	1.166
Mof_I 	I 	0.12053	0.73646	0.05685	-0.372
Mof_I 	I 	0.02607	0.65877	0.13594	-0.348
Mof_Zn	Zn	0.3696	0.5979	0.4437	0.706
Mof_I 	I 	0.3892	0.73754	0.40604	-0.849
Mof_I 	I 	0.34376	0.5951	0.51679	0.493
Mof_Zn	Zn	0.17667	0.8573	0.27457	1.167
Mof_I 	I 	0.24065	0.77286	0.30374	-0.381
Mof_I 	I 	0.13504	0.83048	0.19717	-0.396
Mof_N 	N 	0.12178	0.551	0.14033	-0.27
Mof_C 	C 	0.1143	0.4656	0.1472	0.077
Mof_H 	H 	0.0932	0.4372	0.1273	0.006
Mof_C 	C 	0.1355	0.4166	0.1817	-0.12
Mof_H 	H 	0.1288	0.3562	0.1855	0.106
Mof_C 	C 	0.1665	0.4555	0.2106	0.062
Mof_C 	C 	0.1753	0.5436	0.2026	-0.125
Mof_H 	H 	0.1968	0.573	0.2214	0.079
Mof_C 	C 	0.1524	0.5877	0.1671	0.075
Mof_H 	H 	0.159	0.6476	0.1617	-0.011
Mof_C 	C 	0.1895	0.4056	0.2479	0.099
Mof_N 	N 	0.17937	0.3194	0.2511	-0.129
Mof_C 	C 	0.2029	0.2746	0.2847	0.102
Mof_N 	N 	0.23187	0.3092	0.3146	-0.139
Mof_C 	C 	0.238	0.3958	0.3093	0.085
Mof_N 	N 	0.21826	0.4467	0.2757	-0.142
Mof_C 	C 	0.1966	0.1767	0.2841	0.064
Mof_C 	C 	0.1674	0.1386	0.2522	-0.125
Mof_H 	H 	0.1504	0.1747	0.2312	0.093
Mof_C 	C 	0.1631	0.048	0.2511	0.075
Mof_H 	H 	0.1428	0.023	0.2289	-0.011
Mof_N 	N 	0.1857	0.9929	0.2794	-0.274
Mof_C 	C 	0.2141	0.0304	0.3103	0.076
Mof_H 	H 	0.2309	0.9925	0.3306	-0.01
Mof_C 	C 	0.2202	0.1207	0.3141	-0.123
Mof_H 	H 	0.2404	0.1443	0.3369	0.083
Mof_C 	C 	0.2686	0.4422	0.3426	0.055
Mof_C 	C 	0.2895	0.398	0.3789	-0.119
Mof_H 	H 	0.2849	0.3367	0.3836	0.089
Mof_C 	C 	0.3173	0.4448	0.4084	0.069
Mof_H 	H 	0.3309	0.415	0.4343	-0.006
Mof_N 	N 	0.3263	0.5306	0.4026	-0.31
Mof_C 	C 	0.3055	0.5713	0.3668	0.075
Mof_H 	H 	0.3112	0.632	0.3622	-0.013
Mof_C 	C 	0.2768	0.5312	0.3366	-0.133
Mof_H 	H 	0.2625	0.5634	0.3118	0.092
Mof_N 	N 	0.0647	0.5235	0.0486	-0.273
Mof_C 	C 	0.0333	0.4701	0.0508	0.066
Mof_H 	H 	0.0153	0.4851	0.0701	-0.004
Mof_C 	C 	0.0268	0.3926	0.0248	-0.117
Mof_H 	H 	0.0046	0.3556	0.0265	0.076
Mof_C 	C 	0.052	0.3709	0.9978	0.055
Mof_C 	C 	0.0837	0.4271	0.9948	-0.128
Mof_H 	H 	0.1015	0.4146	0.9749	0.075
Mof_C 	C 	0.0887	0.5023	0.0217	0.079
Mof_H 	H 	0.1108	0.5401	0.0204	-0.02
Mof_C 	C 	0.0466	0.2885	0.9696	0.079
Mof_N 	N 	0.0712	0.2784	0.9405	-0.145
Mof_C 	C 	0.0646	0.2049	0.9142	0.087
Mof_N 	N 	0.0354	0.147	0.9164	-0.134
Mof_C 	C 	0.0137	0.1632	0.9471	0.08
Mof_N 	N 	0.0181	0.2333	0.9756	-0.148
Mof_C 	C 	0.0911	0.1911	0.8817	0.067
Mof_C 	C 	0.1273	0.2347	0.8847	-0.119
Mof_H 	H 	0.1355	0.2758	0.9083	0.072
Mof_C 	C 	0.1511	0.22	0.8549	0.082
Mof_H 	H 	0.1753	0.2524	0.8575	-0.014
Mof_N 	N 	0.1416	0.161	0.8217	-0.28
Mof_C 	C 	0.1082	0.1161	0.8196	0.094
Mof_H 	H 	0.1019	0.0731	0.7965	-0.021
Mof_C 	C 	0.0817	0.1266	0.8481	-0.12
Mof_H 	H 	0.058	0.0918	0.8453	0.088
Mof_C 	C 	0.9801	0.1026	0.9505	0.064
Mof_C 	C 	0.9629	0.0542	0.9117	-0.143
Mof_H 	H 	0.9723	0.0595	0.8843	0.095
Mof_C 	C 	0.9312	0.9981	0.9164	0.118
Mof_H 	H 	0.9198	0.9642	0.8909	-0.031
Mof_N 	N 	0.9164	0.988	0.9506	-0.311
Mof_C 	C 	0.9317	0.0366	0.9874	0.062
Mof_H 	H 	0.9207	0.032	0.0139	-0.007
Mof_C 	C 	0.9638	0.0937	0.9858	-0.123
Mof_H 	H 	0.9743	0.1276	0.0117	0.081
Mof_Zn	Zn	0.3641	0.5909	0.4598	0.671
Mof_I 	I 	0.3796	0.7385	0.4262	0.413
Mof_I 	I 	0.3413	0.5623	0.5319	-0.938
Mof_Zn	Zn	0.58216	0.1249	0.09429	1.165
Mof_I 	I 	0.62053	0.23646	0.05685	-0.373
Mof_I 	I 	0.52607	0.15877	0.13594	-0.349
Mof_Zn	Zn	0.8696	0.0979	0.4437	0.705
Mof_I 	I 	0.8892	0.23754	0.40604	-0.85
Mof_I 	I 	0.84376	0.0951	0.51679	0.491
Mof_Zn	Zn	0.67667	0.3573	0.27457	1.165
Mof_I 	I 	0.74065	0.27286	0.30374	-0.382
Mof_I 	I 	0.63504	0.33048	0.19717	-0.397
Mof_N 	N 	0.62178	0.051	0.14033	-0.271
Mof_C 	C 	0.6143	0.9656	0.1472	0.077
Mof_H 	H 	0.5932	0.9372	0.1273	0.005
Mof_C 	C 	0.6355	0.9166	0.1817	-0.122
Mof_H 	H 	0.6288	0.8562	0.1855	0.105
Mof_C 	C 	0.6665	0.9555	0.2106	0.061
Mof_C 	C 	0.6753	0.0436	0.2026	-0.127
Mof_H 	H 	0.6968	0.073	0.2214	0.078
Mof_C 	C 	0.6524	0.0877	0.1671	0.074
Mof_H 	H 	0.659	0.1476	0.1617	-0.011
Mof_C 	C 	0.6895	0.9056	0.2479	0.099
Mof_N 	N 	0.67937	0.8194	0.2511	-0.129
Mof_C 	C 	0.7029	0.7746	0.2847	0.102
Mof_N 	N 	0.73187	0.8092	0.3146	-0.139
Mof_C 	C 	0.738	0.8958	0.3093	0.085
Mof_N 	N 	0.71826	0.9467	0.2757	-0.142
Mof_C 	C 	0.6966	0.6767	0.2841	0.065
Mof_C 	C 	0.6674	0.6386	0.2522	-0.125
Mof_H 	H 	0.6504	0.6747	0.2312	0.093
Mof_C 	C 	0.6631	0.548	0.2511	0.075
Mof_H 	H 	0.6428	0.523	0.2289	-0.011
Mof_N 	N 	0.6857	0.4929	0.2794	-0.274
Mof_C 	C 	0.7141	0.5304	0.3103	0.077
Mof_H 	H 	0.7309	0.4925	0.3306	-0.01
Mof_C 	C 	0.7202	0.6207	0.3141	-0.124
Mof_H 	H 	0.7404	0.6443	0.3369	0.083
Mof_C 	C 	0.7686	0.9422	0.3426	0.056
Mof_C 	C 	0.7895	0.898	0.3789	-0.12
Mof_H 	H 	0.7849	0.8367	0.3836	0.089
Mof_C 	C 	0.8173	0.9448	0.4084	0.069
Mof_H 	H 	0.8309	0.915	0.4343	-0.006
Mof_N 	N 	0.8263	0.0306	0.4026	-0.31
Mof_C 	C 	0.8055	0.0713	0.3668	0.075
Mof_H 	H 	0.8112	0.132	0.3622	-0.013
Mof_C 	C 	0.7768	0.0312	0.3366	-0.133
Mof_H 	H 	0.7625	0.0634	0.3118	0.092
Mof_N 	N 	0.5647	0.0235	0.0486	-0.273
Mof_C 	C 	0.5333	0.9701	0.0508	0.066
Mof_H 	H 	0.5153	0.9851	0.0701	-0.004
Mof_C 	C 	0.5268	0.8926	0.0248	-0.116
Mof_H 	H 	0.5046	0.8556	0.0265	0.076
Mof_C 	C 	0.552	0.8709	0.9978	0.054
Mof_C 	C 	0.5837	0.9271	0.9948	-0.128
Mof_H 	H 	0.6015	0.9146	0.9749	0.075
Mof_C 	C 	0.5887	0.0023	0.0217	0.078
Mof_H 	H 	0.6108	0.0401	0.0204	-0.02
Mof_C 	C 	0.5466	0.7885	0.9696	0.079
Mof_N 	N 	0.5712	0.7784	0.9405	-0.145
Mof_C 	C 	0.5646	0.7049	0.9142	0.087
Mof_N 	N 	0.5354	0.647	0.9164	-0.134
Mof_C 	C 	0.5137	0.6632	0.9471	0.079
Mof_N 	N 	0.5181	0.7333	0.9756	-0.148
Mof_C 	C 	0.5911	0.6911	0.8817	0.067
Mof_C 	C 	0.6273	0.7347	0.8847	-0.119
Mof_H 	H 	0.6355	0.7758	0.9083	0.072
Mof_C 	C 	0.6511	0.72	0.8549	0.082
Mof_H 	H 	0.6753	0.7524	0.8575	-0.014
Mof_N 	N 	0.6416	0.661	0.8217	-0.28
Mof_C 	C 	0.6082	0.6161	0.8196	0.094
Mof_H 	H 	0.6019	0.5731	0.7965	-0.021
Mof_C 	C 	0.5817	0.6266	0.8481	-0.12
Mof_H 	H 	0.558	0.5918	0.8453	0.088
Mof_C 	C 	0.4801	0.6026	0.9505	0.065
Mof_C 	C 	0.4629	0.5542	0.9117	-0.143
Mof_H 	H 	0.4723	0.5595	0.8843	0.095
Mof_C 	C 	0.4312	0.4981	0.9164	0.119
Mof_H 	H 	0.4198	0.4642	0.8909	-0.031
Mof_N 	N 	0.4164	0.488	0.9506	-0.311
Mof_C 	C 	0.4317	0.5366	0.9874	0.061
Mof_H 	H 	0.4207	0.532	0.0139	-0.006
Mof_C 	C 	0.4638	0.5937	0.9858	-0.124
Mof_H 	H 	0.4743	0.6276	0.0117	0.082
Mof_Zn	Zn	0.8641	0.0909	0.4598	0.671
Mof_I 	I 	0.8796	0.2385	0.4262	0.413
Mof_I 	I 	0.8413	0.0623	0.5319	-0.938
Mof_Zn	Zn	0.08216	0.3751	0.59429	1.165
Mof_I 	I 	0.12053	0.26354	0.55685	-0.373
Mof_I 	I 	0.02607	0.34123	0.63594	-0.349
Mof_Zn	Zn	0.3696	0.4021	0.9437	0.705
Mof_I 	I 	0.3892	0.26246	0.90604	-0.849
Mof_I 	I 	0.34376	0.4049	0.01679	0.492
Mof_Zn	Zn	0.17667	0.1427	0.77457	1.166
Mof_I 	I 	0.24065	0.22714	0.80374	-0.382
Mof_I 	I 	0.13504	0.16952	0.69717	-0.397
Mof_N 	N 	0.12178	0.449	0.64033	-0.271
Mof_C 	C 	0.1143	0.5344	0.6472	0.076
Mof_H 	H 	0.0932	0.5628	0.6273	0.005
Mof_C 	C 	0.1355	0.5834	0.6817	-0.121
Mof_H 	H 	0.1288	0.6438	0.6855	0.105
Mof_C 	C 	0.1665	0.5445	0.7106	0.061
Mof_C 	C 	0.1753	0.4564	0.7026	-0.126
Mof_H 	H 	0.1968	0.427	0.7214	0.078
Mof_C 	C 	0.1524	0.4123	0.6671	0.074
Mof_H 	H 	0.159	0.3524	0.6617	-0.011
Mof_C 	C 	0.1895	0.5944	0.7479	0.099
Mof_N 	N 	0.17937	0.6806	0.7511	-0.129
Mof_C 	C 	0.2029	0.7254	0.7847	0.102
Mof_N 	N 	0.23187	0.6908	0.8146	-0.139
Mof_C 	C 	0.238	0.6042	0.8093	0.085
Mof_N 	N 	0.21826	0.5533	0.7757	-0.142
Mof_C 	C 	0.1966	0.8233	0.7841	0.064
Mof_C 	C 	0.1674	0.8614	0.7522	-0.124
Mof_H 	H 	0.1504	0.8253	0.7312	0.093
Mof_C 	C 	0.1631	0.952	0.7511	0.075
Mof_H 	H 	0.1428	0.977	0.7289	-0.011
Mof_N 	N 	0.1857	0.0071	0.7794	-0.273
Mof_C 	C 	0.2141	0.9696	0.8103	0.076
Mof_H 	H 	0.2309	0.0075	0.8306	-0.009
Mof_C 	C 	0.2202	0.8793	0.8141	-0.123
Mof_H 	H 	0.2404	0.8557	0.8369	0.083
Mof_C 	C 	0.2686	0.5578	0.8426	0.055
Mof_C 	C 	0.2895	0.602	0.8789	-0.119
Mof_H 	H 	0.2849	0.6633	0.8836	0.089
Mof_C 	C 	0.3173	0.5552	0.9084	0.069
Mof_H 	H 	0.3309	0.585	0.9343	-0.006
Mof_N 	N 	0.3263	0.4694	0.9026	-0.31
Mof_C 	C 	0.3055	0.4287	0.8668	0.075
Mof_H 	H 	0.3112	0.368	0.8622	-0.013
Mof_C 	C 	0.2768	0.4688	0.8366	-0.133
Mof_H 	H 	0.2625	0.4366	0.8118	0.092
Mof_N 	N 	0.0647	0.4765	0.5486	-0.273
Mof_C 	C 	0.0333	0.5299	0.5508	0.066
Mof_H 	H 	0.0153	0.5149	0.5701	-0.004
Mof_C 	C 	0.0268	0.6074	0.5248	-0.117
Mof_H 	H 	0.0046	0.6444	0.5265	0.076
Mof_C 	C 	0.052	0.6291	0.4978	0.054
Mof_C 	C 	0.0837	0.5729	0.4948	-0.128
Mof_H 	H 	0.1015	0.5854	0.4749	0.075
Mof_C 	C 	0.0887	0.4977	0.5217	0.079
Mof_H 	H 	0.1108	0.4599	0.5204	-0.02
Mof_C 	C 	0.0466	0.7115	0.4696	0.079
Mof_N 	N 	0.0712	0.7216	0.4405	-0.145
Mof_C 	C 	0.0646	0.7951	0.4142	0.087
Mof_N 	N 	0.0354	0.853	0.4164	-0.134
Mof_C 	C 	0.0137	0.8368	0.4471	0.079
Mof_N 	N 	0.0181	0.7667	0.4756	-0.148
Mof_C 	C 	0.0911	0.8089	0.3817	0.067
Mof_C 	C 	0.1273	0.7653	0.3847	-0.119
Mof_H 	H 	0.1355	0.7242	0.4083	0.072
Mof_C 	C 	0.1511	0.78	0.3549	0.082
Mof_H 	H 	0.1753	0.7476	0.3575	-0.014
Mof_N 	N 	0.1416	0.839	0.3217	-0.28
Mof_C 	C 	0.1082	0.8839	0.3196	0.094
Mof_H 	H 	0.1019	0.9269	0.2965	-0.021
Mof_C 	C 	0.0817	0.8734	0.3481	-0.12
Mof_H 	H 	0.058	0.9082	0.3453	0.088
Mof_C 	C 	0.9801	0.8974	0.4505	0.064
Mof_C 	C 	0.9629	0.9458	0.4117	-0.143
Mof_H 	H 	0.9723	0.9405	0.3843	0.095
Mof_C 	C 	0.9312	0.0019	0.4164	0.118
Mof_H 	H 	0.9198	0.0358	0.3909	-0.031
Mof_N 	N 	0.9164	0.012	0.4506	-0.311
Mof_C 	C 	0.9317	0.9634	0.4874	0.061
Mof_H 	H 	0.9207	0.968	0.5139	-0.007
Mof_C 	C 	0.9638	0.9063	0.4858	-0.123
Mof_H 	H 	0.9743	0.8724	0.5117	0.082
Mof_Zn	Zn	0.3641	0.4091	0.9598	0.671
Mof_I 	I 	0.3796	0.2615	0.9262	0.412
Mof_I 	I 	0.3413	0.4377	0.0319	-0.938
Mof_Zn	Zn	0.58216	0.8751	0.59429	1.165
Mof_I 	I 	0.62053	0.76354	0.55685	-0.373
Mof_I 	I 	0.52607	0.84123	0.63594	-0.349
Mof_Zn	Zn	0.8696	0.9021	0.9437	0.705
Mof_I 	I 	0.8892	0.76246	0.90604	-0.85
Mof_I 	I 	0.84376	0.9049	0.01679	0.492
Mof_Zn	Zn	0.67667	0.6427	0.77457	1.165
Mof_I 	I 	0.74065	0.72714	0.80374	-0.382
Mof_I 	I 	0.63504	0.66952	0.69717	-0.397
Mof_N 	N 	0.62178	0.949	0.64033	-0.271
Mof_C 	C 	0.6143	0.0344	0.6472	0.076
Mof_H 	H 	0.5932	0.0628	0.6273	0.005
Mof_C 	C 	0.6355	0.0834	0.6817	-0.122
Mof_H 	H 	0.6288	0.1438	0.6855	0.105
Mof_C 	C 	0.6665	0.0445	0.7106	0.061
Mof_C 	C 	0.6753	0.9564	0.7026	-0.126
Mof_H 	H 	0.6968	0.927	0.7214	0.078
Mof_C 	C 	0.6524	0.9123	0.6671	0.074
Mof_H 	H 	0.659	0.8524	0.6617	-0.011
Mof_C 	C 	0.6895	0.0944	0.7479	0.099
Mof_N 	N 	0.67937	0.1806	0.7511	-0.129
Mof_C 	C 	0.7029	0.2254	0.7847	0.102
Mof_N 	N 	0.73187	0.1908	0.8146	-0.139
Mof_C 	C 	0.738	0.1042	0.8093	0.085
Mof_N 	N 	0.71826	0.0533	0.7757	-0.142
Mof_C 	C 	0.6966	0.3233	0.7841	0.065
Mof_C 	C 	0.6674	0.3614	0.7522	-0.125
Mof_H 	H 	0.6504	0.3253	0.7312	0.093
Mof_C 	C 	0.6631	0.452	0.7511	0.075
Mof_H 	H 	0.6428	0.477	0.7289	-0.011
Mof_N 	N 	0.6857	0.5071	0.7794	-0.274
Mof_C 	C 	0.7141	0.4696	0.8103	0.077
Mof_H 	H 	0.7309	0.5075	0.8306	-0.01
Mof_C 	C 	0.7202	0.3793	0.8141	-0.124
Mof_H 	H 	0.7404	0.3557	0.8369	0.083
Mof_C 	C 	0.7686	0.0578	0.8426	0.056
Mof_C 	C 	0.7895	0.102	0.8789	-0.12
Mof_H 	H 	0.7849	0.1633	0.8836	0.089
Mof_C 	C 	0.8173	0.0552	0.9084	0.07
Mof_H 	H 	0.8309	0.085	0.9343	-0.006
Mof_N 	N 	0.8263	0.9694	0.9026	-0.31
Mof_C 	C 	0.8055	0.9287	0.8668	0.075
Mof_H 	H 	0.8112	0.868	0.8622	-0.013
Mof_C 	C 	0.7768	0.9688	0.8366	-0.133
Mof_H 	H 	0.7625	0.9366	0.8118	0.092
Mof_N 	N 	0.5647	0.9765	0.5486	-0.273
Mof_C 	C 	0.5333	0.0299	0.5508	0.066
Mof_H 	H 	0.5153	0.0149	0.5701	-0.004
Mof_C 	C 	0.5268	0.1074	0.5248	-0.117
Mof_H 	H 	0.5046	0.1444	0.5265	0.076
Mof_C 	C 	0.552	0.1291	0.4978	0.054
Mof_C 	C 	0.5837	0.0729	0.4948	-0.128
Mof_H 	H 	0.6015	0.0854	0.4749	0.075
Mof_C 	C 	0.5887	0.9977	0.5217	0.079
Mof_H 	H 	0.6108	0.9599	0.5204	-0.02
Mof_C 	C 	0.5466	0.2115	0.4696	0.079
Mof_N 	N 	0.5712	0.2216	0.4405	-0.145
Mof_C 	C 	0.5646	0.2951	0.4142	0.087
Mof_N 	N 	0.5354	0.353	0.4164	-0.134
Mof_C 	C 	0.5137	0.3368	0.4471	0.079
Mof_N 	N 	0.5181	0.2667	0.4756	-0.148
Mof_C 	C 	0.5911	0.3089	0.3817	0.067
Mof_C 	C 	0.6273	0.2653	0.3847	-0.119
Mof_H 	H 	0.6355	0.2242	0.4083	0.072
Mof_C 	C 	0.6511	0.28	0.3549	0.082
Mof_H 	H 	0.6753	0.2476	0.3575	-0.014
Mof_N 	N 	0.6416	0.339	0.3217	-0.28
Mof_C 	C 	0.6082	0.3839	0.3196	0.094
Mof_H 	H 	0.6019	0.4269	0.2965	-0.021
Mof_C 	C 	0.5817	0.3734	0.3481	-0.12
Mof_H 	H 	0.558	0.4082	0.3453	0.088
Mof_C 	C 	0.4801	0.3974	0.4505	0.064
Mof_C 	C 	0.4629	0.4458	0.4117	-0.143
Mof_H 	H 	0.4723	0.4405	0.3843	0.095
Mof_C 	C 	0.4312	0.5019	0.4164	0.119
Mof_H 	H 	0.4198	0.5358	0.3909	-0.031
Mof_N 	N 	0.4164	0.512	0.4506	-0.311
Mof_C 	C 	0.4317	0.4634	0.4874	0.061
Mof_H 	H 	0.4207	0.468	0.5139	-0.006
Mof_C 	C 	0.4638	0.4063	0.4858	-0.123
Mof_H 	H 	0.4743	0.3724	0.5117	0.082
Mof_Zn	Zn	0.8641	0.9091	0.9598	0.671
Mof_I 	I 	0.8796	0.7615	0.9262	0.413
Mof_I 	I 	0.8413	0.9377	0.0319	-0.938
Mof_Zn	Zn	0.91784	0.6249	0.40571	1.165
Mof_I 	I 	0.87947	0.73646	0.44315	-0.373
Mof_I 	I 	0.97393	0.65877	0.36406	-0.349
Mof_Zn	Zn	0.6304	0.5979	0.0563	0.705
Mof_I 	I 	0.6108	0.73754	0.09396	-0.849
Mof_I 	I 	0.65624	0.5951	0.98321	0.492
Mof_Zn	Zn	0.82333	0.8573	0.22543	1.166
Mof_I 	I 	0.75935	0.77286	0.19626	-0.382
Mof_I 	I 	0.86496	0.83048	0.30283	-0.397
Mof_N 	N 	0.87822	0.551	0.35967	-0.271
Mof_C 	C 	0.8857	0.4656	0.3528	0.076
Mof_H 	H 	0.9068	0.4372	0.3727	0.005
Mof_C 	C 	0.8645	0.4166	0.3183	-0.121
Mof_H 	H 	0.8712	0.3562	0.3145	0.105
Mof_C 	C 	0.8335	0.4555	0.2894	0.061
Mof_C 	C 	0.8247	0.5436	0.2974	-0.126
Mof_H 	H 	0.8032	0.573	0.2786	0.078
Mof_C 	C 	0.8476	0.5877	0.3329	0.074
Mof_H 	H 	0.841	0.6476	0.3383	-0.011
Mof_C 	C 	0.8105	0.4056	0.2521	0.099
Mof_N 	N 	0.82063	0.3194	0.2489	-0.129
Mof_C 	C 	0.7971	0.2746	0.2153	0.102
Mof_N 	N 	0.76813	0.3092	0.1854	-0.139
Mof_C 	C 	0.762	0.3958	0.1907	0.085
Mof_N 	N 	0.78174	0.4467	0.2243	-0.142
Mof_C 	C 	0.8034	0.1767	0.2159	0.064
Mof_C 	C 	0.8326	0.1386	0.2478	-0.124
Mof_H 	H 	0.8496	0.1747	0.2688	0.093
Mof_C 	C 	0.8369	0.048	0.2489	0.075
Mof_H 	H 	0.8572	0.023	0.2711	-0.011
Mof_N 	N 	0.8143	0.9929	0.2206	-0.273
Mof_C 	C 	0.7859	0.0304	0.1897	0.076
Mof_H 	H 	0.7691	0.9925	0.1694	-0.009
Mof_C 	C 	0.7798	0.1207	0.1859	-0.123
Mof_H 	H 	0.7596	0.1443	0.1631	0.083
Mof_C 	C 	0.7314	0.4422	0.1574	0.055
Mof_C 	C 	0.7105	0.398	0.1211	-0.119
Mof_H 	H 	0.7151	0.3367	0.1164	0.089
Mof_C 	C 	0.6827	0.4448	0.0916	0.069
Mof_H 	H 	0.6691	0.415	0.0657	-0.006
Mof_N 	N 	0.6737	0.5306	0.0974	-0.31
Mof_C 	C 	0.6945	0.5713	0.1332	0.075
Mof_H 	H 	0.6888	0.632	0.1378	-0.013
Mof_C 	C 	0.7232	0.5312	0.1634	-0.133
Mof_H 	H 	0.7375	0.5634	0.1882	0.092
Mof_N 	N 	0.9353	0.5235	0.4514	-0.273
Mof_C 	C 	0.9667	0.4701	0.4492	0.066
Mof_H 	H 	0.9847	0.4851	0.4299	-0.004
Mof_C 	C 	0.9732	0.3926	0.4752	-0.117
Mof_H 	H 	0.9954	0.3556	0.4735	0.076
Mof_C 	C 	0.948	0.3709	0.5022	0.054
Mof_C 	C 	0.9163	0.4271	0.5052	-0.128
Mof_H 	H 	0.8985	0.4146	0.5251	0.075
Mof_C 	C 	0.9113	0.5023	0.4783	0.079
Mof_H 	H 	0.8892	0.5401	0.4796	-0.02
Mof_C 	C 	0.9534	0.2885	0.5304	0.079
Mof_N 	N 	0.9288	0.2784	0.5595	-0.145
Mof_C 	C 	0.9354	0.2049	0.5858	0.087
Mof_N 	N 	0.9646	0.147	0.5836	-0.134
Mof_C 	C 	0.9863	0.1632	0.5529	0.079
Mof_N 	N 	0.9819	0.2333	0.5244	-0.148
Mof_C 	C 	0.9089	0.1911	0.6183	0.067
Mof_C 	C 	0.8727	0.2347	0.6153	-0.119
Mof_H 	H 	0.8645	0.2758	0.5917	0.072
Mof_C 	C 	0.8489	0.22	0.6451	0.082
Mof_H 	H 	0.8247	0.2524	0.6425	-0.014
Mof_N 	N 	0.8584	0.161	0.6783	-0.28
Mof_C 	C 	0.8918	0.1161	0.6804	0.094
Mof_H 	H 	0.8981	0.0731	0.7035	-0.021
Mof_C 	C 	0.9183	0.1266	0.6519	-0.12
Mof_H 	H 	0.942	0.0918	0.6547	0.088
Mof_C 	C 	0.0199	0.1026	0.5495	0.064
Mof_C 	C 	0.0371	0.0542	0.5883	-0.143
Mof_H 	H 	0.0277	0.0595	0.6157	0.095
Mof_C 	C 	0.0688	0.9981	0.5836	0.118
Mof_H 	H 	0.0802	0.9642	0.6091	-0.031
Mof_N 	N 	0.0836	0.988	0.5494	-0.311
Mof_C 	C 	0.0683	0.0366	0.5126	0.061
Mof_H 	H 	0.0793	0.032	0.4861	-0.007
Mof_C 	C 	0.0362	0.0937	0.5142	-0.123
Mof_H 	H 	0.0257	0.1276	0.4883	0.082
Mof_Zn	Zn	0.6359	0.5909	0.0402	0.671
Mof_I 	I 	0.6204	0.7385	0.0738	0.412
Mof_I 	I 	0.6587	0.5623	0.9681	-0.938
Mof_Zn	Zn	0.41784	0.1249	0.40571	1.165
Mof_I 	I 	0.37947	0.23646	0.44315	-0.373
Mof_I 	I 	0.47393	0.15877	0.36406	-0.349
Mof_Zn	Zn	0.1304	0.0979	0.0563	0.705
Mof_I 	I 	0.1108	0.23754	0.09396	-0.85
Mof_I 	I 	0.15624	0.0951	0.98321	0.492
Mof_Zn	Zn	0.32333	0.3573	0.22543	1.165
Mof_I 	I 	0.25935	0.27286	0.19626	-0.382
Mof_I 	I 	0.36496	0.33048	0.30283	-0.397
Mof_N 	N 	0.37822	0.051	0.35967	-0.271
Mof_C 	C 	0.3857	0.9656	0.3528	0.076
Mof_H 	H 	0.4068	0.9372	0.3727	0.005
Mof_C 	C 	0.3645	0.9166	0.3183	-0.122
Mof_H 	H 	0.3712	0.8562	0.3145	0.105
Mof_C 	C 	0.3335	0.9555	0.2894	0.061
Mof_C 	C 	0.3247	0.0436	0.2974	-0.126
Mof_H 	H 	0.3032	0.073	0.2786	0.078
Mof_C 	C 	0.3476	0.0877	0.3329	0.074
Mof_H 	H 	0.341	0.1476	0.3383	-0.011
Mof_C 	C 	0.3105	0.9056	0.2521	0.099
Mof_N 	N 	0.32063	0.8194	0.2489	-0.129
Mof_C 	C 	0.2971	0.7746	0.2153	0.102
Mof_N 	N 	0.26813	0.8092	0.1854	-0.139
Mof_C 	C 	0.262	0.8958	0.1907	0.085
Mof_N 	N 	0.28174	0.9467	0.2243	-0.142
Mof_C 	C 	0.3034	0.6767	0.2159	0.065
Mof_C 	C 	0.3326	0.6386	0.2478	-0.125
Mof_H 	H 	0.3496	0.6747	0.2688	0.093
Mof_C 	C 	0.3369	0.548	0.2489	0.075
Mof_H 	H 	0.3572	0.523	0.2711	-0.011
Mof_N 	N 	0.3143	0.4929	0.2206	-0.274
Mof_C 	C 	0.2859	0.5304	0.1897	0.077
Mof_H 	H 	0.2691	0.4925	0.1694	-0.01
Mof_C 	C 	0.2798	0.6207	0.1859	-0.124
Mof_H 	H 	0.2596	0.6443	0.1631	0.083
Mof_C 	C 	0.2314	0.9422	0.1574	0.056
Mof_C 	C 	0.2105	0.898	0.1211	-0.12
Mof_H 	H 	0.2151	0.8367	0.1164	0.089
Mof_C 	C 	0.1827	0.9448	0.0916	0.07
Mof_H 	H 	0.1691	0.915	0.0657	-0.006
Mof_N 	N 	0.1737	0.0306	0.0974	-0.31
Mof_C 	C 	0.1945	0.0713	0.1332	0.075
Mof_H 	H 	0.1888	0.132	0.1378	-0.013
Mof_C 	C 	0.2232	0.0312	0.1634	-0.133
Mof_H 	H 	0.2375	0.0634	0.1882	0.092
Mof_N 	N 	0.4353	0.0235	0.4514	-0.273
Mof_C 	C 	0.4667	0.9701	0.4492	0.066
Mof_H 	H 	0.4847	0.9851	0.4299	-0.004
Mof_C 	C 	0.4732	0.8926	0.4752	-0.117
Mof_H 	H 	0.4954	0.8556	0.4735	0.076
Mof_C 	C 	0.448	0.8709	0.5022	0.054
Mof_C 	C 	0.4163	0.9271	0.5052	-0.128
Mof_H 	H 	0.3985	0.9146	0.5251	0.075
Mof_C 	C 	0.4113	0.0023	0.4783	0.079
Mof_H 	H 	0.3892	0.0401	0.4796	-0.02
Mof_C 	C 	0.4534	0.7885	0.5304	0.079
Mof_N 	N 	0.4288	0.7784	0.5595	-0.145
Mof_C 	C 	0.4354	0.7049	0.5858	0.087
Mof_N 	N 	0.4646	0.647	0.5836	-0.134
Mof_C 	C 	0.4863	0.6632	0.5529	0.079
Mof_N 	N 	0.4819	0.7333	0.5244	-0.148
Mof_C 	C 	0.4089	0.6911	0.6183	0.067
Mof_C 	C 	0.3727	0.7347	0.6153	-0.119
Mof_H 	H 	0.3645	0.7758	0.5917	0.072
Mof_C 	C 	0.3489	0.72	0.6451	0.082
Mof_H 	H 	0.3247	0.7524	0.6425	-0.014
Mof_N 	N 	0.3584	0.661	0.6783	-0.28
Mof_C 	C 	0.3918	0.6161	0.6804	0.094
Mof_H 	H 	0.3981	0.5731	0.7035	-0.021
Mof_C 	C 	0.4183	0.6266	0.6519	-0.12
Mof_H 	H 	0.442	0.5918	0.6547	0.088
Mof_C 	C 	0.5199	0.6026	0.5495	0.064
Mof_C 	C 	0.5371	0.5542	0.5883	-0.143
Mof_H 	H 	0.5277	0.5595	0.6157	0.095
Mof_C 	C 	0.5688	0.4981	0.5836	0.119
Mof_H 	H 	0.5802	0.4642	0.6091	-0.031
Mof_N 	N 	0.5836	0.488	0.5494	-0.311
Mof_C 	C 	0.5683	0.5366	0.5126	0.061
Mof_H 	H 	0.5793	0.532	0.4861	-0.006
Mof_C 	C 	0.5362	0.5937	0.5142	-0.123
Mof_H 	H 	0.5257	0.6276	0.4883	0.082
Mof_Zn	Zn	0.1359	0.0909	0.0402	0.671
Mof_I 	I 	0.1204	0.2385	0.0738	0.413
Mof_I 	I 	0.1587	0.0623	0.9681	-0.938
Mof_Zn	Zn	0.91784	0.3751	0.90571	1.165
Mof_I 	I 	0.87947	0.26354	0.94315	-0.373
Mof_I 	I 	0.97393	0.34123	0.86406	-0.349
Mof_Zn	Zn	0.6304	0.4021	0.5563	0.705
Mof_I 	I 	0.6108	0.26246	0.59396	-0.85
Mof_I 	I 	0.65624	0.4049	0.48321	0.492
Mof_Zn	Zn	0.82333	0.1427	0.72543	1.166
Mof_I 	I 	0.75935	0.22714	0.69626	-0.382
Mof_I 	I 	0.86496	0.16952	0.80283	-0.397
Mof_N 	N 	0.87822	0.449	0.85967	-0.271
Mof_C 	C 	0.8857	0.5344	0.8528	0.076
Mof_H 	H 	0.9068	0.5628	0.8727	0.005
Mof_C 	C 	0.8645	0.5834	0.8183	-0.121
Mof_H 	H 	0.8712	0.6438	0.8145	0.105
Mof_C 	C 	0.8335	0.5445	0.7894	0.061
Mof_C 	C 	0.8247	0.4564	0.7974	-0.126
Mof_H 	H 	0.8032	0.427	0.7786	0.078
Mof_C 	C 	0.8476	0.4123	0.8329	0.074
Mof_H 	H 	0.841	0.3524	0.8383	-0.011
Mof_C 	C 	0.8105	0.5944	0.7521	0.099
Mof_N 	N 	0.82063	0.6806	0.7489	-0.129
Mof_C 	C 	0.7971	0.7254	0.7153	0.102
Mof_N 	N 	0.76813	0.6908	0.6854	-0.139
Mof_C 	C 	0.762	0.6042	0.6907	0.085
Mof_N 	N 	0.78174	0.5533	0.7243	-0.142
Mof_C 	C 	0.8034	0.8233	0.7159	0.064
Mof_C 	C 	0.8326	0.8614	0.7478	-0.125
Mof_H 	H 	0.8496	0.8253	0.7688	0.093
Mof_C 	C 	0.8369	0.952	0.7489	0.075
Mof_H 	H 	0.8572	0.977	0.7711	-0.011
Mof_N 	N 	0.8143	0.0071	0.7206	-0.274
Mof_C 	C 	0.7859	0.9696	0.6897	0.076
Mof_H 	H 	0.7691	0.0075	0.6694	-0.01
Mof_C 	C 	0.7798	0.8793	0.6859	-0.123
Mof_H 	H 	0.7596	0.8557	0.6631	0.083
Mof_C 	C 	0.7314	0.5578	0.6574	0.055
Mof_C 	C 	0.7105	0.602	0.6211	-0.119
Mof_H 	H 	0.7151	0.6633	0.6164	0.089
Mof_C 	C 	0.6827	0.5552	0.5916	0.069
Mof_H 	H 	0.6691	0.585	0.5657	-0.006
Mof_N 	N 	0.6737	0.4694	0.5974	-0.31
Mof_C 	C 	0.6945	0.4287	0.6332	0.075
Mof_H 	H 	0.6888	0.368	0.6378	-0.013
Mof_C 	C 	0.7232	0.4688	0.6634	-0.133
Mof_H 	H 	0.7375	0.4366	0.6882	0.092
Mof_N 	N 	0.9353	0.4765	0.9514	-0.273
Mof_C 	C 	0.9667	0.5299	0.9492	0.066
Mof_H 	H 	0.9847	0.5149	0.9299	-0.004
Mof_C 	C 	0.9732	0.6074	0.9752	-0.117
Mof_H 	H 	0.9954	0.6444	0.9735	0.076
Mof_C 	C 	0.948	0.6291	0.0022	0.055
Mof_C 	C 	0.9163	0.5729	0.0052	-0.128
Mof_H 	H 	0.8985	0.5854	0.0251	0.075
Mof_C 	C 	0.9113	0.4977	0.9783	0.079
Mof_H 	H 	0.8892	0.4599	0.9796	-0.02
Mof_C 	C 	0.9534	0.7115	0.0304	0.079
Mof_N 	N 	0.9288	0.7216	0.0595	-0.145
Mof_C 	C 	0.9354	0.7951	0.0858	0.087
Mof_N 	N 	0.9646	0.853	0.0836	-0.134
Mof_C 	C 	0.9863	0.8368	0.0529	0.08
Mof_N 	N 	0.9819	0.7667	0.0244	-0.148
Mof_C 	C 	0.9089	0.8089	0.1183	0.067
Mof_C 	C 	0.8727	0.7653	0.1153	-0.119
Mof_H 	H 	0.8645	0.7242	0.0917	0.072
Mof_C 	C 	0.8489	0.78	0.1451	0.082
Mof_H 	H 	0.8247	0.7476	0.1425	-0.014
Mof_N 	N 	0.8584	0.839	0.1783	-0.28
Mof_C 	C 	0.8918	0.8839	0.1804	0.094
Mof_H 	H 	0.8981	0.9269	0.2035	-0.021
Mof_C 	C 	0.9183	0.8734	0.1519	-0.12
Mof_H 	H 	0.942	0.9082	0.1547	0.088
Mof_C 	C 	0.0199	0.8974	0.0495	0.064
Mof_C 	C 	0.0371	0.9458	0.0883	-0.143
Mof_H 	H 	0.0277	0.9405	0.1157	0.095
Mof_C 	C 	0.0688	0.0019	0.0836	0.118
Mof_H 	H 	0.0802	0.0358	0.1091	-0.031
Mof_N 	N 	0.0836	0.012	0.0494	-0.311
Mof_C 	C 	0.0683	0.9634	0.0126	0.062
Mof_H 	H 	0.0793	0.968	0.9861	-0.007
Mof_C 	C 	0.0362	0.9063	0.0142	-0.123
Mof_H 	H 	0.0257	0.8724	0.9883	0.081
Mof_Zn	Zn	0.6359	0.4091	0.5402	0.671
Mof_I 	I 	0.6204	0.2615	0.5738	0.413
Mof_I 	I 	0.6587	0.4377	0.4681	-0.938
Mof_Zn	Zn	0.41784	0.8751	0.90571	1.165
Mof_I 	I 	0.37947	0.76354	0.94315	-0.373
Mof_I 	I 	0.47393	0.84123	0.86406	-0.349
Mof_Zn	Zn	0.1304	0.9021	0.5563	0.705
Mof_I 	I 	0.1108	0.76246	0.59396	-0.85
Mof_I 	I 	0.15624	0.9049	0.48321	0.491
Mof_Zn	Zn	0.32333	0.6427	0.72543	1.165
Mof_I 	I 	0.25935	0.72714	0.69626	-0.382
Mof_I 	I 	0.36496	0.66952	0.80283	-0.397
Mof_N 	N 	0.37822	0.949	0.85967	-0.271
Mof_C 	C 	0.3857	0.0344	0.8528	0.077
Mof_H 	H 	0.4068	0.0628	0.8727	0.005
Mof_C 	C 	0.3645	0.0834	0.8183	-0.122
Mof_H 	H 	0.3712	0.1438	0.8145	0.105
Mof_C 	C 	0.3335	0.0445	0.7894	0.061
Mof_C 	C 	0.3247	0.9564	0.7974	-0.127
Mof_H 	H 	0.3032	0.927	0.7786	0.078
Mof_C 	C 	0.3476	0.9123	0.8329	0.074
Mof_H 	H 	0.341	0.8524	0.8383	-0.011
Mof_C 	C 	0.3105	0.0944	0.7521	0.099
Mof_N 	N 	0.32063	0.1806	0.7489	-0.129
Mof_C 	C 	0.2971	0.2254	0.7153	0.102
Mof_N 	N 	0.26813	0.1908	0.6854	-0.139
Mof_C 	C 	0.262	0.1042	0.6907	0.085
Mof_N 	N 	0.28174	0.0533	0.7243	-0.142
Mof_C 	C 	0.3034	0.3233	0.7159	0.065
Mof_C 	C 	0.3326	0.3614	0.7478	-0.125
Mof_H 	H 	0.3496	0.3253	0.7688	0.093
Mof_C 	C 	0.3369	0.452	0.7489	0.075
Mof_H 	H 	0.3572	0.477	0.7711	-0.011
Mof_N 	N 	0.3143	0.5071	0.7206	-0.274
Mof_C 	C 	0.2859	0.4696	0.6897	0.077
Mof_H 	H 	0.2691	0.5075	0.6694	-0.01
Mof_C 	C 	0.2798	0.3793	0.6859	-0.124
Mof_H 	H 	0.2596	0.3557	0.6631	0.083
Mof_C 	C 	0.2314	0.0578	0.6574	0.056
Mof_C 	C 	0.2105	0.102	0.6211	-0.12
Mof_H 	H 	0.2151	0.1633	0.6164	0.089
Mof_C 	C 	0.1827	0.0552	0.5916	0.069
Mof_H 	H 	0.1691	0.085	0.5657	-0.006
Mof_N 	N 	0.1737	0.9694	0.5974	-0.31
Mof_C 	C 	0.1945	0.9287	0.6332	0.075
Mof_H 	H 	0.1888	0.868	0.6378	-0.013
Mof_C 	C 	0.2232	0.9688	0.6634	-0.133
Mof_H 	H 	0.2375	0.9366	0.6882	0.092
Mof_N 	N 	0.4353	0.9765	0.9514	-0.273
Mof_C 	C 	0.4667	0.0299	0.9492	0.066
Mof_H 	H 	0.4847	0.0149	0.9299	-0.004
Mof_C 	C 	0.4732	0.1074	0.9752	-0.116
Mof_H 	H 	0.4954	0.1444	0.9735	0.076
Mof_C 	C 	0.448	0.1291	0.0022	0.054
Mof_C 	C 	0.4163	0.0729	0.0052	-0.128
Mof_H 	H 	0.3985	0.0854	0.0251	0.075
Mof_C 	C 	0.4113	0.9977	0.9783	0.078
Mof_H 	H 	0.3892	0.9599	0.9796	-0.02
Mof_C 	C 	0.4534	0.2115	0.0304	0.079
Mof_N 	N 	0.4288	0.2216	0.0595	-0.145
Mof_C 	C 	0.4354	0.2951	0.0858	0.087
Mof_N 	N 	0.4646	0.353	0.0836	-0.134
Mof_C 	C 	0.4863	0.3368	0.0529	0.079
Mof_N 	N 	0.4819	0.2667	0.0244	-0.148
Mof_C 	C 	0.4089	0.3089	0.1183	0.067
Mof_C 	C 	0.3727	0.2653	0.1153	-0.119
Mof_H 	H 	0.3645	0.2242	0.0917	0.072
Mof_C 	C 	0.3489	0.28	0.1451	0.082
Mof_H 	H 	0.3247	0.2476	0.1425	-0.014
Mof_N 	N 	0.3584	0.339	0.1783	-0.28
Mof_C 	C 	0.3918	0.3839	0.1804	0.094
Mof_H 	H 	0.3981	0.4269	0.2035	-0.021
Mof_C 	C 	0.4183	0.3734	0.1519	-0.12
Mof_H 	H 	0.442	0.4082	0.1547	0.088
Mof_C 	C 	0.5199	0.3974	0.0495	0.065
Mof_C 	C 	0.5371	0.4458	0.0883	-0.143
Mof_H 	H 	0.5277	0.4405	0.1157	0.095
Mof_C 	C 	0.5688	0.5019	0.0836	0.119
Mof_H 	H 	0.5802	0.5358	0.1091	-0.031
Mof_N 	N 	0.5836	0.512	0.0494	-0.311
Mof_C 	C 	0.5683	0.4634	0.0126	0.061
Mof_H 	H 	0.5793	0.468	0.9861	-0.006
Mof_C 	C 	0.5362	0.4063	0.0142	-0.124
Mof_H 	H 	0.5257	0.3724	0.9883	0.082
Mof_Zn	Zn	0.1359	0.9091	0.5402	0.671
Mof_I 	I 	0.1204	0.7615	0.5738	0.413
Mof_I 	I 	0.1587	0.9377	0.4681	-0.938
_end
