data_functionalizedCrystal
_audit_creation_method	'EQeq! by Chris Wilmer'
_symmetry_space_group_name_H-M	'P1'
_symmetry_Int_Tables_number	1
_symmetry_cell_setting	triclinic
loop_
_symmetry_equiv_pos_as_xyz
  x,y,z
_cell_length_a	15.858
_cell_length_b	10.522
_cell_length_c	20.97
_cell_angle_alpha	90
_cell_angle_beta	107.52
_cell_angle_gamma	90
loop_
_atom_site_label
_atom_site_type_symbol
_atom_site_fract_x
_atom_site_fract_y
_atom_site_fract_z
_atom_site_charge
Mof_C 	C 	0.7487	0.7279	0.7551	0.042
Mof_C 	C 	0.6965	0.7527	0.689	-0.015
Mof_H 	H 	0.7068	0.7081	0.6538	0.044
Mof_C 	C 	0.6294	0.8437	0.676	-0.144
Mof_C 	C 	0.6133	0.9138	0.7272	0.047
Mof_H 	H 	0.5685	0.9742	0.7182	0.025
Mof_C 	C 	0.6662	0.8912	0.792	-0.072
Mof_C 	C 	0.7312	0.8002	0.8063	-0.052
Mof_H 	H 	0.7643	0.786	0.8505	0.064
Mof_C 	C 	0.654	0.9683	0.8495	0.322
Mof_C 	C 	0.576	0.8665	0.604	0.521
Mof_C 	C 	0.8646	0.6015	0.8356	-0.203
Mof_H 	H 	0.8795	0.5119	0.8375	0.089
Mof_H 	H 	0.8296	0.6158	0.8657	0.089
Mof_C 	C 	0.9495	0.6785	0.8597	0.184
Mof_C 	C 	0.9652	0.7848	0.8272	-0.242
Mof_H 	H 	0.923	0.8105	0.788	0.125
Mof_C 	C 	0.0417	0.8543	0.8511	0.152
Mof_H 	H 	0.051	0.9257	0.8279	-0.008
Mof_C 	C 	0.1046	0.8178	0.9094	-0.223
Mof_C 	C 	0.0914	0.7098	0.9414	0.156
Mof_H 	H 	0.1346	0.683	0.9798	-0.026
Mof_C 	C 	0.015	0.6405	0.9174	-0.241
Mof_H 	H 	0.0069	0.5674	0.9398	0.105
Mof_C 	C 	0.1873	0.893	0.9373	0.442
Mof_C 	C 	0.8397	0.5777	0.7138	-0.22
Mof_H 	H 	0.9005	0.5496	0.7316	0.098
Mof_H 	H 	0.8378	0.6432	0.6809	0.099
Mof_C 	C 	0.7831	0.4661	0.6794	0.207
Mof_C 	C 	0.7055	0.4321	0.6919	-0.273
Mof_H 	H 	0.6877	0.4755	0.7243	0.127
Mof_C 	C 	0.6536	0.334	0.6567	0.203
Mof_H 	H 	0.6012	0.313	0.6655	-0.052
Mof_C 	C 	0.6786	0.2679	0.6094	-0.28
Mof_C 	C 	0.6194	0.1679	0.569	0.575
Mof_C 	C 	0.7587	0.2981	0.5976	0.185
Mof_H 	H 	0.7778	0.2511	0.567	-0.013
Mof_C 	C 	0.8092	0.3984	0.6317	-0.263
Mof_H 	H 	0.8611	0.4205	0.6225	0.118
Mof_N 	N 	0.8116	0.6327	0.7681	-0.07
Mof_O 	O 	0.2413	0.8656	0.9897	-0.509
Mof_O 	O 	0.1954	0.9898	0.9011	-0.266
Mof_O 	O 	0.6056	0.0657	0.8379	-0.483
Mof_O 	O 	0.5024	0.9214	0.593	-0.594
Mof_O 	O 	0.6084	0.8307	0.5594	-0.573
Mof_O 	O 	0.6889	0.9292	0.9084	-0.432
Mof_O 	O 	0.5403	0.1701	0.5664	-0.633
Mof_O 	O 	0.6526	0.0874	0.5386	-0.524
Mof_Sm	Sm	0.39932	0.07927	0.54608	2.394
Mof_C 	C 	0.2513	0.7279	0.7449	0.044
Mof_C 	C 	0.3035	0.7527	0.811	-0.015
Mof_H 	H 	0.2932	0.7081	0.8462	0.045
Mof_C 	C 	0.3706	0.8437	0.824	-0.141
Mof_C 	C 	0.3867	0.9138	0.7728	0.047
Mof_H 	H 	0.4315	0.9742	0.7818	0.027
Mof_C 	C 	0.3338	0.8912	0.708	-0.069
Mof_C 	C 	0.2688	0.8002	0.6937	-0.051
Mof_H 	H 	0.2357	0.786	0.6495	0.064
Mof_C 	C 	0.346	0.9683	0.6505	0.32
Mof_C 	C 	0.424	0.8665	0.896	0.519
Mof_C 	C 	0.1354	0.6015	0.6644	-0.204
Mof_H 	H 	0.1205	0.5119	0.6625	0.09
Mof_H 	H 	0.1704	0.6158	0.6343	0.09
Mof_C 	C 	0.0505	0.6785	0.6403	0.187
Mof_C 	C 	0.0348	0.7848	0.6728	-0.237
Mof_H 	H 	0.077	0.8105	0.712	0.124
Mof_C 	C 	0.9583	0.8543	0.6489	0.147
Mof_H 	H 	0.949	0.9257	0.6721	-0.008
Mof_C 	C 	0.8954	0.8178	0.5906	-0.224
Mof_C 	C 	0.9086	0.7098	0.5586	0.157
Mof_H 	H 	0.8654	0.683	0.5202	-0.027
Mof_C 	C 	0.985	0.6405	0.5826	-0.246
Mof_H 	H 	0.9931	0.5674	0.5602	0.106
Mof_C 	C 	0.8127	0.893	0.5627	0.443
Mof_C 	C 	0.1603	0.5777	0.7862	-0.221
Mof_H 	H 	0.0995	0.5496	0.7684	0.098
Mof_H 	H 	0.1622	0.6432	0.8191	0.1
Mof_C 	C 	0.2169	0.4661	0.8206	0.208
Mof_C 	C 	0.2945	0.4321	0.8081	-0.273
Mof_H 	H 	0.3123	0.4755	0.7757	0.127
Mof_C 	C 	0.3464	0.334	0.8433	0.203
Mof_H 	H 	0.3988	0.313	0.8345	-0.052
Mof_C 	C 	0.3214	0.2679	0.8906	-0.28
Mof_C 	C 	0.3806	0.1679	0.931	0.574
Mof_C 	C 	0.2413	0.2981	0.9024	0.186
Mof_H 	H 	0.2222	0.2511	0.933	-0.014
Mof_C 	C 	0.1908	0.3984	0.8683	-0.263
Mof_H 	H 	0.1389	0.4205	0.8775	0.118
Mof_N 	N 	0.1884	0.6327	0.7319	-0.07
Mof_O 	O 	0.7587	0.8656	0.5103	-0.513
Mof_O 	O 	0.8046	0.9898	0.5989	-0.268
Mof_O 	O 	0.3944	0.0657	0.6621	-0.482
Mof_O 	O 	0.4976	0.9214	0.907	-0.59
Mof_O 	O 	0.3916	0.8307	0.9406	-0.569
Mof_O 	O 	0.3111	0.9292	0.5916	-0.434
Mof_O 	O 	0.4597	0.1701	0.9336	-0.632
Mof_O 	O 	0.3474	0.0874	0.9614	-0.525
Mof_Sm	Sm	0.60068	0.07927	0.95392	2.378
Mof_C 	C 	0.2513	0.2721	0.2449	0.043
Mof_C 	C 	0.3035	0.2473	0.311	-0.014
Mof_H 	H 	0.2932	0.2919	0.3462	0.045
Mof_C 	C 	0.3706	0.1563	0.324	-0.143
Mof_C 	C 	0.3867	0.0862	0.2728	0.048
Mof_H 	H 	0.4315	0.0258	0.2818	0.026
Mof_C 	C 	0.3338	0.1088	0.208	-0.071
Mof_C 	C 	0.2688	0.1998	0.1937	-0.051
Mof_H 	H 	0.2357	0.214	0.1495	0.064
Mof_C 	C 	0.346	0.0317	0.1505	0.322
Mof_C 	C 	0.424	0.1335	0.396	0.521
Mof_C 	C 	0.1354	0.3985	0.1644	-0.203
Mof_H 	H 	0.1205	0.4881	0.1625	0.089
Mof_H 	H 	0.1704	0.3842	0.1343	0.089
Mof_C 	C 	0.0505	0.3215	0.1403	0.184
Mof_C 	C 	0.0348	0.2152	0.1728	-0.242
Mof_H 	H 	0.077	0.1895	0.212	0.125
Mof_C 	C 	0.9583	0.1457	0.1489	0.152
Mof_H 	H 	0.949	0.0743	0.1721	-0.008
Mof_C 	C 	0.8954	0.1822	0.0906	-0.223
Mof_C 	C 	0.9086	0.2902	0.0586	0.156
Mof_H 	H 	0.8654	0.317	0.0202	-0.026
Mof_C 	C 	0.985	0.3595	0.0826	-0.241
Mof_H 	H 	0.9931	0.4326	0.0602	0.105
Mof_C 	C 	0.8127	0.107	0.0627	0.442
Mof_C 	C 	0.1603	0.4223	0.2862	-0.22
Mof_H 	H 	0.0995	0.4504	0.2684	0.098
Mof_H 	H 	0.1622	0.3568	0.3191	0.099
Mof_C 	C 	0.2169	0.5339	0.3206	0.207
Mof_C 	C 	0.2945	0.5679	0.3081	-0.273
Mof_H 	H 	0.3123	0.5245	0.2757	0.127
Mof_C 	C 	0.3464	0.666	0.3433	0.203
Mof_H 	H 	0.3988	0.687	0.3345	-0.052
Mof_C 	C 	0.3214	0.7321	0.3906	-0.28
Mof_C 	C 	0.3806	0.8321	0.431	0.575
Mof_C 	C 	0.2413	0.7019	0.4024	0.185
Mof_H 	H 	0.2222	0.7489	0.433	-0.013
Mof_C 	C 	0.1908	0.6016	0.3683	-0.263
Mof_H 	H 	0.1389	0.5795	0.3775	0.118
Mof_N 	N 	0.1884	0.3673	0.2319	-0.07
Mof_O 	O 	0.7587	0.1344	0.0103	-0.509
Mof_O 	O 	0.8046	0.0102	0.0989	-0.266
Mof_O 	O 	0.3944	0.9343	0.1621	-0.483
Mof_O 	O 	0.4976	0.0786	0.407	-0.594
Mof_O 	O 	0.3916	0.1693	0.4406	-0.573
Mof_O 	O 	0.3111	0.0708	0.0916	-0.432
Mof_O 	O 	0.4597	0.8299	0.4336	-0.633
Mof_O 	O 	0.3474	0.9126	0.4614	-0.524
Mof_Sm	Sm	0.60068	0.92073	0.45392	2.394
Mof_C 	C 	0.7487	0.2721	0.2551	0.044
Mof_C 	C 	0.6965	0.2473	0.189	-0.015
Mof_H 	H 	0.7068	0.2919	0.1538	0.045
Mof_C 	C 	0.6294	0.1563	0.176	-0.141
Mof_C 	C 	0.6133	0.0862	0.2272	0.047
Mof_H 	H 	0.5685	0.0258	0.2182	0.027
Mof_C 	C 	0.6662	0.1088	0.292	-0.069
Mof_C 	C 	0.7312	0.1998	0.3063	-0.051
Mof_H 	H 	0.7643	0.214	0.3505	0.064
Mof_C 	C 	0.654	0.0317	0.3495	0.32
Mof_C 	C 	0.576	0.1335	0.104	0.519
Mof_C 	C 	0.8646	0.3985	0.3356	-0.204
Mof_H 	H 	0.8795	0.4881	0.3375	0.09
Mof_H 	H 	0.8296	0.3842	0.3657	0.09
Mof_C 	C 	0.9495	0.3215	0.3597	0.187
Mof_C 	C 	0.9652	0.2152	0.3272	-0.237
Mof_H 	H 	0.923	0.1895	0.288	0.124
Mof_C 	C 	0.0417	0.1457	0.3511	0.147
Mof_H 	H 	0.051	0.0743	0.3279	-0.008
Mof_C 	C 	0.1046	0.1822	0.4094	-0.224
Mof_C 	C 	0.0914	0.2902	0.4414	0.157
Mof_H 	H 	0.1346	0.317	0.4798	-0.027
Mof_C 	C 	0.015	0.3595	0.4174	-0.246
Mof_H 	H 	0.0069	0.4326	0.4398	0.106
Mof_C 	C 	0.1873	0.107	0.4373	0.443
Mof_C 	C 	0.8397	0.4223	0.2138	-0.221
Mof_H 	H 	0.9005	0.4504	0.2316	0.098
Mof_H 	H 	0.8378	0.3568	0.1809	0.1
Mof_C 	C 	0.7831	0.5339	0.1794	0.208
Mof_C 	C 	0.7055	0.5679	0.1919	-0.273
Mof_H 	H 	0.6877	0.5245	0.2243	0.127
Mof_C 	C 	0.6536	0.666	0.1567	0.203
Mof_H 	H 	0.6012	0.687	0.1655	-0.052
Mof_C 	C 	0.6786	0.7321	0.1094	-0.28
Mof_C 	C 	0.6194	0.8321	0.069	0.574
Mof_C 	C 	0.7587	0.7019	0.0976	0.186
Mof_H 	H 	0.7778	0.7489	0.067	-0.014
Mof_C 	C 	0.8092	0.6016	0.1317	-0.263
Mof_H 	H 	0.8611	0.5795	0.1225	0.118
Mof_N 	N 	0.8116	0.3673	0.2681	-0.07
Mof_O 	O 	0.2413	0.1344	0.4897	-0.513
Mof_O 	O 	0.1954	0.0102	0.4011	-0.268
Mof_O 	O 	0.6056	0.9343	0.3379	-0.482
Mof_O 	O 	0.5024	0.0786	0.093	-0.59
Mof_O 	O 	0.6084	0.1693	0.0594	-0.569
Mof_O 	O 	0.6889	0.0708	0.4084	-0.434
Mof_O 	O 	0.5403	0.8299	0.0664	-0.632
Mof_O 	O 	0.6526	0.9126	0.0386	-0.525
Mof_Sm	Sm	0.39932	0.92073	0.04608	2.378
_end
