# CIF file generated by openbabel 3.1.0, see https://openbabel.org
data_I
_chemical_name_common 'image0'
_cell_length_a 10.4024
_cell_length_b 11.4246
_cell_length_c 12.9388
_cell_angle_alpha 106.928
_cell_angle_beta 90.122
_cell_angle_gamma 92.989
_space_group_name_H-M_alt 'P 1'
_space_group_name_Hall 'P 1'
loop_
    _symmetry_equiv_pos_as_xyz
    x,y,z
loop_
    _atom_site_label
    _atom_site_type_symbol
    _atom_site_fract_x
    _atom_site_fract_y
    _atom_site_fract_z
    _atom_site_occupancy
    Sm1      Sm       0.52347    0.54606    0.66258    1.000
    O1       O        0.61359    0.71976    0.81154    1.000
    O2       O        0.40382    0.71487    0.78316    1.000
    O3       O        0.64292    0.49124    0.49277    1.000
    O4       O        0.71409    0.52495    0.34397    1.000
    O5       O        0.51046    0.33042    0.58566    1.000
    O6       O        0.46400    0.27511    0.40840    1.000
    C1       C        0.50530    0.76635    0.83152    1.000
    C2       C        0.50030    0.88743    0.91713    1.000
    C3       C        0.55390    0.99475    0.89815    1.000
    C4       C        0.60510    0.99490    0.79531    1.000
    H1       H        0.60430    0.92050    0.73830    1.000
    C5       C        0.65470    0.10000    0.77820    1.000
    H2       H        0.68750    0.09830    0.70930    1.000
    C6       C        0.65810    0.21270    0.86300    1.000
    H3       H        0.69410    0.28540    0.85050    1.000
    C7       C        0.61010    0.21690    0.96160    1.000
    H4       H        0.61290    0.29280    0.01710    1.000
    C8       C        0.55530    0.10893    0.98316    1.000
    C9       C        0.73469    0.51077    0.43367    1.000
    C10      C        0.87133    0.50580    0.46901    1.000
    C11      C        0.92430    0.59660    0.55818    1.000
    C12      C        0.85260    0.69700    0.61840    1.000
    H5       H        0.76630    0.70280    0.59710    1.000
    C13      C        0.90550    0.78430    0.70540    1.000
    H6       H        0.85580    0.84960    0.74470    1.000
    C14      C        0.03490    0.77790    0.73750    1.000
    H7       H        0.07120    0.83930    0.79830    1.000
    C15      C        0.10760    0.68530    0.68260    1.000
    H8       H        0.19410    0.68290    0.70540    1.000
    C16      C        0.05580    0.59120    0.59076    1.000
    C17      C        0.48904    0.25333    0.49537    1.000
    C18      C        0.49379    0.12099    0.49510    1.000
    C19      C        0.38570    0.06280    0.52570    1.000
    C20      C        0.26650    0.12170    0.54990    1.000
    H9       H        0.26170    0.20420    0.54910    1.000
    C21      C        0.16030    0.06100    0.57390    1.000
    H10      H        0.08180    0.10120    0.58830    1.000
    C22      C        0.16520    0.93840    0.57760    1.000
    H11      H        0.08990    0.89700    0.59400    1.000
    C23      C        0.27720    0.87980    0.55790    1.000
    H12      H        0.27990    0.79860    0.56260    1.000
    C24      C        0.39050    0.93870    0.53020    1.000
    C25      C        0.37800    0.05100    0.50250    1.000
    C26      C        0.25530    0.10110    0.51100    1.000
    H13      H        0.24650    0.18290    0.50920    1.000
    C27      C        0.15030    0.03020    0.52160    1.000
    H14      H        0.06760    0.06260    0.52540    1.000
    C28      C        0.16090    0.90990    0.52720    1.000
    H15      H        0.08500    0.86360    0.53520    1.000
    C29      C        0.27310    0.85940    0.52160    1.000
    H16      H        0.27760    0.77850    0.52710    1.000
    C30      C        0.39100    0.92900    0.50690    1.000
    Sm2      Sm       0.47653    0.45394    0.33742    1.000
    O7       O        0.38641    0.28024    0.18846    1.000
    O8       O        0.59618    0.28513    0.21684    1.000
    O9       O        0.35708    0.50876    0.50723    1.000
    O10      O        0.28591    0.47505    0.65603    1.000
    O11      O        0.48954    0.66958    0.41434    1.000
    O12      O        0.53600    0.72489    0.59160    1.000
    C31      C        0.49470    0.23365    0.16848    1.000
    C32      C        0.49970    0.11257    0.08287    1.000
    C33      C        0.44610    0.00525    0.10185    1.000
    C34      C        0.39490    0.00510    0.20469    1.000
    H17      H        0.39570    0.07950    0.26170    1.000
    C35      C        0.34530    0.90000    0.22180    1.000
    H18      H        0.31250    0.90170    0.29070    1.000
    C36      C        0.34190    0.78730    0.13700    1.000
    H19      H        0.30590    0.71460    0.14950    1.000
    C37      C        0.38990    0.78310    0.03840    1.000
    H20      H        0.38710    0.70720    0.98290    1.000
    C38      C        0.44470    0.89107    0.01684    1.000
    C39      C        0.26531    0.48923    0.56633    1.000
    C40      C        0.12867    0.49420    0.53099    1.000
    C41      C        0.07570    0.40340    0.44182    1.000
    C42      C        0.14740    0.30300    0.38160    1.000
    H21      H        0.23370    0.29720    0.40290    1.000
    C43      C        0.09450    0.21570    0.29460    1.000
    H22      H        0.14420    0.15040    0.25530    1.000
    C44      C        0.96510    0.22210    0.26250    1.000
    H23      H        0.92880    0.16070    0.20170    1.000
    C45      C        0.89240    0.31470    0.31740    1.000
    H24      H        0.80590    0.31710    0.29460    1.000
    C46      C        0.94420    0.40880    0.40924    1.000
    C47      C        0.51096    0.74667    0.50463    1.000
    C48      C        0.50621    0.87901    0.50490    1.000
    C49      C        0.61430    0.93720    0.47430    1.000
    C50      C        0.73350    0.87830    0.45010    1.000
    H25      H        0.73830    0.79580    0.45090    1.000
    C51      C        0.83970    0.93900    0.42610    1.000
    H26      H        0.91820    0.89880    0.41170    1.000
    C52      C        0.83480    0.06160    0.42240    1.000
    H27      H        0.91010    0.10300    0.40600    1.000
    C53      C        0.72280    0.12020    0.44210    1.000
    H28      H        0.72010    0.20140    0.43740    1.000
    C54      C        0.60950    0.06130    0.46980    1.000
    C55      C        0.62200    0.94900    0.49750    1.000
    C56      C        0.74470    0.89890    0.48900    1.000
    H29      H        0.75350    0.81710    0.49080    1.000
    C57      C        0.84970    0.96980    0.47840    1.000
    H30      H        0.93240    0.93740    0.47460    1.000
    C58      C        0.83910    0.09010    0.47280    1.000
    H31      H        0.91500    0.13640    0.46480    1.000
    C59      C        0.72690    0.14060    0.47840    1.000
    H32      H        0.72240    0.22150    0.47290    1.000
    C60      C        0.60900    0.07100    0.49310    1.000
