data_functionalizedCrystal
_audit_creation_method	'EQeq! by Chris Wilmer'
_symmetry_space_group_name_H-M	'P1'
_symmetry_Int_Tables_number	1
_symmetry_cell_setting	triclinic
loop_
_symmetry_equiv_pos_as_xyz
  x,y,z
_cell_length_a	6.6579
_cell_length_b	15.2582
_cell_length_c	15.2582
_cell_angle_alpha	120
_cell_angle_beta	90
_cell_angle_gamma	90
loop_
_atom_site_label
_atom_site_type_symbol
_atom_site_fract_x
_atom_site_fract_y
_atom_site_fract_z
_atom_site_charge
Mof_Cu	Cu	0.5116	0.91582	0.86431	0.805
Mof_Cu	Cu	0.21649	0.75758	0.46937	0.808
Mof_Cu	Cu	0.5116	0.94849	0.08418	0.788
Mof_Cu	Cu	0.21649	0.71179	0.24242	0.809
Mof_Cu	Cu	0.5116	0.13569	0.05151	0.803
Mof_Cu	Cu	0.21649	0.53063	0.28821	0.81
Mof_Cu	Cu	0.8571	0	-0	0.811
Mof_Cu	Cu	0.8731	0.66667	0.33334	0.817
Mof_H 	H 	0.0979	0.8881	0.7747	0.087
Mof_H 	H 	0.0956	0.7969	0.6631	0.099
Mof_H 	H 	0.335	0.9732	0.7298	-0.076
Mof_H 	H 	0.617	0.8741	0.6745	0.022
Mof_H 	H 	0.6427	0.7894	0.5603	0.036
Mof_H 	H 	0.3604	0.7032	0.5854	0.031
Mof_H 	H 	0.5565	0.7036	0.6434	0.059
Mof_H 	H 	0.1141	0.0259	0.6452	0.312
Mof_H 	H 	0.9767	0.9986	0.7115	0.274
Mof_H 	H 	0.9981	0.9226	0.5951	0.253
Mof_H 	H 	0.2405	0.7802	0.8472	0.124
Mof_H 	H 	0.1171	0.7235	0.7474	0.155
Mof_H 	H 	0.4335	0.6103	0.6994	-0.127
Mof_H 	H 	0.2036	0.6534	0.8674	0.258
Mof_H 	H 	0.3449	0.5552	0.8073	0.256
Mof_H 	H 	0.5398	0.8964	0.4869	0.104
Mof_H 	H 	0.3291	0.9504	0.5136	0.086
Mof_H 	H 	0.5859	0.0307	0.6841	-0.028
Mof_H 	H 	0.5216	0.116	0.5617	0.188
Mof_H 	H 	0.6247	0.1723	0.672	0.178
Mof_H 	H 	0.0979	0.8866	0.1119	0.073
Mof_H 	H 	0.0956	0.8662	0.2031	0.089
Mof_H 	H 	0.335	0.7566	0.0268	-0.072
Mof_H 	H 	0.617	0.8004	0.1259	0.022
Mof_H 	H 	0.6427	0.7709	0.2106	0.037
Mof_H 	H 	0.3604	0.8822	0.2968	0.022
Mof_H 	H 	0.5565	0.9398	0.2964	0.042
Mof_H 	H 	0.1141	0.6193	0.9741	0.295
Mof_H 	H 	0.9767	0.7129	0.0014	0.253
Mof_H 	H 	0.9981	0.6725	0.0774	0.235
Mof_H 	H 	0.2405	0.067	0.2198	0.106
Mof_H 	H 	0.1171	0.0239	0.2765	0.148
Mof_H 	H 	0.4335	0.0891	0.3897	-0.098
Mof_H 	H 	0.2036	0.214	0.3466	0.232
Mof_H 	H 	0.3449	0.2521	0.4448	0.235
Mof_H 	H 	0.5398	0.5905	0.1036	0.106
Mof_H 	H 	0.3291	0.5632	0.0496	0.088
Mof_H 	H 	0.5859	0.6534	0.9693	-0.028
Mof_H 	H 	0.5216	0.4457	0.884	0.189
Mof_H 	H 	0.6247	0.4997	0.8277	0.179
Mof_H 	H 	0.0979	0.2253	0.1134	0.075
Mof_H 	H 	0.0956	0.3369	0.1338	0.083
Mof_H 	H 	0.335	0.2702	0.2434	-0.042
Mof_H 	H 	0.617	0.3255	0.1996	0.03
Mof_H 	H 	0.6427	0.4397	0.2291	0.04
Mof_H 	H 	0.3604	0.4146	0.1178	0.021
Mof_H 	H 	0.5565	0.3566	0.0602	0.041
Mof_H 	H 	0.1141	0.3548	0.3807	0.226
Mof_H 	H 	0.9767	0.2885	0.2871	0.228
Mof_H 	H 	0.9981	0.4049	0.3275	0.199
Mof_H 	H 	0.2405	0.1528	0.933	0.117
Mof_H 	H 	0.1171	0.2526	0.9761	0.151
Mof_H 	H 	0.4335	0.3006	0.9109	-0.103
Mof_H 	H 	0.2036	0.1326	0.786	0.244
Mof_H 	H 	0.3449	0.1927	0.7479	0.242
Mof_H 	H 	0.5398	0.5131	0.4095	0.092
Mof_H 	H 	0.3291	0.4864	0.4368	0.08
Mof_H 	H 	0.5859	0.3159	0.3466	-0.013
Mof_H 	H 	0.5216	0.4383	0.5543	0.161
Mof_H 	H 	0.6247	0.328	0.5003	0.155
Mof_C 	C 	0.1789	0.8498	0.7144	-0.268
Mof_C 	C 	0.2531	0.9198	0.6763	0.252
Mof_C 	C 	0.5475	0.822	0.6156	-0.079
Mof_C 	C 	0.4539	0.7461	0.6384	-0.098
Mof_C 	C 	0.067	0.9719	0.6549	-0.863
Mof_C 	C 	0.2526	0.7392	0.7743	-0.389
Mof_C 	C 	0.3448	0.6457	0.7528	0.429
Mof_C 	C 	0.2929	0.6152	0.815	-0.664
Mof_C 	C 	0.444	0.9332	0.5411	-0.294
Mof_C 	C 	0.5415	0.0302	0.626	0.243
Mof_C 	C 	0.5651	0.1151	0.6192	-0.459
Mof_C 	C 	0.1789	0.8646	0.1502	-0.253
Mof_C 	C 	0.2531	0.7565	0.0802	0.234
Mof_C 	C 	0.5475	0.7936	0.178	-0.085
Mof_C 	C 	0.4539	0.8923	0.2539	-0.088
Mof_C 	C 	0.067	0.683	0.0281	-0.811
Mof_C 	C 	0.2526	0.0351	0.2608	-0.318
Mof_C 	C 	0.3448	0.1071	0.3543	0.372
Mof_C 	C 	0.2929	0.1998	0.3848	-0.604
Mof_C 	C 	0.444	0.6079	0.0668	-0.299
Mof_C 	C 	0.5415	0.5958	0.9698	0.249
Mof_C 	C 	0.5651	0.5041	0.8849	-0.463
Mof_C 	C 	0.1789	0.2856	0.1354	-0.232
Mof_C 	C 	0.2531	0.3237	0.2435	0.191
Mof_C 	C 	0.5475	0.3844	0.2064	-0.087
Mof_C 	C 	0.4539	0.3616	0.1077	-0.085
Mof_C 	C 	0.067	0.3451	0.317	-0.663
Mof_C 	C 	0.2526	0.2257	0.9649	-0.329
Mof_C 	C 	0.3448	0.2472	0.8929	0.389
Mof_C 	C 	0.2929	0.185	0.8002	-0.622
Mof_C 	C 	0.444	0.4589	0.3921	-0.229
Mof_C 	C 	0.5415	0.374	0.4042	0.162
Mof_C 	C 	0.5651	0.3808	0.4959	-0.398
Mof_Br	Br	0.71304	0.82821	0.93727	-0.697
Mof_Br	Br	0.98873	0.62527	0.46107	-0.702
Mof_Br	Br	0.71304	0.10906	0.17179	-0.71
Mof_Br	Br	0.98873	0.8358	0.37473	-0.718
Mof_Br	Br	0.71304	0.06273	0.89094	-0.663
Mof_Br	Br	0.98873	0.53893	0.1642	-0.718
Mof_Br	Br	0.2216	0	-0	-0.797
Mof_Br	Br	0.4898	0.66667	0.33334	-0.799
Mof_N 	N 	0.3465	0.8053	0.7371	-0.106
Mof_N 	N 	0.3761	0.8665	0.5868	-0.2
Mof_N 	N 	0.3465	0.9318	0.1947	-0.131
Mof_N 	N 	0.3761	0.7203	0.1335	-0.196
Mof_N 	N 	0.3465	0.2629	0.0682	-0.132
Mof_N 	N 	0.3761	0.4132	0.2797	-0.194
_end
