data_functionalizedCrystal
_audit_creation_method	'EQeq! by Chris Wilmer'
_symmetry_space_group_name_H-M	'P1'
_symmetry_Int_Tables_number	1
_symmetry_cell_setting	triclinic
loop_
_symmetry_equiv_pos_as_xyz
  x,y,z
_cell_length_a	11.491
_cell_length_b	12.094
_cell_length_c	12.62
_cell_angle_alpha	69.61
_cell_angle_beta	64.15
_cell_angle_gamma	72.46
loop_
_atom_site_label
_atom_site_type_symbol
_atom_site_fract_x
_atom_site_fract_y
_atom_site_fract_z
_atom_site_charge
Mof_S 	S 	0.84579	0.7581	0.10334	0.749
Mof_O 	O 	0.9268	0.8362	0.0996	-0.354
Mof_O 	O 	0.9257	0.6713	0.0385	-0.422
Mof_O 	O 	0.7983	0.6807	0.2353	-0.264
Mof_O 	O 	0.7288	0.819	0.0818	-0.323
Mof_N 	N 	0.8144	0.0991	0.0912	-0.229
Mof_N 	N 	0.1875	0.4077	0.4084	-0.332
Mof_C 	C 	0.802	0.1711	0.1585	0.041
Mof_H 	H 	0.8805	0.1807	0.1611	0.025
Mof_C 	C 	0.6826	0.2316	0.2228	-0.106
Mof_H 	H 	0.6793	0.2808	0.2699	0.062
Mof_C 	C 	0.5656	0.2211	0.219	0.019
Mof_C 	C 	0.5799	0.1464	0.1481	-0.122
Mof_H 	H 	0.5038	0.1357	0.1418	0.026
Mof_C 	C 	0.7027	0.0895	0.0882	0.039
Mof_H 	H 	0.7093	0.039	0.0408	-0.034
Mof_C 	C 	0.4351	0.2846	0.2855	0.039
Mof_C 	C 	0.419	0.3507	0.3643	-0.13
Mof_H 	H 	0.4936	0.3553	0.3772	0.066
Mof_C 	C 	0.2958	0.4089	0.4229	0.05
Mof_H 	H 	0.7133	0.5474	0.5226	-0.006
Mof_C 	C 	0.7984	0.6557	0.6672	0.07
Mof_H 	H 	0.8751	0.6581	0.6782	0.024
Mof_C 	C 	0.6787	0.7171	0.7286	-0.098
Mof_H 	H 	0.6732	0.7616	0.7811	0.101
Mof_N 	N 	0.1907	0.5056	0.992	-0.231
Mof_C 	C 	0.3027	0.4466	0.9261	0.187
Mof_H 	H 	0.2988	0.4065	0.8744	-0.031
Mof_C 	C 	0.424	0.4411	0.9279	-0.322
Mof_H 	H 	0.5015	0.3952	0.8811	0.157
Mof_C 	C 	0.4349	0.5017	0.9982	0.503
Mof_C 	C 	0.3194	0.5672	0.063	-0.449
Mof_H 	H 	0.3218	0.6121	0.1113	0.131
Mof_C 	C 	0.2009	0.5676	0.0575	0.037
Mof_H 	H 	0.1223	0.6139	0.1025	-0.109
Mof_S 	S 	0.15421	0.2419	0.89666	0.784
Mof_O 	O 	0.0732	0.1638	0.9004	-0.577
Mof_O 	O 	0.0743	0.3287	0.9615	-0.577
Mof_O 	O 	0.2017	0.3193	0.7647	-0.365
Mof_O 	O 	0.2712	0.181	0.9182	-0.359
Mof_N 	N 	0.1856	0.9009	0.9088	-0.238
Mof_N 	N 	0.8125	0.5923	0.5916	-0.239
Mof_C 	C 	0.198	0.8289	0.8415	0.077
Mof_H 	H 	0.1195	0.8193	0.8389	-0.058
Mof_C 	C 	0.3174	0.7684	0.7772	-0.113
Mof_H 	H 	0.3207	0.7192	0.7301	0.048
Mof_C 	C 	0.4344	0.7789	0.781	0.062
Mof_C 	C 	0.4201	0.8536	0.8519	-0.1
Mof_H 	H 	0.4962	0.8643	0.8582	0.105
Mof_C 	C 	0.2973	0.9105	0.9118	0.087
Mof_H 	H 	0.2907	0.961	0.9592	0.035
Mof_C 	C 	0.5649	0.7154	0.7145	0.055
Mof_C 	C 	0.581	0.6493	0.6357	-0.108
Mof_H 	H 	0.5064	0.6447	0.6228	0.061
Mof_C 	C 	0.7042	0.5911	0.5771	0.071
Mof_H 	H 	0.2867	0.4526	0.4774	-0.055
Mof_C 	C 	0.2016	0.3443	0.3328	0.039
Mof_H 	H 	0.1249	0.3419	0.3218	-0.122
Mof_C 	C 	0.3213	0.2829	0.2714	-0.143
Mof_H 	H 	0.3268	0.2384	0.2189	0.024
Mof_N 	N 	0.8093	0.4944	0.008	-0.222
Mof_C 	C 	0.6973	0.5534	0.0739	-0.075
Mof_H 	H 	0.7012	0.5935	0.1256	0.058
Mof_C 	C 	0.576	0.5589	0.0721	0.111
Mof_H 	H 	0.4985	0.6048	0.1189	-0.035
Mof_C 	C 	0.5651	0.4983	0.0018	-0.415
Mof_C 	C 	0.6806	0.4328	0.937	0.239
Mof_H 	H 	0.6782	0.3879	0.8887	-0.03
Mof_C 	C 	0.7991	0.4324	0.9425	0.032
Mof_H 	H 	0.8777	0.3861	0.8975	0.096
Mof_Zn	Zn	-0	0	-0	1.013
Mof_Zn	Zn	-1.95199e-17	0.5	0.5	1.023
Mof_Zn	Zn	-0	0.5	-0	1.047
_end
