data_functionalizedCrystal
_audit_creation_method	'EQeq! by Chris Wilmer'
_symmetry_space_group_name_H-M	'P1'
_symmetry_Int_Tables_number	1
_symmetry_cell_setting	triclinic
loop_
_symmetry_equiv_pos_as_xyz
  x,y,z
_cell_length_a	18.5283
_cell_length_b	14.2219
_cell_length_c	21.9146
_cell_angle_alpha	90
_cell_angle_beta	93.897
_cell_angle_gamma	90
loop_
_atom_site_label
_atom_site_type_symbol
_atom_site_fract_x
_atom_site_fract_y
_atom_site_fract_z
_atom_site_charge
Mof_C 	C 	0.3602	0.4287	0.50039	0.4
Mof_C 	C 	0.4055	0.5116	0.52148	-0.078
Mof_C 	C 	0.4051	0.5925	0.48576	-0.054
Mof_H 	H 	0.3777	0.5952	0.4475	0.074
Mof_C 	C 	0.4456	0.6696	0.50733	0.093
Mof_C 	C 	0.4903	0.6643	0.56001	-0.065
Mof_H 	H 	0.5183	0.7173	0.5734	0.077
Mof_C 	C 	0.4944	0.5829	0.59306	-0.06
Mof_C 	C 	0.45	0.5075	0.57473	0.014
Mof_H 	H 	0.4502	0.4523	0.5992	0.059
Mof_C 	C 	0.5449	0.5723	0.6489	0.327
Mof_C 	C 	0.4389	0.9092	0.4626	0.084
Mof_C 	C 	0.4825	0.9164	0.4137	-0.052
Mof_H 	H 	0.5103	0.864	0.4023	0.078
Mof_C 	C 	0.4853	0.9998	0.3817	-0.064
Mof_C 	C 	0.4425	0.0749	0.3965	0.022
Mof_H 	H 	0.4429	0.1311	0.3732	0.047
Mof_C 	C 	0.3989	0.0683	0.4455	-0.097
Mof_C 	C 	0.398	0.9854	0.4794	-0.042
Mof_H 	H 	0.3696	0.9811	0.5138	0.068
Mof_C 	C 	0.3562	0.151	0.4626	0.4
Mof_C 	C 	0.5397	0.0112	0.3319	0.377
Mof_C 	C 	0.2649	0.5327	0.3108	0.366
Mof_C 	C 	0.2191	0.6116	0.3321	-0.066
Mof_C 	C 	0.2205	0.7	0.3034	0.004
Mof_H 	H 	0.25	0.7105	0.2703	0.066
Mof_C 	C 	0.1776	0.7718	0.3244	-0.058
Mof_C 	C 	0.1339	0.7568	0.3712	-0.058
Mof_H 	H 	0.1056	0.807	0.3855	0.071
Mof_C 	C 	0.1305	0.6701	0.3976	0.072
Mof_C 	C 	0.1742	0.597	0.379	-0.05
Mof_H 	H 	0.173	0.5375	0.3985	0.071
Mof_C 	C 	0.1771	0.867	0.2948	0.336
Mof_C 	C 	0.0285	0.6112	0.5214	0.075
Mof_C 	C 	0.0506	0.5755	0.5778	-0.046
Mof_H 	H 	0.0981	0.5512	0.5851	0.068
Mof_C 	C 	0.0039	0.5752	0.6234	-0.078
Mof_C 	C 	0.9337	0.6091	0.6129	0.024
Mof_H 	H 	0.9017	0.6093	0.645	0.044
Mof_C 	C 	0.9107	0.642	0.556	-0.103
Mof_C 	C 	0.9582	0.6438	0.5096	-0.038
Mof_H 	H 	0.9428	0.667	0.4702	0.064
Mof_C 	C 	0.8338	0.6742	0.5441	0.413
Mof_C 	C 	0.0275	0.5399	0.6858	0.359
Mof_N 	N 	0.3095	0.3243	0.2188	-0.265
Mof_C 	C 	0.3023	0.3121	0.1581	-0.078
Mof_H 	H 	0.3259	0.3565	0.134	-0.033
Mof_N 	N 	0.2654	0.2441	0.1281	-0.408
Mof_C 	C 	0.2268	0.1795	0.1591	0.003
Mof_C 	C 	0.2321	0.1855	0.2226	-0.138
Mof_C 	C 	0.2748	0.2579	0.2508	0.099
Mof_N 	N 	0.2732	0.2484	0.3116	0.186
Mof_C 	C 	0.2326	0.1733	0.3197	0.115
Mof_H 	H 	0.2225	0.1511	0.3591	0.143
Mof_N 	N 	0.2064	0.1308	0.2674	0.058
Mof_N 	N 	0.1812	0.1183	0.1292	-0.226
Mof_H 	H 	0.1758	0.1194	0.089	0.081
Mof_H 	H 	0.1569	0.0774	0.1499	0.152
Mof_N 	N 	0.4423	0.7519	0.46918	-0.083
Mof_N 	N 	0.4367	0.8257	0.49956	-0.081
Mof_N 	N 	0.0697	0.6675	0.4454	-0.079
Mof_N 	N 	0.0844	0.6075	0.4769	-0.078
Mof_O 	O 	0.33446	0.42962	0.44686	-0.466
Mof_O 	O 	0.3525	0.3652	0.53976	-0.474
Mof_O 	O 	0.5414	0.5014	0.68131	-0.373
Mof_O 	O 	0.59207	0.6356	0.66186	-0.5
Mof_O 	O 	0.3274	0.1482	0.51292	-0.497
Mof_O 	O 	0.351	0.2187	0.42645	-0.492
Mof_O 	O 	0.5553	0.0896	0.3161	-0.295
Mof_O 	O 	0.5645	0.9387	0.3133	-0.462
Mof_O 	O 	0.3091	0.5533	0.2701	-0.437
Mof_O 	O 	0.2575	0.4538	0.33213	-0.458
Mof_O 	O 	0.2103	0.8794	0.2489	-0.304
Mof_O 	O 	0.1438	0.9314	0.3212	-0.485
Mof_O 	O 	0.8119	0.684	0.48897	-0.508
Mof_O 	O 	0.79828	0.6904	0.58813	-0.488
Mof_O 	O 	0.993	0.558	0.7281	-0.336
Mof_O 	O 	0.0852	0.4897	0.6894	-0.482
Mof_Zn	Zn	0.30438	0.33512	0.38042	1.224
Mof_Zn	Zn	0.2809	0.26241	0.53712	1.22
Mof_Zn	Zn	0.37288	0.44588	0.25451	1.227
Mof_Zn	Zn	0.12409	0.03962	0.2713	1.189
Mof_N 	N 	0.2729	0.2608	0.2917	-0.497
Mof_C 	C 	0.2302	0.1844	0.2961	0.074
Mof_H 	H 	0.2196	0.1651	0.336	-0.275
Mof_N 	N 	0.2008	0.1325	0.2481	-0.329
Mof_C 	C 	0.2185	0.1512	0.1915	0.217
Mof_C 	C 	0.261	0.2303	0.1824	0.024
Mof_C 	C 	0.2879	0.2816	0.2322	0.292
Mof_N 	N 	0.3252	0.3575	0.2135	-0.114
Mof_C 	C 	0.3208	0.3455	0.1512	0.053
Mof_H 	H 	0.3429	0.3882	0.1248	0.032
Mof_N 	N 	0.2834	0.2697	0.1294	0.191
Mof_N 	N 	0.2009	0.0936	0.1399	-0.114
Mof_H 	H 	0.1765	0.0411	0.1441	0.01
Mof_H 	H 	0.2143	0.1102	0.1037	0.113
Mof_C 	C 	0.6398	0.9287	0.99961	0.397
Mof_C 	C 	0.5945	0.0116	0.97852	-0.073
Mof_C 	C 	0.5949	0.0925	0.01424	-0.057
Mof_H 	H 	0.6223	0.0952	0.0525	0.077
Mof_C 	C 	0.5544	0.1696	0.99267	0.097
Mof_C 	C 	0.5097	0.1643	0.93999	-0.065
Mof_H 	H 	0.4817	0.2173	0.9266	0.079
Mof_C 	C 	0.5056	0.0829	0.90694	-0.058
Mof_C 	C 	0.55	0.0075	0.92527	0.014
Mof_H 	H 	0.5498	0.9523	0.9008	0.06
Mof_C 	C 	0.4551	0.0723	0.8511	0.327
Mof_C 	C 	0.5611	0.4092	0.0374	0.084
Mof_C 	C 	0.5175	0.4164	0.0863	-0.051
Mof_H 	H 	0.4897	0.364	0.0977	0.077
Mof_C 	C 	0.5147	0.4998	0.1183	-0.065
Mof_C 	C 	0.5575	0.5749	0.1035	0.024
Mof_H 	H 	0.5571	0.6311	0.1268	0.046
Mof_C 	C 	0.6011	0.5683	0.0545	-0.097
Mof_C 	C 	0.602	0.4854	0.0206	-0.042
Mof_H 	H 	0.6304	0.4811	0.9862	0.068
Mof_C 	C 	0.6438	0.651	0.0374	0.401
Mof_C 	C 	0.4603	0.5112	0.1681	0.379
Mof_C 	C 	0.7351	0.0327	0.1892	0.365
Mof_C 	C 	0.7809	0.1116	0.1679	-0.066
Mof_C 	C 	0.7795	0.2	0.1966	0.004
Mof_H 	H 	0.75	0.2105	0.2297	0.065
Mof_C 	C 	0.8224	0.2718	0.1756	-0.058
Mof_C 	C 	0.8661	0.2568	0.1288	-0.058
Mof_H 	H 	0.8944	0.307	0.1145	0.07
Mof_C 	C 	0.8695	0.1701	0.1024	0.072
Mof_C 	C 	0.8258	0.097	0.121	-0.05
Mof_H 	H 	0.827	0.0375	0.1015	0.07
Mof_C 	C 	0.8229	0.367	0.2052	0.336
Mof_C 	C 	0.9715	0.1112	0.9786	0.074
Mof_C 	C 	0.9494	0.0755	0.9222	-0.045
Mof_H 	H 	0.9019	0.0512	0.9149	0.068
Mof_C 	C 	0.9961	0.0752	0.8766	-0.079
Mof_C 	C 	0.0663	0.1091	0.8871	0.026
Mof_H 	H 	0.0983	0.1093	0.855	0.044
Mof_C 	C 	0.0893	0.142	0.944	-0.104
Mof_C 	C 	0.0418	0.1438	0.9904	-0.035
Mof_H 	H 	0.0572	0.167	0.0298	0.062
Mof_C 	C 	0.1662	0.1742	0.9559	0.415
Mof_C 	C 	0.9725	0.0399	0.8142	0.36
Mof_N 	N 	0.6905	0.8243	0.2812	-0.265
Mof_C 	C 	0.6977	0.8121	0.3419	-0.078
Mof_H 	H 	0.6741	0.8565	0.366	-0.033
Mof_N 	N 	0.7346	0.7441	0.3719	-0.408
Mof_C 	C 	0.7732	0.6795	0.3409	0.003
Mof_C 	C 	0.7679	0.6855	0.2774	-0.138
Mof_C 	C 	0.7252	0.7579	0.2492	0.099
Mof_N 	N 	0.7268	0.7484	0.1884	0.186
Mof_C 	C 	0.7674	0.6733	0.1803	0.115
Mof_H 	H 	0.7775	0.6511	0.1409	0.144
Mof_N 	N 	0.7936	0.6308	0.2326	0.059
Mof_N 	N 	0.8188	0.6183	0.3708	-0.226
Mof_H 	H 	0.8242	0.6194	0.411	0.081
Mof_H 	H 	0.8431	0.5774	0.3501	0.152
Mof_N 	N 	0.5577	0.2519	0.03082	-0.084
Mof_N 	N 	0.5633	0.3257	0.00044	-0.081
Mof_N 	N 	0.9303	0.1675	0.0546	-0.079
Mof_N 	N 	0.9156	0.1075	0.0231	-0.078
Mof_O 	O 	0.66554	0.92962	0.05314	-0.464
Mof_O 	O 	0.6475	0.8652	0.96024	-0.474
Mof_O 	O 	0.4586	0.0014	0.81869	-0.373
Mof_O 	O 	0.40793	0.1356	0.83814	-0.5
Mof_O 	O 	0.6726	0.6482	0.98708	-0.497
Mof_O 	O 	0.649	0.7187	0.07355	-0.492
Mof_O 	O 	0.4447	0.5896	0.1839	-0.296
Mof_O 	O 	0.4355	0.4387	0.1867	-0.463
Mof_O 	O 	0.6909	0.0533	0.2299	-0.438
Mof_O 	O 	0.7425	0.9538	0.16787	-0.457
Mof_O 	O 	0.7897	0.3794	0.2511	-0.305
Mof_O 	O 	0.8562	0.4314	0.1788	-0.485
Mof_O 	O 	0.1881	0.184	0.01103	-0.51
Mof_O 	O 	0.20172	0.1904	0.91187	-0.488
Mof_O 	O 	0.007	0.058	0.7719	-0.337
Mof_O 	O 	0.9148	0.9897	0.8106	-0.483
Mof_Zn	Zn	0.69562	0.83512	0.11958	1.224
Mof_Zn	Zn	0.7191	0.76241	0.96288	1.219
Mof_Zn	Zn	0.62712	0.94588	0.24549	1.227
Mof_Zn	Zn	0.87591	0.53962	0.2287	1.189
Mof_N 	N 	0.7271	0.7608	0.2083	-0.497
Mof_C 	C 	0.7698	0.6844	0.2039	0.074
Mof_H 	H 	0.7804	0.6651	0.164	-0.275
Mof_N 	N 	0.7992	0.6325	0.2519	-0.329
Mof_C 	C 	0.7815	0.6512	0.3085	0.217
Mof_C 	C 	0.739	0.7303	0.3176	0.024
Mof_C 	C 	0.7121	0.7816	0.2678	0.292
Mof_N 	N 	0.6748	0.8575	0.2865	-0.114
Mof_C 	C 	0.6792	0.8455	0.3488	0.053
Mof_H 	H 	0.6571	0.8882	0.3752	0.032
Mof_N 	N 	0.7166	0.7697	0.3706	0.192
Mof_N 	N 	0.7991	0.5936	0.3601	-0.114
Mof_H 	H 	0.8235	0.5411	0.3559	0.011
Mof_H 	H 	0.7857	0.6102	0.3963	0.113
Mof_C 	C 	0.6398	0.5713	0.49961	0.401
Mof_C 	C 	0.5945	0.4884	0.47852	-0.077
Mof_C 	C 	0.5949	0.4075	0.51424	-0.053
Mof_H 	H 	0.6223	0.4048	0.5525	0.075
Mof_C 	C 	0.5544	0.3304	0.49267	0.094
Mof_C 	C 	0.5097	0.3357	0.43999	-0.064
Mof_H 	H 	0.4817	0.2827	0.4266	0.078
Mof_C 	C 	0.5056	0.4171	0.40694	-0.059
Mof_C 	C 	0.55	0.4925	0.42527	0.015
Mof_H 	H 	0.5498	0.5477	0.4008	0.06
Mof_C 	C 	0.4551	0.4277	0.3511	0.327
Mof_C 	C 	0.5611	0.0908	0.5374	0.084
Mof_C 	C 	0.5175	0.0836	0.5863	-0.052
Mof_H 	H 	0.4897	0.136	0.5977	0.078
Mof_C 	C 	0.5147	0.0002	0.6183	-0.064
Mof_C 	C 	0.5575	0.9251	0.6035	0.022
Mof_H 	H 	0.5571	0.8689	0.6268	0.047
Mof_C 	C 	0.6011	0.9317	0.5545	-0.097
Mof_C 	C 	0.602	0.0146	0.5206	-0.042
Mof_H 	H 	0.6304	0.0189	0.4862	0.068
Mof_C 	C 	0.6438	0.849	0.5374	0.4
Mof_C 	C 	0.4603	0.9888	0.6681	0.377
Mof_C 	C 	0.7351	0.4673	0.6892	0.366
Mof_C 	C 	0.7809	0.3884	0.6679	-0.066
Mof_C 	C 	0.7795	0.3	0.6966	0.004
Mof_H 	H 	0.75	0.2895	0.7297	0.066
Mof_C 	C 	0.8224	0.2282	0.6756	-0.058
Mof_C 	C 	0.8661	0.2432	0.6288	-0.058
Mof_H 	H 	0.8944	0.193	0.6145	0.071
Mof_C 	C 	0.8695	0.3299	0.6024	0.072
Mof_C 	C 	0.8258	0.403	0.621	-0.05
Mof_H 	H 	0.827	0.4625	0.6015	0.071
Mof_C 	C 	0.8229	0.133	0.7052	0.336
Mof_C 	C 	0.9715	0.3888	0.4786	0.075
Mof_C 	C 	0.9494	0.4245	0.4222	-0.046
Mof_H 	H 	0.9019	0.4488	0.4149	0.068
Mof_C 	C 	0.9961	0.4248	0.3766	-0.078
Mof_C 	C 	0.0663	0.3909	0.3871	0.024
Mof_H 	H 	0.0983	0.3907	0.355	0.044
Mof_C 	C 	0.0893	0.358	0.444	-0.103
Mof_C 	C 	0.0418	0.3562	0.4904	-0.038
Mof_H 	H 	0.0572	0.333	0.5298	0.064
Mof_C 	C 	0.1662	0.3258	0.4559	0.413
Mof_C 	C 	0.9725	0.4601	0.3142	0.359
Mof_N 	N 	0.6905	0.6757	0.7812	-0.265
Mof_C 	C 	0.6977	0.6879	0.8419	-0.078
Mof_H 	H 	0.6741	0.6435	0.866	-0.033
Mof_N 	N 	0.7346	0.7559	0.8719	-0.408
Mof_C 	C 	0.7732	0.8205	0.8409	0.003
Mof_C 	C 	0.7679	0.8145	0.7774	-0.138
Mof_C 	C 	0.7252	0.7421	0.7492	0.099
Mof_N 	N 	0.7268	0.7516	0.6884	0.186
Mof_C 	C 	0.7674	0.8267	0.6803	0.115
Mof_H 	H 	0.7775	0.8489	0.6409	0.143
Mof_N 	N 	0.7936	0.8692	0.7326	0.058
Mof_N 	N 	0.8188	0.8817	0.8708	-0.226
Mof_H 	H 	0.8242	0.8806	0.911	0.081
Mof_H 	H 	0.8431	0.9226	0.8501	0.152
Mof_N 	N 	0.5577	0.2481	0.53082	-0.083
Mof_N 	N 	0.5633	0.1743	0.50044	-0.081
Mof_N 	N 	0.9303	0.3325	0.5546	-0.079
Mof_N 	N 	0.9156	0.3925	0.5231	-0.078
Mof_O 	O 	0.66554	0.57038	0.55314	-0.466
Mof_O 	O 	0.6475	0.6348	0.46024	-0.474
Mof_O 	O 	0.4586	0.4986	0.31869	-0.373
Mof_O 	O 	0.40793	0.3644	0.33814	-0.5
Mof_O 	O 	0.6726	0.8518	0.48708	-0.497
Mof_O 	O 	0.649	0.7813	0.57355	-0.492
Mof_O 	O 	0.4447	0.9104	0.6839	-0.295
Mof_O 	O 	0.4355	0.0613	0.6867	-0.462
Mof_O 	O 	0.6909	0.4467	0.7299	-0.437
Mof_O 	O 	0.7425	0.5462	0.66787	-0.458
Mof_O 	O 	0.7897	0.1206	0.7511	-0.304
Mof_O 	O 	0.8562	0.0686	0.6788	-0.485
Mof_O 	O 	0.1881	0.316	0.51103	-0.508
Mof_O 	O 	0.20172	0.3096	0.41187	-0.488
Mof_O 	O 	0.007	0.442	0.2719	-0.336
Mof_O 	O 	0.9148	0.5103	0.3106	-0.482
Mof_Zn	Zn	0.69562	0.66488	0.61958	1.224
Mof_Zn	Zn	0.7191	0.73759	0.46288	1.22
Mof_Zn	Zn	0.62712	0.55412	0.74549	1.227
Mof_Zn	Zn	0.87591	0.96038	0.7287	1.189
Mof_N 	N 	0.7271	0.7392	0.7083	-0.497
Mof_C 	C 	0.7698	0.8156	0.7039	0.074
Mof_H 	H 	0.7804	0.8349	0.664	-0.275
Mof_N 	N 	0.7992	0.8675	0.7519	-0.329
Mof_C 	C 	0.7815	0.8488	0.8085	0.217
Mof_C 	C 	0.739	0.7697	0.8176	0.024
Mof_C 	C 	0.7121	0.7184	0.7678	0.292
Mof_N 	N 	0.6748	0.6425	0.7865	-0.114
Mof_C 	C 	0.6792	0.6545	0.8488	0.053
Mof_H 	H 	0.6571	0.6118	0.8752	0.032
Mof_N 	N 	0.7166	0.7303	0.8706	0.191
Mof_N 	N 	0.7991	0.9064	0.8601	-0.114
Mof_H 	H 	0.8235	0.9589	0.8559	0.01
Mof_H 	H 	0.7857	0.8898	0.8963	0.113
Mof_C 	C 	0.3602	0.0713	0.00039	0.397
Mof_C 	C 	0.4055	0.9884	0.02148	-0.073
Mof_C 	C 	0.4051	0.9075	0.98576	-0.057
Mof_H 	H 	0.3777	0.9048	0.9475	0.077
Mof_C 	C 	0.4456	0.8304	0.00733	0.097
Mof_C 	C 	0.4903	0.8357	0.06001	-0.065
Mof_H 	H 	0.5183	0.7827	0.0734	0.079
Mof_C 	C 	0.4944	0.9171	0.09306	-0.058
Mof_C 	C 	0.45	0.9925	0.07473	0.014
Mof_H 	H 	0.4502	0.0477	0.0992	0.06
Mof_C 	C 	0.5449	0.9277	0.1489	0.327
Mof_C 	C 	0.4389	0.5908	0.9626	0.084
Mof_C 	C 	0.4825	0.5836	0.9137	-0.051
Mof_H 	H 	0.5103	0.636	0.9023	0.077
Mof_C 	C 	0.4853	0.5002	0.8817	-0.065
Mof_C 	C 	0.4425	0.4251	0.8965	0.024
Mof_H 	H 	0.4429	0.3689	0.8732	0.046
Mof_C 	C 	0.3989	0.4317	0.9455	-0.097
Mof_C 	C 	0.398	0.5146	0.9794	-0.042
Mof_H 	H 	0.3696	0.5189	0.0138	0.068
Mof_C 	C 	0.3562	0.349	0.9626	0.401
Mof_C 	C 	0.5397	0.4888	0.8319	0.379
Mof_C 	C 	0.2649	0.9673	0.8108	0.365
Mof_C 	C 	0.2191	0.8884	0.8321	-0.066
Mof_C 	C 	0.2205	0.8	0.8034	0.004
Mof_H 	H 	0.25	0.7895	0.7703	0.065
Mof_C 	C 	0.1776	0.7282	0.8244	-0.058
Mof_C 	C 	0.1339	0.7432	0.8712	-0.058
Mof_H 	H 	0.1056	0.693	0.8855	0.07
Mof_C 	C 	0.1305	0.8299	0.8976	0.072
Mof_C 	C 	0.1742	0.903	0.879	-0.05
Mof_H 	H 	0.173	0.9625	0.8985	0.07
Mof_C 	C 	0.1771	0.633	0.7948	0.336
Mof_C 	C 	0.0285	0.8888	0.0214	0.074
Mof_C 	C 	0.0506	0.9245	0.0778	-0.045
Mof_H 	H 	0.0981	0.9488	0.0851	0.068
Mof_C 	C 	0.0039	0.9248	0.1234	-0.079
Mof_C 	C 	0.9337	0.8909	0.1129	0.026
Mof_H 	H 	0.9017	0.8907	0.145	0.044
Mof_C 	C 	0.9107	0.858	0.056	-0.104
Mof_C 	C 	0.9582	0.8562	0.0096	-0.035
Mof_H 	H 	0.9428	0.833	0.9702	0.062
Mof_C 	C 	0.8338	0.8258	0.0441	0.415
Mof_C 	C 	0.0275	0.9601	0.1858	0.36
Mof_N 	N 	0.3095	0.1757	0.7188	-0.265
Mof_C 	C 	0.3023	0.1879	0.6581	-0.078
Mof_H 	H 	0.3259	0.1435	0.634	-0.033
Mof_N 	N 	0.2654	0.2559	0.6281	-0.408
Mof_C 	C 	0.2268	0.3205	0.6591	0.003
Mof_C 	C 	0.2321	0.3145	0.7226	-0.138
Mof_C 	C 	0.2748	0.2421	0.7508	0.099
Mof_N 	N 	0.2732	0.2516	0.8116	0.186
Mof_C 	C 	0.2326	0.3267	0.8197	0.115
Mof_H 	H 	0.2225	0.3489	0.8591	0.144
Mof_N 	N 	0.2064	0.3692	0.7674	0.059
Mof_N 	N 	0.1812	0.3817	0.6292	-0.226
Mof_H 	H 	0.1758	0.3806	0.589	0.081
Mof_H 	H 	0.1569	0.4226	0.6499	0.152
Mof_N 	N 	0.4423	0.7481	0.96918	-0.084
Mof_N 	N 	0.4367	0.6743	0.99956	-0.081
Mof_N 	N 	0.0697	0.8325	0.9454	-0.079
Mof_N 	N 	0.0844	0.8925	0.9769	-0.078
Mof_O 	O 	0.33446	0.07038	0.94686	-0.464
Mof_O 	O 	0.3525	0.1348	0.03976	-0.474
Mof_O 	O 	0.5414	0.9986	0.18131	-0.373
Mof_O 	O 	0.59207	0.8644	0.16186	-0.5
Mof_O 	O 	0.3274	0.3518	0.01292	-0.497
Mof_O 	O 	0.351	0.2813	0.92645	-0.492
Mof_O 	O 	0.5553	0.4104	0.8161	-0.296
Mof_O 	O 	0.5645	0.5613	0.8133	-0.463
Mof_O 	O 	0.3091	0.9467	0.7701	-0.438
Mof_O 	O 	0.2575	0.0462	0.83213	-0.457
Mof_O 	O 	0.2103	0.6206	0.7489	-0.305
Mof_O 	O 	0.1438	0.5686	0.8212	-0.485
Mof_O 	O 	0.8119	0.816	0.98897	-0.51
Mof_O 	O 	0.79828	0.8096	0.08813	-0.488
Mof_O 	O 	0.993	0.942	0.2281	-0.337
Mof_O 	O 	0.0852	0.0103	0.1894	-0.483
Mof_Zn	Zn	0.30438	0.16488	0.88042	1.224
Mof_Zn	Zn	0.2809	0.23759	0.03712	1.219
Mof_Zn	Zn	0.37288	0.05412	0.75451	1.227
Mof_Zn	Zn	0.12409	0.46038	0.7713	1.189
Mof_N 	N 	0.2729	0.2392	0.7917	-0.497
Mof_C 	C 	0.2302	0.3156	0.7961	0.074
Mof_H 	H 	0.2196	0.3349	0.836	-0.275
Mof_N 	N 	0.2008	0.3675	0.7481	-0.329
Mof_C 	C 	0.2185	0.3488	0.6915	0.217
Mof_C 	C 	0.261	0.2697	0.6824	0.024
Mof_C 	C 	0.2879	0.2184	0.7322	0.292
Mof_N 	N 	0.3252	0.1425	0.7135	-0.114
Mof_C 	C 	0.3208	0.1545	0.6512	0.053
Mof_H 	H 	0.3429	0.1118	0.6248	0.032
Mof_N 	N 	0.2834	0.2303	0.6294	0.192
Mof_N 	N 	0.2009	0.4064	0.6399	-0.114
Mof_H 	H 	0.1765	0.4589	0.6441	0.011
Mof_H 	H 	0.2143	0.3898	0.6037	0.113
_end
