data_functionalizedCrystal
_audit_creation_method	'EQeq! by Chris Wilmer'
_symmetry_space_group_name_H-M	'P1'
_symmetry_Int_Tables_number	1
_symmetry_cell_setting	triclinic
loop_
_symmetry_equiv_pos_as_xyz
  x,y,z
_cell_length_a	9.797
_cell_length_b	14.1459
_cell_length_c	15.782
_cell_angle_alpha	106.273
_cell_angle_beta	100.855
_cell_angle_gamma	105.968
loop_
_atom_site_label
_atom_site_type_symbol
_atom_site_fract_x
_atom_site_fract_y
_atom_site_fract_z
_atom_site_charge
Mof_Cu	Cu	0.80477	0.89383	0.92725	0.921
Mof_S 	S 	0.97812	0.48261	0.70475	0.464
Mof_O 	O 	0.9437	0.85018	0.86639	-0.407
Mof_O 	O 	0.1664	0.9544	0.96457	-0.379
Mof_O 	O 	0.5944	0.84864	0.92721	-0.368
Mof_O 	O 	0.5681	0.7054	0.81173	-0.277
Mof_O 	O 	0.8717	0.4568	0.75497	-0.258
Mof_O 	O 	0.0649	0.41491	0.69197	-0.256
Mof_O 	O 	0.9069	0.4931	0.61876	-0.228
Mof_N 	N 	0.7455	0.0132	0.7191	-0.09
Mof_N 	N 	0.6635	0.0571	0.7676	-0.097
Mof_N 	N 	0.7585	0.961	0.8362	-0.215
Mof_N 	N 	0.9485	0.7553	0.1075	-0.09
Mof_N 	N 	0.9006	0.8218	0.1643	-0.096
Mof_N 	N 	0.8621	0.8369	0.02513	-0.223
Mof_C 	C 	0.628	0.0171	0.5667	-0.069
Mof_C 	C 	0.5338	0.915	0.5147	0.097
Mof_C 	C 	0.4044	0.8964	0.4467	0.097
Mof_C 	C 	0.7705	0.035	0.6368	-0.039
Mof_H 	H 	0.8211	0.9897	0.6079	0.043
Mof_H 	H 	0.8359	0.108	0.6553	0.047
Mof_C 	C 	0.5662	0.8223	0.5326	-0.545
Mof_H 	H 	0.6722	0.8412	0.5579	0.199
Mof_H 	H 	0.5311	0.763	0.4752	0.193
Mof_H 	H 	0.516	0.8035	0.576	0.202
Mof_C 	C 	0.3073	0.7841	0.3881	-0.553
Mof_H 	H 	0.3572	0.7539	0.346	0.199
Mof_H 	H 	0.2139	0.7831	0.3532	0.207
Mof_H 	H 	0.2889	0.7433	0.4276	0.207
Mof_C 	C 	0.6741	0.023	0.8371	0.094
Mof_H 	H 	0.6275	0.0399	0.8832	0.012
Mof_C 	C 	0.8013	0.9575	0.7612	0.093
Mof_H 	H 	0.8626	0.9209	0.7407	0.01
Mof_C 	C 	0.0105	0.5928	0.0657	-0.056
Mof_C 	C 	0.1353	0.5864	0.0375	0.097
Mof_C 	C 	0.1252	0.4921	0.9722	0.097
Mof_C 	C 	0.0199	0.689	0.1427	-0.067
Mof_H 	H 	0.9716	0.6666	0.1863	0.072
Mof_H 	H 	0.1242	0.7305	0.1759	0.061
Mof_C 	C 	0.2785	0.6789	0.0763	-0.535
Mof_H 	H 	0.2569	0.7435	0.089	0.196
Mof_H 	H 	0.3349	0.6752	0.0319	0.184
Mof_H 	H 	0.3357	0.6775	0.1329	0.191
Mof_C 	C 	0.2609	0.4822	0.9435	-0.525
Mof_H 	H 	0.3258	0.4705	0.991	0.183
Mof_H 	H 	0.3131	0.5462	0.9349	0.179
Mof_H 	H 	0.2309	0.4234	0.8861	0.197
Mof_C 	C 	0.849	0.8683	0.1111	0.093
Mof_H 	H 	0.8064	0.9192	0.1313	0.011
Mof_C 	C 	0.9261	0.7658	0.0258	0.096
Mof_H 	H 	0.9517	0.7283	0.9757	0.005
Mof_C 	C 	0.1425	0.7899	0.8604	-0.112
Mof_C 	C 	0.2955	0.8128	0.8793	0.036
Mof_H 	H 	0.3606	0.8809	0.9166	0.047
Mof_C 	C 	0.3517	0.7357	0.8434	-0.095
Mof_C 	C 	0.2559	0.6342	0.7897	0.026
Mof_H 	H 	0.2939	0.5818	0.7651	0.046
Mof_C 	C 	0.1039	0.6109	0.7726	-0.088
Mof_C 	C 	0.0478	0.6888	0.8064	0.044
Mof_H 	H 	0.9446	0.6731	0.7925	0.045
Mof_C 	C 	0.0821	0.8738	0.9013	0.369
Mof_C 	C 	0.5175	0.7643	0.8617	0.308
Mof_Cu	Cu	0.19523	0.10617	0.07275	0.921
Mof_S 	S 	0.02188	0.51739	0.29525	0.464
Mof_O 	O 	0.0563	0.14982	0.13361	-0.407
Mof_O 	O 	0.8336	0.0456	0.03543	-0.379
Mof_O 	O 	0.4056	0.15136	0.07279	-0.368
Mof_O 	O 	0.4319	0.2946	0.18827	-0.277
Mof_O 	O 	0.1283	0.5432	0.24503	-0.258
Mof_O 	O 	0.9351	0.58509	0.30803	-0.256
Mof_O 	O 	0.0931	0.5069	0.38124	-0.228
Mof_N 	N 	0.2545	0.9868	0.2809	-0.09
Mof_N 	N 	0.3365	0.9429	0.2324	-0.097
Mof_N 	N 	0.2415	0.039	0.1638	-0.215
Mof_N 	N 	0.0515	0.2447	0.8925	-0.09
Mof_N 	N 	0.0994	0.1782	0.8357	-0.096
Mof_N 	N 	0.1379	0.1631	0.97487	-0.223
Mof_C 	C 	0.372	0.9829	0.4333	-0.069
Mof_C 	C 	0.4662	0.085	0.4853	0.097
Mof_C 	C 	0.5956	0.1036	0.5533	0.097
Mof_C 	C 	0.2295	0.965	0.3632	-0.039
Mof_H 	H 	0.1789	0.0103	0.3921	0.043
Mof_H 	H 	0.1641	0.892	0.3447	0.047
Mof_C 	C 	0.4338	0.1777	0.4674	-0.545
Mof_H 	H 	0.3278	0.1588	0.4421	0.199
Mof_H 	H 	0.4689	0.237	0.5248	0.193
Mof_H 	H 	0.484	0.1965	0.424	0.202
Mof_C 	C 	0.6927	0.2159	0.6119	-0.553
Mof_H 	H 	0.6428	0.2461	0.654	0.199
Mof_H 	H 	0.7861	0.2169	0.6468	0.207
Mof_H 	H 	0.7111	0.2567	0.5724	0.207
Mof_C 	C 	0.3259	0.977	0.1629	0.094
Mof_H 	H 	0.3725	0.9601	0.1168	0.012
Mof_C 	C 	0.1987	0.0425	0.2388	0.093
Mof_H 	H 	0.1374	0.0791	0.2593	0.01
Mof_C 	C 	0.9895	0.4072	0.9343	-0.056
Mof_C 	C 	0.8647	0.4136	0.9625	0.097
Mof_C 	C 	0.8748	0.5079	0.0278	0.097
Mof_C 	C 	0.9801	0.311	0.8573	-0.067
Mof_H 	H 	0.0284	0.3334	0.8137	0.072
Mof_H 	H 	0.8758	0.2695	0.8241	0.061
Mof_C 	C 	0.7215	0.3211	0.9237	-0.535
Mof_H 	H 	0.7431	0.2565	0.911	0.196
Mof_H 	H 	0.6651	0.3248	0.9681	0.184
Mof_H 	H 	0.6643	0.3225	0.8671	0.191
Mof_C 	C 	0.7391	0.5178	0.0565	-0.525
Mof_H 	H 	0.6742	0.5295	0.009	0.183
Mof_H 	H 	0.6869	0.4538	0.0651	0.179
Mof_H 	H 	0.7691	0.5766	0.1139	0.197
Mof_C 	C 	0.151	0.1317	0.8889	0.093
Mof_H 	H 	0.1936	0.0808	0.8687	0.011
Mof_C 	C 	0.0739	0.2342	0.9742	0.096
Mof_H 	H 	0.0483	0.2717	0.0243	0.005
Mof_C 	C 	0.8575	0.2101	0.1396	-0.112
Mof_C 	C 	0.7045	0.1872	0.1207	0.036
Mof_H 	H 	0.6394	0.1191	0.0834	0.047
Mof_C 	C 	0.6483	0.2643	0.1566	-0.095
Mof_C 	C 	0.7441	0.3658	0.2103	0.026
Mof_H 	H 	0.7061	0.4182	0.2349	0.046
Mof_C 	C 	0.8961	0.3891	0.2274	-0.088
Mof_C 	C 	0.9522	0.3112	0.1936	0.044
Mof_H 	H 	0.0554	0.3269	0.2075	0.045
Mof_C 	C 	0.9179	0.1262	0.0987	0.369
Mof_C 	C 	0.4825	0.2357	0.1383	0.308
_end
