data_functionalizedCrystal
_audit_creation_method	'EQeq! by Chris Wilmer'
_symmetry_space_group_name_H-M	'P1'
_symmetry_Int_Tables_number	1
_symmetry_cell_setting	triclinic
loop_
_symmetry_equiv_pos_as_xyz
  x,y,z
_cell_length_a	35.2563
_cell_length_b	15.4625
_cell_length_c	25.051
_cell_angle_alpha	90
_cell_angle_beta	122.794
_cell_angle_gamma	90
loop_
_atom_site_label
_atom_site_type_symbol
_atom_site_fract_x
_atom_site_fract_y
_atom_site_fract_z
_atom_site_charge
Mof_N 	N 	0.3427	0.9682	0.3533	-0.239
Mof_C 	C 	0.3342	0.9417	0.3967	0.091
Mof_H 	H 	0.3106	0.9605	0.4003	-0.01
Mof_N 	N 	0.3656	0.8835	0.4341	-0.094
Mof_N 	N 	0.3935	0.874	0.4138	-0.076
Mof_C 	C 	0.3793	0.9263	0.3638	0.078
Mof_H 	H 	0.3926	0.9325	0.3406	-0.008
Mof_C 	C 	0.4284	0.8108	0.4348	-0.128
Mof_H 	H 	0.4415	0.7988	0.4794	0.077
Mof_H 	H 	0.452	0.8335	0.4299	0.07
Mof_C 	C 	0.4103	0.7294	0.3977	0.066
Mof_C 	C 	0.3996	0.723	0.3361	-0.066
Mof_H 	H 	0.4009	0.7734	0.3166	0.05
Mof_C 	C 	0.406	0.6541	0.4233	-0.07
Mof_H 	H 	0.4134	0.6542	0.465	0.055
Mof_N 	N 	0.2544	0.4817	0.2421	-0.242
Mof_C 	C 	0.2682	0.4042	0.2659	0.105
Mof_H 	H 	0.2507	0.3612	0.2682	-0.02
Mof_N 	N 	0.3109	0.3979	0.2859	-0.101
Mof_N 	N 	0.3236	0.4715	0.2745	-0.079
Mof_C 	C 	0.2886	0.5233	0.2475	0.093
Mof_H 	H 	0.2882	0.5797	0.2343	-0.017
Mof_C 	C 	0.3683	0.4915	0.291	-0.132
Mof_H 	H 	0.3687	0.4978	0.2528	0.072
Mof_H 	H 	0.3887	0.445	0.3162	0.08
Mof_C 	C 	0.3831	0.5735	0.328	0.066
Mof_C 	C 	0.3873	0.6491	0.3025	-0.077
Mof_H 	H 	0.3816	0.649	0.2616	0.05
Mof_C 	C 	0.3908	0.578	0.3882	-0.072
Mof_H 	H 	0.3857	0.5294	0.4054	0.058
Mof_N 	N 	0.2638	0.124	0.2019	-0.243
Mof_C 	C 	0.2654	0.2082	0.2079	0.102
Mof_H 	H 	0.2827	0.2389	0.2456	-0.015
Mof_N 	N 	0.2386	0.2416	0.1514	-0.092
Mof_N 	N 	0.2204	0.1781	0.1107	-0.079
Mof_C 	C 	0.2359	0.1054	0.1419	0.099
Mof_H 	H 	0.2285	0.0502	0.1244	-0.019
Mof_C 	C 	0.194	0.189	0.0432	-0.134
Mof_H 	H 	0.1698	0.2301	0.0321	0.082
Mof_H 	H 	0.1804	0.1346	0.0231	0.069
Mof_C 	C 	0.2207	0.2214	0.0185	0.079
Mof_C 	C 	0.25	0.1664	0.0162	-0.075
Mof_H 	H 	0.2506	0.1087	0.0272	0.054
Mof_C 	C 	0.2203	0.3057	0.0025	-0.081
Mof_H 	H 	0.2008	0.3449	0.0038	0.06
Mof_N 	N 	0.3554	0.0921	0.2771	-0.237
Mof_C 	C 	0.3812	0.1609	0.3121	0.078
Mof_H 	H 	0.3842	0.1819	0.349	-0.009
Mof_N 	N 	0.4018	0.1935	0.2834	-0.089
Mof_N 	N 	0.3888	0.1449	0.2308	-0.074
Mof_C 	C 	0.3601	0.0823	0.2269	0.069
Mof_H 	H 	0.3462	0.0402	0.1955	-0.015
Mof_C 	C 	0.4039	0.142	0.188	-0.131
Mof_H 	H 	0.3865	0.1826	0.1539	0.075
Mof_H 	H 	0.3979	0.0843	0.1694	0.066
Mof_C 	C 	0.4519	0.161	0.218	0.075
Mof_C 	C 	0.4766	0.087	0.235	-0.071
Mof_H 	H 	0.4618	0.0341	0.2281	0.053
Mof_C 	C 	0.4765	0.235	0.234	-0.073
Mof_H 	H 	0.4614	0.2879	0.2224	0.058
Mof_Cu	Cu	0.30333	0.0432	0.27651	0.85
Mof_N 	N 	0.8427	0.4682	0.3533	-0.24
Mof_C 	C 	0.8342	0.4417	0.3967	0.09
Mof_H 	H 	0.8106	0.4605	0.4003	-0.011
Mof_N 	N 	0.8656	0.3835	0.4341	-0.095
Mof_N 	N 	0.8935	0.374	0.4138	-0.077
Mof_C 	C 	0.8793	0.4263	0.3638	0.077
Mof_H 	H 	0.8926	0.4325	0.3406	-0.01
Mof_C 	C 	0.9284	0.3108	0.4348	-0.13
Mof_H 	H 	0.9415	0.2988	0.4794	0.076
Mof_H 	H 	0.952	0.3335	0.4299	0.069
Mof_C 	C 	0.9103	0.2294	0.3977	0.066
Mof_C 	C 	0.8996	0.223	0.3361	-0.068
Mof_H 	H 	0.9009	0.2734	0.3166	0.049
Mof_C 	C 	0.906	0.1541	0.4233	-0.072
Mof_H 	H 	0.9134	0.1542	0.465	0.054
Mof_N 	N 	0.7544	0.9817	0.2421	-0.242
Mof_C 	C 	0.7682	0.9042	0.2659	0.104
Mof_H 	H 	0.7507	0.8612	0.2682	-0.021
Mof_N 	N 	0.8109	0.8979	0.2859	-0.101
Mof_N 	N 	0.8236	0.9715	0.2745	-0.079
Mof_C 	C 	0.7886	0.0233	0.2475	0.092
Mof_H 	H 	0.7882	0.0797	0.2343	-0.017
Mof_C 	C 	0.8683	0.9915	0.291	-0.131
Mof_H 	H 	0.8687	0.9978	0.2528	0.072
Mof_H 	H 	0.8887	0.945	0.3162	0.079
Mof_C 	C 	0.8831	0.0735	0.328	0.064
Mof_C 	C 	0.8873	0.1491	0.3025	-0.076
Mof_H 	H 	0.8816	0.149	0.2616	0.05
Mof_C 	C 	0.8908	0.078	0.3882	-0.071
Mof_H 	H 	0.8857	0.0294	0.4054	0.058
Mof_N 	N 	0.7638	0.624	0.2019	-0.243
Mof_C 	C 	0.7654	0.7082	0.2079	0.102
Mof_H 	H 	0.7827	0.7389	0.2456	-0.015
Mof_N 	N 	0.7386	0.7416	0.1514	-0.092
Mof_N 	N 	0.7204	0.6781	0.1107	-0.079
Mof_C 	C 	0.7359	0.6054	0.1419	0.1
Mof_H 	H 	0.7285	0.5502	0.1244	-0.019
Mof_C 	C 	0.694	0.689	0.0432	-0.131
Mof_H 	H 	0.6698	0.7301	0.0321	0.081
Mof_H 	H 	0.6804	0.6346	0.0231	0.068
Mof_C 	C 	0.7207	0.7214	0.0185	0.074
Mof_C 	C 	0.75	0.6664	0.0162	-0.068
Mof_H 	H 	0.7506	0.6087	0.0272	0.052
Mof_C 	C 	0.7203	0.8057	0.0025	-0.074
Mof_H 	H 	0.7008	0.8449	0.0038	0.058
Mof_N 	N 	0.8554	0.5921	0.2771	-0.237
Mof_C 	C 	0.8812	0.6609	0.3121	0.078
Mof_H 	H 	0.8842	0.6819	0.349	-0.009
Mof_N 	N 	0.9018	0.6935	0.2834	-0.089
Mof_N 	N 	0.8888	0.6449	0.2308	-0.074
Mof_C 	C 	0.8601	0.5823	0.2269	0.069
Mof_H 	H 	0.8462	0.5402	0.1955	-0.015
Mof_C 	C 	0.9039	0.642	0.188	-0.131
Mof_H 	H 	0.8865	0.6826	0.1539	0.075
Mof_H 	H 	0.8979	0.5843	0.1694	0.067
Mof_C 	C 	0.9519	0.661	0.218	0.076
Mof_C 	C 	0.9766	0.587	0.235	-0.072
Mof_H 	H 	0.9618	0.5341	0.2281	0.053
Mof_C 	C 	0.9765	0.735	0.234	-0.073
Mof_H 	H 	0.9614	0.7879	0.2224	0.058
Mof_Cu	Cu	0.80333	0.5432	0.27651	0.85
Mof_N 	N 	0.6573	0.9682	0.1467	-0.24
Mof_C 	C 	0.6658	0.9417	0.1033	0.09
Mof_H 	H 	0.6894	0.9605	0.0997	-0.01
Mof_N 	N 	0.6344	0.8835	0.0659	-0.095
Mof_N 	N 	0.6065	0.874	0.0862	-0.077
Mof_C 	C 	0.6207	0.9263	0.1362	0.077
Mof_H 	H 	0.6074	0.9325	0.1594	-0.009
Mof_C 	C 	0.5716	0.8108	0.0652	-0.13
Mof_H 	H 	0.5585	0.7988	0.0206	0.077
Mof_H 	H 	0.548	0.8335	0.0701	0.069
Mof_C 	C 	0.5897	0.7294	0.1023	0.066
Mof_C 	C 	0.6004	0.723	0.1639	-0.067
Mof_H 	H 	0.5991	0.7734	0.1834	0.049
Mof_C 	C 	0.594	0.6541	0.0767	-0.071
Mof_H 	H 	0.5866	0.6542	0.035	0.054
Mof_N 	N 	0.7456	0.4817	0.2579	-0.243
Mof_C 	C 	0.7318	0.4042	0.2341	0.104
Mof_H 	H 	0.7493	0.3612	0.2318	-0.021
Mof_N 	N 	0.6891	0.3979	0.2141	-0.101
Mof_N 	N 	0.6764	0.4715	0.2255	-0.079
Mof_C 	C 	0.7114	0.5233	0.2525	0.093
Mof_H 	H 	0.7118	0.5797	0.2657	-0.017
Mof_C 	C 	0.6317	0.4915	0.209	-0.132
Mof_H 	H 	0.6313	0.4978	0.2472	0.072
Mof_H 	H 	0.6113	0.445	0.1838	0.08
Mof_C 	C 	0.6169	0.5735	0.172	0.066
Mof_C 	C 	0.6127	0.6491	0.1975	-0.077
Mof_H 	H 	0.6184	0.649	0.2384	0.05
Mof_C 	C 	0.6092	0.578	0.1118	-0.071
Mof_H 	H 	0.6143	0.5294	0.0946	0.058
Mof_N 	N 	0.7362	0.124	0.2981	-0.243
Mof_C 	C 	0.7346	0.2082	0.2921	0.102
Mof_H 	H 	0.7173	0.2389	0.2544	-0.015
Mof_N 	N 	0.7614	0.2416	0.3486	-0.092
Mof_N 	N 	0.7796	0.1781	0.3893	-0.079
Mof_C 	C 	0.7641	0.1054	0.3581	0.099
Mof_H 	H 	0.7715	0.0502	0.3756	-0.019
Mof_C 	C 	0.806	0.189	0.4568	-0.132
Mof_H 	H 	0.8302	0.2301	0.4679	0.081
Mof_H 	H 	0.8196	0.1346	0.4769	0.069
Mof_C 	C 	0.7793	0.2214	0.4815	0.076
Mof_C 	C 	0.75	0.1664	0.4838	-0.071
Mof_H 	H 	0.7494	0.1087	0.4728	0.053
Mof_C 	C 	0.7797	0.3057	0.4975	-0.078
Mof_H 	H 	0.7992	0.3449	0.4962	0.059
Mof_N 	N 	0.6446	0.0921	0.2229	-0.238
Mof_C 	C 	0.6188	0.1609	0.1879	0.078
Mof_H 	H 	0.6158	0.1819	0.151	-0.009
Mof_N 	N 	0.5982	0.1935	0.2166	-0.089
Mof_N 	N 	0.6112	0.1449	0.2692	-0.074
Mof_C 	C 	0.6399	0.0823	0.2731	0.069
Mof_H 	H 	0.6538	0.0402	0.3045	-0.015
Mof_C 	C 	0.5961	0.142	0.312	-0.131
Mof_H 	H 	0.6135	0.1826	0.3461	0.075
Mof_H 	H 	0.6021	0.0843	0.3306	0.067
Mof_C 	C 	0.5481	0.161	0.282	0.076
Mof_C 	C 	0.5234	0.087	0.265	-0.072
Mof_H 	H 	0.5382	0.0341	0.2719	0.053
Mof_C 	C 	0.5235	0.235	0.266	-0.073
Mof_H 	H 	0.5386	0.2879	0.2776	0.058
Mof_Cu	Cu	0.69667	0.0432	0.22349	0.849
Mof_N 	N 	0.1573	0.4682	0.1467	-0.24
Mof_C 	C 	0.1658	0.4417	0.1033	0.09
Mof_H 	H 	0.1894	0.4605	0.0997	-0.011
Mof_N 	N 	0.1344	0.3835	0.0659	-0.095
Mof_N 	N 	0.1065	0.374	0.0862	-0.077
Mof_C 	C 	0.1207	0.4263	0.1362	0.077
Mof_H 	H 	0.1074	0.4325	0.1594	-0.01
Mof_C 	C 	0.0716	0.3108	0.0652	-0.13
Mof_H 	H 	0.0585	0.2988	0.0206	0.076
Mof_H 	H 	0.048	0.3335	0.0701	0.069
Mof_C 	C 	0.0897	0.2294	0.1023	0.066
Mof_C 	C 	0.1004	0.223	0.1639	-0.068
Mof_H 	H 	0.0991	0.2734	0.1834	0.049
Mof_C 	C 	0.094	0.1541	0.0767	-0.072
Mof_H 	H 	0.0866	0.1542	0.035	0.054
Mof_N 	N 	0.2456	0.9817	0.2579	-0.242
Mof_C 	C 	0.2318	0.9042	0.2341	0.104
Mof_H 	H 	0.2493	0.8612	0.2318	-0.021
Mof_N 	N 	0.1891	0.8979	0.2141	-0.101
Mof_N 	N 	0.1764	0.9715	0.2255	-0.079
Mof_C 	C 	0.2114	0.0233	0.2525	0.092
Mof_H 	H 	0.2118	0.0797	0.2657	-0.017
Mof_C 	C 	0.1317	0.9915	0.209	-0.13
Mof_H 	H 	0.1313	0.9978	0.2472	0.072
Mof_H 	H 	0.1113	0.945	0.1838	0.079
Mof_C 	C 	0.1169	0.0735	0.172	0.064
Mof_C 	C 	0.1127	0.1491	0.1975	-0.076
Mof_H 	H 	0.1184	0.149	0.2384	0.05
Mof_C 	C 	0.1092	0.078	0.1118	-0.07
Mof_H 	H 	0.1143	0.0294	0.0946	0.058
Mof_N 	N 	0.2362	0.624	0.2981	-0.243
Mof_C 	C 	0.2346	0.7082	0.2921	0.102
Mof_H 	H 	0.2173	0.7389	0.2544	-0.015
Mof_N 	N 	0.2614	0.7416	0.3486	-0.092
Mof_N 	N 	0.2796	0.6781	0.3893	-0.079
Mof_C 	C 	0.2641	0.6054	0.3581	0.099
Mof_H 	H 	0.2715	0.5502	0.3756	-0.019
Mof_C 	C 	0.306	0.689	0.4568	-0.132
Mof_H 	H 	0.3302	0.7301	0.4679	0.081
Mof_H 	H 	0.3196	0.6346	0.4769	0.069
Mof_C 	C 	0.2793	0.7214	0.4815	0.076
Mof_C 	C 	0.25	0.6664	0.4838	-0.071
Mof_H 	H 	0.2494	0.6087	0.4728	0.053
Mof_C 	C 	0.2797	0.8057	0.4975	-0.077
Mof_H 	H 	0.2992	0.8449	0.4962	0.059
Mof_N 	N 	0.1446	0.5921	0.2229	-0.237
Mof_C 	C 	0.1188	0.6609	0.1879	0.078
Mof_H 	H 	0.1158	0.6819	0.151	-0.009
Mof_N 	N 	0.0982	0.6935	0.2166	-0.089
Mof_N 	N 	0.1112	0.6449	0.2692	-0.074
Mof_C 	C 	0.1399	0.5823	0.2731	0.069
Mof_H 	H 	0.1538	0.5402	0.3045	-0.015
Mof_C 	C 	0.0961	0.642	0.312	-0.131
Mof_H 	H 	0.1135	0.6826	0.3461	0.075
Mof_H 	H 	0.1021	0.5843	0.3306	0.067
Mof_C 	C 	0.0481	0.661	0.282	0.076
Mof_C 	C 	0.0234	0.587	0.265	-0.071
Mof_H 	H 	0.0382	0.5341	0.2719	0.053
Mof_C 	C 	0.0235	0.735	0.266	-0.073
Mof_H 	H 	0.0386	0.7879	0.2776	0.058
Mof_Cu	Cu	0.19667	0.5432	0.22349	0.85
Mof_N 	N 	0.6573	0.0318	0.6467	-0.24
Mof_C 	C 	0.6658	0.0583	0.6033	0.09
Mof_H 	H 	0.6894	0.0395	0.5997	-0.011
Mof_N 	N 	0.6344	0.1165	0.5659	-0.095
Mof_N 	N 	0.6065	0.126	0.5862	-0.077
Mof_C 	C 	0.6207	0.0737	0.6362	0.077
Mof_H 	H 	0.6074	0.0675	0.6594	-0.009
Mof_C 	C 	0.5716	0.1892	0.5652	-0.129
Mof_H 	H 	0.5585	0.2012	0.5206	0.076
Mof_H 	H 	0.548	0.1665	0.5701	0.069
Mof_C 	C 	0.5897	0.2706	0.6023	0.065
Mof_C 	C 	0.6004	0.277	0.6639	-0.067
Mof_H 	H 	0.5991	0.2266	0.6834	0.049
Mof_C 	C 	0.594	0.3459	0.5767	-0.071
Mof_H 	H 	0.5866	0.3458	0.535	0.054
Mof_N 	N 	0.7456	0.5183	0.7579	-0.243
Mof_C 	C 	0.7318	0.5958	0.7341	0.104
Mof_H 	H 	0.7493	0.6388	0.7318	-0.021
Mof_N 	N 	0.6891	0.6021	0.7141	-0.101
Mof_N 	N 	0.6764	0.5285	0.7255	-0.079
Mof_C 	C 	0.7114	0.4767	0.7525	0.093
Mof_H 	H 	0.7118	0.4203	0.7657	-0.017
Mof_C 	C 	0.6317	0.5085	0.709	-0.132
Mof_H 	H 	0.6313	0.5022	0.7472	0.072
Mof_H 	H 	0.6113	0.555	0.6838	0.08
Mof_C 	C 	0.6169	0.4265	0.672	0.066
Mof_C 	C 	0.6127	0.3509	0.6975	-0.077
Mof_H 	H 	0.6184	0.351	0.7384	0.05
Mof_C 	C 	0.6092	0.422	0.6118	-0.072
Mof_H 	H 	0.6143	0.4706	0.5946	0.058
Mof_N 	N 	0.7362	0.876	0.7981	-0.243
Mof_C 	C 	0.7346	0.7918	0.7921	0.102
Mof_H 	H 	0.7173	0.7611	0.7544	-0.015
Mof_N 	N 	0.7614	0.7584	0.8486	-0.092
Mof_N 	N 	0.7796	0.8219	0.8893	-0.079
Mof_C 	C 	0.7641	0.8946	0.8581	0.099
Mof_H 	H 	0.7715	0.9498	0.8756	-0.019
Mof_C 	C 	0.806	0.811	0.9568	-0.134
Mof_H 	H 	0.8302	0.7699	0.9679	0.082
Mof_H 	H 	0.8196	0.8654	0.9769	0.069
Mof_C 	C 	0.7793	0.7786	0.9815	0.079
Mof_C 	C 	0.75	0.8336	0.9838	-0.075
Mof_H 	H 	0.7494	0.8913	0.9728	0.054
Mof_C 	C 	0.7797	0.6943	0.9975	-0.081
Mof_H 	H 	0.7992	0.6551	0.9962	0.06
Mof_N 	N 	0.6446	0.9079	0.7229	-0.237
Mof_C 	C 	0.6188	0.8391	0.6879	0.078
Mof_H 	H 	0.6158	0.8181	0.651	-0.009
Mof_N 	N 	0.5982	0.8065	0.7166	-0.089
Mof_N 	N 	0.6112	0.8551	0.7692	-0.074
Mof_C 	C 	0.6399	0.9177	0.7731	0.069
Mof_H 	H 	0.6538	0.9598	0.8045	-0.015
Mof_C 	C 	0.5961	0.858	0.812	-0.131
Mof_H 	H 	0.6135	0.8174	0.8461	0.075
Mof_H 	H 	0.6021	0.9157	0.8306	0.066
Mof_C 	C 	0.5481	0.839	0.782	0.075
Mof_C 	C 	0.5234	0.913	0.765	-0.071
Mof_H 	H 	0.5382	0.9659	0.7719	0.053
Mof_C 	C 	0.5235	0.765	0.766	-0.073
Mof_H 	H 	0.5386	0.7121	0.7776	0.058
Mof_Cu	Cu	0.69667	0.9568	0.72349	0.85
Mof_N 	N 	0.1573	0.5318	0.6467	-0.24
Mof_C 	C 	0.1658	0.5583	0.6033	0.09
Mof_H 	H 	0.1894	0.5395	0.5997	-0.011
Mof_N 	N 	0.1344	0.6165	0.5659	-0.095
Mof_N 	N 	0.1065	0.626	0.5862	-0.077
Mof_C 	C 	0.1207	0.5737	0.6362	0.077
Mof_H 	H 	0.1074	0.5675	0.6594	-0.01
Mof_C 	C 	0.0716	0.6892	0.5652	-0.13
Mof_H 	H 	0.0585	0.7012	0.5206	0.076
Mof_H 	H 	0.048	0.6665	0.5701	0.069
Mof_C 	C 	0.0897	0.7706	0.6023	0.066
Mof_C 	C 	0.1004	0.777	0.6639	-0.068
Mof_H 	H 	0.0991	0.7266	0.6834	0.049
Mof_C 	C 	0.094	0.8459	0.5767	-0.072
Mof_H 	H 	0.0866	0.8458	0.535	0.054
Mof_N 	N 	0.2456	0.0183	0.7579	-0.242
Mof_C 	C 	0.2318	0.0958	0.7341	0.104
Mof_H 	H 	0.2493	0.1388	0.7318	-0.021
Mof_N 	N 	0.1891	0.1021	0.7141	-0.101
Mof_N 	N 	0.1764	0.0285	0.7255	-0.079
Mof_C 	C 	0.2114	0.9767	0.7525	0.092
Mof_H 	H 	0.2118	0.9203	0.7657	-0.017
Mof_C 	C 	0.1317	0.0085	0.709	-0.131
Mof_H 	H 	0.1313	0.0022	0.7472	0.072
Mof_H 	H 	0.1113	0.055	0.6838	0.079
Mof_C 	C 	0.1169	0.9265	0.672	0.064
Mof_C 	C 	0.1127	0.8509	0.6975	-0.076
Mof_H 	H 	0.1184	0.851	0.7384	0.05
Mof_C 	C 	0.1092	0.922	0.6118	-0.071
Mof_H 	H 	0.1143	0.9706	0.5946	0.058
Mof_N 	N 	0.2362	0.376	0.7981	-0.243
Mof_C 	C 	0.2346	0.2918	0.7921	0.102
Mof_H 	H 	0.2173	0.2611	0.7544	-0.015
Mof_N 	N 	0.2614	0.2584	0.8486	-0.092
Mof_N 	N 	0.2796	0.3219	0.8893	-0.079
Mof_C 	C 	0.2641	0.3946	0.8581	0.1
Mof_H 	H 	0.2715	0.4498	0.8756	-0.019
Mof_C 	C 	0.306	0.311	0.9568	-0.131
Mof_H 	H 	0.3302	0.2699	0.9679	0.081
Mof_H 	H 	0.3196	0.3654	0.9769	0.068
Mof_C 	C 	0.2793	0.2786	0.9815	0.074
Mof_C 	C 	0.25	0.3336	0.9838	-0.068
Mof_H 	H 	0.2494	0.3913	0.9728	0.052
Mof_C 	C 	0.2797	0.1943	0.9975	-0.074
Mof_H 	H 	0.2992	0.1551	0.9962	0.058
Mof_N 	N 	0.1446	0.4079	0.7229	-0.237
Mof_C 	C 	0.1188	0.3391	0.6879	0.078
Mof_H 	H 	0.1158	0.3181	0.651	-0.009
Mof_N 	N 	0.0982	0.3065	0.7166	-0.089
Mof_N 	N 	0.1112	0.3551	0.7692	-0.074
Mof_C 	C 	0.1399	0.4177	0.7731	0.069
Mof_H 	H 	0.1538	0.4598	0.8045	-0.015
Mof_C 	C 	0.0961	0.358	0.812	-0.131
Mof_H 	H 	0.1135	0.3174	0.8461	0.075
Mof_H 	H 	0.1021	0.4157	0.8306	0.067
Mof_C 	C 	0.0481	0.339	0.782	0.076
Mof_C 	C 	0.0234	0.413	0.765	-0.072
Mof_H 	H 	0.0382	0.4659	0.7719	0.053
Mof_C 	C 	0.0235	0.265	0.766	-0.073
Mof_H 	H 	0.0386	0.2121	0.7776	0.058
Mof_Cu	Cu	0.19667	0.4568	0.72349	0.85
Mof_N 	N 	0.3427	0.0318	0.8533	-0.24
Mof_C 	C 	0.3342	0.0583	0.8967	0.09
Mof_H 	H 	0.3106	0.0395	0.9003	-0.01
Mof_N 	N 	0.3656	0.1165	0.9341	-0.095
Mof_N 	N 	0.3935	0.126	0.9138	-0.077
Mof_C 	C 	0.3793	0.0737	0.8638	0.077
Mof_H 	H 	0.3926	0.0675	0.8406	-0.009
Mof_C 	C 	0.4284	0.1892	0.9348	-0.13
Mof_H 	H 	0.4415	0.2012	0.9794	0.077
Mof_H 	H 	0.452	0.1665	0.9299	0.069
Mof_C 	C 	0.4103	0.2706	0.8977	0.066
Mof_C 	C 	0.3996	0.277	0.8361	-0.067
Mof_H 	H 	0.4009	0.2266	0.8166	0.049
Mof_C 	C 	0.406	0.3459	0.9233	-0.071
Mof_H 	H 	0.4134	0.3458	0.965	0.054
Mof_N 	N 	0.2544	0.5183	0.7421	-0.243
Mof_C 	C 	0.2682	0.5958	0.7659	0.104
Mof_H 	H 	0.2507	0.6388	0.7682	-0.021
Mof_N 	N 	0.3109	0.6021	0.7859	-0.101
Mof_N 	N 	0.3236	0.5285	0.7745	-0.079
Mof_C 	C 	0.2886	0.4767	0.7475	0.093
Mof_H 	H 	0.2882	0.4203	0.7343	-0.017
Mof_C 	C 	0.3683	0.5085	0.791	-0.132
Mof_H 	H 	0.3687	0.5022	0.7528	0.072
Mof_H 	H 	0.3887	0.555	0.8162	0.08
Mof_C 	C 	0.3831	0.4265	0.828	0.066
Mof_C 	C 	0.3873	0.3509	0.8025	-0.077
Mof_H 	H 	0.3816	0.351	0.7616	0.05
Mof_C 	C 	0.3908	0.422	0.8882	-0.071
Mof_H 	H 	0.3857	0.4706	0.9054	0.058
Mof_N 	N 	0.2638	0.876	0.7019	-0.243
Mof_C 	C 	0.2654	0.7918	0.7079	0.102
Mof_H 	H 	0.2827	0.7611	0.7456	-0.015
Mof_N 	N 	0.2386	0.7584	0.6514	-0.092
Mof_N 	N 	0.2204	0.8219	0.6107	-0.079
Mof_C 	C 	0.2359	0.8946	0.6419	0.099
Mof_H 	H 	0.2285	0.9498	0.6244	-0.019
Mof_C 	C 	0.194	0.811	0.5432	-0.132
Mof_H 	H 	0.1698	0.7699	0.5321	0.081
Mof_H 	H 	0.1804	0.8654	0.5231	0.069
Mof_C 	C 	0.2207	0.7786	0.5185	0.076
Mof_C 	C 	0.25	0.8336	0.5162	-0.071
Mof_H 	H 	0.2506	0.8913	0.5272	0.053
Mof_C 	C 	0.2203	0.6943	0.5025	-0.078
Mof_H 	H 	0.2008	0.6551	0.5038	0.059
Mof_N 	N 	0.3554	0.9079	0.7771	-0.238
Mof_C 	C 	0.3812	0.8391	0.8121	0.078
Mof_H 	H 	0.3842	0.8181	0.849	-0.009
Mof_N 	N 	0.4018	0.8065	0.7834	-0.089
Mof_N 	N 	0.3888	0.8551	0.7308	-0.074
Mof_C 	C 	0.3601	0.9177	0.7269	0.069
Mof_H 	H 	0.3462	0.9598	0.6955	-0.015
Mof_C 	C 	0.4039	0.858	0.688	-0.131
Mof_H 	H 	0.3865	0.8174	0.6539	0.075
Mof_H 	H 	0.3979	0.9157	0.6694	0.067
Mof_C 	C 	0.4519	0.839	0.718	0.076
Mof_C 	C 	0.4766	0.913	0.735	-0.072
Mof_H 	H 	0.4618	0.9659	0.7281	0.053
Mof_C 	C 	0.4765	0.765	0.734	-0.073
Mof_H 	H 	0.4614	0.7121	0.7224	0.058
Mof_Cu	Cu	0.30333	0.9568	0.77651	0.849
Mof_N 	N 	0.8427	0.5318	0.8533	-0.24
Mof_C 	C 	0.8342	0.5583	0.8967	0.09
Mof_H 	H 	0.8106	0.5395	0.9003	-0.011
Mof_N 	N 	0.8656	0.6165	0.9341	-0.095
Mof_N 	N 	0.8935	0.626	0.9138	-0.077
Mof_C 	C 	0.8793	0.5737	0.8638	0.077
Mof_H 	H 	0.8926	0.5675	0.8406	-0.01
Mof_C 	C 	0.9284	0.6892	0.9348	-0.13
Mof_H 	H 	0.9415	0.7012	0.9794	0.076
Mof_H 	H 	0.952	0.6665	0.9299	0.069
Mof_C 	C 	0.9103	0.7706	0.8977	0.066
Mof_C 	C 	0.8996	0.777	0.8361	-0.068
Mof_H 	H 	0.9009	0.7266	0.8166	0.049
Mof_C 	C 	0.906	0.8459	0.9233	-0.072
Mof_H 	H 	0.9134	0.8458	0.965	0.054
Mof_N 	N 	0.7544	0.0183	0.7421	-0.242
Mof_C 	C 	0.7682	0.0958	0.7659	0.104
Mof_H 	H 	0.7507	0.1388	0.7682	-0.021
Mof_N 	N 	0.8109	0.1021	0.7859	-0.101
Mof_N 	N 	0.8236	0.0285	0.7745	-0.079
Mof_C 	C 	0.7886	0.9767	0.7475	0.092
Mof_H 	H 	0.7882	0.9203	0.7343	-0.017
Mof_C 	C 	0.8683	0.0085	0.791	-0.13
Mof_H 	H 	0.8687	0.0022	0.7528	0.072
Mof_H 	H 	0.8887	0.055	0.8162	0.079
Mof_C 	C 	0.8831	0.9265	0.828	0.064
Mof_C 	C 	0.8873	0.8509	0.8025	-0.076
Mof_H 	H 	0.8816	0.851	0.7616	0.05
Mof_C 	C 	0.8908	0.922	0.8882	-0.07
Mof_H 	H 	0.8857	0.9706	0.9054	0.058
Mof_N 	N 	0.7638	0.376	0.7019	-0.243
Mof_C 	C 	0.7654	0.2918	0.7079	0.102
Mof_H 	H 	0.7827	0.2611	0.7456	-0.015
Mof_N 	N 	0.7386	0.2584	0.6514	-0.092
Mof_N 	N 	0.7204	0.3219	0.6107	-0.079
Mof_C 	C 	0.7359	0.3946	0.6419	0.099
Mof_H 	H 	0.7285	0.4498	0.6244	-0.019
Mof_C 	C 	0.694	0.311	0.5432	-0.132
Mof_H 	H 	0.6698	0.2699	0.5321	0.081
Mof_H 	H 	0.6804	0.3654	0.5231	0.069
Mof_C 	C 	0.7207	0.2786	0.5185	0.076
Mof_C 	C 	0.75	0.3336	0.5162	-0.071
Mof_H 	H 	0.7506	0.3913	0.5272	0.053
Mof_C 	C 	0.7203	0.1943	0.5025	-0.077
Mof_H 	H 	0.7008	0.1551	0.5038	0.059
Mof_N 	N 	0.8554	0.4079	0.7771	-0.237
Mof_C 	C 	0.8812	0.3391	0.8121	0.078
Mof_H 	H 	0.8842	0.3181	0.849	-0.009
Mof_N 	N 	0.9018	0.3065	0.7834	-0.089
Mof_N 	N 	0.8888	0.3551	0.7308	-0.074
Mof_C 	C 	0.8601	0.4177	0.7269	0.069
Mof_H 	H 	0.8462	0.4598	0.6955	-0.015
Mof_C 	C 	0.9039	0.358	0.688	-0.131
Mof_H 	H 	0.8865	0.3174	0.6539	0.075
Mof_H 	H 	0.8979	0.4157	0.6694	0.067
Mof_C 	C 	0.9519	0.339	0.718	0.076
Mof_C 	C 	0.9766	0.413	0.735	-0.071
Mof_H 	H 	0.9618	0.4659	0.7281	0.053
Mof_C 	C 	0.9765	0.265	0.734	-0.073
Mof_H 	H 	0.9614	0.2121	0.7224	0.058
Mof_Cu	Cu	0.80333	0.4568	0.77651	0.85
_end
