data_functionalizedCrystal
_audit_creation_method	'EQeq! by Chris Wilmer'
_symmetry_space_group_name_H-M	'P1'
_symmetry_Int_Tables_number	1
_symmetry_cell_setting	triclinic
loop_
_symmetry_equiv_pos_as_xyz
  x,y,z
_cell_length_a	8.523
_cell_length_b	28.628
_cell_length_c	9.306
_cell_angle_alpha	90
_cell_angle_beta	96.497
_cell_angle_gamma	90
loop_
_atom_site_label
_atom_site_type_symbol
_atom_site_fract_x
_atom_site_fract_y
_atom_site_fract_z
_atom_site_charge
Mof_C 	C 	0.2331	0.24424	0.6021	0.289
Mof_C 	C 	0.3879	0.26479	0.6778	0.258
Mof_C 	C 	0.0334	0.02549	0.5051	0.281
Mof_C 	C 	0.0331	0.02505	0.0001	0.277
Mof_O 	O 	0.174	0.21034	0.6616	-0.454
Mof_O 	O 	0.435	0.24997	0.8004	-0.388
Mof_O 	O 	0.1733	0.26405	0.4879	-0.437
Mof_O 	O 	0.454	0.29508	0.6081	-0.403
Mof_O 	O 	0.1212	0.03761	0.413	-0.454
Mof_O 	O 	0.1454	0.03445	0.0936	-0.486
Mof_O 	O 	0.9883	0.05059	0.6045	-0.448
Mof_O 	O 	0.9678	0.05261	0.9073	-0.482
Mof_O 	O 	0.4487	0.03309	0.646	-0.542
Mof_O 	O 	0.5551	0.9596	0.7148	-0.545
Mof_O 	O 	0.3163	0.96229	0.5475	-0.519
Mof_O 	O 	0.3028	0.98262	0.7931	-0.373
Mof_O 	O 	0.5939	0.14764	0.8956	-0.548
Mof_O 	O 	0.4987	0.16504	0.654	-0.443
Mof_O 	O 	0.765	0.18906	0.7481	-0.292
Mof_O 	O 	0.7105	0.10822	0.7047	-0.579
Mof_S 	S 	0.40176	0.98418	0.67652	0.779
Mof_S 	S 	0.64471	0.15272	0.74903	0.793
Mof_Nd	Nd	0.74752	0.0248	0.71568	2.591
Mof_Nd	Nd	0.31929	0.17387	0.87168	2.121
Mof_C 	C 	0.7669	0.74424	0.8979	0.292
Mof_C 	C 	0.6121	0.76479	0.8222	0.258
Mof_C 	C 	0.9666	0.52549	0.9949	0.281
Mof_C 	C 	0.9669	0.52505	0.4999	0.276
Mof_O 	O 	0.826	0.71034	0.8384	-0.453
Mof_O 	O 	0.565	0.74997	0.6996	-0.386
Mof_O 	O 	0.8267	0.76405	0.0121	-0.438
Mof_O 	O 	0.546	0.79508	0.8919	-0.402
Mof_O 	O 	0.8788	0.53761	0.087	-0.454
Mof_O 	O 	0.8546	0.53445	0.4064	-0.487
Mof_O 	O 	0.0117	0.55059	0.8955	-0.447
Mof_O 	O 	0.0322	0.55261	0.5927	-0.481
Mof_O 	O 	0.5513	0.53309	0.854	-0.542
Mof_O 	O 	0.4449	0.4596	0.7852	-0.546
Mof_O 	O 	0.6837	0.46229	0.9525	-0.52
Mof_O 	O 	0.6972	0.48262	0.7069	-0.374
Mof_O 	O 	0.4061	0.64764	0.6044	-0.548
Mof_O 	O 	0.5013	0.66504	0.846	-0.443
Mof_O 	O 	0.235	0.68906	0.7519	-0.291
Mof_O 	O 	0.2895	0.60822	0.7953	-0.578
Mof_S 	S 	0.59824	0.48418	0.82348	0.778
Mof_S 	S 	0.35529	0.65272	0.75097	0.793
Mof_Nd	Nd	0.25248	0.5248	0.78432	2.591
Mof_Nd	Nd	0.68071	0.67387	0.62832	2.122
Mof_C 	C 	0.7669	0.75576	0.3979	0.29
Mof_C 	C 	0.6121	0.73521	0.3222	0.259
Mof_C 	C 	0.9666	0.97451	0.4949	0.282
Mof_C 	C 	0.9669	0.97495	0.9999	0.278
Mof_O 	O 	0.826	0.78966	0.3384	-0.453
Mof_O 	O 	0.565	0.75003	0.1996	-0.387
Mof_O 	O 	0.8267	0.73595	0.5121	-0.437
Mof_O 	O 	0.546	0.70492	0.3919	-0.403
Mof_O 	O 	0.8788	0.96239	0.587	-0.454
Mof_O 	O 	0.8546	0.96555	0.9064	-0.486
Mof_O 	O 	0.0117	0.94941	0.3955	-0.448
Mof_O 	O 	0.0322	0.94739	0.0927	-0.482
Mof_O 	O 	0.5513	0.96691	0.354	-0.542
Mof_O 	O 	0.4449	0.0404	0.2852	-0.545
Mof_O 	O 	0.6837	0.03771	0.4525	-0.519
Mof_O 	O 	0.6972	0.01738	0.2069	-0.373
Mof_O 	O 	0.4061	0.85236	0.1044	-0.548
Mof_O 	O 	0.5013	0.83496	0.346	-0.443
Mof_O 	O 	0.235	0.81094	0.2519	-0.292
Mof_O 	O 	0.2895	0.89178	0.2953	-0.579
Mof_S 	S 	0.59824	0.01582	0.32348	0.779
Mof_S 	S 	0.35529	0.84728	0.25097	0.793
Mof_Nd	Nd	0.25248	0.9752	0.28432	2.591
Mof_Nd	Nd	0.68071	0.82613	0.12832	2.121
Mof_C 	C 	0.2331	0.25576	0.1021	0.292
Mof_C 	C 	0.3879	0.23521	0.1778	0.258
Mof_C 	C 	0.0334	0.47451	0.0051	0.281
Mof_C 	C 	0.0331	0.47495	0.5001	0.276
Mof_O 	O 	0.174	0.28966	0.1616	-0.453
Mof_O 	O 	0.435	0.25003	0.3004	-0.386
Mof_O 	O 	0.1733	0.23595	0.9879	-0.438
Mof_O 	O 	0.454	0.20492	0.1081	-0.402
Mof_O 	O 	0.1212	0.46239	0.913	-0.454
Mof_O 	O 	0.1454	0.46555	0.5936	-0.487
Mof_O 	O 	0.9883	0.44941	0.1045	-0.447
Mof_O 	O 	0.9678	0.44739	0.4073	-0.481
Mof_O 	O 	0.4487	0.46691	0.146	-0.542
Mof_O 	O 	0.5551	0.5404	0.2148	-0.546
Mof_O 	O 	0.3163	0.53771	0.0475	-0.52
Mof_O 	O 	0.3028	0.51738	0.2931	-0.374
Mof_O 	O 	0.5939	0.35236	0.3956	-0.548
Mof_O 	O 	0.4987	0.33496	0.154	-0.443
Mof_O 	O 	0.765	0.31094	0.2481	-0.291
Mof_O 	O 	0.7105	0.39178	0.2047	-0.578
Mof_S 	S 	0.40176	0.51582	0.17652	0.778
Mof_S 	S 	0.64471	0.34728	0.24903	0.793
Mof_Nd	Nd	0.74752	0.4752	0.21568	2.591
Mof_Nd	Nd	0.31929	0.32613	0.37168	2.122
_end
