# CIF file generated by openbabel 3.1.0, see https://openbabel.org
data_I
_chemical_name_common 'KOJZEP_clean5b'
_cell_length_a 12.2618
_cell_length_b 25.7328
_cell_length_c 25.7328
_cell_angle_alpha 62.4736
_cell_angle_beta 80.8607
_cell_angle_gamma 99.1393
_space_group_name_H-M_alt 'P 1'
_space_group_name_Hall 'P 1'
loop_
    _symmetry_equiv_pos_as_xyz
    x,y,z
loop_
    _atom_site_label
    _atom_site_type_symbol
    _atom_site_fract_x
    _atom_site_fract_y
    _atom_site_fract_z
    _atom_site_occupancy
    Cu1      Cu       0.59513    0.54069    0.45931    1.000
    Cu2      Cu       0.05444    0.45931    0.00000    1.000
    Cu3      Cu       0.05444    0.00000    0.54069    1.000
    Cu4      Cu       0.94556    0.00000    0.45931    1.000
    Cu5      Cu       0.94556    0.54069    0.00000    1.000
    Cu6      Cu       0.40487    0.45931    0.54069    1.000
    H7       H        0.48380    0.43085    0.70490    1.000
    H8       H        0.79192    0.55983    0.57239    1.000
    H9       H        0.18869    0.70490    0.86426    1.000
    H10      H        0.36564    0.57263    0.86731    1.000
    H11      H        0.05295    0.86425    0.43085    1.000
    H12      H        0.23295    0.86731    0.56007    1.000
    H13      H        0.81131    0.86426    0.70490    1.000
    H14      H        0.63569    0.86778    0.57239    1.000
    H15      H        0.94705    0.43085    0.86425    1.000
    H16      H        0.76705    0.56007    0.86731    1.000
    H17      H        0.51620    0.70490    0.43085    1.000
    H18      H        0.20699    0.57263    0.56007    1.000
    H19      H        0.51620    0.56915    0.29510    1.000
    H20      H        0.20699    0.43993    0.42737    1.000
    H21      H        0.81131    0.29510    0.13574    1.000
    H22      H        0.63569    0.42761    0.13222    1.000
    H23      H        0.94705    0.13575    0.56915    1.000
    H24      H        0.76705    0.13269    0.43993    1.000
    H25      H        0.18869    0.13574    0.29510    1.000
    H26      H        0.36564    0.13269    0.42737    1.000
    H27      H        0.05295    0.56915    0.13575    1.000
    H28      H        0.23295    0.43993    0.13269    1.000
    H29      H        0.48380    0.29510    0.56915    1.000
    H30      H        0.79301    0.42737    0.43993    1.000
    C31      C        0.63286    0.49707    0.63394    1.000
    C32      C        0.57286    0.46143    0.69265    1.000
    C33      C        0.61569    0.46027    0.74000    1.000
    C34      C        0.72349    0.49457    0.72795    1.000
    C35      C        0.78464    0.52979    0.66867    1.000
    C36      C        0.73874    0.53050    0.62168    1.000
    C37      C        0.58328    0.49731    0.58369    1.000
    C38      C        0.56010    0.41390    0.80160    1.000
    C39      C        0.26680    0.63394    0.86899    1.000
    C40      C        0.26551    0.69265    0.84592    1.000
    C41      C        0.35569    0.74000    0.79973    1.000
    C42      C        0.45144    0.72795    0.77748    1.000
    C43      C        0.45331    0.66867    0.80154    1.000
    C44      C        0.36042    0.62168    0.84782    1.000
    C45      C        0.16697    0.58369    0.91900    1.000
    C46      C        0.36170    0.80160    0.78450    1.000
    C47      C        0.13579    0.86899    0.49707    1.000
    C48      C        0.11143    0.84592    0.46143    1.000
    C49      C        0.15542    0.79973    0.46027    1.000
    C50      C        0.22892    0.77748    0.49457    1.000
    C51      C        0.25485    0.80154    0.52979    1.000
    C52      C        0.20824    0.84782    0.53050    1.000
    C53      C        0.08597    0.91900    0.49731    1.000
    C54      C        0.14620    0.78450    0.41390    1.000
    C55      C        0.73320    0.86899    0.63394    1.000
    C56      C        0.73449    0.84592    0.69265    1.000
    C57      C        0.64431    0.79973    0.74000    1.000
    C58      C        0.54856    0.77748    0.72795    1.000
    C59      C        0.54669    0.80154    0.66867    1.000
    C60      C        0.63958    0.84782    0.62168    1.000
    C61      C        0.83303    0.91900    0.58369    1.000
    C62      C        0.63830    0.78450    0.80160    1.000
    C63      C        0.86421    0.49707    0.86899    1.000
    C64      C        0.88857    0.46143    0.84592    1.000
    C65      C        0.84458    0.46027    0.79973    1.000
    C66      C        0.77108    0.49457    0.77748    1.000
    C67      C        0.74515    0.52979    0.80154    1.000
    C68      C        0.79176    0.53050    0.84782    1.000
    C69      C        0.91403    0.49731    0.91900    1.000
    C70      C        0.85380    0.41390    0.78450    1.000
    C71      C        0.36714    0.63394    0.49707    1.000
    C72      C        0.42714    0.69265    0.46143    1.000
    C73      C        0.38431    0.74000    0.46027    1.000
    C74      C        0.27651    0.72795    0.49457    1.000
    C75      C        0.21536    0.66867    0.52979    1.000
    C76      C        0.26126    0.62168    0.53050    1.000
    C77      C        0.41672    0.58369    0.49731    1.000
    C78      C        0.43990    0.80160    0.41390    1.000
    C79      C        0.36714    0.50293    0.36606    1.000
    C80      C        0.42714    0.53857    0.30735    1.000
    C81      C        0.38431    0.53973    0.26000    1.000
    C82      C        0.27651    0.50543    0.27205    1.000
    C83      C        0.21536    0.47021    0.33133    1.000
    C84      C        0.26126    0.46950    0.37832    1.000
    C85      C        0.41672    0.50269    0.41631    1.000
    C86      C        0.43990    0.58610    0.19840    1.000
    C87      C        0.73320    0.36606    0.13101    1.000
    C88      C        0.73449    0.30735    0.15408    1.000
    C89      C        0.64431    0.26000    0.20027    1.000
    C90      C        0.54856    0.27205    0.22252    1.000
    C91      C        0.54669    0.33133    0.19846    1.000
    C92      C        0.63958    0.37832    0.15218    1.000
    C93      C        0.83303    0.41631    0.08100    1.000
    C94      C        0.63830    0.19840    0.21550    1.000
    C95      C        0.86421    0.13101    0.50293    1.000
    C96      C        0.88857    0.15408    0.53857    1.000
    C97      C        0.84458    0.20027    0.53973    1.000
    C98      C        0.77108    0.22252    0.50543    1.000
    C99      C        0.74515    0.19846    0.47021    1.000
    C100     C        0.79176    0.15218    0.46950    1.000
    C101     C        0.91403    0.08100    0.50269    1.000
    C102     C        0.85380    0.21550    0.58610    1.000
    C103     C        0.26680    0.13101    0.36606    1.000
    C104     C        0.26551    0.15408    0.30735    1.000
    C105     C        0.35569    0.20027    0.26000    1.000
    C106     C        0.45144    0.22252    0.27205    1.000
    C107     C        0.45331    0.19846    0.33133    1.000
    C108     C        0.36042    0.15218    0.37832    1.000
    C109     C        0.16697    0.08100    0.41631    1.000
    C110     C        0.36170    0.21550    0.19840    1.000
    C111     C        0.13579    0.50293    0.13101    1.000
    C112     C        0.11143    0.53857    0.15408    1.000
    C113     C        0.15542    0.53973    0.20027    1.000
    C114     C        0.22892    0.50543    0.22252    1.000
    C115     C        0.25485    0.47021    0.19846    1.000
    C116     C        0.20824    0.46950    0.15218    1.000
    C117     C        0.08597    0.50269    0.08100    1.000
    C118     C        0.14620    0.58610    0.21550    1.000
    C119     C        0.63286    0.36606    0.50293    1.000
    C120     C        0.57286    0.30735    0.53857    1.000
    C121     C        0.61569    0.26000    0.53973    1.000
    C122     C        0.72349    0.27205    0.50543    1.000
    C123     C        0.78464    0.33133    0.47021    1.000
    C124     C        0.73874    0.37832    0.46950    1.000
    C125     C        0.58328    0.41631    0.50269    1.000
    C126     C        0.56010    0.19840    0.58610    1.000
    N127     N        0.51120    0.37860    0.85300    1.000
    N128     N        0.36420    0.85300    0.76840    1.000
    N129     N        0.13260    0.76840    0.37860    1.000
    N130     N        0.63580    0.76840    0.85300    1.000
    N131     N        0.86740    0.37860    0.76840    1.000
    N132     N        0.48880    0.85300    0.37860    1.000
    N133     N        0.48880    0.62140    0.14700    1.000
    N134     N        0.63580    0.14700    0.23160    1.000
    N135     N        0.86740    0.23160    0.62140    1.000
    N136     N        0.36420    0.23160    0.14700    1.000
    N137     N        0.13260    0.62140    0.23160    1.000
    N138     N        0.51120    0.14700    0.62140    1.000
    O139     O        0.64543    0.53164    0.53093    1.000
    O140     O        0.48517    0.46333    0.59954    1.000
    O141     O        0.17636    0.53093    0.93743    1.000
    O142     O        0.08471    0.59954    0.93713    1.000
    O143     O        0.11379    0.93743    0.53164    1.000
    O144     O        0.02184    0.93713    0.46333    1.000
    O145     O        0.82364    0.93743    0.53093    1.000
    O146     O        0.91529    0.93713    0.59954    1.000
    O147     O        0.88621    0.53164    0.93743    1.000
    O148     O        0.97816    0.46333    0.93713    1.000
    O149     O        0.35457    0.53093    0.53164    1.000
    O150     O        0.51483    0.59954    0.46333    1.000
    O151     O        0.35457    0.46836    0.46907    1.000
    O152     O        0.51483    0.53667    0.40046    1.000
    O153     O        0.82364    0.46907    0.06257    1.000
    O154     O        0.91529    0.40046    0.06287    1.000
    O155     O        0.88621    0.06257    0.46836    1.000
    O156     O        0.97816    0.06287    0.53667    1.000
    O157     O        0.17636    0.06257    0.46907    1.000
    O158     O        0.08471    0.06287    0.40046    1.000
    O159     O        0.11379    0.46836    0.06257    1.000
    O160     O        0.02184    0.53667    0.06287    1.000
    O161     O        0.64543    0.46907    0.46836    1.000
    O162     O        0.48517    0.40046    0.53667    1.000
    H163     H        0.87471    0.55940    0.65640    1.000
    H164     H        0.53111    0.65640    0.78420    1.000
    H165     H        0.31531    0.78420    0.55940    1.000
    H166     H        0.46889    0.78420    0.65640    1.000
    H167     H        0.68469    0.55940    0.78420    1.000
    H168     H        0.12529    0.65640    0.55940    1.000
    H169     H        0.12529    0.44060    0.34360    1.000
    H170     H        0.46889    0.34360    0.21580    1.000
    H171     H        0.68469    0.21580    0.44060    1.000
    H172     H        0.53111    0.21580    0.34360    1.000
    H173     H        0.31531    0.44060    0.21580    1.000
    H174     H        0.87471    0.34360    0.44060    1.000
