data_functionalizedCrystal
_audit_creation_method	'EQeq! by Chris Wilmer'
_symmetry_space_group_name_H-M	'P1'
_symmetry_Int_Tables_number	1
_symmetry_cell_setting	triclinic
loop_
_symmetry_equiv_pos_as_xyz
  x,y,z
_cell_length_a	23.9651
_cell_length_b	29.2842
_cell_length_c	17.3545
_cell_angle_alpha	90
_cell_angle_beta	96.301
_cell_angle_gamma	90
loop_
_atom_site_label
_atom_site_type_symbol
_atom_site_fract_x
_atom_site_fract_y
_atom_site_fract_z
_atom_site_charge
Mof_Zr	Zr	0.16605	0.20733	0.53357	3.24
Mof_Zr	Zr	0.29804	0.23111	0.62936	3.228
Mof_Zr	Zr	0.21407	0.3219	0.55258	3.285
Mof_O 	O 	0.2926	0.2922	0.5659	-9.228
Mof_O 	O 	0.139	0.33557	0.6034	-0.669
Mof_O 	O 	0.2393	0.33962	0.6775	-0.703
Mof_O 	O 	0.2909	0.27799	0.7256	-0.854
Mof_O 	O 	0.2494	0.3238	0.4379	-0.376
Mof_O 	O 	0.207	0.2576	0.6199	0.047
Mof_O 	O 	0.1546	0.2755	0.4706	-0.713
Mof_O 	O 	0.3326	0.32484	0.3503	-0.689
Mof_O 	O 	0.2455	0.30821	0.2868	-0.663
Mof_O 	O 	0.8461	0.66731	0.6472	-0.726
Mof_O 	O 	0.2601	0.6134	0.0507	-0.687
Mof_O 	O 	0.8387	0.63239	0.5303	-0.62
Mof_O 	O 	0.3401	0.6325	0.9901	-0.709
Mof_O 	O 	0.5884	0.3042	0.9627	-0.907
Mof_C 	C 	0.3009	0.4118	0.8778	-0.026
Mof_C 	C 	0.287	0.3425	0.8031	-0.165
Mof_C 	C 	0.2947	0.3261	0.2931	0.504
Mof_C 	C 	0.3602	0.4102	0.0113	-0.025
Mof_C 	C 	0.3103	0.3498	0.2216	-0.159
Mof_C 	C 	0.2696	0.3184	0.7279	0.396
Mof_C 	C 	0.3476	0.4616	0.0165	0.026
Mof_C 	C 	0.3412	0.3891	0.0856	0.029
Mof_C 	C 	0.3047	0.6044	0.0209	0.391
Mof_C 	C 	0.3201	0.555	0.0205	-0.137
Mof_C 	C 	0.2791	0.3891	0.8098	0.05
Mof_C 	C 	0.3291	0.3874	0.9389	0.025
Mof_C 	C 	0.3135	0.3178	0.8655	0.046
Mof_C 	C 	0.3345	0.3402	0.932	-0.032
Mof_C 	C 	0.422	0.3998	0.0012	0.023
Mof_C 	C 	0.292	0.3646	0.0845	-0.032
Mof_C 	C 	0.3717	0.3976	0.1566	-0.035
Mof_C 	C 	0.2941	0.4752	0.0271	-0.026
Mof_C 	C 	0.2798	0.5223	0.0294	0.068
Mof_C 	C 	0.3571	0.3779	0.2235	0.07
Mof_C 	C 	0.2755	0.3461	0.152	0.071
Mof_C 	C 	0.4419	0.415	0.9338	-0.027
Mof_C 	C 	0.3732	0.5408	0.0089	0.06
Mof_C 	C 	0.3863	0.4941	0.0061	-0.027
Mof_C 	C 	0.5182	0.3641	0.9566	-0.131
Mof_C 	C 	0.4497	0.3652	0.0413	-0.028
Mof_C 	C 	0.4989	0.349	0.0195	0.033
Mof_C 	C 	0.5685	0.3383	0.9257	0.399
Mof_C 	C 	0.4903	0.3984	0.9079	0.045
Mof_C 	C 	0.9568	0.5267	0.7072	0.028
Mof_C 	C 	0.0256	0.4604	0.695	0.027
Mof_C 	C 	0.0089	0.3967	0.6064	0.063
Mof_C 	C 	0.1032	0.4156	0.6608	0.068
Mof_C 	C 	0.067	0.3872	0.6149	-0.148
Mof_C 	C 	0.9163	0.5672	0.5923	0.078
Mof_C 	C 	0.9891	0.4331	0.646	-0.027
Mof_C 	C 	0.951	0.5326	0.6284	-0.031
Mof_C 	C 	0.9269	0.5553	0.7529	-0.032
Mof_C 	C 	0.0829	0.4523	0.7009	-0.026
Mof_C 	C 	0.8888	0.5961	0.6387	-0.172
Mof_C 	C 	0.8542	0.6346	0.6021	0.538
Mof_C 	C 	0.8937	0.5904	0.7191	0.067
Mof_C 	C 	0.0887	0.3461	0.579	0.442
Mof_O 	O 	0.0565	0.3222	0.5338	-0.326
Mof_O 	O 	0.5884	0.3514	0.8616	-0.548
Mof_O 	O 	0.1721	0.2717	0.4868	-0.211
Mof_O 	O 	0.3088	0.3014	0.5858	7.969
Mof_O 	O 	0.2504	0.3049	0.4548	-0.467
Mof_O 	O 	0.2187	0.2553	0.5925	-0.921
Mof_Zr	Zr	0.66605	0.70733	0.53357	3.239
Mof_Zr	Zr	0.79804	0.73111	0.62936	3.227
Mof_Zr	Zr	0.71407	0.8219	0.55258	3.284
Mof_O 	O 	0.7926	0.7922	0.5659	-9.228
Mof_O 	O 	0.639	0.83557	0.6034	-0.669
Mof_O 	O 	0.7393	0.83962	0.6775	-0.703
Mof_O 	O 	0.7909	0.77799	0.7256	-0.854
Mof_O 	O 	0.7494	0.8238	0.4379	-0.376
Mof_O 	O 	0.707	0.7576	0.6199	0.047
Mof_O 	O 	0.6546	0.7755	0.4706	-0.713
Mof_O 	O 	0.8326	0.82484	0.3503	-0.689
Mof_O 	O 	0.7455	0.80821	0.2868	-0.663
Mof_O 	O 	0.3461	0.16731	0.6472	-0.726
Mof_O 	O 	0.7601	0.1134	0.0507	-0.687
Mof_O 	O 	0.3387	0.13239	0.5303	-0.62
Mof_O 	O 	0.8401	0.1325	0.9901	-0.711
Mof_O 	O 	0.0884	0.8042	0.9627	-0.906
Mof_C 	C 	0.8009	0.9118	0.8778	-0.026
Mof_C 	C 	0.787	0.8425	0.8031	-0.165
Mof_C 	C 	0.7947	0.8261	0.2931	0.504
Mof_C 	C 	0.8602	0.9102	0.0113	-0.023
Mof_C 	C 	0.8103	0.8498	0.2216	-0.159
Mof_C 	C 	0.7696	0.8184	0.7279	0.395
Mof_C 	C 	0.8476	0.9616	0.0165	0.026
Mof_C 	C 	0.8412	0.8891	0.0856	0.029
Mof_C 	C 	0.8047	0.1044	0.0209	0.393
Mof_C 	C 	0.8201	0.055	0.0205	-0.137
Mof_C 	C 	0.7791	0.8891	0.8098	0.05
Mof_C 	C 	0.8291	0.8874	0.9389	0.023
Mof_C 	C 	0.8135	0.8178	0.8655	0.046
Mof_C 	C 	0.8345	0.8402	0.932	-0.033
Mof_C 	C 	0.922	0.8998	0.0012	0.025
Mof_C 	C 	0.792	0.8646	0.0845	-0.031
Mof_C 	C 	0.8717	0.8976	0.1566	-0.035
Mof_C 	C 	0.7941	0.9752	0.0271	-0.025
Mof_C 	C 	0.7798	0.0223	0.0294	0.068
Mof_C 	C 	0.8571	0.8779	0.2235	0.069
Mof_C 	C 	0.7755	0.8461	0.152	0.071
Mof_C 	C 	0.9419	0.915	0.9338	-0.029
Mof_C 	C 	0.8732	0.0408	0.0089	0.06
Mof_C 	C 	0.8863	0.9941	0.0061	-0.027
Mof_C 	C 	0.0182	0.8641	0.9566	-0.129
Mof_C 	C 	0.9497	0.8652	0.0413	-0.028
Mof_C 	C 	0.9989	0.849	0.0195	0.032
Mof_C 	C 	0.0685	0.8383	0.9257	0.398
Mof_C 	C 	0.9903	0.8984	0.9079	0.042
Mof_C 	C 	0.4568	0.0267	0.7072	0.03
Mof_C 	C 	0.5256	0.9604	0.695	0.026
Mof_C 	C 	0.5089	0.8967	0.6064	0.061
Mof_C 	C 	0.6032	0.9156	0.6608	0.068
Mof_C 	C 	0.567	0.8872	0.6149	-0.147
Mof_C 	C 	0.4163	0.0672	0.5923	0.078
Mof_C 	C 	0.4891	0.9331	0.646	-0.025
Mof_C 	C 	0.451	0.0326	0.6284	-0.031
Mof_C 	C 	0.4269	0.0553	0.7529	-0.032
Mof_C 	C 	0.5829	0.9523	0.7009	-0.026
Mof_C 	C 	0.3888	0.0961	0.6387	-0.172
Mof_C 	C 	0.3542	0.1346	0.6021	0.538
Mof_C 	C 	0.3937	0.0904	0.7191	0.068
Mof_C 	C 	0.5887	0.8461	0.579	0.442
Mof_O 	O 	0.5565	0.8222	0.5338	-0.326
Mof_O 	O 	0.0884	0.8514	0.8616	-0.548
Mof_O 	O 	0.6721	0.7717	0.4868	-0.211
Mof_O 	O 	0.8088	0.8014	0.5858	7.968
Mof_O 	O 	0.7504	0.8049	0.4548	-0.467
Mof_O 	O 	0.7187	0.7553	0.5925	-0.921
Mof_Zr	Zr	0.83395	0.20733	0.96643	3.238
Mof_Zr	Zr	0.70196	0.23111	0.87064	3.227
Mof_Zr	Zr	0.78593	0.3219	0.94742	3.284
Mof_O 	O 	0.7074	0.2922	0.9341	-9.234
Mof_O 	O 	0.861	0.33557	0.8966	-0.669
Mof_O 	O 	0.7607	0.33962	0.8225	-0.704
Mof_O 	O 	0.7091	0.27799	0.7744	-0.854
Mof_O 	O 	0.7506	0.3238	0.0621	-0.377
Mof_O 	O 	0.793	0.2576	0.8801	0.046
Mof_O 	O 	0.8454	0.2755	0.0294	-0.713
Mof_O 	O 	0.6674	0.32484	0.1497	-0.689
Mof_O 	O 	0.7545	0.30821	0.2132	-0.663
Mof_O 	O 	0.1539	0.66731	0.8528	-0.726
Mof_O 	O 	0.7399	0.6134	0.4493	-0.687
Mof_O 	O 	0.1613	0.63239	0.9697	-0.619
Mof_O 	O 	0.6599	0.6325	0.5099	-0.709
Mof_O 	O 	0.4116	0.3042	0.5373	-0.907
Mof_C 	C 	0.6991	0.4118	0.6222	-0.026
Mof_C 	C 	0.713	0.3425	0.6969	-0.165
Mof_C 	C 	0.7053	0.3261	0.2069	0.504
Mof_C 	C 	0.6398	0.4102	0.4887	-0.024
Mof_C 	C 	0.6897	0.3498	0.2784	-0.159
Mof_C 	C 	0.7304	0.3184	0.7721	0.395
Mof_C 	C 	0.6524	0.4616	0.4835	0.026
Mof_C 	C 	0.6588	0.3891	0.4144	0.029
Mof_C 	C 	0.6953	0.6044	0.4791	0.392
Mof_C 	C 	0.6799	0.555	0.4795	-0.137
Mof_C 	C 	0.7209	0.3891	0.6902	0.05
Mof_C 	C 	0.6709	0.3874	0.5611	0.024
Mof_C 	C 	0.6865	0.3178	0.6345	0.046
Mof_C 	C 	0.6655	0.3402	0.568	-0.033
Mof_C 	C 	0.578	0.3998	0.4988	0.024
Mof_C 	C 	0.708	0.3646	0.4155	-0.031
Mof_C 	C 	0.6283	0.3976	0.3434	-0.035
Mof_C 	C 	0.7059	0.4752	0.4729	-0.026
Mof_C 	C 	0.7202	0.5223	0.4706	0.068
Mof_C 	C 	0.6429	0.3779	0.2765	0.07
Mof_C 	C 	0.7245	0.3461	0.348	0.071
Mof_C 	C 	0.5581	0.415	0.5662	-0.027
Mof_C 	C 	0.6268	0.5408	0.4911	0.061
Mof_C 	C 	0.6137	0.4941	0.4939	-0.027
Mof_C 	C 	0.4818	0.3641	0.5434	-0.131
Mof_C 	C 	0.5503	0.3652	0.4587	-0.028
Mof_C 	C 	0.5011	0.349	0.4805	0.033
Mof_C 	C 	0.4315	0.3383	0.5743	0.399
Mof_C 	C 	0.5097	0.3984	0.5921	0.045
Mof_C 	C 	0.0432	0.5267	0.7928	0.029
Mof_C 	C 	0.9744	0.4604	0.805	0.021
Mof_C 	C 	0.9911	0.3967	0.8936	0.058
Mof_C 	C 	0.8968	0.4156	0.8392	0.067
Mof_C 	C 	0.933	0.3872	0.8851	-0.146
Mof_C 	C 	0.0837	0.5672	0.9077	0.079
Mof_C 	C 	0.0109	0.4331	0.854	-0.021
Mof_C 	C 	0.049	0.5326	0.8716	-0.03
Mof_C 	C 	0.0731	0.5553	0.7471	-0.032
Mof_C 	C 	0.9171	0.4523	0.7991	-0.024
Mof_C 	C 	0.1112	0.5961	0.8613	-0.172
Mof_C 	C 	0.1458	0.6346	0.8979	0.538
Mof_C 	C 	0.1063	0.5904	0.7809	0.068
Mof_C 	C 	0.9113	0.3461	0.921	0.442
Mof_O 	O 	0.9435	0.3222	0.9662	-0.327
Mof_O 	O 	0.4116	0.3514	0.6384	-0.548
Mof_O 	O 	0.8279	0.2717	0.0132	-0.211
Mof_O 	O 	0.6912	0.3014	0.9142	7.974
Mof_O 	O 	0.7496	0.3049	0.0452	-0.465
Mof_O 	O 	0.7813	0.2553	0.9075	-0.92
Mof_Zr	Zr	0.33395	0.70733	0.96643	3.239
Mof_Zr	Zr	0.20196	0.73111	0.87064	3.227
Mof_Zr	Zr	0.28593	0.8219	0.94742	3.284
Mof_O 	O 	0.2074	0.7922	0.9341	-9.227
Mof_O 	O 	0.361	0.83557	0.8966	-0.669
Mof_O 	O 	0.2607	0.83962	0.8225	-0.703
Mof_O 	O 	0.2091	0.77799	0.7744	-0.854
Mof_O 	O 	0.2506	0.8238	0.0621	-0.375
Mof_O 	O 	0.293	0.7576	0.8801	0.047
Mof_O 	O 	0.3454	0.7755	0.0294	-0.714
Mof_O 	O 	0.1674	0.82484	0.1497	-0.689
Mof_O 	O 	0.2545	0.80821	0.2132	-0.663
Mof_O 	O 	0.6539	0.16731	0.8528	-0.726
Mof_O 	O 	0.2399	0.1134	0.4493	-0.687
Mof_O 	O 	0.6613	0.13239	0.9697	-0.62
Mof_O 	O 	0.1599	0.1325	0.5099	-0.709
Mof_O 	O 	0.9116	0.8042	0.5373	-0.907
Mof_C 	C 	0.1991	0.9118	0.6222	-0.026
Mof_C 	C 	0.213	0.8425	0.6969	-0.165
Mof_C 	C 	0.2053	0.8261	0.2069	0.504
Mof_C 	C 	0.1398	0.9102	0.4887	-0.024
Mof_C 	C 	0.1897	0.8498	0.2784	-0.159
Mof_C 	C 	0.2304	0.8184	0.7721	0.396
Mof_C 	C 	0.1524	0.9616	0.4835	0.026
Mof_C 	C 	0.1588	0.8891	0.4144	0.029
Mof_C 	C 	0.1953	0.1044	0.4791	0.392
Mof_C 	C 	0.1799	0.055	0.4795	-0.137
Mof_C 	C 	0.2209	0.8891	0.6902	0.05
Mof_C 	C 	0.1709	0.8874	0.5611	0.024
Mof_C 	C 	0.1865	0.8178	0.6345	0.046
Mof_C 	C 	0.1655	0.8402	0.568	-0.033
Mof_C 	C 	0.078	0.8998	0.4988	0.024
Mof_C 	C 	0.208	0.8646	0.4155	-0.031
Mof_C 	C 	0.1283	0.8976	0.3434	-0.035
Mof_C 	C 	0.2059	0.9752	0.4729	-0.026
Mof_C 	C 	0.2202	0.0223	0.4706	0.068
Mof_C 	C 	0.1429	0.8779	0.2765	0.069
Mof_C 	C 	0.2245	0.8461	0.348	0.071
Mof_C 	C 	0.0581	0.915	0.5662	-0.027
Mof_C 	C 	0.1268	0.0408	0.4911	0.061
Mof_C 	C 	0.1137	0.9941	0.4939	-0.028
Mof_C 	C 	0.9818	0.8641	0.5434	-0.133
Mof_C 	C 	0.0503	0.8652	0.4587	-0.028
Mof_C 	C 	0.0011	0.849	0.4805	0.034
Mof_C 	C 	0.9315	0.8383	0.5743	0.399
Mof_C 	C 	0.0097	0.8984	0.5921	0.046
Mof_C 	C 	0.5432	0.0267	0.7928	0.03
Mof_C 	C 	0.4744	0.9604	0.805	0.026
Mof_C 	C 	0.4911	0.8967	0.8936	0.061
Mof_C 	C 	0.3968	0.9156	0.8392	0.068
Mof_C 	C 	0.433	0.8872	0.8851	-0.147
Mof_C 	C 	0.5837	0.0672	0.9077	0.078
Mof_C 	C 	0.5109	0.9331	0.854	-0.025
Mof_C 	C 	0.549	0.0326	0.8716	-0.031
Mof_C 	C 	0.5731	0.0553	0.7471	-0.032
Mof_C 	C 	0.4171	0.9523	0.7991	-0.025
Mof_C 	C 	0.6112	0.0961	0.8613	-0.172
Mof_C 	C 	0.6458	0.1346	0.8979	0.538
Mof_C 	C 	0.6063	0.0904	0.7809	0.068
Mof_C 	C 	0.4113	0.8461	0.921	0.442
Mof_O 	O 	0.4435	0.8222	0.9662	-0.326
Mof_O 	O 	0.9116	0.8514	0.6384	-0.548
Mof_O 	O 	0.3279	0.7717	0.0132	-0.211
Mof_O 	O 	0.1912	0.8014	0.9142	7.967
Mof_O 	O 	0.2496	0.8049	0.0452	-0.467
Mof_O 	O 	0.2813	0.7553	0.9075	-0.921
Mof_Zr	Zr	0.83395	0.79267	0.46643	3.239
Mof_Zr	Zr	0.70196	0.76889	0.37064	3.227
Mof_Zr	Zr	0.78593	0.6781	0.44742	3.284
Mof_O 	O 	0.7074	0.7078	0.4341	-9.229
Mof_O 	O 	0.861	0.66443	0.3966	-0.669
Mof_O 	O 	0.7607	0.66038	0.3225	-0.703
Mof_O 	O 	0.7091	0.72201	0.2744	-0.854
Mof_O 	O 	0.7506	0.6762	0.5621	-0.376
Mof_O 	O 	0.793	0.7424	0.3801	0.047
Mof_O 	O 	0.8454	0.7245	0.5294	-0.713
Mof_O 	O 	0.6674	0.67516	0.6497	-0.689
Mof_O 	O 	0.7545	0.69179	0.7132	-0.663
Mof_O 	O 	0.1539	0.33269	0.3528	-0.726
Mof_O 	O 	0.7399	0.3866	0.9493	-0.687
Mof_O 	O 	0.1613	0.36761	0.4697	-0.62
Mof_O 	O 	0.6599	0.3675	0.0099	-0.709
Mof_O 	O 	0.4116	0.6958	0.0373	-0.907
Mof_C 	C 	0.6991	0.5882	0.1222	-0.026
Mof_C 	C 	0.713	0.6575	0.1969	-0.165
Mof_C 	C 	0.7053	0.6739	0.7069	0.504
Mof_C 	C 	0.6398	0.5898	0.9887	-0.025
Mof_C 	C 	0.6897	0.6502	0.7784	-0.159
Mof_C 	C 	0.7304	0.6816	0.2721	0.396
Mof_C 	C 	0.6524	0.5384	0.9835	0.026
Mof_C 	C 	0.6588	0.6109	0.9144	0.029
Mof_C 	C 	0.6953	0.3956	0.9791	0.391
Mof_C 	C 	0.6799	0.445	0.9795	-0.137
Mof_C 	C 	0.7209	0.6109	0.1902	0.05
Mof_C 	C 	0.6709	0.6126	0.0611	0.025
Mof_C 	C 	0.6865	0.6822	0.1345	0.046
Mof_C 	C 	0.6655	0.6598	0.068	-0.032
Mof_C 	C 	0.578	0.6002	0.9988	0.023
Mof_C 	C 	0.708	0.6354	0.9155	-0.032
Mof_C 	C 	0.6283	0.6024	0.8434	-0.035
Mof_C 	C 	0.7059	0.5248	0.9729	-0.027
Mof_C 	C 	0.7202	0.4777	0.9706	0.068
Mof_C 	C 	0.6429	0.6221	0.7765	0.07
Mof_C 	C 	0.7245	0.6539	0.848	0.071
Mof_C 	C 	0.5581	0.585	0.0662	-0.027
Mof_C 	C 	0.6268	0.4592	0.9911	0.06
Mof_C 	C 	0.6137	0.5059	0.9939	-0.027
Mof_C 	C 	0.4818	0.6359	0.0434	-0.131
Mof_C 	C 	0.5503	0.6348	0.9587	-0.028
Mof_C 	C 	0.5011	0.651	0.9805	0.033
Mof_C 	C 	0.4315	0.6617	0.0743	0.399
Mof_C 	C 	0.5097	0.6016	0.0921	0.045
Mof_C 	C 	0.0432	0.4733	0.2928	0.029
Mof_C 	C 	0.9744	0.5396	0.305	0.026
Mof_C 	C 	0.9911	0.6033	0.3936	0.061
Mof_C 	C 	0.8968	0.5844	0.3392	0.068
Mof_C 	C 	0.933	0.6128	0.3851	-0.147
Mof_C 	C 	0.0837	0.4328	0.4077	0.078
Mof_C 	C 	0.0109	0.5669	0.354	-0.025
Mof_C 	C 	0.049	0.4674	0.3716	-0.031
Mof_C 	C 	0.0731	0.4447	0.2471	-0.033
Mof_C 	C 	0.9171	0.5477	0.2991	-0.025
Mof_C 	C 	0.1112	0.4039	0.3613	-0.172
Mof_C 	C 	0.1458	0.3654	0.3979	0.538
Mof_C 	C 	0.1063	0.4096	0.2809	0.067
Mof_C 	C 	0.9113	0.6539	0.421	0.442
Mof_O 	O 	0.9435	0.6778	0.4662	-0.326
Mof_O 	O 	0.4116	0.6486	0.1384	-0.548
Mof_O 	O 	0.8279	0.7283	0.5132	-0.211
Mof_O 	O 	0.6912	0.6986	0.4142	7.969
Mof_O 	O 	0.7496	0.6951	0.5452	-0.466
Mof_O 	O 	0.7813	0.7447	0.4075	-0.921
Mof_Zr	Zr	0.33395	0.29267	0.46643	3.239
Mof_Zr	Zr	0.20196	0.26889	0.37064	3.227
Mof_Zr	Zr	0.28593	0.1781	0.44742	3.284
Mof_O 	O 	0.2074	0.2078	0.4341	-9.228
Mof_O 	O 	0.361	0.16443	0.3966	-0.669
Mof_O 	O 	0.2607	0.16038	0.3225	-0.703
Mof_O 	O 	0.2091	0.22201	0.2744	-0.854
Mof_O 	O 	0.2506	0.1762	0.5621	-0.376
Mof_O 	O 	0.293	0.2424	0.3801	0.047
Mof_O 	O 	0.3454	0.2245	0.5294	-0.713
Mof_O 	O 	0.1674	0.17516	0.6497	-0.689
Mof_O 	O 	0.2545	0.19179	0.7132	-0.663
Mof_O 	O 	0.6539	0.83269	0.3528	-0.726
Mof_O 	O 	0.2399	0.8866	0.9493	-0.687
Mof_O 	O 	0.6613	0.86761	0.4697	-0.62
Mof_O 	O 	0.1599	0.8675	0.0099	-0.71
Mof_O 	O 	0.9116	0.1958	0.0373	-0.906
Mof_C 	C 	0.1991	0.0882	0.1222	-0.026
Mof_C 	C 	0.213	0.1575	0.1969	-0.165
Mof_C 	C 	0.2053	0.1739	0.7069	0.504
Mof_C 	C 	0.1398	0.0898	0.9887	-0.023
Mof_C 	C 	0.1897	0.1502	0.7784	-0.159
Mof_C 	C 	0.2304	0.1816	0.2721	0.395
Mof_C 	C 	0.1524	0.0384	0.9835	0.026
Mof_C 	C 	0.1588	0.1109	0.9144	0.029
Mof_C 	C 	0.1953	0.8956	0.9791	0.392
Mof_C 	C 	0.1799	0.945	0.9795	-0.137
Mof_C 	C 	0.2209	0.1109	0.1902	0.05
Mof_C 	C 	0.1709	0.1126	0.0611	0.023
Mof_C 	C 	0.1865	0.1822	0.1345	0.046
Mof_C 	C 	0.1655	0.1598	0.068	-0.033
Mof_C 	C 	0.078	0.1002	0.9988	0.026
Mof_C 	C 	0.208	0.1354	0.9155	-0.031
Mof_C 	C 	0.1283	0.1024	0.8434	-0.034
Mof_C 	C 	0.2059	0.0248	0.9729	-0.025
Mof_C 	C 	0.2202	0.9777	0.9706	0.068
Mof_C 	C 	0.1429	0.1221	0.7765	0.07
Mof_C 	C 	0.2245	0.1539	0.848	0.071
Mof_C 	C 	0.0581	0.085	0.0662	-0.029
Mof_C 	C 	0.1268	0.9592	0.9911	0.06
Mof_C 	C 	0.1137	0.0059	0.9939	-0.026
Mof_C 	C 	0.9818	0.1359	0.0434	-0.131
Mof_C 	C 	0.0503	0.1348	0.9587	-0.028
Mof_C 	C 	0.0011	0.151	0.9805	0.034
Mof_C 	C 	0.9315	0.1617	0.0743	0.399
Mof_C 	C 	0.0097	0.1016	0.0921	0.044
Mof_C 	C 	0.5432	0.9733	0.2928	0.03
Mof_C 	C 	0.4744	0.0396	0.305	0.026
Mof_C 	C 	0.4911	0.1033	0.3936	0.061
Mof_C 	C 	0.3968	0.0844	0.3392	0.068
Mof_C 	C 	0.433	0.1128	0.3851	-0.147
Mof_C 	C 	0.5837	0.9328	0.4077	0.078
Mof_C 	C 	0.5109	0.0669	0.354	-0.025
Mof_C 	C 	0.549	0.9674	0.3716	-0.031
Mof_C 	C 	0.5731	0.9447	0.2471	-0.032
Mof_C 	C 	0.4171	0.0477	0.2991	-0.026
Mof_C 	C 	0.6112	0.9039	0.3613	-0.172
Mof_C 	C 	0.6458	0.8654	0.3979	0.538
Mof_C 	C 	0.6063	0.9096	0.2809	0.068
Mof_C 	C 	0.4113	0.1539	0.421	0.442
Mof_O 	O 	0.4435	0.1778	0.4662	-0.326
Mof_O 	O 	0.9116	0.1486	0.1384	-0.548
Mof_O 	O 	0.3279	0.2283	0.5132	-0.211
Mof_O 	O 	0.1912	0.1986	0.4142	7.968
Mof_O 	O 	0.2496	0.1951	0.5452	-0.467
Mof_O 	O 	0.2813	0.2447	0.4075	-0.921
Mof_Zr	Zr	0.16605	0.79267	0.03357	3.239
Mof_Zr	Zr	0.29804	0.76889	0.12936	3.227
Mof_Zr	Zr	0.21407	0.6781	0.05258	3.284
Mof_O 	O 	0.2926	0.7078	0.0659	-9.233
Mof_O 	O 	0.139	0.66443	0.1034	-0.669
Mof_O 	O 	0.2393	0.66038	0.1775	-0.704
Mof_O 	O 	0.2909	0.72201	0.2256	-0.854
Mof_O 	O 	0.2494	0.6762	0.9379	-0.377
Mof_O 	O 	0.207	0.7424	0.1199	0.046
Mof_O 	O 	0.1546	0.7245	0.9706	-0.713
Mof_O 	O 	0.3326	0.67516	0.8503	-0.689
Mof_O 	O 	0.2455	0.69179	0.7868	-0.663
Mof_O 	O 	0.8461	0.33269	0.1472	-0.726
Mof_O 	O 	0.2601	0.3866	0.5507	-0.687
Mof_O 	O 	0.8387	0.36761	0.0303	-0.619
Mof_O 	O 	0.3401	0.3675	0.4901	-0.709
Mof_O 	O 	0.5884	0.6958	0.4627	-0.907
Mof_C 	C 	0.3009	0.5882	0.3778	-0.026
Mof_C 	C 	0.287	0.6575	0.3031	-0.165
Mof_C 	C 	0.2947	0.6739	0.7931	0.504
Mof_C 	C 	0.3602	0.5898	0.5113	-0.024
Mof_C 	C 	0.3103	0.6502	0.7216	-0.159
Mof_C 	C 	0.2696	0.6816	0.2279	0.395
Mof_C 	C 	0.3476	0.5384	0.5165	0.026
Mof_C 	C 	0.3412	0.6109	0.5856	0.029
Mof_C 	C 	0.3047	0.3956	0.5209	0.392
Mof_C 	C 	0.3201	0.445	0.5205	-0.137
Mof_C 	C 	0.2791	0.6109	0.3098	0.05
Mof_C 	C 	0.3291	0.6126	0.4389	0.024
Mof_C 	C 	0.3135	0.6822	0.3655	0.046
Mof_C 	C 	0.3345	0.6598	0.432	-0.033
Mof_C 	C 	0.422	0.6002	0.5012	0.024
Mof_C 	C 	0.292	0.6354	0.5845	-0.031
Mof_C 	C 	0.3717	0.6024	0.6566	-0.035
Mof_C 	C 	0.2941	0.5248	0.5271	-0.026
Mof_C 	C 	0.2798	0.4777	0.5294	0.068
Mof_C 	C 	0.3571	0.6221	0.7235	0.07
Mof_C 	C 	0.2755	0.6539	0.652	0.071
Mof_C 	C 	0.4419	0.585	0.4338	-0.027
Mof_C 	C 	0.3732	0.4592	0.5089	0.061
Mof_C 	C 	0.3863	0.5059	0.5061	-0.027
Mof_C 	C 	0.5182	0.6359	0.4566	-0.131
Mof_C 	C 	0.4497	0.6348	0.5413	-0.028
Mof_C 	C 	0.4989	0.651	0.5195	0.033
Mof_C 	C 	0.5685	0.6617	0.4257	0.399
Mof_C 	C 	0.4903	0.6016	0.4079	0.045
Mof_C 	C 	0.9568	0.4733	0.2072	0.03
Mof_C 	C 	0.0256	0.5396	0.195	0.024
Mof_C 	C 	0.0089	0.6033	0.1064	0.059
Mof_C 	C 	0.1032	0.5844	0.1608	0.067
Mof_C 	C 	0.067	0.6128	0.1149	-0.147
Mof_C 	C 	0.9163	0.4328	0.0923	0.079
Mof_C 	C 	0.9891	0.5669	0.146	-0.023
Mof_C 	C 	0.951	0.4674	0.1284	-0.031
Mof_C 	C 	0.9269	0.4447	0.2529	-0.033
Mof_C 	C 	0.0829	0.5477	0.2009	-0.025
Mof_C 	C 	0.8888	0.4039	0.1387	-0.172
Mof_C 	C 	0.8542	0.3654	0.1021	0.538
Mof_C 	C 	0.8937	0.4096	0.2191	0.068
Mof_C 	C 	0.0887	0.6539	0.079	0.442
Mof_O 	O 	0.0565	0.6778	0.0338	-0.327
Mof_O 	O 	0.5884	0.6486	0.3616	-0.548
Mof_O 	O 	0.1721	0.7283	0.9868	-0.211
Mof_O 	O 	0.3088	0.6986	0.0858	7.973
Mof_O 	O 	0.2504	0.6951	0.9548	-0.466
Mof_O 	O 	0.2187	0.7447	0.0925	-0.92
Mof_Zr	Zr	0.66605	0.29267	0.03357	3.239
Mof_Zr	Zr	0.79804	0.26889	0.12936	3.227
Mof_Zr	Zr	0.71407	0.1781	0.05258	3.284
Mof_O 	O 	0.7926	0.2078	0.0659	-9.226
Mof_O 	O 	0.639	0.16443	0.1034	-0.669
Mof_O 	O 	0.7393	0.16038	0.1775	-0.703
Mof_O 	O 	0.7909	0.22201	0.2256	-0.854
Mof_O 	O 	0.7494	0.1762	0.9379	-0.375
Mof_O 	O 	0.707	0.2424	0.1199	0.047
Mof_O 	O 	0.6546	0.2245	0.9706	-0.714
Mof_O 	O 	0.8326	0.17516	0.8503	-0.689
Mof_O 	O 	0.7455	0.19179	0.7868	-0.663
Mof_O 	O 	0.3461	0.83269	0.1472	-0.726
Mof_O 	O 	0.7601	0.8866	0.5507	-0.687
Mof_O 	O 	0.3387	0.86761	0.0303	-0.62
Mof_O 	O 	0.8401	0.8675	0.4901	-0.709
Mof_O 	O 	0.0884	0.1958	0.4627	-0.907
Mof_C 	C 	0.8009	0.0882	0.3778	-0.026
Mof_C 	C 	0.787	0.1575	0.3031	-0.165
Mof_C 	C 	0.7947	0.1739	0.7931	0.504
Mof_C 	C 	0.8602	0.0898	0.5113	-0.024
Mof_C 	C 	0.8103	0.1502	0.7216	-0.159
Mof_C 	C 	0.7696	0.1816	0.2279	0.396
Mof_C 	C 	0.8476	0.0384	0.5165	0.026
Mof_C 	C 	0.8412	0.1109	0.5856	0.029
Mof_C 	C 	0.8047	0.8956	0.5209	0.392
Mof_C 	C 	0.8201	0.945	0.5205	-0.137
Mof_C 	C 	0.7791	0.1109	0.3098	0.05
Mof_C 	C 	0.8291	0.1126	0.4389	0.024
Mof_C 	C 	0.8135	0.1822	0.3655	0.046
Mof_C 	C 	0.8345	0.1598	0.432	-0.033
Mof_C 	C 	0.922	0.1002	0.5012	0.024
Mof_C 	C 	0.792	0.1354	0.5845	-0.031
Mof_C 	C 	0.8717	0.1024	0.6566	-0.035
Mof_C 	C 	0.7941	0.0248	0.5271	-0.026
Mof_C 	C 	0.7798	0.9777	0.5294	0.068
Mof_C 	C 	0.8571	0.1221	0.7235	0.069
Mof_C 	C 	0.7755	0.1539	0.652	0.071
Mof_C 	C 	0.9419	0.085	0.4338	-0.027
Mof_C 	C 	0.8732	0.9592	0.5089	0.06
Mof_C 	C 	0.8863	0.0059	0.5061	-0.028
Mof_C 	C 	0.0182	0.1359	0.4566	-0.131
Mof_C 	C 	0.9497	0.1348	0.5413	-0.028
Mof_C 	C 	0.9989	0.151	0.5195	0.032
Mof_C 	C 	0.0685	0.1617	0.4257	0.398
Mof_C 	C 	0.9903	0.1016	0.4079	0.044
Mof_C 	C 	0.4568	0.9733	0.2072	0.03
Mof_C 	C 	0.5256	0.0396	0.195	0.026
Mof_C 	C 	0.5089	0.1033	0.1064	0.061
Mof_C 	C 	0.6032	0.0844	0.1608	0.068
Mof_C 	C 	0.567	0.1128	0.1149	-0.147
Mof_C 	C 	0.4163	0.9328	0.0923	0.078
Mof_C 	C 	0.4891	0.0669	0.146	-0.025
Mof_C 	C 	0.451	0.9674	0.1284	-0.031
Mof_C 	C 	0.4269	0.9447	0.2529	-0.032
Mof_C 	C 	0.5829	0.0477	0.2009	-0.025
Mof_C 	C 	0.3888	0.9039	0.1387	-0.172
Mof_C 	C 	0.3542	0.8654	0.1021	0.538
Mof_C 	C 	0.3937	0.9096	0.2191	0.068
Mof_C 	C 	0.5887	0.1539	0.079	0.442
Mof_O 	O 	0.5565	0.1778	0.0338	-0.326
Mof_O 	O 	0.0884	0.1486	0.3616	-0.548
Mof_O 	O 	0.6721	0.2283	0.9868	-0.211
Mof_O 	O 	0.8088	0.1986	0.0858	7.966
Mof_O 	O 	0.7504	0.1951	0.9548	-0.468
Mof_O 	O 	0.7187	0.2447	0.0925	-0.921
Mof_C 	C 	-9.39111e-18	0.4941	0.75	-0.021
Mof_C 	C 	0.5	0.9941	0.75	-0.024
Mof_C 	C 	7.53287e-34	0.5059	0.25	-0.025
Mof_C 	C 	0.5	0.0059	0.25	-0.024
_end
