data_functionalizedCrystal
_audit_creation_method	'EQeq! by Chris Wilmer'
_symmetry_space_group_name_H-M	'P1'
_symmetry_Int_Tables_number	1
_symmetry_cell_setting	triclinic
loop_
_symmetry_equiv_pos_as_xyz
  x,y,z
_cell_length_a	15.4912
_cell_length_b	11.6687
_cell_length_c	23.7502
_cell_angle_alpha	90
_cell_angle_beta	90
_cell_angle_gamma	90
loop_
_atom_site_label
_atom_site_type_symbol
_atom_site_fract_x
_atom_site_fract_y
_atom_site_fract_z
_atom_site_charge
Mof_Ni	Ni	0.04698	0.35733	0.12311	1.108
Mof_O 	O 	0.15795	0.28741	0.08386	-0.38
Mof_O 	O 	0.09892	0.44945	0.05684	-0.505
Mof_O 	O 	0.44279	0.15831	0.00153	-0.452
Mof_O 	O 	0.46705	0.24271	0.91802	-0.435
Mof_O 	O 	0.86427	0.90019	0.30551	-0.301
Mof_O 	O 	0.95286	0.75446	0.3071	-0.321
Mof_O 	O 	0.92689	0.55096	0.0668	-0.392
Mof_O 	O 	0.96081	0.47185	0.15059	-0.371
Mof_C 	C 	0.23919	0.3999	0.01992	-0.205
Mof_C 	C 	0.30005	0.3142	0.01263	0.071
Mof_H 	H 	0.2918	0.2435	0.0299	0.028
Mof_C 	C 	0.37295	0.332	0.98002	-0.13
Mof_C 	C 	0.3865	0.4414	0.95776	0.11
Mof_H 	H 	0.4355	0.4558	0.9363	0.021
Mof_C 	C 	0.32794	0.5281	0.96732	-0.199
Mof_H 	H 	0.3391	0.6013	0.9538	0.118
Mof_C 	C 	0.25214	0.5069	0.99714	0.212
Mof_H 	H 	0.211	0.5642	0.0016	-0.042
Mof_C 	C 	0.16141	0.3762	0.05426	0.355
Mof_C 	C 	0.43357	0.2351	0.96601	0.44
Mof_C 	C 	0.86343	0.7727	0.22684	-0.051
Mof_C 	C 	0.90081	0.6768	0.20173	0.023
Mof_H 	H 	0.9425	0.6354	0.2212	0.077
Mof_C 	C 	0.87685	0.6423	0.14821	-0.081
Mof_C 	C 	0.81298	0.7018	0.12097	0.024
Mof_H 	H 	0.7963	0.679	0.0851	0.039
Mof_C 	C 	0.77283	0.7951	0.14569	-0.07
Mof_H 	H 	0.7289	0.8335	0.1269	0.072
Mof_C 	C 	0.79869	0.8306	0.19877	0.012
Mof_H 	H 	0.7724	0.8936	0.2155	0.067
Mof_C 	C 	0.89356	0.8121	0.28359	0.299
Mof_C 	C 	0.92502	0.5463	0.11937	0.366
Mof_Ni	Ni	0.45302	0.64267	0.62311	1.132
Mof_O 	O 	0.34205	0.71259	0.58386	-0.35
Mof_O 	O 	0.40108	0.55055	0.55684	-0.477
Mof_O 	O 	0.05721	0.84169	0.50153	-0.413
Mof_O 	O 	0.03295	0.75729	0.41802	-0.452
Mof_O 	O 	0.63573	0.09981	0.80551	-0.335
Mof_O 	O 	0.54714	0.24554	0.8071	-0.35
Mof_O 	O 	0.57311	0.44904	0.5668	-0.415
Mof_O 	O 	0.53919	0.52815	0.65059	-0.404
Mof_C 	C 	0.26081	0.6001	0.51992	-0.109
Mof_C 	C 	0.19995	0.6858	0.51263	0.053
Mof_H 	H 	0.2082	0.7565	0.5299	0.044
Mof_C 	C 	0.12705	0.668	0.48002	-0.125
Mof_C 	C 	0.1135	0.5586	0.45776	0.048
Mof_H 	H 	0.0645	0.5442	0.4363	0.023
Mof_C 	C 	0.17206	0.4719	0.46732	-0.11
Mof_H 	H 	0.1609	0.3987	0.4538	0.073
Mof_C 	C 	0.24786	0.4931	0.49714	0.044
Mof_H 	H 	0.289	0.4358	0.5016	0.035
Mof_C 	C 	0.33859	0.6238	0.55426	0.323
Mof_C 	C 	0.06643	0.7649	0.46601	0.392
Mof_C 	C 	0.63657	0.2273	0.72684	-0.077
Mof_C 	C 	0.59919	0.3232	0.70173	0.035
Mof_H 	H 	0.5575	0.3646	0.7212	0.059
Mof_C 	C 	0.62315	0.3577	0.64821	-0.099
Mof_C 	C 	0.68702	0.2982	0.62097	0.032
Mof_H 	H 	0.7037	0.321	0.5851	0.037
Mof_C 	C 	0.72717	0.2049	0.64569	-0.089
Mof_H 	H 	0.7711	0.1665	0.6269	0.07
Mof_C 	C 	0.70131	0.1694	0.69877	0.024
Mof_H 	H 	0.7276	0.1064	0.7155	0.046
Mof_C 	C 	0.60644	0.1879	0.78359	0.308
Mof_C 	C 	0.57498	0.4537	0.61937	0.371
Mof_Ni	Ni	0.95302	0.85733	0.37689	1.155
Mof_O 	O 	0.84205	0.78741	0.41614	-0.337
Mof_O 	O 	0.90108	0.94945	0.44316	-0.426
Mof_O 	O 	0.55721	0.65831	0.49847	-0.41
Mof_O 	O 	0.53295	0.74271	0.58198	-0.422
Mof_O 	O 	0.13573	0.40019	0.19449	-0.34
Mof_O 	O 	0.04714	0.25446	0.1929	-0.386
Mof_O 	O 	0.07311	0.05096	0.4332	-0.431
Mof_O 	O 	0.03919	0.97185	0.34941	-0.381
Mof_C 	C 	0.76081	0.8999	0.48008	-0.051
Mof_C 	C 	0.69995	0.8142	0.48737	0.042
Mof_H 	H 	0.7082	0.7435	0.4701	0.049
Mof_C 	C 	0.62705	0.832	0.51998	-0.124
Mof_C 	C 	0.6135	0.9414	0.54224	0.114
Mof_H 	H 	0.5645	0.9558	0.5637	0.03
Mof_C 	C 	0.67206	0.0281	0.53268	-0.159
Mof_H 	H 	0.6609	0.1013	0.5462	0.089
Mof_C 	C 	0.74786	0.0069	0.50286	-0.006
Mof_H 	H 	0.789	0.0642	0.4984	0.044
Mof_C 	C 	0.83859	0.8762	0.44574	0.304
Mof_C 	C 	0.56643	0.7351	0.53399	0.396
Mof_C 	C 	0.13657	0.2727	0.27316	-0.088
Mof_C 	C 	0.09919	0.1768	0.29827	0.028
Mof_H 	H 	0.0575	0.1354	0.2788	0.036
Mof_C 	C 	0.12315	0.1423	0.35179	-0.1
Mof_C 	C 	0.18702	0.2018	0.37903	0.024
Mof_H 	H 	0.2037	0.179	0.4149	0.035
Mof_C 	C 	0.22717	0.2951	0.35431	-0.091
Mof_H 	H 	0.2711	0.3335	0.3731	0.072
Mof_C 	C 	0.20131	0.3306	0.30123	0.022
Mof_H 	H 	0.2276	0.3936	0.2845	0.048
Mof_C 	C 	0.10644	0.3121	0.21641	0.31
Mof_C 	C 	0.07498	0.0463	0.38063	0.308
Mof_Ni	Ni	0.54698	0.14267	0.87689	1.132
Mof_O 	O 	0.65795	0.21259	0.91614	-0.344
Mof_O 	O 	0.59892	0.05055	0.94316	-0.48
Mof_O 	O 	0.94279	0.34169	0.99847	-0.344
Mof_O 	O 	0.96705	0.25729	0.08198	-0.382
Mof_O 	O 	0.36427	0.59981	0.69449	-0.328
Mof_O 	O 	0.45286	0.74554	0.6929	-0.344
Mof_O 	O 	0.42689	0.94904	0.9332	-0.394
Mof_O 	O 	0.46081	0.02815	0.84941	-0.449
Mof_C 	C 	0.73919	0.1001	0.98008	-0.058
Mof_C 	C 	0.80005	0.1858	0.98737	0.038
Mof_H 	H 	0.7918	0.2565	0.9701	0.053
Mof_C 	C 	0.87295	0.168	0.01998	-0.077
Mof_C 	C 	0.8865	0.0586	0.04224	-0.086
Mof_H 	H 	0.9355	0.0442	0.0637	0.084
Mof_C 	C 	0.82794	0.9719	0.03268	0.055
Mof_H 	H 	0.8391	0.8987	0.0462	0.028
Mof_C 	C 	0.75214	0.9931	0.00286	-0.072
Mof_H 	H 	0.711	0.9358	0.9984	0.107
Mof_C 	C 	0.66141	0.1238	0.94574	0.308
Mof_C 	C 	0.93357	0.2649	0.03399	0.333
Mof_C 	C 	0.36343	0.7273	0.77316	-0.075
Mof_C 	C 	0.40081	0.8232	0.79827	0.043
Mof_H 	H 	0.4425	0.8646	0.7788	0.067
Mof_C 	C 	0.37685	0.8577	0.85179	-0.104
Mof_C 	C 	0.31298	0.7982	0.87903	0.04
Mof_H 	H 	0.2963	0.821	0.9149	0.043
Mof_C 	C 	0.27283	0.7049	0.85431	-0.091
Mof_H 	H 	0.2289	0.6665	0.8731	0.075
Mof_C 	C 	0.29869	0.6694	0.80123	0.027
Mof_H 	H 	0.2724	0.6064	0.7845	0.049
Mof_C 	C 	0.39356	0.6879	0.71641	0.308
Mof_C 	C 	0.42502	0.9537	0.88063	0.425
Mof_Ni	Ni	0.95302	0.64267	0.87689	1.156
Mof_O 	O 	0.84205	0.71259	0.91614	-0.327
Mof_O 	O 	0.90108	0.55055	0.94316	-0.436
Mof_O 	O 	0.55721	0.84169	0.99847	-0.359
Mof_O 	O 	0.53295	0.75729	0.08198	-0.412
Mof_O 	O 	0.13573	0.09981	0.69449	-0.352
Mof_O 	O 	0.04714	0.24554	0.6929	-0.38
Mof_O 	O 	0.07311	0.44904	0.9332	-0.418
Mof_O 	O 	0.03919	0.52815	0.84941	-0.432
Mof_C 	C 	0.76081	0.6001	0.98008	-0.006
Mof_C 	C 	0.69995	0.6858	0.98737	0.029
Mof_H 	H 	0.7082	0.7565	0.9701	0.059
Mof_C 	C 	0.62705	0.668	0.01998	-0.096
Mof_C 	C 	0.6135	0.5586	0.04224	-0.019
Mof_H 	H 	0.5645	0.5442	0.0637	0.058
Mof_C 	C 	0.67206	0.4719	0.03268	-0.005
Mof_H 	H 	0.6609	0.3987	0.0462	0.036
Mof_C 	C 	0.74786	0.4931	0.00286	-0.124
Mof_H 	H 	0.789	0.4358	0.9984	0.115
Mof_C 	C 	0.83859	0.6238	0.94574	0.289
Mof_C 	C 	0.56643	0.7649	0.03399	0.342
Mof_C 	C 	0.13657	0.2273	0.77316	-0.095
Mof_C 	C 	0.09919	0.3232	0.79827	0.041
Mof_H 	H 	0.0575	0.3646	0.7788	0.044
Mof_C 	C 	0.12315	0.3577	0.85179	-0.112
Mof_C 	C 	0.18702	0.2982	0.87903	0.036
Mof_H 	H 	0.2037	0.321	0.9149	0.038
Mof_C 	C 	0.22717	0.2049	0.85431	-0.101
Mof_H 	H 	0.2711	0.1665	0.8731	0.072
Mof_C 	C 	0.20131	0.1694	0.80123	0.03
Mof_H 	H 	0.2276	0.1064	0.7845	0.037
Mof_C 	C 	0.10644	0.1879	0.71641	0.313
Mof_C 	C 	0.07498	0.4537	0.88063	0.372
Mof_Ni	Ni	0.54698	0.35733	0.37689	1.132
Mof_O 	O 	0.65795	0.28741	0.41614	-0.355
Mof_O 	O 	0.59892	0.44945	0.44316	-0.476
Mof_O 	O 	0.94279	0.15831	0.49847	-0.386
Mof_O 	O 	0.96705	0.24271	0.58198	-0.39
Mof_O 	O 	0.36427	0.90019	0.19449	-0.316
Mof_O 	O 	0.45286	0.75446	0.1929	-0.35
Mof_O 	O 	0.42689	0.55096	0.4332	-0.413
Mof_O 	O 	0.46081	0.47185	0.34941	-0.405
Mof_C 	C 	0.73919	0.3999	0.48008	-0.1
Mof_C 	C 	0.80005	0.3142	0.48737	0.046
Mof_H 	H 	0.7918	0.2435	0.4701	0.045
Mof_C 	C 	0.87295	0.332	0.51998	-0.1
Mof_C 	C 	0.8865	0.4414	0.54224	0.04
Mof_H 	H 	0.9355	0.4558	0.5637	0.057
Mof_C 	C 	0.82794	0.5281	0.53268	-0.089
Mof_H 	H 	0.8391	0.6013	0.5462	0.079
Mof_C 	C 	0.75214	0.5069	0.50286	0.038
Mof_H 	H 	0.711	0.5642	0.4984	0.039
Mof_C 	C 	0.66141	0.3762	0.44574	0.322
Mof_C 	C 	0.93357	0.2351	0.53399	0.384
Mof_C 	C 	0.36343	0.7727	0.27316	-0.069
Mof_C 	C 	0.40081	0.6768	0.29827	0.032
Mof_H 	H 	0.4425	0.6354	0.2788	0.06
Mof_C 	C 	0.37685	0.6423	0.35179	-0.096
Mof_C 	C 	0.31298	0.7018	0.37903	0.03
Mof_H 	H 	0.2963	0.679	0.4149	0.039
Mof_C 	C 	0.27283	0.7951	0.35431	-0.083
Mof_H 	H 	0.2289	0.8335	0.3731	0.076
Mof_C 	C 	0.29869	0.8306	0.30123	0.02
Mof_H 	H 	0.2724	0.8936	0.2845	0.06
Mof_C 	C 	0.39356	0.8121	0.21641	0.305
Mof_C 	C 	0.42502	0.5463	0.38063	0.371
Mof_Ni	Ni	0.04698	0.14267	0.62311	1.107
Mof_O 	O 	0.15795	0.21259	0.58386	-0.369
Mof_O 	O 	0.09892	0.05055	0.55684	-0.516
Mof_O 	O 	0.44279	0.34169	0.50153	-0.411
Mof_O 	O 	0.46705	0.25729	0.41802	-0.427
Mof_O 	O 	0.86427	0.59981	0.80551	-0.312
Mof_O 	O 	0.95286	0.74554	0.8071	-0.317
Mof_O 	O 	0.92689	0.94904	0.5668	-0.38
Mof_O 	O 	0.96081	0.02815	0.65059	-0.411
Mof_C 	C 	0.23919	0.1001	0.51992	-0.165
Mof_C 	C 	0.30005	0.1858	0.51263	0.061
Mof_H 	H 	0.2918	0.2565	0.5299	0.038
Mof_C 	C 	0.37295	0.168	0.48002	-0.104
Mof_C 	C 	0.3865	0.0586	0.45776	-0.028
Mof_H 	H 	0.4355	0.0442	0.4363	0.05
Mof_C 	C 	0.32794	0.9719	0.46732	-0.04
Mof_H 	H 	0.3391	0.8987	0.4538	0.063
Mof_C 	C 	0.25214	0.9931	0.49714	0.096
Mof_H 	H 	0.211	0.9358	0.5016	0.03
Mof_C 	C 	0.16141	0.1238	0.55426	0.341
Mof_C 	C 	0.43357	0.2649	0.46601	0.385
Mof_C 	C 	0.86343	0.7273	0.72684	-0.057
Mof_C 	C 	0.90081	0.8232	0.70173	0.034
Mof_H 	H 	0.9425	0.8646	0.7212	0.082
Mof_C 	C 	0.87685	0.8577	0.64821	-0.089
Mof_C 	C 	0.81298	0.7982	0.62097	0.033
Mof_H 	H 	0.7963	0.821	0.5851	0.043
Mof_C 	C 	0.77283	0.7049	0.64569	-0.077
Mof_H 	H 	0.7289	0.6665	0.6269	0.071
Mof_C 	C 	0.79869	0.6694	0.69877	0.018
Mof_H 	H 	0.7724	0.6064	0.7155	0.058
Mof_C 	C 	0.89356	0.6879	0.78359	0.303
Mof_C 	C 	0.92502	0.9537	0.61937	0.414
Mof_Ni	Ni	0.45302	0.85733	0.12311	1.132
Mof_O 	O 	0.34205	0.78741	0.08386	-0.361
Mof_O 	O 	0.40108	0.94945	0.05684	-0.461
Mof_O 	O 	0.05721	0.65831	0.00153	-0.463
Mof_O 	O 	0.03295	0.74271	0.91802	-0.462
Mof_O 	O 	0.63573	0.40019	0.30551	-0.324
Mof_O 	O 	0.54714	0.25446	0.3071	-0.356
Mof_O 	O 	0.57311	0.05096	0.0668	-0.422
Mof_O 	O 	0.53919	0.97185	0.15059	-0.357
Mof_C 	C 	0.26081	0.8999	0.01992	-0.152
Mof_C 	C 	0.19995	0.8142	0.01263	0.067
Mof_H 	H 	0.2082	0.7435	0.0299	0.033
Mof_C 	C 	0.12705	0.832	0.98002	-0.155
Mof_C 	C 	0.1135	0.9414	0.95776	0.189
Mof_H 	H 	0.0645	0.9558	0.9363	-0.007
Mof_C 	C 	0.17206	0.0281	0.96732	-0.273
Mof_H 	H 	0.1609	0.1013	0.9538	0.129
Mof_C 	C 	0.24786	0.0069	0.99714	0.165
Mof_H 	H 	0.289	0.0642	0.0016	-0.039
Mof_C 	C 	0.33859	0.8762	0.05426	0.337
Mof_C 	C 	0.06643	0.7351	0.96601	0.449
Mof_C 	C 	0.63657	0.2727	0.22684	-0.071
Mof_C 	C 	0.59919	0.1768	0.20173	0.022
Mof_H 	H 	0.5575	0.1354	0.2212	0.052
Mof_C 	C 	0.62315	0.1423	0.14821	-0.088
Mof_C 	C 	0.68702	0.2018	0.12097	0.021
Mof_H 	H 	0.7037	0.179	0.0851	0.034
Mof_C 	C 	0.72717	0.2951	0.14569	-0.079
Mof_H 	H 	0.7711	0.3335	0.1269	0.069
Mof_C 	C 	0.70131	0.3306	0.19877	0.017
Mof_H 	H 	0.7276	0.3936	0.2155	0.056
Mof_C 	C 	0.60644	0.3121	0.28359	0.305
Mof_C 	C 	0.57498	0.0463	0.11937	0.312
Mof_Ni	Ni	-0	0.5	-0	1.096
Mof_Ni	Ni	0.5	0.5	0.5	1.137
Mof_Ni	Ni	-3.0058e-33	0	0.5	1.088
Mof_Ni	Ni	0.5	0	-0	1.104
_end
