data_functionalizedCrystal
_audit_creation_method	'EQeq! by Chris Wilmer'
_symmetry_space_group_name_H-M	'P1'
_symmetry_Int_Tables_number	1
_symmetry_cell_setting	triclinic
loop_
_symmetry_equiv_pos_as_xyz
  x,y,z
_cell_length_a	13.7995
_cell_length_b	13.7995
_cell_length_c	13.9285
_cell_angle_alpha	70.5287
_cell_angle_beta	67.2426
_cell_angle_gamma	105.849
loop_
_atom_site_label
_atom_site_type_symbol
_atom_site_fract_x
_atom_site_fract_y
_atom_site_fract_z
_atom_site_charge
Mof_Li	Li	0.0816	0.7544	0.0638	6.1
Mof_Li	Li	0.3376	0.2602	0.3122	4.97
Mof_Li	Li	0.1818	0.3546	0.5638	6.355
Mof_Li	Li	0.4276	0.8502	0.8122	4.994
Mof_Li	Li	0.8182	0.6454	0.4362	6.355
Mof_Li	Li	0.5724	0.1498	0.1878	4.994
Mof_Li	Li	0.6624	0.7398	0.6878	4.97
Mof_Li	Li	0.9184	0.2456	0.9362	6.099
Mof_Zr	Zr	0.37549	0.24909	0.87472	3.2
Mof_Zr	Zr	0.12381	0.7502	0.62528	3.2
Mof_Zr	Zr	0.62452	0.75091	0.12528	3.2
Mof_Zr	Zr	0.87619	0.24979	0.37472	3.2
Mof_C 	C 	0.11923	0.28764	0.34249	0.387
Mof_C 	C 	0.03891	0.49014	0.72471	0.659
Mof_C 	C 	0.36987	0.03828	0.84249	0.364
Mof_C 	C 	0.96109	0.50986	0.27529	0.659
Mof_C 	C 	0.49394	0.51355	0.75253	0.381
Mof_C 	C 	0.0393	0.25695	0.47365	0.647
Mof_C 	C 	0.78515	0.73638	0.22471	0.671
Mof_C 	C 	0.50606	0.48645	0.24747	0.381
Mof_C 	C 	0.2694	0.98705	0.97365	0.676
Mof_C 	C 	0.13534	0.22357	0.90925	0.473
Mof_C 	C 	0.15077	0.73983	0.83498	0.613
Mof_C 	C 	0.7306	0.01295	0.02635	0.676
Mof_C 	C 	0.9607	0.74305	0.52635	0.647
Mof_C 	C 	0.73392	0.25353	0.25253	0.393
Mof_C 	C 	0.5966	0.76179	0.91599	0.53
Mof_C 	C 	0.88077	0.71236	0.65751	0.387
Mof_C 	C 	0.86718	0.45541	0.40925	0.496
Mof_C 	C 	0.21485	0.26362	0.77529	0.671
Mof_C 	C 	0.13282	0.54459	0.59075	0.496
Mof_C 	C 	0.50497	0.21866	0.00873	0.458
Mof_C 	C 	0.86466	0.77643	0.09075	0.473
Mof_C 	C 	0.57481	0.48575	0.66502	0.639
Mof_C 	C 	0.4034	0.23821	0.08401	0.53
Mof_C 	C 	0.42519	0.51425	0.33498	0.639
Mof_C 	C 	0.63013	0.96172	0.15751	0.364
Mof_C 	C 	0.22739	0.0137	0.49127	0.46
Mof_C 	C 	0.49503	0.78134	0.99127	0.458
Mof_C 	C 	0.26608	0.74647	0.74747	0.393
Mof_C 	C 	0.84923	0.26017	0.16502	0.613
Mof_C 	C 	0.67778	0.01259	0.58401	0.513
Mof_C 	C 	0.77261	0.9863	0.50873	0.461
Mof_C 	C 	0.32222	0.98741	0.41599	0.513
Mof_O 	O 	0.22433	0.3157	0.29821	-1.335
Mof_O 	O 	0.80759	0.77565	0.0363	-0.676
Mof_O 	O 	0.51189	0.23022	0.91019	-0.736
Mof_O 	O 	0.91721	0.24982	0.20599	-0.759
Mof_O 	O 	0.68186	0.7279	0.25296	-0.853
Mof_O 	O 	0.29132	0.87881	0.45615	-0.722
Mof_O 	O 	0.97044	0.80575	0.04441	-1.561
Mof_O 	O 	0.26446	0.74041	0.65735	-0.72
Mof_O 	O 	0.39612	0.24405	0.17147	-1.498
Mof_O 	O 	0.92108	0.74216	0.46212	-1.814
Mof_O 	O 	0.73524	0.93509	0.99617	-0.803
Mof_O 	O 	0.86816	0.27575	0.06671	-1.739
Mof_O 	O 	0.01914	0.56518	0.75296	-0.843
Mof_O 	O 	0.02956	0.19425	0.95559	-1.561
Mof_O 	O 	0.26476	0.06491	0.00383	-0.803
Mof_O 	O 	0.60224	0.57819	0.15735	-0.717
Mof_O 	O 	0.13184	0.72425	0.93329	-1.739
Mof_O 	O 	0.73554	0.25959	0.34265	-0.72
Mof_O 	O 	0.14984	0.48515	0.54441	-1.626
Mof_O 	O 	0.99047	0.38572	0.79107	-1.848
Mof_O 	O 	0.34246	0.43487	0.43329	-1.81
Mof_O 	O 	0.06244	0.2809	0.2878	-0.659
Mof_O 	O 	0.98086	0.43482	0.24704	-0.843
Mof_O 	O 	0.48042	0.38828	0.26432	-1.381
Mof_O 	O 	0.3474	0.75526	0.76432	-1.388
Mof_O 	O 	0.39776	0.42181	0.84265	-0.717
Mof_O 	O 	0.51958	0.61172	0.73568	-1.381
Mof_O 	O 	0.93126	0.23141	0.50383	-0.803
Mof_O 	O 	0.31814	0.2721	0.74704	-0.853
Mof_O 	O 	0.20428	0.8832	0.03788	-1.799
Mof_O 	O 	0.93756	0.7191	0.7122	-0.659
Mof_O 	O 	0.77567	0.6843	0.70179	-1.335
Mof_O 	O 	0.41552	0.06759	0.32853	-1.494
Mof_O 	O 	0.70868	0.12119	0.54385	-0.722
Mof_O 	O 	0.33496	0.24747	0.04385	-0.724
Mof_O 	O 	0.82321	0.71846	0.29107	-1.882
Mof_O 	O 	0.79572	0.1168	0.96212	-1.799
Mof_O 	O 	0.60388	0.75595	0.82853	-1.498
Mof_O 	O 	0.23784	0.11142	0.45882	-1.412
Mof_O 	O 	0.42976	0.80334	0.95882	-1.409
Mof_O 	O 	0.4313	0.14976	0.7878	-0.653
Mof_O 	O 	0.45581	0.6232	0.29401	-0.773
Mof_O 	O 	0.76216	0.88858	0.54118	-1.412
Mof_O 	O 	0.08279	0.75018	0.79401	-0.759
Mof_O 	O 	0.85016	0.51485	0.45559	-1.626
Mof_O 	O 	0.5687	0.85024	0.2122	-0.653
Mof_O 	O 	0.38609	0.97746	0.79821	-1.323
Mof_O 	O 	0.48811	0.76978	0.08981	-0.736
Mof_O 	O 	0.00953	0.61428	0.20893	-1.848
Mof_O 	O 	0.61391	0.02254	0.20179	-1.323
Mof_O 	O 	0.54419	0.3768	0.70599	-0.773
Mof_O 	O 	0.07892	0.25784	0.53788	-1.814
Mof_O 	O 	0.19241	0.22435	0.9637	-0.676
Mof_O 	O 	0.85959	0.07792	0.41019	-0.733
Mof_O 	O 	0.06874	0.76859	0.49617	-0.803
Mof_O 	O 	0.6526	0.24474	0.23568	-1.388
Mof_O 	O 	0.58448	0.93241	0.67147	-1.494
Mof_O 	O 	0.14041	0.92208	0.58981	-0.733
Mof_O 	O 	0.18805	0.65611	0.5363	-0.686
Mof_O 	O 	0.17679	0.28154	0.70893	-1.882
Mof_O 	O 	0.81195	0.34389	0.4637	-0.686
Mof_O 	O 	0.57024	0.19666	0.04118	-1.409
Mof_O 	O 	0.65754	0.56513	0.56671	-1.81
Mof_O 	O 	0.66504	0.75253	0.95615	-0.724
_end
