data_functionalizedCrystal
_audit_creation_method	'EQeq! by Chris Wilmer'
_symmetry_space_group_name_H-M	'P1'
_symmetry_Int_Tables_number	1
_symmetry_cell_setting	triclinic
loop_
_symmetry_equiv_pos_as_xyz
  x,y,z
_cell_length_a	8.206
_cell_length_b	14.1833
_cell_length_c	14.1833
_cell_angle_alpha	110.031
_cell_angle_beta	91.265
_cell_angle_gamma	88.735
loop_
_atom_site_label
_atom_site_type_symbol
_atom_site_fract_x
_atom_site_fract_y
_atom_site_fract_z
_atom_site_charge
Mof_La	La	0.00345	0.74878	0.218	1.811
Mof_La	La	0.50345	0.782	0.25122	2.027
Mof_H 	H 	0.4973	0.5632	0.6022	0.081
Mof_H 	H 	0.4287	0.2818	0.4082	0.07
Mof_H 	H 	0.2771	0.3574	0.6948	0.071
Mof_H 	H 	0.4639	0.7429	0.9537	0.001
Mof_H 	H 	0.5267	0.6603	0.7751	0.055
Mof_H 	H 	0.7846	0.3956	0.2172	0.045
Mof_H 	H 	0.6267	0.3135	0.3143	0.047
Mof_H 	H 	0.0509	0.0395	0.5707	0.027
Mof_H 	H 	0.1317	0.2146	0.6478	0.038
Mof_H 	H 	0.9973	0.3978	0.4368	0.139
Mof_H 	H 	0.9287	0.5918	0.7182	0.123
Mof_H 	H 	0.7771	0.3052	0.6426	0.106
Mof_H 	H 	0.9639	0.0463	0.2571	0.062
Mof_H 	H 	0.0267	0.2249	0.3397	-0.085
Mof_H 	H 	0.2846	0.7828	0.6044	0.044
Mof_H 	H 	0.1267	0.6857	0.6865	0.006
Mof_H 	H 	0.5509	0.4293	0.9605	0.046
Mof_H 	H 	0.6317	0.3522	0.7854	0.05
Mof_C 	C 	0.3851	0.4739	0.6655	0.069
Mof_C 	C 	0.4594	0.497	0.5888	-0.133
Mof_C 	C 	0.4802	0.426	0.4928	0.079
Mof_C 	C 	0.4186	0.3302	0.4736	-0.138
Mof_C 	C 	0.3425	0.3034	0.5478	0.07
Mof_C 	C 	0.3271	0.3751	0.6435	-0.135
Mof_C 	C 	0.3672	0.5478	0.7674	-0.017
Mof_C 	C 	0.3	0.6324	0.9454	-0.113
Mof_C 	C 	0.4147	0.6824	0.9122	0.025
Mof_C 	C 	0.4517	0.6349	0.8103	-0.081
Mof_C 	C 	0.229	0.6595	0.0463	0.365
Mof_C 	C 	0.5683	0.4489	0.4147	-0.026
Mof_C 	C 	0.7167	0.5343	0.3167	-0.098
Mof_C 	C 	0.7259	0.4313	0.2761	0.01
Mof_C 	C 	0.6365	0.3842	0.333	-0.059
Mof_C 	C 	0.7948	0.6077	0.2797	0.366
Mof_C 	C 	0.2749	0.2026	0.5268	-0.025
Mof_C 	C 	0.194	0.0242	0.4502	-0.093
Mof_C 	C 	0.1238	0.0714	0.5404	0.004
Mof_C 	C 	0.1696	0.1719	0.5845	-0.07
Mof_C 	C 	0.1583	0.9228	0.3786	0.345
Mof_C 	C 	0.8851	0.3345	0.5261	0.169
Mof_C 	C 	0.9594	0.4112	0.503	-0.218
Mof_C 	C 	0.9802	0.5072	0.574	0.232
Mof_C 	C 	0.9186	0.5264	0.6698	-0.209
Mof_C 	C 	0.8425	0.4522	0.6966	0.142
Mof_C 	C 	0.8271	0.3565	0.6249	-0.184
Mof_C 	C 	0.8672	0.2326	0.4522	-0.103
Mof_C 	C 	0.8	0.0546	0.3676	-0.065
Mof_C 	C 	0.9147	0.0878	0.3176	-0.073
Mof_C 	C 	0.9517	0.1897	0.3651	0.147
Mof_C 	C 	0.729	0.9537	0.3405	0.352
Mof_C 	C 	0.0683	0.5853	0.5511	-0.144
Mof_C 	C 	0.2167	0.6833	0.4657	-0.093
Mof_C 	C 	0.2259	0.7239	0.5687	-0.027
Mof_C 	C 	0.1365	0.667	0.6158	-0.001
Mof_C 	C 	0.2948	0.7203	0.3923	0.357
Mof_C 	C 	0.7749	0.4732	0.7974	-0.04
Mof_C 	C 	0.694	0.5498	0.9758	-0.076
Mof_C 	C 	0.6238	0.4596	0.9286	0.008
Mof_C 	C 	0.6696	0.4155	0.8281	-0.04
Mof_C 	C 	0.6583	0.6214	0.0772	0.345
Mof_S 	S 	0.2359	0.52682	0.85064	-0
Mof_S 	S 	0.5999	0.57177	0.42367	0.042
Mof_S 	S 	0.3213	0.10408	0.41864	0.006
Mof_S 	S 	0.7359	0.14936	0.47318	0.064
Mof_S 	S 	0.0999	0.57633	0.42823	-0.004
Mof_S 	S 	0.8213	0.58136	0.89592	0.068
Mof_O 	O 	0.2903	0.7323	0.1167	-0.595
Mof_O 	O 	0.1095	0.6123	0.0593	-0.455
Mof_O 	O 	0.9061	0.5792	0.2182	-0.371
Mof_O 	O 	0.7475	0.6996	0.3154	-0.488
Mof_O 	O 	0.0532	0.8711	0.3985	-0.442
Mof_O 	O 	0.2363	0.8912	0.2958	-0.553
Mof_O 	O 	0.7903	0.8833	0.2677	-0.549
Mof_O 	O 	0.6095	0.9407	0.3877	-0.426
Mof_O 	O 	0.4061	0.7818	0.4208	-0.423
Mof_O 	O 	0.2475	0.6846	0.3004	-0.513
Mof_O 	O 	0.5532	0.6015	0.1289	-0.429
Mof_O 	O 	0.7363	0.7042	0.1088	-0.52
_end
