data_functionalizedCrystal
_audit_creation_method	'EQeq! by Chris Wilmer'
_symmetry_space_group_name_H-M	'P1'
_symmetry_Int_Tables_number	1
_symmetry_cell_setting	triclinic
loop_
_symmetry_equiv_pos_as_xyz
  x,y,z
_cell_length_a	28.135
_cell_length_b	28.135
_cell_length_c	19.2
_cell_angle_alpha	90
_cell_angle_beta	90
_cell_angle_gamma	120
loop_
_atom_site_label
_atom_site_type_symbol
_atom_site_fract_x
_atom_site_fract_y
_atom_site_fract_z
_atom_site_charge
Mof_I 	I 	0.22853	0.59748	0.42381	-0.604
Mof_Cu	Cu	0.29146	0.68693	0.49809	0.728
Mof_O 	O 	0.2151	0.8365	0.676	-0.409
Mof_O 	O 	0.2942	0.8342	0.6791	-0.399
Mof_O 	O 	0.9518	0.677	0.3204	-0.41
Mof_O 	O 	0.9469	0.5944	0.3197	-0.42
Mof_N 	N 	0.2423	0.716	0.529	-0.225
Mof_C 	C 	0.2567	0.753	0.5817	0.064
Mof_H 	H 	0.2884	0.7621	0.607	0.014
Mof_C 	C 	0.2264	0.7778	0.5995	-0.103
Mof_C 	C 	0.1765	0.7612	0.5638	0.015
Mof_H 	H 	0.1552	0.7771	0.5742	0.041
Mof_C 	C 	0.1608	0.723	0.5158	-0.046
Mof_C 	C 	0.1946	0.7028	0.4948	0.022
Mof_H 	H 	0.1845	0.6796	0.4564	0.012
Mof_C 	C 	0.2456	0.8202	0.6558	0.36
Mof_C 	C 	0.109	0.702	0.4716	0.09
Mof_C 	C 	0.0892	0.7362	0.4522	-0.14
Mof_H 	H 	0.1068	0.7724	0.4676	0.083
Mof_C 	C 	0.0429	0.7167	0.4097	0.062
Mof_H 	H 	0.0305	0.7404	0.3961	0.026
Mof_C 	C 	0.0153	0.6633	0.3877	-0.122
Mof_C 	C 	0.0325	0.6293	0.4082	0.067
Mof_H 	H 	0.0127	0.5926	0.3953	0.029
Mof_C 	C 	0.0796	0.6475	0.4488	-0.141
Mof_H 	H 	0.0916	0.6232	0.4609	0.088
Mof_C 	C 	0.9657	0.6426	0.3384	0.373
Mof_I 	I 	0.40252	0.63105	0.42381	-0.605
Mof_Cu	Cu	0.31307	0.60453	0.49809	0.727
Mof_O 	O 	0.1635	0.3786	0.676	-0.409
Mof_O 	O 	0.1658	0.46	0.6791	-0.399
Mof_O 	O 	0.323	0.2748	0.3204	-0.41
Mof_O 	O 	0.4056	0.3525	0.3197	-0.42
Mof_N 	N 	0.284	0.5263	0.529	-0.225
Mof_C 	C 	0.247	0.5037	0.5817	0.064
Mof_H 	H 	0.2379	0.5263	0.607	0.014
Mof_C 	C 	0.2222	0.4486	0.5995	-0.103
Mof_C 	C 	0.2388	0.4153	0.5638	0.015
Mof_H 	H 	0.2229	0.3781	0.5742	0.041
Mof_C 	C 	0.277	0.4378	0.5158	-0.046
Mof_C 	C 	0.2972	0.4918	0.4948	0.022
Mof_H 	H 	0.3204	0.5049	0.4564	0.012
Mof_C 	C 	0.1798	0.4254	0.6558	0.36
Mof_C 	C 	0.298	0.407	0.4716	0.09
Mof_C 	C 	0.2638	0.353	0.4522	-0.139
Mof_H 	H 	0.2276	0.3344	0.4676	0.083
Mof_C 	C 	0.2833	0.3262	0.4097	0.061
Mof_H 	H 	0.2596	0.2901	0.3961	0.026
Mof_C 	C 	0.3367	0.352	0.3877	-0.122
Mof_C 	C 	0.3707	0.4032	0.4082	0.067
Mof_H 	H 	0.4074	0.4201	0.3953	0.029
Mof_C 	C 	0.3525	0.4321	0.4488	-0.14
Mof_H 	H 	0.3768	0.4684	0.4609	0.087
Mof_C 	C 	0.3574	0.3231	0.3384	0.372
Mof_I 	I 	0.36895	0.77147	0.42381	-0.605
Mof_Cu	Cu	0.39547	0.70854	0.49809	0.727
Mof_O 	O 	0.6214	0.7849	0.676	-0.409
Mof_O 	O 	0.54	0.7058	0.6791	-0.399
Mof_O 	O 	0.7252	0.0482	0.3204	-0.41
Mof_O 	O 	0.6475	0.0531	0.3197	-0.42
Mof_N 	N 	0.4737	0.7577	0.529	-0.225
Mof_C 	C 	0.4963	0.7433	0.5817	0.064
Mof_H 	H 	0.4737	0.7116	0.607	0.014
Mof_C 	C 	0.5514	0.7736	0.5995	-0.103
Mof_C 	C 	0.5847	0.8235	0.5638	0.015
Mof_H 	H 	0.6219	0.8448	0.5742	0.041
Mof_C 	C 	0.5622	0.8392	0.5158	-0.046
Mof_C 	C 	0.5082	0.8054	0.4948	0.022
Mof_H 	H 	0.4951	0.8155	0.4564	0.012
Mof_C 	C 	0.5746	0.7544	0.6558	0.36
Mof_C 	C 	0.593	0.891	0.4716	0.09
Mof_C 	C 	0.647	0.9108	0.4522	-0.139
Mof_H 	H 	0.6656	0.8932	0.4676	0.083
Mof_C 	C 	0.6738	0.9571	0.4097	0.062
Mof_H 	H 	0.7099	0.9695	0.3961	0.026
Mof_C 	C 	0.648	0.9847	0.3877	-0.122
Mof_C 	C 	0.5968	0.9675	0.4082	0.067
Mof_H 	H 	0.5799	0.9873	0.3953	0.029
Mof_C 	C 	0.5679	0.9204	0.4488	-0.14
Mof_H 	H 	0.5316	0.9084	0.4609	0.088
Mof_C 	C 	0.6769	0.0343	0.3384	0.373
Mof_I 	I 	0.77147	0.40252	0.92381	-0.605
Mof_Cu	Cu	0.70854	0.31307	0.99809	0.727
Mof_O 	O 	0.7849	0.1635	0.176	-0.409
Mof_O 	O 	0.7058	0.1658	0.1791	-0.399
Mof_O 	O 	0.0482	0.323	0.8204	-0.41
Mof_O 	O 	0.0531	0.4056	0.8197	-0.42
Mof_N 	N 	0.7577	0.284	0.029	-0.224
Mof_C 	C 	0.7433	0.247	0.0817	0.063
Mof_H 	H 	0.7116	0.2379	0.107	0.014
Mof_C 	C 	0.7736	0.2222	0.0995	-0.102
Mof_C 	C 	0.8235	0.2388	0.0638	0.012
Mof_H 	H 	0.8448	0.2229	0.0742	0.042
Mof_C 	C 	0.8392	0.277	0.0158	-0.042
Mof_C 	C 	0.8054	0.2972	0.9948	0.018
Mof_H 	H 	0.8155	0.3204	0.9564	0.014
Mof_C 	C 	0.7544	0.1798	0.1558	0.36
Mof_C 	C 	0.891	0.298	0.9716	0.087
Mof_C 	C 	0.9108	0.2638	0.9522	-0.138
Mof_H 	H 	0.8932	0.2276	0.9676	0.082
Mof_C 	C 	0.9571	0.2833	0.9097	0.06
Mof_H 	H 	0.9695	0.2596	0.8961	0.026
Mof_C 	C 	0.9847	0.3367	0.8877	-0.122
Mof_C 	C 	0.9675	0.3707	0.9082	0.066
Mof_H 	H 	0.9873	0.4074	0.8953	0.029
Mof_C 	C 	0.9204	0.3525	0.9488	-0.139
Mof_H 	H 	0.9084	0.3768	0.9609	0.087
Mof_C 	C 	0.0343	0.3574	0.8384	0.373
Mof_I 	I 	0.59748	0.36895	0.92381	-0.605
Mof_Cu	Cu	0.68693	0.39547	0.99809	0.727
Mof_O 	O 	0.8365	0.6214	0.176	-0.409
Mof_O 	O 	0.8342	0.54	0.1791	-0.399
Mof_O 	O 	0.677	0.7252	0.8204	-0.41
Mof_O 	O 	0.5944	0.6475	0.8197	-0.42
Mof_N 	N 	0.716	0.4737	0.029	-0.225
Mof_C 	C 	0.753	0.4963	0.0817	0.063
Mof_H 	H 	0.7621	0.4737	0.107	0.014
Mof_C 	C 	0.7778	0.5514	0.0995	-0.103
Mof_C 	C 	0.7612	0.5847	0.0638	0.014
Mof_H 	H 	0.7771	0.6219	0.0742	0.041
Mof_C 	C 	0.723	0.5622	0.0158	-0.045
Mof_C 	C 	0.7028	0.5082	0.9948	0.02
Mof_H 	H 	0.6796	0.4951	0.9564	0.013
Mof_C 	C 	0.8202	0.5746	0.1558	0.36
Mof_C 	C 	0.702	0.593	0.9716	0.089
Mof_C 	C 	0.7362	0.647	0.9522	-0.138
Mof_H 	H 	0.7724	0.6656	0.9676	0.083
Mof_C 	C 	0.7167	0.6738	0.9097	0.061
Mof_H 	H 	0.7404	0.7099	0.8961	0.026
Mof_C 	C 	0.6633	0.648	0.8877	-0.121
Mof_C 	C 	0.6293	0.5968	0.9082	0.066
Mof_H 	H 	0.5926	0.5799	0.8953	0.029
Mof_C 	C 	0.6475	0.5679	0.9488	-0.139
Mof_H 	H 	0.6232	0.5316	0.9609	0.087
Mof_C 	C 	0.6426	0.6769	0.8384	0.372
Mof_I 	I 	0.63105	0.22853	0.92381	-0.605
Mof_Cu	Cu	0.60453	0.29146	0.99809	0.727
Mof_O 	O 	0.3786	0.2151	0.176	-0.409
Mof_O 	O 	0.46	0.2942	0.1791	-0.399
Mof_O 	O 	0.2748	0.9518	0.8204	-0.41
Mof_O 	O 	0.3525	0.9469	0.8197	-0.42
Mof_N 	N 	0.5263	0.2423	0.029	-0.225
Mof_C 	C 	0.5037	0.2567	0.0817	0.063
Mof_H 	H 	0.5263	0.2884	0.107	0.014
Mof_C 	C 	0.4486	0.2264	0.0995	-0.102
Mof_C 	C 	0.4153	0.1765	0.0638	0.013
Mof_H 	H 	0.3781	0.1552	0.0742	0.041
Mof_C 	C 	0.4378	0.1608	0.0158	-0.044
Mof_C 	C 	0.4918	0.1946	0.9948	0.02
Mof_H 	H 	0.5049	0.1845	0.9564	0.013
Mof_C 	C 	0.4254	0.2456	0.1558	0.36
Mof_C 	C 	0.407	0.109	0.9716	0.088
Mof_C 	C 	0.353	0.0892	0.9522	-0.139
Mof_H 	H 	0.3344	0.1068	0.9676	0.083
Mof_C 	C 	0.3262	0.0429	0.9097	0.061
Mof_H 	H 	0.2901	0.0305	0.8961	0.026
Mof_C 	C 	0.352	0.0153	0.8877	-0.122
Mof_C 	C 	0.4032	0.0325	0.9082	0.067
Mof_H 	H 	0.4201	0.0127	0.8953	0.029
Mof_C 	C 	0.4321	0.0796	0.9488	-0.14
Mof_H 	H 	0.4684	0.0916	0.9609	0.087
Mof_C 	C 	0.3231	0.9657	0.8384	0.373
Mof_I 	I 	0.77147	0.40252	0.57619	-0.605
Mof_Cu	Cu	0.70854	0.31307	0.50191	0.727
Mof_O 	O 	0.7849	0.1635	0.324	-0.409
Mof_O 	O 	0.7058	0.1658	0.3209	-0.399
Mof_O 	O 	0.0482	0.323	0.6796	-0.41
Mof_O 	O 	0.0531	0.4056	0.6803	-0.42
Mof_N 	N 	0.7577	0.284	0.471	-0.225
Mof_C 	C 	0.7433	0.247	0.4183	0.064
Mof_H 	H 	0.7116	0.2379	0.393	0.014
Mof_C 	C 	0.7736	0.2222	0.4005	-0.103
Mof_C 	C 	0.8235	0.2388	0.4362	0.015
Mof_H 	H 	0.8448	0.2229	0.4258	0.041
Mof_C 	C 	0.8392	0.277	0.4842	-0.046
Mof_C 	C 	0.8054	0.2972	0.5052	0.022
Mof_H 	H 	0.8155	0.3204	0.5436	0.012
Mof_C 	C 	0.7544	0.1798	0.3442	0.36
Mof_C 	C 	0.891	0.298	0.5284	0.09
Mof_C 	C 	0.9108	0.2638	0.5478	-0.14
Mof_H 	H 	0.8932	0.2276	0.5324	0.083
Mof_C 	C 	0.9571	0.2833	0.5903	0.062
Mof_H 	H 	0.9695	0.2596	0.6039	0.026
Mof_C 	C 	0.9847	0.3367	0.6123	-0.122
Mof_C 	C 	0.9675	0.3707	0.5918	0.067
Mof_H 	H 	0.9873	0.4074	0.6047	0.029
Mof_C 	C 	0.9204	0.3525	0.5512	-0.141
Mof_H 	H 	0.9084	0.3768	0.5391	0.088
Mof_C 	C 	0.0343	0.3574	0.6616	0.373
Mof_I 	I 	0.59748	0.36895	0.57619	-0.605
Mof_Cu	Cu	0.68693	0.39547	0.50191	0.727
Mof_O 	O 	0.8365	0.6214	0.324	-0.409
Mof_O 	O 	0.8342	0.54	0.3209	-0.399
Mof_O 	O 	0.677	0.7252	0.6796	-0.41
Mof_O 	O 	0.5944	0.6475	0.6803	-0.42
Mof_N 	N 	0.716	0.4737	0.471	-0.225
Mof_C 	C 	0.753	0.4963	0.4183	0.064
Mof_H 	H 	0.7621	0.4737	0.393	0.014
Mof_C 	C 	0.7778	0.5514	0.4005	-0.103
Mof_C 	C 	0.7612	0.5847	0.4362	0.015
Mof_H 	H 	0.7771	0.6219	0.4258	0.041
Mof_C 	C 	0.723	0.5622	0.4842	-0.046
Mof_C 	C 	0.7028	0.5082	0.5052	0.022
Mof_H 	H 	0.6796	0.4951	0.5436	0.012
Mof_C 	C 	0.8202	0.5746	0.3442	0.36
Mof_C 	C 	0.702	0.593	0.5284	0.09
Mof_C 	C 	0.7362	0.647	0.5478	-0.139
Mof_H 	H 	0.7724	0.6656	0.5324	0.083
Mof_C 	C 	0.7167	0.6738	0.5903	0.061
Mof_H 	H 	0.7404	0.7099	0.6039	0.026
Mof_C 	C 	0.6633	0.648	0.6123	-0.122
Mof_C 	C 	0.6293	0.5968	0.5918	0.067
Mof_H 	H 	0.5926	0.5799	0.6047	0.029
Mof_C 	C 	0.6475	0.5679	0.5512	-0.14
Mof_H 	H 	0.6232	0.5316	0.5391	0.087
Mof_C 	C 	0.6426	0.6769	0.6616	0.372
Mof_I 	I 	0.63105	0.22853	0.57619	-0.605
Mof_Cu	Cu	0.60453	0.29146	0.50191	0.727
Mof_O 	O 	0.3786	0.2151	0.324	-0.409
Mof_O 	O 	0.46	0.2942	0.3209	-0.399
Mof_O 	O 	0.2748	0.9518	0.6796	-0.41
Mof_O 	O 	0.3525	0.9469	0.6803	-0.42
Mof_N 	N 	0.5263	0.2423	0.471	-0.225
Mof_C 	C 	0.5037	0.2567	0.4183	0.064
Mof_H 	H 	0.5263	0.2884	0.393	0.014
Mof_C 	C 	0.4486	0.2264	0.4005	-0.103
Mof_C 	C 	0.4153	0.1765	0.4362	0.015
Mof_H 	H 	0.3781	0.1552	0.4258	0.041
Mof_C 	C 	0.4378	0.1608	0.4842	-0.046
Mof_C 	C 	0.4918	0.1946	0.5052	0.022
Mof_H 	H 	0.5049	0.1845	0.5436	0.012
Mof_C 	C 	0.4254	0.2456	0.3442	0.36
Mof_C 	C 	0.407	0.109	0.5284	0.09
Mof_C 	C 	0.353	0.0892	0.5478	-0.139
Mof_H 	H 	0.3344	0.1068	0.5324	0.083
Mof_C 	C 	0.3262	0.0429	0.5903	0.062
Mof_H 	H 	0.2901	0.0305	0.6039	0.026
Mof_C 	C 	0.352	0.0153	0.6123	-0.122
Mof_C 	C 	0.4032	0.0325	0.5918	0.067
Mof_H 	H 	0.4201	0.0127	0.6047	0.029
Mof_C 	C 	0.4321	0.0796	0.5512	-0.14
Mof_H 	H 	0.4684	0.0916	0.5391	0.088
Mof_C 	C 	0.3231	0.9657	0.6616	0.373
Mof_I 	I 	0.22853	0.59748	0.07619	-0.605
Mof_Cu	Cu	0.29146	0.68693	0.00191	0.727
Mof_O 	O 	0.2151	0.8365	0.824	-0.409
Mof_O 	O 	0.2942	0.8342	0.8209	-0.399
Mof_O 	O 	0.9518	0.677	0.1796	-0.41
Mof_O 	O 	0.9469	0.5944	0.1803	-0.42
Mof_N 	N 	0.2423	0.716	0.971	-0.224
Mof_C 	C 	0.2567	0.753	0.9183	0.063
Mof_H 	H 	0.2884	0.7621	0.893	0.014
Mof_C 	C 	0.2264	0.7778	0.9005	-0.102
Mof_C 	C 	0.1765	0.7612	0.9362	0.012
Mof_H 	H 	0.1552	0.7771	0.9258	0.042
Mof_C 	C 	0.1608	0.723	0.9842	-0.042
Mof_C 	C 	0.1946	0.7028	0.0052	0.018
Mof_H 	H 	0.1845	0.6796	0.0436	0.014
Mof_C 	C 	0.2456	0.8202	0.8442	0.36
Mof_C 	C 	0.109	0.702	0.0284	0.087
Mof_C 	C 	0.0892	0.7362	0.0478	-0.138
Mof_H 	H 	0.1068	0.7724	0.0324	0.082
Mof_C 	C 	0.0429	0.7167	0.0903	0.06
Mof_H 	H 	0.0305	0.7404	0.1039	0.026
Mof_C 	C 	0.0153	0.6633	0.1123	-0.122
Mof_C 	C 	0.0325	0.6293	0.0918	0.066
Mof_H 	H 	0.0127	0.5926	0.1047	0.029
Mof_C 	C 	0.0796	0.6475	0.0512	-0.139
Mof_H 	H 	0.0916	0.6232	0.0391	0.087
Mof_C 	C 	0.9657	0.6426	0.1616	0.373
Mof_I 	I 	0.40252	0.63105	0.07619	-0.605
Mof_Cu	Cu	0.31307	0.60453	0.00191	0.727
Mof_O 	O 	0.1635	0.3786	0.824	-0.409
Mof_O 	O 	0.1658	0.46	0.8209	-0.399
Mof_O 	O 	0.323	0.2748	0.1796	-0.41
Mof_O 	O 	0.4056	0.3525	0.1803	-0.42
Mof_N 	N 	0.284	0.5263	0.971	-0.225
Mof_C 	C 	0.247	0.5037	0.9183	0.063
Mof_H 	H 	0.2379	0.5263	0.893	0.014
Mof_C 	C 	0.2222	0.4486	0.9005	-0.103
Mof_C 	C 	0.2388	0.4153	0.9362	0.014
Mof_H 	H 	0.2229	0.3781	0.9258	0.041
Mof_C 	C 	0.277	0.4378	0.9842	-0.045
Mof_C 	C 	0.2972	0.4918	0.0052	0.02
Mof_H 	H 	0.3204	0.5049	0.0436	0.013
Mof_C 	C 	0.1798	0.4254	0.8442	0.36
Mof_C 	C 	0.298	0.407	0.0284	0.089
Mof_C 	C 	0.2638	0.353	0.0478	-0.138
Mof_H 	H 	0.2276	0.3344	0.0324	0.083
Mof_C 	C 	0.2833	0.3262	0.0903	0.061
Mof_H 	H 	0.2596	0.2901	0.1039	0.026
Mof_C 	C 	0.3367	0.352	0.1123	-0.121
Mof_C 	C 	0.3707	0.4032	0.0918	0.066
Mof_H 	H 	0.4074	0.4201	0.1047	0.029
Mof_C 	C 	0.3525	0.4321	0.0512	-0.139
Mof_H 	H 	0.3768	0.4684	0.0391	0.087
Mof_C 	C 	0.3574	0.3231	0.1616	0.372
Mof_I 	I 	0.36895	0.77147	0.07619	-0.605
Mof_Cu	Cu	0.39547	0.70854	0.00191	0.727
Mof_O 	O 	0.6214	0.7849	0.824	-0.409
Mof_O 	O 	0.54	0.7058	0.8209	-0.399
Mof_O 	O 	0.7252	0.0482	0.1796	-0.41
Mof_O 	O 	0.6475	0.0531	0.1803	-0.42
Mof_N 	N 	0.4737	0.7577	0.971	-0.225
Mof_C 	C 	0.4963	0.7433	0.9183	0.063
Mof_H 	H 	0.4737	0.7116	0.893	0.014
Mof_C 	C 	0.5514	0.7736	0.9005	-0.102
Mof_C 	C 	0.5847	0.8235	0.9362	0.013
Mof_H 	H 	0.6219	0.8448	0.9258	0.041
Mof_C 	C 	0.5622	0.8392	0.9842	-0.044
Mof_C 	C 	0.5082	0.8054	0.0052	0.02
Mof_H 	H 	0.4951	0.8155	0.0436	0.013
Mof_C 	C 	0.5746	0.7544	0.8442	0.36
Mof_C 	C 	0.593	0.891	0.0284	0.088
Mof_C 	C 	0.647	0.9108	0.0478	-0.139
Mof_H 	H 	0.6656	0.8932	0.0324	0.083
Mof_C 	C 	0.6738	0.9571	0.0903	0.061
Mof_H 	H 	0.7099	0.9695	0.1039	0.026
Mof_C 	C 	0.648	0.9847	0.1123	-0.122
Mof_C 	C 	0.5968	0.9675	0.0918	0.067
Mof_H 	H 	0.5799	0.9873	0.1047	0.029
Mof_C 	C 	0.5679	0.9204	0.0512	-0.14
Mof_H 	H 	0.5316	0.9084	0.0391	0.087
Mof_C 	C 	0.6769	0.0343	0.1616	0.373
Mof_I 	I 	0.33333	0.66667	0.61259	-0.555
Mof_Cu	Cu	0.33333	0.66667	0.37955	0.685
Mof_I 	I 	0.66667	0.33333	0.11259	-0.554
Mof_Cu	Cu	0.66667	0.33333	0.87955	0.685
Mof_I 	I 	0.66667	0.33333	0.38741	-0.555
Mof_Cu	Cu	0.66667	0.33333	0.62045	0.685
Mof_I 	I 	0.33333	0.66667	0.88741	-0.554
Mof_Cu	Cu	0.33333	0.66667	0.12045	0.685
Mof_Cu	Cu	0.23797	0.89432	0.75	0.899
Mof_Cu	Cu	0.32995	0.89004	0.75	0.91
Mof_Cu	Cu	0.10568	0.34365	0.75	0.899
Mof_Cu	Cu	0.10996	0.43991	0.75	0.91
Mof_Cu	Cu	0.65635	0.76203	0.75	0.899
Mof_Cu	Cu	0.56009	0.67005	0.75	0.91
Mof_Cu	Cu	0.76203	0.10568	0.25	0.899
Mof_Cu	Cu	0.67005	0.10996	0.25	0.91
Mof_Cu	Cu	0.89432	0.65635	0.25	0.899
Mof_Cu	Cu	0.89004	0.56009	0.25	0.91
Mof_Cu	Cu	0.34365	0.23797	0.25	0.899
Mof_Cu	Cu	0.43991	0.32995	0.25	0.91
_end
