data_functionalizedCrystal
_audit_creation_method	'EQeq! by Chris Wilmer'
_symmetry_space_group_name_H-M	'P1'
_symmetry_Int_Tables_number	1
_symmetry_cell_setting	triclinic
loop_
_symmetry_equiv_pos_as_xyz
  x,y,z
_cell_length_a	13.2063
_cell_length_b	11.2784
_cell_length_c	15.3334
_cell_angle_alpha	90
_cell_angle_beta	103.854
_cell_angle_gamma	90
loop_
_atom_site_label
_atom_site_type_symbol
_atom_site_fract_x
_atom_site_fract_y
_atom_site_fract_z
_atom_site_charge
Mof_Cd	Cd	0.19519	0.82076	0.1791	0.532
Mof_O 	O 	0.3099	0.7002	0.2919	-0.175
Mof_O 	O 	0.1376	0.6242	0.17099	-0.196
Mof_O 	O 	0.3214	0.5251	0.36037	-0.183
Mof_O 	O 	0.1613	0.4446	0.23416	-0.171
Mof_O 	O 	0.0096	0.844	0.13894	-0.178
Mof_O 	O 	0.8686	0.8567	0.19356	-0.198
Mof_O 	O 	0.1296	0.7959	0.01402	-0.172
Mof_O 	O 	0.171	0.7133	0.89571	-0.188
Mof_C 	C 	0.2813	0.596	0.2991	0.228
Mof_C 	C 	0.1846	0.551	0.2281	0.23
Mof_C 	C 	0.965	0.8491	0.2014	0.23
Mof_C 	C 	0.1916	0.7524	0.9739	0.233
Mof_Cd	Cd	0.69519	0.32076	0.1791	0.533
Mof_O 	O 	0.8099	0.2002	0.2919	-0.174
Mof_O 	O 	0.6376	0.1242	0.17099	-0.195
Mof_O 	O 	0.8214	0.0251	0.36037	-0.183
Mof_O 	O 	0.6613	0.9446	0.23416	-0.17
Mof_O 	O 	0.5096	0.344	0.13894	-0.178
Mof_O 	O 	0.3686	0.3567	0.19356	-0.197
Mof_O 	O 	0.6296	0.2959	0.01402	-0.173
Mof_O 	O 	0.671	0.2133	0.89571	-0.189
Mof_C 	C 	0.7813	0.096	0.2991	0.228
Mof_C 	C 	0.6846	0.051	0.2281	0.229
Mof_C 	C 	0.465	0.3491	0.2014	0.232
Mof_C 	C 	0.6916	0.2524	0.9739	0.238
Mof_Cd	Cd	0.80481	0.82076	0.3209	0.533
Mof_O 	O 	0.6901	0.7002	0.2081	-0.174
Mof_O 	O 	0.8624	0.6242	0.32901	-0.195
Mof_O 	O 	0.6786	0.5251	0.13963	-0.182
Mof_O 	O 	0.8387	0.4446	0.26584	-0.17
Mof_O 	O 	0.9904	0.844	0.36106	-0.179
Mof_O 	O 	0.1314	0.8567	0.30644	-0.198
Mof_O 	O 	0.8704	0.7959	0.48598	-0.172
Mof_O 	O 	0.829	0.7133	0.60429	-0.188
Mof_C 	C 	0.7187	0.596	0.2009	0.228
Mof_C 	C 	0.8154	0.551	0.2719	0.23
Mof_C 	C 	0.035	0.8491	0.2986	0.233
Mof_C 	C 	0.8084	0.7524	0.5261	0.236
Mof_Cd	Cd	0.30481	0.32076	0.3209	0.533
Mof_O 	O 	0.1901	0.2002	0.2081	-0.174
Mof_O 	O 	0.3624	0.1242	0.32901	-0.195
Mof_O 	O 	0.1786	0.0251	0.13963	-0.183
Mof_O 	O 	0.3387	0.9446	0.26584	-0.17
Mof_O 	O 	0.4904	0.344	0.36106	-0.178
Mof_O 	O 	0.6314	0.3567	0.30644	-0.197
Mof_O 	O 	0.3704	0.2959	0.48598	-0.172
Mof_O 	O 	0.329	0.2133	0.60429	-0.188
Mof_C 	C 	0.2187	0.096	0.2009	0.228
Mof_C 	C 	0.3154	0.051	0.2719	0.229
Mof_C 	C 	0.535	0.3491	0.2986	0.232
Mof_C 	C 	0.3084	0.2524	0.5261	0.236
Mof_Cd	Cd	0.80481	0.17924	0.8209	0.533
Mof_O 	O 	0.6901	0.2998	0.7081	-0.174
Mof_O 	O 	0.8624	0.3758	0.82901	-0.195
Mof_O 	O 	0.6786	0.4749	0.63963	-0.182
Mof_O 	O 	0.8387	0.5554	0.76584	-0.17
Mof_O 	O 	0.9904	0.156	0.86106	-0.177
Mof_O 	O 	0.1314	0.1433	0.80644	-0.197
Mof_O 	O 	0.8704	0.2041	0.98598	-0.171
Mof_O 	O 	0.829	0.2867	0.10429	-0.188
Mof_C 	C 	0.7187	0.404	0.7009	0.228
Mof_C 	C 	0.8154	0.449	0.7719	0.23
Mof_C 	C 	0.035	0.1509	0.7986	0.23
Mof_C 	C 	0.8084	0.2476	0.0261	0.233
Mof_Cd	Cd	0.30481	0.67924	0.8209	0.533
Mof_O 	O 	0.1901	0.7998	0.7081	-0.174
Mof_O 	O 	0.3624	0.8758	0.82901	-0.195
Mof_O 	O 	0.1786	0.9749	0.63963	-0.183
Mof_O 	O 	0.3387	0.0554	0.76584	-0.17
Mof_O 	O 	0.4904	0.656	0.86106	-0.178
Mof_O 	O 	0.6314	0.6433	0.80644	-0.197
Mof_O 	O 	0.3704	0.7041	0.98598	-0.173
Mof_O 	O 	0.329	0.7867	0.10429	-0.189
Mof_C 	C 	0.2187	0.904	0.7009	0.228
Mof_C 	C 	0.3154	0.949	0.7719	0.229
Mof_C 	C 	0.535	0.6509	0.7986	0.232
Mof_C 	C 	0.3084	0.7476	0.0261	0.238
Mof_Cd	Cd	0.19519	0.17924	0.6791	0.533
Mof_O 	O 	0.3099	0.2998	0.7919	-0.174
Mof_O 	O 	0.1376	0.3758	0.67099	-0.195
Mof_O 	O 	0.3214	0.4749	0.86037	-0.182
Mof_O 	O 	0.1613	0.5554	0.73416	-0.17
Mof_O 	O 	0.0096	0.156	0.63894	-0.179
Mof_O 	O 	0.8686	0.1433	0.69356	-0.198
Mof_O 	O 	0.1296	0.2041	0.51402	-0.172
Mof_O 	O 	0.171	0.2867	0.39571	-0.188
Mof_C 	C 	0.2813	0.404	0.7991	0.228
Mof_C 	C 	0.1846	0.449	0.7281	0.23
Mof_C 	C 	0.965	0.1509	0.7014	0.233
Mof_C 	C 	0.1916	0.2476	0.4739	0.236
Mof_Cd	Cd	0.69519	0.67924	0.6791	0.533
Mof_O 	O 	0.8099	0.7998	0.7919	-0.174
Mof_O 	O 	0.6376	0.8758	0.67099	-0.195
Mof_O 	O 	0.8214	0.9749	0.86037	-0.183
Mof_O 	O 	0.6613	0.0554	0.73416	-0.17
Mof_O 	O 	0.5096	0.656	0.63894	-0.178
Mof_O 	O 	0.3686	0.6433	0.69356	-0.197
Mof_O 	O 	0.6296	0.7041	0.51402	-0.172
Mof_O 	O 	0.671	0.7867	0.39571	-0.188
Mof_C 	C 	0.7813	0.904	0.7991	0.228
Mof_C 	C 	0.6846	0.949	0.7281	0.229
Mof_C 	C 	0.465	0.6509	0.7014	0.232
Mof_C 	C 	0.6916	0.7476	0.4739	0.236
_end
