# CIF file generated by openbabel 3.1.0, see https://openbabel.org
data_I
_chemical_name_common 'image0'
_cell_length_a 15.438
_cell_length_b 14.691
_cell_length_c 33.046
_cell_angle_alpha 90
_cell_angle_beta 94.832
_cell_angle_gamma 90
_space_group_name_H-M_alt 'P 1'
_space_group_name_Hall 'P 1'
loop_
    _symmetry_equiv_pos_as_xyz
    x,y,z
loop_
    _atom_site_label
    _atom_site_type_symbol
    _atom_site_fract_x
    _atom_site_fract_y
    _atom_site_fract_z
    _atom_site_occupancy
    W1       W        0.53205    0.24471    0.37165    1.000
    C1       C        0.44650    0.16210    0.40550    1.000
    C2       C        0.48640    0.33900    0.41470    1.000
    C3       C        0.64210    0.21200    0.33780    1.000
    C4       C        0.49540    0.13810    0.32810    1.000
    C5       C        0.53660    0.35150    0.32630    1.000
    C6       C        0.39920    0.27040    0.34900    1.000
    C7       C        0.63780    0.33190    0.39520    1.000
    C8       C        0.60610    0.15260    0.41100    1.000
    N1       N        0.40120    0.12000    0.42360    1.000
    N2       N        0.46260    0.39000    0.43710    1.000
    N3       N        0.70080    0.19350    0.32110    1.000
    N4       N        0.47490    0.08750    0.30420    1.000
    N5       N        0.54170    0.40640    0.30280    1.000
    N6       N        0.32800    0.27920    0.33620    1.000
    N7       N        0.69410    0.37850    0.40650    1.000
    N8       N        0.64420    0.10030    0.43210    1.000
    Mn1      Mn       0.81934    0.12308    0.30210    1.000
    Mn2      Mn       0.45466    0.00389    0.24836    1.000
    Mn3      Mn       0.19157    0.29085    0.31456    1.000
    Mn4      Mn       0.80493    0.47448    0.41207    1.000
    Mn5      Mn       0.71551    0.00290    0.47427    1.000
    N9       N        0.93450    0.04610    0.28490    1.000
    N10      N        0.89610    0.17140    0.35670    1.000
    N11      N        0.76470    0.00320    0.32890    1.000
    N12      N        0.84050    0.24590    0.26610    1.000
    N13      N        0.53710    0.90130    0.28490    1.000
    N14      N        0.32050    0.95720    0.26050    1.000
    N15      N        0.38690    0.12040    0.21550    1.000
    N16      N        0.88840    0.36180    0.43700    1.000
    N17      N        0.83200    0.44380    0.34820    1.000
    N18      N        0.74680    0.60400    0.38950    1.000
    N19      N        0.83560    0.07550    0.46060    1.000
    N20      N        0.70880    0.89560    0.42740    1.000
    N21      N        0.80370    0.91340    0.51450    1.000
    C9       C        0.99310    0.01680    0.27190    1.000
    C10      C        0.93810    0.17790    0.38660    1.000
    C11      C        0.73950    0.93190    0.33280    1.000
    C12      C        0.59200    0.86280    0.30380    1.000
    C13      C        0.93390    0.29880    0.44150    1.000
    C14      C        0.89870    0.11320    0.45530    1.000
    C15      C        0.70220    0.85700    0.39820    1.000
    W2       W        0.10640    0.96116    0.24474    1.000
    W3       W        0.01706    0.18195    0.44396    1.000
    W4       W        0.69636    0.79275    0.33880    1.000
    C16      C        0.05110    0.06710    0.20560    1.000
    C17      C        0.14360    0.82020    0.23820    1.000
    C18      C        0.24530    0.95640    0.25530    1.000
    C19      C        0.99530    0.88780    0.21800    1.000
    C20      C        0.14970    0.08300    0.27720    1.000
    C21      C        0.10120    0.89890    0.30380    1.000
    C22      C        0.15040    0.94770    0.18360    1.000
    C23      C        0.09570    0.29390    0.46810    1.000
    C24      C        0.10090    0.22040    0.39750    1.000
    C25      C        0.03010    0.04700    0.41900    1.000
    C26      C        0.99820    0.18820    0.50830    1.000
    C27      C        0.13420    0.11940    0.47170    1.000
    C28      C        0.57720    0.75680    0.36590    1.000
    C29      C        0.64320    0.68040    0.30200    1.000
    C30      C        0.74880    0.80310    0.28020    1.000
    C31      C        0.83540    0.79810    0.35540    1.000
    C32      C        0.73070    0.66890    0.37220    1.000
    N22      N        0.01580    0.11970    0.18440    1.000
    N23      N        0.93730    0.84680    0.20500    1.000
    N24      N        0.17090    0.14630    0.29430    1.000
    N25      N        0.09020    0.86340    0.33370    1.000
    N26      N        0.13600    0.35260    0.48170    1.000
    N27      N        0.14380    0.24460    0.37350    1.000
    N28      N        0.03240    0.97600    0.40650    1.000
    N29      N        0.98850    0.19070    0.54180    1.000
    N30      N        0.51540    0.73830    0.38060    1.000
    N31      N        0.77190    0.81190    0.24870    1.000
    N32      N        0.90730    0.80450    0.36710    1.000
    Mn6      Mn       0.04219    0.82960    0.39408    1.000
    W5       W        0.46795    0.74471    0.12835    1.000
    C33      C        0.55350    0.66210    0.09450    1.000
    C34      C        0.51360    0.83900    0.08530    1.000
    C35      C        0.35790    0.71200    0.16220    1.000
    C36      C        0.50460    0.63810    0.17190    1.000
    C37      C        0.46340    0.85150    0.17370    1.000
    C38      C        0.60080    0.77040    0.15100    1.000
    C39      C        0.36220    0.83190    0.10480    1.000
    C40      C        0.39390    0.65260    0.08900    1.000
    N33      N        0.59880    0.62000    0.07640    1.000
    N34      N        0.53740    0.89000    0.06290    1.000
    N35      N        0.29920    0.69350    0.17890    1.000
    N36      N        0.52510    0.58750    0.19580    1.000
    N37      N        0.45830    0.90640    0.19720    1.000
    N38      N        0.67200    0.77920    0.16380    1.000
    N39      N        0.30590    0.87850    0.09350    1.000
    N40      N        0.35580    0.60030    0.06790    1.000
    Mn7      Mn       0.18066    0.62308    0.19790    1.000
    Mn8      Mn       0.54534    0.50389    0.25164    1.000
    Mn9      Mn       0.80843    0.79085    0.18544    1.000
    Mn10     Mn       0.19507    0.97448    0.08793    1.000
    Mn11     Mn       0.28449    0.50290    0.02573    1.000
    N41      N        0.06550    0.54610    0.21510    1.000
    N42      N        0.10390    0.67140    0.14330    1.000
    N43      N        0.23530    0.50320    0.17110    1.000
    N44      N        0.15950    0.74590    0.23390    1.000
    N45      N        0.46290    0.40130    0.21510    1.000
    N46      N        0.67950    0.45720    0.23950    1.000
    N47      N        0.61310    0.62040    0.28450    1.000
    N48      N        0.11160    0.86180    0.06300    1.000
    N49      N        0.16800    0.94380    0.15180    1.000
    N50      N        0.25320    0.10400    0.11050    1.000
    N51      N        0.16440    0.57550    0.03940    1.000
    N52      N        0.29120    0.39560    0.07260    1.000
    N53      N        0.19630    0.41340    0.98550    1.000
    C41      C        0.00690    0.51680    0.22810    1.000
    C42      C        0.06190    0.67790    0.11340    1.000
    C43      C        0.26050    0.43190    0.16720    1.000
    C44      C        0.40800    0.36280    0.19620    1.000
    C45      C        0.06610    0.79880    0.05850    1.000
    C46      C        0.10130    0.61320    0.04470    1.000
    C47      C        0.29780    0.35700    0.10180    1.000
    W6       W        0.89360    0.46116    0.25526    1.000
    W7       W        0.98294    0.68195    0.05604    1.000
    W8       W        0.30364    0.29275    0.16120    1.000
    C48      C        0.94890    0.56710    0.29440    1.000
    C49      C        0.85640    0.32020    0.26180    1.000
    C50      C        0.75470    0.45640    0.24470    1.000
    C51      C        0.00470    0.38780    0.28200    1.000
    C52      C        0.85030    0.58300    0.22280    1.000
    C53      C        0.89880    0.39890    0.19620    1.000
    C54      C        0.84960    0.44770    0.31640    1.000
    C55      C        0.90430    0.79390    0.03190    1.000
    C56      C        0.89910    0.72040    0.10250    1.000
    C57      C        0.96990    0.54700    0.08100    1.000
    C58      C        0.00180    0.68820    0.99170    1.000
    C59      C        0.86580    0.61940    0.02830    1.000
    C60      C        0.42280    0.25680    0.13410    1.000
    C61      C        0.35680    0.18040    0.19800    1.000
    C62      C        0.25120    0.30310    0.21980    1.000
    C63      C        0.16460    0.29810    0.14460    1.000
    C64      C        0.26930    0.16890    0.12780    1.000
    N54      N        0.98420    0.61970    0.31560    1.000
    N55      N        0.06270    0.34680    0.29500    1.000
    N56      N        0.82910    0.64630    0.20570    1.000
    N57      N        0.90980    0.36340    0.16630    1.000
    N58      N        0.86400    0.85260    0.01830    1.000
    N59      N        0.85620    0.74460    0.12650    1.000
    N60      N        0.96760    0.47600    0.09350    1.000
    N61      N        0.01150    0.69070    0.95820    1.000
    N62      N        0.48460    0.23830    0.11940    1.000
    N63      N        0.22810    0.31190    0.25130    1.000
    N64      N        0.09270    0.30450    0.13290    1.000
    Mn12     Mn       0.95781    0.32960    0.10592    1.000
    W9       W        0.46795    0.75529    0.62835    1.000
    C65      C        0.55350    0.83790    0.59450    1.000
    C66      C        0.51360    0.66100    0.58530    1.000
    C67      C        0.35790    0.78800    0.66220    1.000
    C68      C        0.50460    0.86190    0.67190    1.000
    C69      C        0.46340    0.64850    0.67370    1.000
    C70      C        0.60080    0.72960    0.65100    1.000
    C71      C        0.36220    0.66810    0.60480    1.000
    C72      C        0.39390    0.84740    0.58900    1.000
    N65      N        0.59880    0.88000    0.57640    1.000
    N66      N        0.53740    0.61000    0.56290    1.000
    N67      N        0.29920    0.80650    0.67890    1.000
    N68      N        0.52510    0.91250    0.69580    1.000
    N69      N        0.45830    0.59360    0.69720    1.000
    N70      N        0.67200    0.72080    0.66380    1.000
    N71      N        0.30590    0.62150    0.59350    1.000
    N72      N        0.35580    0.89970    0.56790    1.000
    Mn13     Mn       0.18066    0.87692    0.69790    1.000
    Mn14     Mn       0.54534    0.99611    0.75164    1.000
    Mn15     Mn       0.80843    0.70915    0.68544    1.000
    Mn16     Mn       0.19507    0.52552    0.58793    1.000
    Mn17     Mn       0.28449    0.99710    0.52573    1.000
    N73      N        0.06550    0.95390    0.71510    1.000
    N74      N        0.10390    0.82860    0.64330    1.000
    N75      N        0.23530    0.99680    0.67110    1.000
    N76      N        0.15950    0.75410    0.73390    1.000
    N77      N        0.46290    0.09870    0.71510    1.000
    N78      N        0.67950    0.04280    0.73950    1.000
    N79      N        0.61310    0.87960    0.78450    1.000
    N80      N        0.11160    0.63820    0.56300    1.000
    N81      N        0.16800    0.55620    0.65180    1.000
    N82      N        0.25320    0.39600    0.61050    1.000
    N83      N        0.16440    0.92450    0.53940    1.000
    N84      N        0.29120    0.10440    0.57260    1.000
    N85      N        0.19630    0.08660    0.48550    1.000
    C73      C        0.00690    0.98320    0.72810    1.000
    C74      C        0.06190    0.82210    0.61340    1.000
    C75      C        0.26050    0.06810    0.66720    1.000
    C76      C        0.40800    0.13720    0.69620    1.000
    C77      C        0.06610    0.70120    0.55850    1.000
    C78      C        0.10130    0.88680    0.54470    1.000
    C79      C        0.29780    0.14300    0.60180    1.000
    W10      W        0.89360    0.03884    0.75526    1.000
    W11      W        0.98294    0.81805    0.55604    1.000
    W12      W        0.30364    0.20725    0.66120    1.000
    C80      C        0.94890    0.93290    0.79440    1.000
    C81      C        0.85640    0.17980    0.76180    1.000
    C82      C        0.75470    0.04360    0.74470    1.000
    C83      C        0.00470    0.11220    0.78200    1.000
    C84      C        0.85030    0.91700    0.72280    1.000
    C85      C        0.89880    0.10110    0.69620    1.000
    C86      C        0.84960    0.05230    0.81640    1.000
    C87      C        0.90430    0.70610    0.53190    1.000
    C88      C        0.89910    0.77960    0.60250    1.000
    C89      C        0.96990    0.95300    0.58100    1.000
    C90      C        0.00180    0.81180    0.49170    1.000
    C91      C        0.86580    0.88060    0.52830    1.000
    C92      C        0.42280    0.24320    0.63410    1.000
    C93      C        0.35680    0.31960    0.69800    1.000
    C94      C        0.25120    0.19690    0.71980    1.000
    C95      C        0.16460    0.20190    0.64460    1.000
    C96      C        0.26930    0.33110    0.62780    1.000
    N86      N        0.98420    0.88030    0.81560    1.000
    N87      N        0.06270    0.15320    0.79500    1.000
    N88      N        0.82910    0.85370    0.70570    1.000
    N89      N        0.90980    0.13660    0.66630    1.000
    N90      N        0.86400    0.64740    0.51830    1.000
    N91      N        0.85620    0.75540    0.62650    1.000
    N92      N        0.96760    0.02400    0.59350    1.000
    N93      N        0.01150    0.80930    0.45820    1.000
    N94      N        0.48460    0.26170    0.61940    1.000
    N95      N        0.22810    0.18810    0.75130    1.000
    N96      N        0.09270    0.19550    0.63290    1.000
    Mn18     Mn       0.95781    0.17040    0.60592    1.000
    W13      W        0.53205    0.25529    0.87165    1.000
    C97      C        0.44650    0.33790    0.90550    1.000
    C98      C        0.48640    0.16100    0.91470    1.000
    C99      C        0.64210    0.28800    0.83780    1.000
    C100     C        0.49540    0.36190    0.82810    1.000
    C101     C        0.53660    0.14850    0.82630    1.000
    C102     C        0.39920    0.22960    0.84900    1.000
    C103     C        0.63780    0.16810    0.89520    1.000
    C104     C        0.60610    0.34740    0.91100    1.000
    N97      N        0.40120    0.38000    0.92360    1.000
    N98      N        0.46260    0.11000    0.93710    1.000
    N99      N        0.70080    0.30650    0.82110    1.000
    N100     N        0.47490    0.41250    0.80420    1.000
    N101     N        0.54170    0.09360    0.80280    1.000
    N102     N        0.32800    0.22080    0.83620    1.000
    N103     N        0.69410    0.12150    0.90650    1.000
    N104     N        0.64420    0.39970    0.93210    1.000
    Mn19     Mn       0.81934    0.37692    0.80210    1.000
    Mn20     Mn       0.45466    0.49611    0.74836    1.000
    Mn21     Mn       0.19157    0.20915    0.81456    1.000
    Mn22     Mn       0.80493    0.02552    0.91207    1.000
    Mn23     Mn       0.71551    0.49710    0.97427    1.000
    N105     N        0.93450    0.45390    0.78490    1.000
    N106     N        0.89610    0.32860    0.85670    1.000
    N107     N        0.76470    0.49680    0.82890    1.000
    N108     N        0.84050    0.25410    0.76610    1.000
    N109     N        0.53710    0.59870    0.78490    1.000
    N110     N        0.32050    0.54280    0.76050    1.000
    N111     N        0.38690    0.37960    0.71550    1.000
    N112     N        0.88840    0.13820    0.93700    1.000
    N113     N        0.83200    0.05620    0.84820    1.000
    N114     N        0.74680    0.89600    0.88950    1.000
    N115     N        0.83560    0.42450    0.96060    1.000
    N116     N        0.70880    0.60440    0.92740    1.000
    N117     N        0.80370    0.58660    0.01450    1.000
    C105     C        0.99310    0.48320    0.77190    1.000
    C106     C        0.93810    0.32210    0.88660    1.000
    C107     C        0.73950    0.56810    0.83280    1.000
    C108     C        0.59200    0.63720    0.80380    1.000
    C109     C        0.93390    0.20120    0.94150    1.000
    C110     C        0.89870    0.38680    0.95530    1.000
    C111     C        0.70220    0.64300    0.89820    1.000
    W14      W        0.10640    0.53884    0.74474    1.000
    W15      W        0.01706    0.31805    0.94396    1.000
    W16      W        0.69636    0.70725    0.83880    1.000
    C112     C        0.05110    0.43290    0.70560    1.000
    C113     C        0.14360    0.67980    0.73820    1.000
    C114     C        0.24530    0.54360    0.75530    1.000
    C115     C        0.99530    0.61220    0.71800    1.000
    C116     C        0.14970    0.41700    0.77720    1.000
    C117     C        0.10120    0.60110    0.80380    1.000
    C118     C        0.15040    0.55230    0.68360    1.000
    C119     C        0.09570    0.20610    0.96810    1.000
    C120     C        0.10090    0.27960    0.89750    1.000
    C121     C        0.03010    0.45300    0.91900    1.000
    C122     C        0.99820    0.31180    0.00830    1.000
    C123     C        0.13420    0.38060    0.97170    1.000
    C124     C        0.57720    0.74320    0.86590    1.000
    C125     C        0.64320    0.81960    0.80200    1.000
    C126     C        0.74880    0.69690    0.78020    1.000
    C127     C        0.83540    0.70190    0.85540    1.000
    C128     C        0.73070    0.83110    0.87220    1.000
    N118     N        0.01580    0.38030    0.68440    1.000
    N119     N        0.93730    0.65320    0.70500    1.000
    N120     N        0.17090    0.35370    0.79430    1.000
    N121     N        0.09020    0.63660    0.83370    1.000
    N122     N        0.13600    0.14740    0.98170    1.000
    N123     N        0.14380    0.25540    0.87350    1.000
    N124     N        0.03240    0.52400    0.90650    1.000
    N125     N        0.98850    0.30930    0.04180    1.000
    N126     N        0.51540    0.76170    0.88060    1.000
    N127     N        0.77190    0.68810    0.74870    1.000
    N128     N        0.90730    0.69550    0.86710    1.000
    Mn24     Mn       0.04219    0.67040    0.89408    1.000
