# CIF file generated by openbabel 3.1.0, see https://openbabel.org
data_I
_chemical_name_common 'OKIXIQ02_charged'
_cell_length_a 15.8878
_cell_length_b 15.8878
_cell_length_c 21.703
_cell_angle_alpha 90
_cell_angle_beta 90
_cell_angle_gamma 90
_space_group_name_H-M_alt 'P 1'
_space_group_name_Hall 'P 1'
loop_
    _symmetry_equiv_pos_as_xyz
    x,y,z
loop_
    _atom_site_label
    _atom_site_type_symbol
    _atom_site_fract_x
    _atom_site_fract_y
    _atom_site_fract_z
    _atom_site_occupancy
    Cd1      Cd       0.05883    0.94117    0.75000    1.000
    Cd2      Cd       0.94117    0.05883    0.25000    1.000
    Cd3      Cd       0.55883    0.55883    0.50000    1.000
    Cd4      Cd       0.44117    0.44117    0.00000    1.000
    H1       H        0.14000    0.19750    0.86300    1.000
    H2       H        0.08910    0.29590    0.66440    1.000
    H3       H        0.77600    0.17640    0.90530    1.000
    H4       H        0.76650    0.93400    0.02630    1.000
    H5       H        0.65570    0.23700    0.89280    1.000
    H6       H        0.66170    0.03480    0.03570    1.000
    H7       H        0.20500    0.34580    0.71910    1.000
    H8       H        0.26390    0.21020    0.89470    1.000
    H9       H        0.36040    0.26940    0.95920    1.000
    H10      H        0.38810    0.46260    0.84990    1.000
    H11      H        0.90920    0.26250    0.85010    1.000
    H12      H        0.97270    0.25290    0.89990    1.000
    H13      H        0.28550    0.41310    0.78400    1.000
    H14      H        0.87770    0.95380    0.95910    1.000
    H15      H        0.59840    0.14860    0.06180    1.000
    H16      H        0.99650    0.19910    0.70920    1.000
    H17      H        0.56170    0.34490    0.90940    1.000
    H18      H        0.50530    0.26000    0.07360    1.000
    H19      H        0.86000    0.80250    0.36300    1.000
    H20      H        0.91090    0.70410    0.16440    1.000
    H21      H        0.22400    0.82360    0.40530    1.000
    H22      H        0.23350    0.06600    0.52630    1.000
    H23      H        0.34430    0.76300    0.39280    1.000
    H24      H        0.33830    0.96520    0.53570    1.000
    H25      H        0.79500    0.65420    0.21910    1.000
    H26      H        0.73610    0.78980    0.39470    1.000
    H27      H        0.63960    0.73060    0.45920    1.000
    H28      H        0.61190    0.53740    0.34990    1.000
    H29      H        0.09080    0.73750    0.35010    1.000
    H30      H        0.02730    0.74710    0.39990    1.000
    H31      H        0.71450    0.58690    0.28400    1.000
    H32      H        0.12230    0.04620    0.45910    1.000
    H33      H        0.40160    0.85140    0.56180    1.000
    H34      H        0.00350    0.80090    0.20920    1.000
    H35      H        0.43830    0.65510    0.40940    1.000
    H36      H        0.49470    0.74000    0.57360    1.000
    H37      H        0.30250    0.64000    0.61300    1.000
    H38      H        0.20410    0.58910    0.41440    1.000
    H39      H        0.32360    0.27600    0.65530    1.000
    H40      H        0.56600    0.26650    0.77630    1.000
    H41      H        0.26300    0.15570    0.64280    1.000
    H42      H        0.46520    0.16170    0.78570    1.000
    H43      H        0.15420    0.70500    0.46910    1.000
    H44      H        0.28980    0.76390    0.64470    1.000
    H45      H        0.23060    0.86040    0.70920    1.000
    H46      H        0.03740    0.88810    0.59990    1.000
    H47      H        0.23750    0.40920    0.60010    1.000
    H48      H        0.24710    0.47270    0.64990    1.000
    H49      H        0.08690    0.78550    0.53400    1.000
    H50      H        0.54620    0.37770    0.70910    1.000
    H51      H        0.35140    0.09840    0.81180    1.000
    H52      H        0.30090    0.49650    0.45920    1.000
    H53      H        0.15510    0.06170    0.65940    1.000
    H54      H        0.24000    0.00530    0.82360    1.000
    H55      H        0.69750    0.36000    0.11300    1.000
    H56      H        0.79590    0.41090    0.91440    1.000
    H57      H        0.67640    0.72400    0.15530    1.000
    H58      H        0.43400    0.73350    0.27630    1.000
    H59      H        0.73700    0.84430    0.14280    1.000
    H60      H        0.53480    0.83830    0.28570    1.000
    H61      H        0.84580    0.29500    0.96910    1.000
    H62      H        0.71020    0.23610    0.14470    1.000
    H63      H        0.76940    0.13960    0.20920    1.000
    H64      H        0.96260    0.11190    0.09990    1.000
    H65      H        0.76250    0.59080    0.10010    1.000
    H66      H        0.75290    0.52730    0.14990    1.000
    H67      H        0.91310    0.21450    0.03400    1.000
    H68      H        0.45380    0.62230    0.20910    1.000
    H69      H        0.64860    0.90160    0.31180    1.000
    H70      H        0.69910    0.50350    0.95920    1.000
    H71      H        0.84490    0.93830    0.15940    1.000
    H72      H        0.76000    0.99470    0.32360    1.000
    H73      H        0.36000    0.69750    0.88700    1.000
    H74      H        0.41090    0.79590    0.08560    1.000
    H75      H        0.72400    0.67640    0.84470    1.000
    H76      H        0.73350    0.43400    0.72370    1.000
    H77      H        0.84430    0.73700    0.85720    1.000
    H78      H        0.83830    0.53480    0.71430    1.000
    H79      H        0.29500    0.84580    0.03090    1.000
    H80      H        0.23610    0.71020    0.85530    1.000
    H81      H        0.13960    0.76940    0.79080    1.000
    H82      H        0.11190    0.96260    0.90010    1.000
    H83      H        0.59080    0.76250    0.89990    1.000
    H84      H        0.52730    0.75290    0.85010    1.000
    H85      H        0.21450    0.91310    0.96600    1.000
    H86      H        0.62230    0.45380    0.79090    1.000
    H87      H        0.90160    0.64860    0.68820    1.000
    H88      H        0.50350    0.69910    0.04080    1.000
    H89      H        0.93830    0.84490    0.84060    1.000
    H90      H        0.99470    0.76000    0.67640    1.000
    H91      H        0.64000    0.30250    0.38700    1.000
    H92      H        0.58910    0.20410    0.58560    1.000
    H93      H        0.27600    0.32360    0.34470    1.000
    H94      H        0.26650    0.56600    0.22370    1.000
    H95      H        0.15570    0.26300    0.35720    1.000
    H96      H        0.16170    0.46520    0.21430    1.000
    H97      H        0.70500    0.15420    0.53090    1.000
    H98      H        0.76390    0.28980    0.35530    1.000
    H99      H        0.86040    0.23060    0.29080    1.000
    H100     H        0.88810    0.03740    0.40010    1.000
    H101     H        0.40920    0.23750    0.39990    1.000
    H102     H        0.47270    0.24710    0.35010    1.000
    H103     H        0.78550    0.08690    0.46600    1.000
    H104     H        0.37770    0.54620    0.29090    1.000
    H105     H        0.09840    0.35140    0.18820    1.000
    H106     H        0.49650    0.30090    0.54080    1.000
    H107     H        0.06170    0.15510    0.34060    1.000
    H108     H        0.00530    0.24000    0.17640    1.000
    H109     H        0.19750    0.14000    0.13700    1.000
    H110     H        0.29590    0.08910    0.33560    1.000
    H111     H        0.17640    0.77600    0.09470    1.000
    H112     H        0.93400    0.76650    0.97370    1.000
    H113     H        0.23700    0.65570    0.10720    1.000
    H114     H        0.03480    0.66170    0.96430    1.000
    H115     H        0.34580    0.20500    0.28090    1.000
    H116     H        0.21020    0.26390    0.10530    1.000
    H117     H        0.26940    0.36040    0.04080    1.000
    H118     H        0.46260    0.38810    0.15010    1.000
    H119     H        0.26250    0.90920    0.14990    1.000
    H120     H        0.25290    0.97270    0.10010    1.000
    H121     H        0.41310    0.28550    0.21600    1.000
    H122     H        0.95380    0.87770    0.04090    1.000
    H123     H        0.14860    0.59840    0.93820    1.000
    H124     H        0.19910    0.99650    0.29080    1.000
    H125     H        0.34490    0.56170    0.09060    1.000
    H126     H        0.26000    0.50530    0.92640    1.000
    H127     H        0.80250    0.86000    0.63700    1.000
    H128     H        0.70410    0.91090    0.83560    1.000
    H129     H        0.82360    0.22400    0.59470    1.000
    H130     H        0.06600    0.23350    0.47370    1.000
    H131     H        0.76300    0.34430    0.60720    1.000
    H132     H        0.96520    0.33830    0.46430    1.000
    H133     H        0.65420    0.79500    0.78090    1.000
    H134     H        0.78980    0.73610    0.60530    1.000
    H135     H        0.73060    0.63960    0.54080    1.000
    H136     H        0.53740    0.61190    0.65010    1.000
    H137     H        0.73750    0.09080    0.64990    1.000
    H138     H        0.74710    0.02730    0.60010    1.000
    H139     H        0.58690    0.71450    0.71600    1.000
    H140     H        0.04620    0.12230    0.54090    1.000
    H141     H        0.85140    0.40160    0.43820    1.000
    H142     H        0.80090    0.00350    0.79080    1.000
    H143     H        0.65510    0.43830    0.59060    1.000
    H144     H        0.74000    0.49470    0.42640    1.000
    C1       C        0.83860    0.06720    0.92570    1.000
    C2       C        0.90780    0.07490    0.88190    1.000
    C3       C        0.00530    0.12630    0.82000    1.000
    C4       C        0.12950    0.21790    0.82250    1.000
    C5       C        0.09920    0.27620    0.70500    1.000
    C6       C        0.77430    0.12730    0.93030    1.000
    C7       C        0.76890    0.98360    0.00200    1.000
    C8       C        0.62670    0.24070    0.93100    1.000
    C9       C        0.64180    0.18130    0.97760    1.000
    C10      C        0.70640    0.04320    0.00720    1.000
    C11      C        0.16810    0.30600    0.73750    1.000
    C12      C        0.18340    0.27730    0.79760    1.000
    C13      C        0.28530    0.26470    0.88590    1.000
    C14      C        0.34400    0.29980    0.92340    1.000
    C15      C        0.35930    0.41230    0.86060    1.000
    C16      C        0.25630    0.30820    0.83460    1.000
    C17      C        0.29850    0.38290    0.82060    1.000
    C18      C        0.70810    0.11520    0.97120    1.000
    C19      C        0.83470    0.99510    0.96200    1.000
    C20      C        0.59320    0.18900    0.02980    1.000
    C21      C        0.06110    0.18730    0.79030    1.000
    C22      C        0.04460    0.21790    0.73130    1.000
    C23      C        0.56940    0.30440    0.94100    1.000
    C24      C        0.53640    0.25550    0.03640    1.000
    C25      C        0.16140    0.93280    0.42570    1.000
    C26      C        0.09220    0.92510    0.38190    1.000
    C27      C        0.99470    0.87370    0.32000    1.000
    C28      C        0.87050    0.78210    0.32250    1.000
    C29      C        0.90080    0.72380    0.20500    1.000
    C30      C        0.22570    0.87270    0.43030    1.000
    C31      C        0.23110    0.01640    0.50200    1.000
    C32      C        0.37330    0.75930    0.43100    1.000
    C33      C        0.35820    0.81870    0.47760    1.000
    C34      C        0.29360    0.95680    0.50720    1.000
    C35      C        0.83190    0.69400    0.23750    1.000
    C36      C        0.81660    0.72270    0.29760    1.000
    C37      C        0.71470    0.73530    0.38590    1.000
    C38      C        0.65600    0.70020    0.42340    1.000
    C39      C        0.64070    0.58770    0.36060    1.000
    C40      C        0.74370    0.69180    0.33460    1.000
    C41      C        0.70150    0.61710    0.32060    1.000
    C42      C        0.29190    0.88480    0.47120    1.000
    C43      C        0.16530    0.00490    0.46200    1.000
    C44      C        0.40680    0.81100    0.52980    1.000
    C45      C        0.93890    0.81270    0.29030    1.000
    C46      C        0.95540    0.78210    0.23130    1.000
    C47      C        0.43060    0.69560    0.44100    1.000
    C48      C        0.46360    0.74450    0.53640    1.000
    C49      C        0.43280    0.33860    0.67570    1.000
    C50      C        0.42510    0.40780    0.63190    1.000
    C51      C        0.37370    0.50530    0.57000    1.000
    C52      C        0.28210    0.62950    0.57250    1.000
    C53      C        0.22380    0.59920    0.45500    1.000
    C54      C        0.37270    0.27430    0.68030    1.000
    C55      C        0.51640    0.26890    0.75200    1.000
    C56      C        0.25930    0.12670    0.68100    1.000
    C57      C        0.31870    0.14180    0.72760    1.000
    C58      C        0.45680    0.20640    0.75720    1.000
    C59      C        0.19400    0.66810    0.48750    1.000
    C60      C        0.22270    0.68340    0.54760    1.000
    C61      C        0.23530    0.78530    0.63590    1.000
    C62      C        0.20020    0.84400    0.67340    1.000
    C63      C        0.08770    0.85930    0.61060    1.000
    C64      C        0.19180    0.75630    0.58460    1.000
    C65      C        0.11710    0.79850    0.57060    1.000
    C66      C        0.38480    0.20810    0.72120    1.000
    C67      C        0.50490    0.33470    0.71200    1.000
    C68      C        0.31100    0.09320    0.77980    1.000
    C69      C        0.31270    0.56110    0.54030    1.000
    C70      C        0.28210    0.54460    0.48130    1.000
    C71      C        0.19560    0.06940    0.69100    1.000
    C72      C        0.24450    0.03640    0.78640    1.000
    C73      C        0.56720    0.66140    0.17570    1.000
    C74      C        0.57490    0.59220    0.13190    1.000
    C75      C        0.62630    0.49470    0.07000    1.000
    C76      C        0.71790    0.37050    0.07250    1.000
    C77      C        0.77620    0.40080    0.95500    1.000
    C78      C        0.62730    0.72570    0.18030    1.000
    C79      C        0.48360    0.73110    0.25200    1.000
    C80      C        0.74070    0.87330    0.18100    1.000
    C81      C        0.68130    0.85820    0.22760    1.000
    C82      C        0.54320    0.79360    0.25720    1.000
    C83      C        0.80600    0.33190    0.98750    1.000
    C84      C        0.77730    0.31660    0.04760    1.000
    C85      C        0.76470    0.21470    0.13590    1.000
    C86      C        0.79980    0.15600    0.17340    1.000
    C87      C        0.91230    0.14070    0.11060    1.000
    C88      C        0.80820    0.24370    0.08460    1.000
    C89      C        0.88290    0.20150    0.07060    1.000
    C90      C        0.61520    0.79190    0.22120    1.000
    C91      C        0.49510    0.66530    0.21200    1.000
    C92      C        0.68900    0.90680    0.27980    1.000
    C93      C        0.68730    0.43890    0.04030    1.000
    C94      C        0.71790    0.45540    0.98130    1.000
    C95      C        0.80440    0.93060    0.19100    1.000
    C96      C        0.75550    0.96360    0.28640    1.000
    C97      C        0.66140    0.56720    0.82430    1.000
    C98      C        0.59220    0.57490    0.86810    1.000
    C99      C        0.49470    0.62630    0.93000    1.000
    C100     C        0.37050    0.71790    0.92750    1.000
    C101     C        0.40080    0.77620    0.04500    1.000
    C102     C        0.72570    0.62730    0.81970    1.000
    C103     C        0.73110    0.48360    0.74800    1.000
    C104     C        0.87330    0.74070    0.81900    1.000
    C105     C        0.85820    0.68130    0.77240    1.000
    C106     C        0.79360    0.54320    0.74280    1.000
    C107     C        0.33190    0.80600    0.01250    1.000
    C108     C        0.31660    0.77730    0.95240    1.000
    C109     C        0.21470    0.76470    0.86410    1.000
    C110     C        0.15600    0.79980    0.82660    1.000
    C111     C        0.14070    0.91230    0.88940    1.000
    C112     C        0.24370    0.80820    0.91540    1.000
    C113     C        0.20150    0.88290    0.92940    1.000
    C114     C        0.79190    0.61520    0.77880    1.000
    C115     C        0.66530    0.49510    0.78800    1.000
    C116     C        0.90680    0.68900    0.72020    1.000
    C117     C        0.43890    0.68730    0.95970    1.000
    C118     C        0.45540    0.71790    0.01870    1.000
    C119     C        0.93060    0.80440    0.80900    1.000
    C120     C        0.96360    0.75550    0.71360    1.000
    C121     C        0.33860    0.43280    0.32430    1.000
    C122     C        0.40780    0.42510    0.36810    1.000
    C123     C        0.50530    0.37370    0.43000    1.000
    C124     C        0.62950    0.28210    0.42750    1.000
    C125     C        0.59920    0.22380    0.54500    1.000
    C126     C        0.27430    0.37270    0.31970    1.000
    C127     C        0.26890    0.51640    0.24800    1.000
    C128     C        0.12670    0.25930    0.31900    1.000
    C129     C        0.14180    0.31870    0.27240    1.000
    C130     C        0.20640    0.45680    0.24280    1.000
    C131     C        0.66810    0.19400    0.51250    1.000
    C132     C        0.68340    0.22270    0.45240    1.000
    C133     C        0.78530    0.23530    0.36410    1.000
    C134     C        0.84400    0.20020    0.32660    1.000
    C135     C        0.85930    0.08770    0.38940    1.000
    C136     C        0.75630    0.19180    0.41540    1.000
    C137     C        0.79850    0.11710    0.42940    1.000
    C138     C        0.20810    0.38480    0.27880    1.000
    C139     C        0.33470    0.50490    0.28800    1.000
    C140     C        0.09320    0.31100    0.22020    1.000
    C141     C        0.56110    0.31270    0.45970    1.000
    C142     C        0.54460    0.28210    0.51870    1.000
    C143     C        0.06940    0.19560    0.30900    1.000
    C144     C        0.03640    0.24450    0.21360    1.000
    C145     C        0.06720    0.83860    0.07430    1.000
    C146     C        0.07490    0.90780    0.11810    1.000
    C147     C        0.12630    0.00530    0.18000    1.000
    C148     C        0.21790    0.12950    0.17750    1.000
    C149     C        0.27620    0.09920    0.29500    1.000
    C150     C        0.12730    0.77430    0.06970    1.000
    C151     C        0.98360    0.76890    0.99800    1.000
    C152     C        0.24070    0.62670    0.06900    1.000
    C153     C        0.18130    0.64180    0.02240    1.000
    C154     C        0.04320    0.70640    0.99280    1.000
    C155     C        0.30600    0.16810    0.26250    1.000
    C156     C        0.27730    0.18340    0.20240    1.000
    C157     C        0.26470    0.28530    0.11410    1.000
    C158     C        0.29980    0.34400    0.07660    1.000
    C159     C        0.41230    0.35930    0.13940    1.000
    C160     C        0.30820    0.25630    0.16540    1.000
    C161     C        0.38290    0.29850    0.17940    1.000
    C162     C        0.11520    0.70810    0.02880    1.000
    C163     C        0.99510    0.83470    0.03800    1.000
    C164     C        0.18900    0.59320    0.97020    1.000
    C165     C        0.18730    0.06110    0.20970    1.000
    C166     C        0.21790    0.04460    0.26870    1.000
    C167     C        0.30440    0.56940    0.05900    1.000
    C168     C        0.25550    0.53640    0.96360    1.000
    C169     C        0.93280    0.16140    0.57430    1.000
    C170     C        0.92510    0.09220    0.61810    1.000
    C171     C        0.87370    0.99470    0.68000    1.000
    C172     C        0.78210    0.87050    0.67750    1.000
    C173     C        0.72380    0.90080    0.79500    1.000
    C174     C        0.87270    0.22570    0.56970    1.000
    C175     C        0.01640    0.23110    0.49800    1.000
    C176     C        0.75930    0.37330    0.56900    1.000
    C177     C        0.81870    0.35820    0.52240    1.000
    C178     C        0.95680    0.29360    0.49280    1.000
    C179     C        0.69400    0.83190    0.76250    1.000
    C180     C        0.72270    0.81660    0.70240    1.000
    C181     C        0.73530    0.71470    0.61410    1.000
    C182     C        0.70020    0.65600    0.57660    1.000
    C183     C        0.58770    0.64070    0.63940    1.000
    C184     C        0.69180    0.74370    0.66540    1.000
    C185     C        0.61710    0.70150    0.67940    1.000
    C186     C        0.88480    0.29190    0.52880    1.000
    C187     C        0.00490    0.16530    0.53800    1.000
    C188     C        0.81100    0.40680    0.47020    1.000
    C189     C        0.81270    0.93890    0.70970    1.000
    C190     C        0.78210    0.95540    0.76870    1.000
    C191     C        0.69560    0.43060    0.55900    1.000
    C192     C        0.74450    0.46360    0.46360    1.000
    N1       N        0.94500    0.14870    0.86120    1.000
    N2       N        0.38020    0.37470    0.91310    1.000
    N3       N        0.94520    0.01200    0.85480    1.000
    N4       N        0.00630    0.04410    0.81680    1.000
    N5       N        0.52430    0.31270    0.99250    1.000
    N6       N        0.92590    0.23000    0.88240    1.000
    N7       N        0.05500    0.85130    0.36120    1.000
    N8       N        0.61980    0.62530    0.41310    1.000
    N9       N        0.05480    0.98800    0.35480    1.000
    N10      N        0.99370    0.95590    0.31680    1.000
    N11      N        0.47570    0.68730    0.49250    1.000
    N12      N        0.07410    0.77000    0.38240    1.000
    N13      N        0.35130    0.44500    0.61120    1.000
    N14      N        0.12530    0.88020    0.66310    1.000
    N15      N        0.48800    0.44520    0.60480    1.000
    N16      N        0.45590    0.50630    0.56680    1.000
    N17      N        0.18730    0.02430    0.74250    1.000
    N18      N        0.27000    0.42590    0.63240    1.000
    N19      N        0.64870    0.55500    0.11120    1.000
    N20      N        0.87470    0.11980    0.16310    1.000
    N21      N        0.51200    0.55480    0.10480    1.000
    N22      N        0.54410    0.49370    0.06680    1.000
    N23      N        0.81270    0.97570    0.24250    1.000
    N24      N        0.73000    0.57410    0.13240    1.000
    N25      N        0.55500    0.64870    0.88880    1.000
    N26      N        0.11980    0.87470    0.83690    1.000
    N27      N        0.55480    0.51200    0.89520    1.000
    N28      N        0.49370    0.54410    0.93320    1.000
    N29      N        0.97570    0.81270    0.75750    1.000
    N30      N        0.57410    0.73000    0.86760    1.000
    N31      N        0.44500    0.35130    0.38880    1.000
    N32      N        0.88020    0.12530    0.33690    1.000
    N33      N        0.44520    0.48800    0.39520    1.000
    N34      N        0.50630    0.45590    0.43320    1.000
    N35      N        0.02430    0.18730    0.25750    1.000
    N36      N        0.42590    0.27000    0.36760    1.000
    N37      N        0.14870    0.94500    0.13880    1.000
    N38      N        0.37470    0.38020    0.08690    1.000
    N39      N        0.01200    0.94520    0.14520    1.000
    N40      N        0.04410    0.00630    0.18320    1.000
    N41      N        0.31270    0.52430    0.00750    1.000
    N42      N        0.23000    0.92590    0.11760    1.000
    N43      N        0.85130    0.05500    0.63880    1.000
    N44      N        0.62530    0.61980    0.58690    1.000
    N45      N        0.98800    0.05480    0.64520    1.000
    N46      N        0.95590    0.99370    0.68320    1.000
    N47      N        0.68730    0.47570    0.50750    1.000
    N48      N        0.77000    0.07410    0.61760    1.000
    Cl1      Cl       0.12098    0.12098    0.00000    1.000
    O1       O        0.05940    0.13420    0.96500    1.000
    O2       O        0.17730    0.11020    0.95510    1.000
    O3       O        0.13420    0.05940    0.03500    1.000
    O4       O        0.11020    0.17730    0.04490    1.000
    Cl2      Cl       0.87902    0.87902    0.50000    1.000
    O5       O        0.94060    0.86580    0.46500    1.000
    O6       O        0.82270    0.88980    0.45510    1.000
    O7       O        0.86580    0.94060    0.53500    1.000
    O8       O        0.88980    0.82270    0.54490    1.000
    Cl3      Cl       0.37902    0.62098    0.75000    1.000
    O9       O        0.36580    0.55940    0.71500    1.000
    O10      O        0.38980    0.67730    0.70510    1.000
    O11      O        0.44060    0.63420    0.78500    1.000
    O12      O        0.32270    0.61020    0.79490    1.000
    Cl4      Cl       0.62098    0.37902    0.25000    1.000
    O13      O        0.63420    0.44060    0.21500    1.000
    O14      O        0.61020    0.32270    0.20510    1.000
    O15      O        0.55940    0.36580    0.28500    1.000
    O16      O        0.67730    0.38980    0.29490    1.000
