# CIF file generated by openbabel 3.1.0, see https://openbabel.org
data_I
_chemical_name_common 'image0'
_cell_length_a 32.485
_cell_length_b 29.089
_cell_length_c 17.629
_cell_angle_alpha 90
_cell_angle_beta 104.347
_cell_angle_gamma 90
_space_group_name_H-M_alt 'P 1'
_space_group_name_Hall 'P 1'
loop_
    _symmetry_equiv_pos_as_xyz
    x,y,z
loop_
    _atom_site_label
    _atom_site_type_symbol
    _atom_site_fract_x
    _atom_site_fract_y
    _atom_site_fract_z
    _atom_site_occupancy
    Yb1      Yb       0.01464    0.22814    0.54257    1.000
    O1       O        0.03580    0.20750    0.66440    1.000
    O2       O        0.04629    0.24657    0.77300    1.000
    O3       O        0.46409    0.18190    0.13040    1.000
    O4       O        0.45290    0.23490    0.03810    1.000
    O5       O        0.08130    0.77680    0.01670    1.000
    O6       O        0.04720    0.83990    0.01390    1.000
    O7       O        0.45490    0.79310    0.91740    1.000
    O8       O        0.44548    0.82970    0.80180    1.000
    C1       C        0.24540    0.04130    0.89720    1.000
    C2       C        0.20780    0.06330    0.86130    1.000
    H1       H        0.18380    0.04730    0.83450    1.000
    C3       C        0.20840    0.11370    0.86840    1.000
    C4       C        0.24440    0.13660    0.90190    1.000
    H2       H        0.24410    0.16850    0.90210    1.000
    C5       C        0.28170    0.11390    0.93570    1.000
    C6       C        0.28190    0.06590    0.93290    1.000
    H3       H        0.30680    0.05010    0.95540    1.000
    C7       C        0.16730    0.13850    0.82930    1.000
    C8       C        0.15520    0.17530    0.86900    1.000
    H4       H        0.17230    0.18360    0.91760    1.000
    C9       C        0.11900    0.19950    0.83920    1.000
    H5       H        0.11130    0.22390    0.86700    1.000
    C10      C        0.09410    0.18740    0.76770    1.000
    C11      C        0.10410    0.15080    0.72460    1.000
    H6       H        0.08670    0.14320    0.67590    1.000
    C12      C        0.14130    0.12580    0.75740    1.000
    H7       H        0.14850    0.10070    0.73080    1.000
    C13      C        0.05560    0.21710    0.73720    1.000
    C14      C        0.32210    0.14050    0.97160    1.000
    C15      C        0.34960    0.12070    0.03730    1.000
    H8       H        0.34230    0.09360    0.05870    1.000
    C16      C        0.38710    0.14180    0.06920    1.000
    H9       H        0.40500    0.12930    0.11390    1.000
    C17      C        0.39900    0.17960    0.03840    1.000
    C18      C        0.37130    0.20050    0.96950    1.000
    H10      H        0.37890    0.22720    0.94750    1.000
    C19      C        0.33250    0.17790    0.93800    1.000
    H11      H        0.31400    0.18950    0.89310    1.000
    C20      C        0.44100    0.20220    0.06790    1.000
    C21      C        0.24760    0.99050    0.90310    1.000
    C22      C        0.28370    0.96600    0.89430    1.000
    H12      H        0.30550    0.98210    0.88080    1.000
    C23      C        0.28760    0.91930    0.90500    1.000
    C24      C        0.25330    0.89500    0.92210    1.000
    H13      H        0.25490    0.86320    0.92740    1.000
    C25      C        0.21780    0.91760    0.93110    1.000
    C26      C        0.21480    0.96560    0.92310    1.000
    H14      H        0.19110    0.98090    0.93110    1.000
    C27      C        0.18250    0.89160    0.95070    1.000
    C28      C        0.17450    0.84850    0.92750    1.000
    H15      H        0.19060    0.83480    0.89690    1.000
    C29      C        0.14250    0.82310    0.94790    1.000
    H16      H        0.13870    0.79210    0.93530    1.000
    C30      C        0.12450    0.88990    0.00910    1.000
    H17      H        0.10700    0.90450    0.03610    1.000
    C31      C        0.15710    0.91490    0.99340    1.000
    H18      H        0.16220    0.94520    0.00970    1.000
    C32      C        0.11590    0.84590    0.98840    1.000
    C33      C        0.07950    0.81910    0.00600    1.000
    C34      C        0.32530    0.89510    0.89430    1.000
    C35      C        0.34140    0.85600    0.93820    1.000
    H19      H        0.32690    0.84550    0.97430    1.000
    C36      C        0.37680    0.83190    0.93190    1.000
    H20      H        0.38680    0.80700    0.96410    1.000
    C37      C        0.39790    0.84700    0.87330    1.000
    C38      C        0.38140    0.88450    0.82860    1.000
    H21      H        0.39420    0.89420    0.78960    1.000
    C39      C        0.34670    0.90820    0.83960    1.000
    H22      H        0.33730    0.93390    0.80890    1.000
    C40      C        0.43580    0.82170    0.86300    1.000
    C41      C        0.18690    0.84990    0.98760    1.000
    H23      H        0.21330    0.83580    0.99680    1.000
    C42      C        0.15500    0.82690    0.01240    1.000
    H24      H        0.16020    0.80050    0.04310    1.000
    C43      C        0.10890    0.88880    0.95320    1.000
    H25      H        0.08430    0.90520    0.95280    1.000
    C44      C        0.13850    0.90630    0.91950    1.000
    H26      H        0.13130    0.92690    0.87800    1.000
    Yb2      Yb       0.51464    0.72814    0.54257    1.000
    O9       O        0.53580    0.70750    0.66440    1.000
    O10      O        0.54629    0.74657    0.77300    1.000
    O11      O        0.96409    0.68190    0.13040    1.000
    O12      O        0.95290    0.73490    0.03810    1.000
    O13      O        0.58130    0.27680    0.01670    1.000
    O14      O        0.54720    0.33990    0.01390    1.000
    O15      O        0.95490    0.29310    0.91740    1.000
    O16      O        0.94548    0.32970    0.80180    1.000
    C45      C        0.74540    0.54130    0.89720    1.000
    C46      C        0.70780    0.56330    0.86130    1.000
    H27      H        0.68380    0.54730    0.83450    1.000
    C47      C        0.70840    0.61370    0.86840    1.000
    C48      C        0.74440    0.63660    0.90190    1.000
    H28      H        0.74410    0.66850    0.90210    1.000
    C49      C        0.78170    0.61390    0.93570    1.000
    C50      C        0.78190    0.56590    0.93290    1.000
    H29      H        0.80680    0.55010    0.95540    1.000
    C51      C        0.66730    0.63850    0.82930    1.000
    C52      C        0.65520    0.67530    0.86900    1.000
    H30      H        0.67230    0.68360    0.91760    1.000
    C53      C        0.61900    0.69950    0.83920    1.000
    H31      H        0.61130    0.72390    0.86700    1.000
    C54      C        0.59410    0.68740    0.76770    1.000
    C55      C        0.60410    0.65080    0.72460    1.000
    H32      H        0.58670    0.64320    0.67590    1.000
    C56      C        0.64130    0.62580    0.75740    1.000
    H33      H        0.64850    0.60070    0.73080    1.000
    C57      C        0.55560    0.71710    0.73720    1.000
    C58      C        0.82210    0.64050    0.97160    1.000
    C59      C        0.84960    0.62070    0.03730    1.000
    H34      H        0.84230    0.59360    0.05870    1.000
    C60      C        0.88710    0.64180    0.06920    1.000
    H35      H        0.90500    0.62930    0.11390    1.000
    C61      C        0.89900    0.67960    0.03840    1.000
    C62      C        0.87130    0.70050    0.96950    1.000
    H36      H        0.87890    0.72720    0.94750    1.000
    C63      C        0.83250    0.67790    0.93800    1.000
    H37      H        0.81400    0.68950    0.89310    1.000
    C64      C        0.94100    0.70220    0.06790    1.000
    C65      C        0.74760    0.49050    0.90310    1.000
    C66      C        0.78370    0.46600    0.89430    1.000
    H38      H        0.80550    0.48210    0.88080    1.000
    C67      C        0.78760    0.41930    0.90500    1.000
    C68      C        0.75330    0.39500    0.92210    1.000
    H39      H        0.75490    0.36320    0.92740    1.000
    C69      C        0.71780    0.41760    0.93110    1.000
    C70      C        0.71480    0.46560    0.92310    1.000
    H40      H        0.69110    0.48090    0.93110    1.000
    C71      C        0.68250    0.39160    0.95070    1.000
    C72      C        0.67450    0.34850    0.92750    1.000
    H41      H        0.69060    0.33480    0.89690    1.000
    C73      C        0.64250    0.32310    0.94790    1.000
    H42      H        0.63870    0.29210    0.93530    1.000
    C74      C        0.62450    0.38990    0.00910    1.000
    H43      H        0.60700    0.40450    0.03610    1.000
    C75      C        0.65710    0.41490    0.99340    1.000
    H44      H        0.66220    0.44520    0.00970    1.000
    C76      C        0.61590    0.34590    0.98840    1.000
    C77      C        0.57950    0.31910    0.00600    1.000
    C78      C        0.82530    0.39510    0.89430    1.000
    C79      C        0.84140    0.35600    0.93820    1.000
    H45      H        0.82690    0.34550    0.97430    1.000
    C80      C        0.87680    0.33190    0.93190    1.000
    H46      H        0.88680    0.30700    0.96410    1.000
    C81      C        0.89790    0.34700    0.87330    1.000
    C82      C        0.88140    0.38450    0.82860    1.000
    H47      H        0.89420    0.39420    0.78960    1.000
    C83      C        0.84670    0.40820    0.83960    1.000
    H48      H        0.83730    0.43390    0.80890    1.000
    C84      C        0.93580    0.32170    0.86300    1.000
    C85      C        0.68690    0.34990    0.98760    1.000
    H49      H        0.71330    0.33580    0.99680    1.000
    C86      C        0.65500    0.32690    0.01240    1.000
    H50      H        0.66020    0.30050    0.04310    1.000
    C87      C        0.60890    0.38880    0.95320    1.000
    H51      H        0.58430    0.40520    0.95280    1.000
    C88      C        0.63850    0.40630    0.91950    1.000
    H52      H        0.63130    0.42690    0.87800    1.000
    Yb3      Yb       0.98536    0.22814    0.95743    1.000
    O17      O        0.96420    0.20750    0.83560    1.000
    O18      O        0.95371    0.24657    0.72700    1.000
    O19      O        0.53591    0.18190    0.36960    1.000
    O20      O        0.54710    0.23490    0.46190    1.000
    O21      O        0.91870    0.77680    0.48330    1.000
    O22      O        0.95280    0.83990    0.48610    1.000
    O23      O        0.54510    0.79310    0.58260    1.000
    O24      O        0.55452    0.82970    0.69820    1.000
    C89      C        0.75460    0.04130    0.60280    1.000
    C90      C        0.79220    0.06330    0.63870    1.000
    H53      H        0.81620    0.04730    0.66550    1.000
    C91      C        0.79160    0.11370    0.63160    1.000
    C92      C        0.75560    0.13660    0.59810    1.000
    H54      H        0.75590    0.16850    0.59790    1.000
    C93      C        0.71830    0.11390    0.56430    1.000
    C94      C        0.71810    0.06590    0.56710    1.000
    H55      H        0.69320    0.05010    0.54460    1.000
    C95      C        0.83270    0.13850    0.67070    1.000
    C96      C        0.84480    0.17530    0.63100    1.000
    H56      H        0.82770    0.18360    0.58240    1.000
    C97      C        0.88100    0.19950    0.66080    1.000
    H57      H        0.88870    0.22390    0.63300    1.000
    C98      C        0.90590    0.18740    0.73230    1.000
    C99      C        0.89590    0.15080    0.77540    1.000
    H58      H        0.91330    0.14320    0.82410    1.000
    C100     C        0.85870    0.12580    0.74260    1.000
    H59      H        0.85150    0.10070    0.76920    1.000
    C101     C        0.94440    0.21710    0.76280    1.000
    C102     C        0.67790    0.14050    0.52840    1.000
    C103     C        0.65040    0.12070    0.46270    1.000
    H60      H        0.65770    0.09360    0.44130    1.000
    C104     C        0.61290    0.14180    0.43080    1.000
    H61      H        0.59500    0.12930    0.38610    1.000
    C105     C        0.60100    0.17960    0.46160    1.000
    C106     C        0.62870    0.20050    0.53050    1.000
    H62      H        0.62110    0.22720    0.55250    1.000
    C107     C        0.66750    0.17790    0.56200    1.000
    H63      H        0.68600    0.18950    0.60690    1.000
    C108     C        0.55900    0.20220    0.43210    1.000
    C109     C        0.75240    0.99050    0.59690    1.000
    C110     C        0.71630    0.96600    0.60570    1.000
    H64      H        0.69450    0.98210    0.61920    1.000
    C111     C        0.71240    0.91930    0.59500    1.000
    C112     C        0.74670    0.89500    0.57790    1.000
    H65      H        0.74510    0.86320    0.57260    1.000
    C113     C        0.78220    0.91760    0.56890    1.000
    C114     C        0.78520    0.96560    0.57690    1.000
    H66      H        0.80890    0.98090    0.56890    1.000
    C115     C        0.81750    0.89160    0.54930    1.000
    C116     C        0.82550    0.84850    0.57250    1.000
    H67      H        0.80940    0.83480    0.60310    1.000
    C117     C        0.85750    0.82310    0.55210    1.000
    H68      H        0.86130    0.79210    0.56470    1.000
    C118     C        0.87550    0.88990    0.49090    1.000
    H69      H        0.89300    0.90450    0.46390    1.000
    C119     C        0.84290    0.91490    0.50660    1.000
    H70      H        0.83780    0.94520    0.49030    1.000
    C120     C        0.88410    0.84590    0.51160    1.000
    C121     C        0.92050    0.81910    0.49400    1.000
    C122     C        0.67470    0.89510    0.60570    1.000
    C123     C        0.65860    0.85600    0.56180    1.000
    H71      H        0.67310    0.84550    0.52570    1.000
    C124     C        0.62320    0.83190    0.56810    1.000
    H72      H        0.61320    0.80700    0.53590    1.000
    C125     C        0.60210    0.84700    0.62670    1.000
    C126     C        0.61860    0.88450    0.67140    1.000
    H73      H        0.60580    0.89420    0.71040    1.000
    C127     C        0.65330    0.90820    0.66040    1.000
    H74      H        0.66270    0.93390    0.69110    1.000
    C128     C        0.56420    0.82170    0.63700    1.000
    C129     C        0.81310    0.84990    0.51240    1.000
    H75      H        0.78670    0.83580    0.50320    1.000
    C130     C        0.84500    0.82690    0.48760    1.000
    H76      H        0.83980    0.80050    0.45690    1.000
    C131     C        0.89110    0.88880    0.54680    1.000
    H77      H        0.91570    0.90520    0.54720    1.000
    C132     C        0.86150    0.90630    0.58050    1.000
    H78      H        0.86870    0.92690    0.62200    1.000
    Yb4      Yb       0.48536    0.72814    0.95743    1.000
    O25      O        0.46420    0.70750    0.83560    1.000
    O26      O        0.45371    0.74657    0.72700    1.000
    O27      O        0.03591    0.68190    0.36960    1.000
    O28      O        0.04710    0.73490    0.46190    1.000
    O29      O        0.41870    0.27680    0.48330    1.000
    O30      O        0.45280    0.33990    0.48610    1.000
    O31      O        0.04510    0.29310    0.58260    1.000
    O32      O        0.05452    0.32970    0.69820    1.000
    C133     C        0.25460    0.54130    0.60280    1.000
    C134     C        0.29220    0.56330    0.63870    1.000
    H79      H        0.31620    0.54730    0.66550    1.000
    C135     C        0.29160    0.61370    0.63160    1.000
    C136     C        0.25560    0.63660    0.59810    1.000
    H80      H        0.25590    0.66850    0.59790    1.000
    C137     C        0.21830    0.61390    0.56430    1.000
    C138     C        0.21810    0.56590    0.56710    1.000
    H81      H        0.19320    0.55010    0.54460    1.000
    C139     C        0.33270    0.63850    0.67070    1.000
    C140     C        0.34480    0.67530    0.63100    1.000
    H82      H        0.32770    0.68360    0.58240    1.000
    C141     C        0.38100    0.69950    0.66080    1.000
    H83      H        0.38870    0.72390    0.63300    1.000
    C142     C        0.40590    0.68740    0.73230    1.000
    C143     C        0.39590    0.65080    0.77540    1.000
    H84      H        0.41330    0.64320    0.82410    1.000
    C144     C        0.35870    0.62580    0.74260    1.000
    H85      H        0.35150    0.60070    0.76920    1.000
    C145     C        0.44440    0.71710    0.76280    1.000
    C146     C        0.17790    0.64050    0.52840    1.000
    C147     C        0.15040    0.62070    0.46270    1.000
    H86      H        0.15770    0.59360    0.44130    1.000
    C148     C        0.11290    0.64180    0.43080    1.000
    H87      H        0.09500    0.62930    0.38610    1.000
    C149     C        0.10100    0.67960    0.46160    1.000
    C150     C        0.12870    0.70050    0.53050    1.000
    H88      H        0.12110    0.72720    0.55250    1.000
    C151     C        0.16750    0.67790    0.56200    1.000
    H89      H        0.18600    0.68950    0.60690    1.000
    C152     C        0.05900    0.70220    0.43210    1.000
    C153     C        0.25240    0.49050    0.59690    1.000
    C154     C        0.21630    0.46600    0.60570    1.000
    H90      H        0.19450    0.48210    0.61920    1.000
    C155     C        0.21240    0.41930    0.59500    1.000
    C156     C        0.24670    0.39500    0.57790    1.000
    H91      H        0.24510    0.36320    0.57260    1.000
    C157     C        0.28220    0.41760    0.56890    1.000
    C158     C        0.28520    0.46560    0.57690    1.000
    H92      H        0.30890    0.48090    0.56890    1.000
    C159     C        0.31750    0.39160    0.54930    1.000
    C160     C        0.32550    0.34850    0.57250    1.000
    H93      H        0.30940    0.33480    0.60310    1.000
    C161     C        0.35750    0.32310    0.55210    1.000
    H94      H        0.36130    0.29210    0.56470    1.000
    C162     C        0.37550    0.38990    0.49090    1.000
    H95      H        0.39300    0.40450    0.46390    1.000
    C163     C        0.34290    0.41490    0.50660    1.000
    H96      H        0.33780    0.44520    0.49030    1.000
    C164     C        0.38410    0.34590    0.51160    1.000
    C165     C        0.42050    0.31910    0.49400    1.000
    C166     C        0.17470    0.39510    0.60570    1.000
    C167     C        0.15860    0.35600    0.56180    1.000
    H97      H        0.17310    0.34550    0.52570    1.000
    C168     C        0.12320    0.33190    0.56810    1.000
    H98      H        0.11320    0.30700    0.53590    1.000
    C169     C        0.10210    0.34700    0.62670    1.000
    C170     C        0.11860    0.38450    0.67140    1.000
    H99      H        0.10580    0.39420    0.71040    1.000
    C171     C        0.15330    0.40820    0.66040    1.000
    H100     H        0.16270    0.43390    0.69110    1.000
    C172     C        0.06420    0.32170    0.63700    1.000
    C173     C        0.31310    0.34990    0.51240    1.000
    H101     H        0.28670    0.33580    0.50320    1.000
    C174     C        0.34500    0.32690    0.48760    1.000
    H102     H        0.33980    0.30050    0.45690    1.000
    C175     C        0.39110    0.38880    0.54680    1.000
    H103     H        0.41570    0.40520    0.54720    1.000
    C176     C        0.36150    0.40630    0.58050    1.000
    H104     H        0.36870    0.42690    0.62200    1.000
    Yb5      Yb       0.98536    0.77186    0.45743    1.000
    O33      O        0.96420    0.79250    0.33560    1.000
    O34      O        0.95371    0.75343    0.22700    1.000
    O35      O        0.53591    0.81810    0.86960    1.000
    O36      O        0.54710    0.76510    0.96190    1.000
    O37      O        0.91870    0.22320    0.98330    1.000
    O38      O        0.95280    0.16010    0.98610    1.000
    O39      O        0.54510    0.20690    0.08260    1.000
    O40      O        0.55452    0.17030    0.19820    1.000
    C177     C        0.75460    0.95870    0.10280    1.000
    C178     C        0.79220    0.93670    0.13870    1.000
    H105     H        0.81620    0.95270    0.16550    1.000
    C179     C        0.79160    0.88630    0.13160    1.000
    C180     C        0.75560    0.86340    0.09810    1.000
    H106     H        0.75590    0.83150    0.09790    1.000
    C181     C        0.71830    0.88610    0.06430    1.000
    C182     C        0.71810    0.93410    0.06710    1.000
    H107     H        0.69320    0.94990    0.04460    1.000
    C183     C        0.83270    0.86150    0.17070    1.000
    C184     C        0.84480    0.82470    0.13100    1.000
    H108     H        0.82770    0.81640    0.08240    1.000
    C185     C        0.88100    0.80050    0.16080    1.000
    H109     H        0.88870    0.77610    0.13300    1.000
    C186     C        0.90590    0.81260    0.23230    1.000
    C187     C        0.89590    0.84920    0.27540    1.000
    H110     H        0.91330    0.85680    0.32410    1.000
    C188     C        0.85870    0.87420    0.24260    1.000
    H111     H        0.85150    0.89930    0.26920    1.000
    C189     C        0.94440    0.78290    0.26280    1.000
    C190     C        0.67790    0.85950    0.02840    1.000
    C191     C        0.65040    0.87930    0.96270    1.000
    H112     H        0.65770    0.90640    0.94130    1.000
    C192     C        0.61290    0.85820    0.93080    1.000
    H113     H        0.59500    0.87070    0.88610    1.000
    C193     C        0.60100    0.82040    0.96160    1.000
    C194     C        0.62870    0.79950    0.03050    1.000
    H114     H        0.62110    0.77280    0.05250    1.000
    C195     C        0.66750    0.82210    0.06200    1.000
    H115     H        0.68600    0.81050    0.10690    1.000
    C196     C        0.55900    0.79780    0.93210    1.000
    C197     C        0.75240    0.00950    0.09690    1.000
    C198     C        0.71630    0.03400    0.10570    1.000
    H116     H        0.69450    0.01790    0.11920    1.000
    C199     C        0.71240    0.08070    0.09500    1.000
    C200     C        0.74670    0.10500    0.07790    1.000
    H117     H        0.74510    0.13680    0.07260    1.000
    C201     C        0.78220    0.08240    0.06890    1.000
    C202     C        0.78520    0.03440    0.07690    1.000
    H118     H        0.80890    0.01910    0.06890    1.000
    C203     C        0.81750    0.10840    0.04930    1.000
    C204     C        0.82550    0.15150    0.07250    1.000
    H119     H        0.80940    0.16520    0.10310    1.000
    C205     C        0.85750    0.17690    0.05210    1.000
    H120     H        0.86130    0.20790    0.06470    1.000
    C206     C        0.87550    0.11010    0.99090    1.000
    H121     H        0.89300    0.09550    0.96390    1.000
    C207     C        0.84290    0.08510    0.00660    1.000
    H122     H        0.83780    0.05480    0.99030    1.000
    C208     C        0.88410    0.15410    0.01160    1.000
    C209     C        0.92050    0.18090    0.99400    1.000
    C210     C        0.67470    0.10490    0.10570    1.000
    C211     C        0.65860    0.14400    0.06180    1.000
    H123     H        0.67310    0.15450    0.02570    1.000
    C212     C        0.62320    0.16810    0.06810    1.000
    H124     H        0.61320    0.19300    0.03590    1.000
    C213     C        0.60210    0.15300    0.12670    1.000
    C214     C        0.61860    0.11550    0.17140    1.000
    H125     H        0.60580    0.10580    0.21040    1.000
    C215     C        0.65330    0.09180    0.16040    1.000
    H126     H        0.66270    0.06610    0.19110    1.000
    C216     C        0.56420    0.17830    0.13700    1.000
    C217     C        0.81310    0.15010    0.01240    1.000
    H127     H        0.78670    0.16420    0.00320    1.000
    C218     C        0.84500    0.17310    0.98760    1.000
    H128     H        0.83980    0.19950    0.95690    1.000
    C219     C        0.89110    0.11120    0.04680    1.000
    H129     H        0.91570    0.09480    0.04720    1.000
    C220     C        0.86150    0.09370    0.08050    1.000
    H130     H        0.86870    0.07310    0.12200    1.000
    Yb6      Yb       0.48536    0.27186    0.45743    1.000
    O41      O        0.46420    0.29250    0.33560    1.000
    O42      O        0.45371    0.25343    0.22700    1.000
    O43      O        0.03591    0.31810    0.86960    1.000
    O44      O        0.04710    0.26510    0.96190    1.000
    O45      O        0.41870    0.72320    0.98330    1.000
    O46      O        0.45280    0.66010    0.98610    1.000
    O47      O        0.04510    0.70690    0.08260    1.000
    O48      O        0.05452    0.67030    0.19820    1.000
    C221     C        0.25460    0.45870    0.10280    1.000
    C222     C        0.29220    0.43670    0.13870    1.000
    H131     H        0.31620    0.45270    0.16550    1.000
    C223     C        0.29160    0.38630    0.13160    1.000
    C224     C        0.25560    0.36340    0.09810    1.000
    H132     H        0.25590    0.33150    0.09790    1.000
    C225     C        0.21830    0.38610    0.06430    1.000
    C226     C        0.21810    0.43410    0.06710    1.000
    H133     H        0.19320    0.44990    0.04460    1.000
    C227     C        0.33270    0.36150    0.17070    1.000
    C228     C        0.34480    0.32470    0.13100    1.000
    H134     H        0.32770    0.31640    0.08240    1.000
    C229     C        0.38100    0.30050    0.16080    1.000
    H135     H        0.38870    0.27610    0.13300    1.000
    C230     C        0.40590    0.31260    0.23230    1.000
    C231     C        0.39590    0.34920    0.27540    1.000
    H136     H        0.41330    0.35680    0.32410    1.000
    C232     C        0.35870    0.37420    0.24260    1.000
    H137     H        0.35150    0.39930    0.26920    1.000
    C233     C        0.44440    0.28290    0.26280    1.000
    C234     C        0.17790    0.35950    0.02840    1.000
    C235     C        0.15040    0.37930    0.96270    1.000
    H138     H        0.15770    0.40640    0.94130    1.000
    C236     C        0.11290    0.35820    0.93080    1.000
    H139     H        0.09500    0.37070    0.88610    1.000
    C237     C        0.10100    0.32040    0.96160    1.000
    C238     C        0.12870    0.29950    0.03050    1.000
    H140     H        0.12110    0.27280    0.05250    1.000
    C239     C        0.16750    0.32210    0.06200    1.000
    H141     H        0.18600    0.31050    0.10690    1.000
    C240     C        0.05900    0.29780    0.93210    1.000
    C241     C        0.25240    0.50950    0.09690    1.000
    C242     C        0.21630    0.53400    0.10570    1.000
    H142     H        0.19450    0.51790    0.11920    1.000
    C243     C        0.21240    0.58070    0.09500    1.000
    C244     C        0.24670    0.60500    0.07790    1.000
    H143     H        0.24510    0.63680    0.07260    1.000
    C245     C        0.28220    0.58240    0.06890    1.000
    C246     C        0.28520    0.53440    0.07690    1.000
    H144     H        0.30890    0.51910    0.06890    1.000
    C247     C        0.31750    0.60840    0.04930    1.000
    C248     C        0.32550    0.65150    0.07250    1.000
    H145     H        0.30940    0.66520    0.10310    1.000
    C249     C        0.35750    0.67690    0.05210    1.000
    H146     H        0.36130    0.70790    0.06470    1.000
    C250     C        0.37550    0.61010    0.99090    1.000
    H147     H        0.39300    0.59550    0.96390    1.000
    C251     C        0.34290    0.58510    0.00660    1.000
    H148     H        0.33780    0.55480    0.99030    1.000
    C252     C        0.38410    0.65410    0.01160    1.000
    C253     C        0.42050    0.68090    0.99400    1.000
    C254     C        0.17470    0.60490    0.10570    1.000
    C255     C        0.15860    0.64400    0.06180    1.000
    H149     H        0.17310    0.65450    0.02570    1.000
    C256     C        0.12320    0.66810    0.06810    1.000
    H150     H        0.11320    0.69300    0.03590    1.000
    C257     C        0.10210    0.65300    0.12670    1.000
    C258     C        0.11860    0.61550    0.17140    1.000
    H151     H        0.10580    0.60580    0.21040    1.000
    C259     C        0.15330    0.59180    0.16040    1.000
    H152     H        0.16270    0.56610    0.19110    1.000
    C260     C        0.06420    0.67830    0.13700    1.000
    C261     C        0.31310    0.65010    0.01240    1.000
    H153     H        0.28670    0.66420    0.00320    1.000
    C262     C        0.34500    0.67310    0.98760    1.000
    H154     H        0.33980    0.69950    0.95690    1.000
    C263     C        0.39110    0.61120    0.04680    1.000
    H155     H        0.41570    0.59480    0.04720    1.000
    C264     C        0.36150    0.59370    0.08050    1.000
    H156     H        0.36870    0.57310    0.12200    1.000
    Yb7      Yb       0.01464    0.77186    0.04257    1.000
    O49      O        0.03580    0.79250    0.16440    1.000
    O50      O        0.04629    0.75343    0.27300    1.000
    O51      O        0.46409    0.81810    0.63040    1.000
    O52      O        0.45290    0.76510    0.53810    1.000
    O53      O        0.08130    0.22320    0.51670    1.000
    O54      O        0.04720    0.16010    0.51390    1.000
    O55      O        0.45490    0.20690    0.41740    1.000
    O56      O        0.44548    0.17030    0.30180    1.000
    C265     C        0.24540    0.95870    0.39720    1.000
    C266     C        0.20780    0.93670    0.36130    1.000
    H157     H        0.18380    0.95270    0.33450    1.000
    C267     C        0.20840    0.88630    0.36840    1.000
    C268     C        0.24440    0.86340    0.40190    1.000
    H158     H        0.24410    0.83150    0.40210    1.000
    C269     C        0.28170    0.88610    0.43570    1.000
    C270     C        0.28190    0.93410    0.43290    1.000
    H159     H        0.30680    0.94990    0.45540    1.000
    C271     C        0.16730    0.86150    0.32930    1.000
    C272     C        0.15520    0.82470    0.36900    1.000
    H160     H        0.17230    0.81640    0.41760    1.000
    C273     C        0.11900    0.80050    0.33920    1.000
    H161     H        0.11130    0.77610    0.36700    1.000
    C274     C        0.09410    0.81260    0.26770    1.000
    C275     C        0.10410    0.84920    0.22460    1.000
    H162     H        0.08670    0.85680    0.17590    1.000
    C276     C        0.14130    0.87420    0.25740    1.000
    H163     H        0.14850    0.89930    0.23080    1.000
    C277     C        0.05560    0.78290    0.23720    1.000
    C278     C        0.32210    0.85950    0.47160    1.000
    C279     C        0.34960    0.87930    0.53730    1.000
    H164     H        0.34230    0.90640    0.55870    1.000
    C280     C        0.38710    0.85820    0.56920    1.000
    H165     H        0.40500    0.87070    0.61390    1.000
    C281     C        0.39900    0.82040    0.53840    1.000
    C282     C        0.37130    0.79950    0.46950    1.000
    H166     H        0.37890    0.77280    0.44750    1.000
    C283     C        0.33250    0.82210    0.43800    1.000
    H167     H        0.31400    0.81050    0.39310    1.000
    C284     C        0.44100    0.79780    0.56790    1.000
    C285     C        0.24760    0.00950    0.40310    1.000
    C286     C        0.28370    0.03400    0.39430    1.000
    H168     H        0.30550    0.01790    0.38080    1.000
    C287     C        0.28760    0.08070    0.40500    1.000
    C288     C        0.25330    0.10500    0.42210    1.000
    H169     H        0.25490    0.13680    0.42740    1.000
    C289     C        0.21780    0.08240    0.43110    1.000
    C290     C        0.21480    0.03440    0.42310    1.000
    H170     H        0.19110    0.01910    0.43110    1.000
    C291     C        0.18250    0.10840    0.45070    1.000
    C292     C        0.17450    0.15150    0.42750    1.000
    H171     H        0.19060    0.16520    0.39690    1.000
    C293     C        0.14250    0.17690    0.44790    1.000
    H172     H        0.13870    0.20790    0.43530    1.000
    C294     C        0.12450    0.11010    0.50910    1.000
    H173     H        0.10700    0.09550    0.53610    1.000
    C295     C        0.15710    0.08510    0.49340    1.000
    H174     H        0.16220    0.05480    0.50970    1.000
    C296     C        0.11590    0.15410    0.48840    1.000
    C297     C        0.07950    0.18090    0.50600    1.000
    C298     C        0.32530    0.10490    0.39430    1.000
    C299     C        0.34140    0.14400    0.43820    1.000
    H175     H        0.32690    0.15450    0.47430    1.000
    C300     C        0.37680    0.16810    0.43190    1.000
    H176     H        0.38680    0.19300    0.46410    1.000
    C301     C        0.39790    0.15300    0.37330    1.000
    C302     C        0.38140    0.11550    0.32860    1.000
    H177     H        0.39420    0.10580    0.28960    1.000
    C303     C        0.34670    0.09180    0.33960    1.000
    H178     H        0.33730    0.06610    0.30890    1.000
    C304     C        0.43580    0.17830    0.36300    1.000
    C305     C        0.18690    0.15010    0.48760    1.000
    H179     H        0.21330    0.16420    0.49680    1.000
    C306     C        0.15500    0.17310    0.51240    1.000
    H180     H        0.16020    0.19950    0.54310    1.000
    C307     C        0.10890    0.11120    0.45320    1.000
    H181     H        0.08430    0.09480    0.45280    1.000
    C308     C        0.13850    0.09370    0.41950    1.000
    H182     H        0.13130    0.07310    0.37800    1.000
    Yb8      Yb       0.51464    0.27186    0.04257    1.000
    O57      O        0.53580    0.29250    0.16440    1.000
    O58      O        0.54629    0.25343    0.27300    1.000
    O59      O        0.96409    0.31810    0.63040    1.000
    O60      O        0.95290    0.26510    0.53810    1.000
    O61      O        0.58130    0.72320    0.51670    1.000
    O62      O        0.54720    0.66010    0.51390    1.000
    O63      O        0.95490    0.70690    0.41740    1.000
    O64      O        0.94548    0.67030    0.30180    1.000
    C309     C        0.74540    0.45870    0.39720    1.000
    C310     C        0.70780    0.43670    0.36130    1.000
    H183     H        0.68380    0.45270    0.33450    1.000
    C311     C        0.70840    0.38630    0.36840    1.000
    C312     C        0.74440    0.36340    0.40190    1.000
    H184     H        0.74410    0.33150    0.40210    1.000
    C313     C        0.78170    0.38610    0.43570    1.000
    C314     C        0.78190    0.43410    0.43290    1.000
    H185     H        0.80680    0.44990    0.45540    1.000
    C315     C        0.66730    0.36150    0.32930    1.000
    C316     C        0.65520    0.32470    0.36900    1.000
    H186     H        0.67230    0.31640    0.41760    1.000
    C317     C        0.61900    0.30050    0.33920    1.000
    H187     H        0.61130    0.27610    0.36700    1.000
    C318     C        0.59410    0.31260    0.26770    1.000
    C319     C        0.60410    0.34920    0.22460    1.000
    H188     H        0.58670    0.35680    0.17590    1.000
    C320     C        0.64130    0.37420    0.25740    1.000
    H189     H        0.64850    0.39930    0.23080    1.000
    C321     C        0.55560    0.28290    0.23720    1.000
    C322     C        0.82210    0.35950    0.47160    1.000
    C323     C        0.84960    0.37930    0.53730    1.000
    H190     H        0.84230    0.40640    0.55870    1.000
    C324     C        0.88710    0.35820    0.56920    1.000
    H191     H        0.90500    0.37070    0.61390    1.000
    C325     C        0.89900    0.32040    0.53840    1.000
    C326     C        0.87130    0.29950    0.46950    1.000
    H192     H        0.87890    0.27280    0.44750    1.000
    C327     C        0.83250    0.32210    0.43800    1.000
    H193     H        0.81400    0.31050    0.39310    1.000
    C328     C        0.94100    0.29780    0.56790    1.000
    C329     C        0.74760    0.50950    0.40310    1.000
    C330     C        0.78370    0.53400    0.39430    1.000
    H194     H        0.80550    0.51790    0.38080    1.000
    C331     C        0.78760    0.58070    0.40500    1.000
    C332     C        0.75330    0.60500    0.42210    1.000
    H195     H        0.75490    0.63680    0.42740    1.000
    C333     C        0.71780    0.58240    0.43110    1.000
    C334     C        0.71480    0.53440    0.42310    1.000
    H196     H        0.69110    0.51910    0.43110    1.000
    C335     C        0.68250    0.60840    0.45070    1.000
    C336     C        0.67450    0.65150    0.42750    1.000
    H197     H        0.69060    0.66520    0.39690    1.000
    C337     C        0.64250    0.67690    0.44790    1.000
    H198     H        0.63870    0.70790    0.43530    1.000
    C338     C        0.62450    0.61010    0.50910    1.000
    H199     H        0.60700    0.59550    0.53610    1.000
    C339     C        0.65710    0.58510    0.49340    1.000
    H200     H        0.66220    0.55480    0.50970    1.000
    C340     C        0.61590    0.65410    0.48840    1.000
    C341     C        0.57950    0.68090    0.50600    1.000
    C342     C        0.82530    0.60490    0.39430    1.000
    C343     C        0.84140    0.64400    0.43820    1.000
    H201     H        0.82690    0.65450    0.47430    1.000
    C344     C        0.87680    0.66810    0.43190    1.000
    H202     H        0.88680    0.69300    0.46410    1.000
    C345     C        0.89790    0.65300    0.37330    1.000
    C346     C        0.88140    0.61550    0.32860    1.000
    H203     H        0.89420    0.60580    0.28960    1.000
    C347     C        0.84670    0.59180    0.33960    1.000
    H204     H        0.83730    0.56610    0.30890    1.000
    C348     C        0.93580    0.67830    0.36300    1.000
    C349     C        0.68690    0.65010    0.48760    1.000
    H205     H        0.71330    0.66420    0.49680    1.000
    C350     C        0.65500    0.67310    0.51240    1.000
    H206     H        0.66020    0.69950    0.54310    1.000
    C351     C        0.60890    0.61120    0.45320    1.000
    H207     H        0.58430    0.59480    0.45280    1.000
    C352     C        0.63850    0.59370    0.41950    1.000
    H208     H        0.63130    0.57310    0.37800    1.000
    Yb9      Yb       0.00000    0.30699    0.75000    1.000
    Yb10     Yb       0.50000    0.80699    0.75000    1.000
    Yb11     Yb       0.00000    0.69301    0.25000    1.000
    Yb12     Yb       0.50000    0.19301    0.25000    1.000
