data_functionalizedCrystal
_audit_creation_method	'EQeq! by Chris Wilmer'
_symmetry_space_group_name_H-M	'P1'
_symmetry_Int_Tables_number	1
_symmetry_cell_setting	triclinic
loop_
_symmetry_equiv_pos_as_xyz
  x,y,z
_cell_length_a	19.4911
_cell_length_b	19.4911
_cell_length_c	26.2995
_cell_angle_alpha	90
_cell_angle_beta	90
_cell_angle_gamma	90
loop_
_atom_site_label
_atom_site_type_symbol
_atom_site_fract_x
_atom_site_fract_y
_atom_site_fract_z
_atom_site_charge
Mof_Eu	Eu	0.05653	0.44347	0.19741	1.714
Mof_Eu	Eu	0.44347	0.05653	0.19741	1.714
Mof_Eu	Eu	0.05653	0.05653	0.69741	1.72
Mof_Eu	Eu	0.44347	0.44347	0.69741	1.721
Mof_Eu	Eu	0.94347	0.94347	0.30259	1.72
Mof_Eu	Eu	0.55653	0.55653	0.30259	1.721
Mof_Eu	Eu	0.94347	0.55653	0.80259	1.726
Mof_Eu	Eu	0.55653	0.94347	0.80259	1.726
Mof_Cd	Cd	0.96757	0.53243	0.30367	0.45
Mof_Cd	Cd	0.53243	0.96757	0.30367	0.45
Mof_Cd	Cd	0.96757	0.96757	0.80367	0.45
Mof_Cd	Cd	0.53243	0.53243	0.80367	0.452
Mof_Cd	Cd	0.03243	0.03243	0.19633	0.447
Mof_Cd	Cd	0.46757	0.46757	0.19633	0.449
Mof_Cd	Cd	0.03243	0.46757	0.69633	0.45
Mof_Cd	Cd	0.46757	0.03243	0.69633	0.45
Mof_Cd	Cd	0.75	0.25	-0	0.497
Mof_Cd	Cd	0.25	0.75	0.5	0.513
Mof_Cd	Cd	0.25	0.75	-0	0.497
Mof_Cd	Cd	0.75	0.25	0.5	0.513
Mof_H 	H 	0.6648	0.4102	0.1154	0.018
Mof_H 	H 	0.7481	0.5111	0.2318	-0.024
Mof_H 	H 	0.8687	0.4076	0.1359	-0.025
Mof_H 	H 	0.8352	0.0898	0.1154	0.018
Mof_H 	H 	0.7519	0.9889	0.2318	-0.025
Mof_H 	H 	0.6313	0.0924	0.1359	-0.025
Mof_H 	H 	0.0898	0.6648	0.6154	0.019
Mof_H 	H 	0.9889	0.7481	0.7318	-0.026
Mof_H 	H 	0.0924	0.8687	0.6359	-0.024
Mof_H 	H 	0.4102	0.8352	0.6154	0.02
Mof_H 	H 	0.5111	0.7519	0.7318	-0.023
Mof_H 	H 	0.4076	0.6313	0.6359	-0.023
Mof_H 	H 	0.3352	0.9102	0.3846	0.019
Mof_H 	H 	0.2519	0.0111	0.2682	-0.026
Mof_H 	H 	0.1313	0.9076	0.3641	-0.024
Mof_H 	H 	0.1648	0.5898	0.3846	0.02
Mof_H 	H 	0.2481	0.4889	0.2682	-0.024
Mof_H 	H 	0.3687	0.5924	0.3641	-0.023
Mof_H 	H 	0.9102	0.1648	0.8846	0.022
Mof_H 	H 	0.0111	0.2481	0.7682	-0.023
Mof_H 	H 	0.9076	0.3687	0.8641	-0.022
Mof_H 	H 	0.5898	0.3352	0.8846	0.022
Mof_H 	H 	0.4889	0.2519	0.7682	-0.023
Mof_H 	H 	0.5924	0.1313	0.8641	-0.022
Mof_H 	H 	0.3352	0.5898	0.8846	0.022
Mof_H 	H 	0.2519	0.4889	0.7682	-0.023
Mof_H 	H 	0.1313	0.5924	0.8641	-0.022
Mof_H 	H 	0.1648	0.9102	0.8846	0.022
Mof_H 	H 	0.2481	0.0111	0.7682	-0.023
Mof_H 	H 	0.3687	0.9076	0.8641	-0.022
Mof_H 	H 	0.9102	0.3352	0.3846	0.019
Mof_H 	H 	0.0111	0.2519	0.2682	-0.026
Mof_H 	H 	0.9076	0.1313	0.3641	-0.024
Mof_H 	H 	0.5898	0.1648	0.3846	0.02
Mof_H 	H 	0.4889	0.2481	0.2682	-0.024
Mof_H 	H 	0.5924	0.3687	0.3641	-0.023
Mof_H 	H 	0.6648	0.0898	0.6154	0.019
Mof_H 	H 	0.7481	0.9889	0.7318	-0.026
Mof_H 	H 	0.8687	0.0924	0.6359	-0.024
Mof_H 	H 	0.8352	0.4102	0.6154	0.02
Mof_H 	H 	0.7519	0.5111	0.7318	-0.023
Mof_H 	H 	0.6313	0.4076	0.6359	-0.023
Mof_H 	H 	0.0898	0.8352	0.1154	0.018
Mof_H 	H 	0.9889	0.7519	0.2318	-0.025
Mof_H 	H 	0.0924	0.6313	0.1359	-0.025
Mof_H 	H 	0.4102	0.6648	0.1154	0.018
Mof_H 	H 	0.5111	0.7481	0.2318	-0.024
Mof_H 	H 	0.4076	0.8687	0.1359	-0.025
Mof_C 	C 	0.6259	0.4821	0.1943	0.469
Mof_C 	C 	0.8179	0.4622	0.1882	-0.225
Mof_C 	C 	0.6969	0.4638	0.176	-0.219
Mof_C 	C 	0.7035	0.423	0.1339	0.122
Mof_C 	C 	0.8802	0.4828	0.219	0.463
Mof_C 	C 	0.7532	0.4835	0.2032	0.156
Mof_C 	C 	0.7749	0.3526	0.0747	0.331
Mof_C 	C 	0.8252	0.4215	0.1461	0.136
Mof_C 	C 	0.7681	0.4009	0.1188	-0.169
Mof_C 	C 	0.8741	0.0179	0.1943	0.471
Mof_C 	C 	0.6821	0.0378	0.1882	-0.226
Mof_C 	C 	0.8031	0.0362	0.176	-0.22
Mof_C 	C 	0.7965	0.077	0.1339	0.123
Mof_C 	C 	0.6198	0.0172	0.219	0.464
Mof_C 	C 	0.7468	0.0165	0.2032	0.158
Mof_C 	C 	0.7251	0.1474	0.0747	0.331
Mof_C 	C 	0.6748	0.0785	0.1461	0.137
Mof_C 	C 	0.7319	0.0991	0.1188	-0.17
Mof_C 	C 	0.0179	0.6259	0.6943	0.471
Mof_C 	C 	0.0378	0.8179	0.6882	-0.226
Mof_C 	C 	0.0362	0.6969	0.676	-0.219
Mof_C 	C 	0.077	0.7035	0.6339	0.122
Mof_C 	C 	0.0172	0.8802	0.719	0.466
Mof_C 	C 	0.0165	0.7532	0.7032	0.16
Mof_C 	C 	0.1474	0.7749	0.5747	0.33
Mof_C 	C 	0.0785	0.8252	0.6461	0.137
Mof_C 	C 	0.0991	0.7681	0.6188	-0.168
Mof_C 	C 	0.4821	0.8741	0.6943	0.469
Mof_C 	C 	0.4622	0.6821	0.6882	-0.224
Mof_C 	C 	0.4638	0.8031	0.676	-0.217
Mof_C 	C 	0.423	0.7965	0.6339	0.121
Mof_C 	C 	0.4828	0.6198	0.719	0.463
Mof_C 	C 	0.4835	0.7468	0.7032	0.155
Mof_C 	C 	0.3526	0.7251	0.5747	0.33
Mof_C 	C 	0.4215	0.6748	0.6461	0.135
Mof_C 	C 	0.4009	0.7319	0.6188	-0.167
Mof_C 	C 	0.3741	0.9821	0.3057	0.47
Mof_C 	C 	0.1821	0.9622	0.3118	-0.226
Mof_C 	C 	0.3031	0.9638	0.324	-0.219
Mof_C 	C 	0.2965	0.923	0.3661	0.122
Mof_C 	C 	0.1198	0.9828	0.281	0.466
Mof_C 	C 	0.2468	0.9835	0.2968	0.159
Mof_C 	C 	0.2251	0.8526	0.4253	0.33
Mof_C 	C 	0.1748	0.9215	0.3539	0.137
Mof_C 	C 	0.2319	0.9009	0.3812	-0.168
Mof_C 	C 	0.1259	0.5179	0.3057	0.469
Mof_C 	C 	0.3179	0.5378	0.3118	-0.224
Mof_C 	C 	0.1969	0.5362	0.324	-0.217
Mof_C 	C 	0.2035	0.577	0.3661	0.121
Mof_C 	C 	0.3802	0.5172	0.281	0.463
Mof_C 	C 	0.2532	0.5165	0.2968	0.156
Mof_C 	C 	0.2749	0.6474	0.4253	0.33
Mof_C 	C 	0.3252	0.5785	0.3539	0.135
Mof_C 	C 	0.2681	0.5991	0.3812	-0.167
Mof_C 	C 	0.9821	0.1259	0.8057	0.469
Mof_C 	C 	0.9622	0.3179	0.8118	-0.223
Mof_C 	C 	0.9638	0.1969	0.824	-0.216
Mof_C 	C 	0.923	0.2035	0.8661	0.12
Mof_C 	C 	0.9828	0.3802	0.781	0.463
Mof_C 	C 	0.9835	0.2532	0.7968	0.155
Mof_C 	C 	0.8526	0.2749	0.9253	0.329
Mof_C 	C 	0.9215	0.3252	0.8539	0.134
Mof_C 	C 	0.9009	0.2681	0.8812	-0.164
Mof_C 	C 	0.5179	0.3741	0.8057	0.468
Mof_C 	C 	0.5378	0.1821	0.8118	-0.222
Mof_C 	C 	0.5362	0.3031	0.824	-0.215
Mof_C 	C 	0.577	0.2965	0.8661	0.119
Mof_C 	C 	0.5172	0.1198	0.781	0.463
Mof_C 	C 	0.5165	0.2468	0.7968	0.154
Mof_C 	C 	0.6474	0.2251	0.9253	0.328
Mof_C 	C 	0.5785	0.1748	0.8539	0.134
Mof_C 	C 	0.5991	0.2319	0.8812	-0.164
Mof_C 	C 	0.3741	0.5179	0.8057	0.468
Mof_C 	C 	0.1821	0.5378	0.8118	-0.222
Mof_C 	C 	0.3031	0.5362	0.824	-0.215
Mof_C 	C 	0.2965	0.577	0.8661	0.119
Mof_C 	C 	0.1198	0.5172	0.781	0.463
Mof_C 	C 	0.2468	0.5165	0.7968	0.154
Mof_C 	C 	0.2251	0.6474	0.9253	0.328
Mof_C 	C 	0.1748	0.5785	0.8539	0.134
Mof_C 	C 	0.2319	0.5991	0.8812	-0.164
Mof_C 	C 	0.1259	0.9821	0.8057	0.469
Mof_C 	C 	0.3179	0.9622	0.8118	-0.223
Mof_C 	C 	0.1969	0.9638	0.824	-0.216
Mof_C 	C 	0.2035	0.923	0.8661	0.12
Mof_C 	C 	0.3802	0.9828	0.781	0.463
Mof_C 	C 	0.2532	0.9835	0.7968	0.155
Mof_C 	C 	0.2749	0.8526	0.9253	0.329
Mof_C 	C 	0.3252	0.9215	0.8539	0.134
Mof_C 	C 	0.2681	0.9009	0.8812	-0.164
Mof_C 	C 	0.9821	0.3741	0.3057	0.47
Mof_C 	C 	0.9622	0.1821	0.3118	-0.226
Mof_C 	C 	0.9638	0.3031	0.324	-0.219
Mof_C 	C 	0.923	0.2965	0.3661	0.122
Mof_C 	C 	0.9828	0.1198	0.281	0.466
Mof_C 	C 	0.9835	0.2468	0.2968	0.159
Mof_C 	C 	0.8526	0.2251	0.4253	0.33
Mof_C 	C 	0.9215	0.1748	0.3539	0.137
Mof_C 	C 	0.9009	0.2319	0.3812	-0.168
Mof_C 	C 	0.5179	0.1259	0.3057	0.469
Mof_C 	C 	0.5378	0.3179	0.3118	-0.224
Mof_C 	C 	0.5362	0.1969	0.324	-0.217
Mof_C 	C 	0.577	0.2035	0.3661	0.121
Mof_C 	C 	0.5172	0.3802	0.281	0.463
Mof_C 	C 	0.5165	0.2532	0.2968	0.156
Mof_C 	C 	0.6474	0.2749	0.4253	0.33
Mof_C 	C 	0.5785	0.3252	0.3539	0.135
Mof_C 	C 	0.5991	0.2681	0.3812	-0.167
Mof_C 	C 	0.6259	0.0179	0.6943	0.471
Mof_C 	C 	0.8179	0.0378	0.6882	-0.226
Mof_C 	C 	0.6969	0.0362	0.676	-0.219
Mof_C 	C 	0.7035	0.077	0.6339	0.122
Mof_C 	C 	0.8802	0.0172	0.719	0.466
Mof_C 	C 	0.7532	0.0165	0.7032	0.16
Mof_C 	C 	0.7749	0.1474	0.5747	0.33
Mof_C 	C 	0.8252	0.0785	0.6461	0.137
Mof_C 	C 	0.7681	0.0991	0.6188	-0.168
Mof_C 	C 	0.8741	0.4821	0.6943	0.469
Mof_C 	C 	0.6821	0.4622	0.6882	-0.224
Mof_C 	C 	0.8031	0.4638	0.676	-0.217
Mof_C 	C 	0.7965	0.423	0.6339	0.121
Mof_C 	C 	0.6198	0.4828	0.719	0.463
Mof_C 	C 	0.7468	0.4835	0.7032	0.155
Mof_C 	C 	0.7251	0.3526	0.5747	0.33
Mof_C 	C 	0.6748	0.4215	0.6461	0.135
Mof_C 	C 	0.7319	0.4009	0.6188	-0.167
Mof_C 	C 	0.0179	0.8741	0.1943	0.471
Mof_C 	C 	0.0378	0.6821	0.1882	-0.226
Mof_C 	C 	0.0362	0.8031	0.176	-0.22
Mof_C 	C 	0.077	0.7965	0.1339	0.123
Mof_C 	C 	0.0172	0.6198	0.219	0.464
Mof_C 	C 	0.0165	0.7468	0.2032	0.158
Mof_C 	C 	0.1474	0.7251	0.0747	0.331
Mof_C 	C 	0.0785	0.6748	0.1461	0.137
Mof_C 	C 	0.0991	0.7319	0.1188	-0.17
Mof_C 	C 	0.4821	0.6259	0.1943	0.469
Mof_C 	C 	0.4622	0.8179	0.1882	-0.225
Mof_C 	C 	0.4638	0.6969	0.176	-0.219
Mof_C 	C 	0.423	0.7035	0.1339	0.122
Mof_C 	C 	0.4828	0.8802	0.219	0.463
Mof_C 	C 	0.4835	0.7532	0.2032	0.156
Mof_C 	C 	0.3526	0.7749	0.0747	0.331
Mof_C 	C 	0.4215	0.8252	0.1461	0.136
Mof_C 	C 	0.4009	0.7681	0.1188	-0.169
Mof_O 	O 	0.832	0.328	0.064	-0.271
Mof_O 	O 	0.7206	0.3351	0.0516	-0.275
Mof_O 	O 	0.9364	0.4619	0.2053	-0.518
Mof_O 	O 	0.8704	0.5161	0.2593	-0.341
Mof_O 	O 	0.5761	0.4595	0.1695	-0.335
Mof_O 	O 	0.6199	0.5183	0.2322	-0.521
Mof_O 	O 	0.668	0.172	0.064	-0.272
Mof_O 	O 	0.7794	0.1649	0.0516	-0.275
Mof_O 	O 	0.5636	0.0381	0.2053	-0.518
Mof_O 	O 	0.6296	0.9839	0.2593	-0.341
Mof_O 	O 	0.9239	0.0405	0.1695	-0.334
Mof_O 	O 	0.8801	0.9817	0.2322	-0.522
Mof_O 	O 	0.172	0.832	0.564	-0.268
Mof_O 	O 	0.1649	0.7206	0.5516	-0.271
Mof_O 	O 	0.0381	0.9364	0.7053	-0.518
Mof_O 	O 	0.9839	0.8704	0.7593	-0.342
Mof_O 	O 	0.0405	0.5761	0.6695	-0.334
Mof_O 	O 	0.9817	0.6199	0.7322	-0.522
Mof_O 	O 	0.328	0.668	0.564	-0.268
Mof_O 	O 	0.3351	0.7794	0.5516	-0.271
Mof_O 	O 	0.4619	0.5636	0.7053	-0.518
Mof_O 	O 	0.5161	0.6296	0.7593	-0.34
Mof_O 	O 	0.4595	0.9239	0.6695	-0.334
Mof_O 	O 	0.5183	0.8801	0.7322	-0.521
Mof_O 	O 	0.168	0.828	0.436	-0.268
Mof_O 	O 	0.2794	0.8351	0.4484	-0.271
Mof_O 	O 	0.0636	0.9619	0.2947	-0.517
Mof_O 	O 	0.1296	0.0161	0.2407	-0.343
Mof_O 	O 	0.4239	0.9595	0.3305	-0.334
Mof_O 	O 	0.3801	0.0183	0.2678	-0.521
Mof_O 	O 	0.332	0.672	0.436	-0.268
Mof_O 	O 	0.2206	0.6649	0.4484	-0.271
Mof_O 	O 	0.4364	0.5381	0.2947	-0.518
Mof_O 	O 	0.3704	0.4839	0.2407	-0.341
Mof_O 	O 	0.0761	0.5405	0.3305	-0.334
Mof_O 	O 	0.1199	0.4817	0.2678	-0.52
Mof_O 	O 	0.828	0.332	0.936	-0.262
Mof_O 	O 	0.8351	0.2206	0.9484	-0.263
Mof_O 	O 	0.9619	0.4364	0.7947	-0.518
Mof_O 	O 	0.0161	0.3704	0.7407	-0.34
Mof_O 	O 	0.9595	0.0761	0.8305	-0.332
Mof_O 	O 	0.0183	0.1199	0.7678	-0.521
Mof_O 	O 	0.672	0.168	0.936	-0.261
Mof_O 	O 	0.6649	0.2794	0.9484	-0.263
Mof_O 	O 	0.5381	0.0636	0.7947	-0.517
Mof_O 	O 	0.4839	0.1296	0.7407	-0.34
Mof_O 	O 	0.5405	0.4239	0.8305	-0.332
Mof_O 	O 	0.4817	0.3801	0.7678	-0.52
Mof_O 	O 	0.168	0.672	0.936	-0.261
Mof_O 	O 	0.2794	0.6649	0.9484	-0.263
Mof_O 	O 	0.0636	0.5381	0.7947	-0.517
Mof_O 	O 	0.1296	0.4839	0.7407	-0.34
Mof_O 	O 	0.4239	0.5405	0.8305	-0.332
Mof_O 	O 	0.3801	0.4817	0.7678	-0.52
Mof_O 	O 	0.332	0.828	0.936	-0.262
Mof_O 	O 	0.2206	0.8351	0.9484	-0.263
Mof_O 	O 	0.4364	0.9619	0.7947	-0.518
Mof_O 	O 	0.3704	0.0161	0.7407	-0.34
Mof_O 	O 	0.0761	0.9595	0.8305	-0.332
Mof_O 	O 	0.1199	0.0183	0.7678	-0.521
Mof_O 	O 	0.828	0.168	0.436	-0.268
Mof_O 	O 	0.8351	0.2794	0.4484	-0.271
Mof_O 	O 	0.9619	0.0636	0.2947	-0.517
Mof_O 	O 	0.0161	0.1296	0.2407	-0.343
Mof_O 	O 	0.9595	0.4239	0.3305	-0.334
Mof_O 	O 	0.0183	0.3801	0.2678	-0.521
Mof_O 	O 	0.672	0.332	0.436	-0.268
Mof_O 	O 	0.6649	0.2206	0.4484	-0.271
Mof_O 	O 	0.5381	0.4364	0.2947	-0.518
Mof_O 	O 	0.4839	0.3704	0.2407	-0.341
Mof_O 	O 	0.5405	0.0761	0.3305	-0.334
Mof_O 	O 	0.4817	0.1199	0.2678	-0.52
Mof_O 	O 	0.832	0.172	0.564	-0.268
Mof_O 	O 	0.7206	0.1649	0.5516	-0.271
Mof_O 	O 	0.9364	0.0381	0.7053	-0.518
Mof_O 	O 	0.8704	0.9839	0.7593	-0.342
Mof_O 	O 	0.5761	0.0405	0.6695	-0.334
Mof_O 	O 	0.6199	0.9817	0.7322	-0.522
Mof_O 	O 	0.668	0.328	0.564	-0.268
Mof_O 	O 	0.7794	0.3351	0.5516	-0.271
Mof_O 	O 	0.5636	0.4619	0.7053	-0.518
Mof_O 	O 	0.6296	0.5161	0.7593	-0.34
Mof_O 	O 	0.9239	0.4595	0.6695	-0.334
Mof_O 	O 	0.8801	0.5183	0.7322	-0.521
Mof_O 	O 	0.172	0.668	0.064	-0.272
Mof_O 	O 	0.1649	0.7794	0.0516	-0.275
Mof_O 	O 	0.0381	0.5636	0.2053	-0.518
Mof_O 	O 	0.9839	0.6296	0.2593	-0.341
Mof_O 	O 	0.0405	0.9239	0.1695	-0.334
Mof_O 	O 	0.9817	0.8801	0.2322	-0.522
Mof_O 	O 	0.328	0.832	0.064	-0.271
Mof_O 	O 	0.3351	0.7206	0.0516	-0.275
Mof_O 	O 	0.4619	0.9364	0.2053	-0.518
Mof_O 	O 	0.5161	0.8704	0.2593	-0.341
Mof_O 	O 	0.4595	0.5761	0.1695	-0.335
Mof_O 	O 	0.5183	0.6199	0.2322	-0.521
_end
