# CIF file generated by openbabel 3.1.0, see https://openbabel.org
data_I
_chemical_name_common 'image0'
_cell_length_a 8.1162
_cell_length_b 30.2842
_cell_length_c 15.6709
_cell_angle_alpha 90
_cell_angle_beta 90
_cell_angle_gamma 90
_space_group_name_H-M_alt 'P 1'
_space_group_name_Hall 'P 1'
loop_
    _symmetry_equiv_pos_as_xyz
    x,y,z
loop_
    _atom_site_label
    _atom_site_type_symbol
    _atom_site_fract_x
    _atom_site_fract_y
    _atom_site_fract_z
    _atom_site_occupancy
    Ce1      Ce       0.43911    0.90869    0.70393    1.000
    O1       O        0.66250    0.86861    0.81620    1.000
    O2       O        0.38650    0.03933    0.38710    1.000
    O3       O        0.24830    0.96207    0.65120    1.000
    O4       O        0.49330    0.83022    0.73450    1.000
    O5       O        0.23430    0.09476    0.33830    1.000
    O6       O        0.00270    0.97380    0.70940    1.000
    N1       N        0.92640    0.08316    0.55500    1.000
    C1       C        0.60150    0.83181    0.79140    1.000
    C2       C        0.15680    0.06026    0.47100    1.000
    C3       C        0.02320    0.08705    0.48670    1.000
    H1       H        0.99860    0.10960    0.44660    1.000
    C4       C        0.11580    0.98313    0.65870    1.000
    C5       C        0.26400    0.06457    0.39280    1.000
    C6       C        0.95960    0.05007    0.60910    1.000
    H2       H        0.88900    0.04610    0.65690    1.000
    C7       C        0.65430    0.78963    0.83110    1.000
    C8       C        0.09180    0.02120    0.59920    1.000
    C9       C        0.75170    0.78767    0.90380    1.000
    H3       H        0.78460    0.81480    0.92920    1.000
    C10      C        0.19340    0.02692    0.52980    1.000
    H4       H        0.28700    0.00850    0.52200    1.000
    Ce2      Ce       0.06089    0.09131    0.20393    1.000
    O7       O        0.83750    0.13139    0.31620    1.000
    O8       O        0.11350    0.96067    0.88710    1.000
    O9       O        0.25170    0.03793    0.15120    1.000
    O10      O        0.00670    0.16978    0.23450    1.000
    O11      O        0.26570    0.90524    0.83830    1.000
    O12      O        0.49730    0.02620    0.20940    1.000
    N2       N        0.57360    0.91684    0.05500    1.000
    C11      C        0.89850    0.16819    0.29140    1.000
    C12      C        0.34320    0.93974    0.97100    1.000
    C13      C        0.47680    0.91295    0.98670    1.000
    H5       H        0.50140    0.89040    0.94660    1.000
    C14      C        0.38420    0.01687    0.15870    1.000
    C15      C        0.23600    0.93543    0.89280    1.000
    C16      C        0.54040    0.94993    0.10910    1.000
    H6       H        0.61100    0.95390    0.15690    1.000
    C17      C        0.84570    0.21037    0.33110    1.000
    C18      C        0.40820    0.97880    0.09920    1.000
    C19      C        0.74830    0.21233    0.40380    1.000
    H7       H        0.71540    0.18520    0.42920    1.000
    C20      C        0.30660    0.97308    0.02980    1.000
    H8       H        0.21300    0.99150    0.02200    1.000
    Ce3      Ce       0.56089    0.40869    0.29607    1.000
    O13      O        0.33750    0.36861    0.18380    1.000
    O14      O        0.61350    0.53933    0.61290    1.000
    O15      O        0.75170    0.46207    0.34880    1.000
    O16      O        0.50670    0.33022    0.26550    1.000
    O17      O        0.76570    0.59476    0.66170    1.000
    O18      O        0.99730    0.47380    0.29060    1.000
    N3       N        0.07360    0.58316    0.44500    1.000
    C21      C        0.39850    0.33181    0.20860    1.000
    C22      C        0.84320    0.56026    0.52900    1.000
    C23      C        0.97680    0.58705    0.51330    1.000
    H9       H        0.00140    0.60960    0.55340    1.000
    C24      C        0.88420    0.48313    0.34130    1.000
    C25      C        0.73600    0.56457    0.60720    1.000
    C26      C        0.04040    0.55007    0.39090    1.000
    H10      H        0.11100    0.54610    0.34310    1.000
    C27      C        0.34570    0.28963    0.16890    1.000
    C28      C        0.90820    0.52120    0.40080    1.000
    C29      C        0.24830    0.28767    0.09620    1.000
    H11      H        0.21540    0.31480    0.07080    1.000
    C30      C        0.80660    0.52692    0.47020    1.000
    H12      H        0.71300    0.50850    0.47800    1.000
    Ce4      Ce       0.93911    0.59131    0.79607    1.000
    O19      O        0.16250    0.63139    0.68380    1.000
    O20      O        0.88650    0.46067    0.11290    1.000
    O21      O        0.74830    0.53793    0.84880    1.000
    O22      O        0.99330    0.66978    0.76550    1.000
    O23      O        0.73430    0.40524    0.16170    1.000
    O24      O        0.50270    0.52620    0.79060    1.000
    N4       N        0.42640    0.41684    0.94500    1.000
    C31      C        0.10150    0.66819    0.70860    1.000
    C32      C        0.65680    0.43974    0.02900    1.000
    C33      C        0.52320    0.41295    0.01330    1.000
    H13      H        0.49860    0.39040    0.05340    1.000
    C34      C        0.61580    0.51687    0.84130    1.000
    C35      C        0.76400    0.43543    0.10720    1.000
    C36      C        0.45960    0.44993    0.89090    1.000
    H14      H        0.38900    0.45390    0.84310    1.000
    C37      C        0.15430    0.71037    0.66890    1.000
    C38      C        0.59180    0.47880    0.90080    1.000
    C39      C        0.25170    0.71233    0.59620    1.000
    H15      H        0.28460    0.68520    0.57080    1.000
    C40      C        0.69340    0.47308    0.97020    1.000
    H16      H        0.78700    0.49150    0.97800    1.000
    Ce5      Ce       0.56089    0.09131    0.29607    1.000
    O25      O        0.33750    0.13139    0.18380    1.000
    O26      O        0.61350    0.96067    0.61290    1.000
    O27      O        0.75170    0.03793    0.34880    1.000
    O28      O        0.50670    0.16978    0.26550    1.000
    O29      O        0.76570    0.90524    0.66170    1.000
    O30      O        0.99730    0.02620    0.29060    1.000
    N5       N        0.07360    0.91684    0.44500    1.000
    C41      C        0.39850    0.16819    0.20860    1.000
    C42      C        0.84320    0.93974    0.52900    1.000
    C43      C        0.97680    0.91295    0.51330    1.000
    H17      H        0.00140    0.89040    0.55340    1.000
    C44      C        0.88420    0.01687    0.34130    1.000
    C45      C        0.73600    0.93543    0.60720    1.000
    C46      C        0.04040    0.94993    0.39090    1.000
    H18      H        0.11100    0.95390    0.34310    1.000
    C47      C        0.34570    0.21037    0.16890    1.000
    C48      C        0.90820    0.97880    0.40080    1.000
    C49      C        0.24830    0.21233    0.09620    1.000
    H19      H        0.21540    0.18520    0.07080    1.000
    C50      C        0.80660    0.97308    0.47020    1.000
    H20      H        0.71300    0.99150    0.47800    1.000
    Ce6      Ce       0.93911    0.90869    0.79607    1.000
    O31      O        0.16250    0.86861    0.68380    1.000
    O32      O        0.88650    0.03933    0.11290    1.000
    O33      O        0.74830    0.96207    0.84880    1.000
    O34      O        0.99330    0.83022    0.76550    1.000
    O35      O        0.73430    0.09476    0.16170    1.000
    O36      O        0.50270    0.97380    0.79060    1.000
    N6       N        0.42640    0.08316    0.94500    1.000
    C51      C        0.10150    0.83181    0.70860    1.000
    C52      C        0.65680    0.06026    0.02900    1.000
    C53      C        0.52320    0.08705    0.01330    1.000
    H21      H        0.49860    0.10960    0.05340    1.000
    C54      C        0.61580    0.98313    0.84130    1.000
    C55      C        0.76400    0.06457    0.10720    1.000
    C56      C        0.45960    0.05007    0.89090    1.000
    H22      H        0.38900    0.04610    0.84310    1.000
    C57      C        0.15430    0.78963    0.66890    1.000
    C58      C        0.59180    0.02120    0.90080    1.000
    C59      C        0.25170    0.78767    0.59620    1.000
    H23      H        0.28460    0.81480    0.57080    1.000
    C60      C        0.69340    0.02692    0.97020    1.000
    H24      H        0.78700    0.00850    0.97800    1.000
    Ce7      Ce       0.43911    0.59131    0.70393    1.000
    O37      O        0.66250    0.63139    0.81620    1.000
    O38      O        0.38650    0.46067    0.38710    1.000
    O39      O        0.24830    0.53793    0.65120    1.000
    O40      O        0.49330    0.66978    0.73450    1.000
    O41      O        0.23430    0.40524    0.33830    1.000
    O42      O        0.00270    0.52620    0.70940    1.000
    N7       N        0.92640    0.41684    0.55500    1.000
    C61      C        0.60150    0.66819    0.79140    1.000
    C62      C        0.15680    0.43974    0.47100    1.000
    C63      C        0.02320    0.41295    0.48670    1.000
    H25      H        0.99860    0.39040    0.44660    1.000
    C64      C        0.11580    0.51687    0.65870    1.000
    C65      C        0.26400    0.43543    0.39280    1.000
    C66      C        0.95960    0.44993    0.60910    1.000
    H26      H        0.88900    0.45390    0.65690    1.000
    C67      C        0.65430    0.71037    0.83110    1.000
    C68      C        0.09180    0.47880    0.59920    1.000
    C69      C        0.75170    0.71233    0.90380    1.000
    H27      H        0.78460    0.68520    0.92920    1.000
    C70      C        0.19340    0.47308    0.52980    1.000
    H28      H        0.28700    0.49150    0.52200    1.000
    Ce8      Ce       0.06089    0.40869    0.20393    1.000
    O43      O        0.83750    0.36861    0.31620    1.000
    O44      O        0.11350    0.53933    0.88710    1.000
    O45      O        0.25170    0.46207    0.15120    1.000
    O46      O        0.00670    0.33022    0.23450    1.000
    O47      O        0.26570    0.59476    0.83830    1.000
    O48      O        0.49730    0.47380    0.20940    1.000
    N8       N        0.57360    0.58316    0.05500    1.000
    C71      C        0.89850    0.33181    0.29140    1.000
    C72      C        0.34320    0.56026    0.97100    1.000
    C73      C        0.47680    0.58705    0.98670    1.000
    H29      H        0.50140    0.60960    0.94660    1.000
    C74      C        0.38420    0.48313    0.15870    1.000
    C75      C        0.23600    0.56457    0.89280    1.000
    C76      C        0.54040    0.55007    0.10910    1.000
    H30      H        0.61100    0.54610    0.15690    1.000
    C77      C        0.84570    0.28963    0.33110    1.000
    C78      C        0.40820    0.52120    0.09920    1.000
    C79      C        0.74830    0.28767    0.40380    1.000
    H31      H        0.71540    0.31480    0.42920    1.000
    C80      C        0.30660    0.52692    0.02980    1.000
    H32      H        0.21300    0.50850    0.02200    1.000
    N9       N        0.80250    0.75000    0.94060    1.000
    C81      C        0.60100    0.75000    0.79530    1.000
    H33      H        0.52950    0.75000    0.74730    1.000
    N10      N        0.69750    0.25000    0.44060    1.000
    C82      C        0.89900    0.25000    0.29530    1.000
    H34      H        0.97050    0.25000    0.24730    1.000
    N11      N        0.19750    0.25000    0.05940    1.000
    C83      C        0.39900    0.25000    0.20470    1.000
    H35      H        0.47050    0.25000    0.25270    1.000
    N12      N        0.30250    0.75000    0.55940    1.000
    C84      C        0.10100    0.75000    0.70470    1.000
    H36      H        0.02950    0.75000    0.75270    1.000
