data_functionalizedCrystal
_audit_creation_method	'EQeq! by Chris Wilmer'
_symmetry_space_group_name_H-M	'P1'
_symmetry_Int_Tables_number	1
_symmetry_cell_setting	triclinic
loop_
_symmetry_equiv_pos_as_xyz
  x,y,z
_cell_length_a	21.2498
_cell_length_b	21.2498
_cell_length_c	22.0147
_cell_angle_alpha	90
_cell_angle_beta	90
_cell_angle_gamma	120
loop_
_atom_site_label
_atom_site_type_symbol
_atom_site_fract_x
_atom_site_fract_y
_atom_site_fract_z
_atom_site_charge
Mof_Cu	Cu	0.46007	0.53039	0.0098	0.898
Mof_O 	O 	0.54193	0.59921	0.062	-0.398
Mof_O 	O 	0.61133	0.5507	0.04179	-0.409
Mof_O 	O 	0.7393	0.82089	0.27028	-0.411
Mof_O 	O 	0.62026	0.75359	0.2526	-0.405
Mof_O 	O 	0.8457	0.6527	0.0485	-0.249
Mof_N 	N 	0.8596	0.7391	0.1204	-0.139
Mof_C 	C 	0.5992	0.596	0.06683	0.347
Mof_C 	C 	0.6848	0.7738	0.24077	0.347
Mof_C 	C 	0.7	0.7391	0.1879	-0.051
Mof_C 	C 	0.6433	0.6876	0.152	-0.008
Mof_H 	H 	0.5958	0.6768	0.159	0.061
Mof_C 	C 	0.6586	0.6532	0.1061	-0.044
Mof_C 	C 	0.7299	0.6683	0.0962	-0.091
Mof_H 	H 	0.7394	0.6431	0.0664	0.093
Mof_C 	C 	0.7867	0.7209	0.1309	0.11
Mof_C 	C 	0.7712	0.7568	0.1767	-0.08
Mof_H 	H 	0.8087	0.7926	0.1997	0.078
Mof_C 	C 	0.8815	0.7047	0.0784	0.243
Mof_C 	C 	0.9203	0.7956	0.1539	-0.151
Mof_H 	H 	0.9162	0.7843	0.1969	0.091
Mof_H 	H 	0.9233	0.8423	0.1483	0.078
Mof_C 	C 	0.9842	0.7953	0.1268	0.122
Mof_C 	C 	0.9621	0.743	0.0831	-0.109
Mof_C 	C 	0.0101	0.728	0.052	0.053
Mof_H 	H 	0.9938	0.6913	0.023	0.032
Mof_C 	C 	0.0828	0.77	0.066	-0.125
Mof_H 	H 	0.1167	0.7624	0.0454	0.093
Mof_C 	C 	0.1059	0.823	0.1099	0.072
Mof_H 	H 	0.1552	0.8502	0.1187	0.018
Mof_C 	C 	0.0582	0.8371	0.1414	-0.162
Mof_H 	H 	0.0744	0.873	0.1711	0.094
Mof_Cu	Cu	0.12674	0.86372	0.34313	0.899
Mof_O 	O 	0.2086	0.93254	0.39533	-0.397
Mof_O 	O 	0.278	0.88403	0.37512	-0.409
Mof_O 	O 	0.40597	0.15422	0.60361	-0.411
Mof_O 	O 	0.28693	0.08692	0.58593	-0.405
Mof_O 	O 	0.51237	0.98603	0.38183	-0.25
Mof_N 	N 	0.52627	0.07243	0.45373	-0.139
Mof_C 	C 	0.26587	0.92933	0.40016	0.347
Mof_C 	C 	0.35147	0.10713	0.5741	0.347
Mof_C 	C 	0.36667	0.07243	0.52123	-0.051
Mof_C 	C 	0.30997	0.02093	0.48533	-0.007
Mof_H 	H 	0.26247	0.01013	0.49233	0.061
Mof_C 	C 	0.32527	0.98653	0.43943	-0.044
Mof_C 	C 	0.39657	0.00163	0.42953	-0.09
Mof_H 	H 	0.40607	0.97643	0.39973	0.092
Mof_C 	C 	0.45337	0.05423	0.46423	0.11
Mof_C 	C 	0.43787	0.09013	0.51003	-0.08
Mof_H 	H 	0.47537	0.12593	0.53303	0.078
Mof_C 	C 	0.54817	0.03803	0.41173	0.244
Mof_C 	C 	0.58697	0.12893	0.48723	-0.152
Mof_H 	H 	0.58287	0.11763	0.53023	0.091
Mof_H 	H 	0.58997	0.17563	0.48163	0.078
Mof_C 	C 	0.65087	0.12863	0.46013	0.123
Mof_C 	C 	0.62877	0.07633	0.41643	-0.112
Mof_C 	C 	0.67677	0.06133	0.38533	0.058
Mof_H 	H 	0.66047	0.02463	0.35633	0.03
Mof_C 	C 	0.74947	0.10333	0.39933	-0.129
Mof_H 	H 	0.78337	0.09573	0.37873	0.095
Mof_C 	C 	0.77257	0.15633	0.44323	0.074
Mof_H 	H 	0.82187	0.18353	0.45203	0.017
Mof_C 	C 	0.72487	0.17043	0.47473	-0.162
Mof_H 	H 	0.74107	0.20633	0.50443	0.095
Mof_Cu	Cu	0.7934	0.19706	0.67647	0.899
Mof_O 	O 	0.87526	0.26588	0.72867	-0.397
Mof_O 	O 	0.94466	0.21737	0.70846	-0.409
Mof_O 	O 	0.07263	0.48756	0.93695	-0.41
Mof_O 	O 	0.95359	0.42026	0.91927	-0.406
Mof_O 	O 	0.17903	0.31937	0.71517	-0.25
Mof_N 	N 	0.19293	0.40577	0.78707	-0.139
Mof_C 	C 	0.93253	0.26267	0.7335	0.347
Mof_C 	C 	0.01813	0.44047	0.90744	0.347
Mof_C 	C 	0.03333	0.40577	0.85457	-0.05
Mof_C 	C 	0.97663	0.35427	0.81867	-0.009
Mof_H 	H 	0.92913	0.34347	0.82567	0.061
Mof_C 	C 	0.99193	0.31987	0.77277	-0.044
Mof_C 	C 	0.06323	0.33497	0.76287	-0.09
Mof_H 	H 	0.07273	0.30977	0.73307	0.092
Mof_C 	C 	0.12003	0.38757	0.79757	0.11
Mof_C 	C 	0.10453	0.42347	0.84337	-0.08
Mof_H 	H 	0.14203	0.45927	0.86637	0.078
Mof_C 	C 	0.21483	0.37137	0.74507	0.244
Mof_C 	C 	0.25363	0.46227	0.82057	-0.152
Mof_H 	H 	0.24953	0.45097	0.86357	0.091
Mof_H 	H 	0.25663	0.50897	0.81497	0.078
Mof_C 	C 	0.31753	0.46197	0.79347	0.123
Mof_C 	C 	0.29543	0.40967	0.74977	-0.112
Mof_C 	C 	0.34343	0.39467	0.71867	0.058
Mof_H 	H 	0.32713	0.35797	0.68967	0.029
Mof_C 	C 	0.41613	0.43667	0.73267	-0.129
Mof_H 	H 	0.45003	0.42907	0.71207	0.095
Mof_C 	C 	0.43923	0.48967	0.77657	0.074
Mof_H 	H 	0.48853	0.51687	0.78537	0.017
Mof_C 	C 	0.39153	0.50377	0.80807	-0.162
Mof_H 	H 	0.40773	0.53967	0.83777	0.095
Mof_Cu	Cu	0.46961	0.92968	0.0098	0.899
Mof_O 	O 	0.40079	0.94272	0.062	-0.398
Mof_O 	O 	0.4493	0.06063	0.04179	-0.409
Mof_O 	O 	0.17911	0.91841	0.27028	-0.411
Mof_O 	O 	0.24641	0.86667	0.2526	-0.405
Mof_O 	O 	0.3473	0.193	0.0485	-0.249
Mof_N 	N 	0.2609	0.1205	0.1204	-0.139
Mof_C 	C 	0.404	0.0032	0.06683	0.348
Mof_C 	C 	0.2262	0.911	0.24077	0.347
Mof_C 	C 	0.2609	0.9609	0.1879	-0.051
Mof_C 	C 	0.3124	0.9557	0.152	-0.009
Mof_H 	H 	0.3232	0.919	0.159	0.061
Mof_C 	C 	0.3468	0.0054	0.1061	-0.043
Mof_C 	C 	0.3317	0.0616	0.0962	-0.091
Mof_H 	H 	0.3569	0.0963	0.0664	0.093
Mof_C 	C 	0.2791	0.0658	0.1309	0.11
Mof_C 	C 	0.2432	0.0144	0.1767	-0.079
Mof_H 	H 	0.2074	0.0161	0.1997	0.078
Mof_C 	C 	0.2953	0.1768	0.0784	0.244
Mof_C 	C 	0.2044	0.1247	0.1539	-0.152
Mof_H 	H 	0.2157	0.1319	0.1969	0.091
Mof_H 	H 	0.1577	0.081	0.1483	0.078
Mof_C 	C 	0.2047	0.1889	0.1268	0.123
Mof_C 	C 	0.257	0.2191	0.0831	-0.112
Mof_C 	C 	0.272	0.2821	0.052	0.058
Mof_H 	H 	0.3087	0.3025	0.023	0.03
Mof_C 	C 	0.23	0.3128	0.066	-0.128
Mof_H 	H 	0.2376	0.3543	0.0454	0.094
Mof_C 	C 	0.177	0.2829	0.1099	0.074
Mof_H 	H 	0.1498	0.305	0.1187	0.017
Mof_C 	C 	0.1629	0.2211	0.1414	-0.162
Mof_H 	H 	0.127	0.2014	0.1711	0.095
Mof_Cu	Cu	0.13628	0.26301	0.34313	0.899
Mof_O 	O 	0.06746	0.27605	0.39533	-0.397
Mof_O 	O 	0.11597	0.39396	0.37512	-0.409
Mof_O 	O 	0.84578	0.25174	0.60361	-0.411
Mof_O 	O 	0.91308	0.2	0.58593	-0.405
Mof_O 	O 	0.01397	0.52633	0.38183	-0.25
Mof_N 	N 	0.92757	0.45383	0.45373	-0.139
Mof_C 	C 	0.07067	0.33653	0.40016	0.347
Mof_C 	C 	0.89287	0.24433	0.5741	0.347
Mof_C 	C 	0.92757	0.29423	0.52123	-0.051
Mof_C 	C 	0.97907	0.28903	0.48533	-0.007
Mof_H 	H 	0.98987	0.25233	0.49233	0.061
Mof_C 	C 	0.01347	0.33873	0.43943	-0.044
Mof_C 	C 	0.99837	0.39493	0.42953	-0.09
Mof_H 	H 	0.02357	0.42963	0.39973	0.092
Mof_C 	C 	0.94577	0.39913	0.46423	0.11
Mof_C 	C 	0.90987	0.34773	0.51003	-0.08
Mof_H 	H 	0.87407	0.34943	0.53303	0.078
Mof_C 	C 	0.96197	0.51013	0.41173	0.244
Mof_C 	C 	0.87107	0.45803	0.48723	-0.152
Mof_H 	H 	0.88237	0.46523	0.53023	0.091
Mof_H 	H 	0.82437	0.41433	0.48163	0.078
Mof_C 	C 	0.87137	0.52223	0.46013	0.123
Mof_C 	C 	0.92367	0.55243	0.41643	-0.112
Mof_C 	C 	0.93867	0.61543	0.38533	0.058
Mof_H 	H 	0.97537	0.63583	0.35633	0.03
Mof_C 	C 	0.89667	0.64613	0.39933	-0.129
Mof_H 	H 	0.90427	0.68763	0.37873	0.095
Mof_C 	C 	0.84367	0.61623	0.44323	0.074
Mof_H 	H 	0.81647	0.63833	0.45203	0.017
Mof_C 	C 	0.82957	0.55443	0.47473	-0.162
Mof_H 	H 	0.79367	0.53473	0.50443	0.095
Mof_Cu	Cu	0.80294	0.59635	0.67647	0.899
Mof_O 	O 	0.73412	0.60939	0.72867	-0.397
Mof_O 	O 	0.78263	0.7273	0.70846	-0.409
Mof_O 	O 	0.51244	0.58508	0.93695	-0.411
Mof_O 	O 	0.57974	0.53334	0.91927	-0.405
Mof_O 	O 	0.68063	0.85967	0.71517	-0.25
Mof_N 	N 	0.59423	0.78717	0.78707	-0.139
Mof_C 	C 	0.73733	0.66987	0.7335	0.347
Mof_C 	C 	0.55953	0.57767	0.90744	0.347
Mof_C 	C 	0.59423	0.62757	0.85457	-0.051
Mof_C 	C 	0.64573	0.62237	0.81867	-0.008
Mof_H 	H 	0.65653	0.58567	0.82567	0.061
Mof_C 	C 	0.68013	0.67207	0.77277	-0.044
Mof_C 	C 	0.66503	0.72827	0.76287	-0.091
Mof_H 	H 	0.69023	0.76297	0.73307	0.093
Mof_C 	C 	0.61243	0.73247	0.79757	0.11
Mof_C 	C 	0.57653	0.68107	0.84337	-0.08
Mof_H 	H 	0.54073	0.68277	0.86637	0.078
Mof_C 	C 	0.62863	0.84347	0.74507	0.244
Mof_C 	C 	0.53773	0.79137	0.82057	-0.152
Mof_H 	H 	0.54903	0.79857	0.86357	0.091
Mof_H 	H 	0.49103	0.74767	0.81497	0.078
Mof_C 	C 	0.53803	0.85557	0.79347	0.122
Mof_C 	C 	0.59033	0.88577	0.74977	-0.111
Mof_C 	C 	0.60533	0.94877	0.71867	0.057
Mof_H 	H 	0.64203	0.96917	0.68967	0.03
Mof_C 	C 	0.56333	0.97947	0.73267	-0.127
Mof_H 	H 	0.57093	0.02097	0.71207	0.094
Mof_C 	C 	0.51033	0.94957	0.77657	0.073
Mof_H 	H 	0.48313	0.97167	0.78537	0.018
Mof_C 	C 	0.49623	0.88777	0.80807	-0.162
Mof_H 	H 	0.46033	0.86807	0.83777	0.094
Mof_Cu	Cu	0.07032	0.53993	0.0098	0.899
Mof_O 	O 	0.05728	0.45807	0.062	-0.398
Mof_O 	O 	0.93937	0.38867	0.04179	-0.409
Mof_O 	O 	0.08159	0.2607	0.27028	-0.411
Mof_O 	O 	0.13333	0.37974	0.2526	-0.405
Mof_O 	O 	0.807	0.1543	0.0485	-0.249
Mof_N 	N 	0.8795	0.1404	0.1204	-0.139
Mof_C 	C 	0.9968	0.4008	0.06683	0.348
Mof_C 	C 	0.089	0.3152	0.24077	0.347
Mof_C 	C 	0.0391	0.3	0.1879	-0.051
Mof_C 	C 	0.0443	0.3567	0.152	-0.009
Mof_H 	H 	0.081	0.4042	0.159	0.061
Mof_C 	C 	0.9946	0.3414	0.1061	-0.043
Mof_C 	C 	0.9384	0.2701	0.0962	-0.091
Mof_H 	H 	0.9037	0.2606	0.0664	0.093
Mof_C 	C 	0.9342	0.2133	0.1309	0.11
Mof_C 	C 	0.9856	0.2288	0.1767	-0.079
Mof_H 	H 	0.9839	0.1913	0.1997	0.078
Mof_C 	C 	0.8232	0.1185	0.0784	0.243
Mof_C 	C 	0.8753	0.0797	0.1539	-0.152
Mof_H 	H 	0.8681	0.0838	0.1969	0.091
Mof_H 	H 	0.919	0.0767	0.1483	0.078
Mof_C 	C 	0.8111	0.0158	0.1268	0.122
Mof_C 	C 	0.7809	0.0379	0.0831	-0.109
Mof_C 	C 	0.7179	0.9899	0.052	0.053
Mof_H 	H 	0.6975	0.0062	0.023	0.032
Mof_C 	C 	0.6872	0.9172	0.066	-0.126
Mof_H 	H 	0.6457	0.8833	0.0454	0.093
Mof_C 	C 	0.7171	0.8941	0.1099	0.072
Mof_H 	H 	0.695	0.8448	0.1187	0.018
Mof_C 	C 	0.7789	0.9418	0.1414	-0.162
Mof_H 	H 	0.7986	0.9256	0.1711	0.094
Mof_Cu	Cu	0.73699	0.87326	0.34313	0.899
Mof_O 	O 	0.72395	0.7914	0.39533	-0.397
Mof_O 	O 	0.60604	0.722	0.37512	-0.409
Mof_O 	O 	0.74826	0.59403	0.60361	-0.411
Mof_O 	O 	0.8	0.71307	0.58593	-0.405
Mof_O 	O 	0.47367	0.48763	0.38183	-0.25
Mof_N 	N 	0.54617	0.47373	0.45373	-0.139
Mof_C 	C 	0.66347	0.73413	0.40016	0.347
Mof_C 	C 	0.75567	0.64853	0.5741	0.347
Mof_C 	C 	0.70577	0.63333	0.52123	-0.051
Mof_C 	C 	0.71097	0.69003	0.48533	-0.008
Mof_H 	H 	0.74767	0.73753	0.49233	0.061
Mof_C 	C 	0.66127	0.67473	0.43943	-0.044
Mof_C 	C 	0.60507	0.60343	0.42953	-0.091
Mof_H 	H 	0.57037	0.59393	0.39973	0.093
Mof_C 	C 	0.60087	0.54663	0.46423	0.11
Mof_C 	C 	0.65227	0.56213	0.51003	-0.08
Mof_H 	H 	0.65057	0.52463	0.53303	0.078
Mof_C 	C 	0.48987	0.45183	0.41173	0.244
Mof_C 	C 	0.54197	0.41303	0.48723	-0.152
Mof_H 	H 	0.53477	0.41713	0.53023	0.091
Mof_H 	H 	0.58567	0.41003	0.48163	0.078
Mof_C 	C 	0.47777	0.34913	0.46013	0.123
Mof_C 	C 	0.44757	0.37123	0.41643	-0.112
Mof_C 	C 	0.38457	0.32323	0.38533	0.058
Mof_H 	H 	0.36417	0.33953	0.35633	0.029
Mof_C 	C 	0.35387	0.25053	0.39933	-0.129
Mof_H 	H 	0.31237	0.21663	0.37873	0.095
Mof_C 	C 	0.38377	0.22743	0.44323	0.074
Mof_H 	H 	0.36167	0.17813	0.45203	0.018
Mof_C 	C 	0.44557	0.27513	0.47473	-0.162
Mof_H 	H 	0.46527	0.25893	0.50443	0.095
Mof_Cu	Cu	0.40365	0.2066	0.67647	0.899
Mof_O 	O 	0.39061	0.12474	0.72867	-0.397
Mof_O 	O 	0.2727	0.05534	0.70846	-0.409
Mof_O 	O 	0.41492	0.92737	0.93695	-0.41
Mof_O 	O 	0.46666	0.04641	0.91927	-0.406
Mof_O 	O 	0.14033	0.82097	0.71517	-0.25
Mof_N 	N 	0.21283	0.80707	0.78707	-0.139
Mof_C 	C 	0.33013	0.06747	0.7335	0.347
Mof_C 	C 	0.42233	0.98187	0.90744	0.347
Mof_C 	C 	0.37243	0.96667	0.85457	-0.05
Mof_C 	C 	0.37763	0.02337	0.81867	-0.009
Mof_H 	H 	0.41433	0.07087	0.82567	0.061
Mof_C 	C 	0.32793	0.00807	0.77277	-0.044
Mof_C 	C 	0.27173	0.93677	0.76287	-0.09
Mof_H 	H 	0.23703	0.92727	0.73307	0.093
Mof_C 	C 	0.26753	0.87997	0.79757	0.11
Mof_C 	C 	0.31893	0.89547	0.84337	-0.08
Mof_H 	H 	0.31723	0.85797	0.86637	0.078
Mof_C 	C 	0.15653	0.78517	0.74507	0.244
Mof_C 	C 	0.20863	0.74637	0.82057	-0.152
Mof_H 	H 	0.20143	0.75047	0.86357	0.091
Mof_H 	H 	0.25233	0.74337	0.81497	0.078
Mof_C 	C 	0.14443	0.68247	0.79347	0.122
Mof_C 	C 	0.11423	0.70457	0.74977	-0.111
Mof_C 	C 	0.05123	0.65657	0.71867	0.057
Mof_H 	H 	0.03083	0.67287	0.68967	0.03
Mof_C 	C 	0.02053	0.58387	0.73267	-0.127
Mof_H 	H 	0.97903	0.54997	0.71207	0.094
Mof_C 	C 	0.05043	0.56077	0.77657	0.073
Mof_H 	H 	0.02833	0.51147	0.78537	0.018
Mof_C 	C 	0.11223	0.60847	0.80807	-0.162
Mof_H 	H 	0.13193	0.59227	0.83777	0.094
Mof_Cu	Cu	0.53993	0.46961	0.9902	0.899
Mof_O 	O 	0.45807	0.40079	0.938	-0.397
Mof_O 	O 	0.38867	0.4493	0.95821	-0.409
Mof_O 	O 	0.2607	0.17911	0.72972	-0.411
Mof_O 	O 	0.37974	0.24641	0.7474	-0.405
Mof_O 	O 	0.1543	0.3473	0.9515	-0.249
Mof_N 	N 	0.1404	0.2609	0.8796	-0.139
Mof_C 	C 	0.4008	0.404	0.93317	0.347
Mof_C 	C 	0.3152	0.2262	0.75923	0.347
Mof_C 	C 	0.3	0.2609	0.8121	-0.051
Mof_C 	C 	0.3567	0.3124	0.848	-0.008
Mof_H 	H 	0.4042	0.3232	0.841	0.061
Mof_C 	C 	0.3414	0.3468	0.8939	-0.044
Mof_C 	C 	0.2701	0.3317	0.9038	-0.091
Mof_H 	H 	0.2606	0.3569	0.9336	0.093
Mof_C 	C 	0.2133	0.2791	0.8691	0.11
Mof_C 	C 	0.2288	0.2432	0.8233	-0.08
Mof_H 	H 	0.1913	0.2074	0.8003	0.078
Mof_C 	C 	0.1185	0.2953	0.9216	0.243
Mof_C 	C 	0.0797	0.2044	0.8461	-0.151
Mof_H 	H 	0.0838	0.2157	0.8031	0.091
Mof_H 	H 	0.0767	0.1577	0.8517	0.078
Mof_C 	C 	0.0158	0.2047	0.8732	0.122
Mof_C 	C 	0.0379	0.257	0.9169	-0.109
Mof_C 	C 	0.9899	0.272	0.948	0.053
Mof_H 	H 	0.0062	0.3087	0.977	0.032
Mof_C 	C 	0.9172	0.23	0.934	-0.125
Mof_H 	H 	0.8833	0.2376	0.9546	0.093
Mof_C 	C 	0.8941	0.177	0.8901	0.072
Mof_H 	H 	0.8448	0.1498	0.8813	0.018
Mof_C 	C 	0.9418	0.1629	0.8586	-0.162
Mof_H 	H 	0.9256	0.127	0.8289	0.094
Mof_Cu	Cu	0.2066	0.80294	0.32353	0.899
Mof_O 	O 	0.12474	0.73412	0.27133	-0.397
Mof_O 	O 	0.05534	0.78263	0.29154	-0.409
Mof_O 	O 	0.92737	0.51244	0.06305	-0.41
Mof_O 	O 	0.04641	0.57974	0.08073	-0.406
Mof_O 	O 	0.82097	0.68063	0.28483	-0.25
Mof_N 	N 	0.80707	0.59423	0.21293	-0.139
Mof_C 	C 	0.06747	0.73733	0.2665	0.347
Mof_C 	C 	0.98187	0.55953	0.09256	0.347
Mof_C 	C 	0.96667	0.59423	0.14543	-0.05
Mof_C 	C 	0.02337	0.64573	0.18133	-0.009
Mof_H 	H 	0.07087	0.65653	0.17433	0.061
Mof_C 	C 	0.00807	0.68013	0.22723	-0.044
Mof_C 	C 	0.93677	0.66503	0.23713	-0.09
Mof_H 	H 	0.92727	0.69023	0.26693	0.092
Mof_C 	C 	0.87997	0.61243	0.20243	0.11
Mof_C 	C 	0.89547	0.57653	0.15663	-0.08
Mof_H 	H 	0.85797	0.54073	0.13363	0.078
Mof_C 	C 	0.78517	0.62863	0.25493	0.244
Mof_C 	C 	0.74637	0.53773	0.17943	-0.152
Mof_H 	H 	0.75047	0.54903	0.13643	0.091
Mof_H 	H 	0.74337	0.49103	0.18503	0.078
Mof_C 	C 	0.68247	0.53803	0.20653	0.123
Mof_C 	C 	0.70457	0.59033	0.25023	-0.112
Mof_C 	C 	0.65657	0.60533	0.28133	0.058
Mof_H 	H 	0.67287	0.64203	0.31033	0.029
Mof_C 	C 	0.58387	0.56333	0.26733	-0.129
Mof_H 	H 	0.54997	0.57093	0.28793	0.095
Mof_C 	C 	0.56077	0.51033	0.22343	0.074
Mof_H 	H 	0.51147	0.48313	0.21463	0.017
Mof_C 	C 	0.60847	0.49623	0.19193	-0.162
Mof_H 	H 	0.59227	0.46033	0.16223	0.095
Mof_Cu	Cu	0.87326	0.13628	0.65687	0.899
Mof_O 	O 	0.7914	0.06746	0.60467	-0.397
Mof_O 	O 	0.722	0.11597	0.62488	-0.409
Mof_O 	O 	0.59403	0.84578	0.39639	-0.411
Mof_O 	O 	0.71307	0.91308	0.41407	-0.405
Mof_O 	O 	0.48763	0.01397	0.61817	-0.25
Mof_N 	N 	0.47373	0.92757	0.54627	-0.139
Mof_C 	C 	0.73413	0.07067	0.59984	0.347
Mof_C 	C 	0.64853	0.89287	0.4259	0.347
Mof_C 	C 	0.63333	0.92757	0.47877	-0.051
Mof_C 	C 	0.69003	0.97907	0.51467	-0.007
Mof_H 	H 	0.73753	0.98987	0.50767	0.061
Mof_C 	C 	0.67473	0.01347	0.56057	-0.044
Mof_C 	C 	0.60343	0.99837	0.57047	-0.09
Mof_H 	H 	0.59393	0.02357	0.60027	0.092
Mof_C 	C 	0.54663	0.94577	0.53577	0.11
Mof_C 	C 	0.56213	0.90987	0.48997	-0.08
Mof_H 	H 	0.52463	0.87407	0.46697	0.078
Mof_C 	C 	0.45183	0.96197	0.58827	0.244
Mof_C 	C 	0.41303	0.87107	0.51277	-0.152
Mof_H 	H 	0.41713	0.88237	0.46977	0.091
Mof_H 	H 	0.41003	0.82437	0.51837	0.078
Mof_C 	C 	0.34913	0.87137	0.53987	0.123
Mof_C 	C 	0.37123	0.92367	0.58357	-0.112
Mof_C 	C 	0.32323	0.93867	0.61467	0.058
Mof_H 	H 	0.33953	0.97537	0.64367	0.03
Mof_C 	C 	0.25053	0.89667	0.60067	-0.129
Mof_H 	H 	0.21663	0.90427	0.62127	0.095
Mof_C 	C 	0.22743	0.84367	0.55677	0.074
Mof_H 	H 	0.17813	0.81647	0.54797	0.017
Mof_C 	C 	0.27513	0.82957	0.52527	-0.162
Mof_H 	H 	0.25893	0.79367	0.49557	0.095
Mof_Cu	Cu	0.53039	0.07032	0.9902	0.899
Mof_O 	O 	0.59921	0.05728	0.938	-0.398
Mof_O 	O 	0.5507	0.93937	0.95821	-0.409
Mof_O 	O 	0.82089	0.08159	0.72972	-0.411
Mof_O 	O 	0.75359	0.13333	0.7474	-0.405
Mof_O 	O 	0.6527	0.807	0.9515	-0.249
Mof_N 	N 	0.7391	0.8795	0.8796	-0.139
Mof_C 	C 	0.596	0.9968	0.93317	0.348
Mof_C 	C 	0.7738	0.089	0.75923	0.347
Mof_C 	C 	0.7391	0.0391	0.8121	-0.051
Mof_C 	C 	0.6876	0.0443	0.848	-0.009
Mof_H 	H 	0.6768	0.081	0.841	0.061
Mof_C 	C 	0.6532	0.9946	0.8939	-0.043
Mof_C 	C 	0.6683	0.9384	0.9038	-0.091
Mof_H 	H 	0.6431	0.9037	0.9336	0.093
Mof_C 	C 	0.7209	0.9342	0.8691	0.11
Mof_C 	C 	0.7568	0.9856	0.8233	-0.079
Mof_H 	H 	0.7926	0.9839	0.8003	0.078
Mof_C 	C 	0.7047	0.8232	0.9216	0.244
Mof_C 	C 	0.7956	0.8753	0.8461	-0.152
Mof_H 	H 	0.7843	0.8681	0.8031	0.091
Mof_H 	H 	0.8423	0.919	0.8517	0.078
Mof_C 	C 	0.7953	0.8111	0.8732	0.123
Mof_C 	C 	0.743	0.7809	0.9169	-0.112
Mof_C 	C 	0.728	0.7179	0.948	0.058
Mof_H 	H 	0.6913	0.6975	0.977	0.03
Mof_C 	C 	0.77	0.6872	0.934	-0.128
Mof_H 	H 	0.7624	0.6457	0.9546	0.094
Mof_C 	C 	0.823	0.7171	0.8901	0.074
Mof_H 	H 	0.8502	0.695	0.8813	0.017
Mof_C 	C 	0.8371	0.7789	0.8586	-0.162
Mof_H 	H 	0.873	0.7986	0.8289	0.095
Mof_Cu	Cu	0.19706	0.40365	0.32353	0.899
Mof_O 	O 	0.26588	0.39061	0.27133	-0.397
Mof_O 	O 	0.21737	0.2727	0.29154	-0.409
Mof_O 	O 	0.48756	0.41492	0.06305	-0.411
Mof_O 	O 	0.42026	0.46666	0.08073	-0.405
Mof_O 	O 	0.31937	0.14033	0.28483	-0.25
Mof_N 	N 	0.40577	0.21283	0.21293	-0.139
Mof_C 	C 	0.26267	0.33013	0.2665	0.347
Mof_C 	C 	0.44047	0.42233	0.09256	0.347
Mof_C 	C 	0.40577	0.37243	0.14543	-0.051
Mof_C 	C 	0.35427	0.37763	0.18133	-0.008
Mof_H 	H 	0.34347	0.41433	0.17433	0.061
Mof_C 	C 	0.31987	0.32793	0.22723	-0.044
Mof_C 	C 	0.33497	0.27173	0.23713	-0.091
Mof_H 	H 	0.30977	0.23703	0.26693	0.093
Mof_C 	C 	0.38757	0.26753	0.20243	0.11
Mof_C 	C 	0.42347	0.31893	0.15663	-0.08
Mof_H 	H 	0.45927	0.31723	0.13363	0.078
Mof_C 	C 	0.37137	0.15653	0.25493	0.244
Mof_C 	C 	0.46227	0.20863	0.17943	-0.152
Mof_H 	H 	0.45097	0.20143	0.13643	0.091
Mof_H 	H 	0.50897	0.25233	0.18503	0.078
Mof_C 	C 	0.46197	0.14443	0.20653	0.122
Mof_C 	C 	0.40967	0.11423	0.25023	-0.111
Mof_C 	C 	0.39467	0.05123	0.28133	0.057
Mof_H 	H 	0.35797	0.03083	0.31033	0.03
Mof_C 	C 	0.43667	0.02053	0.26733	-0.127
Mof_H 	H 	0.42907	0.97903	0.28793	0.094
Mof_C 	C 	0.48967	0.05043	0.22343	0.073
Mof_H 	H 	0.51687	0.02833	0.21463	0.018
Mof_C 	C 	0.50377	0.11223	0.19193	-0.162
Mof_H 	H 	0.53967	0.13193	0.16223	0.094
Mof_Cu	Cu	0.86372	0.73699	0.65687	0.899
Mof_O 	O 	0.93254	0.72395	0.60467	-0.397
Mof_O 	O 	0.88403	0.60604	0.62488	-0.409
Mof_O 	O 	0.15422	0.74826	0.39639	-0.411
Mof_O 	O 	0.08692	0.8	0.41407	-0.405
Mof_O 	O 	0.98603	0.47367	0.61817	-0.25
Mof_N 	N 	0.07243	0.54617	0.54627	-0.139
Mof_C 	C 	0.92933	0.66347	0.59984	0.347
Mof_C 	C 	0.10713	0.75567	0.4259	0.347
Mof_C 	C 	0.07243	0.70577	0.47877	-0.051
Mof_C 	C 	0.02093	0.71097	0.51467	-0.007
Mof_H 	H 	0.01013	0.74767	0.50767	0.061
Mof_C 	C 	0.98653	0.66127	0.56057	-0.044
Mof_C 	C 	0.00163	0.60507	0.57047	-0.09
Mof_H 	H 	0.97643	0.57037	0.60027	0.092
Mof_C 	C 	0.05423	0.60087	0.53577	0.11
Mof_C 	C 	0.09013	0.65227	0.48997	-0.08
Mof_H 	H 	0.12593	0.65057	0.46697	0.078
Mof_C 	C 	0.03803	0.48987	0.58827	0.244
Mof_C 	C 	0.12893	0.54197	0.51277	-0.152
Mof_H 	H 	0.11763	0.53477	0.46977	0.091
Mof_H 	H 	0.17563	0.58567	0.51837	0.078
Mof_C 	C 	0.12863	0.47777	0.53987	0.123
Mof_C 	C 	0.07633	0.44757	0.58357	-0.112
Mof_C 	C 	0.06133	0.38457	0.61467	0.058
Mof_H 	H 	0.02463	0.36417	0.64367	0.03
Mof_C 	C 	0.10333	0.35387	0.60067	-0.129
Mof_H 	H 	0.09573	0.31237	0.62127	0.095
Mof_C 	C 	0.15633	0.38377	0.55677	0.074
Mof_H 	H 	0.18353	0.36167	0.54797	0.017
Mof_C 	C 	0.17043	0.44557	0.52527	-0.162
Mof_H 	H 	0.20633	0.46527	0.49557	0.095
Mof_Cu	Cu	0.92968	0.46007	0.9902	0.899
Mof_O 	O 	0.94272	0.54193	0.938	-0.398
Mof_O 	O 	0.06063	0.61133	0.95821	-0.409
Mof_O 	O 	0.91841	0.7393	0.72972	-0.411
Mof_O 	O 	0.86667	0.62026	0.7474	-0.405
Mof_O 	O 	0.193	0.8457	0.9515	-0.249
Mof_N 	N 	0.1205	0.8596	0.8796	-0.139
Mof_C 	C 	0.0032	0.5992	0.93317	0.348
Mof_C 	C 	0.911	0.6848	0.75923	0.347
Mof_C 	C 	0.9609	0.7	0.8121	-0.051
Mof_C 	C 	0.9557	0.6433	0.848	-0.009
Mof_H 	H 	0.919	0.5958	0.841	0.061
Mof_C 	C 	0.0054	0.6586	0.8939	-0.043
Mof_C 	C 	0.0616	0.7299	0.9038	-0.091
Mof_H 	H 	0.0963	0.7394	0.9336	0.093
Mof_C 	C 	0.0658	0.7867	0.8691	0.11
Mof_C 	C 	0.0144	0.7712	0.8233	-0.079
Mof_H 	H 	0.0161	0.8087	0.8003	0.078
Mof_C 	C 	0.1768	0.8815	0.9216	0.243
Mof_C 	C 	0.1247	0.9203	0.8461	-0.152
Mof_H 	H 	0.1319	0.9162	0.8031	0.091
Mof_H 	H 	0.081	0.9233	0.8517	0.078
Mof_C 	C 	0.1889	0.9842	0.8732	0.122
Mof_C 	C 	0.2191	0.9621	0.9169	-0.109
Mof_C 	C 	0.2821	0.0101	0.948	0.053
Mof_H 	H 	0.3025	0.9938	0.977	0.032
Mof_C 	C 	0.3128	0.0828	0.934	-0.126
Mof_H 	H 	0.3543	0.1167	0.9546	0.093
Mof_C 	C 	0.2829	0.1059	0.8901	0.072
Mof_H 	H 	0.305	0.1552	0.8813	0.018
Mof_C 	C 	0.2211	0.0582	0.8586	-0.162
Mof_H 	H 	0.2014	0.0744	0.8289	0.094
Mof_Cu	Cu	0.59635	0.7934	0.32353	0.899
Mof_O 	O 	0.60939	0.87526	0.27133	-0.397
Mof_O 	O 	0.7273	0.94466	0.29154	-0.409
Mof_O 	O 	0.58508	0.07263	0.06305	-0.41
Mof_O 	O 	0.53334	0.95359	0.08073	-0.406
Mof_O 	O 	0.85967	0.17903	0.28483	-0.25
Mof_N 	N 	0.78717	0.19293	0.21293	-0.139
Mof_C 	C 	0.66987	0.93253	0.2665	0.347
Mof_C 	C 	0.57767	0.01813	0.09256	0.347
Mof_C 	C 	0.62757	0.03333	0.14543	-0.05
Mof_C 	C 	0.62237	0.97663	0.18133	-0.009
Mof_H 	H 	0.58567	0.92913	0.17433	0.061
Mof_C 	C 	0.67207	0.99193	0.22723	-0.044
Mof_C 	C 	0.72827	0.06323	0.23713	-0.09
Mof_H 	H 	0.76297	0.07273	0.26693	0.093
Mof_C 	C 	0.73247	0.12003	0.20243	0.11
Mof_C 	C 	0.68107	0.10453	0.15663	-0.08
Mof_H 	H 	0.68277	0.14203	0.13363	0.078
Mof_C 	C 	0.84347	0.21483	0.25493	0.244
Mof_C 	C 	0.79137	0.25363	0.17943	-0.152
Mof_H 	H 	0.79857	0.24953	0.13643	0.091
Mof_H 	H 	0.74767	0.25663	0.18503	0.078
Mof_C 	C 	0.85557	0.31753	0.20653	0.122
Mof_C 	C 	0.88577	0.29543	0.25023	-0.111
Mof_C 	C 	0.94877	0.34343	0.28133	0.057
Mof_H 	H 	0.96917	0.32713	0.31033	0.03
Mof_C 	C 	0.97947	0.41613	0.26733	-0.127
Mof_H 	H 	0.02097	0.45003	0.28793	0.094
Mof_C 	C 	0.94957	0.43923	0.22343	0.073
Mof_H 	H 	0.97167	0.48853	0.21463	0.018
Mof_C 	C 	0.88777	0.39153	0.19193	-0.162
Mof_H 	H 	0.86807	0.40773	0.16223	0.094
Mof_Cu	Cu	0.26301	0.12674	0.65687	0.899
Mof_O 	O 	0.27605	0.2086	0.60467	-0.397
Mof_O 	O 	0.39396	0.278	0.62488	-0.409
Mof_O 	O 	0.25174	0.40597	0.39639	-0.411
Mof_O 	O 	0.2	0.28693	0.41407	-0.405
Mof_O 	O 	0.52633	0.51237	0.61817	-0.25
Mof_N 	N 	0.45383	0.52627	0.54627	-0.139
Mof_C 	C 	0.33653	0.26587	0.59984	0.347
Mof_C 	C 	0.24433	0.35147	0.4259	0.347
Mof_C 	C 	0.29423	0.36667	0.47877	-0.051
Mof_C 	C 	0.28903	0.30997	0.51467	-0.008
Mof_H 	H 	0.25233	0.26247	0.50767	0.061
Mof_C 	C 	0.33873	0.32527	0.56057	-0.044
Mof_C 	C 	0.39493	0.39657	0.57047	-0.091
Mof_H 	H 	0.42963	0.40607	0.60027	0.093
Mof_C 	C 	0.39913	0.45337	0.53577	0.11
Mof_C 	C 	0.34773	0.43787	0.48997	-0.08
Mof_H 	H 	0.34943	0.47537	0.46697	0.078
Mof_C 	C 	0.51013	0.54817	0.58827	0.244
Mof_C 	C 	0.45803	0.58697	0.51277	-0.152
Mof_H 	H 	0.46523	0.58287	0.46977	0.091
Mof_H 	H 	0.41433	0.58997	0.51837	0.078
Mof_C 	C 	0.52223	0.65087	0.53987	0.123
Mof_C 	C 	0.55243	0.62877	0.58357	-0.112
Mof_C 	C 	0.61543	0.67677	0.61467	0.058
Mof_H 	H 	0.63583	0.66047	0.64367	0.029
Mof_C 	C 	0.64613	0.74947	0.60067	-0.129
Mof_H 	H 	0.68763	0.78337	0.62127	0.095
Mof_C 	C 	0.61623	0.77257	0.55677	0.074
Mof_H 	H 	0.63833	0.82187	0.54797	0.018
Mof_C 	C 	0.55443	0.72487	0.52527	-0.162
Mof_H 	H 	0.53473	0.74107	0.49557	0.095
_end
