# CIF file generated by openbabel 3.1.0, see https://openbabel.org
data_I
_chemical_name_common 'image0'
_cell_length_a 8.7259
_cell_length_b 34.0441
_cell_length_c 8.6527
_cell_angle_alpha 90
_cell_angle_beta 107.669
_cell_angle_gamma 90
_space_group_name_H-M_alt 'P 1'
_space_group_name_Hall 'P 1'
loop_
    _symmetry_equiv_pos_as_xyz
    x,y,z
loop_
    _atom_site_label
    _atom_site_type_symbol
    _atom_site_fract_x
    _atom_site_fract_y
    _atom_site_fract_z
    _atom_site_occupancy
    Cu1      Cu       0.74999    0.20353    0.48376    1.000
    Cu2      Cu       0.73904    0.04566    0.49884    1.000
    O1       O        0.89531    0.15395    0.61284    1.000
    O2       O        0.85109    0.09006    0.62851    1.000
    O3       O        0.62185    0.16006    0.36160    1.000
    O4       O        0.61278    0.09499    0.34207    1.000
    O5       O        0.62437    0.20627    0.64571    1.000
    O6       O        0.59117    0.24855    0.82888    1.000
    O7       O        0.87605    0.24607    0.61935    1.000
    O8       O        0.86144    0.28753    0.81338    1.000
    O9       O        0.90731    0.04059    0.38339    1.000
    O10      O        0.08955    0.99948    0.34496    1.000
    O11      O        0.57063    0.04184    0.61484    1.000
    O12      O        0.37952    0.99958    0.62773    1.000
    C1       C        0.81930    0.12336    0.56390    1.000
    C2       C        0.67060    0.12596    0.40820    1.000
    C3       C        0.81330    0.25871    0.72290    1.000
    C4       C        0.66300    0.23640    0.73610    1.000
    C5       C        0.00060    0.01116    0.42140    1.000
    C6       C        0.48540    0.01199    0.57000    1.000
    Cu3      Cu       0.25001    0.70353    0.01624    1.000
    Cu4      Cu       0.26096    0.54566    0.00116    1.000
    O13      O        0.10469    0.65395    0.88716    1.000
    O14      O        0.14891    0.59006    0.87149    1.000
    O15      O        0.37815    0.66006    0.13840    1.000
    O16      O        0.38722    0.59499    0.15793    1.000
    O17      O        0.37563    0.70627    0.85429    1.000
    O18      O        0.40883    0.74855    0.67112    1.000
    O19      O        0.12395    0.74607    0.88065    1.000
    O20      O        0.13856    0.78753    0.68662    1.000
    O21      O        0.09269    0.54059    0.11661    1.000
    O22      O        0.91045    0.49948    0.15504    1.000
    O23      O        0.42937    0.54184    0.88516    1.000
    O24      O        0.62048    0.49958    0.87227    1.000
    C7       C        0.18070    0.62336    0.93610    1.000
    C8       C        0.32940    0.62596    0.09180    1.000
    C9       C        0.18670    0.75871    0.77710    1.000
    C10      C        0.33700    0.73640    0.76390    1.000
    C11      C        0.99940    0.51116    0.07860    1.000
    C12      C        0.51460    0.51199    0.93000    1.000
    Cu5      Cu       0.25001    0.79647    0.51624    1.000
    Cu6      Cu       0.26096    0.95434    0.50116    1.000
    O25      O        0.10469    0.84605    0.38716    1.000
    O26      O        0.14891    0.90994    0.37149    1.000
    O27      O        0.37815    0.83994    0.63840    1.000
    O28      O        0.38722    0.90501    0.65793    1.000
    O29      O        0.37563    0.79373    0.35429    1.000
    O30      O        0.40883    0.75145    0.17112    1.000
    O31      O        0.12395    0.75393    0.38065    1.000
    O32      O        0.13856    0.71247    0.18662    1.000
    O33      O        0.09269    0.95941    0.61661    1.000
    O34      O        0.91045    0.00052    0.65504    1.000
    O35      O        0.42937    0.95816    0.38516    1.000
    O36      O        0.62048    0.00042    0.37227    1.000
    C13      C        0.18070    0.87664    0.43610    1.000
    C14      C        0.32940    0.87404    0.59180    1.000
    C15      C        0.18670    0.74129    0.27710    1.000
    C16      C        0.33700    0.76360    0.26390    1.000
    C17      C        0.99940    0.98884    0.57860    1.000
    C18      C        0.51460    0.98801    0.43000    1.000
    Cu7      Cu       0.74999    0.29647    0.98376    1.000
    Cu8      Cu       0.73904    0.45434    0.99884    1.000
    O37      O        0.89531    0.34605    0.11284    1.000
    O38      O        0.85109    0.40994    0.12851    1.000
    O39      O        0.62185    0.33994    0.86160    1.000
    O40      O        0.61278    0.40501    0.84207    1.000
    O41      O        0.62437    0.29373    0.14571    1.000
    O42      O        0.59117    0.25145    0.32888    1.000
    O43      O        0.87605    0.25393    0.11935    1.000
    O44      O        0.86144    0.21247    0.31338    1.000
    O45      O        0.90731    0.45941    0.88339    1.000
    O46      O        0.08955    0.50052    0.84496    1.000
    O47      O        0.57063    0.45816    0.11484    1.000
    O48      O        0.37952    0.50042    0.12773    1.000
    C19      C        0.81930    0.37664    0.06390    1.000
    C20      C        0.67060    0.37404    0.90820    1.000
    C21      C        0.81330    0.24129    0.22290    1.000
    C22      C        0.66300    0.26360    0.23610    1.000
    C23      C        0.00060    0.48884    0.92140    1.000
    C24      C        0.48540    0.48801    0.07000    1.000
