# CIF file generated by openbabel 3.1.0, see https://openbabel.org
data_I
_chemical_name_common 'ZEDVOV_charged'
_cell_length_a 11.649
_cell_length_b 16.833
_cell_length_c 25.515
_cell_angle_alpha 99.17
_cell_angle_beta 101.55
_cell_angle_gamma 93.41
_space_group_name_H-M_alt 'P 1'
_space_group_name_Hall 'P 1'
loop_
    _symmetry_equiv_pos_as_xyz
    x,y,z
loop_
    _atom_site_label
    _atom_site_type_symbol
    _atom_site_fract_x
    _atom_site_fract_y
    _atom_site_fract_z
    _atom_site_occupancy
    Nd1      Nd       0.92737    0.20720    0.10419    1.000
    Nd2      Nd       0.59629    0.80300    0.30706    1.000
    Nd3      Nd       0.07263    0.79280    0.89581    1.000
    Nd4      Nd       0.40371    0.19700    0.69294    1.000
    H1       H        0.64880    0.94190    0.05370    1.000
    H2       H        0.51630    0.14310    0.99770    1.000
    H3       H        0.73020    0.42570    0.28490    1.000
    H4       H        0.89320    0.42890    0.15970    1.000
    H5       H        0.90130    0.50450    0.07070    1.000
    H6       H        0.06850    0.37800    0.96410    1.000
    H7       H        0.17890    0.07830    0.19310    1.000
    H8       H        0.28550    0.00170    0.25070    1.000
    H9       H        0.45990    0.91860    0.13440    1.000
    H10      H        0.34740    0.99230    0.07520    1.000
    H11      H        0.33660    0.36990    0.28510    1.000
    H12      H        0.45010    0.49540    0.31640    1.000
    H13      H        0.23440    0.60330    0.20980    1.000
    H14      H        0.12130    0.47850    0.17770    1.000
    H15      H        0.88350    0.57110    0.16870    1.000
    H16      H        0.70400    0.56800    0.28890    1.000
    H17      H        0.38110    0.87780    0.45870    1.000
    H18      H        0.66260    0.03890    0.46660    1.000
    H19      H        0.35120    0.05810    0.94630    1.000
    H20      H        0.48370    0.85690    0.00230    1.000
    H21      H        0.26980    0.57430    0.71510    1.000
    H22      H        0.10680    0.57110    0.84030    1.000
    H23      H        0.09870    0.49550    0.92930    1.000
    H24      H        0.93150    0.62200    0.03590    1.000
    H25      H        0.82110    0.92170    0.80690    1.000
    H26      H        0.71450    0.99830    0.74930    1.000
    H27      H        0.54010    0.08140    0.86560    1.000
    H28      H        0.65260    0.00770    0.92480    1.000
    H29      H        0.66340    0.63010    0.71490    1.000
    H30      H        0.54990    0.50460    0.68360    1.000
    H31      H        0.76560    0.39670    0.79020    1.000
    H32      H        0.87870    0.52150    0.82230    1.000
    H33      H        0.11650    0.42890    0.83130    1.000
    H34      H        0.29600    0.43200    0.71110    1.000
    H35      H        0.61890    0.12220    0.54130    1.000
    H36      H        0.33740    0.96110    0.53340    1.000
    C1       C        0.70530    0.10780    0.06030    1.000
    C2       C        0.59660    0.05150    0.03020    1.000
    C3       C        0.58840    0.96310    0.03210    1.000
    C4       C        0.50940    0.08790    0.99840    1.000
    C5       C        0.81890    0.31410    0.21420    1.000
    C6       C        0.81400    0.41210    0.22170    1.000
    C7       C        0.75770    0.45360    0.26050    1.000
    C8       C        0.85750    0.45550    0.18610    1.000
    C9       C        0.95940    0.34660    0.04430    1.000
    C10      C        0.97950    0.42530    0.02070    1.000
    C11      C        0.94040    0.50250    0.04220    1.000
    C12      C        0.04050    0.42540    0.97860    1.000
    C13      C        0.16810    0.08680    0.08900    1.000
    C14      C        0.24710    0.04150    0.12760    1.000
    C15      C        0.23250    0.04530    0.18060    1.000
    C16      C        0.29810    0.99950    0.21570    1.000
    C17      C        0.38310    0.95020    0.19840    1.000
    C18      C        0.40260    0.94890    0.14600    1.000
    C19      C        0.33460    0.99390    0.11020    1.000
    C20      C        0.45290    0.90040    0.23660    1.000
    C21      C        0.14180    0.32630    0.20710    1.000
    C22      C        0.21640    0.41000    0.22800    1.000
    C23      C        0.31540    0.41490    0.26970    1.000
    C24      C        0.38420    0.49210    0.28840    1.000
    C25      C        0.35750    0.56500    0.26630    1.000
    C26      C        0.25660    0.55830    0.22490    1.000
    C27      C        0.18740    0.48190    0.20560    1.000
    C28      C        0.43560    0.64580    0.28410    1.000
    C29      C        0.75870    0.67700    0.22320    1.000
    C30      C        0.78210    0.58530    0.22690    1.000
    C31      C        0.84730    0.54250    0.19020    1.000
    C32      C        0.74150    0.54190    0.26310    1.000
    C33      C        0.55110    0.89660    0.40550    1.000
    C34      C        0.52370    0.94960    0.45490    1.000
    C35      C        0.42760    0.92570    0.47470    1.000
    C36      C        0.59780    0.02430    0.48040    1.000
    C37      C        0.29470    0.89220    0.93970    1.000
    C38      C        0.40340    0.94850    0.96980    1.000
    C39      C        0.41160    0.03690    0.96790    1.000
    C40      C        0.49060    0.91210    0.00160    1.000
    C41      C        0.18110    0.68590    0.78580    1.000
    C42      C        0.18600    0.58790    0.77830    1.000
    C43      C        0.24230    0.54640    0.73950    1.000
    C44      C        0.14250    0.54450    0.81390    1.000
    C45      C        0.04060    0.65340    0.95570    1.000
    C46      C        0.02050    0.57470    0.97930    1.000
    C47      C        0.05960    0.49750    0.95780    1.000
    C48      C        0.95950    0.57460    0.02140    1.000
    C49      C        0.83190    0.91320    0.91100    1.000
    C50      C        0.75290    0.95850    0.87240    1.000
    C51      C        0.76750    0.95470    0.81940    1.000
    C52      C        0.70190    0.00050    0.78430    1.000
    C53      C        0.61690    0.04980    0.80160    1.000
    C54      C        0.59740    0.05110    0.85400    1.000
    C55      C        0.66540    0.00610    0.88980    1.000
    C56      C        0.54710    0.09960    0.76340    1.000
    C57      C        0.85820    0.67370    0.79290    1.000
    C58      C        0.78360    0.59000    0.77200    1.000
    C59      C        0.68460    0.58510    0.73030    1.000
    C60      C        0.61580    0.50790    0.71160    1.000
    C61      C        0.64250    0.43500    0.73370    1.000
    C62      C        0.74340    0.44170    0.77510    1.000
    C63      C        0.81260    0.51810    0.79440    1.000
    C64      C        0.56440    0.35420    0.71590    1.000
    C65      C        0.24130    0.32300    0.77680    1.000
    C66      C        0.21790    0.41470    0.77310    1.000
    C67      C        0.15270    0.45750    0.80980    1.000
    C68      C        0.25850    0.45810    0.73690    1.000
    C69      C        0.44890    0.10340    0.59450    1.000
    C70      C        0.47630    0.05040    0.54510    1.000
    C71      C        0.57240    0.07430    0.52530    1.000
    C72      C        0.40220    0.97570    0.51960    1.000
    O1       O        0.92630    0.10260    0.01320    1.000
    O2       O        0.78100    0.08080    0.09630    1.000
    O3       O        0.97200    0.15300    0.19670    1.000
    O4       O        0.72470    0.18270    0.04930    1.000
    O5       O        0.81250    0.27550    0.16400    1.000
    O6       O        0.76270    0.91160    0.29770    1.000
    O7       O        0.76000    0.77920    0.37950    1.000
    O8       O        0.83020    0.27560    0.25430    1.000
    O9       O        0.02210    0.28460    0.03810    1.000
    O10      O        0.87630    0.34210    0.07020    1.000
    O11      O        0.11470    0.14570    0.11000    1.000
    O12      O        0.15880    0.06200    0.03820    1.000
    O13      O        0.43670    0.90330    0.28430    1.000
    O14      O        0.52880    0.85380    0.21940    1.000
    O15      O        0.06310    0.31980    0.16360    1.000
    O16      O        0.16020    0.26460    0.23340    1.000
    O17      O        0.40900    0.71040    0.26080    1.000
    O18      O        0.52670    0.65310    0.32140    1.000
    O19      O        0.69400    0.71110    0.25340    1.000
    O20      O        0.79710    0.71020    0.18820    1.000
    O21      O        0.49430    0.82410    0.38550    1.000
    O22      O        0.63010    0.92600    0.38390    1.000
    O23      O        0.07370    0.89740    0.98680    1.000
    O24      O        0.21900    0.91920    0.90370    1.000
    O25      O        0.02800    0.84700    0.80330    1.000
    O26      O        0.27530    0.81730    0.95070    1.000
    O27      O        0.18750    0.72450    0.83600    1.000
    O28      O        0.23730    0.08840    0.70230    1.000
    O29      O        0.24000    0.22080    0.62050    1.000
    O30      O        0.16980    0.72440    0.74570    1.000
    O31      O        0.97790    0.71540    0.96190    1.000
    O32      O        0.12370    0.65790    0.92980    1.000
    O33      O        0.88530    0.85430    0.89000    1.000
    O34      O        0.84120    0.93800    0.96180    1.000
    O35      O        0.56330    0.09670    0.71570    1.000
    O36      O        0.47120    0.14620    0.78060    1.000
    O37      O        0.93690    0.68020    0.83640    1.000
    O38      O        0.83980    0.73540    0.76660    1.000
    O39      O        0.59100    0.28960    0.73920    1.000
    O40      O        0.47330    0.34690    0.67860    1.000
    O41      O        0.30600    0.28890    0.74660    1.000
    O42      O        0.20290    0.28980    0.81180    1.000
    O43      O        0.50570    0.17590    0.61450    1.000
    O44      O        0.36990    0.07400    0.61610    1.000
    H37      H        0.23390    0.25350    0.31260    1.000
    H38      H        0.22650    0.24770    0.46630    1.000
    H39      H        0.39310    0.17300    0.44570    1.000
    H40      H        0.51270    0.10010    0.39050    1.000
    H41      H        0.63870    0.05000    0.33580    1.000
    H42      H        0.63170    0.09420    0.25220    1.000
    H43      H        0.32320    0.23890    0.19950    1.000
    H44      H        0.64380    0.17790    0.18200    1.000
    H45      H        0.55710    0.24240    0.10510    1.000
    H46      H        0.32060    0.26980    0.06680    1.000
    H47      H        0.25160    0.29310    0.11290    1.000
    H48      H        0.27190    0.40310    0.03500    1.000
    H49      H        0.32870    0.54230    0.03670    1.000
    H50      H        0.53730    0.55460    0.18290    1.000
    H51      H        0.48440    0.41370    0.18050    1.000
    H52      H        0.51800    0.66380    0.08320    1.000
    H53      H        0.52680    0.68220    0.14620    1.000
    H54      H        0.32570    0.72140    0.17670    1.000
    H55      H        0.34570    0.72930    0.02340    1.000
    H56      H        0.17300    0.79670    0.04030    1.000
    H57      H        0.05000    0.87420    0.09280    1.000
    H58      H        0.93100    0.93170    0.14780    1.000
    H59      H        0.93440    0.89090    0.23170    1.000
    H60      H        0.23550    0.73840    0.28620    1.000
    H61      H        0.91720    0.80520    0.30140    1.000
    H62      H        0.99610    0.73730    0.37750    1.000
    H63      H        0.30210    0.68560    0.37430    1.000
    H64      H        0.23060    0.70920    0.41930    1.000
    H65      H        0.30080    0.57360    0.44820    1.000
    H66      H        0.25720    0.43530    0.44700    1.000
    H67      H        0.01060    0.42410    0.31220    1.000
    H68      H        0.05800    0.56210    0.31040    1.000
    H69      H        0.03950    0.29580    0.34610    1.000
    H70      H        0.05370    0.31480    0.40920    1.000
    C73      C        0.25360    0.24410    0.34810    1.000
    C74      C        0.25010    0.23990    0.43330    1.000
    C75      C        0.34270    0.19870    0.42210    1.000
    C76      C        0.42780    0.16970    0.33750    1.000
    C77      C        0.51030    0.11540    0.35690    1.000
    C78      C        0.58600    0.08650    0.32470    1.000
    C79      C        0.58230    0.11280    0.27500    1.000
    C80      C        0.50030    0.16860    0.26110    1.000
    C81      C        0.39110    0.23210    0.18610    1.000
    C82      C        0.57040    0.19790    0.17600    1.000
    C83      C        0.52230    0.23360    0.13370    1.000
    C84      C        0.32860    0.29710    0.10400    1.000
    C85      C        0.37210    0.39210    0.10800    1.000
    C86      C        0.32540    0.43200    0.06500    1.000
    C87      C        0.35940    0.51850    0.06630    1.000
    C88      C        0.43610    0.56500    0.11080    1.000
    C89      C        0.48370    0.52560    0.15300    1.000
    C90      C        0.45090    0.43790    0.15150    1.000
    C91      C        0.47470    0.65980    0.11160    1.000
    C92      C        0.30900    0.73090    0.14120    1.000
    C93      C        0.31900    0.73590    0.05570    1.000
    C94      C        0.22420    0.77320    0.06490    1.000
    C95      C        0.13310    0.80590    0.14780    1.000
    C96      C        0.05280    0.86130    0.12720    1.000
    C97      C        0.98130    0.89400    0.15930    1.000
    C98      C        0.98410    0.87070    0.20950    1.000
    C99      C        0.06500    0.81560    0.22550    1.000
    C100     C        0.16710    0.74600    0.29910    1.000
    C101     C        0.98930    0.78360    0.30750    1.000
    C102     C        0.03350    0.74590    0.34970    1.000
    C103     C        0.22440    0.68100    0.38240    1.000
    C104     C        0.18540    0.58800    0.37990    1.000
    C105     C        0.24250    0.54510    0.42000    1.000
    C106     C        0.21520    0.45910    0.41950    1.000
    C107     C        0.12910    0.41170    0.37950    1.000
    C108     C        0.07040    0.45300    0.33960    1.000
    C109     C        0.09830    0.53920    0.33870    1.000
    C110     C        0.09420    0.31840    0.37990    1.000
    N1       N        0.19710    0.26790    0.38640    1.000
    N2       N        0.34660    0.20300    0.36830    1.000
    N3       N        0.42370    0.19730    0.29020    1.000
    N4       N        0.48580    0.19730    0.20960    1.000
    N5       N        0.41050    0.25490    0.14060    1.000
    N6       N        0.37030    0.70890    0.10320    1.000
    N7       N        0.21710    0.77000    0.11840    1.000
    N8       N        0.13750    0.78040    0.19580    1.000
    N9       N        0.07260    0.78320    0.27560    1.000
    N10      N        0.14280    0.72270    0.34440    1.000
    H71      H        0.84840    0.49060    0.42520    1.000
    H72      H        0.10240    0.62620    0.54060    1.000
    H73      H        0.15160    0.50940    0.57480    1.000
    H74      H        0.89760    0.37380    0.45940    1.000
    C111     C        0.93040    0.65530    0.45980    1.000
    C112     C        0.96720    0.57470    0.48000    1.000
    C113     C        0.90910    0.49510    0.45570    1.000
    C114     C        0.05980    0.57710    0.52400    1.000
    C115     C        0.06960    0.34470    0.54020    1.000
    C116     C        0.03280    0.42530    0.52000    1.000
    C117     C        0.09090    0.50490    0.54430    1.000
    C118     C        0.94020    0.42290    0.47600    1.000
    O45      O        0.98620    0.72670    0.48310    1.000
    O46      O        0.84400    0.64710    0.42040    1.000
    O47      O        0.01380    0.27330    0.51690    1.000
    O48      O        0.15600    0.35290    0.57960    1.000
    H75      H        0.76610    0.74650    0.68740    1.000
    H76      H        0.77350    0.75230    0.53370    1.000
    H77      H        0.60690    0.82700    0.55430    1.000
    H78      H        0.48730    0.89990    0.60950    1.000
    H79      H        0.36130    0.95000    0.66420    1.000
    H80      H        0.36830    0.90580    0.74780    1.000
    H81      H        0.67680    0.76110    0.80050    1.000
    H82      H        0.35620    0.82210    0.81800    1.000
    H83      H        0.44290    0.75760    0.89490    1.000
    H84      H        0.67940    0.73020    0.93320    1.000
    H85      H        0.74840    0.70690    0.88710    1.000
    H86      H        0.72810    0.59690    0.96500    1.000
    H87      H        0.67130    0.45770    0.96330    1.000
    H88      H        0.46270    0.44540    0.81710    1.000
    H89      H        0.51560    0.58630    0.81950    1.000
    H90      H        0.48200    0.33620    0.91680    1.000
    H91      H        0.47320    0.31780    0.85380    1.000
    H92      H        0.67430    0.27860    0.82330    1.000
    H93      H        0.65430    0.27070    0.97660    1.000
    H94      H        0.82700    0.20330    0.95970    1.000
    H95      H        0.95000    0.12580    0.90720    1.000
    H96      H        0.06900    0.06830    0.85220    1.000
    H97      H        0.06560    0.10910    0.76830    1.000
    H98      H        0.76450    0.26160    0.71380    1.000
    H99      H        0.08280    0.19480    0.69860    1.000
    H100     H        0.00390    0.26270    0.62250    1.000
    H101     H        0.69790    0.31440    0.62570    1.000
    H102     H        0.76940    0.29080    0.58070    1.000
    H103     H        0.69920    0.42640    0.55180    1.000
    H104     H        0.74280    0.56470    0.55300    1.000
    H105     H        0.98940    0.57590    0.68780    1.000
    H106     H        0.94200    0.43790    0.68960    1.000
    H107     H        0.96050    0.70420    0.65390    1.000
    H108     H        0.94630    0.68520    0.59080    1.000
    C119     C        0.74640    0.75590    0.65190    1.000
    C120     C        0.74990    0.76010    0.56670    1.000
    C121     C        0.65730    0.80130    0.57790    1.000
    C122     C        0.57220    0.83030    0.66250    1.000
    C123     C        0.48970    0.88460    0.64310    1.000
    C124     C        0.41400    0.91350    0.67530    1.000
    C125     C        0.41770    0.88720    0.72500    1.000
    C126     C        0.49970    0.83140    0.73890    1.000
    C127     C        0.60890    0.76790    0.81390    1.000
    C128     C        0.42960    0.80210    0.82400    1.000
    C129     C        0.47770    0.76640    0.86630    1.000
    C130     C        0.67140    0.70290    0.89600    1.000
    C131     C        0.62790    0.60790    0.89200    1.000
    C132     C        0.67460    0.56800    0.93500    1.000
    C133     C        0.64060    0.48150    0.93370    1.000
    C134     C        0.56390    0.43500    0.88920    1.000
    C135     C        0.51630    0.47440    0.84700    1.000
    C136     C        0.54910    0.56210    0.84850    1.000
    C137     C        0.52530    0.34020    0.88840    1.000
    C138     C        0.69100    0.26910    0.85880    1.000
    C139     C        0.68100    0.26410    0.94430    1.000
    C140     C        0.77580    0.22680    0.93510    1.000
    C141     C        0.86690    0.19410    0.85220    1.000
    C142     C        0.94720    0.13870    0.87280    1.000
    C143     C        0.01870    0.10600    0.84070    1.000
    C144     C        0.01590    0.12930    0.79050    1.000
    C145     C        0.93500    0.18440    0.77450    1.000
    C146     C        0.83290    0.25400    0.70090    1.000
    C147     C        0.01070    0.21640    0.69250    1.000
    C148     C        0.96650    0.25410    0.65030    1.000
    C149     C        0.77560    0.31900    0.61760    1.000
    C150     C        0.81460    0.41200    0.62010    1.000
    C151     C        0.75750    0.45490    0.58000    1.000
    C152     C        0.78480    0.54090    0.58050    1.000
    C153     C        0.87090    0.58830    0.62050    1.000
    C154     C        0.92960    0.54700    0.66040    1.000
    C155     C        0.90170    0.46080    0.66130    1.000
    C156     C        0.90580    0.68160    0.62010    1.000
    N11      N        0.80290    0.73210    0.61360    1.000
    N12      N        0.65340    0.79700    0.63170    1.000
    N13      N        0.57630    0.80270    0.70980    1.000
    N14      N        0.51420    0.80270    0.79040    1.000
    N15      N        0.58950    0.74510    0.85940    1.000
    N16      N        0.62970    0.29110    0.89680    1.000
    N17      N        0.78290    0.23000    0.88160    1.000
    N18      N        0.86250    0.21960    0.80420    1.000
    N19      N        0.92740    0.21680    0.72440    1.000
    N20      N        0.85720    0.27730    0.65560    1.000
