data_functionalizedCrystal
_audit_creation_method	'EQeq! by Chris Wilmer'
_symmetry_space_group_name_H-M	'P1'
_symmetry_Int_Tables_number	1
_symmetry_cell_setting	triclinic
loop_
_symmetry_equiv_pos_as_xyz
  x,y,z
_cell_length_a	18.5924
_cell_length_b	18.5924
_cell_length_c	42.2293
_cell_angle_alpha	90
_cell_angle_beta	90
_cell_angle_gamma	90
loop_
_atom_site_label
_atom_site_type_symbol
_atom_site_fract_x
_atom_site_fract_y
_atom_site_fract_z
_atom_site_charge
Mof_C 	C 	0.0052	0.3224	0.39385	0.255
Mof_C 	C 	0.0392	0.2795	0.41608	-0.165
Mof_C 	C 	0.0933	0.313	0.43468	0.029
Mof_C 	C 	0.1102	0.3827	0.4309	-0.117
Mof_H 	H 	0.1467	0.4027	0.4431	0.089
Mof_C 	C 	0.0728	0.4268	0.4084	0.096
Mof_H 	H 	0.0826	0.4755	0.4061	-0
Mof_C 	C 	0.0214	0.3925	0.39026	-0.24
Mof_H 	H 	0.997	0.4189	0.375	0.124
Mof_C 	C 	0.9629	0.2872	0.34365	0.22
Mof_C 	C 	0.903	0.2937	0.32463	-0.162
Mof_H 	H 	0.8587	0.3056	0.3334	0.114
Mof_C 	C 	0.9089	0.2826	0.29296	0.003
Mof_C 	C 	0.9741	0.2648	0.27967	-0.054
Mof_H 	H 	0.9771	0.2544	0.2582	0.078
Mof_C 	C 	0.0358	0.2623	0.2986	-0.003
Mof_C 	C 	0.03	0.2733	0.33104	-0.165
Mof_H 	H 	0.0704	0.2713	0.344	0.114
Mof_C 	C 	0.0206	0.2011	0.41618	0.412
Mof_C 	C 	0.1345	0.2693	0.45869	0.335
Mof_C 	C 	0.1074	0.2456	0.28386	0.333
Mof_C 	C 	0.8423	0.2847	0.27301	0.317
Mof_O 	O 	0.0593	0.1614	0.39978	-0.418
Mof_O 	O 	0.9657	0.1824	0.43239	-0.441
Mof_O 	O 	0.1082	0.2134	0.46826	-0.423
Mof_O 	O 	0.1938	0.2986	0.46791	-0.399
Mof_O 	O 	0.1624	0.2667	0.29798	-0.401
Mof_O 	O 	0.1058	0.2121	0.25795	-0.401
Mof_O 	O 	0.8451	0.2577	0.2457	-0.393
Mof_O 	O 	0.788	0.3149	0.28546	-0.395
Mof_O 	O 	0.9506	0.2909	0.37597	-0.279
Mof_C 	C 	0.9948	0.6776	0.39385	0.254
Mof_C 	C 	0.9608	0.7205	0.41608	-0.166
Mof_C 	C 	0.9067	0.687	0.43468	0.028
Mof_C 	C 	0.8898	0.6173	0.4309	-0.118
Mof_H 	H 	0.8533	0.5973	0.4431	0.088
Mof_C 	C 	0.9272	0.5732	0.4084	0.095
Mof_H 	H 	0.9174	0.5245	0.4061	-0
Mof_C 	C 	0.9786	0.6075	0.39026	-0.24
Mof_H 	H 	0.003	0.5811	0.375	0.124
Mof_C 	C 	0.0371	0.7128	0.34365	0.22
Mof_C 	C 	0.097	0.7063	0.32463	-0.162
Mof_H 	H 	0.1413	0.6944	0.3334	0.114
Mof_C 	C 	0.0911	0.7174	0.29296	0.003
Mof_C 	C 	0.0259	0.7352	0.27967	-0.054
Mof_H 	H 	0.0229	0.7456	0.2582	0.078
Mof_C 	C 	0.9642	0.7377	0.2986	-0.003
Mof_C 	C 	0.97	0.7267	0.33104	-0.165
Mof_H 	H 	0.9296	0.7287	0.344	0.114
Mof_C 	C 	0.9794	0.7989	0.41618	0.412
Mof_C 	C 	0.8655	0.7307	0.45869	0.335
Mof_C 	C 	0.8926	0.7544	0.28386	0.333
Mof_C 	C 	0.1577	0.7153	0.27301	0.317
Mof_O 	O 	0.9407	0.8386	0.39978	-0.418
Mof_O 	O 	0.0343	0.8176	0.43239	-0.441
Mof_O 	O 	0.8918	0.7866	0.46826	-0.423
Mof_O 	O 	0.8062	0.7014	0.46791	-0.399
Mof_O 	O 	0.8376	0.7333	0.29798	-0.401
Mof_O 	O 	0.8942	0.7879	0.25795	-0.401
Mof_O 	O 	0.1549	0.7423	0.2457	-0.393
Mof_O 	O 	0.212	0.6851	0.28546	-0.395
Mof_O 	O 	0.0494	0.7091	0.37597	-0.279
Mof_C 	C 	0.1776	0.5052	0.89385	0.256
Mof_C 	C 	0.2205	0.5392	0.91608	-0.167
Mof_C 	C 	0.187	0.5933	0.93468	0.03
Mof_C 	C 	0.1173	0.6102	0.9309	-0.118
Mof_H 	H 	0.0973	0.6467	0.9431	0.089
Mof_C 	C 	0.0732	0.5728	0.9084	0.095
Mof_H 	H 	0.0245	0.5826	0.9061	0
Mof_C 	C 	0.1075	0.5214	0.89026	-0.24
Mof_H 	H 	0.0811	0.497	0.875	0.123
Mof_C 	C 	0.2128	0.4629	0.84365	0.219
Mof_C 	C 	0.2063	0.403	0.82463	-0.162
Mof_H 	H 	0.1944	0.3587	0.8334	0.114
Mof_C 	C 	0.2174	0.4089	0.79296	0.004
Mof_C 	C 	0.2352	0.4741	0.77967	-0.056
Mof_H 	H 	0.2456	0.4771	0.7582	0.078
Mof_C 	C 	0.2377	0.5358	0.7986	-0.002
Mof_C 	C 	0.2267	0.53	0.83104	-0.164
Mof_H 	H 	0.2287	0.5704	0.844	0.113
Mof_C 	C 	0.2989	0.5206	0.91618	0.415
Mof_C 	C 	0.2307	0.6345	0.95869	0.334
Mof_C 	C 	0.2544	0.6074	0.78386	0.333
Mof_C 	C 	0.2153	0.3423	0.77301	0.317
Mof_O 	O 	0.3386	0.5593	0.89978	-0.418
Mof_O 	O 	0.3176	0.4657	0.93239	-0.442
Mof_O 	O 	0.2866	0.6082	0.96826	-0.42
Mof_O 	O 	0.2014	0.6938	0.96791	-0.396
Mof_O 	O 	0.2333	0.6624	0.79798	-0.401
Mof_O 	O 	0.2879	0.6058	0.75795	-0.401
Mof_O 	O 	0.2423	0.3451	0.7457	-0.393
Mof_O 	O 	0.1851	0.288	0.78546	-0.395
Mof_O 	O 	0.2091	0.4506	0.87597	-0.28
Mof_C 	C 	0.8224	0.4948	0.89385	0.256
Mof_C 	C 	0.7795	0.4608	0.91608	-0.167
Mof_C 	C 	0.813	0.4067	0.93468	0.03
Mof_C 	C 	0.8827	0.3898	0.9309	-0.118
Mof_H 	H 	0.9027	0.3533	0.9431	0.089
Mof_C 	C 	0.9268	0.4272	0.9084	0.095
Mof_H 	H 	0.9755	0.4174	0.9061	0
Mof_C 	C 	0.8925	0.4786	0.89026	-0.24
Mof_H 	H 	0.9189	0.503	0.875	0.123
Mof_C 	C 	0.7872	0.5371	0.84365	0.219
Mof_C 	C 	0.7937	0.597	0.82463	-0.162
Mof_H 	H 	0.8056	0.6413	0.8334	0.114
Mof_C 	C 	0.7826	0.5911	0.79296	0.004
Mof_C 	C 	0.7648	0.5259	0.77967	-0.056
Mof_H 	H 	0.7544	0.5229	0.7582	0.078
Mof_C 	C 	0.7623	0.4642	0.7986	-0.002
Mof_C 	C 	0.7733	0.47	0.83104	-0.164
Mof_H 	H 	0.7713	0.4296	0.844	0.113
Mof_C 	C 	0.7011	0.4794	0.91618	0.415
Mof_C 	C 	0.7693	0.3655	0.95869	0.334
Mof_C 	C 	0.7456	0.3926	0.78386	0.333
Mof_C 	C 	0.7847	0.6577	0.77301	0.317
Mof_O 	O 	0.6614	0.4407	0.89978	-0.418
Mof_O 	O 	0.6824	0.5343	0.93239	-0.442
Mof_O 	O 	0.7134	0.3918	0.96826	-0.42
Mof_O 	O 	0.7986	0.3062	0.96791	-0.396
Mof_O 	O 	0.7667	0.3376	0.79798	-0.401
Mof_O 	O 	0.7121	0.3942	0.75795	-0.401
Mof_O 	O 	0.7577	0.6549	0.7457	-0.393
Mof_O 	O 	0.8149	0.712	0.78546	-0.395
Mof_O 	O 	0.7909	0.5494	0.87597	-0.28
Mof_C 	C 	0.4948	0.8224	0.10615	0.255
Mof_C 	C 	0.4608	0.7795	0.08392	-0.167
Mof_C 	C 	0.4067	0.813	0.06532	0.028
Mof_C 	C 	0.3898	0.8827	0.0691	-0.118
Mof_H 	H 	0.3533	0.9027	0.0569	0.087
Mof_C 	C 	0.4272	0.9268	0.0916	0.094
Mof_H 	H 	0.4174	0.9755	0.0939	-0
Mof_C 	C 	0.4786	0.8925	0.10974	-0.24
Mof_H 	H 	0.503	0.9189	0.125	0.123
Mof_C 	C 	0.5371	0.7872	0.15635	0.219
Mof_C 	C 	0.597	0.7937	0.17537	-0.162
Mof_H 	H 	0.6413	0.8056	0.1666	0.114
Mof_C 	C 	0.5911	0.7826	0.20704	0.004
Mof_C 	C 	0.5259	0.7648	0.22033	-0.055
Mof_H 	H 	0.5229	0.7544	0.2418	0.078
Mof_C 	C 	0.4642	0.7623	0.2014	-0.002
Mof_C 	C 	0.47	0.7733	0.16896	-0.164
Mof_H 	H 	0.4296	0.7713	0.156	0.114
Mof_C 	C 	0.4794	0.7011	0.08382	0.415
Mof_C 	C 	0.3655	0.7693	0.04131	0.334
Mof_C 	C 	0.3926	0.7456	0.21614	0.333
Mof_C 	C 	0.6577	0.7847	0.22699	0.317
Mof_O 	O 	0.4407	0.6614	0.10022	-0.418
Mof_O 	O 	0.5343	0.6824	0.06761	-0.444
Mof_O 	O 	0.3918	0.7134	0.03174	-0.425
Mof_O 	O 	0.3062	0.7986	0.03209	-0.401
Mof_O 	O 	0.3376	0.7667	0.20202	-0.401
Mof_O 	O 	0.3942	0.7121	0.24205	-0.401
Mof_O 	O 	0.6549	0.7577	0.2543	-0.393
Mof_O 	O 	0.712	0.8149	0.21454	-0.395
Mof_O 	O 	0.5494	0.7909	0.12403	-0.28
Mof_C 	C 	0.5052	0.1776	0.10615	0.255
Mof_C 	C 	0.5392	0.2205	0.08392	-0.167
Mof_C 	C 	0.5933	0.187	0.06532	0.028
Mof_C 	C 	0.6102	0.1173	0.0691	-0.118
Mof_H 	H 	0.6467	0.0973	0.0569	0.087
Mof_C 	C 	0.5728	0.0732	0.0916	0.094
Mof_H 	H 	0.5826	0.0245	0.0939	-0
Mof_C 	C 	0.5214	0.1075	0.10974	-0.24
Mof_H 	H 	0.497	0.0811	0.125	0.123
Mof_C 	C 	0.4629	0.2128	0.15635	0.219
Mof_C 	C 	0.403	0.2063	0.17537	-0.162
Mof_H 	H 	0.3587	0.1944	0.1666	0.114
Mof_C 	C 	0.4089	0.2174	0.20704	0.004
Mof_C 	C 	0.4741	0.2352	0.22033	-0.055
Mof_H 	H 	0.4771	0.2456	0.2418	0.078
Mof_C 	C 	0.5358	0.2377	0.2014	-0.002
Mof_C 	C 	0.53	0.2267	0.16896	-0.164
Mof_H 	H 	0.5704	0.2287	0.156	0.114
Mof_C 	C 	0.5206	0.2989	0.08382	0.415
Mof_C 	C 	0.6345	0.2307	0.04131	0.334
Mof_C 	C 	0.6074	0.2544	0.21614	0.333
Mof_C 	C 	0.3423	0.2153	0.22699	0.317
Mof_O 	O 	0.5593	0.3386	0.10022	-0.418
Mof_O 	O 	0.4657	0.3176	0.06761	-0.444
Mof_O 	O 	0.6082	0.2866	0.03174	-0.425
Mof_O 	O 	0.6938	0.2014	0.03209	-0.401
Mof_O 	O 	0.6624	0.2333	0.20202	-0.401
Mof_O 	O 	0.6058	0.2879	0.24205	-0.401
Mof_O 	O 	0.3451	0.2423	0.2543	-0.393
Mof_O 	O 	0.288	0.1851	0.21454	-0.395
Mof_O 	O 	0.4506	0.2091	0.12403	-0.28
Mof_C 	C 	0.3224	0.0052	0.60615	0.254
Mof_C 	C 	0.2795	0.0392	0.58392	-0.166
Mof_C 	C 	0.313	0.0933	0.56532	0.028
Mof_C 	C 	0.3827	0.1102	0.5691	-0.118
Mof_H 	H 	0.4027	0.1467	0.5569	0.088
Mof_C 	C 	0.4268	0.0728	0.5916	0.094
Mof_H 	H 	0.4755	0.0826	0.5939	-0
Mof_C 	C 	0.3925	0.0214	0.60974	-0.24
Mof_H 	H 	0.4189	0.997	0.625	0.124
Mof_C 	C 	0.2872	0.9629	0.65635	0.22
Mof_C 	C 	0.2937	0.903	0.67537	-0.162
Mof_H 	H 	0.3056	0.8587	0.6666	0.114
Mof_C 	C 	0.2826	0.9089	0.70704	0.003
Mof_C 	C 	0.2648	0.9741	0.72033	-0.054
Mof_H 	H 	0.2544	0.9771	0.7418	0.078
Mof_C 	C 	0.2623	0.0358	0.7014	-0.003
Mof_C 	C 	0.2733	0.03	0.66896	-0.165
Mof_H 	H 	0.2713	0.0704	0.656	0.114
Mof_C 	C 	0.2011	0.0206	0.58382	0.412
Mof_C 	C 	0.2693	0.1345	0.54131	0.335
Mof_C 	C 	0.2456	0.1074	0.71614	0.333
Mof_C 	C 	0.2847	0.8423	0.72699	0.317
Mof_O 	O 	0.1614	0.0593	0.60022	-0.418
Mof_O 	O 	0.1824	0.9657	0.56761	-0.441
Mof_O 	O 	0.2134	0.1082	0.53174	-0.423
Mof_O 	O 	0.2986	0.1938	0.53209	-0.399
Mof_O 	O 	0.2667	0.1624	0.70202	-0.401
Mof_O 	O 	0.2121	0.1058	0.74205	-0.401
Mof_O 	O 	0.2577	0.8451	0.7543	-0.393
Mof_O 	O 	0.3149	0.788	0.71454	-0.395
Mof_O 	O 	0.2909	0.9506	0.62403	-0.279
Mof_C 	C 	0.6776	0.9948	0.60615	0.254
Mof_C 	C 	0.7205	0.9608	0.58392	-0.166
Mof_C 	C 	0.687	0.9067	0.56532	0.028
Mof_C 	C 	0.6173	0.8898	0.5691	-0.118
Mof_H 	H 	0.5973	0.8533	0.5569	0.088
Mof_C 	C 	0.5732	0.9272	0.5916	0.094
Mof_H 	H 	0.5245	0.9174	0.5939	-0
Mof_C 	C 	0.6075	0.9786	0.60974	-0.24
Mof_H 	H 	0.5811	0.003	0.625	0.124
Mof_C 	C 	0.7128	0.0371	0.65635	0.22
Mof_C 	C 	0.7063	0.097	0.67537	-0.162
Mof_H 	H 	0.6944	0.1413	0.6666	0.114
Mof_C 	C 	0.7174	0.0911	0.70704	0.003
Mof_C 	C 	0.7352	0.0259	0.72033	-0.054
Mof_H 	H 	0.7456	0.0229	0.7418	0.078
Mof_C 	C 	0.7377	0.9642	0.7014	-0.003
Mof_C 	C 	0.7267	0.97	0.66896	-0.165
Mof_H 	H 	0.7287	0.9296	0.656	0.114
Mof_C 	C 	0.7989	0.9794	0.58382	0.412
Mof_C 	C 	0.7307	0.8655	0.54131	0.335
Mof_C 	C 	0.7544	0.8926	0.71614	0.333
Mof_C 	C 	0.7153	0.1577	0.72699	0.317
Mof_O 	O 	0.8386	0.9407	0.60022	-0.418
Mof_O 	O 	0.8176	0.0343	0.56761	-0.441
Mof_O 	O 	0.7866	0.8918	0.53174	-0.423
Mof_O 	O 	0.7014	0.8062	0.53209	-0.399
Mof_O 	O 	0.7333	0.8376	0.70202	-0.401
Mof_O 	O 	0.7879	0.8942	0.74205	-0.401
Mof_O 	O 	0.7423	0.1549	0.7543	-0.393
Mof_O 	O 	0.6851	0.212	0.71454	-0.395
Mof_O 	O 	0.7091	0.0494	0.62403	-0.279
Mof_C 	C 	0.9948	0.6776	0.60615	0.254
Mof_C 	C 	0.9608	0.7205	0.58392	-0.166
Mof_C 	C 	0.9067	0.687	0.56532	0.028
Mof_C 	C 	0.8898	0.6173	0.5691	-0.118
Mof_H 	H 	0.8533	0.5973	0.5569	0.088
Mof_C 	C 	0.9272	0.5732	0.5916	0.094
Mof_H 	H 	0.9174	0.5245	0.5939	-0
Mof_C 	C 	0.9786	0.6075	0.60974	-0.24
Mof_H 	H 	0.003	0.5811	0.625	0.124
Mof_C 	C 	0.0371	0.7128	0.65635	0.22
Mof_C 	C 	0.097	0.7063	0.67537	-0.162
Mof_H 	H 	0.1413	0.6944	0.6666	0.114
Mof_C 	C 	0.0911	0.7174	0.70704	0.003
Mof_C 	C 	0.0259	0.7352	0.72033	-0.054
Mof_H 	H 	0.0229	0.7456	0.7418	0.078
Mof_C 	C 	0.9642	0.7377	0.7014	-0.003
Mof_C 	C 	0.97	0.7267	0.66896	-0.165
Mof_H 	H 	0.9296	0.7287	0.656	0.114
Mof_C 	C 	0.9794	0.7989	0.58382	0.412
Mof_C 	C 	0.8655	0.7307	0.54131	0.335
Mof_C 	C 	0.8926	0.7544	0.71614	0.333
Mof_C 	C 	0.1577	0.7153	0.72699	0.317
Mof_O 	O 	0.9407	0.8386	0.60022	-0.418
Mof_O 	O 	0.0343	0.8176	0.56761	-0.441
Mof_O 	O 	0.8918	0.7866	0.53174	-0.423
Mof_O 	O 	0.8062	0.7014	0.53209	-0.399
Mof_O 	O 	0.8376	0.7333	0.70202	-0.401
Mof_O 	O 	0.8942	0.7879	0.74205	-0.401
Mof_O 	O 	0.1549	0.7423	0.7543	-0.393
Mof_O 	O 	0.212	0.6851	0.71454	-0.395
Mof_O 	O 	0.0494	0.7091	0.62403	-0.279
Mof_C 	C 	0.0052	0.3224	0.60615	0.254
Mof_C 	C 	0.0392	0.2795	0.58392	-0.166
Mof_C 	C 	0.0933	0.313	0.56532	0.028
Mof_C 	C 	0.1102	0.3827	0.5691	-0.118
Mof_H 	H 	0.1467	0.4027	0.5569	0.088
Mof_C 	C 	0.0728	0.4268	0.5916	0.094
Mof_H 	H 	0.0826	0.4755	0.5939	-0
Mof_C 	C 	0.0214	0.3925	0.60974	-0.24
Mof_H 	H 	0.997	0.4189	0.625	0.124
Mof_C 	C 	0.9629	0.2872	0.65635	0.22
Mof_C 	C 	0.903	0.2937	0.67537	-0.162
Mof_H 	H 	0.8587	0.3056	0.6666	0.114
Mof_C 	C 	0.9089	0.2826	0.70704	0.003
Mof_C 	C 	0.9741	0.2648	0.72033	-0.054
Mof_H 	H 	0.9771	0.2544	0.7418	0.078
Mof_C 	C 	0.0358	0.2623	0.7014	-0.003
Mof_C 	C 	0.03	0.2733	0.66896	-0.165
Mof_H 	H 	0.0704	0.2713	0.656	0.114
Mof_C 	C 	0.0206	0.2011	0.58382	0.412
Mof_C 	C 	0.1345	0.2693	0.54131	0.335
Mof_C 	C 	0.1074	0.2456	0.71614	0.333
Mof_C 	C 	0.8423	0.2847	0.72699	0.317
Mof_O 	O 	0.0593	0.1614	0.60022	-0.418
Mof_O 	O 	0.9657	0.1824	0.56761	-0.441
Mof_O 	O 	0.1082	0.2134	0.53174	-0.423
Mof_O 	O 	0.1938	0.2986	0.53209	-0.399
Mof_O 	O 	0.1624	0.2667	0.70202	-0.401
Mof_O 	O 	0.1058	0.2121	0.74205	-0.401
Mof_O 	O 	0.8451	0.2577	0.7543	-0.393
Mof_O 	O 	0.788	0.3149	0.71454	-0.395
Mof_O 	O 	0.9506	0.2909	0.62403	-0.279
Mof_C 	C 	0.8224	0.4948	0.10615	0.255
Mof_C 	C 	0.7795	0.4608	0.08392	-0.167
Mof_C 	C 	0.813	0.4067	0.06532	0.028
Mof_C 	C 	0.8827	0.3898	0.0691	-0.118
Mof_H 	H 	0.9027	0.3533	0.0569	0.087
Mof_C 	C 	0.9268	0.4272	0.0916	0.094
Mof_H 	H 	0.9755	0.4174	0.0939	-0
Mof_C 	C 	0.8925	0.4786	0.10974	-0.24
Mof_H 	H 	0.9189	0.503	0.125	0.123
Mof_C 	C 	0.7872	0.5371	0.15635	0.219
Mof_C 	C 	0.7937	0.597	0.17537	-0.162
Mof_H 	H 	0.8056	0.6413	0.1666	0.114
Mof_C 	C 	0.7826	0.5911	0.20704	0.004
Mof_C 	C 	0.7648	0.5259	0.22033	-0.055
Mof_H 	H 	0.7544	0.5229	0.2418	0.078
Mof_C 	C 	0.7623	0.4642	0.2014	-0.002
Mof_C 	C 	0.7733	0.47	0.16896	-0.164
Mof_H 	H 	0.7713	0.4296	0.156	0.114
Mof_C 	C 	0.7011	0.4794	0.08382	0.415
Mof_C 	C 	0.7693	0.3655	0.04131	0.334
Mof_C 	C 	0.7456	0.3926	0.21614	0.333
Mof_C 	C 	0.7847	0.6577	0.22699	0.317
Mof_O 	O 	0.6614	0.4407	0.10022	-0.418
Mof_O 	O 	0.6824	0.5343	0.06761	-0.444
Mof_O 	O 	0.7134	0.3918	0.03174	-0.425
Mof_O 	O 	0.7986	0.3062	0.03209	-0.401
Mof_O 	O 	0.7667	0.3376	0.20202	-0.401
Mof_O 	O 	0.7121	0.3942	0.24205	-0.401
Mof_O 	O 	0.7577	0.6549	0.2543	-0.393
Mof_O 	O 	0.8149	0.712	0.21454	-0.395
Mof_O 	O 	0.7909	0.5494	0.12403	-0.28
Mof_C 	C 	0.1776	0.5052	0.10615	0.255
Mof_C 	C 	0.2205	0.5392	0.08392	-0.167
Mof_C 	C 	0.187	0.5933	0.06532	0.028
Mof_C 	C 	0.1173	0.6102	0.0691	-0.118
Mof_H 	H 	0.0973	0.6467	0.0569	0.087
Mof_C 	C 	0.0732	0.5728	0.0916	0.094
Mof_H 	H 	0.0245	0.5826	0.0939	-0
Mof_C 	C 	0.1075	0.5214	0.10974	-0.24
Mof_H 	H 	0.0811	0.497	0.125	0.123
Mof_C 	C 	0.2128	0.4629	0.15635	0.219
Mof_C 	C 	0.2063	0.403	0.17537	-0.162
Mof_H 	H 	0.1944	0.3587	0.1666	0.114
Mof_C 	C 	0.2174	0.4089	0.20704	0.004
Mof_C 	C 	0.2352	0.4741	0.22033	-0.055
Mof_H 	H 	0.2456	0.4771	0.2418	0.078
Mof_C 	C 	0.2377	0.5358	0.2014	-0.002
Mof_C 	C 	0.2267	0.53	0.16896	-0.164
Mof_H 	H 	0.2287	0.5704	0.156	0.114
Mof_C 	C 	0.2989	0.5206	0.08382	0.415
Mof_C 	C 	0.2307	0.6345	0.04131	0.334
Mof_C 	C 	0.2544	0.6074	0.21614	0.333
Mof_C 	C 	0.2153	0.3423	0.22699	0.317
Mof_O 	O 	0.3386	0.5593	0.10022	-0.418
Mof_O 	O 	0.3176	0.4657	0.06761	-0.444
Mof_O 	O 	0.2866	0.6082	0.03174	-0.425
Mof_O 	O 	0.2014	0.6938	0.03209	-0.401
Mof_O 	O 	0.2333	0.6624	0.20202	-0.401
Mof_O 	O 	0.2879	0.6058	0.24205	-0.401
Mof_O 	O 	0.2423	0.3451	0.2543	-0.393
Mof_O 	O 	0.1851	0.288	0.21454	-0.395
Mof_O 	O 	0.2091	0.4506	0.12403	-0.28
Mof_C 	C 	0.5052	0.1776	0.89385	0.256
Mof_C 	C 	0.5392	0.2205	0.91608	-0.167
Mof_C 	C 	0.5933	0.187	0.93468	0.03
Mof_C 	C 	0.6102	0.1173	0.9309	-0.118
Mof_H 	H 	0.6467	0.0973	0.9431	0.089
Mof_C 	C 	0.5728	0.0732	0.9084	0.095
Mof_H 	H 	0.5826	0.0245	0.9061	0
Mof_C 	C 	0.5214	0.1075	0.89026	-0.24
Mof_H 	H 	0.497	0.0811	0.875	0.123
Mof_C 	C 	0.4629	0.2128	0.84365	0.219
Mof_C 	C 	0.403	0.2063	0.82463	-0.162
Mof_H 	H 	0.3587	0.1944	0.8334	0.114
Mof_C 	C 	0.4089	0.2174	0.79296	0.004
Mof_C 	C 	0.4741	0.2352	0.77967	-0.056
Mof_H 	H 	0.4771	0.2456	0.7582	0.078
Mof_C 	C 	0.5358	0.2377	0.7986	-0.002
Mof_C 	C 	0.53	0.2267	0.83104	-0.164
Mof_H 	H 	0.5704	0.2287	0.844	0.113
Mof_C 	C 	0.5206	0.2989	0.91618	0.415
Mof_C 	C 	0.6345	0.2307	0.95869	0.334
Mof_C 	C 	0.6074	0.2544	0.78386	0.333
Mof_C 	C 	0.3423	0.2153	0.77301	0.317
Mof_O 	O 	0.5593	0.3386	0.89978	-0.418
Mof_O 	O 	0.4657	0.3176	0.93239	-0.442
Mof_O 	O 	0.6082	0.2866	0.96826	-0.42
Mof_O 	O 	0.6938	0.2014	0.96791	-0.396
Mof_O 	O 	0.6624	0.2333	0.79798	-0.401
Mof_O 	O 	0.6058	0.2879	0.75795	-0.401
Mof_O 	O 	0.3451	0.2423	0.7457	-0.393
Mof_O 	O 	0.288	0.1851	0.78546	-0.395
Mof_O 	O 	0.4506	0.2091	0.87597	-0.28
Mof_C 	C 	0.4948	0.8224	0.89385	0.256
Mof_C 	C 	0.4608	0.7795	0.91608	-0.167
Mof_C 	C 	0.4067	0.813	0.93468	0.03
Mof_C 	C 	0.3898	0.8827	0.9309	-0.118
Mof_H 	H 	0.3533	0.9027	0.9431	0.089
Mof_C 	C 	0.4272	0.9268	0.9084	0.095
Mof_H 	H 	0.4174	0.9755	0.9061	0
Mof_C 	C 	0.4786	0.8925	0.89026	-0.24
Mof_H 	H 	0.503	0.9189	0.875	0.123
Mof_C 	C 	0.5371	0.7872	0.84365	0.219
Mof_C 	C 	0.597	0.7937	0.82463	-0.162
Mof_H 	H 	0.6413	0.8056	0.8334	0.114
Mof_C 	C 	0.5911	0.7826	0.79296	0.004
Mof_C 	C 	0.5259	0.7648	0.77967	-0.056
Mof_H 	H 	0.5229	0.7544	0.7582	0.078
Mof_C 	C 	0.4642	0.7623	0.7986	-0.002
Mof_C 	C 	0.47	0.7733	0.83104	-0.164
Mof_H 	H 	0.4296	0.7713	0.844	0.113
Mof_C 	C 	0.4794	0.7011	0.91618	0.415
Mof_C 	C 	0.3655	0.7693	0.95869	0.334
Mof_C 	C 	0.3926	0.7456	0.78386	0.333
Mof_C 	C 	0.6577	0.7847	0.77301	0.317
Mof_O 	O 	0.4407	0.6614	0.89978	-0.418
Mof_O 	O 	0.5343	0.6824	0.93239	-0.442
Mof_O 	O 	0.3918	0.7134	0.96826	-0.42
Mof_O 	O 	0.3062	0.7986	0.96791	-0.396
Mof_O 	O 	0.3376	0.7667	0.79798	-0.401
Mof_O 	O 	0.3942	0.7121	0.75795	-0.401
Mof_O 	O 	0.6549	0.7577	0.7457	-0.393
Mof_O 	O 	0.712	0.8149	0.78546	-0.395
Mof_O 	O 	0.5494	0.7909	0.87597	-0.28
Mof_C 	C 	0.6776	0.9948	0.39385	0.254
Mof_C 	C 	0.7205	0.9608	0.41608	-0.166
Mof_C 	C 	0.687	0.9067	0.43468	0.028
Mof_C 	C 	0.6173	0.8898	0.4309	-0.118
Mof_H 	H 	0.5973	0.8533	0.4431	0.088
Mof_C 	C 	0.5732	0.9272	0.4084	0.095
Mof_H 	H 	0.5245	0.9174	0.4061	-0
Mof_C 	C 	0.6075	0.9786	0.39026	-0.24
Mof_H 	H 	0.5811	0.003	0.375	0.124
Mof_C 	C 	0.7128	0.0371	0.34365	0.22
Mof_C 	C 	0.7063	0.097	0.32463	-0.162
Mof_H 	H 	0.6944	0.1413	0.3334	0.114
Mof_C 	C 	0.7174	0.0911	0.29296	0.003
Mof_C 	C 	0.7352	0.0259	0.27967	-0.054
Mof_H 	H 	0.7456	0.0229	0.2582	0.078
Mof_C 	C 	0.7377	0.9642	0.2986	-0.003
Mof_C 	C 	0.7267	0.97	0.33104	-0.165
Mof_H 	H 	0.7287	0.9296	0.344	0.114
Mof_C 	C 	0.7989	0.9794	0.41618	0.412
Mof_C 	C 	0.7307	0.8655	0.45869	0.335
Mof_C 	C 	0.7544	0.8926	0.28386	0.333
Mof_C 	C 	0.7153	0.1577	0.27301	0.317
Mof_O 	O 	0.8386	0.9407	0.39978	-0.418
Mof_O 	O 	0.8176	0.0343	0.43239	-0.441
Mof_O 	O 	0.7866	0.8918	0.46826	-0.423
Mof_O 	O 	0.7014	0.8062	0.46791	-0.399
Mof_O 	O 	0.7333	0.8376	0.29798	-0.401
Mof_O 	O 	0.7879	0.8942	0.25795	-0.401
Mof_O 	O 	0.7423	0.1549	0.2457	-0.393
Mof_O 	O 	0.6851	0.212	0.28546	-0.395
Mof_O 	O 	0.7091	0.0494	0.37597	-0.279
Mof_C 	C 	0.3224	0.0052	0.39385	0.254
Mof_C 	C 	0.2795	0.0392	0.41608	-0.166
Mof_C 	C 	0.313	0.0933	0.43468	0.028
Mof_C 	C 	0.3827	0.1102	0.4309	-0.118
Mof_H 	H 	0.4027	0.1467	0.4431	0.088
Mof_C 	C 	0.4268	0.0728	0.4084	0.095
Mof_H 	H 	0.4755	0.0826	0.4061	-0
Mof_C 	C 	0.3925	0.0214	0.39026	-0.24
Mof_H 	H 	0.4189	0.997	0.375	0.124
Mof_C 	C 	0.2872	0.9629	0.34365	0.22
Mof_C 	C 	0.2937	0.903	0.32463	-0.162
Mof_H 	H 	0.3056	0.8587	0.3334	0.114
Mof_C 	C 	0.2826	0.9089	0.29296	0.003
Mof_C 	C 	0.2648	0.9741	0.27967	-0.054
Mof_H 	H 	0.2544	0.9771	0.2582	0.078
Mof_C 	C 	0.2623	0.0358	0.2986	-0.003
Mof_C 	C 	0.2733	0.03	0.33104	-0.165
Mof_H 	H 	0.2713	0.0704	0.344	0.114
Mof_C 	C 	0.2011	0.0206	0.41618	0.412
Mof_C 	C 	0.2693	0.1345	0.45869	0.335
Mof_C 	C 	0.2456	0.1074	0.28386	0.333
Mof_C 	C 	0.2847	0.8423	0.27301	0.317
Mof_O 	O 	0.1614	0.0593	0.39978	-0.418
Mof_O 	O 	0.1824	0.9657	0.43239	-0.441
Mof_O 	O 	0.2134	0.1082	0.46826	-0.423
Mof_O 	O 	0.2986	0.1938	0.46791	-0.399
Mof_O 	O 	0.2667	0.1624	0.29798	-0.401
Mof_O 	O 	0.2121	0.1058	0.25795	-0.401
Mof_O 	O 	0.2577	0.8451	0.2457	-0.393
Mof_O 	O 	0.3149	0.788	0.28546	-0.395
Mof_O 	O 	0.2909	0.9506	0.37597	-0.279
Mof_Cu	Cu	0.05655	0.05655	0.39513	0.889
Mof_Cu	Cu	0.25859	0.25859	0.28004	0.905
Mof_Cu	Cu	0.19182	0.19182	0.2329	0.904
Mof_Cu	Cu	0.94345	0.94345	0.39513	0.889
Mof_Cu	Cu	0.74141	0.74141	0.28004	0.905
Mof_Cu	Cu	0.80818	0.80818	0.2329	0.904
Mof_Cu	Cu	0.44345	0.55655	0.89513	0.89
Mof_Cu	Cu	0.24141	0.75859	0.78004	0.905
Mof_Cu	Cu	0.30818	0.69182	0.7329	0.904
Mof_Cu	Cu	0.55655	0.44345	0.89513	0.89
Mof_Cu	Cu	0.75859	0.24141	0.78004	0.905
Mof_Cu	Cu	0.69182	0.30818	0.7329	0.904
Mof_Cu	Cu	0.44345	0.55655	0.10487	0.89
Mof_Cu	Cu	0.24141	0.75859	0.21996	0.905
Mof_Cu	Cu	0.30818	0.69182	0.2671	0.904
Mof_Cu	Cu	0.55655	0.44345	0.10487	0.89
Mof_Cu	Cu	0.75859	0.24141	0.21996	0.905
Mof_Cu	Cu	0.69182	0.30818	0.2671	0.904
Mof_Cu	Cu	0.05655	0.05655	0.60487	0.889
Mof_Cu	Cu	0.25859	0.25859	0.71996	0.905
Mof_Cu	Cu	0.19182	0.19182	0.7671	0.904
Mof_Cu	Cu	0.94345	0.94345	0.60487	0.889
Mof_Cu	Cu	0.74141	0.74141	0.71996	0.905
Mof_Cu	Cu	0.80818	0.80818	0.7671	0.904
Mof_Cu	Cu	0.90633	0.09367	0.43252	0.854
Mof_O 	O 	0.9504	0.0496	0.39543	-0.565
Mof_Cu	Cu	0.09367	0.90633	0.43252	0.854
Mof_O 	O 	0.0496	0.9504	0.39543	-0.565
Mof_Cu	Cu	0.40633	0.40633	0.93252	0.854
Mof_O 	O 	0.4504	0.4504	0.89543	-0.566
Mof_Cu	Cu	0.59367	0.59367	0.93252	0.854
Mof_O 	O 	0.5496	0.5496	0.89543	-0.566
Mof_Cu	Cu	0.59367	0.59367	0.06748	0.853
Mof_O 	O 	0.5496	0.5496	0.10457	-0.566
Mof_Cu	Cu	0.40633	0.40633	0.06748	0.853
Mof_O 	O 	0.4504	0.4504	0.10457	-0.566
Mof_Cu	Cu	0.09367	0.90633	0.56748	0.854
Mof_O 	O 	0.0496	0.9504	0.60457	-0.565
Mof_Cu	Cu	0.90633	0.09367	0.56748	0.854
Mof_O 	O 	0.9504	0.0496	0.60457	-0.565
Mof_Cu	Cu	0.15412	0.15412	0.5	0.896
Mof_Cu	Cu	0.25497	0.25497	0.5	0.905
Mof_Cu	Cu	0.84588	0.84588	0.5	0.896
Mof_Cu	Cu	0.74503	0.74503	0.5	0.905
Mof_Cu	Cu	0.34588	0.65412	-0	0.893
Mof_Cu	Cu	0.24503	0.75497	-0	0.902
Mof_Cu	Cu	0.65412	0.34588	-0	0.893
Mof_Cu	Cu	0.75497	0.24503	-0	0.902
_end
