# CIF file generated by openbabel 3.1.0, see https://openbabel.org
data_I
_chemical_name_common 'image0'
_cell_length_a 8.5269
_cell_length_b 26.774
_cell_length_c 12.05
_cell_angle_alpha 90
_cell_angle_beta 105.38
_cell_angle_gamma 90
_space_group_name_H-M_alt 'P 1'
_space_group_name_Hall 'P 1'
loop_
    _symmetry_equiv_pos_as_xyz
    x,y,z
loop_
    _atom_site_label
    _atom_site_type_symbol
    _atom_site_fract_x
    _atom_site_fract_y
    _atom_site_fract_z
    _atom_site_occupancy
    Gd1      Gd       0.21817    0.48156    0.48323    1.000
    Cu1      Cu       0.90559    0.30212    0.98927    1.000
    O1       O        0.01060    0.44080    0.34190    1.000
    O2       O        0.78220    0.44840    0.39930    1.000
    O3       O        0.04650    0.45690    0.59630    1.000
    O4       O        0.82360    0.44870    0.65140    1.000
    O5       O        0.42670    0.46820    0.65780    1.000
    O6       O        0.58820    0.52600    0.61860    1.000
    N1       N        0.78370    0.33760    0.09120    1.000
    N2       N        0.03260    0.33850    0.89020    1.000
    N3       N        0.82010    0.53760    0.97310    1.000
    C1       C        0.85820    0.37100    0.17430    1.000
    H1       H        0.96660    0.37890    0.18150    1.000
    C2       C        0.78030    0.39340    0.24780    1.000
    C3       C        0.61930    0.38160    0.23770    1.000
    H2       H        0.56250    0.39690    0.28450    1.000
    C4       C        0.54440    0.34660    0.15650    1.000
    H3       H        0.43720    0.33740    0.15000    1.000
    C5       C        0.62830    0.32530    0.08480    1.000
    H4       H        0.57610    0.30180    0.03070    1.000
    C6       C        0.86480    0.43020    0.33640    1.000
    C7       C        0.96380    0.37340    0.81180    1.000
    H5       H        0.85650    0.38250    0.80510    1.000
    C8       C        0.04660    0.39650    0.74020    1.000
    C9       C        0.20610    0.38230    0.74980    1.000
    H6       H        0.26480    0.39710    0.70360    1.000
    C10      C        0.27680    0.34600    0.82840    1.000
    H7       H        0.38290    0.33540    0.83530    1.000
    C11      C        0.18570    0.32580    0.89650    1.000
    H8       H        0.23430    0.30170    0.95020    1.000
    C12      C        0.96780    0.43620    0.65810    1.000
    C13      C        0.74210    0.53580    0.85600    1.000
    H9       H        0.76660    0.55950    0.80690    1.000
    C14      C        0.63110    0.49990    0.81260    1.000
    C15      C        0.60010    0.46530    0.89010    1.000
    H10      H        0.52090    0.44120    0.86160    1.000
    C16      C        0.67400    0.46400    0.00040    1.000
    H11      H        0.65530    0.43860    0.04790    1.000
    C17      C        0.77600    0.50040    0.04040    1.000
    H12      H        0.82270    0.50160    0.11940    1.000
    C18      C        0.54330    0.49730    0.68870    1.000
    Gd2      Gd       0.78183    0.98156    0.51677    1.000
    Cu2      Cu       0.09441    0.80212    0.01073    1.000
    O7       O        0.98940    0.94080    0.65810    1.000
    O8       O        0.21780    0.94840    0.60070    1.000
    O9       O        0.95350    0.95690    0.40370    1.000
    O10      O        0.17640    0.94870    0.34860    1.000
    O11      O        0.57330    0.96820    0.34220    1.000
    O12      O        0.41180    0.02600    0.38140    1.000
    N4       N        0.21630    0.83760    0.90880    1.000
    N5       N        0.96740    0.83850    0.10980    1.000
    N6       N        0.17990    0.03760    0.02690    1.000
    C19      C        0.14180    0.87100    0.82570    1.000
    H13      H        0.03340    0.87890    0.81850    1.000
    C20      C        0.21970    0.89340    0.75220    1.000
    C21      C        0.38070    0.88160    0.76230    1.000
    H14      H        0.43750    0.89690    0.71550    1.000
    C22      C        0.45560    0.84660    0.84350    1.000
    H15      H        0.56280    0.83740    0.85000    1.000
    C23      C        0.37170    0.82530    0.91520    1.000
    H16      H        0.42390    0.80180    0.96930    1.000
    C24      C        0.13520    0.93020    0.66360    1.000
    C25      C        0.03620    0.87340    0.18820    1.000
    H17      H        0.14350    0.88250    0.19490    1.000
    C26      C        0.95340    0.89650    0.25980    1.000
    C27      C        0.79390    0.88230    0.25020    1.000
    H18      H        0.73520    0.89710    0.29640    1.000
    C28      C        0.72320    0.84600    0.17160    1.000
    H19      H        0.61710    0.83540    0.16470    1.000
    C29      C        0.81430    0.82580    0.10350    1.000
    H20      H        0.76570    0.80170    0.04980    1.000
    C30      C        0.03220    0.93620    0.34190    1.000
    C31      C        0.25790    0.03580    0.14400    1.000
    H21      H        0.23340    0.05950    0.19310    1.000
    C32      C        0.36890    0.99990    0.18740    1.000
    C33      C        0.39990    0.96530    0.10990    1.000
    H22      H        0.47910    0.94120    0.13840    1.000
    C34      C        0.32600    0.96400    0.99960    1.000
    H23      H        0.34470    0.93860    0.95210    1.000
    C35      C        0.22400    0.00040    0.95960    1.000
    H24      H        0.17730    0.00160    0.88060    1.000
    C36      C        0.45670    0.99730    0.31130    1.000
    Gd3      Gd       0.78183    0.51844    0.51677    1.000
    Cu3      Cu       0.09441    0.69788    0.01073    1.000
    O13      O        0.98940    0.55920    0.65810    1.000
    O14      O        0.21780    0.55160    0.60070    1.000
    O15      O        0.95350    0.54310    0.40370    1.000
    O16      O        0.17640    0.55130    0.34860    1.000
    O17      O        0.57330    0.53180    0.34220    1.000
    O18      O        0.41180    0.47400    0.38140    1.000
    N7       N        0.21630    0.66240    0.90880    1.000
    N8       N        0.96740    0.66150    0.10980    1.000
    N9       N        0.17990    0.46240    0.02690    1.000
    C37      C        0.14180    0.62900    0.82570    1.000
    H25      H        0.03340    0.62110    0.81850    1.000
    C38      C        0.21970    0.60660    0.75220    1.000
    C39      C        0.38070    0.61840    0.76230    1.000
    H26      H        0.43750    0.60310    0.71550    1.000
    C40      C        0.45560    0.65340    0.84350    1.000
    H27      H        0.56280    0.66260    0.85000    1.000
    C41      C        0.37170    0.67470    0.91520    1.000
    H28      H        0.42390    0.69820    0.96930    1.000
    C42      C        0.13520    0.56980    0.66360    1.000
    C43      C        0.03620    0.62660    0.18820    1.000
    H29      H        0.14350    0.61750    0.19490    1.000
    C44      C        0.95340    0.60350    0.25980    1.000
    C45      C        0.79390    0.61770    0.25020    1.000
    H30      H        0.73520    0.60290    0.29640    1.000
    C46      C        0.72320    0.65400    0.17160    1.000
    H31      H        0.61710    0.66460    0.16470    1.000
    C47      C        0.81430    0.67420    0.10350    1.000
    H32      H        0.76570    0.69830    0.04980    1.000
    C48      C        0.03220    0.56380    0.34190    1.000
    C49      C        0.25790    0.46420    0.14400    1.000
    H33      H        0.23340    0.44050    0.19310    1.000
    C50      C        0.36890    0.50010    0.18740    1.000
    C51      C        0.39990    0.53470    0.10990    1.000
    H34      H        0.47910    0.55880    0.13840    1.000
    C52      C        0.32600    0.53600    0.99960    1.000
    H35      H        0.34470    0.56140    0.95210    1.000
    C53      C        0.22400    0.49960    0.95960    1.000
    H36      H        0.17730    0.49840    0.88060    1.000
    C54      C        0.45670    0.50270    0.31130    1.000
    Gd4      Gd       0.21817    0.01844    0.48323    1.000
    Cu4      Cu       0.90559    0.19788    0.98927    1.000
    O19      O        0.01060    0.05920    0.34190    1.000
    O20      O        0.78220    0.05160    0.39930    1.000
    O21      O        0.04650    0.04310    0.59630    1.000
    O22      O        0.82360    0.05130    0.65140    1.000
    O23      O        0.42670    0.03180    0.65780    1.000
    O24      O        0.58820    0.97400    0.61860    1.000
    N10      N        0.78370    0.16240    0.09120    1.000
    N11      N        0.03260    0.16150    0.89020    1.000
    N12      N        0.82010    0.96240    0.97310    1.000
    C55      C        0.85820    0.12900    0.17430    1.000
    H37      H        0.96660    0.12110    0.18150    1.000
    C56      C        0.78030    0.10660    0.24780    1.000
    C57      C        0.61930    0.11840    0.23770    1.000
    H38      H        0.56250    0.10310    0.28450    1.000
    C58      C        0.54440    0.15340    0.15650    1.000
    H39      H        0.43720    0.16260    0.15000    1.000
    C59      C        0.62830    0.17470    0.08480    1.000
    H40      H        0.57610    0.19820    0.03070    1.000
    C60      C        0.86480    0.06980    0.33640    1.000
    C61      C        0.96380    0.12660    0.81180    1.000
    H41      H        0.85650    0.11750    0.80510    1.000
    C62      C        0.04660    0.10350    0.74020    1.000
    C63      C        0.20610    0.11770    0.74980    1.000
    H42      H        0.26480    0.10290    0.70360    1.000
    C64      C        0.27680    0.15400    0.82840    1.000
    H43      H        0.38290    0.16460    0.83530    1.000
    C65      C        0.18570    0.17420    0.89650    1.000
    H44      H        0.23430    0.19830    0.95020    1.000
    C66      C        0.96780    0.06380    0.65810    1.000
    C67      C        0.74210    0.96420    0.85600    1.000
    H45      H        0.76660    0.94050    0.80690    1.000
    C68      C        0.63110    0.00010    0.81260    1.000
    C69      C        0.60010    0.03470    0.89010    1.000
    H46      H        0.52090    0.05880    0.86160    1.000
    C70      C        0.67400    0.03600    0.00040    1.000
    H47      H        0.65530    0.06140    0.04790    1.000
    C71      C        0.77600    0.99960    0.04040    1.000
    H48      H        0.82270    0.99840    0.11940    1.000
    C72      C        0.54330    0.00270    0.68870    1.000
    I1       I        0.13166    0.25000    0.14925    1.000
    I2       I        0.68200    0.25000    0.83175    1.000
    I3       I        0.86834    0.75000    0.85075    1.000
    I4       I        0.31800    0.75000    0.16825    1.000
