data_functionalizedCrystal
_audit_creation_method	'EQeq! by Chris Wilmer'
_symmetry_space_group_name_H-M	'P1'
_symmetry_Int_Tables_number	1
_symmetry_cell_setting	triclinic
loop_
_symmetry_equiv_pos_as_xyz
  x,y,z
_cell_length_a	7.1831
_cell_length_b	7.1831
_cell_length_c	7.5839
_cell_angle_alpha	90
_cell_angle_beta	90
_cell_angle_gamma	90
loop_
_atom_site_label
_atom_site_type_symbol
_atom_site_fract_x
_atom_site_fract_y
_atom_site_fract_z
_atom_site_charge
Mof_C 	C 	0.0977	0.461	0.3558	0.004
Mof_H 	H 	0.1629	0.4319	0.2487	0.071
Mof_C 	C 	0.9023	0.539	0.3558	0.004
Mof_H 	H 	0.8371	0.5681	0.2487	0.071
Mof_C 	C 	0.539	0.0977	0.3558	0.005
Mof_H 	H 	0.5681	0.1629	0.2487	0.072
Mof_C 	C 	0.461	0.9023	0.3558	0.005
Mof_H 	H 	0.4319	0.8371	0.2487	0.072
Mof_C 	C 	0.9023	0.461	0.6442	0.005
Mof_H 	H 	0.8371	0.4319	0.7513	0.072
Mof_C 	C 	0.0977	0.539	0.6442	0.005
Mof_H 	H 	0.1629	0.5681	0.7513	0.072
Mof_C 	C 	0.461	0.0977	0.6442	0.005
Mof_H 	H 	0.4319	0.1629	0.7513	0.072
Mof_C 	C 	0.539	0.9023	0.6442	0.005
Mof_H 	H 	0.5681	0.8371	0.7513	0.072
Mof_C 	C 	0.9023	0.539	0.6442	0.005
Mof_H 	H 	0.8371	0.5681	0.7513	0.072
Mof_C 	C 	0.0977	0.461	0.6442	0.005
Mof_H 	H 	0.1629	0.4319	0.7513	0.072
Mof_C 	C 	0.461	0.9023	0.6442	0.005
Mof_H 	H 	0.4319	0.8371	0.7513	0.072
Mof_C 	C 	0.539	0.0977	0.6442	0.005
Mof_H 	H 	0.5681	0.1629	0.7513	0.072
Mof_C 	C 	0.0977	0.539	0.3558	0.005
Mof_H 	H 	0.1629	0.5681	0.2487	0.072
Mof_C 	C 	0.9023	0.461	0.3558	0.005
Mof_H 	H 	0.8371	0.4319	0.2487	0.072
Mof_C 	C 	0.539	0.9023	0.3558	0.005
Mof_H 	H 	0.5681	0.8371	0.2487	0.072
Mof_C 	C 	0.461	0.0977	0.3558	0.005
Mof_H 	H 	0.4319	0.1629	0.2487	0.072
Mof_Fe	Fe	0.5	0.5	0.5	1.007
Mof_Si	Si	0.5	0.5	-0	2.953
Mof_F 	F 	0.5	0.5	0.2351	-0.804
Mof_F 	F 	0.5	0.5	0.7649	-0.804
Mof_F 	F 	0.3336	0.3336	-0	-0.74
Mof_F 	F 	0.6664	0.6664	-0	-0.74
Mof_F 	F 	0.6664	0.3336	-0	-0.74
Mof_F 	F 	0.3336	0.6664	-0	-0.74
Mof_N 	N 	0.195	0.5	0.5	-0.155
Mof_N 	N 	0.805	0.5	0.5	-0.155
Mof_N 	N 	0.5	0.195	0.5	-0.155
Mof_N 	N 	0.5	0.805	0.5	-0.155
_end
