data_functionalizedCrystal
_audit_creation_method	'EQeq! by Chris Wilmer'
_symmetry_space_group_name_H-M	'P1'
_symmetry_Int_Tables_number	1
_symmetry_cell_setting	triclinic
loop_
_symmetry_equiv_pos_as_xyz
  x,y,z
_cell_length_a	23.911
_cell_length_b	11.8685
_cell_length_c	9.2063
_cell_angle_alpha	90
_cell_angle_beta	90.35
_cell_angle_gamma	90
loop_
_atom_site_label
_atom_site_type_symbol
_atom_site_fract_x
_atom_site_fract_y
_atom_site_fract_z
_atom_site_charge
Mof_Cu	Cu	0.20499	0.22769	0.42146	0.918
Mof_N 	N 	0.13981	0.1669	0.2759	-0.199
Mof_O 	O 	0.23488	0.0752	0.4543	-0.449
Mof_O 	O 	0.31199	0.1105	0.5847	-0.427
Mof_O 	O 	0.33586	0.7261	0.8924	-0.435
Mof_O 	O 	0.25811	0.7505	0.7613	-0.453
Mof_C 	C 	0.27874	0.0449	0.5206	0.474
Mof_C 	C 	0.2897	0.9202	0.5247	-0.491
Mof_H 	H 	0.2893	0.8915	0.4238	0.191
Mof_H 	H 	0.2585	0.8834	0.5767	0.192
Mof_C 	C 	0.34443	0.8841	0.5965	0.265
Mof_H 	H 	0.3509	0.9303	0.6845	-0.028
Mof_H 	H 	0.3756	0.8984	0.5288	-0.042
Mof_C 	C 	0.34438	0.7582	0.6393	-0.488
Mof_H 	H 	0.3284	0.7127	0.559	0.18
Mof_H 	H 	0.3832	0.7325	0.6571	0.18
Mof_C 	C 	0.31021	0.7423	0.774	0.472
Mof_C 	C 	0.14393	0.0641	0.2176	0.087
Mof_H 	H 	0.1739	0.017	0.2479	0.01
Mof_C 	C 	0.10673	0.0232	0.1157	-0.177
Mof_H 	H 	0.1119	0.9503	0.0755	0.099
Mof_C 	C 	0.06149	0.0892	0.0718	0.131
Mof_C 	C 	0.0568	0.1948	0.1324	-0.181
Mof_H 	H 	0.0267	0.2429	0.1054	0.09
Mof_C 	C 	0.09615	0.2303	0.233	0.089
Mof_H 	H 	0.0921	0.3033	0.2739	0.006
Mof_C 	C 	0.01901	0.0444	0.9649	-0.162
Mof_H 	H 	0.0386	0.0104	0.8813	0.077
Mof_H 	H 	0.9958	0.1075	0.9281	0.072
Mof_Cu	Cu	0.70499	0.72769	0.42146	0.918
Mof_N 	N 	0.63981	0.6669	0.2759	-0.2
Mof_O 	O 	0.73488	0.5752	0.4543	-0.449
Mof_O 	O 	0.81199	0.6105	0.5847	-0.427
Mof_O 	O 	0.83586	0.2261	0.8924	-0.437
Mof_O 	O 	0.75811	0.2505	0.7613	-0.453
Mof_C 	C 	0.77874	0.5449	0.5206	0.474
Mof_C 	C 	0.7897	0.4202	0.5247	-0.492
Mof_H 	H 	0.7893	0.3915	0.4238	0.191
Mof_H 	H 	0.7585	0.3834	0.5767	0.192
Mof_C 	C 	0.84443	0.3841	0.5965	0.266
Mof_H 	H 	0.8509	0.4303	0.6845	-0.028
Mof_H 	H 	0.8756	0.3984	0.5288	-0.042
Mof_C 	C 	0.84438	0.2582	0.6393	-0.489
Mof_H 	H 	0.8284	0.2127	0.559	0.18
Mof_H 	H 	0.8832	0.2325	0.6571	0.18
Mof_C 	C 	0.81021	0.2423	0.774	0.472
Mof_C 	C 	0.64393	0.5641	0.2176	0.089
Mof_H 	H 	0.6739	0.517	0.2479	0.009
Mof_C 	C 	0.60673	0.5232	0.1157	-0.183
Mof_H 	H 	0.6119	0.4503	0.0755	0.103
Mof_C 	C 	0.56149	0.5892	0.0718	0.13
Mof_C 	C 	0.5568	0.6948	0.1324	-0.181
Mof_H 	H 	0.5267	0.7429	0.1054	0.089
Mof_C 	C 	0.59615	0.7303	0.233	0.089
Mof_H 	H 	0.5921	0.8033	0.2739	0.006
Mof_C 	C 	0.51901	0.5444	0.9649	-0.16
Mof_H 	H 	0.5386	0.5104	0.8813	0.078
Mof_H 	H 	0.4958	0.6075	0.9281	0.073
Mof_Cu	Cu	0.79501	0.22769	0.07854	0.919
Mof_N 	N 	0.86019	0.1669	0.2241	-0.2
Mof_O 	O 	0.76512	0.0752	0.0457	-0.444
Mof_O 	O 	0.68801	0.1105	0.9153	-0.425
Mof_O 	O 	0.66414	0.7261	0.6076	-0.436
Mof_O 	O 	0.74189	0.7505	0.7387	-0.453
Mof_C 	C 	0.72126	0.0449	0.9794	0.464
Mof_C 	C 	0.7103	0.9202	0.9753	-0.477
Mof_H 	H 	0.7107	0.8915	0.0762	0.186
Mof_H 	H 	0.7415	0.8834	0.9233	0.188
Mof_C 	C 	0.65557	0.8841	0.9035	0.258
Mof_H 	H 	0.6491	0.9303	0.8155	-0.025
Mof_H 	H 	0.6244	0.8984	0.9712	-0.039
Mof_C 	C 	0.65562	0.7582	0.8607	-0.485
Mof_H 	H 	0.6716	0.7127	0.941	0.179
Mof_H 	H 	0.6168	0.7325	0.8429	0.179
Mof_C 	C 	0.68979	0.7423	0.726	0.471
Mof_C 	C 	0.85607	0.0641	0.2824	0.089
Mof_H 	H 	0.8261	0.017	0.2521	0.01
Mof_C 	C 	0.89327	0.0232	0.3843	-0.181
Mof_H 	H 	0.8881	0.9503	0.4245	0.102
Mof_C 	C 	0.93851	0.0892	0.4282	0.13
Mof_C 	C 	0.9432	0.1948	0.3676	-0.18
Mof_H 	H 	0.9733	0.2429	0.3946	0.09
Mof_C 	C 	0.90385	0.2303	0.267	0.089
Mof_H 	H 	0.9079	0.3033	0.2261	0.006
Mof_C 	C 	0.98099	0.0444	0.5351	-0.16
Mof_H 	H 	0.9614	0.0104	0.6187	0.077
Mof_H 	H 	0.0042	0.1075	0.5719	0.072
Mof_Cu	Cu	0.29501	0.72769	0.07854	0.918
Mof_N 	N 	0.36019	0.6669	0.2241	-0.2
Mof_O 	O 	0.26512	0.5752	0.0457	-0.45
Mof_O 	O 	0.18801	0.6105	0.9153	-0.427
Mof_O 	O 	0.16414	0.2261	0.6076	-0.436
Mof_O 	O 	0.24189	0.2505	0.7387	-0.453
Mof_C 	C 	0.22126	0.5449	0.9794	0.475
Mof_C 	C 	0.2103	0.4202	0.9753	-0.493
Mof_H 	H 	0.2107	0.3915	0.0762	0.192
Mof_H 	H 	0.2415	0.3834	0.9233	0.192
Mof_C 	C 	0.15557	0.3841	0.9035	0.266
Mof_H 	H 	0.1491	0.4303	0.8155	-0.028
Mof_H 	H 	0.1244	0.3984	0.9712	-0.042
Mof_C 	C 	0.15562	0.2582	0.8607	-0.489
Mof_H 	H 	0.1716	0.2127	0.941	0.179
Mof_H 	H 	0.1168	0.2325	0.8429	0.179
Mof_C 	C 	0.18979	0.2423	0.726	0.472
Mof_C 	C 	0.35607	0.5641	0.2824	0.089
Mof_H 	H 	0.3261	0.517	0.2521	0.009
Mof_C 	C 	0.39327	0.5232	0.3843	-0.183
Mof_H 	H 	0.3881	0.4503	0.4245	0.103
Mof_C 	C 	0.43851	0.5892	0.4282	0.13
Mof_C 	C 	0.4432	0.6948	0.3676	-0.181
Mof_H 	H 	0.4733	0.7429	0.3946	0.09
Mof_C 	C 	0.40385	0.7303	0.267	0.089
Mof_H 	H 	0.4079	0.8033	0.2261	0.005
Mof_C 	C 	0.48099	0.5444	0.5351	-0.16
Mof_H 	H 	0.4614	0.5104	0.6187	0.078
Mof_H 	H 	0.5042	0.6075	0.5719	0.073
Mof_Cu	Cu	0.79501	0.77231	0.57854	0.918
Mof_N 	N 	0.86019	0.8331	0.7241	-0.199
Mof_O 	O 	0.76512	0.9248	0.5457	-0.449
Mof_O 	O 	0.68801	0.8895	0.4153	-0.427
Mof_O 	O 	0.66414	0.2739	0.1076	-0.435
Mof_O 	O 	0.74189	0.2495	0.2387	-0.453
Mof_C 	C 	0.72126	0.9551	0.4794	0.474
Mof_C 	C 	0.7103	0.0798	0.4753	-0.491
Mof_H 	H 	0.7107	0.1085	0.5762	0.191
Mof_H 	H 	0.7415	0.1166	0.4233	0.192
Mof_C 	C 	0.65557	0.1159	0.4035	0.265
Mof_H 	H 	0.6491	0.0697	0.3155	-0.028
Mof_H 	H 	0.6244	0.1016	0.4712	-0.042
Mof_C 	C 	0.65562	0.2418	0.3607	-0.488
Mof_H 	H 	0.6716	0.2873	0.441	0.18
Mof_H 	H 	0.6168	0.2675	0.3429	0.18
Mof_C 	C 	0.68979	0.2577	0.226	0.472
Mof_C 	C 	0.85607	0.9359	0.7824	0.087
Mof_H 	H 	0.8261	0.983	0.7521	0.01
Mof_C 	C 	0.89327	0.9768	0.8843	-0.177
Mof_H 	H 	0.8881	0.0497	0.9245	0.099
Mof_C 	C 	0.93851	0.9108	0.9282	0.131
Mof_C 	C 	0.9432	0.8052	0.8676	-0.181
Mof_H 	H 	0.9733	0.7571	0.8946	0.09
Mof_C 	C 	0.90385	0.7697	0.767	0.089
Mof_H 	H 	0.9079	0.6967	0.7261	0.006
Mof_C 	C 	0.98099	0.9556	0.0351	-0.162
Mof_H 	H 	0.9614	0.9896	0.1187	0.077
Mof_H 	H 	0.0042	0.8925	0.0719	0.072
Mof_Cu	Cu	0.29501	0.27231	0.57854	0.918
Mof_N 	N 	0.36019	0.3331	0.7241	-0.2
Mof_O 	O 	0.26512	0.4248	0.5457	-0.449
Mof_O 	O 	0.18801	0.3895	0.4153	-0.427
Mof_O 	O 	0.16414	0.7739	0.1076	-0.437
Mof_O 	O 	0.24189	0.7495	0.2387	-0.453
Mof_C 	C 	0.22126	0.4551	0.4794	0.474
Mof_C 	C 	0.2103	0.5798	0.4753	-0.492
Mof_H 	H 	0.2107	0.6085	0.5762	0.191
Mof_H 	H 	0.2415	0.6166	0.4233	0.192
Mof_C 	C 	0.15557	0.6159	0.4035	0.266
Mof_H 	H 	0.1491	0.5697	0.3155	-0.028
Mof_H 	H 	0.1244	0.6016	0.4712	-0.042
Mof_C 	C 	0.15562	0.7418	0.3607	-0.489
Mof_H 	H 	0.1716	0.7873	0.441	0.18
Mof_H 	H 	0.1168	0.7675	0.3429	0.18
Mof_C 	C 	0.18979	0.7577	0.226	0.472
Mof_C 	C 	0.35607	0.4359	0.7824	0.089
Mof_H 	H 	0.3261	0.483	0.7521	0.009
Mof_C 	C 	0.39327	0.4768	0.8843	-0.183
Mof_H 	H 	0.3881	0.5497	0.9245	0.103
Mof_C 	C 	0.43851	0.4108	0.9282	0.13
Mof_C 	C 	0.4432	0.3052	0.8676	-0.181
Mof_H 	H 	0.4733	0.2571	0.8946	0.089
Mof_C 	C 	0.40385	0.2697	0.767	0.089
Mof_H 	H 	0.4079	0.1967	0.7261	0.006
Mof_C 	C 	0.48099	0.4556	0.0351	-0.16
Mof_H 	H 	0.4614	0.4896	0.1187	0.078
Mof_H 	H 	0.5042	0.3925	0.0719	0.073
Mof_Cu	Cu	0.20499	0.77231	0.92146	0.919
Mof_N 	N 	0.13981	0.8331	0.7759	-0.2
Mof_O 	O 	0.23488	0.9248	0.9543	-0.444
Mof_O 	O 	0.31199	0.8895	0.0847	-0.425
Mof_O 	O 	0.33586	0.2739	0.3924	-0.436
Mof_O 	O 	0.25811	0.2495	0.2613	-0.453
Mof_C 	C 	0.27874	0.9551	0.0206	0.464
Mof_C 	C 	0.2897	0.0798	0.0247	-0.477
Mof_H 	H 	0.2893	0.1085	0.9238	0.186
Mof_H 	H 	0.2585	0.1166	0.0767	0.188
Mof_C 	C 	0.34443	0.1159	0.0965	0.258
Mof_H 	H 	0.3509	0.0697	0.1845	-0.025
Mof_H 	H 	0.3756	0.1016	0.0288	-0.039
Mof_C 	C 	0.34438	0.2418	0.1393	-0.485
Mof_H 	H 	0.3284	0.2873	0.059	0.179
Mof_H 	H 	0.3832	0.2675	0.1571	0.179
Mof_C 	C 	0.31021	0.2577	0.274	0.471
Mof_C 	C 	0.14393	0.9359	0.7176	0.089
Mof_H 	H 	0.1739	0.983	0.7479	0.01
Mof_C 	C 	0.10673	0.9768	0.6157	-0.181
Mof_H 	H 	0.1119	0.0497	0.5755	0.102
Mof_C 	C 	0.06149	0.9108	0.5718	0.13
Mof_C 	C 	0.0568	0.8052	0.6324	-0.18
Mof_H 	H 	0.0267	0.7571	0.6054	0.09
Mof_C 	C 	0.09615	0.7697	0.733	0.089
Mof_H 	H 	0.0921	0.6967	0.7739	0.006
Mof_C 	C 	0.01901	0.9556	0.4649	-0.16
Mof_H 	H 	0.0386	0.9896	0.3813	0.077
Mof_H 	H 	0.9958	0.8925	0.4281	0.072
Mof_Cu	Cu	0.70499	0.27231	0.92146	0.918
Mof_N 	N 	0.63981	0.3331	0.7759	-0.2
Mof_O 	O 	0.73488	0.4248	0.9543	-0.45
Mof_O 	O 	0.81199	0.3895	0.0847	-0.427
Mof_O 	O 	0.83586	0.7739	0.3924	-0.436
Mof_O 	O 	0.75811	0.7495	0.2613	-0.453
Mof_C 	C 	0.77874	0.4551	0.0206	0.475
Mof_C 	C 	0.7897	0.5798	0.0247	-0.493
Mof_H 	H 	0.7893	0.6085	0.9238	0.192
Mof_H 	H 	0.7585	0.6166	0.0767	0.192
Mof_C 	C 	0.84443	0.6159	0.0965	0.266
Mof_H 	H 	0.8509	0.5697	0.1845	-0.028
Mof_H 	H 	0.8756	0.6016	0.0288	-0.042
Mof_C 	C 	0.84438	0.7418	0.1393	-0.489
Mof_H 	H 	0.8284	0.7873	0.059	0.179
Mof_H 	H 	0.8832	0.7675	0.1571	0.179
Mof_C 	C 	0.81021	0.7577	0.274	0.472
Mof_C 	C 	0.64393	0.4359	0.7176	0.089
Mof_H 	H 	0.6739	0.483	0.7479	0.009
Mof_C 	C 	0.60673	0.4768	0.6157	-0.183
Mof_H 	H 	0.6119	0.5497	0.5755	0.103
Mof_C 	C 	0.56149	0.4108	0.5718	0.13
Mof_C 	C 	0.5568	0.3052	0.6324	-0.181
Mof_H 	H 	0.5267	0.2571	0.6054	0.09
Mof_C 	C 	0.59615	0.2697	0.733	0.089
Mof_H 	H 	0.5921	0.1967	0.7739	0.005
Mof_C 	C 	0.51901	0.4556	0.4649	-0.16
Mof_H 	H 	0.5386	0.4896	0.3813	0.078
Mof_H 	H 	0.4958	0.3925	0.4281	0.073
_end
