data_functionalizedCrystal
_audit_creation_method	'EQeq! by Chris Wilmer'
_symmetry_space_group_name_H-M	'P1'
_symmetry_Int_Tables_number	1
_symmetry_cell_setting	triclinic
loop_
_symmetry_equiv_pos_as_xyz
  x,y,z
_cell_length_a	10.137
_cell_length_b	11.802
_cell_length_c	13.768
_cell_angle_alpha	86.899
_cell_angle_beta	89.523
_cell_angle_gamma	88.343
loop_
_atom_site_label
_atom_site_type_symbol
_atom_site_fract_x
_atom_site_fract_y
_atom_site_fract_z
_atom_site_charge
Mof_Zn	Zn	0.15736	0.51598	0.39554	1.231
Mof_Zn	Zn	0.55467	0.57495	0.37833	1.231
Mof_Zn	Zn	0.62257	0.11009	0.88746	1.218
Mof_P 	P 	0.375	0.344	0.42563	0.477
Mof_P 	P 	0.6707	0.3352	0.77006	0.499
Mof_P 	P 	0.84407	0.46155	0.37929	0.482
Mof_O 	O 	0.2294	0.3604	0.4049	-0.448
Mof_O 	O 	0.4443	0.4517	0.3927	-0.547
Mof_O 	O 	0.4009	0.307	0.5301	-0.432
Mof_O 	O 	0.4079	0.0364	0.173	-0.446
Mof_O 	O 	0.1931	0.0418	0.1759	-0.325
Mof_O 	O 	0.7821	0.3901	0.7154	-0.448
Mof_O 	O 	0.7159	0.2158	0.8103	-0.438
Mof_O 	O 	0.5448	0.3249	0.7155	-0.457
Mof_O 	O 	0.4405	0.1451	0.915	-0.49
Mof_O 	O 	0.2432	0.2162	0.9455	-0.304
Mof_O 	O 	0.7301	0.5343	0.337	-0.439
Mof_O 	O 	0.9679	0.5315	0.3721	-0.44
Mof_O 	O 	0.8182	0.4131	0.4816	-0.477
Mof_O 	O 	0.1033	0.3673	0.0267	-0.548
Mof_H 	H 	0.1462	0.3164	0.0018	0.339
Mof_O 	O 	0.9855	0.225	0.0847	-0.284
Mof_N 	N 	0.4166	0.2462	0.2528	-0.057
Mof_N 	N 	0.8394	0.363	0.2032	-0.053
Mof_N 	N 	0.5516	0.3591	0.9453	-0.069
Mof_N 	N 	0.4835	0.2998	0.0982	-0.159
Mof_N 	N 	0.6297	0.3031	0.231	-0.163
Mof_N 	N 	0.7014	0.3646	0.071	-0.157
Mof_C 	C 	0.5143	0.2831	0.193	0.167
Mof_C 	C 	0.5811	0.3421	0.0419	0.137
Mof_C 	C 	0.7191	0.3432	0.1675	0.167
Mof_C 	C 	0.4394	0.2275	0.3576	-0.233
Mof_H 	H 	0.5334	0.218	0.3691	0.12
Mof_H 	H 	0.3976	0.1581	0.3808	0.127
Mof_C 	C 	0.2941	0.2068	0.2148	-0.292
Mof_H 	H 	0.2694	0.2555	0.1585	0.14
Mof_H 	H 	0.2256	0.2153	0.2637	0.144
Mof_C 	C 	0.2978	0.0853	0.1856	0.411
Mof_C 	C 	0.6405	0.4165	0.8758	-0.283
Mof_H 	H 	0.7237	0.4288	0.9073	0.137
Mof_H 	H 	0.6021	0.4901	0.8554	0.121
Mof_C 	C 	0.4122	0.3486	0.9188	-0.353
Mof_H 	H 	0.4004	0.3775	0.8521	0.145
Mof_H 	H 	0.3581	0.3957	0.9599	0.158
Mof_C 	C 	0.3637	0.2293	0.9284	0.442
Mof_C 	C 	0.8688	0.3403	0.3061	-0.24
Mof_H 	H 	0.9599	0.3136	0.3121	0.11
Mof_H 	H 	0.8134	0.2798	0.3316	0.126
Mof_C 	C 	0.9416	0.4132	0.14	-0.316
Mof_H 	H 	0.0055	0.4493	0.1793	0.14
Mof_H 	H 	0.9017	0.471	0.0959	0.171
Mof_C 	C 	0.0112	0.3234	0.0817	0.461
Mof_Zn	Zn	0.84264	0.48402	0.60446	1.23
Mof_Zn	Zn	0.44533	0.42505	0.62167	1.23
Mof_Zn	Zn	0.37743	0.88991	0.11254	1.217
Mof_P 	P 	0.625	0.656	0.57437	0.476
Mof_P 	P 	0.3293	0.6648	0.22994	0.498
Mof_P 	P 	0.15593	0.53845	0.62071	0.481
Mof_O 	O 	0.7706	0.6396	0.5951	-0.448
Mof_O 	O 	0.5557	0.5483	0.6073	-0.547
Mof_O 	O 	0.5991	0.693	0.4699	-0.432
Mof_O 	O 	0.5921	0.9636	0.827	-0.446
Mof_O 	O 	0.8069	0.9582	0.8241	-0.325
Mof_O 	O 	0.2179	0.6099	0.2846	-0.448
Mof_O 	O 	0.2841	0.7842	0.1897	-0.438
Mof_O 	O 	0.4552	0.6751	0.2845	-0.457
Mof_O 	O 	0.5595	0.8549	0.085	-0.49
Mof_O 	O 	0.7568	0.7838	0.0545	-0.304
Mof_O 	O 	0.2699	0.4657	0.663	-0.439
Mof_O 	O 	0.0321	0.4685	0.6279	-0.44
Mof_O 	O 	0.1818	0.5869	0.5184	-0.477
Mof_O 	O 	0.8967	0.6327	0.9733	-0.548
Mof_H 	H 	0.8538	0.6836	0.9982	0.339
Mof_O 	O 	0.0145	0.775	0.9153	-0.284
Mof_N 	N 	0.5834	0.7538	0.7472	-0.057
Mof_N 	N 	0.1606	0.637	0.7968	-0.053
Mof_N 	N 	0.4484	0.6409	0.0547	-0.069
Mof_N 	N 	0.5165	0.7002	0.9018	-0.159
Mof_N 	N 	0.3703	0.6969	0.769	-0.163
Mof_N 	N 	0.2986	0.6354	0.929	-0.157
Mof_C 	C 	0.4857	0.7169	0.807	0.167
Mof_C 	C 	0.4189	0.6579	0.9581	0.137
Mof_C 	C 	0.2809	0.6568	0.8325	0.167
Mof_C 	C 	0.5606	0.7725	0.6424	-0.233
Mof_H 	H 	0.4666	0.782	0.6309	0.12
Mof_H 	H 	0.6024	0.8419	0.6192	0.127
Mof_C 	C 	0.7059	0.7932	0.7852	-0.292
Mof_H 	H 	0.7306	0.7445	0.8415	0.14
Mof_H 	H 	0.7744	0.7847	0.7363	0.144
Mof_C 	C 	0.7022	0.9147	0.8144	0.411
Mof_C 	C 	0.3595	0.5835	0.1242	-0.283
Mof_H 	H 	0.2763	0.5712	0.0927	0.137
Mof_H 	H 	0.3979	0.5099	0.1446	0.121
Mof_C 	C 	0.5878	0.6514	0.0812	-0.353
Mof_H 	H 	0.5996	0.6225	0.1479	0.145
Mof_H 	H 	0.6419	0.6043	0.0401	0.158
Mof_C 	C 	0.6363	0.7707	0.0716	0.442
Mof_C 	C 	0.1312	0.6597	0.6939	-0.24
Mof_H 	H 	0.0401	0.6864	0.6879	0.11
Mof_H 	H 	0.1866	0.7202	0.6684	0.126
Mof_C 	C 	0.0584	0.5868	0.86	-0.316
Mof_H 	H 	0.9945	0.5507	0.8207	0.14
Mof_H 	H 	0.0983	0.529	0.9041	0.171
Mof_C 	C 	0.9888	0.6766	0.9183	0.461
_end
