data_functionalizedCrystal
_audit_creation_method	'EQeq! by Chris Wilmer'
_symmetry_space_group_name_H-M	'P1'
_symmetry_Int_Tables_number	1
_symmetry_cell_setting	triclinic
loop_
_symmetry_equiv_pos_as_xyz
  x,y,z
_cell_length_a	26.179
_cell_length_b	26.179
_cell_length_c	26.179
_cell_angle_alpha	90
_cell_angle_beta	90
_cell_angle_gamma	90
loop_
_atom_site_label
_atom_site_type_symbol
_atom_site_fract_x
_atom_site_fract_y
_atom_site_fract_z
_atom_site_charge
Mof_O 	O 	0.0142	0.4175	0.9778	-0.29
Mof_O 	O 	0.0089	0.3343	0.97	-0.408
Mof_C 	C 	0.0087	0.3736	0.9988	0.519
Mof_C 	C 	0.0031	0.3674	0.0546	-0.47
Mof_H 	H 	0.0321	0.3824	0.072	0.17
Mof_H 	H 	0.9724	0.3847	0.0662	0.239
Mof_O 	O 	0.0142	0.9175	0.4778	-0.276
Mof_O 	O 	0.0089	0.8343	0.47	-0.433
Mof_C 	C 	0.0087	0.8736	0.4988	0.404
Mof_C 	C 	0.0031	0.8674	0.5546	-0.327
Mof_H 	H 	0.0321	0.8824	0.572	0.138
Mof_H 	H 	0.9724	0.8847	0.5662	0.207
Mof_O 	O 	0.5142	0.4175	0.4778	-0.281
Mof_O 	O 	0.5089	0.3343	0.47	-0.427
Mof_C 	C 	0.5087	0.3736	0.4988	0.378
Mof_C 	C 	0.5031	0.3674	0.5546	-0.187
Mof_H 	H 	0.5321	0.3824	0.572	0.1
Mof_H 	H 	0.4724	0.3847	0.5662	0.104
Mof_O 	O 	0.5142	0.9175	0.9778	-0.23
Mof_O 	O 	0.5089	0.8343	0.97	-0.392
Mof_C 	C 	0.5087	0.8736	0.9988	0.476
Mof_C 	C 	0.5031	0.8674	0.0546	-0.316
Mof_H 	H 	0.5321	0.8824	0.072	0.134
Mof_H 	H 	0.4724	0.8847	0.0662	0.139
Mof_O 	O 	0.2358	0.3325	0.4778	-0.281
Mof_O 	O 	0.2411	0.4157	0.47	-0.427
Mof_C 	C 	0.2413	0.3764	0.4988	0.377
Mof_C 	C 	0.2469	0.3826	0.5546	-0.186
Mof_H 	H 	0.2179	0.3676	0.572	0.099
Mof_H 	H 	0.2776	0.3653	0.5662	0.104
Mof_O 	O 	0.2358	0.8325	0.9778	-0.256
Mof_O 	O 	0.2411	0.9157	0.97	-0.347
Mof_C 	C 	0.2413	0.8764	0.9988	0.471
Mof_C 	C 	0.2469	0.8826	0.0546	-0.31
Mof_H 	H 	0.2179	0.8676	0.072	0.13
Mof_H 	H 	0.2776	0.8653	0.0662	0.135
Mof_O 	O 	0.7358	0.3325	0.9778	-0.261
Mof_O 	O 	0.7411	0.4157	0.97	-0.396
Mof_C 	C 	0.7413	0.3764	0.9988	0.483
Mof_C 	C 	0.7469	0.3826	0.0546	-0.32
Mof_H 	H 	0.7179	0.3676	0.072	0.132
Mof_H 	H 	0.7776	0.3653	0.0662	0.136
Mof_O 	O 	0.7358	0.8325	0.4778	-0.274
Mof_O 	O 	0.7411	0.9157	0.47	-0.377
Mof_C 	C 	0.7413	0.8764	0.4988	0.369
Mof_C 	C 	0.7469	0.8826	0.5546	-0.18
Mof_H 	H 	0.7179	0.8676	0.572	0.099
Mof_H 	H 	0.7776	0.8653	0.5662	0.106
Mof_O 	O 	0.7358	0.9175	0.2722	-0.247
Mof_O 	O 	0.7411	0.8343	0.28	-0.421
Mof_C 	C 	0.7413	0.8736	0.2512	0.374
Mof_C 	C 	0.7469	0.8674	0.1954	-0.186
Mof_H 	H 	0.7179	0.8824	0.178	0.103
Mof_H 	H 	0.7776	0.8847	0.1838	0.11
Mof_O 	O 	0.7358	0.4175	0.7722	-0.278
Mof_O 	O 	0.7411	0.3343	0.78	-0.423
Mof_C 	C 	0.7413	0.3736	0.7512	0.379
Mof_C 	C 	0.7469	0.3674	0.6954	-0.188
Mof_H 	H 	0.7179	0.3824	0.678	0.1
Mof_H 	H 	0.7776	0.3847	0.6838	0.106
Mof_O 	O 	0.2358	0.9175	0.7722	-0.246
Mof_O 	O 	0.2411	0.8343	0.78	-0.42
Mof_C 	C 	0.2413	0.8736	0.7512	0.373
Mof_C 	C 	0.2469	0.8674	0.6954	-0.184
Mof_H 	H 	0.2179	0.8824	0.678	0.102
Mof_H 	H 	0.2776	0.8847	0.6838	0.109
Mof_O 	O 	0.2358	0.4175	0.2722	-0.281
Mof_O 	O 	0.2411	0.3343	0.28	-0.427
Mof_C 	C 	0.2413	0.3736	0.2512	0.377
Mof_C 	C 	0.2469	0.3674	0.1954	-0.186
Mof_H 	H 	0.2179	0.3824	0.178	0.099
Mof_H 	H 	0.2776	0.3847	0.1838	0.104
Mof_O 	O 	0.5142	0.8325	0.7722	-0.273
Mof_O 	O 	0.5089	0.9157	0.78	-0.376
Mof_C 	C 	0.5087	0.8764	0.7512	0.368
Mof_C 	C 	0.5031	0.8826	0.6954	-0.179
Mof_H 	H 	0.5321	0.8676	0.678	0.099
Mof_H 	H 	0.4724	0.8653	0.6838	0.104
Mof_O 	O 	0.5142	0.3325	0.2722	-0.281
Mof_O 	O 	0.5089	0.4157	0.28	-0.427
Mof_C 	C 	0.5087	0.3764	0.2512	0.378
Mof_C 	C 	0.5031	0.3826	0.1954	-0.186
Mof_H 	H 	0.5321	0.3676	0.178	0.1
Mof_H 	H 	0.4724	0.3653	0.1838	0.104
Mof_O 	O 	0.0142	0.8325	0.2722	-0.304
Mof_O 	O 	0.0089	0.9157	0.28	-0.389
Mof_C 	C 	0.0087	0.8764	0.2512	0.4
Mof_C 	C 	0.0031	0.8826	0.1954	-0.324
Mof_H 	H 	0.0321	0.8676	0.178	0.134
Mof_H 	H 	0.9724	0.8653	0.1838	0.204
Mof_O 	O 	0.0142	0.3325	0.7722	-0.308
Mof_O 	O 	0.0089	0.4157	0.78	-0.437
Mof_C 	C 	0.0087	0.3764	0.7512	0.41
Mof_C 	C 	0.0031	0.3826	0.6954	-0.332
Mof_H 	H 	0.0321	0.3676	0.678	0.135
Mof_H 	H 	0.9724	0.3653	0.6838	0.205
Mof_O 	O 	0.9778	0.0142	0.4175	-0.291
Mof_O 	O 	0.97	0.0089	0.3343	-0.409
Mof_C 	C 	0.9988	0.0087	0.3736	0.518
Mof_C 	C 	0.0546	0.0031	0.3674	-0.471
Mof_H 	H 	0.072	0.0321	0.3824	0.169
Mof_H 	H 	0.0662	0.9724	0.3847	0.238
Mof_O 	O 	0.9778	0.5142	0.9175	-0.23
Mof_O 	O 	0.97	0.5089	0.8343	-0.392
Mof_C 	C 	0.9988	0.5087	0.8736	0.476
Mof_C 	C 	0.0546	0.5031	0.8674	-0.316
Mof_H 	H 	0.072	0.5321	0.8824	0.134
Mof_H 	H 	0.0662	0.4724	0.8847	0.139
Mof_O 	O 	0.4778	0.0142	0.9175	-0.277
Mof_O 	O 	0.47	0.0089	0.8343	-0.434
Mof_C 	C 	0.4988	0.0087	0.8736	0.404
Mof_C 	C 	0.5546	0.0031	0.8674	-0.327
Mof_H 	H 	0.572	0.0321	0.8824	0.138
Mof_H 	H 	0.5662	0.9724	0.8847	0.207
Mof_O 	O 	0.4778	0.5142	0.4175	-0.281
Mof_O 	O 	0.47	0.5089	0.3343	-0.427
Mof_C 	C 	0.4988	0.5087	0.3736	0.378
Mof_C 	C 	0.5546	0.5031	0.3674	-0.187
Mof_H 	H 	0.572	0.5321	0.3824	0.1
Mof_H 	H 	0.5662	0.4724	0.3847	0.104
Mof_O 	O 	0.4778	0.2358	0.3325	-0.281
Mof_O 	O 	0.47	0.2411	0.4157	-0.427
Mof_C 	C 	0.4988	0.2413	0.3764	0.377
Mof_C 	C 	0.5546	0.2469	0.3826	-0.186
Mof_H 	H 	0.572	0.2179	0.3676	0.099
Mof_H 	H 	0.5662	0.2776	0.3653	0.104
Mof_O 	O 	0.4778	0.7358	0.8325	-0.274
Mof_O 	O 	0.47	0.7411	0.9157	-0.377
Mof_C 	C 	0.4988	0.7413	0.8764	0.369
Mof_C 	C 	0.5546	0.7469	0.8826	-0.18
Mof_H 	H 	0.572	0.7179	0.8676	0.099
Mof_H 	H 	0.5662	0.7776	0.8653	0.106
Mof_O 	O 	0.9778	0.2358	0.8325	-0.256
Mof_O 	O 	0.97	0.2411	0.9157	-0.347
Mof_C 	C 	0.9988	0.2413	0.8764	0.471
Mof_C 	C 	0.0546	0.2469	0.8826	-0.31
Mof_H 	H 	0.072	0.2179	0.8676	0.13
Mof_H 	H 	0.0662	0.2776	0.8653	0.135
Mof_O 	O 	0.9778	0.7358	0.3325	-0.261
Mof_O 	O 	0.97	0.7411	0.4157	-0.396
Mof_C 	C 	0.9988	0.7413	0.3764	0.483
Mof_C 	C 	0.0546	0.7469	0.3826	-0.32
Mof_H 	H 	0.072	0.7179	0.3676	0.132
Mof_H 	H 	0.0662	0.7776	0.3653	0.136
Mof_O 	O 	0.2722	0.7358	0.9175	-0.247
Mof_O 	O 	0.28	0.7411	0.8343	-0.421
Mof_C 	C 	0.2512	0.7413	0.8736	0.374
Mof_C 	C 	0.1954	0.7469	0.8674	-0.186
Mof_H 	H 	0.178	0.7179	0.8824	0.103
Mof_H 	H 	0.1838	0.7776	0.8847	0.11
Mof_O 	O 	0.2722	0.2358	0.4175	-0.281
Mof_O 	O 	0.28	0.2411	0.3343	-0.427
Mof_C 	C 	0.2512	0.2413	0.3736	0.377
Mof_C 	C 	0.1954	0.2469	0.3674	-0.186
Mof_H 	H 	0.178	0.2179	0.3824	0.099
Mof_H 	H 	0.1838	0.2776	0.3847	0.104
Mof_O 	O 	0.7722	0.7358	0.4175	-0.278
Mof_O 	O 	0.78	0.7411	0.3343	-0.423
Mof_C 	C 	0.7512	0.7413	0.3736	0.379
Mof_C 	C 	0.6954	0.7469	0.3674	-0.188
Mof_H 	H 	0.678	0.7179	0.3824	0.1
Mof_H 	H 	0.6838	0.7776	0.3847	0.106
Mof_O 	O 	0.7722	0.2358	0.9175	-0.246
Mof_O 	O 	0.78	0.2411	0.8343	-0.42
Mof_C 	C 	0.7512	0.2413	0.8736	0.373
Mof_C 	C 	0.6954	0.2469	0.8674	-0.184
Mof_H 	H 	0.678	0.2179	0.8824	0.102
Mof_H 	H 	0.6838	0.2776	0.8847	0.109
Mof_O 	O 	0.7722	0.5142	0.8325	-0.273
Mof_O 	O 	0.78	0.5089	0.9157	-0.376
Mof_C 	C 	0.7512	0.5087	0.8764	0.368
Mof_C 	C 	0.6954	0.5031	0.8826	-0.179
Mof_H 	H 	0.678	0.5321	0.8676	0.099
Mof_H 	H 	0.6838	0.4724	0.8653	0.104
Mof_O 	O 	0.7722	0.0142	0.3325	-0.308
Mof_O 	O 	0.78	0.0089	0.4157	-0.437
Mof_C 	C 	0.7512	0.0087	0.3764	0.41
Mof_C 	C 	0.6954	0.0031	0.3826	-0.332
Mof_H 	H 	0.678	0.0321	0.3676	0.135
Mof_H 	H 	0.6838	0.9724	0.3653	0.205
Mof_O 	O 	0.2722	0.5142	0.3325	-0.281
Mof_O 	O 	0.28	0.5089	0.4157	-0.427
Mof_C 	C 	0.2512	0.5087	0.3764	0.378
Mof_C 	C 	0.1954	0.5031	0.3826	-0.186
Mof_H 	H 	0.178	0.5321	0.3676	0.1
Mof_H 	H 	0.1838	0.4724	0.3653	0.104
Mof_O 	O 	0.2722	0.0142	0.8325	-0.304
Mof_O 	O 	0.28	0.0089	0.9157	-0.389
Mof_C 	C 	0.2512	0.0087	0.8764	0.4
Mof_C 	C 	0.1954	0.0031	0.8826	-0.324
Mof_H 	H 	0.178	0.0321	0.8676	0.134
Mof_H 	H 	0.1838	0.9724	0.8653	0.204
Mof_O 	O 	0.4175	0.9778	0.0142	-0.291
Mof_O 	O 	0.3343	0.97	0.0089	-0.409
Mof_C 	C 	0.3736	0.9988	0.0087	0.518
Mof_C 	C 	0.3674	0.0546	0.0031	-0.471
Mof_H 	H 	0.3824	0.072	0.0321	0.169
Mof_H 	H 	0.3847	0.0662	0.9724	0.238
Mof_O 	O 	0.4175	0.4778	0.5142	-0.281
Mof_O 	O 	0.3343	0.47	0.5089	-0.427
Mof_C 	C 	0.3736	0.4988	0.5087	0.378
Mof_C 	C 	0.3674	0.5546	0.5031	-0.187
Mof_H 	H 	0.3824	0.572	0.5321	0.1
Mof_H 	H 	0.3847	0.5662	0.4724	0.104
Mof_O 	O 	0.9175	0.9778	0.5142	-0.23
Mof_O 	O 	0.8343	0.97	0.5089	-0.392
Mof_C 	C 	0.8736	0.9988	0.5087	0.476
Mof_C 	C 	0.8674	0.0546	0.5031	-0.316
Mof_H 	H 	0.8824	0.072	0.5321	0.134
Mof_H 	H 	0.8847	0.0662	0.4724	0.139
Mof_O 	O 	0.9175	0.4778	0.0142	-0.277
Mof_O 	O 	0.8343	0.47	0.0089	-0.434
Mof_C 	C 	0.8736	0.4988	0.0087	0.404
Mof_C 	C 	0.8674	0.5546	0.0031	-0.327
Mof_H 	H 	0.8824	0.572	0.0321	0.138
Mof_H 	H 	0.8847	0.5662	0.9724	0.207
Mof_O 	O 	0.3325	0.4778	0.2358	-0.281
Mof_O 	O 	0.4157	0.47	0.2411	-0.427
Mof_C 	C 	0.3764	0.4988	0.2413	0.377
Mof_C 	C 	0.3826	0.5546	0.2469	-0.186
Mof_H 	H 	0.3676	0.572	0.2179	0.099
Mof_H 	H 	0.3653	0.5662	0.2776	0.104
Mof_O 	O 	0.3325	0.9778	0.7358	-0.261
Mof_O 	O 	0.4157	0.97	0.7411	-0.396
Mof_C 	C 	0.3764	0.9988	0.7413	0.483
Mof_C 	C 	0.3826	0.0546	0.7469	-0.32
Mof_H 	H 	0.3676	0.072	0.7179	0.132
Mof_H 	H 	0.3653	0.0662	0.7776	0.136
Mof_O 	O 	0.8325	0.4778	0.7358	-0.274
Mof_O 	O 	0.9157	0.47	0.7411	-0.377
Mof_C 	C 	0.8764	0.4988	0.7413	0.369
Mof_C 	C 	0.8826	0.5546	0.7469	-0.18
Mof_H 	H 	0.8676	0.572	0.7179	0.099
Mof_H 	H 	0.8653	0.5662	0.7776	0.106
Mof_O 	O 	0.8325	0.9778	0.2358	-0.256
Mof_O 	O 	0.9157	0.97	0.2411	-0.347
Mof_C 	C 	0.8764	0.9988	0.2413	0.471
Mof_C 	C 	0.8826	0.0546	0.2469	-0.31
Mof_H 	H 	0.8676	0.072	0.2179	0.13
Mof_H 	H 	0.8653	0.0662	0.2776	0.135
Mof_O 	O 	0.9175	0.2722	0.7358	-0.247
Mof_O 	O 	0.8343	0.28	0.7411	-0.421
Mof_C 	C 	0.8736	0.2512	0.7413	0.374
Mof_C 	C 	0.8674	0.1954	0.7469	-0.186
Mof_H 	H 	0.8824	0.178	0.7179	0.103
Mof_H 	H 	0.8847	0.1838	0.7776	0.11
Mof_O 	O 	0.9175	0.7722	0.2358	-0.246
Mof_O 	O 	0.8343	0.78	0.2411	-0.42
Mof_C 	C 	0.8736	0.7512	0.2413	0.373
Mof_C 	C 	0.8674	0.6954	0.2469	-0.184
Mof_H 	H 	0.8824	0.678	0.2179	0.102
Mof_H 	H 	0.8847	0.6838	0.2776	0.109
Mof_O 	O 	0.4175	0.2722	0.2358	-0.281
Mof_O 	O 	0.3343	0.28	0.2411	-0.427
Mof_C 	C 	0.3736	0.2512	0.2413	0.377
Mof_C 	C 	0.3674	0.1954	0.2469	-0.186
Mof_H 	H 	0.3824	0.178	0.2179	0.099
Mof_H 	H 	0.3847	0.1838	0.2776	0.104
Mof_O 	O 	0.4175	0.7722	0.7358	-0.278
Mof_O 	O 	0.3343	0.78	0.7411	-0.423
Mof_C 	C 	0.3736	0.7512	0.7413	0.379
Mof_C 	C 	0.3674	0.6954	0.7469	-0.188
Mof_H 	H 	0.3824	0.678	0.7179	0.1
Mof_H 	H 	0.3847	0.6838	0.7776	0.106
Mof_O 	O 	0.8325	0.7722	0.5142	-0.273
Mof_O 	O 	0.9157	0.78	0.5089	-0.376
Mof_C 	C 	0.8764	0.7512	0.5087	0.368
Mof_C 	C 	0.8826	0.6954	0.5031	-0.179
Mof_H 	H 	0.8676	0.678	0.5321	0.099
Mof_H 	H 	0.8653	0.6838	0.4724	0.104
Mof_O 	O 	0.8325	0.2722	0.0142	-0.304
Mof_O 	O 	0.9157	0.28	0.0089	-0.389
Mof_C 	C 	0.8764	0.2512	0.0087	0.4
Mof_C 	C 	0.8826	0.1954	0.0031	-0.324
Mof_H 	H 	0.8676	0.178	0.0321	0.134
Mof_H 	H 	0.8653	0.1838	0.9724	0.204
Mof_O 	O 	0.3325	0.7722	0.0142	-0.308
Mof_O 	O 	0.4157	0.78	0.0089	-0.437
Mof_C 	C 	0.3764	0.7512	0.0087	0.41
Mof_C 	C 	0.3826	0.6954	0.0031	-0.332
Mof_H 	H 	0.3676	0.678	0.0321	0.135
Mof_H 	H 	0.3653	0.6838	0.9724	0.205
Mof_O 	O 	0.3325	0.2722	0.5142	-0.281
Mof_O 	O 	0.4157	0.28	0.5089	-0.427
Mof_C 	C 	0.3764	0.2512	0.5087	0.378
Mof_C 	C 	0.3826	0.1954	0.5031	-0.186
Mof_H 	H 	0.3676	0.178	0.5321	0.1
Mof_H 	H 	0.3653	0.1838	0.4724	0.104
Mof_O 	O 	0.1675	0.2642	0.0222	-0.276
Mof_O 	O 	0.0843	0.2589	0.03	-0.4
Mof_C 	C 	0.1236	0.2587	0.0012	0.266
Mof_C 	C 	0.1174	0.2531	0.9454	-0.079
Mof_H 	H 	0.1324	0.2821	0.928	0.081
Mof_H 	H 	0.1347	0.2224	0.9338	0.084
Mof_O 	O 	0.1675	0.7642	0.5222	-0.283
Mof_O 	O 	0.0843	0.7589	0.53	-0.419
Mof_C 	C 	0.1236	0.7587	0.5012	0.381
Mof_C 	C 	0.1174	0.7531	0.4454	-0.206
Mof_H 	H 	0.1324	0.7821	0.428	0.107
Mof_H 	H 	0.1347	0.7224	0.4338	0.109
Mof_O 	O 	0.6675	0.2642	0.5222	-0.281
Mof_O 	O 	0.5843	0.2589	0.53	-0.427
Mof_C 	C 	0.6236	0.2587	0.5012	0.377
Mof_C 	C 	0.6174	0.2531	0.4454	-0.187
Mof_H 	H 	0.6324	0.2821	0.428	0.1
Mof_H 	H 	0.6347	0.2224	0.4338	0.103
Mof_O 	O 	0.6675	0.7642	0.0222	-0.273
Mof_O 	O 	0.5843	0.7589	0.03	-0.407
Mof_C 	C 	0.6236	0.7587	0.0012	0.268
Mof_C 	C 	0.6174	0.7531	0.9454	-0.067
Mof_H 	H 	0.6324	0.7821	0.928	0.077
Mof_H 	H 	0.6347	0.7224	0.9338	0.081
Mof_O 	O 	0.0825	0.4858	0.5222	-0.289
Mof_O 	O 	0.1657	0.4911	0.53	-0.429
Mof_C 	C 	0.1264	0.4913	0.5012	0.378
Mof_C 	C 	0.1326	0.4969	0.4454	-0.186
Mof_H 	H 	0.1176	0.4679	0.428	0.099
Mof_H 	H 	0.1153	0.5276	0.4338	0.103
Mof_O 	O 	0.0825	0.9858	0.0222	-0.212
Mof_O 	O 	0.1657	0.9911	0.03	-0.323
Mof_C 	C 	0.1264	0.9913	0.0012	0.178
Mof_C 	C 	0.1326	0.9969	0.9454	0.244
Mof_H 	H 	0.1176	0.9679	0.928	-0.001
Mof_H 	H 	0.1153	0.0276	0.9338	-0.058
Mof_O 	O 	0.5825	0.4858	0.0222	-0.274
Mof_O 	O 	0.6657	0.4911	0.03	-0.407
Mof_C 	C 	0.6264	0.4913	0.0012	0.266
Mof_C 	C 	0.6326	0.4969	0.9454	-0.064
Mof_H 	H 	0.6176	0.4679	0.928	0.076
Mof_H 	H 	0.6153	0.5276	0.9338	0.08
Mof_O 	O 	0.5825	0.9858	0.5222	-0.211
Mof_O 	O 	0.6657	0.9911	0.53	-0.342
Mof_C 	C 	0.6264	0.9913	0.5012	0.287
Mof_C 	C 	0.6326	0.9969	0.4454	0.13
Mof_H 	H 	0.6176	0.9679	0.428	0.022
Mof_H 	H 	0.6153	0.0276	0.4338	-0.037
Mof_O 	O 	0.6675	0.9858	0.7278	-0.213
Mof_O 	O 	0.5843	0.9911	0.72	-0.343
Mof_C 	C 	0.6236	0.9913	0.7488	0.289
Mof_C 	C 	0.6174	0.9969	0.8046	0.121
Mof_H 	H 	0.6324	0.9679	0.822	0.026
Mof_H 	H 	0.6347	0.0276	0.8162	-0.033
Mof_O 	O 	0.6675	0.4858	0.2278	-0.282
Mof_O 	O 	0.5843	0.4911	0.22	-0.428
Mof_C 	C 	0.6236	0.4913	0.2488	0.378
Mof_C 	C 	0.6174	0.4969	0.3046	-0.187
Mof_H 	H 	0.6324	0.4679	0.322	0.1
Mof_H 	H 	0.6347	0.5276	0.3162	0.104
Mof_O 	O 	0.1675	0.9858	0.2278	-0.212
Mof_O 	O 	0.0843	0.9911	0.22	-0.333
Mof_C 	C 	0.1236	0.9913	0.2488	0.288
Mof_C 	C 	0.1174	0.9969	0.3046	0.118
Mof_H 	H 	0.1324	0.9679	0.322	0.027
Mof_H 	H 	0.1347	0.0276	0.3162	-0.035
Mof_O 	O 	0.1675	0.4858	0.7278	-0.283
Mof_O 	O 	0.0843	0.4911	0.72	-0.42
Mof_C 	C 	0.1236	0.4913	0.7488	0.381
Mof_C 	C 	0.1174	0.4969	0.8046	-0.207
Mof_H 	H 	0.1324	0.4679	0.822	0.108
Mof_H 	H 	0.1347	0.5276	0.8162	0.11
Mof_O 	O 	0.5825	0.7642	0.2278	-0.282
Mof_O 	O 	0.6657	0.7589	0.22	-0.428
Mof_C 	C 	0.6264	0.7587	0.2488	0.378
Mof_C 	C 	0.6326	0.7531	0.3046	-0.188
Mof_H 	H 	0.6176	0.7821	0.322	0.101
Mof_H 	H 	0.6153	0.7224	0.3162	0.104
Mof_O 	O 	0.5825	0.2642	0.7278	-0.282
Mof_O 	O 	0.6657	0.2589	0.72	-0.428
Mof_C 	C 	0.6264	0.2587	0.7488	0.378
Mof_C 	C 	0.6326	0.2531	0.8046	-0.189
Mof_H 	H 	0.6176	0.2821	0.822	0.102
Mof_H 	H 	0.6153	0.2224	0.8162	0.105
Mof_O 	O 	0.0825	0.7642	0.7278	-0.289
Mof_O 	O 	0.1657	0.7589	0.72	-0.429
Mof_C 	C 	0.1264	0.7587	0.7488	0.379
Mof_C 	C 	0.1326	0.7531	0.8046	-0.189
Mof_H 	H 	0.1176	0.7821	0.822	0.102
Mof_H 	H 	0.1153	0.7224	0.8162	0.105
Mof_O 	O 	0.0825	0.2642	0.2278	-0.291
Mof_O 	O 	0.1657	0.2589	0.22	-0.431
Mof_C 	C 	0.1264	0.2587	0.2488	0.377
Mof_C 	C 	0.1326	0.2531	0.3046	-0.186
Mof_H 	H 	0.1176	0.2821	0.322	0.099
Mof_H 	H 	0.1153	0.2224	0.3162	0.102
Mof_O 	O 	0.7642	0.2278	0.5825	-0.282
Mof_O 	O 	0.7589	0.22	0.6657	-0.428
Mof_C 	C 	0.7587	0.2488	0.6264	0.378
Mof_C 	C 	0.7531	0.3046	0.6326	-0.188
Mof_H 	H 	0.7821	0.322	0.6176	0.101
Mof_H 	H 	0.7224	0.3162	0.6153	0.104
Mof_O 	O 	0.7642	0.7278	0.0825	-0.289
Mof_O 	O 	0.7589	0.72	0.1657	-0.429
Mof_C 	C 	0.7587	0.7488	0.1264	0.379
Mof_C 	C 	0.7531	0.8046	0.1326	-0.189
Mof_H 	H 	0.7821	0.822	0.1176	0.102
Mof_H 	H 	0.7224	0.8162	0.1153	0.105
Mof_O 	O 	0.2642	0.2278	0.0825	-0.291
Mof_O 	O 	0.2589	0.22	0.1657	-0.431
Mof_C 	C 	0.2587	0.2488	0.1264	0.377
Mof_C 	C 	0.2531	0.3046	0.1326	-0.186
Mof_H 	H 	0.2821	0.322	0.1176	0.099
Mof_H 	H 	0.2224	0.3162	0.1153	0.102
Mof_O 	O 	0.2642	0.7278	0.5825	-0.282
Mof_O 	O 	0.2589	0.72	0.6657	-0.428
Mof_C 	C 	0.2587	0.7488	0.6264	0.378
Mof_C 	C 	0.2531	0.8046	0.6326	-0.189
Mof_H 	H 	0.2821	0.822	0.6176	0.102
Mof_H 	H 	0.2224	0.8162	0.6153	0.105
Mof_O 	O 	0.9858	0.7278	0.6675	-0.213
Mof_O 	O 	0.9911	0.72	0.5843	-0.343
Mof_C 	C 	0.9913	0.7488	0.6236	0.289
Mof_C 	C 	0.9969	0.8046	0.6174	0.121
Mof_H 	H 	0.9679	0.822	0.6324	0.026
Mof_H 	H 	0.0276	0.8162	0.6347	-0.033
Mof_O 	O 	0.9858	0.2278	0.1675	-0.212
Mof_O 	O 	0.9911	0.22	0.0843	-0.333
Mof_C 	C 	0.9913	0.2488	0.1236	0.288
Mof_C 	C 	0.9969	0.3046	0.1174	0.118
Mof_H 	H 	0.9679	0.322	0.1324	0.027
Mof_H 	H 	0.0276	0.3162	0.1347	-0.035
Mof_O 	O 	0.4858	0.7278	0.1675	-0.283
Mof_O 	O 	0.4911	0.72	0.0843	-0.42
Mof_C 	C 	0.4913	0.7488	0.1236	0.381
Mof_C 	C 	0.4969	0.8046	0.1174	-0.207
Mof_H 	H 	0.4679	0.822	0.1324	0.108
Mof_H 	H 	0.5276	0.8162	0.1347	0.11
Mof_O 	O 	0.4858	0.2278	0.6675	-0.282
Mof_O 	O 	0.4911	0.22	0.5843	-0.428
Mof_C 	C 	0.4913	0.2488	0.6236	0.378
Mof_C 	C 	0.4969	0.3046	0.6174	-0.187
Mof_H 	H 	0.4679	0.322	0.6324	0.1
Mof_H 	H 	0.5276	0.3162	0.6347	0.104
Mof_O 	O 	0.4858	0.5222	0.0825	-0.289
Mof_O 	O 	0.4911	0.53	0.1657	-0.429
Mof_C 	C 	0.4913	0.5012	0.1264	0.378
Mof_C 	C 	0.4969	0.4454	0.1326	-0.186
Mof_H 	H 	0.4679	0.428	0.1176	0.099
Mof_H 	H 	0.5276	0.4338	0.1153	0.103
Mof_O 	O 	0.4858	0.0222	0.5825	-0.274
Mof_O 	O 	0.4911	0.03	0.6657	-0.407
Mof_C 	C 	0.4913	0.0012	0.6264	0.266
Mof_C 	C 	0.4969	0.9454	0.6326	-0.064
Mof_H 	H 	0.4679	0.928	0.6176	0.076
Mof_H 	H 	0.5276	0.9338	0.6153	0.08
Mof_O 	O 	0.9858	0.5222	0.5825	-0.211
Mof_O 	O 	0.9911	0.53	0.6657	-0.342
Mof_C 	C 	0.9913	0.5012	0.6264	0.287
Mof_C 	C 	0.9969	0.4454	0.6326	0.13
Mof_H 	H 	0.9679	0.428	0.6176	0.022
Mof_H 	H 	0.0276	0.4338	0.6153	-0.037
Mof_O 	O 	0.9858	0.0222	0.0825	-0.212
Mof_O 	O 	0.9911	0.03	0.1657	-0.323
Mof_C 	C 	0.9913	0.0012	0.1264	0.178
Mof_C 	C 	0.9969	0.9454	0.1326	0.244
Mof_H 	H 	0.9679	0.928	0.1176	-0.001
Mof_H 	H 	0.0276	0.9338	0.1153	-0.058
Mof_O 	O 	0.2642	0.0222	0.1675	-0.276
Mof_O 	O 	0.2589	0.03	0.0843	-0.4
Mof_C 	C 	0.2587	0.0012	0.1236	0.266
Mof_C 	C 	0.2531	0.9454	0.1174	-0.079
Mof_H 	H 	0.2821	0.928	0.1324	0.081
Mof_H 	H 	0.2224	0.9338	0.1347	0.084
Mof_O 	O 	0.2642	0.5222	0.6675	-0.281
Mof_O 	O 	0.2589	0.53	0.5843	-0.427
Mof_C 	C 	0.2587	0.5012	0.6236	0.377
Mof_C 	C 	0.2531	0.4454	0.6174	-0.187
Mof_H 	H 	0.2821	0.428	0.6324	0.1
Mof_H 	H 	0.2224	0.4338	0.6347	0.103
Mof_O 	O 	0.7642	0.0222	0.6675	-0.273
Mof_O 	O 	0.7589	0.03	0.5843	-0.407
Mof_C 	C 	0.7587	0.0012	0.6236	0.268
Mof_C 	C 	0.7531	0.9454	0.6174	-0.067
Mof_H 	H 	0.7821	0.928	0.6324	0.077
Mof_H 	H 	0.7224	0.9338	0.6347	0.081
Mof_O 	O 	0.7642	0.5222	0.1675	-0.283
Mof_O 	O 	0.7589	0.53	0.0843	-0.419
Mof_C 	C 	0.7587	0.5012	0.1236	0.381
Mof_C 	C 	0.7531	0.4454	0.1174	-0.206
Mof_H 	H 	0.7821	0.428	0.1324	0.107
Mof_H 	H 	0.7224	0.4338	0.1347	0.109
Mof_O 	O 	0.7278	0.6675	0.9858	-0.213
Mof_O 	O 	0.72	0.5843	0.9911	-0.343
Mof_C 	C 	0.7488	0.6236	0.9913	0.289
Mof_C 	C 	0.8046	0.6174	0.9969	0.121
Mof_H 	H 	0.822	0.6324	0.9679	0.026
Mof_H 	H 	0.8162	0.6347	0.0276	-0.033
Mof_O 	O 	0.7278	0.1675	0.4858	-0.283
Mof_O 	O 	0.72	0.0843	0.4911	-0.42
Mof_C 	C 	0.7488	0.1236	0.4913	0.381
Mof_C 	C 	0.8046	0.1174	0.4969	-0.207
Mof_H 	H 	0.822	0.1324	0.4679	0.108
Mof_H 	H 	0.8162	0.1347	0.5276	0.11
Mof_O 	O 	0.2278	0.6675	0.4858	-0.282
Mof_O 	O 	0.22	0.5843	0.4911	-0.428
Mof_C 	C 	0.2488	0.6236	0.4913	0.378
Mof_C 	C 	0.3046	0.6174	0.4969	-0.187
Mof_H 	H 	0.322	0.6324	0.4679	0.1
Mof_H 	H 	0.3162	0.6347	0.5276	0.104
Mof_O 	O 	0.2278	0.1675	0.9858	-0.212
Mof_O 	O 	0.22	0.0843	0.9911	-0.333
Mof_C 	C 	0.2488	0.1236	0.9913	0.288
Mof_C 	C 	0.3046	0.1174	0.9969	0.118
Mof_H 	H 	0.322	0.1324	0.9679	0.027
Mof_H 	H 	0.3162	0.1347	0.0276	-0.035
Mof_O 	O 	0.2278	0.5825	0.7642	-0.282
Mof_O 	O 	0.22	0.6657	0.7589	-0.428
Mof_C 	C 	0.2488	0.6264	0.7587	0.378
Mof_C 	C 	0.3046	0.6326	0.7531	-0.188
Mof_H 	H 	0.322	0.6176	0.7821	0.101
Mof_H 	H 	0.3162	0.6153	0.7224	0.104
Mof_O 	O 	0.2278	0.0825	0.2642	-0.291
Mof_O 	O 	0.22	0.1657	0.2589	-0.431
Mof_C 	C 	0.2488	0.1264	0.2587	0.377
Mof_C 	C 	0.3046	0.1326	0.2531	-0.186
Mof_H 	H 	0.322	0.1176	0.2821	0.099
Mof_H 	H 	0.3162	0.1153	0.2224	0.102
Mof_O 	O 	0.7278	0.5825	0.2642	-0.282
Mof_O 	O 	0.72	0.6657	0.2589	-0.428
Mof_C 	C 	0.7488	0.6264	0.2587	0.378
Mof_C 	C 	0.8046	0.6326	0.2531	-0.189
Mof_H 	H 	0.822	0.6176	0.2821	0.102
Mof_H 	H 	0.8162	0.6153	0.2224	0.105
Mof_O 	O 	0.7278	0.0825	0.7642	-0.289
Mof_O 	O 	0.72	0.1657	0.7589	-0.429
Mof_C 	C 	0.7488	0.1264	0.7587	0.379
Mof_C 	C 	0.8046	0.1326	0.7531	-0.189
Mof_H 	H 	0.822	0.1176	0.7821	0.102
Mof_H 	H 	0.8162	0.1153	0.7224	0.105
Mof_O 	O 	0.0222	0.1675	0.2642	-0.276
Mof_O 	O 	0.03	0.0843	0.2589	-0.4
Mof_C 	C 	0.0012	0.1236	0.2587	0.266
Mof_C 	C 	0.9454	0.1174	0.2531	-0.079
Mof_H 	H 	0.928	0.1324	0.2821	0.081
Mof_H 	H 	0.9338	0.1347	0.2224	0.084
Mof_O 	O 	0.0222	0.6675	0.7642	-0.273
Mof_O 	O 	0.03	0.5843	0.7589	-0.407
Mof_C 	C 	0.0012	0.6236	0.7587	0.268
Mof_C 	C 	0.9454	0.6174	0.7531	-0.067
Mof_H 	H 	0.928	0.6324	0.7821	0.077
Mof_H 	H 	0.9338	0.6347	0.7224	0.081
Mof_O 	O 	0.5222	0.1675	0.7642	-0.283
Mof_O 	O 	0.53	0.0843	0.7589	-0.419
Mof_C 	C 	0.5012	0.1236	0.7587	0.381
Mof_C 	C 	0.4454	0.1174	0.7531	-0.206
Mof_H 	H 	0.428	0.1324	0.7821	0.107
Mof_H 	H 	0.4338	0.1347	0.7224	0.109
Mof_O 	O 	0.5222	0.6675	0.2642	-0.281
Mof_O 	O 	0.53	0.5843	0.2589	-0.427
Mof_C 	C 	0.5012	0.6236	0.2587	0.377
Mof_C 	C 	0.4454	0.6174	0.2531	-0.187
Mof_H 	H 	0.428	0.6324	0.2821	0.1
Mof_H 	H 	0.4338	0.6347	0.2224	0.103
Mof_O 	O 	0.5222	0.0825	0.4858	-0.289
Mof_O 	O 	0.53	0.1657	0.4911	-0.429
Mof_C 	C 	0.5012	0.1264	0.4913	0.378
Mof_C 	C 	0.4454	0.1326	0.4969	-0.186
Mof_H 	H 	0.428	0.1176	0.4679	0.099
Mof_H 	H 	0.4338	0.1153	0.5276	0.103
Mof_O 	O 	0.5222	0.5825	0.9858	-0.211
Mof_O 	O 	0.53	0.6657	0.9911	-0.342
Mof_C 	C 	0.5012	0.6264	0.9913	0.287
Mof_C 	C 	0.4454	0.6326	0.9969	0.13
Mof_H 	H 	0.428	0.6176	0.9679	0.022
Mof_H 	H 	0.4338	0.6153	0.0276	-0.037
Mof_O 	O 	0.0222	0.0825	0.9858	-0.212
Mof_O 	O 	0.03	0.1657	0.9911	-0.323
Mof_C 	C 	0.0012	0.1264	0.9913	0.178
Mof_C 	C 	0.9454	0.1326	0.9969	0.244
Mof_H 	H 	0.928	0.1176	0.9679	-0.001
Mof_H 	H 	0.9338	0.1153	0.0276	-0.058
Mof_O 	O 	0.0222	0.5825	0.4858	-0.274
Mof_O 	O 	0.03	0.6657	0.4911	-0.407
Mof_C 	C 	0.0012	0.6264	0.4913	0.266
Mof_C 	C 	0.9454	0.6326	0.4969	-0.064
Mof_H 	H 	0.928	0.6176	0.4679	0.076
Mof_H 	H 	0.9338	0.6153	0.5276	0.08
Mof_O 	O 	0.9858	0.5825	0.0222	-0.204
Mof_O 	O 	0.9911	0.6657	0.03	-0.323
Mof_C 	C 	0.9913	0.6264	0.0012	0.181
Mof_C 	C 	0.9969	0.6326	0.9454	0.237
Mof_H 	H 	0.9679	0.6176	0.928	0.002
Mof_H 	H 	0.0276	0.6153	0.9338	-0.055
Mof_O 	O 	0.9858	0.0825	0.5222	-0.218
Mof_O 	O 	0.9911	0.1657	0.53	-0.342
Mof_C 	C 	0.9913	0.1264	0.5012	0.285
Mof_C 	C 	0.9969	0.1326	0.4454	0.136
Mof_H 	H 	0.9679	0.1176	0.428	0.02
Mof_H 	H 	0.0276	0.1153	0.4338	-0.04
Mof_O 	O 	0.4858	0.5825	0.5222	-0.281
Mof_O 	O 	0.4911	0.6657	0.53	-0.427
Mof_C 	C 	0.4913	0.6264	0.5012	0.378
Mof_C 	C 	0.4969	0.6326	0.4454	-0.187
Mof_H 	H 	0.4679	0.6176	0.428	0.1
Mof_H 	H 	0.5276	0.6153	0.4338	0.104
Mof_O 	O 	0.4858	0.0825	0.0222	-0.282
Mof_O 	O 	0.4911	0.1657	0.03	-0.409
Mof_C 	C 	0.4913	0.1264	0.0012	0.264
Mof_C 	C 	0.4969	0.1326	0.9454	-0.062
Mof_H 	H 	0.4679	0.1176	0.928	0.074
Mof_H 	H 	0.5276	0.1153	0.9338	0.079
Mof_O 	O 	0.7642	0.6675	0.5222	-0.281
Mof_O 	O 	0.7589	0.5843	0.53	-0.427
Mof_C 	C 	0.7587	0.6236	0.5012	0.378
Mof_C 	C 	0.7531	0.6174	0.4454	-0.188
Mof_H 	H 	0.7821	0.6324	0.428	0.101
Mof_H 	H 	0.7224	0.6347	0.4338	0.104
Mof_O 	O 	0.7642	0.1675	0.0222	-0.275
Mof_O 	O 	0.7589	0.0843	0.03	-0.4
Mof_C 	C 	0.7587	0.1236	0.0012	0.269
Mof_C 	C 	0.7531	0.1174	0.9454	-0.083
Mof_H 	H 	0.7821	0.1324	0.928	0.083
Mof_H 	H 	0.7224	0.1347	0.9338	0.086
Mof_O 	O 	0.2642	0.6675	0.0222	-0.274
Mof_O 	O 	0.2589	0.5843	0.03	-0.408
Mof_C 	C 	0.2587	0.6236	0.0012	0.264
Mof_C 	C 	0.2531	0.6174	0.9454	-0.063
Mof_H 	H 	0.2821	0.6324	0.928	0.076
Mof_H 	H 	0.2224	0.6347	0.9338	0.079
Mof_O 	O 	0.2642	0.1675	0.5222	-0.283
Mof_O 	O 	0.2589	0.0843	0.53	-0.42
Mof_C 	C 	0.2587	0.1236	0.5012	0.38
Mof_C 	C 	0.2531	0.1174	0.4454	-0.205
Mof_H 	H 	0.2821	0.1324	0.428	0.106
Mof_H 	H 	0.2224	0.1347	0.4338	0.109
Mof_O 	O 	0.2642	0.0825	0.7278	-0.29
Mof_O 	O 	0.2589	0.1657	0.72	-0.43
Mof_C 	C 	0.2587	0.1264	0.7488	0.378
Mof_C 	C 	0.2531	0.1326	0.8046	-0.188
Mof_H 	H 	0.2821	0.1176	0.822	0.101
Mof_H 	H 	0.2224	0.1153	0.8162	0.104
Mof_O 	O 	0.2642	0.5825	0.2278	-0.282
Mof_O 	O 	0.2589	0.6657	0.22	-0.429
Mof_C 	C 	0.2587	0.6264	0.2488	0.377
Mof_C 	C 	0.2531	0.6326	0.3046	-0.187
Mof_H 	H 	0.2821	0.6176	0.322	0.1
Mof_H 	H 	0.2224	0.6153	0.3162	0.103
Mof_O 	O 	0.7642	0.0825	0.2278	-0.29
Mof_O 	O 	0.7589	0.1657	0.22	-0.43
Mof_C 	C 	0.7587	0.1264	0.2488	0.378
Mof_C 	C 	0.7531	0.1326	0.3046	-0.188
Mof_H 	H 	0.7821	0.1176	0.322	0.1
Mof_H 	H 	0.7224	0.1153	0.3162	0.103
Mof_O 	O 	0.7642	0.5825	0.7278	-0.281
Mof_O 	O 	0.7589	0.6657	0.72	-0.427
Mof_C 	C 	0.7587	0.6264	0.7488	0.379
Mof_C 	C 	0.7531	0.6326	0.8046	-0.19
Mof_H 	H 	0.7821	0.6176	0.822	0.103
Mof_H 	H 	0.7224	0.6153	0.8162	0.106
Mof_O 	O 	0.4858	0.1675	0.2278	-0.284
Mof_O 	O 	0.4911	0.0843	0.22	-0.42
Mof_C 	C 	0.4913	0.1236	0.2488	0.381
Mof_C 	C 	0.4969	0.1174	0.3046	-0.206
Mof_H 	H 	0.4679	0.1324	0.322	0.106
Mof_H 	H 	0.5276	0.1347	0.3162	0.109
Mof_O 	O 	0.4858	0.6675	0.7278	-0.281
Mof_O 	O 	0.4911	0.5843	0.72	-0.427
Mof_C 	C 	0.4913	0.6236	0.7488	0.379
Mof_C 	C 	0.4969	0.6174	0.8046	-0.189
Mof_H 	H 	0.4679	0.6324	0.822	0.102
Mof_H 	H 	0.5276	0.6347	0.8162	0.105
Mof_O 	O 	0.9858	0.1675	0.7278	-0.213
Mof_O 	O 	0.9911	0.0843	0.72	-0.334
Mof_C 	C 	0.9913	0.1236	0.7488	0.291
Mof_C 	C 	0.9969	0.1174	0.8046	0.108
Mof_H 	H 	0.9679	0.1324	0.822	0.031
Mof_H 	H 	0.0276	0.1347	0.8162	-0.03
Mof_O 	O 	0.9858	0.6675	0.2278	-0.212
Mof_O 	O 	0.9911	0.5843	0.22	-0.342
Mof_C 	C 	0.9913	0.6236	0.2488	0.286
Mof_C 	C 	0.9969	0.6174	0.3046	0.132
Mof_H 	H 	0.9679	0.6324	0.322	0.022
Mof_H 	H 	0.0276	0.6347	0.3162	-0.038
Mof_O 	O 	0.0222	0.9858	0.5825	-0.204
Mof_O 	O 	0.03	0.9911	0.6657	-0.323
Mof_C 	C 	0.0012	0.9913	0.6264	0.181
Mof_C 	C 	0.9454	0.9969	0.6326	0.237
Mof_H 	H 	0.928	0.9679	0.6176	0.002
Mof_H 	H 	0.9338	0.0276	0.6153	-0.055
Mof_O 	O 	0.0222	0.4858	0.0825	-0.282
Mof_O 	O 	0.03	0.4911	0.1657	-0.409
Mof_C 	C 	0.0012	0.4913	0.1264	0.264
Mof_C 	C 	0.9454	0.4969	0.1326	-0.062
Mof_H 	H 	0.928	0.4679	0.1176	0.074
Mof_H 	H 	0.9338	0.5276	0.1153	0.079
Mof_O 	O 	0.5222	0.9858	0.0825	-0.218
Mof_O 	O 	0.53	0.9911	0.1657	-0.342
Mof_C 	C 	0.5012	0.9913	0.1264	0.285
Mof_C 	C 	0.4454	0.9969	0.1326	0.136
Mof_H 	H 	0.428	0.9679	0.1176	0.02
Mof_H 	H 	0.4338	0.0276	0.1153	-0.04
Mof_O 	O 	0.5222	0.4858	0.5825	-0.281
Mof_O 	O 	0.53	0.4911	0.6657	-0.427
Mof_C 	C 	0.5012	0.4913	0.6264	0.378
Mof_C 	C 	0.4454	0.4969	0.6326	-0.187
Mof_H 	H 	0.428	0.4679	0.6176	0.1
Mof_H 	H 	0.4338	0.5276	0.6153	0.104
Mof_O 	O 	0.5222	0.7642	0.6675	-0.281
Mof_O 	O 	0.53	0.7589	0.5843	-0.427
Mof_C 	C 	0.5012	0.7587	0.6236	0.378
Mof_C 	C 	0.4454	0.7531	0.6174	-0.188
Mof_H 	H 	0.428	0.7821	0.6324	0.101
Mof_H 	H 	0.4338	0.7224	0.6347	0.104
Mof_O 	O 	0.5222	0.2642	0.1675	-0.283
Mof_O 	O 	0.53	0.2589	0.0843	-0.42
Mof_C 	C 	0.5012	0.2587	0.1236	0.38
Mof_C 	C 	0.4454	0.2531	0.1174	-0.205
Mof_H 	H 	0.428	0.2821	0.1324	0.106
Mof_H 	H 	0.4338	0.2224	0.1347	0.109
Mof_O 	O 	0.0222	0.7642	0.1675	-0.275
Mof_O 	O 	0.03	0.7589	0.0843	-0.4
Mof_C 	C 	0.0012	0.7587	0.1236	0.269
Mof_C 	C 	0.9454	0.7531	0.1174	-0.083
Mof_H 	H 	0.928	0.7821	0.1324	0.083
Mof_H 	H 	0.9338	0.7224	0.1347	0.086
Mof_O 	O 	0.0222	0.2642	0.6675	-0.274
Mof_O 	O 	0.03	0.2589	0.5843	-0.408
Mof_C 	C 	0.0012	0.2587	0.6236	0.264
Mof_C 	C 	0.9454	0.2531	0.6174	-0.063
Mof_H 	H 	0.928	0.2821	0.6324	0.076
Mof_H 	H 	0.9338	0.2224	0.6347	0.079
Mof_O 	O 	0.7278	0.2642	0.0825	-0.29
Mof_O 	O 	0.72	0.2589	0.1657	-0.43
Mof_C 	C 	0.7488	0.2587	0.1264	0.378
Mof_C 	C 	0.8046	0.2531	0.1326	-0.188
Mof_H 	H 	0.822	0.2821	0.1176	0.101
Mof_H 	H 	0.8162	0.2224	0.1153	0.104
Mof_O 	O 	0.7278	0.7642	0.5825	-0.281
Mof_O 	O 	0.72	0.7589	0.6657	-0.427
Mof_C 	C 	0.7488	0.7587	0.6264	0.379
Mof_C 	C 	0.8046	0.7531	0.6326	-0.19
Mof_H 	H 	0.822	0.7821	0.6176	0.103
Mof_H 	H 	0.8162	0.7224	0.6153	0.106
Mof_O 	O 	0.2278	0.2642	0.5825	-0.282
Mof_O 	O 	0.22	0.2589	0.6657	-0.429
Mof_C 	C 	0.2488	0.2587	0.6264	0.377
Mof_C 	C 	0.3046	0.2531	0.6326	-0.187
Mof_H 	H 	0.322	0.2821	0.6176	0.1
Mof_H 	H 	0.3162	0.2224	0.6153	0.103
Mof_O 	O 	0.2278	0.7642	0.0825	-0.29
Mof_O 	O 	0.22	0.7589	0.1657	-0.43
Mof_C 	C 	0.2488	0.7587	0.1264	0.378
Mof_C 	C 	0.3046	0.7531	0.1326	-0.188
Mof_H 	H 	0.322	0.7821	0.1176	0.1
Mof_H 	H 	0.3162	0.7224	0.1153	0.103
Mof_O 	O 	0.2278	0.4858	0.1675	-0.284
Mof_O 	O 	0.22	0.4911	0.0843	-0.42
Mof_C 	C 	0.2488	0.4913	0.1236	0.381
Mof_C 	C 	0.3046	0.4969	0.1174	-0.206
Mof_H 	H 	0.322	0.4679	0.1324	0.106
Mof_H 	H 	0.3162	0.5276	0.1347	0.109
Mof_O 	O 	0.2278	0.9858	0.6675	-0.212
Mof_O 	O 	0.22	0.9911	0.5843	-0.342
Mof_C 	C 	0.2488	0.9913	0.6236	0.286
Mof_C 	C 	0.3046	0.9969	0.6174	0.132
Mof_H 	H 	0.322	0.9679	0.6324	0.022
Mof_H 	H 	0.3162	0.0276	0.6347	-0.038
Mof_O 	O 	0.7278	0.4858	0.6675	-0.281
Mof_O 	O 	0.72	0.4911	0.5843	-0.427
Mof_C 	C 	0.7488	0.4913	0.6236	0.379
Mof_C 	C 	0.8046	0.4969	0.6174	-0.189
Mof_H 	H 	0.822	0.4679	0.6324	0.102
Mof_H 	H 	0.8162	0.5276	0.6347	0.105
Mof_O 	O 	0.7278	0.9858	0.1675	-0.213
Mof_O 	O 	0.72	0.9911	0.0843	-0.334
Mof_C 	C 	0.7488	0.9913	0.1236	0.291
Mof_C 	C 	0.8046	0.9969	0.1174	0.108
Mof_H 	H 	0.822	0.9679	0.1324	0.031
Mof_H 	H 	0.8162	0.0276	0.1347	-0.03
Mof_O 	O 	0.5825	0.0222	0.9858	-0.204
Mof_O 	O 	0.6657	0.03	0.9911	-0.323
Mof_C 	C 	0.6264	0.0012	0.9913	0.181
Mof_C 	C 	0.6326	0.9454	0.9969	0.237
Mof_H 	H 	0.6176	0.928	0.9679	0.002
Mof_H 	H 	0.6153	0.9338	0.0276	-0.055
Mof_O 	O 	0.5825	0.5222	0.4858	-0.281
Mof_O 	O 	0.6657	0.53	0.4911	-0.427
Mof_C 	C 	0.6264	0.5012	0.4913	0.378
Mof_C 	C 	0.6326	0.4454	0.4969	-0.187
Mof_H 	H 	0.6176	0.428	0.4679	0.1
Mof_H 	H 	0.6153	0.4338	0.5276	0.104
Mof_O 	O 	0.0825	0.0222	0.4858	-0.282
Mof_O 	O 	0.1657	0.03	0.4911	-0.409
Mof_C 	C 	0.1264	0.0012	0.4913	0.264
Mof_C 	C 	0.1326	0.9454	0.4969	-0.062
Mof_H 	H 	0.1176	0.928	0.4679	0.074
Mof_H 	H 	0.1153	0.9338	0.5276	0.079
Mof_O 	O 	0.0825	0.5222	0.9858	-0.218
Mof_O 	O 	0.1657	0.53	0.9911	-0.342
Mof_C 	C 	0.1264	0.5012	0.9913	0.285
Mof_C 	C 	0.1326	0.4454	0.9969	0.136
Mof_H 	H 	0.1176	0.428	0.9679	0.02
Mof_H 	H 	0.1153	0.4338	0.0276	-0.04
Mof_O 	O 	0.6675	0.5222	0.7642	-0.281
Mof_O 	O 	0.5843	0.53	0.7589	-0.427
Mof_C 	C 	0.6236	0.5012	0.7587	0.378
Mof_C 	C 	0.6174	0.4454	0.7531	-0.188
Mof_H 	H 	0.6324	0.428	0.7821	0.101
Mof_H 	H 	0.6347	0.4338	0.7224	0.104
Mof_O 	O 	0.6675	0.0222	0.2642	-0.274
Mof_O 	O 	0.5843	0.03	0.2589	-0.408
Mof_C 	C 	0.6236	0.0012	0.2587	0.264
Mof_C 	C 	0.6174	0.9454	0.2531	-0.063
Mof_H 	H 	0.6324	0.928	0.2821	0.076
Mof_H 	H 	0.6347	0.9338	0.2224	0.079
Mof_O 	O 	0.1675	0.5222	0.2642	-0.283
Mof_O 	O 	0.0843	0.53	0.2589	-0.42
Mof_C 	C 	0.1236	0.5012	0.2587	0.38
Mof_C 	C 	0.1174	0.4454	0.2531	-0.205
Mof_H 	H 	0.1324	0.428	0.2821	0.106
Mof_H 	H 	0.1347	0.4338	0.2224	0.109
Mof_O 	O 	0.1675	0.0222	0.7642	-0.275
Mof_O 	O 	0.0843	0.03	0.7589	-0.4
Mof_C 	C 	0.1236	0.0012	0.7587	0.269
Mof_C 	C 	0.1174	0.9454	0.7531	-0.083
Mof_H 	H 	0.1324	0.928	0.7821	0.083
Mof_H 	H 	0.1347	0.9338	0.7224	0.086
Mof_O 	O 	0.0825	0.7278	0.2642	-0.29
Mof_O 	O 	0.1657	0.72	0.2589	-0.43
Mof_C 	C 	0.1264	0.7488	0.2587	0.378
Mof_C 	C 	0.1326	0.8046	0.2531	-0.188
Mof_H 	H 	0.1176	0.822	0.2821	0.101
Mof_H 	H 	0.1153	0.8162	0.2224	0.104
Mof_O 	O 	0.0825	0.2278	0.7642	-0.29
Mof_O 	O 	0.1657	0.22	0.7589	-0.43
Mof_C 	C 	0.1264	0.2488	0.7587	0.378
Mof_C 	C 	0.1326	0.3046	0.7531	-0.188
Mof_H 	H 	0.1176	0.322	0.7821	0.1
Mof_H 	H 	0.1153	0.3162	0.7224	0.103
Mof_O 	O 	0.5825	0.7278	0.7642	-0.281
Mof_O 	O 	0.6657	0.72	0.7589	-0.427
Mof_C 	C 	0.6264	0.7488	0.7587	0.379
Mof_C 	C 	0.6326	0.8046	0.7531	-0.19
Mof_H 	H 	0.6176	0.822	0.7821	0.103
Mof_H 	H 	0.6153	0.8162	0.7224	0.106
Mof_O 	O 	0.5825	0.2278	0.2642	-0.282
Mof_O 	O 	0.6657	0.22	0.2589	-0.429
Mof_C 	C 	0.6264	0.2488	0.2587	0.377
Mof_C 	C 	0.6326	0.3046	0.2531	-0.187
Mof_H 	H 	0.6176	0.322	0.2821	0.1
Mof_H 	H 	0.6153	0.3162	0.2224	0.103
Mof_O 	O 	0.1675	0.2278	0.4858	-0.284
Mof_O 	O 	0.0843	0.22	0.4911	-0.42
Mof_C 	C 	0.1236	0.2488	0.4913	0.381
Mof_C 	C 	0.1174	0.3046	0.4969	-0.206
Mof_H 	H 	0.1324	0.322	0.4679	0.106
Mof_H 	H 	0.1347	0.3162	0.5276	0.109
Mof_O 	O 	0.1675	0.7278	0.9858	-0.213
Mof_O 	O 	0.0843	0.72	0.9911	-0.334
Mof_C 	C 	0.1236	0.7488	0.9913	0.291
Mof_C 	C 	0.1174	0.8046	0.9969	0.108
Mof_H 	H 	0.1324	0.822	0.9679	0.031
Mof_H 	H 	0.1347	0.8162	0.0276	-0.03
Mof_O 	O 	0.6675	0.2278	0.9858	-0.212
Mof_O 	O 	0.5843	0.22	0.9911	-0.342
Mof_C 	C 	0.6236	0.2488	0.9913	0.286
Mof_C 	C 	0.6174	0.3046	0.9969	0.132
Mof_H 	H 	0.6324	0.322	0.9679	0.022
Mof_H 	H 	0.6347	0.3162	0.0276	-0.038
Mof_O 	O 	0.6675	0.7278	0.4858	-0.281
Mof_O 	O 	0.5843	0.72	0.4911	-0.427
Mof_C 	C 	0.6236	0.7488	0.4913	0.379
Mof_C 	C 	0.6174	0.8046	0.4969	-0.189
Mof_H 	H 	0.6324	0.822	0.4679	0.102
Mof_H 	H 	0.6347	0.8162	0.5276	0.105
Mof_O 	O 	0.8325	0.7358	0.9778	-0.256
Mof_O 	O 	0.9157	0.7411	0.97	-0.348
Mof_C 	C 	0.8764	0.7413	0.9988	0.47
Mof_C 	C 	0.8826	0.7469	0.0546	-0.309
Mof_H 	H 	0.8676	0.7179	0.072	0.13
Mof_H 	H 	0.8653	0.7776	0.0662	0.136
Mof_O 	O 	0.8325	0.2358	0.4778	-0.275
Mof_O 	O 	0.9157	0.2411	0.47	-0.376
Mof_C 	C 	0.8764	0.2413	0.4988	0.368
Mof_C 	C 	0.8826	0.2469	0.5546	-0.179
Mof_H 	H 	0.8676	0.2179	0.572	0.098
Mof_H 	H 	0.8653	0.2776	0.5662	0.104
Mof_O 	O 	0.3325	0.7358	0.4778	-0.28
Mof_O 	O 	0.4157	0.7411	0.47	-0.426
Mof_C 	C 	0.3764	0.7413	0.4988	0.379
Mof_C 	C 	0.3826	0.7469	0.5546	-0.188
Mof_H 	H 	0.3676	0.7179	0.572	0.1
Mof_H 	H 	0.3653	0.7776	0.5662	0.106
Mof_O 	O 	0.3325	0.2358	0.9778	-0.261
Mof_O 	O 	0.4157	0.2411	0.97	-0.396
Mof_C 	C 	0.3764	0.2413	0.9988	0.485
Mof_C 	C 	0.3826	0.2469	0.0546	-0.322
Mof_H 	H 	0.3676	0.2179	0.072	0.132
Mof_H 	H 	0.3653	0.2776	0.0662	0.135
Mof_O 	O 	0.9175	0.5142	0.4778	-0.248
Mof_O 	O 	0.8343	0.5089	0.47	-0.422
Mof_C 	C 	0.8736	0.5087	0.4988	0.373
Mof_C 	C 	0.8674	0.5031	0.5546	-0.185
Mof_H 	H 	0.8824	0.5321	0.572	0.103
Mof_H 	H 	0.8847	0.4724	0.5662	0.109
Mof_O 	O 	0.9175	0.0142	0.9778	-0.258
Mof_O 	O 	0.8343	0.0089	0.97	-0.404
Mof_C 	C 	0.8736	0.0087	0.9988	0.509
Mof_C 	C 	0.8674	0.0031	0.0546	-0.46
Mof_H 	H 	0.8824	0.0321	0.072	0.17
Mof_H 	H 	0.8847	0.9724	0.0662	0.239
Mof_O 	O 	0.4175	0.5142	0.9778	-0.262
Mof_O 	O 	0.3343	0.5089	0.97	-0.396
Mof_C 	C 	0.3736	0.5087	0.9988	0.484
Mof_C 	C 	0.3674	0.5031	0.0546	-0.322
Mof_H 	H 	0.3824	0.5321	0.072	0.132
Mof_H 	H 	0.3847	0.4724	0.0662	0.135
Mof_O 	O 	0.4175	0.0142	0.4778	-0.311
Mof_O 	O 	0.3343	0.0089	0.47	-0.44
Mof_C 	C 	0.3736	0.0087	0.4988	0.41
Mof_C 	C 	0.3674	0.0031	0.5546	-0.334
Mof_H 	H 	0.3824	0.0321	0.572	0.136
Mof_H 	H 	0.3847	0.9724	0.5662	0.205
Mof_O 	O 	0.3325	0.0142	0.2722	-0.311
Mof_O 	O 	0.4157	0.0089	0.28	-0.44
Mof_C 	C 	0.3764	0.0087	0.2512	0.41
Mof_C 	C 	0.3826	0.0031	0.1954	-0.335
Mof_H 	H 	0.3676	0.0321	0.178	0.136
Mof_H 	H 	0.3653	0.9724	0.1838	0.206
Mof_O 	O 	0.3325	0.5142	0.7722	-0.279
Mof_O 	O 	0.4157	0.5089	0.78	-0.424
Mof_C 	C 	0.3764	0.5087	0.7512	0.378
Mof_C 	C 	0.3826	0.5031	0.6954	-0.187
Mof_H 	H 	0.3676	0.5321	0.678	0.1
Mof_H 	H 	0.3653	0.4724	0.6838	0.104
Mof_O 	O 	0.8325	0.0142	0.7722	-0.302
Mof_O 	O 	0.9157	0.0089	0.78	-0.388
Mof_C 	C 	0.8764	0.0087	0.7512	0.399
Mof_C 	C 	0.8826	0.0031	0.6954	-0.321
Mof_H 	H 	0.8676	0.0321	0.678	0.133
Mof_H 	H 	0.8653	0.9724	0.6838	0.202
Mof_O 	O 	0.8325	0.5142	0.2722	-0.275
Mof_O 	O 	0.9157	0.5089	0.28	-0.376
Mof_C 	C 	0.8764	0.5087	0.2512	0.368
Mof_C 	C 	0.8826	0.5031	0.1954	-0.179
Mof_H 	H 	0.8676	0.5321	0.178	0.099
Mof_H 	H 	0.8653	0.4724	0.1838	0.104
Mof_O 	O 	0.4175	0.2358	0.7722	-0.279
Mof_O 	O 	0.3343	0.2411	0.78	-0.424
Mof_C 	C 	0.3736	0.2413	0.7512	0.377
Mof_C 	C 	0.3674	0.2469	0.6954	-0.186
Mof_H 	H 	0.3824	0.2179	0.678	0.099
Mof_H 	H 	0.3847	0.2776	0.6838	0.104
Mof_O 	O 	0.4175	0.7358	0.2722	-0.28
Mof_O 	O 	0.3343	0.7411	0.28	-0.425
Mof_C 	C 	0.3736	0.7413	0.2512	0.379
Mof_C 	C 	0.3674	0.7469	0.1954	-0.187
Mof_H 	H 	0.3824	0.7179	0.178	0.1
Mof_H 	H 	0.3847	0.7776	0.1838	0.105
Mof_O 	O 	0.9175	0.2358	0.2722	-0.247
Mof_O 	O 	0.8343	0.2411	0.28	-0.422
Mof_C 	C 	0.8736	0.2413	0.2512	0.373
Mof_C 	C 	0.8674	0.2469	0.1954	-0.184
Mof_H 	H 	0.8824	0.2179	0.178	0.102
Mof_H 	H 	0.8847	0.2776	0.1838	0.109
Mof_O 	O 	0.9175	0.7358	0.7722	-0.246
Mof_O 	O 	0.8343	0.7411	0.78	-0.419
Mof_C 	C 	0.8736	0.7413	0.7512	0.374
Mof_C 	C 	0.8674	0.7469	0.6954	-0.186
Mof_H 	H 	0.8824	0.7179	0.678	0.103
Mof_H 	H 	0.8847	0.7776	0.6838	0.11
Mof_O 	O 	0.2358	0.7722	0.4175	-0.279
Mof_O 	O 	0.2411	0.78	0.3343	-0.424
Mof_C 	C 	0.2413	0.7512	0.3736	0.377
Mof_C 	C 	0.2469	0.6954	0.3674	-0.186
Mof_H 	H 	0.2179	0.678	0.3824	0.099
Mof_H 	H 	0.2776	0.6838	0.3847	0.104
Mof_O 	O 	0.2358	0.2722	0.9175	-0.247
Mof_O 	O 	0.2411	0.28	0.8343	-0.422
Mof_C 	C 	0.2413	0.2512	0.8736	0.373
Mof_C 	C 	0.2469	0.1954	0.8674	-0.184
Mof_H 	H 	0.2179	0.178	0.8824	0.102
Mof_H 	H 	0.2776	0.1838	0.8847	0.109
Mof_O 	O 	0.7358	0.7722	0.9175	-0.246
Mof_O 	O 	0.7411	0.78	0.8343	-0.419
Mof_C 	C 	0.7413	0.7512	0.8736	0.374
Mof_C 	C 	0.7469	0.6954	0.8674	-0.186
Mof_H 	H 	0.7179	0.678	0.8824	0.103
Mof_H 	H 	0.7776	0.6838	0.8847	0.11
Mof_O 	O 	0.7358	0.2722	0.4175	-0.28
Mof_O 	O 	0.7411	0.28	0.3343	-0.425
Mof_C 	C 	0.7413	0.2512	0.3736	0.379
Mof_C 	C 	0.7469	0.1954	0.3674	-0.187
Mof_H 	H 	0.7179	0.178	0.3824	0.1
Mof_H 	H 	0.7776	0.1838	0.3847	0.105
Mof_O 	O 	0.0142	0.2722	0.3325	-0.311
Mof_O 	O 	0.0089	0.28	0.4157	-0.44
Mof_C 	C 	0.0087	0.2512	0.3764	0.41
Mof_C 	C 	0.0031	0.1954	0.3826	-0.335
Mof_H 	H 	0.0321	0.178	0.3676	0.136
Mof_H 	H 	0.9724	0.1838	0.3653	0.206
Mof_O 	O 	0.0142	0.7722	0.8325	-0.302
Mof_O 	O 	0.0089	0.78	0.9157	-0.388
Mof_C 	C 	0.0087	0.7512	0.8764	0.399
Mof_C 	C 	0.0031	0.6954	0.8826	-0.321
Mof_H 	H 	0.0321	0.678	0.8676	0.133
Mof_H 	H 	0.9724	0.6838	0.8653	0.202
Mof_O 	O 	0.5142	0.2722	0.8325	-0.275
Mof_O 	O 	0.5089	0.28	0.9157	-0.376
Mof_C 	C 	0.5087	0.2512	0.8764	0.368
Mof_C 	C 	0.5031	0.1954	0.8826	-0.179
Mof_H 	H 	0.5321	0.178	0.8676	0.099
Mof_H 	H 	0.4724	0.1838	0.8653	0.104
Mof_O 	O 	0.5142	0.7722	0.3325	-0.279
Mof_O 	O 	0.5089	0.78	0.4157	-0.424
Mof_C 	C 	0.5087	0.7512	0.3764	0.378
Mof_C 	C 	0.5031	0.6954	0.3826	-0.187
Mof_H 	H 	0.5321	0.678	0.3676	0.1
Mof_H 	H 	0.4724	0.6838	0.3653	0.104
Mof_O 	O 	0.5142	0.4778	0.9175	-0.248
Mof_O 	O 	0.5089	0.47	0.8343	-0.422
Mof_C 	C 	0.5087	0.4988	0.8736	0.373
Mof_C 	C 	0.5031	0.5546	0.8674	-0.185
Mof_H 	H 	0.5321	0.572	0.8824	0.103
Mof_H 	H 	0.4724	0.5662	0.8847	0.109
Mof_O 	O 	0.5142	0.9778	0.4175	-0.262
Mof_O 	O 	0.5089	0.97	0.3343	-0.396
Mof_C 	C 	0.5087	0.9988	0.3736	0.484
Mof_C 	C 	0.5031	0.0546	0.3674	-0.322
Mof_H 	H 	0.5321	0.072	0.3824	0.132
Mof_H 	H 	0.4724	0.0662	0.3847	0.135
Mof_O 	O 	0.0142	0.4778	0.4175	-0.311
Mof_O 	O 	0.0089	0.47	0.3343	-0.44
Mof_C 	C 	0.0087	0.4988	0.3736	0.41
Mof_C 	C 	0.0031	0.5546	0.3674	-0.334
Mof_H 	H 	0.0321	0.572	0.3824	0.136
Mof_H 	H 	0.9724	0.5662	0.3847	0.205
Mof_O 	O 	0.0142	0.9778	0.9175	-0.258
Mof_O 	O 	0.0089	0.97	0.8343	-0.404
Mof_C 	C 	0.0087	0.9988	0.8736	0.509
Mof_C 	C 	0.0031	0.0546	0.8674	-0.46
Mof_H 	H 	0.0321	0.072	0.8824	0.17
Mof_H 	H 	0.9724	0.0662	0.8847	0.239
Mof_O 	O 	0.7358	0.9778	0.8325	-0.256
Mof_O 	O 	0.7411	0.97	0.9157	-0.348
Mof_C 	C 	0.7413	0.9988	0.8764	0.47
Mof_C 	C 	0.7469	0.0546	0.8826	-0.309
Mof_H 	H 	0.7179	0.072	0.8676	0.13
Mof_H 	H 	0.7776	0.0662	0.8653	0.136
Mof_O 	O 	0.7358	0.4778	0.3325	-0.28
Mof_O 	O 	0.7411	0.47	0.4157	-0.426
Mof_C 	C 	0.7413	0.4988	0.3764	0.379
Mof_C 	C 	0.7469	0.5546	0.3826	-0.188
Mof_H 	H 	0.7179	0.572	0.3676	0.1
Mof_H 	H 	0.7776	0.5662	0.3653	0.106
Mof_O 	O 	0.2358	0.9778	0.3325	-0.261
Mof_O 	O 	0.2411	0.97	0.4157	-0.396
Mof_C 	C 	0.2413	0.9988	0.3764	0.485
Mof_C 	C 	0.2469	0.0546	0.3826	-0.322
Mof_H 	H 	0.2179	0.072	0.3676	0.132
Mof_H 	H 	0.2776	0.0662	0.3653	0.135
Mof_O 	O 	0.2358	0.4778	0.8325	-0.275
Mof_O 	O 	0.2411	0.47	0.9157	-0.376
Mof_C 	C 	0.2413	0.4988	0.8764	0.368
Mof_C 	C 	0.2469	0.5546	0.8826	-0.179
Mof_H 	H 	0.2179	0.572	0.8676	0.098
Mof_H 	H 	0.2776	0.5662	0.8653	0.104
Mof_O 	O 	0.2722	0.3325	0.0142	-0.311
Mof_O 	O 	0.28	0.4157	0.0089	-0.44
Mof_C 	C 	0.2512	0.3764	0.0087	0.41
Mof_C 	C 	0.1954	0.3826	0.0031	-0.335
Mof_H 	H 	0.178	0.3676	0.0321	0.136
Mof_H 	H 	0.1838	0.3653	0.9724	0.206
Mof_O 	O 	0.2722	0.8325	0.5142	-0.275
Mof_O 	O 	0.28	0.9157	0.5089	-0.376
Mof_C 	C 	0.2512	0.8764	0.5087	0.368
Mof_C 	C 	0.1954	0.8826	0.5031	-0.179
Mof_H 	H 	0.178	0.8676	0.5321	0.099
Mof_H 	H 	0.1838	0.8653	0.4724	0.104
Mof_O 	O 	0.7722	0.3325	0.5142	-0.279
Mof_O 	O 	0.78	0.4157	0.5089	-0.424
Mof_C 	C 	0.7512	0.3764	0.5087	0.378
Mof_C 	C 	0.6954	0.3826	0.5031	-0.187
Mof_H 	H 	0.678	0.3676	0.5321	0.1
Mof_H 	H 	0.6838	0.3653	0.4724	0.104
Mof_O 	O 	0.7722	0.8325	0.0142	-0.302
Mof_O 	O 	0.78	0.9157	0.0089	-0.388
Mof_C 	C 	0.7512	0.8764	0.0087	0.399
Mof_C 	C 	0.6954	0.8826	0.0031	-0.321
Mof_H 	H 	0.678	0.8676	0.0321	0.133
Mof_H 	H 	0.6838	0.8653	0.9724	0.202
Mof_O 	O 	0.7722	0.4175	0.2358	-0.279
Mof_O 	O 	0.78	0.3343	0.2411	-0.424
Mof_C 	C 	0.7512	0.3736	0.2413	0.377
Mof_C 	C 	0.6954	0.3674	0.2469	-0.186
Mof_H 	H 	0.678	0.3824	0.2179	0.099
Mof_H 	H 	0.6838	0.3847	0.2776	0.104
Mof_O 	O 	0.7722	0.9175	0.7358	-0.246
Mof_O 	O 	0.78	0.8343	0.7411	-0.419
Mof_C 	C 	0.7512	0.8736	0.7413	0.374
Mof_C 	C 	0.6954	0.8674	0.7469	-0.186
Mof_H 	H 	0.678	0.8824	0.7179	0.103
Mof_H 	H 	0.6838	0.8847	0.7776	0.11
Mof_O 	O 	0.2722	0.4175	0.7358	-0.28
Mof_O 	O 	0.28	0.3343	0.7411	-0.425
Mof_C 	C 	0.2512	0.3736	0.7413	0.379
Mof_C 	C 	0.1954	0.3674	0.7469	-0.187
Mof_H 	H 	0.178	0.3824	0.7179	0.1
Mof_H 	H 	0.1838	0.3847	0.7776	0.105
Mof_O 	O 	0.2722	0.9175	0.2358	-0.247
Mof_O 	O 	0.28	0.8343	0.2411	-0.422
Mof_C 	C 	0.2512	0.8736	0.2413	0.373
Mof_C 	C 	0.1954	0.8674	0.2469	-0.184
Mof_H 	H 	0.178	0.8824	0.2179	0.102
Mof_H 	H 	0.1838	0.8847	0.2776	0.109
Mof_O 	O 	0.9778	0.8325	0.7358	-0.256
Mof_O 	O 	0.97	0.9157	0.7411	-0.348
Mof_C 	C 	0.9988	0.8764	0.7413	0.47
Mof_C 	C 	0.0546	0.8826	0.7469	-0.309
Mof_H 	H 	0.072	0.8676	0.7179	0.13
Mof_H 	H 	0.0662	0.8653	0.7776	0.136
Mof_O 	O 	0.9778	0.3325	0.2358	-0.261
Mof_O 	O 	0.97	0.4157	0.2411	-0.396
Mof_C 	C 	0.9988	0.3764	0.2413	0.485
Mof_C 	C 	0.0546	0.3826	0.2469	-0.322
Mof_H 	H 	0.072	0.3676	0.2179	0.132
Mof_H 	H 	0.0662	0.3653	0.2776	0.135
Mof_O 	O 	0.4778	0.8325	0.2358	-0.275
Mof_O 	O 	0.47	0.9157	0.2411	-0.376
Mof_C 	C 	0.4988	0.8764	0.2413	0.368
Mof_C 	C 	0.5546	0.8826	0.2469	-0.179
Mof_H 	H 	0.572	0.8676	0.2179	0.098
Mof_H 	H 	0.5662	0.8653	0.2776	0.104
Mof_O 	O 	0.4778	0.3325	0.7358	-0.28
Mof_O 	O 	0.47	0.4157	0.7411	-0.426
Mof_C 	C 	0.4988	0.3764	0.7413	0.379
Mof_C 	C 	0.5546	0.3826	0.7469	-0.188
Mof_H 	H 	0.572	0.3676	0.7179	0.1
Mof_H 	H 	0.5662	0.3653	0.7776	0.106
Mof_O 	O 	0.4778	0.9175	0.5142	-0.248
Mof_O 	O 	0.47	0.8343	0.5089	-0.422
Mof_C 	C 	0.4988	0.8736	0.5087	0.373
Mof_C 	C 	0.5546	0.8674	0.5031	-0.185
Mof_H 	H 	0.572	0.8824	0.5321	0.103
Mof_H 	H 	0.5662	0.8847	0.4724	0.109
Mof_O 	O 	0.4778	0.4175	0.0142	-0.311
Mof_O 	O 	0.47	0.3343	0.0089	-0.44
Mof_C 	C 	0.4988	0.3736	0.0087	0.41
Mof_C 	C 	0.5546	0.3674	0.0031	-0.334
Mof_H 	H 	0.572	0.3824	0.0321	0.136
Mof_H 	H 	0.5662	0.3847	0.9724	0.205
Mof_O 	O 	0.9778	0.9175	0.0142	-0.258
Mof_O 	O 	0.97	0.8343	0.0089	-0.404
Mof_C 	C 	0.9988	0.8736	0.0087	0.509
Mof_C 	C 	0.0546	0.8674	0.0031	-0.46
Mof_H 	H 	0.072	0.8824	0.0321	0.17
Mof_H 	H 	0.0662	0.8847	0.9724	0.239
Mof_O 	O 	0.9778	0.4175	0.5142	-0.262
Mof_O 	O 	0.97	0.3343	0.5089	-0.396
Mof_C 	C 	0.9988	0.3736	0.5087	0.484
Mof_C 	C 	0.0546	0.3674	0.5031	-0.322
Mof_H 	H 	0.072	0.3824	0.5321	0.132
Mof_H 	H 	0.0662	0.3847	0.4724	0.135
Mof_Ho	Ho	-0	0.25	-0	1.728
Mof_Ho	Ho	1.31306e-32	0.75	0.5	1.933
Mof_Ho	Ho	0.5	0.25	0.5	2.128
Mof_Ho	Ho	0.25	0.5	0.5	2.128
Mof_Ho	Ho	0.75	0	0.5	1.933
Mof_Ho	Ho	0.75	0.75	0.25	2.128
Mof_Ho	Ho	0.5	5.62796e-33	0.75	1.933
Mof_Ho	Ho	9.3735e-34	0	0.25	1.728
Mof_Ho	Ho	8.44001e-33	0.5	0.75	1.933
Mof_Ho	Ho	0.5	0.5	0.25	2.128
Mof_Ho	Ho	0.5	0.75	-0	1.933
Mof_Ho	Ho	0.25	0.75	0.75	2.128
Mof_Ho	Ho	0.25	0.25	0.25	2.127
Mof_Ho	Ho	0.75	0.5	-0	1.933
Mof_Ho	Ho	0.25	0	-0	1.728
Mof_Ho	Ho	0.75	0.25	0.75	2.128
Mof_Ho	Ho	5.62796e-33	0.75	-0	1.736
Mof_Ho	Ho	0.75	0.5	0.5	2.128
Mof_Ho	Ho	0.25	0.25	0.75	2.128
Mof_Ho	Ho	0.75	0.75	0.75	2.129
Mof_Ho	Ho	0.5	0	0.25	1.928
Mof_Ho	Ho	8.44001e-33	5.62796e-33	0.75	1.736
Mof_Ho	Ho	3.75133e-33	0.5	0.25	1.928
Mof_Ho	Ho	0.5	0.75	0.5	2.128
Mof_Ho	Ho	0.5	0.25	-0	1.928
Mof_Ho	Ho	0.75	0.25	0.25	2.128
Mof_Ho	Ho	0.25	0.5	-0	1.928
Mof_Ho	Ho	0.25	0	0.5	1.928
Mof_Ho	Ho	0.75	0	-0	1.736
Mof_Ho	Ho	0.5	0.5	0.75	2.128
Mof_Ho	Ho	0.25	0.75	0.25	2.128
Mof_Ho	Ho	1.8747e-33	0.25	0.5	1.928
Mof_Cd	Cd	-0	0.5	-0	0.354
Mof_Cd	Cd	0.5	0.5	0.5	0.518
Mof_Cd	Cd	0.25	0.25	0.5	0.518
Mof_Cd	Cd	0.25	0.75	-0	0.437
Mof_Cd	Cd	0.75	0	0.25	0.437
Mof_Cd	Cd	0.5	0.75	0.75	0.518
Mof_Cd	Cd	2.81205e-33	0.25	0.75	0.437
Mof_Cd	Cd	1.8747e-33	0	0.5	0.354
Mof_Cd	Cd	0.5	0.25	0.25	0.518
Mof_Cd	Cd	0.75	0.5	0.75	0.518
Mof_Cd	Cd	0.5	0	-0	0.354
Mof_Cd	Cd	0.25	0.5	0.25	0.518
Mof_Cd	Cd	0.75	0.75	0.5	0.518
Mof_Cd	Cd	0.25	0.25	-0	0.435
Mof_Cd	Cd	1.8747e-33	0.5	0.5	0.436
Mof_Cd	Cd	-0	0	-0	0.273
Mof_Cd	Cd	0.75	5.62796e-33	0.75	0.439
Mof_Cd	Cd	0.5	0.75	0.25	0.518
Mof_Cd	Cd	1.4068e-32	0.75	0.75	0.439
Mof_Cd	Cd	9.3735e-34	0.25	0.25	0.435
Mof_Cd	Cd	0.75	0.25	0.5	0.518
Mof_Cd	Cd	0.75	0.75	-0	0.439
Mof_Cd	Cd	0.5	0.5	-0	0.436
Mof_Cd	Cd	0.25	0	0.25	0.435
Mof_Cd	Cd	0.25	0.5	0.75	0.518
Mof_Cd	Cd	0.5	0	0.5	0.436
Mof_Cd	Cd	0.25	5.62796e-33	0.75	0.437
Mof_Cd	Cd	0.75	0.25	-0	0.437
Mof_Cd	Cd	3.75133e-33	0.75	0.25	0.437
Mof_Cd	Cd	0.25	0.75	0.5	0.518
Mof_Cd	Cd	0.75	0.5	0.25	0.518
Mof_Cd	Cd	0.5	0.25	0.75	0.518
Mof_O 	O 	5.87392e-33	0.3156	0.0656	-0.297
Mof_O 	O 	2.12066e-33	0.8156	0.5656	-0.326
Mof_O 	O 	0.5	0.3156	0.5656	-0.257
Mof_O 	O 	0.25	0.4344	0.5656	-0.257
Mof_O 	O 	0.75	0.4344	0.0656	-0.223
Mof_O 	O 	0.75	0.8156	0.1844	-0.256
Mof_O 	O 	0.25	0.8156	0.6844	-0.257
Mof_O 	O 	0.5	0.9344	0.6844	-0.245
Mof_O 	O 	9.13333e-33	0.9344	0.1844	-0.314
Mof_O 	O 	-3.06187e-33	0.4344	0.6844	-0.329
Mof_O 	O 	0.0656	5.62796e-33	0.3156	-0.297
Mof_O 	O 	0.0656	0.5	0.8156	-0.224
Mof_O 	O 	0.5656	5.62796e-33	0.8156	-0.326
Mof_O 	O 	0.5656	0.25	0.4344	-0.257
Mof_O 	O 	0.5656	0.75	0.9344	-0.244
Mof_O 	O 	0.0656	0.75	0.4344	-0.223
Mof_O 	O 	0.1844	0.75	0.8156	-0.256
Mof_O 	O 	0.1844	0.25	0.3156	-0.258
Mof_O 	O 	0.6844	0.5	0.9344	-0.245
Mof_O 	O 	0.6844	0	0.4344	-0.329
Mof_O 	O 	0.3156	0.0656	-0	-0.297
Mof_O 	O 	0.3156	0.5656	0.5	-0.257
Mof_O 	O 	0.8156	0.5656	-0	-0.326
Mof_O 	O 	0.4344	0.5656	0.25	-0.257
Mof_O 	O 	0.4344	0.0656	0.75	-0.223
Mof_O 	O 	0.8156	0.1844	0.75	-0.256
Mof_O 	O 	0.8156	0.6844	0.25	-0.257
Mof_O 	O 	0.9344	0.6844	0.5	-0.245
Mof_O 	O 	0.9344	0.1844	-0	-0.314
Mof_O 	O 	0.4344	0.6844	-0	-0.329
Mof_O 	O 	0.0656	0.25	0.9344	-0.212
Mof_O 	O 	0.1844	0.5	0.4344	-0.257
Mof_O 	O 	0.1844	0	0.9344	-0.314
Mof_O 	O 	0.5656	0.5	0.3156	-0.257
Mof_O 	O 	0.6844	0.75	0.3156	-0.256
Mof_O 	O 	0.6844	0.25	0.8156	-0.257
Mof_O 	O 	0.75	0.3156	0.6844	-0.256
Mof_O 	O 	0.25	0.3156	0.1844	-0.258
Mof_O 	O 	0.5	0.8156	0.0656	-0.224
Mof_O 	O 	0.5	0.4344	0.1844	-0.257
Mof_O 	O 	0.25	0.9344	0.0656	-0.212
Mof_O 	O 	0.75	0.9344	0.5656	-0.244
Mof_O 	O 	0.8156	0.0656	0.5	-0.224
Mof_O 	O 	0.3156	0.6844	0.75	-0.256
Mof_O 	O 	0.3156	0.1844	0.25	-0.258
Mof_O 	O 	0.9344	0.0656	0.25	-0.212
Mof_O 	O 	0.9344	0.5656	0.75	-0.244
Mof_O 	O 	0.4344	0.1844	0.5	-0.257
Mof_O 	O 	2.60153e-32	0.6844	0.9344	-0.313
Mof_O 	O 	-3.99922e-33	0.1844	0.4344	-0.33
Mof_O 	O 	0.5	0.6844	0.4344	-0.257
Mof_O 	O 	0.75	0.5656	0.4344	-0.256
Mof_O 	O 	0.25	0.5656	0.9344	-0.245
Mof_O 	O 	0.25	0.1844	0.8156	-0.257
Mof_O 	O 	0.75	0.1844	0.3156	-0.257
Mof_O 	O 	0.75	0.6844	0.8156	-0.256
Mof_O 	O 	0.5	0.0656	0.3156	-0.224
Mof_O 	O 	3.05801e-33	0.0656	0.8156	-0.295
Mof_O 	O 	0.9344	5.62796e-33	0.6844	-0.313
Mof_O 	O 	0.9344	0.5	0.1844	-0.245
Mof_O 	O 	0.4344	1.40699e-33	0.1844	-0.33
Mof_O 	O 	0.4344	0.75	0.5656	-0.256
Mof_O 	O 	0.4344	0.25	0.0656	-0.224
Mof_O 	O 	0.8156	0.25	0.1844	-0.257
Mof_O 	O 	0.8156	0.75	0.6844	-0.256
Mof_O 	O 	0.3156	0.5	0.0656	-0.224
Mof_O 	O 	0.3156	5.62796e-33	0.5656	-0.329
Mof_O 	O 	0.8156	7.03495e-34	0.0656	-0.295
Mof_O 	O 	0.6844	0.9344	-0	-0.313
Mof_O 	O 	0.6844	0.4344	0.5	-0.257
Mof_O 	O 	0.1844	0.4344	-0	-0.33
Mof_O 	O 	0.5656	0.4344	0.75	-0.256
Mof_O 	O 	0.5656	0.9344	0.25	-0.245
Mof_O 	O 	0.1844	0.8156	0.25	-0.257
Mof_O 	O 	0.1844	0.3156	0.75	-0.257
Mof_O 	O 	0.6844	0.8156	0.75	-0.256
Mof_O 	O 	0.0656	0.3156	0.5	-0.224
Mof_O 	O 	0.0656	0.8156	-0	-0.295
Mof_O 	O 	0.9344	0.75	0.0656	-0.212
Mof_O 	O 	0.9344	0.25	0.5656	-0.245
Mof_O 	O 	0.8156	0.5	0.5656	-0.256
Mof_O 	O 	0.4344	0.5	0.6844	-0.257
Mof_O 	O 	0.3156	0.25	0.6844	-0.257
Mof_O 	O 	0.3156	0.75	0.1844	-0.257
Mof_O 	O 	0.25	0.6844	0.3156	-0.257
Mof_O 	O 	0.5	0.1844	0.9344	-0.245
Mof_O 	O 	0.5	0.5656	0.8156	-0.256
Mof_O 	O 	6.81127e-33	0.5656	0.3156	-0.329
Mof_O 	O 	0.75	0.0656	0.9344	-0.212
Mof_O 	O 	0.25	0.0656	0.4344	-0.224
Mof_O 	O 	0.1844	0.9344	0.5	-0.245
Mof_O 	O 	0.6844	0.3156	0.25	-0.257
Mof_O 	O 	0.0656	0.9344	0.75	-0.212
Mof_O 	O 	0.0656	0.4344	0.25	-0.224
Mof_O 	O 	0.5656	0.8156	0.5	-0.256
Mof_O 	O 	0.5656	0.3156	-0	-0.329
_end
