data_functionalizedCrystal
_audit_creation_method	'EQeq! by Chris Wilmer'
_symmetry_space_group_name_H-M	'P1'
_symmetry_Int_Tables_number	1
_symmetry_cell_setting	triclinic
loop_
_symmetry_equiv_pos_as_xyz
  x,y,z
_cell_length_a	35.0673
_cell_length_b	35.0673
_cell_length_c	22.397
_cell_angle_alpha	90
_cell_angle_beta	90
_cell_angle_gamma	120
loop_
_atom_site_label
_atom_site_type_symbol
_atom_site_fract_x
_atom_site_fract_y
_atom_site_fract_z
_atom_site_charge
Mof_O 	O 	0.44694	0.47455	0.43314	-0.435
Mof_O 	O 	0.43291	0.48899	0.52176	-0.433
Mof_C 	C 	0.42176	0.47581	0.4703	0.432
Mof_C 	C 	0.37527	0.46043	0.4532	-0.182
Mof_C 	C 	0.34473	0.45844	0.4946	0.112
Mof_H 	H 	0.3529	0.4664	0.5342	0.006
Mof_C 	C 	0.30184	0.44429	0.4759	-0.194
Mof_H 	H 	0.2821	0.4446	0.5035	0.111
Mof_C 	C 	0.28744	0.43024	0.4203	0.143
Mof_C 	C 	0.31826	0.43241	0.3796	-0.191
Mof_H 	H 	0.3097	0.4236	0.3404	0.097
Mof_C 	C 	0.36168	0.44739	0.396	0.112
Mof_H 	H 	0.3817	0.4485	0.3678	0.005
Mof_C 	C 	0.24048	0.41166	0.4029	-0.078
Mof_C 	C 	0.22045	0.3732	0.3696	-0.041
Mof_H 	H 	0.237	0.3603	0.3583	0.043
Mof_H 	H 	0.2306	0.5059	0.3991	0.093
Mof_O 	O 	0.11361	0.80788	0.76647	-0.435
Mof_O 	O 	0.09958	0.82232	0.85509	-0.433
Mof_C 	C 	0.08843	0.80914	0.80363	0.432
Mof_C 	C 	0.04194	0.79376	0.78653	-0.181
Mof_C 	C 	0.0114	0.79177	0.82793	0.112
Mof_H 	H 	0.01957	0.79973	0.86753	0.007
Mof_C 	C 	0.96851	0.77762	0.80923	-0.193
Mof_H 	H 	0.94877	0.77793	0.83683	0.112
Mof_C 	C 	0.95411	0.76357	0.75363	0.143
Mof_C 	C 	0.98493	0.76574	0.71293	-0.19
Mof_H 	H 	0.97637	0.75693	0.67373	0.098
Mof_C 	C 	0.02835	0.78072	0.72933	0.113
Mof_H 	H 	0.04837	0.78183	0.70113	0.006
Mof_C 	C 	0.90715	0.74499	0.73623	-0.077
Mof_C 	C 	0.88712	0.70653	0.70293	-0.04
Mof_H 	H 	0.90367	0.69363	0.69163	0.044
Mof_H 	H 	0.89727	0.83923	0.73243	0.094
Mof_O 	O 	0.78027	0.14122	0.09981	-0.434
Mof_O 	O 	0.76624	0.15566	0.18843	-0.432
Mof_C 	C 	0.75509	0.14248	0.13697	0.433
Mof_C 	C 	0.7086	0.1271	0.11987	-0.181
Mof_C 	C 	0.67806	0.12511	0.16127	0.113
Mof_H 	H 	0.68623	0.13307	0.20087	0.007
Mof_C 	C 	0.63517	0.11096	0.14257	-0.193
Mof_H 	H 	0.61543	0.11127	0.17017	0.112
Mof_C 	C 	0.62077	0.09691	0.08697	0.144
Mof_C 	C 	0.65159	0.09908	0.04627	-0.19
Mof_H 	H 	0.64303	0.09027	0.00707	0.098
Mof_C 	C 	0.69501	0.11406	0.06267	0.113
Mof_H 	H 	0.71503	0.11517	0.03447	0.006
Mof_C 	C 	0.57381	0.07833	0.06957	-0.077
Mof_C 	C 	0.55378	0.03987	0.03627	-0.04
Mof_H 	H 	0.57033	0.02697	0.02497	0.044
Mof_H 	H 	0.56393	0.17257	0.06577	0.094
Mof_O 	O 	0.52545	0.97239	0.43314	-0.434
Mof_O 	O 	0.51101	0.94392	0.52176	-0.432
Mof_C 	C 	0.52419	0.94595	0.4703	0.433
Mof_C 	C 	0.53957	0.91484	0.4532	-0.181
Mof_C 	C 	0.54156	0.88629	0.4946	0.113
Mof_H 	H 	0.5336	0.8865	0.5342	0.007
Mof_C 	C 	0.55571	0.85755	0.4759	-0.193
Mof_H 	H 	0.5554	0.8375	0.5035	0.112
Mof_C 	C 	0.56976	0.8572	0.4203	0.144
Mof_C 	C 	0.56759	0.88585	0.3796	-0.19
Mof_H 	H 	0.5764	0.8861	0.3404	0.098
Mof_C 	C 	0.55261	0.91429	0.396	0.113
Mof_H 	H 	0.5515	0.9332	0.3678	0.006
Mof_C 	C 	0.58834	0.82882	0.4029	-0.077
Mof_C 	C 	0.6268	0.84725	0.3696	-0.04
Mof_H 	H 	0.6397	0.8767	0.3583	0.044
Mof_H 	H 	0.4941	0.7247	0.3991	0.094
Mof_O 	O 	0.19212	0.30572	0.76647	-0.434
Mof_O 	O 	0.17768	0.27725	0.85509	-0.432
Mof_C 	C 	0.19086	0.27928	0.80363	0.433
Mof_C 	C 	0.20624	0.24817	0.78653	-0.181
Mof_C 	C 	0.20823	0.21962	0.82793	0.113
Mof_H 	H 	0.20027	0.21983	0.86753	0.007
Mof_C 	C 	0.22238	0.19088	0.80923	-0.193
Mof_H 	H 	0.22207	0.17083	0.83683	0.112
Mof_C 	C 	0.23643	0.19053	0.75363	0.144
Mof_C 	C 	0.23426	0.21918	0.71293	-0.19
Mof_H 	H 	0.24307	0.21943	0.67373	0.098
Mof_C 	C 	0.21928	0.24762	0.72933	0.113
Mof_H 	H 	0.21817	0.26653	0.70113	0.006
Mof_C 	C 	0.25501	0.16215	0.73623	-0.077
Mof_C 	C 	0.29347	0.18058	0.70293	-0.04
Mof_H 	H 	0.30637	0.21003	0.69163	0.044
Mof_H 	H 	0.16077	0.05803	0.73243	0.094
Mof_O 	O 	0.85878	0.63906	0.09981	-0.434
Mof_O 	O 	0.84434	0.61059	0.18843	-0.432
Mof_C 	C 	0.85752	0.61262	0.13697	0.433
Mof_C 	C 	0.8729	0.58151	0.11987	-0.181
Mof_C 	C 	0.87489	0.55296	0.16127	0.113
Mof_H 	H 	0.86693	0.55317	0.20087	0.007
Mof_C 	C 	0.88904	0.52422	0.14257	-0.193
Mof_H 	H 	0.88873	0.50417	0.17017	0.112
Mof_C 	C 	0.90309	0.52387	0.08697	0.144
Mof_C 	C 	0.90092	0.55252	0.04627	-0.19
Mof_H 	H 	0.90973	0.55277	0.00707	0.098
Mof_C 	C 	0.88594	0.58096	0.06267	0.113
Mof_H 	H 	0.88483	0.59987	0.03447	0.006
Mof_C 	C 	0.92167	0.49549	0.06957	-0.077
Mof_C 	C 	0.96013	0.51392	0.03627	-0.04
Mof_H 	H 	0.97303	0.54337	0.02497	0.044
Mof_H 	H 	0.82743	0.39137	0.06577	0.094
Mof_O 	O 	0.02761	0.55306	0.43314	-0.434
Mof_O 	O 	0.05608	0.56709	0.52176	-0.432
Mof_C 	C 	0.05405	0.57824	0.4703	0.433
Mof_C 	C 	0.08516	0.62473	0.4532	-0.181
Mof_C 	C 	0.11371	0.65527	0.4946	0.113
Mof_H 	H 	0.1135	0.6471	0.5342	0.007
Mof_C 	C 	0.14245	0.69816	0.4759	-0.193
Mof_H 	H 	0.1625	0.7179	0.5035	0.112
Mof_C 	C 	0.1428	0.71256	0.4203	0.144
Mof_C 	C 	0.11415	0.68174	0.3796	-0.19
Mof_H 	H 	0.1139	0.6903	0.3404	0.098
Mof_C 	C 	0.08571	0.63832	0.396	0.113
Mof_H 	H 	0.0668	0.6183	0.3678	0.006
Mof_C 	C 	0.17118	0.75952	0.4029	-0.077
Mof_C 	C 	0.15275	0.77955	0.3696	-0.04
Mof_H 	H 	0.1233	0.763	0.3583	0.044
Mof_H 	H 	0.2753	0.7694	0.3991	0.094
Mof_O 	O 	0.69428	0.88639	0.76647	-0.434
Mof_O 	O 	0.72275	0.90042	0.85509	-0.432
Mof_C 	C 	0.72072	0.91157	0.80363	0.433
Mof_C 	C 	0.75183	0.95806	0.78653	-0.18
Mof_C 	C 	0.78038	0.9886	0.82793	0.113
Mof_H 	H 	0.78017	0.98043	0.86753	0.007
Mof_C 	C 	0.80912	0.03149	0.80923	-0.192
Mof_H 	H 	0.82917	0.05123	0.83683	0.112
Mof_C 	C 	0.80947	0.04589	0.75363	0.143
Mof_C 	C 	0.78082	0.01507	0.71293	-0.19
Mof_H 	H 	0.78057	0.02363	0.67373	0.098
Mof_C 	C 	0.75238	0.97165	0.72933	0.113
Mof_H 	H 	0.73347	0.95163	0.70113	0.006
Mof_C 	C 	0.83785	0.09285	0.73623	-0.077
Mof_C 	C 	0.81942	0.11288	0.70293	-0.04
Mof_H 	H 	0.78997	0.09633	0.69163	0.044
Mof_H 	H 	0.94197	0.10273	0.73243	0.094
Mof_O 	O 	0.36094	0.21973	0.09981	-0.434
Mof_O 	O 	0.38941	0.23376	0.18843	-0.432
Mof_C 	C 	0.38738	0.24491	0.13697	0.433
Mof_C 	C 	0.41849	0.2914	0.11987	-0.181
Mof_C 	C 	0.44704	0.32194	0.16127	0.113
Mof_H 	H 	0.44683	0.31377	0.20087	0.007
Mof_C 	C 	0.47578	0.36483	0.14257	-0.193
Mof_H 	H 	0.49583	0.38457	0.17017	0.112
Mof_C 	C 	0.47613	0.37923	0.08697	0.144
Mof_C 	C 	0.44748	0.34841	0.04627	-0.19
Mof_H 	H 	0.44723	0.35697	0.00707	0.098
Mof_C 	C 	0.41904	0.30499	0.06267	0.113
Mof_H 	H 	0.40013	0.28497	0.03447	0.006
Mof_C 	C 	0.50451	0.42619	0.06957	-0.077
Mof_C 	C 	0.48608	0.44622	0.03627	-0.04
Mof_H 	H 	0.45663	0.42967	0.02497	0.044
Mof_H 	H 	0.60863	0.43607	0.06577	0.094
Mof_O 	O 	0.47455	0.44694	0.56686	-0.434
Mof_O 	O 	0.48899	0.43291	0.47824	-0.432
Mof_C 	C 	0.47581	0.42176	0.5297	0.433
Mof_C 	C 	0.46043	0.37527	0.5468	-0.181
Mof_C 	C 	0.45844	0.34473	0.5054	0.113
Mof_H 	H 	0.4664	0.3529	0.4658	0.007
Mof_C 	C 	0.44429	0.30184	0.5241	-0.193
Mof_H 	H 	0.4446	0.2821	0.4965	0.112
Mof_C 	C 	0.43024	0.28744	0.5797	0.144
Mof_C 	C 	0.43241	0.31826	0.6204	-0.19
Mof_H 	H 	0.4236	0.3097	0.6596	0.098
Mof_C 	C 	0.44739	0.36168	0.604	0.113
Mof_H 	H 	0.4485	0.3817	0.6322	0.006
Mof_C 	C 	0.41166	0.24048	0.5971	-0.077
Mof_C 	C 	0.3732	0.22045	0.6304	-0.04
Mof_H 	H 	0.3603	0.237	0.6417	0.044
Mof_H 	H 	0.5059	0.2306	0.6009	0.094
Mof_O 	O 	0.14122	0.78027	0.90019	-0.434
Mof_O 	O 	0.15566	0.76624	0.81157	-0.432
Mof_C 	C 	0.14248	0.75509	0.86303	0.433
Mof_C 	C 	0.1271	0.7086	0.88013	-0.181
Mof_C 	C 	0.12511	0.67806	0.83873	0.113
Mof_H 	H 	0.13307	0.68623	0.79913	0.007
Mof_C 	C 	0.11096	0.63517	0.85743	-0.193
Mof_H 	H 	0.11127	0.61543	0.82983	0.112
Mof_C 	C 	0.09691	0.62077	0.91303	0.144
Mof_C 	C 	0.09908	0.65159	0.95373	-0.19
Mof_H 	H 	0.09027	0.64303	0.99293	0.098
Mof_C 	C 	0.11406	0.69501	0.93733	0.113
Mof_H 	H 	0.11517	0.71503	0.96553	0.006
Mof_C 	C 	0.07833	0.57381	0.93043	-0.077
Mof_C 	C 	0.03987	0.55378	0.96373	-0.04
Mof_H 	H 	0.02697	0.57033	0.97503	0.044
Mof_H 	H 	0.17257	0.56393	0.93423	0.094
Mof_O 	O 	0.80788	0.11361	0.23353	-0.434
Mof_O 	O 	0.82232	0.09958	0.14491	-0.432
Mof_C 	C 	0.80914	0.08843	0.19637	0.433
Mof_C 	C 	0.79376	0.04194	0.21347	-0.18
Mof_C 	C 	0.79177	0.0114	0.17207	0.113
Mof_H 	H 	0.79973	0.01957	0.13247	0.007
Mof_C 	C 	0.77762	0.96851	0.19077	-0.193
Mof_H 	H 	0.77793	0.94877	0.16317	0.112
Mof_C 	C 	0.76357	0.95411	0.24637	0.143
Mof_C 	C 	0.76574	0.98493	0.28707	-0.19
Mof_H 	H 	0.75693	0.97637	0.32627	0.098
Mof_C 	C 	0.78072	0.02835	0.27067	0.113
Mof_H 	H 	0.78183	0.04837	0.29887	0.006
Mof_C 	C 	0.74499	0.90715	0.26377	-0.077
Mof_C 	C 	0.70653	0.88712	0.29707	-0.04
Mof_H 	H 	0.69363	0.90367	0.30837	0.044
Mof_H 	H 	0.83923	0.89727	0.26757	0.094
Mof_O 	O 	0.97239	0.52545	0.56686	-0.434
Mof_O 	O 	0.94392	0.51101	0.47824	-0.432
Mof_C 	C 	0.94595	0.52419	0.5297	0.433
Mof_C 	C 	0.91484	0.53957	0.5468	-0.181
Mof_C 	C 	0.88629	0.54156	0.5054	0.113
Mof_H 	H 	0.8865	0.5336	0.4658	0.007
Mof_C 	C 	0.85755	0.55571	0.5241	-0.193
Mof_H 	H 	0.8375	0.5554	0.4965	0.112
Mof_C 	C 	0.8572	0.56976	0.5797	0.144
Mof_C 	C 	0.88585	0.56759	0.6204	-0.19
Mof_H 	H 	0.8861	0.5764	0.6596	0.098
Mof_C 	C 	0.91429	0.55261	0.604	0.113
Mof_H 	H 	0.9332	0.5515	0.6322	0.006
Mof_C 	C 	0.82882	0.58834	0.5971	-0.077
Mof_C 	C 	0.84725	0.6268	0.6304	-0.04
Mof_H 	H 	0.8767	0.6397	0.6417	0.044
Mof_H 	H 	0.7247	0.4941	0.6009	0.094
Mof_O 	O 	0.63906	0.85878	0.90019	-0.434
Mof_O 	O 	0.61059	0.84434	0.81157	-0.432
Mof_C 	C 	0.61262	0.85752	0.86303	0.433
Mof_C 	C 	0.58151	0.8729	0.88013	-0.181
Mof_C 	C 	0.55296	0.87489	0.83873	0.113
Mof_H 	H 	0.55317	0.86693	0.79913	0.007
Mof_C 	C 	0.52422	0.88904	0.85743	-0.193
Mof_H 	H 	0.50417	0.88873	0.82983	0.112
Mof_C 	C 	0.52387	0.90309	0.91303	0.144
Mof_C 	C 	0.55252	0.90092	0.95373	-0.19
Mof_H 	H 	0.55277	0.90973	0.99293	0.098
Mof_C 	C 	0.58096	0.88594	0.93733	0.113
Mof_H 	H 	0.59987	0.88483	0.96553	0.006
Mof_C 	C 	0.49549	0.92167	0.93043	-0.077
Mof_C 	C 	0.51392	0.96013	0.96373	-0.04
Mof_H 	H 	0.54337	0.97303	0.97503	0.044
Mof_H 	H 	0.39137	0.82743	0.93423	0.094
Mof_O 	O 	0.30572	0.19212	0.23353	-0.434
Mof_O 	O 	0.27725	0.17768	0.14491	-0.432
Mof_C 	C 	0.27928	0.19086	0.19637	0.433
Mof_C 	C 	0.24817	0.20624	0.21347	-0.181
Mof_C 	C 	0.21962	0.20823	0.17207	0.113
Mof_H 	H 	0.21983	0.20027	0.13247	0.007
Mof_C 	C 	0.19088	0.22238	0.19077	-0.193
Mof_H 	H 	0.17083	0.22207	0.16317	0.112
Mof_C 	C 	0.19053	0.23643	0.24637	0.144
Mof_C 	C 	0.21918	0.23426	0.28707	-0.19
Mof_H 	H 	0.21943	0.24307	0.32627	0.098
Mof_C 	C 	0.24762	0.21928	0.27067	0.113
Mof_H 	H 	0.26653	0.21817	0.29887	0.006
Mof_C 	C 	0.16215	0.25501	0.26377	-0.077
Mof_C 	C 	0.18058	0.29347	0.29707	-0.04
Mof_H 	H 	0.21003	0.30637	0.30837	0.044
Mof_H 	H 	0.05803	0.16077	0.26757	0.094
Mof_O 	O 	0.55306	0.02761	0.56686	-0.434
Mof_O 	O 	0.56709	0.05608	0.47824	-0.432
Mof_C 	C 	0.57824	0.05405	0.5297	0.433
Mof_C 	C 	0.62473	0.08516	0.5468	-0.181
Mof_C 	C 	0.65527	0.11371	0.5054	0.113
Mof_H 	H 	0.6471	0.1135	0.4658	0.007
Mof_C 	C 	0.69816	0.14245	0.5241	-0.193
Mof_H 	H 	0.7179	0.1625	0.4965	0.112
Mof_C 	C 	0.71256	0.1428	0.5797	0.144
Mof_C 	C 	0.68174	0.11415	0.6204	-0.19
Mof_H 	H 	0.6903	0.1139	0.6596	0.098
Mof_C 	C 	0.63832	0.08571	0.604	0.113
Mof_H 	H 	0.6183	0.0668	0.6322	0.006
Mof_C 	C 	0.75952	0.17118	0.5971	-0.077
Mof_C 	C 	0.77955	0.15275	0.6304	-0.04
Mof_H 	H 	0.763	0.1233	0.6417	0.044
Mof_H 	H 	0.7694	0.2753	0.6009	0.094
Mof_O 	O 	0.21973	0.36094	0.90019	-0.434
Mof_O 	O 	0.23376	0.38941	0.81157	-0.432
Mof_C 	C 	0.24491	0.38738	0.86303	0.433
Mof_C 	C 	0.2914	0.41849	0.88013	-0.181
Mof_C 	C 	0.32194	0.44704	0.83873	0.113
Mof_H 	H 	0.31377	0.44683	0.79913	0.007
Mof_C 	C 	0.36483	0.47578	0.85743	-0.193
Mof_H 	H 	0.38457	0.49583	0.82983	0.112
Mof_C 	C 	0.37923	0.47613	0.91303	0.144
Mof_C 	C 	0.34841	0.44748	0.95373	-0.19
Mof_H 	H 	0.35697	0.44723	0.99293	0.098
Mof_C 	C 	0.30499	0.41904	0.93733	0.113
Mof_H 	H 	0.28497	0.40013	0.96553	0.006
Mof_C 	C 	0.42619	0.50451	0.93043	-0.077
Mof_C 	C 	0.44622	0.48608	0.96373	-0.04
Mof_H 	H 	0.42967	0.45663	0.97503	0.044
Mof_H 	H 	0.43607	0.60863	0.93423	0.094
Mof_O 	O 	0.88639	0.69428	0.23353	-0.434
Mof_O 	O 	0.90042	0.72275	0.14491	-0.432
Mof_C 	C 	0.91157	0.72072	0.19637	0.433
Mof_C 	C 	0.95806	0.75183	0.21347	-0.18
Mof_C 	C 	0.9886	0.78038	0.17207	0.113
Mof_H 	H 	0.98043	0.78017	0.13247	0.007
Mof_C 	C 	0.03149	0.80912	0.19077	-0.192
Mof_H 	H 	0.05123	0.82917	0.16317	0.112
Mof_C 	C 	0.04589	0.80947	0.24637	0.143
Mof_C 	C 	0.01507	0.78082	0.28707	-0.19
Mof_H 	H 	0.02363	0.78057	0.32627	0.098
Mof_C 	C 	0.97165	0.75238	0.27067	0.113
Mof_H 	H 	0.95163	0.73347	0.29887	0.006
Mof_C 	C 	0.09285	0.83785	0.26377	-0.077
Mof_C 	C 	0.11288	0.81942	0.29707	-0.04
Mof_H 	H 	0.09633	0.78997	0.30837	0.044
Mof_H 	H 	0.10273	0.94197	0.26757	0.094
Mof_O 	O 	0.55306	0.52545	0.56686	-0.434
Mof_O 	O 	0.56709	0.51101	0.47824	-0.432
Mof_C 	C 	0.57824	0.52419	0.5297	0.433
Mof_C 	C 	0.62473	0.53957	0.5468	-0.181
Mof_C 	C 	0.65527	0.54156	0.5054	0.113
Mof_H 	H 	0.6471	0.5336	0.4658	0.007
Mof_C 	C 	0.69816	0.55571	0.5241	-0.193
Mof_H 	H 	0.7179	0.5554	0.4965	0.112
Mof_C 	C 	0.71256	0.56976	0.5797	0.144
Mof_C 	C 	0.68174	0.56759	0.6204	-0.19
Mof_H 	H 	0.6903	0.5764	0.6596	0.098
Mof_C 	C 	0.63832	0.55261	0.604	0.113
Mof_H 	H 	0.6183	0.5515	0.6322	0.006
Mof_C 	C 	0.75952	0.58834	0.5971	-0.077
Mof_C 	C 	0.77955	0.6268	0.6304	-0.04
Mof_H 	H 	0.763	0.6397	0.6417	0.044
Mof_H 	H 	0.7694	0.4941	0.6009	0.094
Mof_O 	O 	0.21973	0.85878	0.90019	-0.434
Mof_O 	O 	0.23376	0.84434	0.81157	-0.432
Mof_C 	C 	0.24491	0.85752	0.86303	0.433
Mof_C 	C 	0.2914	0.8729	0.88013	-0.181
Mof_C 	C 	0.32194	0.87489	0.83873	0.113
Mof_H 	H 	0.31377	0.86693	0.79913	0.007
Mof_C 	C 	0.36483	0.88904	0.85743	-0.193
Mof_H 	H 	0.38457	0.88873	0.82983	0.112
Mof_C 	C 	0.37923	0.90309	0.91303	0.144
Mof_C 	C 	0.34841	0.90092	0.95373	-0.19
Mof_H 	H 	0.35697	0.90973	0.99293	0.098
Mof_C 	C 	0.30499	0.88594	0.93733	0.113
Mof_H 	H 	0.28497	0.88483	0.96553	0.006
Mof_C 	C 	0.42619	0.92167	0.93043	-0.077
Mof_C 	C 	0.44622	0.96013	0.96373	-0.04
Mof_H 	H 	0.42967	0.97303	0.97503	0.044
Mof_H 	H 	0.43607	0.82743	0.93423	0.094
Mof_O 	O 	0.88639	0.19212	0.23353	-0.434
Mof_O 	O 	0.90042	0.17768	0.14491	-0.432
Mof_C 	C 	0.91157	0.19086	0.19637	0.433
Mof_C 	C 	0.95806	0.20624	0.21347	-0.18
Mof_C 	C 	0.9886	0.20823	0.17207	0.113
Mof_H 	H 	0.98043	0.20027	0.13247	0.007
Mof_C 	C 	0.03149	0.22238	0.19077	-0.193
Mof_H 	H 	0.05123	0.22207	0.16317	0.112
Mof_C 	C 	0.04589	0.23643	0.24637	0.143
Mof_C 	C 	0.01507	0.23426	0.28707	-0.19
Mof_H 	H 	0.02363	0.24307	0.32627	0.098
Mof_C 	C 	0.97165	0.21928	0.27067	0.113
Mof_H 	H 	0.95163	0.21817	0.29887	0.006
Mof_C 	C 	0.09285	0.25501	0.26377	-0.077
Mof_C 	C 	0.11288	0.29347	0.29707	-0.04
Mof_H 	H 	0.09633	0.30637	0.30837	0.044
Mof_H 	H 	0.10273	0.16077	0.26757	0.094
Mof_O 	O 	0.47455	0.02761	0.56686	-0.434
Mof_O 	O 	0.48899	0.05608	0.47824	-0.432
Mof_C 	C 	0.47581	0.05405	0.5297	0.433
Mof_C 	C 	0.46043	0.08516	0.5468	-0.181
Mof_C 	C 	0.45844	0.11371	0.5054	0.113
Mof_H 	H 	0.4664	0.1135	0.4658	0.007
Mof_C 	C 	0.44429	0.14245	0.5241	-0.193
Mof_H 	H 	0.4446	0.1625	0.4965	0.112
Mof_C 	C 	0.43024	0.1428	0.5797	0.144
Mof_C 	C 	0.43241	0.11415	0.6204	-0.19
Mof_H 	H 	0.4236	0.1139	0.6596	0.098
Mof_C 	C 	0.44739	0.08571	0.604	0.113
Mof_H 	H 	0.4485	0.0668	0.6322	0.006
Mof_C 	C 	0.41166	0.17118	0.5971	-0.077
Mof_C 	C 	0.3732	0.15275	0.6304	-0.04
Mof_H 	H 	0.3603	0.1233	0.6417	0.044
Mof_H 	H 	0.5059	0.2753	0.6009	0.094
Mof_O 	O 	0.14122	0.36094	0.90019	-0.434
Mof_O 	O 	0.15566	0.38941	0.81157	-0.432
Mof_C 	C 	0.14248	0.38738	0.86303	0.433
Mof_C 	C 	0.1271	0.41849	0.88013	-0.181
Mof_C 	C 	0.12511	0.44704	0.83873	0.113
Mof_H 	H 	0.13307	0.44683	0.79913	0.007
Mof_C 	C 	0.11096	0.47578	0.85743	-0.193
Mof_H 	H 	0.11127	0.49583	0.82983	0.112
Mof_C 	C 	0.09691	0.47613	0.91303	0.144
Mof_C 	C 	0.09908	0.44748	0.95373	-0.19
Mof_H 	H 	0.09027	0.44723	0.99293	0.098
Mof_C 	C 	0.11406	0.41904	0.93733	0.113
Mof_H 	H 	0.11517	0.40013	0.96553	0.006
Mof_C 	C 	0.07833	0.50451	0.93043	-0.077
Mof_C 	C 	0.03987	0.48608	0.96373	-0.04
Mof_H 	H 	0.02697	0.45663	0.97503	0.044
Mof_H 	H 	0.17257	0.60863	0.93423	0.094
Mof_O 	O 	0.80788	0.69428	0.23353	-0.434
Mof_O 	O 	0.82232	0.72275	0.14491	-0.432
Mof_C 	C 	0.80914	0.72072	0.19637	0.433
Mof_C 	C 	0.79376	0.75183	0.21347	-0.181
Mof_C 	C 	0.79177	0.78038	0.17207	0.113
Mof_H 	H 	0.79973	0.78017	0.13247	0.007
Mof_C 	C 	0.77762	0.80912	0.19077	-0.193
Mof_H 	H 	0.77793	0.82917	0.16317	0.112
Mof_C 	C 	0.76357	0.80947	0.24637	0.144
Mof_C 	C 	0.76574	0.78082	0.28707	-0.19
Mof_H 	H 	0.75693	0.78057	0.32627	0.098
Mof_C 	C 	0.78072	0.75238	0.27067	0.113
Mof_H 	H 	0.78183	0.73347	0.29887	0.006
Mof_C 	C 	0.74499	0.83785	0.26377	-0.077
Mof_C 	C 	0.70653	0.81942	0.29707	-0.04
Mof_H 	H 	0.69363	0.78997	0.30837	0.044
Mof_H 	H 	0.83923	0.94197	0.26757	0.094
Mof_O 	O 	0.97239	0.44694	0.56686	-0.434
Mof_O 	O 	0.94392	0.43291	0.47824	-0.432
Mof_C 	C 	0.94595	0.42176	0.5297	0.433
Mof_C 	C 	0.91484	0.37527	0.5468	-0.181
Mof_C 	C 	0.88629	0.34473	0.5054	0.113
Mof_H 	H 	0.8865	0.3529	0.4658	0.007
Mof_C 	C 	0.85755	0.30184	0.5241	-0.193
Mof_H 	H 	0.8375	0.2821	0.4965	0.112
Mof_C 	C 	0.8572	0.28744	0.5797	0.144
Mof_C 	C 	0.88585	0.31826	0.6204	-0.19
Mof_H 	H 	0.8861	0.3097	0.6596	0.098
Mof_C 	C 	0.91429	0.36168	0.604	0.113
Mof_H 	H 	0.9332	0.3817	0.6322	0.006
Mof_C 	C 	0.82882	0.24048	0.5971	-0.077
Mof_C 	C 	0.84725	0.22045	0.6304	-0.04
Mof_H 	H 	0.8767	0.237	0.6417	0.044
Mof_H 	H 	0.7247	0.2306	0.6009	0.094
Mof_O 	O 	0.63906	0.78027	0.90019	-0.434
Mof_O 	O 	0.61059	0.76624	0.81157	-0.432
Mof_C 	C 	0.61262	0.75509	0.86303	0.433
Mof_C 	C 	0.58151	0.7086	0.88013	-0.181
Mof_C 	C 	0.55296	0.67806	0.83873	0.113
Mof_H 	H 	0.55317	0.68623	0.79913	0.007
Mof_C 	C 	0.52422	0.63517	0.85743	-0.193
Mof_H 	H 	0.50417	0.61543	0.82983	0.112
Mof_C 	C 	0.52387	0.62077	0.91303	0.144
Mof_C 	C 	0.55252	0.65159	0.95373	-0.19
Mof_H 	H 	0.55277	0.64303	0.99293	0.098
Mof_C 	C 	0.58096	0.69501	0.93733	0.113
Mof_H 	H 	0.59987	0.71503	0.96553	0.006
Mof_C 	C 	0.49549	0.57381	0.93043	-0.077
Mof_C 	C 	0.51392	0.55378	0.96373	-0.04
Mof_H 	H 	0.54337	0.57033	0.97503	0.044
Mof_H 	H 	0.39137	0.56393	0.93423	0.094
Mof_O 	O 	0.30572	0.11361	0.23353	-0.434
Mof_O 	O 	0.27725	0.09958	0.14491	-0.432
Mof_C 	C 	0.27928	0.08843	0.19637	0.433
Mof_C 	C 	0.24817	0.04194	0.21347	-0.18
Mof_C 	C 	0.21962	0.0114	0.17207	0.113
Mof_H 	H 	0.21983	0.01957	0.13247	0.007
Mof_C 	C 	0.19088	0.96851	0.19077	-0.192
Mof_H 	H 	0.17083	0.94877	0.16317	0.112
Mof_C 	C 	0.19053	0.95411	0.24637	0.143
Mof_C 	C 	0.21918	0.98493	0.28707	-0.19
Mof_H 	H 	0.21943	0.97637	0.32627	0.098
Mof_C 	C 	0.24762	0.02835	0.27067	0.113
Mof_H 	H 	0.26653	0.04837	0.29887	0.006
Mof_C 	C 	0.16215	0.90715	0.26377	-0.077
Mof_C 	C 	0.18058	0.88712	0.29707	-0.04
Mof_H 	H 	0.21003	0.90367	0.30837	0.044
Mof_H 	H 	0.05803	0.89727	0.26757	0.094
Mof_O 	O 	0.52545	0.55306	0.43314	-0.434
Mof_O 	O 	0.51101	0.56709	0.52176	-0.432
Mof_C 	C 	0.52419	0.57824	0.4703	0.433
Mof_C 	C 	0.53957	0.62473	0.4532	-0.181
Mof_C 	C 	0.54156	0.65527	0.4946	0.113
Mof_H 	H 	0.5336	0.6471	0.5342	0.007
Mof_C 	C 	0.55571	0.69816	0.4759	-0.193
Mof_H 	H 	0.5554	0.7179	0.5035	0.112
Mof_C 	C 	0.56976	0.71256	0.4203	0.144
Mof_C 	C 	0.56759	0.68174	0.3796	-0.19
Mof_H 	H 	0.5764	0.6903	0.3404	0.098
Mof_C 	C 	0.55261	0.63832	0.396	0.113
Mof_H 	H 	0.5515	0.6183	0.3678	0.006
Mof_C 	C 	0.58834	0.75952	0.4029	-0.077
Mof_C 	C 	0.6268	0.77955	0.3696	-0.04
Mof_H 	H 	0.6397	0.763	0.3583	0.044
Mof_H 	H 	0.4941	0.7694	0.3991	0.094
Mof_O 	O 	0.19212	0.88639	0.76647	-0.434
Mof_O 	O 	0.17768	0.90042	0.85509	-0.432
Mof_C 	C 	0.19086	0.91157	0.80363	0.433
Mof_C 	C 	0.20624	0.95806	0.78653	-0.18
Mof_C 	C 	0.20823	0.9886	0.82793	0.113
Mof_H 	H 	0.20027	0.98043	0.86753	0.007
Mof_C 	C 	0.22238	0.03149	0.80923	-0.193
Mof_H 	H 	0.22207	0.05123	0.83683	0.112
Mof_C 	C 	0.23643	0.04589	0.75363	0.143
Mof_C 	C 	0.23426	0.01507	0.71293	-0.19
Mof_H 	H 	0.24307	0.02363	0.67373	0.098
Mof_C 	C 	0.21928	0.97165	0.72933	0.113
Mof_H 	H 	0.21817	0.95163	0.70113	0.006
Mof_C 	C 	0.25501	0.09285	0.73623	-0.077
Mof_C 	C 	0.29347	0.11288	0.70293	-0.04
Mof_H 	H 	0.30637	0.09633	0.69163	0.044
Mof_H 	H 	0.16077	0.10273	0.73243	0.094
Mof_O 	O 	0.85878	0.21973	0.09981	-0.434
Mof_O 	O 	0.84434	0.23376	0.18843	-0.432
Mof_C 	C 	0.85752	0.24491	0.13697	0.433
Mof_C 	C 	0.8729	0.2914	0.11987	-0.181
Mof_C 	C 	0.87489	0.32194	0.16127	0.113
Mof_H 	H 	0.86693	0.31377	0.20087	0.007
Mof_C 	C 	0.88904	0.36483	0.14257	-0.193
Mof_H 	H 	0.88873	0.38457	0.17017	0.112
Mof_C 	C 	0.90309	0.37923	0.08697	0.144
Mof_C 	C 	0.90092	0.34841	0.04627	-0.19
Mof_H 	H 	0.90973	0.35697	0.00707	0.098
Mof_C 	C 	0.88594	0.30499	0.06267	0.113
Mof_H 	H 	0.88483	0.28497	0.03447	0.006
Mof_C 	C 	0.92167	0.42619	0.06957	-0.077
Mof_C 	C 	0.96013	0.44622	0.03627	-0.04
Mof_H 	H 	0.97303	0.42967	0.02497	0.044
Mof_H 	H 	0.82743	0.43607	0.06577	0.094
Mof_O 	O 	0.02761	0.47455	0.43314	-0.434
Mof_O 	O 	0.05608	0.48899	0.52176	-0.432
Mof_C 	C 	0.05405	0.47581	0.4703	0.433
Mof_C 	C 	0.08516	0.46043	0.4532	-0.181
Mof_C 	C 	0.11371	0.45844	0.4946	0.113
Mof_H 	H 	0.1135	0.4664	0.5342	0.007
Mof_C 	C 	0.14245	0.44429	0.4759	-0.193
Mof_H 	H 	0.1625	0.4446	0.5035	0.112
Mof_C 	C 	0.1428	0.43024	0.4203	0.144
Mof_C 	C 	0.11415	0.43241	0.3796	-0.19
Mof_H 	H 	0.1139	0.4236	0.3404	0.098
Mof_C 	C 	0.08571	0.44739	0.396	0.113
Mof_H 	H 	0.0668	0.4485	0.3678	0.006
Mof_C 	C 	0.17118	0.41166	0.4029	-0.077
Mof_C 	C 	0.15275	0.3732	0.3696	-0.04
Mof_H 	H 	0.1233	0.3603	0.3583	0.044
Mof_H 	H 	0.2753	0.5059	0.3991	0.094
Mof_O 	O 	0.69428	0.80788	0.76647	-0.434
Mof_O 	O 	0.72275	0.82232	0.85509	-0.432
Mof_C 	C 	0.72072	0.80914	0.80363	0.433
Mof_C 	C 	0.75183	0.79376	0.78653	-0.181
Mof_C 	C 	0.78038	0.79177	0.82793	0.113
Mof_H 	H 	0.78017	0.79973	0.86753	0.007
Mof_C 	C 	0.80912	0.77762	0.80923	-0.193
Mof_H 	H 	0.82917	0.77793	0.83683	0.112
Mof_C 	C 	0.80947	0.76357	0.75363	0.144
Mof_C 	C 	0.78082	0.76574	0.71293	-0.19
Mof_H 	H 	0.78057	0.75693	0.67373	0.098
Mof_C 	C 	0.75238	0.78072	0.72933	0.113
Mof_H 	H 	0.73347	0.78183	0.70113	0.006
Mof_C 	C 	0.83785	0.74499	0.73623	-0.077
Mof_C 	C 	0.81942	0.70653	0.70293	-0.04
Mof_H 	H 	0.78997	0.69363	0.69163	0.044
Mof_H 	H 	0.94197	0.83923	0.73243	0.094
Mof_O 	O 	0.36094	0.14122	0.09981	-0.434
Mof_O 	O 	0.38941	0.15566	0.18843	-0.432
Mof_C 	C 	0.38738	0.14248	0.13697	0.433
Mof_C 	C 	0.41849	0.1271	0.11987	-0.181
Mof_C 	C 	0.44704	0.12511	0.16127	0.113
Mof_H 	H 	0.44683	0.13307	0.20087	0.007
Mof_C 	C 	0.47578	0.11096	0.14257	-0.193
Mof_H 	H 	0.49583	0.11127	0.17017	0.112
Mof_C 	C 	0.47613	0.09691	0.08697	0.144
Mof_C 	C 	0.44748	0.09908	0.04627	-0.19
Mof_H 	H 	0.44723	0.09027	0.00707	0.098
Mof_C 	C 	0.41904	0.11406	0.06267	0.113
Mof_H 	H 	0.40013	0.11517	0.03447	0.006
Mof_C 	C 	0.50451	0.07833	0.06957	-0.077
Mof_C 	C 	0.48608	0.03987	0.03627	-0.04
Mof_H 	H 	0.45663	0.02697	0.02497	0.044
Mof_H 	H 	0.60863	0.17257	0.06577	0.094
Mof_O 	O 	0.44694	0.97239	0.43314	-0.434
Mof_O 	O 	0.43291	0.94392	0.52176	-0.432
Mof_C 	C 	0.42176	0.94595	0.4703	0.433
Mof_C 	C 	0.37527	0.91484	0.4532	-0.181
Mof_C 	C 	0.34473	0.88629	0.4946	0.113
Mof_H 	H 	0.3529	0.8865	0.5342	0.007
Mof_C 	C 	0.30184	0.85755	0.4759	-0.193
Mof_H 	H 	0.2821	0.8375	0.5035	0.112
Mof_C 	C 	0.28744	0.8572	0.4203	0.144
Mof_C 	C 	0.31826	0.88585	0.3796	-0.19
Mof_H 	H 	0.3097	0.8861	0.3404	0.098
Mof_C 	C 	0.36168	0.91429	0.396	0.113
Mof_H 	H 	0.3817	0.9332	0.3678	0.006
Mof_C 	C 	0.24048	0.82882	0.4029	-0.077
Mof_C 	C 	0.22045	0.84725	0.3696	-0.04
Mof_H 	H 	0.237	0.8767	0.3583	0.044
Mof_H 	H 	0.2306	0.7247	0.3991	0.094
Mof_O 	O 	0.11361	0.30572	0.76647	-0.434
Mof_O 	O 	0.09958	0.27725	0.85509	-0.432
Mof_C 	C 	0.08843	0.27928	0.80363	0.433
Mof_C 	C 	0.04194	0.24817	0.78653	-0.18
Mof_C 	C 	0.0114	0.21962	0.82793	0.113
Mof_H 	H 	0.01957	0.21983	0.86753	0.007
Mof_C 	C 	0.96851	0.19088	0.80923	-0.192
Mof_H 	H 	0.94877	0.17083	0.83683	0.112
Mof_C 	C 	0.95411	0.19053	0.75363	0.143
Mof_C 	C 	0.98493	0.21918	0.71293	-0.19
Mof_H 	H 	0.97637	0.21943	0.67373	0.098
Mof_C 	C 	0.02835	0.24762	0.72933	0.113
Mof_H 	H 	0.04837	0.26653	0.70113	0.006
Mof_C 	C 	0.90715	0.16215	0.73623	-0.077
Mof_C 	C 	0.88712	0.18058	0.70293	-0.04
Mof_H 	H 	0.90367	0.21003	0.69163	0.044
Mof_H 	H 	0.89727	0.05803	0.73243	0.094
Mof_O 	O 	0.78027	0.63906	0.09981	-0.434
Mof_O 	O 	0.76624	0.61059	0.18843	-0.432
Mof_C 	C 	0.75509	0.61262	0.13697	0.433
Mof_C 	C 	0.7086	0.58151	0.11987	-0.181
Mof_C 	C 	0.67806	0.55296	0.16127	0.113
Mof_H 	H 	0.68623	0.55317	0.20087	0.007
Mof_C 	C 	0.63517	0.52422	0.14257	-0.193
Mof_H 	H 	0.61543	0.50417	0.17017	0.112
Mof_C 	C 	0.62077	0.52387	0.08697	0.144
Mof_C 	C 	0.65159	0.55252	0.04627	-0.19
Mof_H 	H 	0.64303	0.55277	0.00707	0.098
Mof_C 	C 	0.69501	0.58096	0.06267	0.113
Mof_H 	H 	0.71503	0.59987	0.03447	0.006
Mof_C 	C 	0.57381	0.49549	0.06957	-0.077
Mof_C 	C 	0.55378	0.51392	0.03627	-0.04
Mof_H 	H 	0.57033	0.54337	0.02497	0.044
Mof_H 	H 	0.56393	0.39137	0.06577	0.094
Mof_Cu	Cu	0.49153	0.50847	0.55313	0.912
Mof_Cu	Cu	0.1582	0.8418	0.88646	0.912
Mof_Cu	Cu	0.82486	0.17514	0.2198	0.912
Mof_Cu	Cu	0.49153	0.98306	0.55313	0.912
Mof_Cu	Cu	0.1582	0.31639	0.88646	0.912
Mof_Cu	Cu	0.82486	0.64973	0.2198	0.912
Mof_Cu	Cu	0.01694	0.50847	0.55313	0.912
Mof_Cu	Cu	0.68361	0.8418	0.88646	0.912
Mof_Cu	Cu	0.35027	0.17514	0.2198	0.912
Mof_Cu	Cu	0.50847	0.49153	0.44687	0.912
Mof_Cu	Cu	0.17514	0.82486	0.7802	0.912
Mof_Cu	Cu	0.8418	0.1582	0.11354	0.912
Mof_Cu	Cu	0.98306	0.49153	0.44687	0.912
Mof_Cu	Cu	0.64973	0.82486	0.7802	0.912
Mof_Cu	Cu	0.31639	0.1582	0.11354	0.912
Mof_Cu	Cu	0.50847	0.01694	0.44687	0.912
Mof_Cu	Cu	0.17514	0.35027	0.7802	0.912
Mof_Cu	Cu	0.8418	0.68361	0.11354	0.912
Mof_O 	O 	0.2339	0.4678	0.4572	-0.171
Mof_C 	C 	0.17666	0.35332	0.3526	0.006
Mof_C 	C 	0.21524	0.43048	0.4176	0.117
Mof_C 	C 	0.25265	0.5053	0.4238	-0.194
Mof_H 	H 	0.2652	0.5304	0.4498	0.097
Mof_O 	O 	0.90057	0.80113	0.79053	-0.171
Mof_C 	C 	0.84333	0.68665	0.68593	0.006
Mof_C 	C 	0.88191	0.76381	0.75093	0.117
Mof_C 	C 	0.91932	0.83863	0.75713	-0.194
Mof_H 	H 	0.93187	0.86373	0.78313	0.097
Mof_O 	O 	0.56723	0.13447	0.12387	-0.171
Mof_C 	C 	0.50999	0.01999	0.01927	0.006
Mof_C 	C 	0.54857	0.09715	0.08427	0.117
Mof_C 	C 	0.58598	0.17197	0.09047	-0.194
Mof_H 	H 	0.59853	0.19707	0.11647	0.097
Mof_O 	O 	0.5322	0.7661	0.4572	-0.171
Mof_C 	C 	0.64668	0.82334	0.3526	0.006
Mof_C 	C 	0.56952	0.78476	0.4176	0.117
Mof_C 	C 	0.4947	0.74735	0.4238	-0.194
Mof_H 	H 	0.4696	0.7348	0.4498	0.097
Mof_O 	O 	0.19887	0.09943	0.79053	-0.171
Mof_C 	C 	0.31335	0.15667	0.68593	0.006
Mof_C 	C 	0.23619	0.11809	0.75093	0.117
Mof_C 	C 	0.16137	0.08068	0.75713	-0.194
Mof_H 	H 	0.13627	0.06813	0.78313	0.097
Mof_O 	O 	0.86553	0.43277	0.12387	-0.171
Mof_C 	C 	0.98001	0.49001	0.01927	0.006
Mof_C 	C 	0.90285	0.45143	0.08427	0.117
Mof_C 	C 	0.82803	0.41402	0.09047	-0.194
Mof_H 	H 	0.80293	0.40147	0.11647	0.097
Mof_O 	O 	0.2339	0.7661	0.4572	-0.171
Mof_C 	C 	0.17666	0.82334	0.3526	0.006
Mof_C 	C 	0.21524	0.78476	0.4176	0.117
Mof_C 	C 	0.25265	0.74735	0.4238	-0.194
Mof_H 	H 	0.2652	0.7348	0.4498	0.097
Mof_O 	O 	0.90057	0.09943	0.79053	-0.171
Mof_C 	C 	0.84333	0.15667	0.68593	0.006
Mof_C 	C 	0.88191	0.11809	0.75093	0.117
Mof_C 	C 	0.91932	0.08068	0.75713	-0.194
Mof_H 	H 	0.93187	0.06813	0.78313	0.097
Mof_O 	O 	0.56723	0.43277	0.12387	-0.171
Mof_C 	C 	0.50999	0.49001	0.01927	0.006
Mof_C 	C 	0.54857	0.45143	0.08427	0.117
Mof_C 	C 	0.58598	0.41402	0.09047	-0.194
Mof_H 	H 	0.59853	0.40147	0.11647	0.097
Mof_O 	O 	0.4678	0.2339	0.5428	-0.171
Mof_C 	C 	0.35332	0.17666	0.6474	0.006
Mof_C 	C 	0.43048	0.21524	0.5824	0.117
Mof_C 	C 	0.5053	0.25265	0.5762	-0.194
Mof_H 	H 	0.5304	0.2652	0.5502	0.097
Mof_O 	O 	0.13447	0.56723	0.87613	-0.171
Mof_C 	C 	0.01999	0.50999	0.98073	0.006
Mof_C 	C 	0.09715	0.54857	0.91573	0.117
Mof_C 	C 	0.17197	0.58598	0.90953	-0.194
Mof_H 	H 	0.19707	0.59853	0.88353	0.097
Mof_O 	O 	0.80113	0.90057	0.20947	-0.171
Mof_C 	C 	0.68665	0.84333	0.31407	0.006
Mof_C 	C 	0.76381	0.88191	0.24907	0.117
Mof_C 	C 	0.83863	0.91932	0.24287	-0.194
Mof_H 	H 	0.86373	0.93187	0.21687	0.097
Mof_O 	O 	0.7661	0.5322	0.5428	-0.171
Mof_C 	C 	0.82334	0.64668	0.6474	0.006
Mof_C 	C 	0.78476	0.56952	0.5824	0.117
Mof_C 	C 	0.74735	0.4947	0.5762	-0.194
Mof_H 	H 	0.7348	0.4696	0.5502	0.097
Mof_O 	O 	0.43277	0.86553	0.87613	-0.171
Mof_C 	C 	0.49001	0.98001	0.98073	0.006
Mof_C 	C 	0.45143	0.90285	0.91573	0.117
Mof_C 	C 	0.41402	0.82803	0.90953	-0.194
Mof_H 	H 	0.40147	0.80293	0.88353	0.097
Mof_O 	O 	0.09943	0.19887	0.20947	-0.171
Mof_C 	C 	0.15667	0.31335	0.31407	0.006
Mof_C 	C 	0.11809	0.23619	0.24907	0.117
Mof_C 	C 	0.08068	0.16137	0.24287	-0.194
Mof_H 	H 	0.06813	0.13627	0.21687	0.097
Mof_O 	O 	0.7661	0.2339	0.5428	-0.171
Mof_C 	C 	0.82334	0.17666	0.6474	0.006
Mof_C 	C 	0.78476	0.21524	0.5824	0.117
Mof_C 	C 	0.74735	0.25265	0.5762	-0.194
Mof_H 	H 	0.7348	0.2652	0.5502	0.097
Mof_O 	O 	0.43277	0.56723	0.87613	-0.171
Mof_C 	C 	0.49001	0.50999	0.98073	0.006
Mof_C 	C 	0.45143	0.54857	0.91573	0.117
Mof_C 	C 	0.41402	0.58598	0.90953	-0.194
Mof_H 	H 	0.40147	0.59853	0.88353	0.097
Mof_O 	O 	0.09943	0.90057	0.20947	-0.171
Mof_C 	C 	0.15667	0.84333	0.31407	0.006
Mof_C 	C 	0.11809	0.88191	0.24907	0.117
Mof_C 	C 	0.08068	0.91932	0.24287	-0.194
Mof_H 	H 	0.06813	0.93187	0.21687	0.097
_end
