data_functionalizedCrystal
_audit_creation_method	'EQeq! by Chris Wilmer'
_symmetry_space_group_name_H-M	'P1'
_symmetry_Int_Tables_number	1
_symmetry_cell_setting	triclinic
loop_
_symmetry_equiv_pos_as_xyz
  x,y,z
_cell_length_a	10.414
_cell_length_b	10.615
_cell_length_c	11.317
_cell_angle_alpha	83.45
_cell_angle_beta	75.04
_cell_angle_gamma	69.61
loop_
_atom_site_label
_atom_site_type_symbol
_atom_site_fract_x
_atom_site_fract_y
_atom_site_fract_z
_atom_site_charge
Mof_Ho	Ho	0.58673	0.59671	0.63225	1.878
Mof_O 	O 	0.396	0.6161	0.4055	-0.542
Mof_O 	O 	0.4714	0.7408	0.498	-0.514
Mof_O 	O 	0.284	0.2492	0.4389	-0.482
Mof_O 	O 	0.0521	0.3184	0.4552	-0.441
Mof_O 	O 	0.8723	0.0625	0.2618	-0.113
Mof_O 	O 	0.95	0.8483	0.2736	-0.098
Mof_O 	O 	0.0016	0.4421	0.6706	-0.452
Mof_O 	O 	0.7699	0.4965	0.72	-0.548
Mof_O 	O 	0.5292	0.4829	0.1642	-0.374
Mof_O 	O 	0.6585	0.3924	0.2979	-0.408
Mof_O 	O 	0.1739	0.2466	0.1599	-0.136
Mof_O 	O 	0.2713	0.2326	0.968	-0.109
Mof_N 	N 	0.9579	0.9567	0.2857	0.01
Mof_N 	N 	0.1679	0.2621	0.0529	-0.005
Mof_C 	C 	0.2817	0.8527	0.4065	-0.132
Mof_C 	C 	0.2823	0.9773	0.4317	0.059
Mof_H 	H 	0.3546	0.9827	0.4627	0.04
Mof_C 	C 	0.1758	0.0942	0.4109	-0.08
Mof_C 	C 	0.0691	0.0859	0.3641	-0.082
Mof_H 	H 	0.9955	0.1629	0.3522	0.12
Mof_C 	C 	0.0733	0.9622	0.3353	0.056
Mof_C 	C 	0.1767	0.8436	0.3559	-0.009
Mof_H 	H 	0.1762	0.761	0.3366	0.05
Mof_C 	C 	0.3905	0.7265	0.4386	0.498
Mof_C 	C 	0.1737	0.2312	0.4367	0.43
Mof_C 	C 	0.8935	0.4188	0.8768	-0.069
Mof_C 	C 	0.7713	0.4445	0.9698	0.029
Mof_H 	H 	0.684	0.4844	0.9507	0.053
Mof_C 	C 	0.778	0.4114	0.0905	-0.054
Mof_C 	C 	0.9096	0.3503	0.1189	-0.008
Mof_H 	H 	0.9165	0.3276	0.1994	0.079
Mof_C 	C 	0.0287	0.3248	0.0245	0.051
Mof_C 	C 	0.0247	0.3573	0.9045	-0.058
Mof_H 	H 	0.1072	0.3388	0.8432	0.092
Mof_C 	C 	0.8872	0.4559	0.7467	0.492
Mof_C 	C 	0.6464	0.432	0.1901	0.304
Mof_Ho	Ho	0.41327	0.40329	0.36775	1.863
Mof_O 	O 	0.604	0.3839	0.5945	-0.544
Mof_O 	O 	0.5286	0.2592	0.502	-0.515
Mof_O 	O 	0.716	0.7508	0.5611	-0.486
Mof_O 	O 	0.9479	0.6816	0.5448	-0.411
Mof_O 	O 	0.1277	0.9375	0.7382	-0.124
Mof_O 	O 	0.05	0.1517	0.7264	-0.121
Mof_O 	O 	0.9984	0.5579	0.3294	-0.38
Mof_O 	O 	0.2301	0.5035	0.28	-0.534
Mof_O 	O 	0.4708	0.5171	0.8358	-0.372
Mof_O 	O 	0.3415	0.6076	0.7021	-0.409
Mof_O 	O 	0.8261	0.7534	0.8401	-0.12
Mof_O 	O 	0.7287	0.7674	0.032	-0.108
Mof_N 	N 	0.0421	0.0433	0.7143	-0.009
Mof_N 	N 	0.8321	0.7379	0.9471	-0.011
Mof_C 	C 	0.7183	0.1473	0.5935	-0.151
Mof_C 	C 	0.7177	0.0227	0.5683	0.096
Mof_H 	H 	0.6454	0.0173	0.5373	0.028
Mof_C 	C 	0.8242	0.9058	0.5891	-0.135
Mof_C 	C 	0.9309	0.9141	0.6359	0.072
Mof_H 	H 	0.0045	0.8371	0.6478	0.019
Mof_C 	C 	0.9267	0.0378	0.6647	0.055
Mof_C 	C 	0.8233	0.1564	0.6441	0.015
Mof_H 	H 	0.8238	0.239	0.6634	0.056
Mof_C 	C 	0.6095	0.2735	0.5614	0.507
Mof_C 	C 	0.8263	0.7688	0.5633	0.449
Mof_C 	C 	0.1065	0.5812	0.1232	-0.116
Mof_C 	C 	0.2287	0.5555	0.0302	0.022
Mof_H 	H 	0.316	0.5156	0.0493	0.056
Mof_C 	C 	0.222	0.5886	0.9095	-0.028
Mof_C 	C 	0.0904	0.6497	0.8811	-0.111
Mof_H 	H 	0.0835	0.6724	0.8006	0.098
Mof_C 	C 	0.9713	0.6752	0.9755	0.126
Mof_C 	C 	0.9753	0.6427	0.0955	-0.003
Mof_H 	H 	0.8928	0.6612	0.1568	0.08
Mof_C 	C 	0.1128	0.5441	0.2533	0.419
Mof_C 	C 	0.3536	0.568	0.8099	0.294
Mof_Cu	Cu	-1.4901e-17	0.5	0.5	0.906
_end
