data_functionalizedCrystal
_audit_creation_method	'EQeq! by Chris Wilmer'
_symmetry_space_group_name_H-M	'P1'
_symmetry_Int_Tables_number	1
_symmetry_cell_setting	triclinic
loop_
_symmetry_equiv_pos_as_xyz
  x,y,z
_cell_length_a	6.4739
_cell_length_b	26.5533
_cell_length_c	26.5533
_cell_angle_alpha	60.6533
_cell_angle_beta	85.3385
_cell_angle_gamma	94.6615
loop_
_atom_site_label
_atom_site_type_symbol
_atom_site_fract_x
_atom_site_fract_y
_atom_site_fract_z
_atom_site_charge
Mof_Mg	Mg	0.9145	0.69876	0.62373	1.487
Mof_Mg	Mg	0.53823	0.62373	0.67751	1.487
Mof_Mg	Mg	0.21574	0.67751	0.69876	1.488
Mof_Mg	Mg	0.0855	0.30124	0.37627	1.487
Mof_Mg	Mg	0.46177	0.37627	0.32249	1.487
Mof_Mg	Mg	0.78426	0.32249	0.30124	1.488
Mof_H 	H 	0.94096	0.84085	0.60295	0.094
Mof_H 	H 	0.69633	0.85963	0.53287	0.003
Mof_H 	H 	0.51428	0.94473	0.49467	0.065
Mof_H 	H 	0.08277	0.95247	0.60069	0.041
Mof_H 	H 	0.03577	0.9071	0.44618	0.066
Mof_H 	H 	0.05231	0.97721	0.38294	0.061
Mof_H 	H 	0.28397	0.95493	0.41715	0.062
Mof_H 	H 	0.54391	0.60295	0.5562	0.097
Mof_H 	H 	0.2292	0.53287	0.6075	0.003
Mof_H 	H 	0.00895	0.49467	0.5606	0.068
Mof_H 	H 	0.68346	0.60069	0.44684	0.04
Mof_H 	H 	0.48195	0.44618	0.64672	0.065
Mof_H 	H 	0.43525	0.38294	0.63985	0.06
Mof_H 	H 	0.70112	0.41715	0.62792	0.062
Mof_H 	H 	0.10011	0.5562	0.84085	0.098
Mof_H 	H 	0.8367	0.6075	0.85963	0.003
Mof_H 	H 	0.56955	0.5606	0.94473	0.066
Mof_H 	H 	0.1303	0.44684	0.95247	0.04
Mof_H 	H 	0.12867	0.64672	0.9071	0.065
Mof_H 	H 	0.0751	0.63985	0.97721	0.059
Mof_H 	H 	0.32904	0.62792	0.95493	0.062
Mof_H 	H 	0.05904	0.15915	0.39705	0.094
Mof_H 	H 	0.30367	0.14037	0.46713	0.003
Mof_H 	H 	0.48572	0.05527	0.50533	0.065
Mof_H 	H 	0.91723	0.04753	0.39931	0.041
Mof_H 	H 	0.96423	0.0929	0.55382	0.066
Mof_H 	H 	0.94769	0.02279	0.61706	0.061
Mof_H 	H 	0.71603	0.04507	0.58285	0.062
Mof_H 	H 	0.45609	0.39705	0.4438	0.097
Mof_H 	H 	0.7708	0.46713	0.3925	0.003
Mof_H 	H 	0.99105	0.50533	0.4394	0.068
Mof_H 	H 	0.31654	0.39931	0.55316	0.04
Mof_H 	H 	0.51805	0.55382	0.35328	0.065
Mof_H 	H 	0.56475	0.61706	0.36015	0.06
Mof_H 	H 	0.29888	0.58285	0.37208	0.062
Mof_H 	H 	0.89989	0.4438	0.15915	0.098
Mof_H 	H 	0.1633	0.3925	0.14037	0.003
Mof_H 	H 	0.43045	0.4394	0.05527	0.066
Mof_H 	H 	0.8697	0.55316	0.04753	0.04
Mof_H 	H 	0.87133	0.35328	0.0929	0.065
Mof_H 	H 	0.9249	0.36015	0.02279	0.059
Mof_H 	H 	0.67096	0.37208	0.04507	0.062
Mof_C 	C 	0.54437	0.74894	0.61313	0.563
Mof_C 	C 	0.42344	0.7992	0.59118	-0.332
Mof_C 	C 	0.2053	0.79475	0.60941	0.278
Mof_C 	C 	0.10527	0.84455	0.58718	-0.203
Mof_C 	C 	0.21355	0.89853	0.54528	0.109
Mof_C 	C 	0.42725	0.90308	0.52655	-0.153
Mof_C 	C 	0.53079	0.85425	0.54897	0.129
Mof_C 	C 	0.10351	0.95036	0.52142	-0.05
Mof_C 	C 	0.05682	0.97722	0.46404	0.059
Mof_C 	C 	0.04551	0.97325	0.55679	-0.063
Mof_C 	C 	0.11022	0.95279	0.42533	-0.19
Mof_C 	C 	0.1575	0.61313	0.63793	0.562
Mof_C 	C 	0.01462	0.59118	0.60962	-0.329
Mof_C 	C 	0.81471	0.60941	0.59584	0.275
Mof_C 	C 	0.69245	0.58718	0.56827	-0.209
Mof_C 	C 	0.75883	0.54528	0.55619	0.111
Mof_C 	C 	0.9538	0.52655	0.57037	-0.159
Mof_C 	C 	0.07976	0.54897	0.59678	0.132
Mof_C 	C 	0.62493	0.52142	0.52822	-0.052
Mof_C 	C 	0.52086	0.46404	0.55874	0.058
Mof_C 	C 	0.6023	0.55679	0.46996	-0.062
Mof_C 	C 	0.53555	0.42533	0.62188	-0.19
Mof_C 	C 	0.79543	0.63793	0.74894	0.563
Mof_C 	C 	0.62424	0.60962	0.7992	-0.334
Mof_C 	C 	0.41055	0.59584	0.79475	0.28
Mof_C 	C 	0.26072	0.56827	0.84455	-0.209
Mof_C 	C 	0.31502	0.55619	0.89853	0.111
Mof_C 	C 	0.52417	0.57037	0.90308	-0.154
Mof_C 	C 	0.67654	0.59678	0.85425	0.13
Mof_C 	C 	0.15315	0.52822	0.95036	-0.052
Mof_C 	C 	0.0796	0.55874	0.97722	0.058
Mof_C 	C 	0.07226	0.46996	0.97325	-0.062
Mof_C 	C 	0.15743	0.62188	0.95279	-0.19
Mof_C 	C 	0.45563	0.25106	0.38687	0.563
Mof_C 	C 	0.57656	0.2008	0.40882	-0.332
Mof_C 	C 	0.7947	0.20525	0.39059	0.278
Mof_C 	C 	0.89473	0.15545	0.41282	-0.203
Mof_C 	C 	0.78645	0.10147	0.45472	0.109
Mof_C 	C 	0.57275	0.09692	0.47345	-0.153
Mof_C 	C 	0.46921	0.14575	0.45103	0.129
Mof_C 	C 	0.89649	0.04964	0.47858	-0.05
Mof_C 	C 	0.94318	0.02278	0.53596	0.059
Mof_C 	C 	0.95449	0.02675	0.44321	-0.063
Mof_C 	C 	0.88978	0.04721	0.57467	-0.19
Mof_C 	C 	0.8425	0.38687	0.36207	0.562
Mof_C 	C 	0.98538	0.40882	0.39038	-0.329
Mof_C 	C 	0.18529	0.39059	0.40416	0.275
Mof_C 	C 	0.30755	0.41282	0.43173	-0.209
Mof_C 	C 	0.24117	0.45472	0.44381	0.111
Mof_C 	C 	0.0462	0.47345	0.42963	-0.159
Mof_C 	C 	0.92024	0.45103	0.40322	0.132
Mof_C 	C 	0.37507	0.47858	0.47178	-0.052
Mof_C 	C 	0.47914	0.53596	0.44126	0.058
Mof_C 	C 	0.3977	0.44321	0.53004	-0.062
Mof_C 	C 	0.46445	0.57467	0.37812	-0.19
Mof_C 	C 	0.20457	0.36207	0.25106	0.563
Mof_C 	C 	0.37576	0.39038	0.2008	-0.334
Mof_C 	C 	0.58945	0.40416	0.20525	0.28
Mof_C 	C 	0.73928	0.43173	0.15545	-0.209
Mof_C 	C 	0.68498	0.44381	0.10147	0.111
Mof_C 	C 	0.47583	0.42963	0.09692	-0.154
Mof_C 	C 	0.32346	0.40322	0.14575	0.13
Mof_C 	C 	0.84685	0.47178	0.04964	-0.052
Mof_C 	C 	0.9204	0.44126	0.02278	0.058
Mof_C 	C 	0.92774	0.53004	0.02675	-0.062
Mof_C 	C 	0.84257	0.37812	0.04721	-0.19
Mof_O 	O 	0.73893	0.75764	0.59399	-0.563
Mof_O 	O 	0.45949	0.69864	0.65019	-0.821
Mof_O 	O 	0.08168	0.74336	0.65042	-0.636
Mof_O 	O 	0.33292	0.59399	0.64837	-0.562
Mof_O 	O 	0.10968	0.65019	0.65117	-0.819
Mof_O 	O 	0.7321	0.65042	0.60622	-0.639
Mof_O 	O 	0.98129	0.64837	0.75764	-0.565
Mof_O 	O 	0.76085	0.65117	0.69864	-0.823
Mof_O 	O 	0.33832	0.60622	0.74336	-0.639
Mof_O 	O 	0.26107	0.24236	0.40601	-0.563
Mof_O 	O 	0.54051	0.30136	0.34981	-0.821
Mof_O 	O 	0.91832	0.25664	0.34958	-0.636
Mof_O 	O 	0.66708	0.40601	0.35163	-0.562
Mof_O 	O 	0.89032	0.34981	0.34883	-0.819
Mof_O 	O 	0.2679	0.34958	0.39378	-0.639
Mof_O 	O 	0.01871	0.35163	0.24236	-0.565
Mof_O 	O 	0.23915	0.34883	0.30136	-0.823
Mof_O 	O 	0.66168	0.39378	0.25664	-0.639
_end
