data_functionalizedCrystal
_audit_creation_method	'EQeq! by Chris Wilmer'
_symmetry_space_group_name_H-M	'P1'
_symmetry_Int_Tables_number	1
_symmetry_cell_setting	triclinic
loop_
_symmetry_equiv_pos_as_xyz
  x,y,z
_cell_length_a	13.875
_cell_length_b	14.072
_cell_length_c	14.208
_cell_angle_alpha	116.3
_cell_angle_beta	109.724
_cell_angle_gamma	101.428
loop_
_atom_site_label
_atom_site_type_symbol
_atom_site_fract_x
_atom_site_fract_y
_atom_site_fract_z
_atom_site_charge
Mof_Cd	Cd	0.70531	0.87376	0.88612	0.517
Mof_Cd	Cd	0.29469	0.12624	0.11388	0.473
Mof_Cd	Cd	-0	0	-0	0.456
Mof_Si	Si	0.98988	0.65396	0.38909	0.792
Mof_Si	Si	0.01012	0.34604	0.61091	0.793
Mof_H 	H 	0.769	0.4569	0.1897	-0.006
Mof_H 	H 	0.3057	0.7399	0.7454	0.092
Mof_H 	H 	0.8159	0.5263	0.4202	-0.013
Mof_H 	H 	0.7051	0.2559	0.0653	0.077
Mof_H 	H 	0.0059	0.8667	0.5763	-0.013
Mof_H 	H 	0.7434	0.5796	0.5526	0.09
Mof_H 	H 	0.9358	0.9192	0.7101	0.096
Mof_H 	H 	0.1208	0.6981	0.6238	-0.011
Mof_H 	H 	0.0863	0.484	0.3408	0.003
Mof_H 	H 	0.7755	0.8043	0.1872	0.084
Mof_H 	H 	0.8269	0.7421	0.3152	-0.008
Mof_H 	H 	0.2075	0.7211	0.3891	-0.016
Mof_H 	H 	0.0784	0.7045	0.2461	-0.005
Mof_H 	H 	0.0345	0.7792	0.1284	0.071
Mof_H 	H 	0.0227	0.2837	0.212	0.067
Mof_H 	H 	0.3942	0.7696	0.5143	0.093
Mof_H 	H 	0.231	0.5431	0.8103	-0.009
Mof_H 	H 	0.6943	0.2601	0.2546	0.085
Mof_H 	H 	0.1841	0.4737	0.5798	-0.01
Mof_H 	H 	0.2949	0.7441	0.9347	0.095
Mof_H 	H 	0.9941	0.1333	0.4237	-0.004
Mof_H 	H 	0.2566	0.4204	0.4474	0.085
Mof_H 	H 	0.0642	0.0808	0.2899	0.076
Mof_H 	H 	0.8792	0.3019	0.3762	-0.008
Mof_H 	H 	0.9137	0.516	0.6592	-0.012
Mof_H 	H 	0.2245	0.1957	0.8128	0.092
Mof_H 	H 	0.1731	0.2579	0.6848	-0.018
Mof_H 	H 	0.7925	0.2789	0.6109	-0.013
Mof_H 	H 	0.9216	0.2955	0.7539	-0.021
Mof_H 	H 	0.9655	0.2208	0.8716	0.1
Mof_H 	H 	0.9773	0.7163	0.788	0.094
Mof_H 	H 	0.6058	0.2304	0.4857	0.089
Mof_C 	C 	0.8209	0.4221	0.1963	0.084
Mof_C 	C 	0.9198	0.6899	0.4845	-0.285
Mof_C 	C 	0.9614	0.7215	0.3006	-0.272
Mof_C 	C 	0.1431	0.7055	0.4927	-0.29
Mof_C 	C 	0.8339	0.7553	0.6455	0.019
Mof_C 	C 	0.4896	0.7972	0.7265	0.262
Mof_C 	C 	0.791	0.7885	0.7343	0.26
Mof_C 	C 	0.2865	0.738	0.6736	-0.119
Mof_C 	C 	0.3683	0.7611	0.6431	0.029
Mof_C 	C 	0.9348	0.4926	0.2812	-0.261
Mof_C 	C 	0.8661	0.8347	0.0587	0.29
Mof_C 	C 	0.9013	0.8004	0.147	-0
Mof_C 	C 	0.8408	0.6063	0.479	0.109
Mof_C 	C 	0.7827	0.3022	0.1214	-0.099
Mof_C 	C 	0.9535	0.8079	0.5719	0.111
Mof_C 	C 	0.7976	0.6379	0.558	-0.12
Mof_C 	C 	0.9113	0.8393	0.6512	-0.115
Mof_C 	C 	0.1756	0.7119	0.6	0.109
Mof_C 	C 	0.0085	0.4383	0.285	0.057
Mof_C 	C 	0.8399	0.7872	0.2015	-0.103
Mof_C 	C 	0.8706	0.7492	0.2776	0.1
Mof_C 	C 	0.2269	0.7264	0.4626	0.116
Mof_C 	C 	0.0186	0.7289	0.2384	0.076
Mof_C 	C 	0.9909	0.7709	0.1655	-0.078
Mof_C 	C 	0.8576	0.2496	0.1284	-0.011
Mof_C 	C 	0.9705	0.3184	0.2087	-0.068
Mof_C 	C 	0.3388	0.7548	0.5369	-0.122
Mof_C 	C 	0.8195	0.1194	0.0554	0.267
Mof_C 	C 	0.1791	0.5779	0.8037	0.107
Mof_C 	C 	0.0802	0.3101	0.5155	-0.277
Mof_C 	C 	0.0386	0.2785	0.6994	-0.307
Mof_C 	C 	0.8569	0.2945	0.5073	-0.283
Mof_C 	C 	0.1661	0.2447	0.3545	0.005
Mof_C 	C 	0.5104	0.2028	0.2735	0.264
Mof_C 	C 	0.209	0.2115	0.2657	0.267
Mof_C 	C 	0.7135	0.262	0.3264	-0.115
Mof_C 	C 	0.6317	0.2389	0.3569	0.019
Mof_C 	C 	0.0652	0.5074	0.7188	-0.289
Mof_C 	C 	0.1339	0.1653	0.9413	0.273
Mof_C 	C 	0.0987	0.1996	0.853	0.03
Mof_C 	C 	0.1592	0.3937	0.521	0.1
Mof_C 	C 	0.2173	0.6978	0.8786	-0.115
Mof_C 	C 	0.0465	0.1921	0.4281	0.081
Mof_C 	C 	0.2024	0.3621	0.442	-0.11
Mof_C 	C 	0.0887	0.1607	0.3488	-0.098
Mof_C 	C 	0.8244	0.2881	0.4	0.101
Mof_C 	C 	0.9915	0.5617	0.715	0.113
Mof_C 	C 	0.1601	0.2128	0.7985	-0.134
Mof_C 	C 	0.1294	0.2508	0.7224	0.126
Mof_C 	C 	0.7731	0.2736	0.5374	0.108
Mof_C 	C 	0.9814	0.2711	0.7616	0.134
Mof_C 	C 	0.0091	0.2291	0.8345	-0.142
Mof_C 	C 	0.1424	0.7504	0.8716	0.014
Mof_C 	C 	0.0295	0.6816	0.7913	-0.121
Mof_C 	C 	0.6612	0.2452	0.4631	-0.118
Mof_C 	C 	0.1805	0.8806	0.9446	0.298
Mof_O 	O 	0.7168	0.7129	0.7249	-0.24
Mof_O 	O 	0.8335	0.8969	0.818	-0.262
Mof_O 	O 	0.5631	0.8453	0.711	-0.238
Mof_O 	O 	0.5125	0.7796	0.8097	-0.242
Mof_O 	O 	0.7677	0.8294	0.0192	-0.272
Mof_O 	O 	0.7163	0.0565	0.9882	-0.25
Mof_O 	O 	0.9375	0.8631	0.0294	-0.265
Mof_O 	O 	0.893	0.0801	0.0674	-0.283
Mof_O 	O 	0.2832	0.2871	0.2751	-0.246
Mof_O 	O 	0.1665	0.1031	0.182	-0.285
Mof_O 	O 	0.4369	0.1547	0.289	-0.248
Mof_O 	O 	0.4875	0.2204	0.1903	-0.253
Mof_O 	O 	0.2323	0.1706	0.9808	-0.256
Mof_O 	O 	0.2837	0.9435	0.0118	-0.264
Mof_O 	O 	0.0625	0.1369	0.9706	-0.261
Mof_O 	O 	0.107	0.9199	0.9326	-0.265
_end
