data_functionalizedCrystal
_audit_creation_method	'EQeq! by Chris Wilmer'
_symmetry_space_group_name_H-M	'P1'
_symmetry_Int_Tables_number	1
_symmetry_cell_setting	triclinic
loop_
_symmetry_equiv_pos_as_xyz
  x,y,z
_cell_length_a	13.8257
_cell_length_b	14.4788
_cell_length_c	10.1658
_cell_angle_alpha	90
_cell_angle_beta	90
_cell_angle_gamma	90
loop_
_atom_site_label
_atom_site_type_symbol
_atom_site_fract_x
_atom_site_fract_y
_atom_site_fract_z
_atom_site_charge
Mof_Al	Al	0.2636	0.1472	0.5327	3.509
Mof_P 	P 	0.3327	0.263	0.2842	1.284
Mof_O 	O 	0.3912	0.1851	0.2249	-1.448
Mof_O 	O 	0.1569	0.0845	0.4796	-1.276
Mof_O 	O 	0.3692	0.0702	0.5698	-1.22
Mof_O 	O 	0.399	0.3448	0.3064	-1.57
Mof_O 	O 	0.2538	0.2868	0.1904	-1.138
Mof_O 	O 	0.4968	0.0465	0.3954	-1.345
Mof_O 	O 	0.2879	0.2399	0.4106	-1.208
Mof_O 	O 	0.0312	0.0155	0.6155	-1.087
Mof_Al	Al	0.7636	0.6472	0.5327	3.88
Mof_P 	P 	0.8327	0.763	0.2842	1.053
Mof_O 	O 	0.8912	0.6851	0.2249	-0.707
Mof_O 	O 	0.6569	0.5845	0.4796	-1.387
Mof_O 	O 	0.8692	0.5702	0.5698	-1.112
Mof_O 	O 	0.899	0.8448	0.3064	-0.702
Mof_O 	O 	0.7538	0.7868	0.1904	-1.043
Mof_O 	O 	0.9968	0.5465	0.3954	-0.543
Mof_O 	O 	0.7879	0.7399	0.4106	-1.129
Mof_O 	O 	0.5312	0.5155	0.6155	-1.523
Mof_Al	Al	0.7364	0.8528	0.0327	3.366
Mof_P 	P 	0.6673	0.737	0.7842	1.316
Mof_O 	O 	0.6088	0.8149	0.7249	-1.42
Mof_O 	O 	0.8431	0.9155	0.9796	-0.878
Mof_O 	O 	0.6308	0.9298	0.0698	-1.05
Mof_O 	O 	0.601	0.6552	0.8064	-1.555
Mof_O 	O 	0.7462	0.7132	0.6904	-1.123
Mof_O 	O 	0.5032	0.9535	0.8954	-1.149
Mof_O 	O 	0.7121	0.7601	0.9106	-1.054
Mof_O 	O 	0.9688	0.9845	0.1155	-0.478
Mof_Al	Al	0.2364	0.3528	0.0327	3.19
Mof_P 	P 	0.1673	0.237	0.7842	1.052
Mof_O 	O 	0.1088	0.3149	0.7249	-1.015
Mof_O 	O 	0.3431	0.4155	0.9796	-1.147
Mof_O 	O 	0.1308	0.4298	0.0698	-1.149
Mof_O 	O 	0.101	0.1552	0.8064	-1.052
Mof_O 	O 	0.2462	0.2132	0.6904	-1.104
Mof_O 	O 	0.0032	0.4535	0.8954	-0.947
Mof_O 	O 	0.2121	0.2601	0.9106	-1.05
Mof_O 	O 	0.4688	0.4845	0.1155	-1.501
Mof_Al	Al	0.7364	0.1472	0.9673	4.069
Mof_P 	P 	0.6673	0.263	0.2158	1.343
Mof_O 	O 	0.6088	0.1851	0.2751	-1.441
Mof_O 	O 	0.8431	0.0845	0.0204	-1.293
Mof_O 	O 	0.6308	0.0702	0.9302	-1.24
Mof_O 	O 	0.601	0.3448	0.1936	-1.579
Mof_O 	O 	0.7462	0.2868	0.3096	-1.161
Mof_O 	O 	0.5032	0.0465	0.1046	-1.366
Mof_O 	O 	0.7121	0.2399	0.0894	-1.299
Mof_O 	O 	0.9688	0.0155	0.8845	-0.58
Mof_Al	Al	0.2364	0.6472	0.9673	4.059
Mof_P 	P 	0.1673	0.763	0.2158	1.109
Mof_O 	O 	0.1088	0.6851	0.2751	-1.037
Mof_O 	O 	0.3431	0.5845	0.0204	-1.452
Mof_O 	O 	0.1308	0.5702	0.9302	-1.202
Mof_O 	O 	0.101	0.8448	0.1936	-1.066
Mof_O 	O 	0.2462	0.7868	0.3096	-1.132
Mof_O 	O 	0.0032	0.5465	0.1046	-1.027
Mof_O 	O 	0.2121	0.7399	0.0894	-1.292
Mof_O 	O 	0.4688	0.5155	0.8845	-1.44
Mof_Al	Al	0.2636	0.8528	0.4673	3.655
Mof_P 	P 	0.3327	0.737	0.7158	1.345
Mof_O 	O 	0.3912	0.8149	0.7751	-1.437
Mof_O 	O 	0.1569	0.9155	0.5204	-1.152
Mof_O 	O 	0.3692	0.9298	0.4302	-1.091
Mof_O 	O 	0.399	0.6552	0.6936	-1.594
Mof_O 	O 	0.2538	0.7132	0.8096	-1.244
Mof_O 	O 	0.4968	0.9535	0.6046	-1.212
Mof_O 	O 	0.2879	0.7601	0.5894	-1.23
Mof_O 	O 	0.0312	0.9845	0.3845	-0.916
Mof_Al	Al	0.7636	0.3528	0.4673	3.862
Mof_P 	P 	0.8327	0.237	0.7158	1.082
Mof_O 	O 	0.8912	0.3149	0.7751	-0.697
Mof_O 	O 	0.6569	0.4155	0.5204	-1.381
Mof_O 	O 	0.8692	0.4298	0.4302	-1.122
Mof_O 	O 	0.899	0.1552	0.6936	-0.737
Mof_O 	O 	0.7538	0.2132	0.8096	-1.159
Mof_O 	O 	0.9968	0.4535	0.6046	-0.55
Mof_O 	O 	0.7879	0.2601	0.5894	-1.156
Mof_O 	O 	0.5312	0.4845	0.3845	-1.515
Mof_Al	Al	0.5	0.1157	0.25	4.226
Mof_Al	Al	0.5	0.4103	0.25	4.872
Mof_Al	Al	9.9928e-33	0.6157	0.25	2.002
Mof_Al	Al	-2.41198e-33	0.9103	0.25	2.243
Mof_Al	Al	0.5	0.8843	0.75	4.426
Mof_Al	Al	0.5	0.5897	0.75	4.933
Mof_Al	Al	8.27004e-33	0.3843	0.75	2.054
Mof_Al	Al	2.06765e-33	0.0897	0.75	2.188
Mof_P 	P 	0.095	0	0.5	0.88
Mof_P 	P 	0.4316	0	0.5	0.911
Mof_P 	P 	0.595	0.5	0.5	1.436
Mof_P 	P 	0.9316	0.5	0.5	0.958
Mof_P 	P 	0.905	0	-0	0.711
Mof_P 	P 	0.5684	0	-0	0.8
Mof_P 	P 	0.405	0.5	-0	1.269
Mof_P 	P 	0.0684	0.5	-0	0.827
_end
