data_functionalizedCrystal
_audit_creation_method	'EQeq! by Chris Wilmer'
_symmetry_space_group_name_H-M	'P1'
_symmetry_Int_Tables_number	1
_symmetry_cell_setting	triclinic
loop_
_symmetry_equiv_pos_as_xyz
  x,y,z
_cell_length_a	7.2453
_cell_length_b	9.4218
_cell_length_c	14.0917
_cell_angle_alpha	78.3139
_cell_angle_beta	75.1034
_cell_angle_gamma	67.3876
loop_
_atom_site_label
_atom_site_type_symbol
_atom_site_fract_x
_atom_site_fract_y
_atom_site_fract_z
_atom_site_charge
Mof_Th	Th	0.2272	0.75	0.25	0.018
Mof_Th	Th	0.7728	0.25	0.75	0.018
Mof_H 	H 	0.8211	0.4935	0.9281	0.089
Mof_H 	H 	0.8047	0.3768	0.4764	0.068
Mof_H 	H 	0.2427	0.0065	0.5719	0.09
Mof_H 	H 	0.6579	0.1232	0.0236	0.067
Mof_H 	H 	0.1789	0.5065	0.0719	0.089
Mof_H 	H 	0.1953	0.6232	0.5236	0.068
Mof_H 	H 	0.7573	0.9935	0.4281	0.09
Mof_H 	H 	0.3421	0.8768	0.9764	0.067
Mof_C 	C 	0.5784	0.5809	0.0347	0.015
Mof_C 	C 	0.6596	0.6797	0.0735	0.28
Mof_C 	C 	0.6896	0.4948	0.9564	0.029
Mof_C 	C 	0.8848	0.4262	0.4878	0.039
Mof_C 	C 	0.9693	0.5129	0.4089	0.022
Mof_C 	C 	0.9494	0.5169	0.3045	0.286
Mof_C 	C 	0.194	0.9191	0.4653	0.017
Mof_C 	C 	0.4128	0.8203	0.4265	0.279
Mof_C 	C 	0.1408	0.0052	0.5436	0.025
Mof_C 	C 	0.7988	0.0738	0.0122	0.041
Mof_C 	C 	0.8911	0.9871	0.0911	0.02
Mof_C 	C 	0.7708	0.9831	0.1955	0.287
Mof_C 	C 	0.4216	0.4191	0.9653	0.015
Mof_C 	C 	0.3404	0.3203	0.9265	0.28
Mof_C 	C 	0.3104	0.5052	0.0436	0.029
Mof_C 	C 	0.1152	0.5738	0.5122	0.039
Mof_C 	C 	0.0307	0.4871	0.5911	0.022
Mof_C 	C 	0.0506	0.4831	0.6955	0.286
Mof_C 	C 	0.806	0.0809	0.5347	0.017
Mof_C 	C 	0.5872	0.1797	0.5735	0.279
Mof_C 	C 	0.8592	0.9948	0.4564	0.025
Mof_C 	C 	0.2012	0.9262	0.9878	0.041
Mof_C 	C 	0.1089	0.0129	0.9089	0.02
Mof_C 	C 	0.2292	0.0169	0.8045	0.287
Mof_N 	N 	0.3886	0.58609	0.07931	-0.066
Mof_N 	N 	0.08427	0.58776	0.4211	-0.066
Mof_N 	N 	0.054	0.91391	0.42069	-0.066
Mof_N 	N 	0.09313	0.91224	0.0789	-0.065
Mof_N 	N 	0.6114	0.41391	0.92069	-0.066
Mof_N 	N 	0.91573	0.41224	0.5789	-0.066
Mof_N 	N 	0.946	0.08609	0.57931	-0.066
Mof_N 	N 	0.90687	0.08776	0.9211	-0.065
Mof_O 	O 	0.53421	0.75851	0.14227	-0.158
Mof_O 	O 	0.83208	0.68106	0.03718	-0.197
Mof_O 	O 	0.84944	0.44404	0.29068	-0.184
Mof_O 	O 	0.04781	0.58849	0.23889	-0.165
Mof_O 	O 	0.43499	0.74149	0.35773	-0.158
Mof_O 	O 	0.55032	0.81894	0.46282	-0.196
Mof_O 	O 	0.58416	0.05596	0.20932	-0.184
Mof_O 	O 	0.87519	0.91151	0.26111	-0.167
Mof_O 	O 	0.46579	0.24149	0.85773	-0.158
Mof_O 	O 	0.16792	0.31894	0.96282	-0.197
Mof_O 	O 	0.15056	0.55596	0.70932	-0.184
Mof_O 	O 	0.95219	0.41151	0.76111	-0.165
Mof_O 	O 	0.56501	0.25851	0.64227	-0.158
Mof_O 	O 	0.44968	0.18106	0.53718	-0.196
Mof_O 	O 	0.41584	0.94404	0.79068	-0.184
Mof_O 	O 	0.12481	0.08849	0.73889	-0.167
_end
