data_functionalizedCrystal
_audit_creation_method	'EQeq! by Chris Wilmer'
_symmetry_space_group_name_H-M	'P1'
_symmetry_Int_Tables_number	1
_symmetry_cell_setting	triclinic
loop_
_symmetry_equiv_pos_as_xyz
  x,y,z
_cell_length_a	10.7998
_cell_length_b	14.5731
_cell_length_c	17.059
_cell_angle_alpha	78.401
_cell_angle_beta	89.438
_cell_angle_gamma	83.039
loop_
_atom_site_label
_atom_site_type_symbol
_atom_site_fract_x
_atom_site_fract_y
_atom_site_fract_z
_atom_site_charge
Mof_Co	Co	0.2676	0.88879	0.50835	1.142
Mof_Co	Co	0.49278	0.01918	0.40603	1.135
Mof_Co	Co	0.73662	0.58668	0.97474	1.172
Mof_Co	Co	0.50062	0.46401	0.91805	1.143
Mof_O 	O 	0.81833	0.02926	0.59125	-0.437
Mof_O 	O 	0.69689	0.91278	0.60136	-0.43
Mof_O 	O 	0.74138	0.66037	0.84629	-0.348
Mof_O 	O 	0.90253	0.64625	0.92704	-0.357
Mof_O 	O 	0.27805	0.78332	0.61797	-0.395
Mof_O 	O 	0.09534	0.82027	0.55816	-0.362
Mof_O 	O 	0.44705	0.9166	0.50221	-0.756
Mof_O 	O 	0.17881	0.46035	0.91528	-0.418
Mof_O 	O 	0.3321	0.54811	0.87347	-0.447
Mof_O 	O 	0.55527	0.57346	0.96156	-0.762
Mof_O 	O 	0.44853	0.96934	0.30671	-0.429
Mof_O 	O 	0.4485	0.81433	0.32163	-0.288
Mof_O 	O 	0.6821	0.71824	0.00652	-0.397
Mof_O 	O 	0.55708	0.65648	0.10483	-0.448
Mof_O 	O 	0.5911	0.13931	0.04347	-0.116
Mof_O 	O 	0.7054	0.0633	0.9724	-0.039
Mof_O 	O 	0.8198	0.4828	0.7474	-0.146
Mof_O 	O 	0.7889	0.5868	0.6372	-0.212
Mof_O 	O 	0.1829	0.985	0.76609	-0.119
Mof_O 	O 	0.1619	0.9066	0.886	-0.062
Mof_N 	N 	0.2243	0.00475	0.56611	-0.202
Mof_N 	N 	0.31755	0.04502	0.59512	-0.211
Mof_N 	N 	0.1435	0.13843	0.59435	-0.119
Mof_N 	N 	0.8667	0.3075	0.94586	-0.11
Mof_N 	N 	0.78147	0.44966	0.94911	-0.203
Mof_N 	N 	0.68797	0.39557	0.94044	-0.208
Mof_N 	N 	0.6419	0.06441	0.03067	-0.01
Mof_N 	N 	0.144	0.919	0.8092	-0.006
Mof_N 	N 	0.852	0.5479	0.6962	-0.005
Mof_C 	C 	0.1209	0.0625	0.56567	0.11
Mof_H 	H 	0.0426	0.0522	0.5479	0.007
Mof_C 	C 	0.2665	0.1247	0.6121	0.107
Mof_H 	H 	0.3096	0.1665	0.6336	-0.001
Mof_C 	C 	0.0515	0.2199	0.60429	-0.107
Mof_H 	H 	0.9726	0.216	0.5779	0.07
Mof_H 	H 	0.0826	0.2787	0.5783	0.074
Mof_C 	C 	0.0284	0.2215	0.69151	0.056
Mof_C 	C 	0.1036	0.2659	0.73336	-0.045
Mof_H 	H 	0.1693	0.2958	0.7071	0.056
Mof_C 	C 	0.0833	0.2667	0.81349	-0.078
Mof_H 	H 	0.135	0.2974	0.8411	0.073
Mof_C 	C 	0.9875	0.22257	0.85319	0.092
Mof_C 	C 	0.9118	0.1787	0.8112	-0.077
Mof_H 	H 	0.846	0.1489	0.8375	0.08
Mof_C 	C 	0.9314	0.178	0.7315	-0.044
Mof_H 	H 	0.879	0.148	0.7039	0.059
Mof_C 	C 	0.962	0.2273	0.93992	-0.142
Mof_H 	H 	0.9328	0.1683	0.9675	0.104
Mof_H 	H 	0.0394	0.2345	0.9663	0.095
Mof_C 	C 	0.8871	0.39533	0.95213	0.107
Mof_H 	H 	0.9659	0.4145	0.9578	0.017
Mof_C 	C 	0.7421	0.31121	0.93802	0.106
Mof_H 	H 	0.7001	0.2602	0.9317	0.02
Mof_C 	C 	0.7859	0.94954	0.62342	0.353
Mof_C 	C 	0.8623	0.8966	0.69512	-0.047
Mof_C 	C 	0.824	0.81557	0.74192	-0.014
Mof_H 	H 	0.7522	0.7923	0.727	0.061
Mof_C 	C 	0.8911	0.76849	0.81071	-0.023
Mof_C 	C 	0.9968	0.8013	0.83281	-0.087
Mof_H 	H 	0.0427	0.7702	0.8791	0.099
Mof_C 	C 	0.0338	0.8816	0.78498	0.108
Mof_C 	C 	0.9684	0.9302	0.7178	-0.073
Mof_H 	H 	0.9951	0.9855	0.6876	0.086
Mof_C 	C 	0.8432	0.68574	0.86402	0.285
Mof_C 	C 	0.2267	0.52368	0.8662	0.349
Mof_C 	C 	0.1498	0.57093	0.79319	-0.055
Mof_C 	C 	0.1895	0.64703	0.7392	-0.008
Mof_H 	H 	0.2654	0.6687	0.7488	0.062
Mof_C 	C 	0.118	0.69121	0.67124	-0.038
Mof_C 	C 	0.0063	0.65908	0.65629	-0.071
Mof_H 	H 	0.9569	0.6881	0.6109	0.085
Mof_C 	C 	0.9699	0.5829	0.71039	0.09
Mof_C 	C 	0.0392	0.5385	0.77785	-0.062
Mof_H 	H 	0.0115	0.4869	0.813	0.084
Mof_C 	C 	0.1644	0.77052	0.61216	0.292
Mof_C 	C 	0.6149	0.72155	0.0669	0.354
Mof_C 	C 	0.5992	0.81178	0.09785	-0.05
Mof_C 	C 	0.6366	0.8941	0.05314	-0.058
Mof_H 	H 	0.6787	0.8937	0.0047	0.091
Mof_C 	C 	0.6105	0.97652	0.08152	0.107
Mof_C 	C 	0.555	0.97936	0.1545	-0.053
Mof_H 	H 	0.5398	0.0364	0.1727	0.082
Mof_C 	C 	0.5219	0.89583	0.20048	-0.055
Mof_C 	C 	0.543	0.81325	0.17069	0.004
Mof_H 	H 	0.5183	0.7572	0.2008	0.057
Mof_C 	C 	0.467	0.8933	0.28253	0.341
Mof_H 	H 	0.5068	0.8669	0.5075	0.209
Mof_H 	H 	0.505	0.6266	0.941	0.243
Mof_O 	O 	0.747	0.048	0.9919	-0.074
Mof_O 	O 	0.841	0.4632	0.7235	0.016
Mof_O 	O 	0.2189	0.8595	0.8572	-0.074
Mof_O 	O 	0.819	0.563	0.6153	0.05
Mof_O 	O 	0.7657	0.6135	0.6625	0.045
Mof_Co	Co	0.7324	0.11121	0.49165	1.142
Mof_Co	Co	0.50722	0.98082	0.59397	1.135
Mof_Co	Co	0.26338	0.41332	0.02526	1.172
Mof_Co	Co	0.49938	0.53599	0.08195	1.143
Mof_O 	O 	0.18167	0.97074	0.40875	-0.437
Mof_O 	O 	0.30311	0.08722	0.39864	-0.43
Mof_O 	O 	0.25862	0.33963	0.15371	-0.348
Mof_O 	O 	0.09747	0.35375	0.07296	-0.357
Mof_O 	O 	0.72195	0.21668	0.38203	-0.395
Mof_O 	O 	0.90466	0.17973	0.44184	-0.362
Mof_O 	O 	0.55295	0.0834	0.49779	-0.756
Mof_O 	O 	0.82119	0.53965	0.08472	-0.418
Mof_O 	O 	0.6679	0.45189	0.12653	-0.447
Mof_O 	O 	0.44473	0.42654	0.03844	-0.762
Mof_O 	O 	0.55147	0.03066	0.69329	-0.429
Mof_O 	O 	0.5515	0.18567	0.67837	-0.288
Mof_O 	O 	0.3179	0.28176	0.99348	-0.397
Mof_O 	O 	0.44292	0.34352	0.89517	-0.448
Mof_O 	O 	0.4089	0.86069	0.95653	-0.116
Mof_O 	O 	0.2946	0.9367	0.0276	-0.039
Mof_O 	O 	0.1802	0.5172	0.2526	-0.146
Mof_O 	O 	0.2111	0.4132	0.3628	-0.212
Mof_O 	O 	0.8171	0.015	0.23391	-0.119
Mof_O 	O 	0.8381	0.0934	0.114	-0.062
Mof_N 	N 	0.7757	0.99525	0.43389	-0.202
Mof_N 	N 	0.68245	0.95498	0.40488	-0.211
Mof_N 	N 	0.8565	0.86157	0.40565	-0.119
Mof_N 	N 	0.1333	0.6925	0.05414	-0.11
Mof_N 	N 	0.21853	0.55034	0.05089	-0.203
Mof_N 	N 	0.31203	0.60443	0.05956	-0.208
Mof_N 	N 	0.3581	0.93559	0.96933	-0.01
Mof_N 	N 	0.856	0.081	0.1908	-0.006
Mof_N 	N 	0.148	0.4521	0.3038	-0.005
Mof_C 	C 	0.8791	0.9375	0.43433	0.11
Mof_H 	H 	0.9574	0.9478	0.4521	0.007
Mof_C 	C 	0.7335	0.8753	0.3879	0.107
Mof_H 	H 	0.6904	0.8335	0.3664	-0.001
Mof_C 	C 	0.9485	0.7801	0.39571	-0.107
Mof_H 	H 	0.0274	0.784	0.4221	0.07
Mof_H 	H 	0.9174	0.7213	0.4217	0.074
Mof_C 	C 	0.9716	0.7785	0.30849	0.056
Mof_C 	C 	0.8964	0.7341	0.26664	-0.045
Mof_H 	H 	0.8307	0.7042	0.2929	0.056
Mof_C 	C 	0.9167	0.7333	0.18651	-0.078
Mof_H 	H 	0.865	0.7026	0.1589	0.073
Mof_C 	C 	0.0125	0.77743	0.14681	0.092
Mof_C 	C 	0.0882	0.8213	0.1888	-0.077
Mof_H 	H 	0.154	0.8511	0.1625	0.08
Mof_C 	C 	0.0686	0.822	0.2685	-0.044
Mof_H 	H 	0.121	0.852	0.2961	0.059
Mof_C 	C 	0.038	0.7727	0.06008	-0.142
Mof_H 	H 	0.0672	0.8317	0.0325	0.104
Mof_H 	H 	0.9606	0.7655	0.0337	0.095
Mof_C 	C 	0.1129	0.60467	0.04787	0.107
Mof_H 	H 	0.0341	0.5855	0.0422	0.017
Mof_C 	C 	0.2579	0.68879	0.06198	0.106
Mof_H 	H 	0.2999	0.7398	0.0683	0.02
Mof_C 	C 	0.2141	0.05046	0.37658	0.353
Mof_C 	C 	0.1377	0.1034	0.30488	-0.047
Mof_C 	C 	0.176	0.18443	0.25808	-0.014
Mof_H 	H 	0.2478	0.2077	0.273	0.061
Mof_C 	C 	0.1089	0.23151	0.18929	-0.023
Mof_C 	C 	0.0032	0.1987	0.16719	-0.087
Mof_H 	H 	0.9573	0.2298	0.1209	0.099
Mof_C 	C 	0.9662	0.1184	0.21502	0.108
Mof_C 	C 	0.0316	0.0698	0.2822	-0.073
Mof_H 	H 	0.0049	0.0145	0.3124	0.086
Mof_C 	C 	0.1568	0.31426	0.13598	0.285
Mof_C 	C 	0.7733	0.47632	0.1338	0.349
Mof_C 	C 	0.8502	0.42907	0.20681	-0.055
Mof_C 	C 	0.8105	0.35297	0.2608	-0.008
Mof_H 	H 	0.7346	0.3313	0.2512	0.062
Mof_C 	C 	0.882	0.30879	0.32876	-0.038
Mof_C 	C 	0.9937	0.34092	0.34371	-0.071
Mof_H 	H 	0.0431	0.3119	0.3891	0.085
Mof_C 	C 	0.0301	0.4171	0.28961	0.09
Mof_C 	C 	0.9608	0.4615	0.22215	-0.062
Mof_H 	H 	0.9885	0.5131	0.187	0.084
Mof_C 	C 	0.8356	0.22948	0.38784	0.292
Mof_C 	C 	0.3851	0.27845	0.9331	0.354
Mof_C 	C 	0.4008	0.18822	0.90215	-0.05
Mof_C 	C 	0.3634	0.1059	0.94686	-0.058
Mof_H 	H 	0.3213	0.1063	0.9953	0.091
Mof_C 	C 	0.3895	0.02348	0.91848	0.107
Mof_C 	C 	0.445	0.02064	0.8455	-0.053
Mof_H 	H 	0.4602	0.9636	0.8273	0.082
Mof_C 	C 	0.4781	0.10417	0.79952	-0.055
Mof_C 	C 	0.457	0.18675	0.82931	0.004
Mof_H 	H 	0.4817	0.2428	0.7992	0.057
Mof_C 	C 	0.533	0.1067	0.71747	0.341
Mof_H 	H 	0.4932	0.1331	0.4925	0.209
Mof_H 	H 	0.495	0.3734	0.059	0.243
Mof_O 	O 	0.253	0.952	0.0081	-0.074
Mof_O 	O 	0.159	0.5368	0.2765	0.016
Mof_O 	O 	0.7811	0.1405	0.1428	-0.074
Mof_O 	O 	0.181	0.437	0.3847	0.05
Mof_O 	O 	0.2343	0.3865	0.3375	0.045
_end
