data_functionalizedCrystal
_audit_creation_method	'EQeq! by Chris Wilmer'
_symmetry_space_group_name_H-M	'P1'
_symmetry_Int_Tables_number	1
_symmetry_cell_setting	triclinic
loop_
_symmetry_equiv_pos_as_xyz
  x,y,z
_cell_length_a	11.3254
_cell_length_b	33.0426
_cell_length_c	33.0426
_cell_angle_alpha	88.317
_cell_angle_beta	80.1322
_cell_angle_gamma	80.1322
loop_
_atom_site_label
_atom_site_type_symbol
_atom_site_fract_x
_atom_site_fract_y
_atom_site_fract_z
_atom_site_charge
Mof_La	La	0.45958	0.329	0.5294	1.91
Mof_La	La	0.96598	0.32773	0.52619	1.947
Mof_La	La	0.81798	0.171	0.9706	1.909
Mof_La	La	0.3199	0.17227	0.97381	1.95
Mof_La	La	0.98898	0.4706	0.829	1.904
Mof_La	La	0.49217	0.47381	0.82773	1.949
Mof_La	La	0.78858	0.0294	0.671	1.91
Mof_La	La	0.29371	0.02619	0.67227	1.95
Mof_La	La	0.54042	0.671	0.4706	1.911
Mof_La	La	0.03402	0.67227	0.47381	1.948
Mof_La	La	0.18202	0.829	0.0294	1.91
Mof_La	La	0.6801	0.82773	0.02619	1.951
Mof_La	La	0.01102	0.5294	0.171	1.905
Mof_La	La	0.50783	0.52619	0.17227	1.95
Mof_La	La	0.21142	0.9706	0.329	1.911
Mof_La	La	0.70629	0.97381	0.32773	1.951
Mof_Co	Co	0.95453	0.46281	0.37025	1.119
Mof_Co	Co	0.28759	0.03719	0.12975	1.119
Mof_Co	Co	0.32478	0.62975	0.96281	1.119
Mof_Co	Co	0.41734	0.87025	0.53719	1.119
Mof_Co	Co	0.04547	0.53719	0.62975	1.119
Mof_Co	Co	0.71241	0.96281	0.87025	1.119
Mof_Co	Co	0.67522	0.37025	0.03719	1.119
Mof_Co	Co	0.58266	0.12975	0.46281	1.119
Mof_H 	H 	0.7403	0.1888	0.4128	0.001
Mof_H 	H 	0.7072	0.2438	0.3712	0.088
Mof_H 	H 	0.5096	0.2802	0.374	0.035
Mof_H 	H 	0.1213	0.2089	0.5427	-0.01
Mof_H 	H 	0.1514	0.1377	0.5379	0.09
Mof_H 	H 	0.3232	0.1043	0.4985	-0.019
Mof_H 	H 	0.0837	0.4747	0.7023	-0.021
Mof_H 	H 	0.0475	0.4077	0.7143	0.086
Mof_H 	H 	0.0323	0.3685	0.6589	0.023
Mof_H 	H 	0.2576	0.4627	0.4743	0.005
Mof_H 	H 	0.1511	0.5284	0.4732	0.087
Mof_H 	H 	0.0442	0.5585	0.5339	-0.026
Mof_H 	H 	0.6726	0.5021	0.3841	-0.016
Mof_H 	H 	0.5095	0.4949	0.4343	0.093
Mof_H 	H 	0.5298	0.4393	0.4789	-0.012
Mof_H 	H 	0.0011	0.2897	0.3721	0.031
Mof_H 	H 	0.1745	0.3185	0.3535	0.092
Mof_H 	H 	0.1619	0.388	0.3604	-0.003
Mof_H 	H 	0.8732	0.1869	0.5443	-0.004
Mof_H 	H 	0.8055	0.1297	0.5753	0.107
Mof_H 	H 	0.686	0.1367	0.6371	-0.018
Mof_H 	H 	0.6021	0.3643	0.6559	0.026
Mof_H 	H 	0.6823	0.3587	0.7179	0.087
Mof_H 	H 	0.7427	0.2939	0.7409	0.021
Mof_H 	H 	0.8419	0.3112	0.0872	0.001
Mof_H 	H 	0.8222	0.2562	0.1288	0.088
Mof_H 	H 	0.6638	0.2198	0.126	0.035
Mof_H 	H 	0.3729	0.2911	0.9573	-0.011
Mof_H 	H 	0.327	0.3623	0.9621	0.089
Mof_H 	H 	0.426	0.3957	0.0015	-0.019
Mof_H 	H 	0.7607	0.0253	0.7977	-0.021
Mof_H 	H 	0.6695	0.0923	0.7857	0.085
Mof_H 	H 	0.5597	0.1315	0.8411	0.023
Mof_H 	H 	0.6946	0.0373	0.0257	0.005
Mof_H 	H 	0.6527	0.9716	0.0268	0.088
Mof_H 	H 	0.6366	0.9415	0.9661	-0.026
Mof_H 	H 	0.0588	0.9979	0.1159	-0.016
Mof_H 	H 	0.9387	0.0051	0.0657	0.093
Mof_H 	H 	0.948	0.0607	0.0211	-0.011
Mof_H 	H 	0.1629	0.2103	0.1279	0.03
Mof_H 	H 	0.3465	0.1815	0.1465	0.093
Mof_H 	H 	0.4103	0.112	0.1396	-0.004
Mof_H 	H 	0.1044	0.3131	0.9557	-0.002
Mof_H 	H 	0.0105	0.3703	0.9247	0.105
Mof_H 	H 	0.9598	0.3633	0.8629	-0.015
Mof_H 	H 	0.1223	0.1357	0.8441	0.027
Mof_H 	H 	0.2589	0.1413	0.7821	0.087
Mof_H 	H 	0.2775	0.2061	0.7591	0.022
Mof_H 	H 	0.1531	0.5872	0.6888	0.001
Mof_H 	H 	0.0784	0.6288	0.7438	0.087
Mof_H 	H 	0.8836	0.626	0.7802	0.036
Mof_H 	H 	0.664	0.4573	0.7089	-0.011
Mof_H 	H 	0.6893	0.4621	0.6377	0.089
Mof_H 	H 	0.8217	0.5015	0.6043	-0.019
Mof_H 	H 	0.786	0.2977	0.9747	-0.021
Mof_H 	H 	0.7618	0.2857	0.9077	0.085
Mof_H 	H 	0.6912	0.3411	0.8685	0.023
Mof_H 	H 	0.7319	0.5257	0.9627	0.005
Mof_H 	H 	0.6243	0.5268	0.0284	0.087
Mof_H 	H 	0.5781	0.4661	0.0585	-0.026
Mof_H 	H 	0.0567	0.6159	0.0021	-0.017
Mof_H 	H 	0.9438	0.5657	0.9949	0.093
Mof_H 	H 	0.0087	0.5211	0.9393	-0.012
Mof_H 	H 	0.3732	0.6279	0.7897	0.03
Mof_H 	H 	0.528	0.6465	0.8185	0.093
Mof_H 	H 	0.5223	0.6396	0.888	-0.004
Mof_H 	H 	0.4175	0.4557	0.6869	-0.004
Mof_H 	H 	0.3808	0.4247	0.6297	0.107
Mof_H 	H 	0.3231	0.3629	0.6367	-0.018
Mof_H 	H 	0.258	0.3441	0.8643	0.026
Mof_H 	H 	0.4002	0.2821	0.8587	0.088
Mof_H 	H 	0.4836	0.2591	0.7939	0.021
Mof_H 	H 	0.9291	0.9128	0.8112	0.001
Mof_H 	H 	0.951	0.8712	0.7562	0.088
Mof_H 	H 	0.7898	0.874	0.7198	0.035
Mof_H 	H 	0.3302	0.0427	0.7911	-0.011
Mof_H 	H 	0.2891	0.0379	0.8623	0.089
Mof_H 	H 	0.4275	0.9985	0.8957	-0.019
Mof_H 	H 	0.5584	0.2023	0.5253	-0.021
Mof_H 	H 	0.4552	0.2143	0.5923	0.086
Mof_H 	H 	0.4008	0.1589	0.6315	0.023
Mof_H 	H 	0.7203	0.9743	0.5373	0.005
Mof_H 	H 	0.6795	0.9732	0.4716	0.088
Mof_H 	H 	0.6027	0.0339	0.4415	-0.026
Mof_H 	H 	0.1747	0.8841	0.4979	-0.016
Mof_H 	H 	0.0044	0.9343	0.5051	0.093
Mof_H 	H 	0.9691	0.9789	0.5607	-0.012
Mof_H 	H 	0.2908	0.8721	0.7103	0.03
Mof_H 	H 	0.493	0.8535	0.6815	0.093
Mof_H 	H 	0.5499	0.8604	0.612	-0.004
Mof_H 	H 	0.0601	0.0443	0.8131	-0.004
Mof_H 	H 	0.9352	0.0753	0.8703	0.108
Mof_H 	H 	0.8227	0.1371	0.8633	-0.018
Mof_H 	H 	0.9664	0.1559	0.6357	0.027
Mof_H 	H 	0.041	0.2179	0.6413	0.087
Mof_H 	H 	0.0366	0.2409	0.7061	0.022
Mof_H 	H 	0.2597	0.8112	0.5872	0.001
Mof_H 	H 	0.2928	0.7562	0.6288	0.088
Mof_H 	H 	0.4904	0.7198	0.626	0.035
Mof_H 	H 	0.8787	0.7911	0.4573	-0.01
Mof_H 	H 	0.8486	0.8623	0.4621	0.09
Mof_H 	H 	0.6768	0.8957	0.5015	-0.019
Mof_H 	H 	0.9163	0.5253	0.2977	-0.021
Mof_H 	H 	0.9525	0.5923	0.2857	0.086
Mof_H 	H 	0.9677	0.6315	0.3411	0.023
Mof_H 	H 	0.7424	0.5373	0.5257	0.005
Mof_H 	H 	0.8489	0.4716	0.5268	0.087
Mof_H 	H 	0.9558	0.4415	0.4661	-0.026
Mof_H 	H 	0.3274	0.4979	0.6159	-0.016
Mof_H 	H 	0.4905	0.5051	0.5657	0.093
Mof_H 	H 	0.4702	0.5607	0.5211	-0.012
Mof_H 	H 	0.9989	0.7103	0.6279	0.031
Mof_H 	H 	0.8255	0.6815	0.6465	0.092
Mof_H 	H 	0.8381	0.612	0.6396	-0.003
Mof_H 	H 	0.1268	0.8131	0.4557	-0.004
Mof_H 	H 	0.1945	0.8703	0.4247	0.107
Mof_H 	H 	0.314	0.8633	0.3629	-0.018
Mof_H 	H 	0.3979	0.6357	0.3441	0.026
Mof_H 	H 	0.3177	0.6413	0.2821	0.087
Mof_H 	H 	0.2573	0.7061	0.2591	0.021
Mof_H 	H 	0.1581	0.6888	0.9128	0.001
Mof_H 	H 	0.1778	0.7438	0.8712	0.088
Mof_H 	H 	0.3362	0.7802	0.874	0.035
Mof_H 	H 	0.6271	0.7089	0.0427	-0.011
Mof_H 	H 	0.673	0.6377	0.0379	0.089
Mof_H 	H 	0.574	0.6043	0.9985	-0.019
Mof_H 	H 	0.2393	0.9747	0.2023	-0.021
Mof_H 	H 	0.3305	0.9077	0.2143	0.085
Mof_H 	H 	0.4403	0.8685	0.1589	0.023
Mof_H 	H 	0.3054	0.9627	0.9743	0.005
Mof_H 	H 	0.3473	0.0284	0.9732	0.088
Mof_H 	H 	0.3634	0.0585	0.0339	-0.026
Mof_H 	H 	0.9412	0.0021	0.8841	-0.016
Mof_H 	H 	0.0613	0.9949	0.9343	0.093
Mof_H 	H 	0.052	0.9393	0.9789	-0.011
Mof_H 	H 	0.8371	0.7897	0.8721	0.03
Mof_H 	H 	0.6535	0.8185	0.8535	0.093
Mof_H 	H 	0.5897	0.888	0.8604	-0.004
Mof_H 	H 	0.8956	0.6869	0.0443	-0.002
Mof_H 	H 	0.9895	0.6297	0.0753	0.105
Mof_H 	H 	0.0402	0.6367	0.1371	-0.015
Mof_H 	H 	0.8777	0.8643	0.1559	0.027
Mof_H 	H 	0.7411	0.8587	0.2179	0.087
Mof_H 	H 	0.7225	0.7939	0.2409	0.022
Mof_H 	H 	0.8469	0.4128	0.3112	0.001
Mof_H 	H 	0.9216	0.3712	0.2562	0.087
Mof_H 	H 	0.1164	0.374	0.2198	0.036
Mof_H 	H 	0.336	0.5427	0.2911	-0.011
Mof_H 	H 	0.3107	0.5379	0.3623	0.089
Mof_H 	H 	0.1783	0.4985	0.3957	-0.019
Mof_H 	H 	0.214	0.7023	0.0253	-0.021
Mof_H 	H 	0.2382	0.7143	0.0923	0.085
Mof_H 	H 	0.3088	0.6589	0.1315	0.023
Mof_H 	H 	0.2681	0.4743	0.0373	0.005
Mof_H 	H 	0.3757	0.4732	0.9716	0.087
Mof_H 	H 	0.4219	0.5339	0.9415	-0.026
Mof_H 	H 	0.9433	0.3841	0.9979	-0.017
Mof_H 	H 	0.0562	0.4343	0.0051	0.093
Mof_H 	H 	0.9913	0.4789	0.0607	-0.012
Mof_H 	H 	0.6268	0.3721	0.2103	0.03
Mof_H 	H 	0.472	0.3535	0.1815	0.093
Mof_H 	H 	0.4777	0.3604	0.112	-0.004
Mof_H 	H 	0.5825	0.5443	0.3131	-0.004
Mof_H 	H 	0.6192	0.5753	0.3703	0.107
Mof_H 	H 	0.6769	0.6371	0.3633	-0.018
Mof_H 	H 	0.742	0.6559	0.1357	0.026
Mof_H 	H 	0.5998	0.7179	0.1413	0.088
Mof_H 	H 	0.5164	0.7409	0.2061	0.021
Mof_H 	H 	0.0709	0.0872	0.1888	0.001
Mof_H 	H 	0.049	0.1288	0.2438	0.088
Mof_H 	H 	0.2102	0.126	0.2802	0.035
Mof_H 	H 	0.6698	0.9573	0.2089	-0.011
Mof_H 	H 	0.7109	0.9621	0.1377	0.089
Mof_H 	H 	0.5725	0.0015	0.1043	-0.019
Mof_H 	H 	0.4416	0.7977	0.4747	-0.021
Mof_H 	H 	0.5448	0.7857	0.4077	0.086
Mof_H 	H 	0.5992	0.8411	0.3685	0.023
Mof_H 	H 	0.2797	0.0257	0.4627	0.005
Mof_H 	H 	0.3205	0.0268	0.5284	0.088
Mof_H 	H 	0.3973	0.9661	0.5585	-0.026
Mof_H 	H 	0.8253	0.1159	0.5021	-0.016
Mof_H 	H 	0.9956	0.0657	0.4949	0.093
Mof_H 	H 	0.0309	0.0211	0.4393	-0.012
Mof_H 	H 	0.7092	0.1279	0.2897	0.03
Mof_H 	H 	0.507	0.1465	0.3185	0.093
Mof_H 	H 	0.4501	0.1396	0.388	-0.004
Mof_H 	H 	0.9399	0.9557	0.1869	-0.004
Mof_H 	H 	0.0648	0.9247	0.1297	0.108
Mof_H 	H 	0.1773	0.8629	0.1367	-0.018
Mof_H 	H 	0.0336	0.8441	0.3643	0.027
Mof_H 	H 	0.959	0.7821	0.3587	0.087
Mof_H 	H 	0.9634	0.7591	0.2939	0.022
Mof_C 	C 	0.66172	0.20329	0.41447	0.07
Mof_C 	C 	0.64281	0.23603	0.38935	-0.118
Mof_C 	C 	0.5249	0.25792	0.39128	0.034
Mof_C 	C 	0.43034	0.24588	0.41944	-0.096
Mof_C 	C 	0.30333	0.27056	0.42098	0.303
Mof_C 	C 	0.45889	0.21196	0.44466	0.045
Mof_C 	C 	0.36801	0.19387	0.47491	0.098
Mof_C 	C 	0.27245	0.21635	0.50235	-0.2
Mof_C 	C 	0.26324	0.26128	0.51064	0.504
Mof_C 	C 	0.18899	0.19486	0.52556	0.115
Mof_C 	C 	0.20742	0.15248	0.52308	-0.179
Mof_C 	C 	0.30859	0.13286	0.49876	0.103
Mof_C 	C 	0.08104	0.45825	0.68027	0.087
Mof_C 	C 	0.0576	0.41826	0.68774	-0.136
Mof_C 	C 	0.04992	0.39488	0.65468	0.055
Mof_C 	C 	0.06844	0.41069	0.61483	-0.124
Mof_C 	C 	0.03978	0.38648	0.58136	0.328
Mof_C 	C 	0.09827	0.44967	0.60999	0.062
Mof_C 	C 	0.1249	0.4698	0.569	0.061
Mof_C 	C 	0.20156	0.45203	0.53465	-0.114
Mof_C 	C 	0.28224	0.41006	0.53606	0.336
Mof_C 	C 	0.20993	0.47449	0.49825	0.067
Mof_C 	C 	0.14855	0.51367	0.49763	-0.153
Mof_C 	C 	0.08199	0.53118	0.53404	0.101
Mof_C 	C 	0.6765	0.47841	0.40019	0.105
Mof_C 	C 	0.5798	0.47517	0.43103	-0.177
Mof_C 	C 	0.59126	0.44162	0.45686	0.117
Mof_C 	C 	0.69465	0.41113	0.44997	-0.206
Mof_C 	C 	0.78105	0.41492	0.41538	0.095
Mof_C 	C 	0.71115	0.37819	0.48171	0.521
Mof_C 	C 	0.89052	0.38369	0.39947	0.043
Mof_C 	C 	0.8905	0.34183	0.39517	-0.106
Mof_C 	C 	0.78037	0.32167	0.40919	0.307
Mof_C 	C 	0.99869	0.31755	0.37647	0.041
Mof_C 	C 	0.10122	0.33467	0.36449	-0.129
Mof_C 	C 	0.09307	0.3762	0.36926	0.075
Mof_C 	C 	0.85204	0.26166	0.57186	0.348
Mof_C 	C 	0.79738	0.22641	0.59123	-0.142
Mof_C 	C 	0.8262	0.18885	0.57035	0.089
Mof_C 	C 	0.7853	0.1551	0.5883	-0.179
Mof_C 	C 	0.7146	0.1598	0.6254	0.121
Mof_C 	C 	0.7252	0.2289	0.6299	0.096
Mof_C 	C 	0.6981	0.26656	0.65504	0.086
Mof_C 	C 	0.6403	0.3026	0.642	-0.118
Mof_C 	C 	0.58156	0.30864	0.60284	0.347
Mof_C 	C 	0.6352	0.3387	0.6653	0.047
Mof_C 	C 	0.6803	0.3356	0.7026	-0.125
Mof_C 	C 	0.7207	0.2969	0.7149	0.077
Mof_C 	C 	0.77948	0.29671	0.08553	0.07
Mof_C 	C 	0.76819	0.26397	0.11065	-0.118
Mof_C 	C 	0.6741	0.24208	0.10872	0.034
Mof_C 	C 	0.59566	0.25412	0.08056	-0.096
Mof_C 	C 	0.49487	0.22944	0.07902	0.303
Mof_C 	C 	0.61551	0.28804	0.05534	0.045
Mof_C 	C 	0.53679	0.30613	0.02509	0.098
Mof_C 	C 	0.49115	0.28365	0.99765	-0.201
Mof_C 	C 	0.53516	0.23872	0.98936	0.505
Mof_C 	C 	0.40941	0.30514	0.97444	0.115
Mof_C 	C 	0.38298	0.34752	0.97692	-0.18
Mof_C 	C 	0.44021	0.36714	0.00124	0.103
Mof_C 	C 	0.71956	0.04175	0.81973	0.087
Mof_C 	C 	0.6636	0.08174	0.81226	-0.136
Mof_C 	C 	0.59948	0.10512	0.84532	0.055
Mof_C 	C 	0.59396	0.08931	0.88517	-0.124
Mof_C 	C 	0.50762	0.11352	0.91864	0.326
Mof_C 	C 	0.65793	0.05033	0.89001	0.061
Mof_C 	C 	0.6637	0.0302	0.931	0.062
Mof_C 	C 	0.68824	0.04797	0.96535	-0.115
Mof_C 	C 	0.72836	0.08994	0.96394	0.336
Mof_C 	C 	0.68267	0.02551	0.00175	0.068
Mof_C 	C 	0.65985	0.98633	0.00237	-0.153
Mof_C 	C 	0.64721	0.96882	0.96596	0.102
Mof_C 	C 	0.0551	0.02159	0.09981	0.103
Mof_C 	C 	0.986	0.02483	0.06897	-0.175
Mof_C 	C 	0.98974	0.05838	0.04314	0.117
Mof_C 	C 	0.05575	0.08887	0.05003	-0.206
Mof_C 	C 	0.11135	0.08508	0.08462	0.095
Mof_C 	C 	0.07105	0.12181	0.01829	0.522
Mof_C 	C 	0.17368	0.11631	0.10053	0.043
Mof_C 	C 	0.1275	0.15817	0.10483	-0.106
Mof_C 	C 	0.01123	0.17833	0.09081	0.306
Mof_C 	C 	0.19271	0.18245	0.12353	0.042
Mof_C 	C 	0.30038	0.16533	0.13551	-0.13
Mof_C 	C 	0.33853	0.1238	0.13074	0.076
Mof_C 	C 	0.18556	0.23834	0.92814	0.347
Mof_C 	C 	0.11502	0.27359	0.90877	-0.139
Mof_C 	C 	0.0854	0.31115	0.92965	0.084
Mof_C 	C 	0.0287	0.3449	0.9117	-0.169
Mof_C 	C 	0.9998	0.3402	0.8746	0.111
Mof_C 	C 	0.084	0.2711	0.8701	0.096
Mof_C 	C 	0.1197	0.23344	0.84496	0.086
Mof_C 	C 	0.0849	0.1974	0.858	-0.116
Mof_C 	C 	0.99304	0.19136	0.89716	0.345
Mof_C 	C 	0.1392	0.1613	0.8347	0.046
Mof_C 	C 	0.2185	0.1644	0.7974	-0.124
Mof_C 	C 	0.2325	0.2031	0.7851	0.077
Mof_C 	C 	0.07619	0.58553	0.70329	0.069
Mof_C 	C 	0.03216	0.61065	0.73603	-0.115
Mof_C 	C 	0.91618	0.60872	0.75792	0.03
Mof_C 	C 	0.84978	0.58056	0.74588	-0.095
Mof_C 	C 	0.72431	0.57902	0.77056	0.303
Mof_C 	C 	0.90355	0.55534	0.71196	0.043
Mof_C 	C 	0.84292	0.52509	0.69387	0.098
Mof_C 	C 	0.7748	0.49765	0.71635	-0.201
Mof_C 	C 	0.77388	0.48936	0.76128	0.504
Mof_C 	C 	0.71455	0.47444	0.69486	0.115
Mof_C 	C 	0.7305	0.47692	0.65248	-0.18
Mof_C 	C 	0.80735	0.50124	0.63286	0.103
Mof_C 	C 	0.76131	0.31973	0.95825	0.087
Mof_C 	C 	0.74534	0.31226	0.91826	-0.136
Mof_C 	C 	0.7046	0.34532	0.89488	0.054
Mof_C 	C 	0.68327	0.38517	0.91069	-0.124
Mof_C 	C 	0.62114	0.41864	0.88648	0.326
Mof_C 	C 	0.70826	0.39001	0.94967	0.061
Mof_C 	C 	0.6939	0.431	0.9698	0.061
Mof_C 	C 	0.73621	0.46535	0.95203	-0.115
Mof_C 	C 	0.8183	0.46394	0.91006	0.336
Mof_C 	C 	0.70818	0.50175	0.97449	0.067
Mof_C 	C 	0.64618	0.50237	0.01367	-0.152
Mof_C 	C 	0.61603	0.46596	0.03118	0.101
Mof_C 	C 	0.07669	0.59981	0.97841	0.106
Mof_C 	C 	0.01083	0.56897	0.97517	-0.178
Mof_C 	C 	0.04812	0.54314	0.94162	0.118
Mof_C 	C 	0.14462	0.55003	0.91113	-0.206
Mof_C 	C 	0.19643	0.58462	0.91492	0.095
Mof_C 	C 	0.19286	0.51829	0.87819	0.521
Mof_C 	C 	0.28999	0.60053	0.88369	0.044
Mof_C 	C 	0.28567	0.60483	0.84183	-0.106
Mof_C 	C 	0.18956	0.59081	0.82167	0.307
Mof_C 	C 	0.37516	0.62353	0.81755	0.042
Mof_C 	C 	0.46571	0.63551	0.83467	-0.13
Mof_C 	C 	0.46233	0.63074	0.8762	0.076
Mof_C 	C 	0.4239	0.42814	0.76166	0.348
Mof_C 	C 	0.38861	0.40877	0.72641	-0.141
Mof_C 	C 	0.39655	0.42965	0.68885	0.089
Mof_C 	C 	0.3736	0.4117	0.6551	-0.178
Mof_C 	C 	0.34	0.3746	0.6598	0.121
Mof_C 	C 	0.3551	0.3701	0.7289	0.096
Mof_C 	C 	0.35314	0.34496	0.76656	0.086
Mof_C 	C 	0.2823	0.358	0.8026	-0.118
Mof_C 	C 	0.1844	0.39716	0.80864	0.347
Mof_C 	C 	0.3005	0.3347	0.8387	0.047
Mof_C 	C 	0.3829	0.2974	0.8356	-0.125
Mof_C 	C 	0.4356	0.2851	0.7969	0.077
Mof_C 	C 	0.86501	0.91447	0.79671	0.07
Mof_C 	C 	0.87884	0.88935	0.76397	-0.118
Mof_C 	C 	0.78282	0.89128	0.74208	0.034
Mof_C 	C 	0.67622	0.91944	0.75412	-0.096
Mof_C 	C 	0.57389	0.92098	0.72944	0.303
Mof_C 	C 	0.67085	0.94466	0.78804	0.045
Mof_C 	C 	0.56188	0.97491	0.80613	0.098
Mof_C 	C 	0.4888	0.00235	0.78365	-0.201
Mof_C 	C 	0.52452	0.01064	0.73872	0.505
Mof_C 	C 	0.38385	0.02556	0.80514	0.115
Mof_C 	C 	0.3599	0.02308	0.84752	-0.18
Mof_C 	C 	0.44145	0.99876	0.86714	0.103
Mof_C 	C 	0.53929	0.18027	0.54175	0.087
Mof_C 	C 	0.47586	0.18774	0.58174	-0.136
Mof_C 	C 	0.4448	0.15468	0.60512	0.055
Mof_C 	C 	0.47913	0.11483	0.58931	-0.124
Mof_C 	C 	0.42626	0.08136	0.61352	0.326
Mof_C 	C 	0.54794	0.10999	0.55033	0.061
Mof_C 	C 	0.5947	0.069	0.5302	0.061
Mof_C 	C 	0.65359	0.03465	0.54797	-0.115
Mof_C 	C 	0.6923	0.03606	0.58994	0.336
Mof_C 	C 	0.68442	0.99825	0.52551	0.067
Mof_C 	C 	0.66222	0.99763	0.48633	-0.153
Mof_C 	C 	0.61317	0.03404	0.46882	0.101
Mof_C 	C 	0.15491	0.90019	0.52159	0.105
Mof_C 	C 	0.05497	0.93103	0.52483	-0.178
Mof_C 	C 	0.03288	0.95686	0.55838	0.119
Mof_C 	C 	0.10578	0.94997	0.58887	-0.207
Mof_C 	C 	0.19597	0.91538	0.58508	0.096
Mof_C 	C 	0.08934	0.98171	0.62181	0.523
Mof_C 	C 	0.27421	0.89947	0.61631	0.043
Mof_C 	C 	0.23233	0.89517	0.65817	-0.106
Mof_C 	C 	0.10204	0.90919	0.67833	0.307
Mof_C 	C 	0.31624	0.87647	0.68245	0.042
Mof_C 	C 	0.43589	0.86449	0.66533	-0.13
Mof_C 	C 	0.46927	0.86926	0.6238	0.076
Mof_C 	C 	0.1137	0.07186	0.73834	0.348
Mof_C 	C 	0.02379	0.09123	0.77359	-0.139
Mof_C 	C 	0.01505	0.07035	0.81115	0.092
Mof_C 	C 	0.9404	0.0883	0.8449	-0.182
Mof_C 	C 	0.8744	0.1254	0.8402	0.122
Mof_C 	C 	0.9541	0.1299	0.7711	0.094
Mof_C 	C 	0.96466	0.15504	0.73344	0.085
Mof_C 	C 	0.9429	0.142	0.6974	-0.117
Mof_C 	C 	0.8902	0.10284	0.69136	0.347
Mof_C 	C 	0.9739	0.1653	0.6613	0.043
Mof_C 	C 	0.0159	0.2026	0.6644	-0.121
Mof_C 	C 	0.0176	0.2149	0.7031	0.079
Mof_C 	C 	0.33828	0.79671	0.58553	0.07
Mof_C 	C 	0.35719	0.76397	0.61065	-0.118
Mof_C 	C 	0.4751	0.74208	0.60872	0.034
Mof_C 	C 	0.56966	0.75412	0.58056	-0.096
Mof_C 	C 	0.69667	0.72944	0.57902	0.303
Mof_C 	C 	0.54111	0.78804	0.55534	0.045
Mof_C 	C 	0.63199	0.80613	0.52509	0.098
Mof_C 	C 	0.72755	0.78365	0.49765	-0.2
Mof_C 	C 	0.73676	0.73872	0.48936	0.504
Mof_C 	C 	0.81101	0.80514	0.47444	0.115
Mof_C 	C 	0.79258	0.84752	0.47692	-0.179
Mof_C 	C 	0.69141	0.86714	0.50124	0.103
Mof_C 	C 	0.91896	0.54175	0.31973	0.087
Mof_C 	C 	0.9424	0.58174	0.31226	-0.136
Mof_C 	C 	0.95008	0.60512	0.34532	0.055
Mof_C 	C 	0.93156	0.58931	0.38517	-0.124
Mof_C 	C 	0.96022	0.61352	0.41864	0.328
Mof_C 	C 	0.90173	0.55033	0.39001	0.062
Mof_C 	C 	0.8751	0.5302	0.431	0.061
Mof_C 	C 	0.79844	0.54797	0.46535	-0.114
Mof_C 	C 	0.71776	0.58994	0.46394	0.336
Mof_C 	C 	0.79007	0.52551	0.50175	0.067
Mof_C 	C 	0.85145	0.48633	0.50237	-0.153
Mof_C 	C 	0.91801	0.46882	0.46596	0.101
Mof_C 	C 	0.3235	0.52159	0.59981	0.105
Mof_C 	C 	0.4202	0.52483	0.56897	-0.177
Mof_C 	C 	0.40874	0.55838	0.54314	0.117
Mof_C 	C 	0.30535	0.58887	0.55003	-0.206
Mof_C 	C 	0.21895	0.58508	0.58462	0.095
Mof_C 	C 	0.28885	0.62181	0.51829	0.521
Mof_C 	C 	0.10948	0.61631	0.60053	0.043
Mof_C 	C 	0.1095	0.65817	0.60483	-0.106
Mof_C 	C 	0.21963	0.67833	0.59081	0.307
Mof_C 	C 	0.00131	0.68245	0.62353	0.041
Mof_C 	C 	0.89878	0.66533	0.63551	-0.129
Mof_C 	C 	0.90693	0.6238	0.63074	0.075
Mof_C 	C 	0.14796	0.73834	0.42814	0.348
Mof_C 	C 	0.20262	0.77359	0.40877	-0.142
Mof_C 	C 	0.1738	0.81115	0.42965	0.089
Mof_C 	C 	0.2147	0.8449	0.4117	-0.179
Mof_C 	C 	0.2854	0.8402	0.3746	0.121
Mof_C 	C 	0.2748	0.7711	0.3701	0.096
Mof_C 	C 	0.3019	0.73344	0.34496	0.086
Mof_C 	C 	0.3597	0.6974	0.358	-0.118
Mof_C 	C 	0.41844	0.69136	0.39716	0.347
Mof_C 	C 	0.3648	0.6613	0.3347	0.047
Mof_C 	C 	0.3197	0.6644	0.2974	-0.125
Mof_C 	C 	0.2793	0.7031	0.2851	0.077
Mof_C 	C 	0.22052	0.70329	0.91447	0.07
Mof_C 	C 	0.23181	0.73603	0.88935	-0.118
Mof_C 	C 	0.3259	0.75792	0.89128	0.034
Mof_C 	C 	0.40434	0.74588	0.91944	-0.096
Mof_C 	C 	0.50513	0.77056	0.92098	0.303
Mof_C 	C 	0.38449	0.71196	0.94466	0.045
Mof_C 	C 	0.46321	0.69387	0.97491	0.098
Mof_C 	C 	0.50885	0.71635	0.00235	-0.201
Mof_C 	C 	0.46484	0.76128	0.01064	0.505
Mof_C 	C 	0.59059	0.69486	0.02556	0.115
Mof_C 	C 	0.61702	0.65248	0.02308	-0.18
Mof_C 	C 	0.55979	0.63286	0.99876	0.103
Mof_C 	C 	0.28044	0.95825	0.18027	0.087
Mof_C 	C 	0.3364	0.91826	0.18774	-0.136
Mof_C 	C 	0.40052	0.89488	0.15468	0.055
Mof_C 	C 	0.40604	0.91069	0.11483	-0.124
Mof_C 	C 	0.49238	0.88648	0.08136	0.326
Mof_C 	C 	0.34207	0.94967	0.10999	0.061
Mof_C 	C 	0.3363	0.9698	0.069	0.062
Mof_C 	C 	0.31176	0.95203	0.03465	-0.115
Mof_C 	C 	0.27164	0.91006	0.03606	0.336
Mof_C 	C 	0.31733	0.97449	0.99825	0.068
Mof_C 	C 	0.34015	0.01367	0.99763	-0.153
Mof_C 	C 	0.35279	0.03118	0.03404	0.102
Mof_C 	C 	0.9449	0.97841	0.90019	0.103
Mof_C 	C 	0.014	0.97517	0.93103	-0.175
Mof_C 	C 	0.01026	0.94162	0.95686	0.117
Mof_C 	C 	0.94425	0.91113	0.94997	-0.206
Mof_C 	C 	0.88865	0.91492	0.91538	0.095
Mof_C 	C 	0.92895	0.87819	0.98171	0.522
Mof_C 	C 	0.82632	0.88369	0.89947	0.043
Mof_C 	C 	0.8725	0.84183	0.89517	-0.106
Mof_C 	C 	0.98877	0.82167	0.90919	0.306
Mof_C 	C 	0.80729	0.81755	0.87647	0.042
Mof_C 	C 	0.69962	0.83467	0.86449	-0.13
Mof_C 	C 	0.66147	0.8762	0.86926	0.076
Mof_C 	C 	0.81444	0.76166	0.07186	0.347
Mof_C 	C 	0.88498	0.72641	0.09123	-0.139
Mof_C 	C 	0.9146	0.68885	0.07035	0.084
Mof_C 	C 	0.9713	0.6551	0.0883	-0.169
Mof_C 	C 	0.0002	0.6598	0.1254	0.111
Mof_C 	C 	0.916	0.7289	0.1299	0.096
Mof_C 	C 	0.8803	0.76656	0.15504	0.086
Mof_C 	C 	0.9151	0.8026	0.142	-0.116
Mof_C 	C 	0.00696	0.80864	0.10284	0.345
Mof_C 	C 	0.8608	0.8387	0.1653	0.046
Mof_C 	C 	0.7815	0.8356	0.2026	-0.124
Mof_C 	C 	0.7675	0.7969	0.2149	0.077
Mof_C 	C 	0.92381	0.41447	0.29671	0.069
Mof_C 	C 	0.96784	0.38935	0.26397	-0.115
Mof_C 	C 	0.08382	0.39128	0.24208	0.03
Mof_C 	C 	0.15022	0.41944	0.25412	-0.095
Mof_C 	C 	0.27569	0.42098	0.22944	0.303
Mof_C 	C 	0.09645	0.44466	0.28804	0.043
Mof_C 	C 	0.15708	0.47491	0.30613	0.098
Mof_C 	C 	0.2252	0.50235	0.28365	-0.201
Mof_C 	C 	0.22612	0.51064	0.23872	0.504
Mof_C 	C 	0.28545	0.52556	0.30514	0.115
Mof_C 	C 	0.2695	0.52308	0.34752	-0.18
Mof_C 	C 	0.19265	0.49876	0.36714	0.103
Mof_C 	C 	0.23869	0.68027	0.04175	0.087
Mof_C 	C 	0.25466	0.68774	0.08174	-0.136
Mof_C 	C 	0.2954	0.65468	0.10512	0.054
Mof_C 	C 	0.31673	0.61483	0.08931	-0.124
Mof_C 	C 	0.37886	0.58136	0.11352	0.326
Mof_C 	C 	0.29174	0.60999	0.05033	0.061
Mof_C 	C 	0.3061	0.569	0.0302	0.061
Mof_C 	C 	0.26379	0.53465	0.04797	-0.115
Mof_C 	C 	0.1817	0.53606	0.08994	0.336
Mof_C 	C 	0.29182	0.49825	0.02551	0.067
Mof_C 	C 	0.35382	0.49763	0.98633	-0.152
Mof_C 	C 	0.38397	0.53404	0.96882	0.101
Mof_C 	C 	0.92331	0.40019	0.02159	0.106
Mof_C 	C 	0.98917	0.43103	0.02483	-0.178
Mof_C 	C 	0.95188	0.45686	0.05838	0.118
Mof_C 	C 	0.85538	0.44997	0.08887	-0.206
Mof_C 	C 	0.80357	0.41538	0.08508	0.095
Mof_C 	C 	0.80714	0.48171	0.12181	0.521
Mof_C 	C 	0.71001	0.39947	0.11631	0.044
Mof_C 	C 	0.71433	0.39517	0.15817	-0.106
Mof_C 	C 	0.81044	0.40919	0.17833	0.307
Mof_C 	C 	0.62484	0.37647	0.18245	0.042
Mof_C 	C 	0.53429	0.36449	0.16533	-0.13
Mof_C 	C 	0.53767	0.36926	0.1238	0.076
Mof_C 	C 	0.5761	0.57186	0.23834	0.348
Mof_C 	C 	0.61139	0.59123	0.27359	-0.141
Mof_C 	C 	0.60345	0.57035	0.31115	0.089
Mof_C 	C 	0.6264	0.5883	0.3449	-0.178
Mof_C 	C 	0.66	0.6254	0.3402	0.121
Mof_C 	C 	0.6449	0.6299	0.2711	0.096
Mof_C 	C 	0.64686	0.65504	0.23344	0.086
Mof_C 	C 	0.7177	0.642	0.1974	-0.118
Mof_C 	C 	0.8156	0.60284	0.19136	0.347
Mof_C 	C 	0.6995	0.6653	0.1613	0.047
Mof_C 	C 	0.6171	0.7026	0.1644	-0.125
Mof_C 	C 	0.5644	0.7149	0.2031	0.077
Mof_C 	C 	0.13499	0.08553	0.20329	0.07
Mof_C 	C 	0.12116	0.11065	0.23603	-0.118
Mof_C 	C 	0.21718	0.10872	0.25792	0.034
Mof_C 	C 	0.32378	0.08056	0.24588	-0.096
Mof_C 	C 	0.42611	0.07902	0.27056	0.303
Mof_C 	C 	0.32915	0.05534	0.21196	0.045
Mof_C 	C 	0.43812	0.02509	0.19387	0.098
Mof_C 	C 	0.5112	0.99765	0.21635	-0.201
Mof_C 	C 	0.47548	0.98936	0.26128	0.505
Mof_C 	C 	0.61615	0.97444	0.19486	0.115
Mof_C 	C 	0.6401	0.97692	0.15248	-0.18
Mof_C 	C 	0.55855	0.00124	0.13286	0.103
Mof_C 	C 	0.46071	0.81973	0.45825	0.087
Mof_C 	C 	0.52414	0.81226	0.41826	-0.136
Mof_C 	C 	0.5552	0.84532	0.39488	0.055
Mof_C 	C 	0.52087	0.88517	0.41069	-0.124
Mof_C 	C 	0.57374	0.91864	0.38648	0.326
Mof_C 	C 	0.45206	0.89001	0.44967	0.061
Mof_C 	C 	0.4053	0.931	0.4698	0.061
Mof_C 	C 	0.34641	0.96535	0.45203	-0.115
Mof_C 	C 	0.3077	0.96394	0.41006	0.336
Mof_C 	C 	0.31558	0.00175	0.47449	0.067
Mof_C 	C 	0.33778	0.00237	0.51367	-0.153
Mof_C 	C 	0.38683	0.96596	0.53118	0.101
Mof_C 	C 	0.84509	0.09981	0.47841	0.105
Mof_C 	C 	0.94503	0.06897	0.47517	-0.178
Mof_C 	C 	0.96712	0.04314	0.44162	0.119
Mof_C 	C 	0.89422	0.05003	0.41113	-0.207
Mof_C 	C 	0.80403	0.08462	0.41492	0.096
Mof_C 	C 	0.91066	0.01829	0.37819	0.523
Mof_C 	C 	0.72579	0.10053	0.38369	0.043
Mof_C 	C 	0.76767	0.10483	0.34183	-0.106
Mof_C 	C 	0.89796	0.09081	0.32167	0.307
Mof_C 	C 	0.68376	0.12353	0.31755	0.042
Mof_C 	C 	0.56411	0.13551	0.33467	-0.13
Mof_C 	C 	0.53073	0.13074	0.3762	0.076
Mof_C 	C 	0.8863	0.92814	0.26166	0.348
Mof_C 	C 	0.97621	0.90877	0.22641	-0.139
Mof_C 	C 	0.98495	0.92965	0.18885	0.092
Mof_C 	C 	0.0596	0.9117	0.1551	-0.182
Mof_C 	C 	0.1256	0.8746	0.1598	0.122
Mof_C 	C 	0.0459	0.8701	0.2289	0.094
Mof_C 	C 	0.03534	0.84496	0.26656	0.085
Mof_C 	C 	0.0571	0.858	0.3026	-0.117
Mof_C 	C 	0.1098	0.89716	0.30864	0.347
Mof_C 	C 	0.0261	0.8347	0.3387	0.043
Mof_C 	C 	0.9841	0.7974	0.3356	-0.121
Mof_C 	C 	0.9824	0.7851	0.2969	0.079
Mof_N 	N 	0.57235	0.19062	0.44188	-0.243
Mof_N 	N 	0.38898	0.15303	0.47501	-0.246
Mof_N 	N 	0.09978	0.47336	0.64228	-0.241
Mof_N 	N 	0.07058	0.51023	0.56901	-0.239
Mof_N 	N 	0.99121	0.40038	0.386	-0.247
Mof_N 	N 	0.77562	0.44949	0.39207	-0.247
Mof_N 	N 	0.73157	0.2621	0.69256	-0.119
Mof_N 	N 	0.6804	0.19556	0.64784	-0.131
Mof_N 	N 	0.70485	0.30938	0.05812	-0.243
Mof_N 	N 	0.51702	0.34697	0.02499	-0.246
Mof_N 	N 	0.71542	0.02664	0.85772	-0.241
Mof_N 	N 	0.64982	0.98977	0.93099	-0.239
Mof_N 	N 	0.27759	0.09962	0.114	-0.247
Mof_N 	N 	0.11718	0.05051	0.10793	-0.247
Mof_N 	N 	0.18623	0.2379	0.80744	-0.118
Mof_N 	N 	0.0238	0.30444	0.85216	-0.128
Mof_N 	N 	0.01423	0.55812	0.69062	-0.242
Mof_N 	N 	0.86399	0.52499	0.65303	-0.246
Mof_N 	N 	0.74206	0.35772	0.97336	-0.241
Mof_N 	N 	0.63959	0.43099	0.01023	-0.239
Mof_N 	N 	0.37721	0.614	0.90038	-0.247
Mof_N 	N 	0.16769	0.60793	0.94949	-0.247
Mof_N 	N 	0.42413	0.30744	0.7621	-0.118
Mof_N 	N 	0.32824	0.35216	0.69556	-0.13
Mof_N 	N 	0.76297	0.94188	0.80938	-0.243
Mof_N 	N 	0.54201	0.97501	0.84697	-0.246
Mof_N 	N 	0.57314	0.14228	0.52664	-0.241
Mof_N 	N 	0.58081	0.06901	0.48977	-0.239
Mof_N 	N 	0.39159	0.886	0.59962	-0.247
Mof_N 	N 	0.22511	0.89207	0.55051	-0.247
Mof_N 	N 	0.99367	0.19256	0.7379	-0.12
Mof_N 	N 	0.87596	0.14784	0.80444	-0.131
Mof_N 	N 	0.42765	0.80938	0.55812	-0.243
Mof_N 	N 	0.61102	0.84697	0.52499	-0.246
Mof_N 	N 	0.90022	0.52664	0.35772	-0.241
Mof_N 	N 	0.92942	0.48977	0.43099	-0.239
Mof_N 	N 	0.00879	0.59962	0.614	-0.247
Mof_N 	N 	0.22438	0.55051	0.60793	-0.247
Mof_N 	N 	0.26843	0.7379	0.30744	-0.119
Mof_N 	N 	0.3196	0.80444	0.35216	-0.131
Mof_N 	N 	0.29515	0.69062	0.94188	-0.243
Mof_N 	N 	0.48298	0.65303	0.97501	-0.246
Mof_N 	N 	0.28458	0.97336	0.14228	-0.241
Mof_N 	N 	0.35018	0.01023	0.06901	-0.239
Mof_N 	N 	0.72241	0.90038	0.886	-0.247
Mof_N 	N 	0.88282	0.94949	0.89207	-0.247
Mof_N 	N 	0.81377	0.7621	0.19256	-0.118
Mof_N 	N 	0.9762	0.69556	0.14784	-0.128
Mof_N 	N 	0.98577	0.44188	0.30938	-0.242
Mof_N 	N 	0.13601	0.47501	0.34697	-0.246
Mof_N 	N 	0.25794	0.64228	0.02664	-0.241
Mof_N 	N 	0.36041	0.56901	0.98977	-0.239
Mof_N 	N 	0.62279	0.386	0.09962	-0.247
Mof_N 	N 	0.83231	0.39207	0.05051	-0.247
Mof_N 	N 	0.57587	0.69256	0.2379	-0.118
Mof_N 	N 	0.67176	0.64784	0.30444	-0.13
Mof_N 	N 	0.23703	0.05812	0.19062	-0.243
Mof_N 	N 	0.45799	0.02499	0.15303	-0.246
Mof_N 	N 	0.42686	0.85772	0.47336	-0.241
Mof_N 	N 	0.41919	0.93099	0.51023	-0.239
Mof_N 	N 	0.60841	0.114	0.40038	-0.247
Mof_N 	N 	0.77489	0.10793	0.44949	-0.247
Mof_N 	N 	0.00633	0.80744	0.2621	-0.12
Mof_N 	N 	0.12404	0.85216	0.19556	-0.131
Mof_O 	O 	0.29314	0.30866	0.42206	-0.28
Mof_O 	O 	0.21696	0.25064	0.42144	-0.256
Mof_O 	O 	0.36313	0.2746	0.50634	-0.535
Mof_O 	O 	0.16095	0.28222	0.52248	-0.54
Mof_O 	O 	0.0604	0.34738	0.58502	-0.433
Mof_O 	O 	0.99618	0.40368	0.55216	-0.4
Mof_O 	O 	0.36129	0.40647	0.55855	-0.386
Mof_O 	O 	0.27154	0.38185	0.51307	-0.439
Mof_O 	O 	0.79737	0.28886	0.4288	-0.28
Mof_O 	O 	0.6807	0.33922	0.39998	-0.258
Mof_O 	O 	0.54121	0.27945	0.58973	-0.404
Mof_O 	O 	0.56823	0.34326	0.58828	-0.437
Mof_O 	O 	0.61823	0.36941	0.50353	-0.538
Mof_O 	O 	0.81894	0.36333	0.48479	-0.547
Mof_O 	O 	0.9338	0.27401	0.58619	-0.403
Mof_O 	O 	0.81371	0.27819	0.54059	-0.456
Mof_O 	O 	0.52386	0.19134	0.07794	-0.28
Mof_O 	O 	0.38904	0.24936	0.07856	-0.256
Mof_O 	O 	0.64407	0.2254	0.99366	-0.535
Mof_O 	O 	0.46565	0.21778	0.97752	-0.541
Mof_O 	O 	0.4928	0.15262	0.91498	-0.434
Mof_O 	O 	0.45202	0.09632	0.94784	-0.398
Mof_O 	O 	0.82631	0.09353	0.94145	-0.386
Mof_O 	O 	0.66646	0.11815	0.98693	-0.439
Mof_O 	O 	0.01503	0.21114	0.0712	-0.28
Mof_O 	O 	0.9199	0.16078	0.10002	-0.258
Mof_O 	O 	0.91039	0.22055	0.91027	-0.404
Mof_O 	O 	0.99977	0.15674	0.91172	-0.437
Mof_O 	O 	0.99117	0.13059	0.99647	-0.539
Mof_O 	O 	0.16706	0.13667	0.01521	-0.547
Mof_O 	O 	0.294	0.22599	0.91381	-0.401
Mof_O 	O 	0.13249	0.22181	0.95941	-0.455
Mof_O 	O 	0.7152	0.57794	0.80866	-0.28
Mof_O 	O 	0.6384	0.57856	0.75064	-0.256
Mof_O 	O 	0.86947	0.49366	0.7746	-0.535
Mof_O 	O 	0.68343	0.47752	0.78222	-0.541
Mof_O 	O 	0.64542	0.41498	0.84738	-0.434
Mof_O 	O 	0.54834	0.44784	0.90368	-0.398
Mof_O 	O 	0.91984	0.44145	0.90647	-0.386
Mof_O 	O 	0.78461	0.48693	0.88185	-0.439
Mof_O 	O 	0.22617	0.5712	0.78886	-0.279
Mof_O 	O 	0.08068	0.60002	0.83922	-0.258
Mof_O 	O 	0.13094	0.41027	0.77945	-0.403
Mof_O 	O 	0.15651	0.41172	0.84326	-0.436
Mof_O 	O 	0.12176	0.49647	0.86941	-0.537
Mof_O 	O 	0.30373	0.51521	0.86333	-0.547
Mof_O 	O 	0.51999	0.41381	0.77401	-0.402
Mof_O 	O 	0.3543	0.45941	0.77819	-0.456
Mof_O 	O 	0.6018	0.92206	0.69134	-0.28
Mof_O 	O 	0.4676	0.92144	0.74936	-0.256
Mof_O 	O 	0.63773	0.00634	0.7254	-0.535
Mof_O 	O 	0.44317	0.02248	0.71778	-0.541
Mof_O 	O 	0.40778	0.08502	0.65262	-0.434
Mof_O 	O 	0.39986	0.05216	0.59632	-0.398
Mof_O 	O 	0.76776	0.05855	0.59353	-0.386
Mof_O 	O 	0.65339	0.01307	0.61815	-0.439
Mof_O 	O 	0.08623	0.9288	0.71114	-0.279
Mof_O 	O 	0.01992	0.89998	0.66078	-0.258
Mof_O 	O 	0.82066	0.08973	0.72055	-0.404
Mof_O 	O 	0.91149	0.08828	0.65674	-0.437
Mof_O 	O 	0.98764	0.00353	0.63059	-0.539
Mof_O 	O 	0.18227	0.98479	0.63667	-0.547
Mof_O 	O 	0.20781	0.08619	0.72599	-0.401
Mof_O 	O 	0.0919	0.04059	0.72181	-0.455
Mof_O 	O 	0.70686	0.69134	0.57794	-0.28
Mof_O 	O 	0.78304	0.74936	0.57856	-0.256
Mof_O 	O 	0.63687	0.7254	0.49366	-0.535
Mof_O 	O 	0.83905	0.71778	0.47752	-0.54
Mof_O 	O 	0.9396	0.65262	0.41498	-0.433
Mof_O 	O 	0.00382	0.59632	0.44784	-0.4
Mof_O 	O 	0.63871	0.59353	0.44145	-0.386
Mof_O 	O 	0.72846	0.61815	0.48693	-0.439
Mof_O 	O 	0.20263	0.71114	0.5712	-0.28
Mof_O 	O 	0.3193	0.66078	0.60002	-0.258
Mof_O 	O 	0.45879	0.72055	0.41027	-0.404
Mof_O 	O 	0.43177	0.65674	0.41172	-0.437
Mof_O 	O 	0.38177	0.63059	0.49647	-0.538
Mof_O 	O 	0.18106	0.63667	0.51521	-0.547
Mof_O 	O 	0.0662	0.72599	0.41381	-0.403
Mof_O 	O 	0.18629	0.72181	0.45941	-0.456
Mof_O 	O 	0.47614	0.80866	0.92206	-0.28
Mof_O 	O 	0.61096	0.75064	0.92144	-0.256
Mof_O 	O 	0.35593	0.7746	0.00634	-0.535
Mof_O 	O 	0.53435	0.78222	0.02248	-0.541
Mof_O 	O 	0.5072	0.84738	0.08502	-0.434
Mof_O 	O 	0.54798	0.90368	0.05216	-0.398
Mof_O 	O 	0.17369	0.90647	0.05855	-0.386
Mof_O 	O 	0.33354	0.88185	0.01307	-0.439
Mof_O 	O 	0.98497	0.78886	0.9288	-0.28
Mof_O 	O 	0.0801	0.83922	0.89998	-0.258
Mof_O 	O 	0.08961	0.77945	0.08973	-0.404
Mof_O 	O 	0.00023	0.84326	0.08828	-0.437
Mof_O 	O 	0.00883	0.86941	0.00353	-0.539
Mof_O 	O 	0.83294	0.86333	0.98479	-0.547
Mof_O 	O 	0.706	0.77401	0.08619	-0.401
Mof_O 	O 	0.86751	0.77819	0.04059	-0.455
Mof_O 	O 	0.2848	0.42206	0.19134	-0.28
Mof_O 	O 	0.3616	0.42144	0.24936	-0.256
Mof_O 	O 	0.13053	0.50634	0.2254	-0.535
Mof_O 	O 	0.31657	0.52248	0.21778	-0.541
Mof_O 	O 	0.35458	0.58502	0.15262	-0.434
Mof_O 	O 	0.45166	0.55216	0.09632	-0.398
Mof_O 	O 	0.08016	0.55855	0.09353	-0.386
Mof_O 	O 	0.21539	0.51307	0.11815	-0.439
Mof_O 	O 	0.77383	0.4288	0.21114	-0.279
Mof_O 	O 	0.91932	0.39998	0.16078	-0.258
Mof_O 	O 	0.86906	0.58973	0.22055	-0.403
Mof_O 	O 	0.84349	0.58828	0.15674	-0.436
Mof_O 	O 	0.87824	0.50353	0.13059	-0.537
Mof_O 	O 	0.69627	0.48479	0.13667	-0.547
Mof_O 	O 	0.48001	0.58619	0.22599	-0.402
Mof_O 	O 	0.6457	0.54059	0.22181	-0.456
Mof_O 	O 	0.3982	0.07794	0.30866	-0.28
Mof_O 	O 	0.5324	0.07856	0.25064	-0.256
Mof_O 	O 	0.36227	0.99366	0.2746	-0.535
Mof_O 	O 	0.55683	0.97752	0.28222	-0.541
Mof_O 	O 	0.59222	0.91498	0.34738	-0.434
Mof_O 	O 	0.60014	0.94784	0.40368	-0.398
Mof_O 	O 	0.23224	0.94145	0.40647	-0.386
Mof_O 	O 	0.34661	0.98693	0.38185	-0.439
Mof_O 	O 	0.91377	0.0712	0.28886	-0.279
Mof_O 	O 	0.98008	0.10002	0.33922	-0.258
Mof_O 	O 	0.17934	0.91027	0.27945	-0.404
Mof_O 	O 	0.08851	0.91172	0.34326	-0.437
Mof_O 	O 	0.01236	0.99647	0.36941	-0.539
Mof_O 	O 	0.81773	0.01521	0.36333	-0.547
Mof_O 	O 	0.79219	0.91381	0.27401	-0.401
Mof_O 	O 	0.9081	0.95941	0.27819	-0.455
_end
