# CIF file generated by openbabel 3.1.0, see https://openbabel.org
data_I
_chemical_name_common 'image0'
_cell_length_a 38.648
_cell_length_b 38.648
_cell_length_c 59.844
_cell_angle_alpha 90
_cell_angle_beta 90
_cell_angle_gamma 120
_space_group_name_H-M_alt 'P 1'
_space_group_name_Hall 'P 1'
loop_
    _symmetry_equiv_pos_as_xyz
    x,y,z
loop_
    _atom_site_label
    _atom_site_type_symbol
    _atom_site_fract_x
    _atom_site_fract_y
    _atom_site_fract_z
    _atom_site_occupancy
    C1       C        0.30716    0.20870    0.36996    1.000
    C2       C        0.29562    0.23883    0.37339    1.000
    C3       C        0.31793    0.27102    0.38776    1.000
    H1       H        0.33750    0.27080    0.39670    1.000
    C4       C        0.31167    0.30247    0.38891    1.000
    H2       H        0.32680    0.32370    0.39850    1.000
    C5       C        0.28356    0.30270    0.37616    1.000
    H3       H        0.27950    0.32440    0.37680    1.000
    C6       C        0.25988    0.27072    0.36166    1.000
    C7       C        0.26616    0.23886    0.36032    1.000
    H4       H        0.25080    0.21760    0.35080    1.000
    C8       C        0.20654    0.24459    0.33486    1.000
    H5       H        0.18980    0.21970    0.34270    1.000
    H6       H        0.22200    0.24000    0.32370    1.000
    C9       C        0.18106    0.25958    0.32389    1.000
    C10      C        0.15188    0.26169    0.33631    1.000
    C11      C        0.13284    0.28025    0.32709    1.000
    C12      C        0.13947    0.29290    0.30493    1.000
    C13      C        0.16791    0.28930    0.29271    1.000
    C14      C        0.19098    0.27401    0.30286    1.000
    C15      C        0.22445    0.27436    0.28958    1.000
    H7       H        0.24660    0.28060    0.29930    1.000
    H8       H        0.23280    0.29410    0.27800    1.000
    H9       H        0.21520    0.24850    0.28300    1.000
    C16      C        0.13993    0.24361    0.35970    1.000
    H10      H        0.13640    0.21720    0.35970    1.000
    H11      H        0.11540    0.24230    0.36400    1.000
    H12      H        0.16050    0.26000    0.37010    1.000
    C17      C        0.11684    0.31098    0.29479    1.000
    H13      H        0.09270    0.30270    0.30310    1.000
    H14      H        0.11030    0.30230    0.27960    1.000
    H15      H        0.13300    0.33960    0.29520    1.000
    C18      C        0.10433    0.28741    0.34065    1.000
    H16      H        0.11070    0.28860    0.35640    1.000
    H17      H        0.10650    0.31260    0.33640    1.000
    C19      C        0.03501    0.25876    0.34714    1.000
    C20      C        0.04203    0.29112    0.36044    1.000
    H18      H        0.06800    0.31170    0.36290    1.000
    C21      C        0.01017    0.29274    0.37011    1.000
    H19      H        0.01490    0.31440    0.37900    1.000
    C22      C        0.97128    0.26200    0.36647    1.000
    H20      H        0.95000    0.26310    0.37290    1.000
    C23      C        0.96426    0.22963    0.35317    1.000
    C24      C        0.99612    0.22801    0.34350    1.000
    H21      H        0.99140    0.20640    0.33460    1.000
    C25      C        0.92310    0.19716    0.34934    1.000
    C26      C        0.17627    0.30412    0.26873    1.000
    H22      H        0.18730    0.29020    0.26060    1.000
    H23      H        0.15150    0.29860    0.26150    1.000
    C27      C        0.20964    0.36455    0.24860    1.000
    C28      C        0.23607    0.40542    0.24946    1.000
    H24      H        0.24790    0.41730    0.26300    1.000
    C29      C        0.24489    0.42843    0.23054    1.000
    H25      H        0.26200    0.45590    0.23130    1.000
    C30      C        0.22798    0.41034    0.21006    1.000
    H26      H        0.23470    0.42560    0.19710    1.000
    C31      C        0.20133    0.36989    0.20922    1.000
    C32      C        0.19331    0.34728    0.22864    1.000
    H27      H        0.17640    0.31980    0.22790    1.000
    C33      C        0.18305    0.34978    0.18755    1.000
    C34      C        0.17085    0.12994    0.34342    1.000
    C35      C        0.14841    0.13367    0.36261    1.000
    C36      C        0.10783    0.12062    0.36100    1.000
    H28      H        0.09390    0.10800    0.34800    1.000
    C37      C        0.08804    0.12635    0.37875    1.000
    H29      H        0.06090    0.11760    0.37770    1.000
    C38      C        0.10883    0.14514    0.39812    1.000
    H30      H        0.09560    0.14900    0.41000    1.000
    C39      C        0.14941    0.15819    0.39973    1.000
    C40      C        0.16920    0.15246    0.38197    1.000
    H31      H        0.19630    0.16120    0.38300    1.000
    C41      C        0.20834    0.19668    0.41937    1.000
    H32      H        0.21820    0.21150    0.40550    1.000
    H33      H        0.21840    0.17830    0.42060    1.000
    C42      C        0.22275    0.22549    0.43921    1.000
    C43      C        0.22240    0.26084    0.43792    1.000
    C44      C        0.24136    0.28945    0.45523    1.000
    C45      C        0.26073    0.28217    0.47205    1.000
    C46      C        0.25912    0.24531    0.47404    1.000
    C47      C        0.23809    0.21552    0.45841    1.000
    C48      C        0.23321    0.17443    0.46059    1.000
    H34      H        0.20840    0.15510    0.45390    1.000
    H35      H        0.23320    0.16820    0.47610    1.000
    H36      H        0.25490    0.17390    0.45310    1.000
    C49      C        0.20505    0.27063    0.41906    1.000
    H37      H        0.22600    0.28870    0.40920    1.000
    H38      H        0.19040    0.28300    0.42440    1.000
    H39      H        0.18730    0.24660    0.41110    1.000
    C50      C        0.28494    0.31570    0.48889    1.000
    H40      H        0.30230    0.33990    0.48100    1.000
    H41      H        0.30060    0.30830    0.49810    1.000
    H42      H        0.26700    0.31980    0.49810    1.000
    C51      C        0.24209    0.32833    0.45386    1.000
    H43      H        0.22130    0.32630    0.44400    1.000
    H44      H        0.23840    0.33680    0.46850    1.000
    C52      C        0.29389    0.39519    0.44724    1.000
    C53      C        0.33438    0.42118    0.44366    1.000
    H45      H        0.35140    0.41110    0.44090    1.000
    C54      C        0.34952    0.46223    0.44424    1.000
    H46      H        0.37660    0.47960    0.44180    1.000
    C55      C        0.32416    0.47729    0.44839    1.000
    H47      H        0.33430    0.50480    0.44880    1.000
    C56      C        0.28366    0.45131    0.45196    1.000
    C57      C        0.26852    0.41026    0.45138    1.000
    H48      H        0.24140    0.39290    0.45380    1.000
    C58      C        0.25761    0.46730    0.45607    1.000
    C59      C        0.28493    0.24152    0.49129    1.000
    H49      H        0.28450    0.21650    0.48910    1.000
    H50      H        0.31220    0.26300    0.48930    1.000
    C60      C        0.30198    0.25719    0.52925    1.000
    C61      C        0.29184    0.26797    0.54931    1.000
    H51      H        0.26670    0.26520    0.55110    1.000
    C62      C        0.31930    0.28287    0.56671    1.000
    H52      H        0.31250    0.29010    0.58010    1.000
    C63      C        0.35691    0.28697    0.56406    1.000
    H53      H        0.37530    0.29690    0.57570    1.000
    C64      C        0.36705    0.27619    0.54400    1.000
    C65      C        0.33959    0.26129    0.52660    1.000
    H54      H        0.34640    0.25410    0.51320    1.000
    C66      C        0.40685    0.27991    0.54130    1.000
    Mn1      Mn       0.34302    0.16450    0.36098    1.000
    Mn2      Mn       0.25527    0.13998    0.32848    1.000
    Mn3      Mn       0.18567    0.13994    0.29248    1.000
    O1       O        0.33681    0.21141    0.38050    1.000
    O2       O        0.29018    0.18155    0.35647    1.000
    O3       O        0.23277    0.27502    0.35037    1.000
    O4       O        0.20306    0.34488    0.26826    1.000
    O5       O        0.15873    0.31303    0.18854    1.000
    O6       O        0.19296    0.37026    0.17037    1.000
    O7       O        0.06431    0.25511    0.33659    1.000
    O8       O        0.91666    0.16536    0.34100    1.000
    O9       O        0.89625    0.20384    0.35650    1.000
    O10      O        0.20188    0.13110    0.34750    1.000
    O11      O        0.15533    0.12555    0.32491    1.000
    O12      O        0.16623    0.17539    0.41935    1.000
    O13      O        0.28201    0.35645    0.44490    1.000
    O14      O        0.22228    0.44321    0.46240    1.000
    O15      O        0.26738    0.50275    0.45256    1.000
    O16      O        0.27271    0.24279    0.51330    1.000
    O17      O        0.41716    0.27428    0.52263    1.000
    O18      O        0.42934    0.28863    0.55833    1.000
    O19      O        0.39680    0.16990    0.37130    1.000
    O20      O        0.39990    0.16460    0.36840    1.000
    H55      H        0.42100    0.19120    0.37090    1.000
    H56      H        0.39720    0.14860    0.38120    1.000
    H57      H        0.39510    0.13790    0.36750    1.000
    H58      H        0.41890    0.18060    0.35720    1.000
    H59      H        0.41600    0.19720    0.37410    1.000
    H60      H        0.39170    0.15500    0.38490    1.000
    H61      H        0.39360    0.14380    0.37210    1.000
    H62      H        0.41800    0.18600    0.36130    1.000
    C67      C        0.97383    0.54203    0.70329    1.000
    C68      C        0.96229    0.57216    0.70672    1.000
    C69      C        0.98460    0.60435    0.72109    1.000
    H63      H        0.00417    0.60413    0.73003    1.000
    C70      C        0.97834    0.63580    0.72224    1.000
    H64      H        0.99347    0.65703    0.73183    1.000
    C71      C        0.95023    0.63603    0.70949    1.000
    H65      H        0.94617    0.65773    0.71013    1.000
    C72      C        0.92655    0.60405    0.69499    1.000
    C73      C        0.93283    0.57219    0.69365    1.000
    H66      H        0.91747    0.55093    0.68413    1.000
    C74      C        0.87321    0.57792    0.66819    1.000
    H67      H        0.85647    0.55303    0.67603    1.000
    H68      H        0.88867    0.57333    0.65703    1.000
    C75      C        0.84773    0.59291    0.65722    1.000
    C76      C        0.81855    0.59502    0.66964    1.000
    C77      C        0.79951    0.61358    0.66042    1.000
    C78      C        0.80614    0.62623    0.63826    1.000
    C79      C        0.83458    0.62263    0.62604    1.000
    C80      C        0.85765    0.60734    0.63619    1.000
    C81      C        0.89112    0.60769    0.62291    1.000
    H69      H        0.91327    0.61393    0.63263    1.000
    H70      H        0.89947    0.62743    0.61133    1.000
    H71      H        0.88187    0.58183    0.61633    1.000
    C82      C        0.80660    0.57694    0.69303    1.000
    H72      H        0.80307    0.55053    0.69303    1.000
    H73      H        0.78207    0.57563    0.69733    1.000
    H74      H        0.82717    0.59333    0.70343    1.000
    C83      C        0.78351    0.64431    0.62812    1.000
    H75      H        0.75937    0.63603    0.63643    1.000
    H76      H        0.77697    0.63563    0.61293    1.000
    H77      H        0.79967    0.67293    0.62853    1.000
    C84      C        0.77100    0.62074    0.67398    1.000
    H78      H        0.77737    0.62193    0.68973    1.000
    H79      H        0.77317    0.64593    0.66973    1.000
    C85      C        0.70168    0.59209    0.68047    1.000
    C86      C        0.70870    0.62445    0.69377    1.000
    H80      H        0.73467    0.64503    0.69623    1.000
    C87      C        0.67684    0.62607    0.70344    1.000
    H81      H        0.68157    0.64773    0.71233    1.000
    C88      C        0.63795    0.59533    0.69980    1.000
    H82      H        0.61667    0.59643    0.70623    1.000
    C89      C        0.63093    0.56296    0.68650    1.000
    C90      C        0.66279    0.56134    0.67683    1.000
    H83      H        0.65807    0.53973    0.66793    1.000
    C91      C        0.58977    0.53049    0.68267    1.000
    C92      C        0.84294    0.63745    0.60206    1.000
    H84      H        0.85397    0.62353    0.59393    1.000
    H85      H        0.81817    0.63193    0.59483    1.000
    C93      C        0.87631    0.69788    0.58193    1.000
    C94      C        0.90274    0.73875    0.58279    1.000
    H86      H        0.91457    0.75063    0.59633    1.000
    C95      C        0.91156    0.76176    0.56387    1.000
    H87      H        0.92867    0.78923    0.56463    1.000
    C96      C        0.89465    0.74367    0.54339    1.000
    H88      H        0.90137    0.75893    0.53043    1.000
    C97      C        0.86800    0.70322    0.54255    1.000
    C98      C        0.85998    0.68061    0.56197    1.000
    H89      H        0.84307    0.65313    0.56123    1.000
    C99      C        0.84972    0.68311    0.52088    1.000
    C100     C        0.83752    0.46327    0.67675    1.000
    C101     C        0.81508    0.46700    0.69594    1.000
    C102     C        0.77450    0.45395    0.69433    1.000
    H90      H        0.76057    0.44133    0.68133    1.000
    C103     C        0.75471    0.45968    0.71208    1.000
    H91      H        0.72757    0.45093    0.71103    1.000
    C104     C        0.77550    0.47847    0.73145    1.000
    H92      H        0.76227    0.48233    0.74333    1.000
    C105     C        0.81608    0.49152    0.73306    1.000
    C106     C        0.83587    0.48579    0.71530    1.000
    H93      H        0.86297    0.49453    0.71633    1.000
    C107     C        0.87501    0.53001    0.75270    1.000
    H94      H        0.88487    0.54483    0.73883    1.000
    H95      H        0.88507    0.51163    0.75393    1.000
    C108     C        0.88942    0.55882    0.77254    1.000
    C109     C        0.88907    0.59417    0.77125    1.000
    C110     C        0.90803    0.62278    0.78856    1.000
    C111     C        0.92740    0.61550    0.80538    1.000
    C112     C        0.92579    0.57864    0.80737    1.000
    C113     C        0.90476    0.54885    0.79174    1.000
    C114     C        0.89988    0.50776    0.79392    1.000
    H96      H        0.87507    0.48843    0.78723    1.000
    H97      H        0.89987    0.50153    0.80943    1.000
    H98      H        0.92157    0.50723    0.78643    1.000
    C115     C        0.87172    0.60396    0.75239    1.000
    H99      H        0.89267    0.62203    0.74253    1.000
    H100     H        0.85707    0.61633    0.75773    1.000
    H101     H        0.85397    0.57993    0.74443    1.000
    C116     C        0.95161    0.64903    0.82222    1.000
    H102     H        0.96897    0.67323    0.81433    1.000
    H103     H        0.96727    0.64163    0.83143    1.000
    H104     H        0.93367    0.65313    0.83143    1.000
    C117     C        0.90876    0.66166    0.78719    1.000
    H105     H        0.88797    0.65963    0.77733    1.000
    H106     H        0.90507    0.67013    0.80183    1.000
    C118     C        0.96056    0.72852    0.78057    1.000
    C119     C        0.00105    0.75451    0.77699    1.000
    H107     H        0.01807    0.74443    0.77423    1.000
    C120     C        0.01619    0.79556    0.77757    1.000
    H108     H        0.04327    0.81293    0.77513    1.000
    C121     C        0.99083    0.81062    0.78172    1.000
    H109     H        0.00097    0.83813    0.78213    1.000
    C122     C        0.95033    0.78464    0.78529    1.000
    C123     C        0.93519    0.74359    0.78471    1.000
    H110     H        0.90807    0.72623    0.78713    1.000
    C124     C        0.92428    0.80063    0.78940    1.000
    C125     C        0.95160    0.57485    0.82462    1.000
    H111     H        0.95117    0.54983    0.82243    1.000
    H112     H        0.97887    0.59633    0.82263    1.000
    C126     C        0.96865    0.59052    0.86258    1.000
    C127     C        0.95851    0.60130    0.88264    1.000
    H113     H        0.93337    0.59853    0.88443    1.000
    C128     C        0.98597    0.61620    0.90004    1.000
    H114     H        0.97917    0.62343    0.91343    1.000
    C129     C        0.02358    0.62030    0.89739    1.000
    H115     H        0.04197    0.63023    0.90903    1.000
    C130     C        0.03372    0.60952    0.87733    1.000
    C131     C        0.00626    0.59462    0.85993    1.000
    H116     H        0.01307    0.58743    0.84653    1.000
    C132     C        0.07352    0.61324    0.87463    1.000
    Mn4      Mn       0.00968    0.49784    0.69431    1.000
    Mn5      Mn       0.92194    0.47331    0.66182    1.000
    Mn6      Mn       0.85234    0.47328    0.62582    1.000
    O21      O        0.00348    0.54474    0.71383    1.000
    O22      O        0.95685    0.51488    0.68980    1.000
    O23      O        0.89944    0.60835    0.68370    1.000
    O24      O        0.86973    0.67821    0.60159    1.000
    O25      O        0.82540    0.64636    0.52187    1.000
    O26      O        0.85963    0.70359    0.50370    1.000
    O27      O        0.73098    0.58844    0.66992    1.000
    O28      O        0.58333    0.49869    0.67433    1.000
    O29      O        0.56292    0.53717    0.68983    1.000
    O30      O        0.86855    0.46443    0.68083    1.000
    O31      O        0.82200    0.45888    0.65824    1.000
    O32      O        0.83290    0.50872    0.75268    1.000
    O33      O        0.94868    0.68978    0.77823    1.000
    O34      O        0.88895    0.77654    0.79573    1.000
    O35      O        0.93405    0.83608    0.78589    1.000
    O36      O        0.93938    0.57612    0.84663    1.000
    O37      O        0.08383    0.60761    0.85596    1.000
    O38      O        0.09601    0.62196    0.89166    1.000
    O39      O        0.06347    0.50323    0.70463    1.000
    O40      O        0.06657    0.49793    0.70173    1.000
    H117     H        0.08767    0.52453    0.70423    1.000
    H118     H        0.06387    0.48193    0.71453    1.000
    H119     H        0.06177    0.47123    0.70083    1.000
    H120     H        0.08557    0.51393    0.69053    1.000
    H121     H        0.08267    0.53053    0.70743    1.000
    H122     H        0.05837    0.48833    0.71823    1.000
    H123     H        0.06027    0.47713    0.70543    1.000
    H124     H        0.08467    0.51933    0.69463    1.000
    C133     C        0.64049    0.87537    0.03663    1.000
    C134     C        0.62895    0.90550    0.04006    1.000
    C135     C        0.65126    0.93769    0.05443    1.000
    H125     H        0.67083    0.93747    0.06337    1.000
    C136     C        0.64500    0.96914    0.05558    1.000
    H126     H        0.66013    0.99037    0.06517    1.000
    C137     C        0.61689    0.96937    0.04283    1.000
    H127     H        0.61283    0.99107    0.04347    1.000
    C138     C        0.59321    0.93739    0.02833    1.000
    C139     C        0.59949    0.90553    0.02699    1.000
    H128     H        0.58413    0.88427    0.01747    1.000
    C140     C        0.53987    0.91126    0.00153    1.000
    H129     H        0.52313    0.88637    0.00937    1.000
    H130     H        0.55533    0.90667    0.99037    1.000
    C141     C        0.51439    0.92625    0.99056    1.000
    C142     C        0.48521    0.92836    0.00298    1.000
    C143     C        0.46617    0.94692    0.99376    1.000
    C144     C        0.47280    0.95957    0.97160    1.000
    C145     C        0.50124    0.95597    0.95938    1.000
    C146     C        0.52431    0.94068    0.96953    1.000
    C147     C        0.55778    0.94103    0.95625    1.000
    H131     H        0.57993    0.94727    0.96597    1.000
    H132     H        0.56613    0.96077    0.94467    1.000
    H133     H        0.54853    0.91517    0.94967    1.000
    C148     C        0.47326    0.91028    0.02637    1.000
    H134     H        0.46973    0.88387    0.02637    1.000
    H135     H        0.44873    0.90897    0.03067    1.000
    H136     H        0.49383    0.92667    0.03677    1.000
    C149     C        0.45017    0.97765    0.96146    1.000
    H137     H        0.42603    0.96937    0.96977    1.000
    H138     H        0.44363    0.96897    0.94627    1.000
    H139     H        0.46633    0.00627    0.96187    1.000
    C150     C        0.43766    0.95408    0.00732    1.000
    H140     H        0.44403    0.95527    0.02307    1.000
    H141     H        0.43983    0.97927    0.00307    1.000
    C151     C        0.36834    0.92543    0.01381    1.000
    C152     C        0.37536    0.95779    0.02711    1.000
    H142     H        0.40133    0.97837    0.02957    1.000
    C153     C        0.34350    0.95941    0.03678    1.000
    H143     H        0.34823    0.98107    0.04567    1.000
    C154     C        0.30461    0.92867    0.03314    1.000
    H144     H        0.28333    0.92977    0.03957    1.000
    C155     C        0.29759    0.89630    0.01984    1.000
    C156     C        0.32945    0.89468    0.01017    1.000
    H145     H        0.32473    0.87307    0.00127    1.000
    C157     C        0.25643    0.86383    0.01601    1.000
    C158     C        0.50960    0.97079    0.93540    1.000
    H146     H        0.52063    0.95687    0.92727    1.000
    H147     H        0.48483    0.96527    0.92817    1.000
    C159     C        0.54297    0.03122    0.91527    1.000
    C160     C        0.56940    0.07209    0.91613    1.000
    H148     H        0.58123    0.08397    0.92967    1.000
    C161     C        0.57822    0.09510    0.89721    1.000
    H149     H        0.59533    0.12257    0.89797    1.000
    C162     C        0.56131    0.07701    0.87673    1.000
    H150     H        0.56803    0.09227    0.86377    1.000
    C163     C        0.53466    0.03656    0.87589    1.000
    C164     C        0.52664    0.01395    0.89531    1.000
    H151     H        0.50973    0.98647    0.89457    1.000
    C165     C        0.51638    0.01645    0.85422    1.000
    C166     C        0.50418    0.79661    0.01009    1.000
    C167     C        0.48174    0.80034    0.02928    1.000
    C168     C        0.44116    0.78729    0.02767    1.000
    H152     H        0.42723    0.77467    0.01467    1.000
    C169     C        0.42137    0.79302    0.04542    1.000
    H153     H        0.39423    0.78427    0.04437    1.000
    C170     C        0.44216    0.81181    0.06479    1.000
    H154     H        0.42893    0.81567    0.07667    1.000
    C171     C        0.48274    0.82486    0.06640    1.000
    C172     C        0.50253    0.81913    0.04864    1.000
    H155     H        0.52963    0.82787    0.04967    1.000
    C173     C        0.54167    0.86335    0.08604    1.000
    H156     H        0.55153    0.87817    0.07217    1.000
    H157     H        0.55173    0.84497    0.08727    1.000
    C174     C        0.55608    0.89216    0.10588    1.000
    C175     C        0.55573    0.92751    0.10459    1.000
    C176     C        0.57469    0.95612    0.12190    1.000
    C177     C        0.59406    0.94884    0.13872    1.000
    C178     C        0.59245    0.91198    0.14071    1.000
    C179     C        0.57142    0.88219    0.12508    1.000
    C180     C        0.56654    0.84110    0.12726    1.000
    H158     H        0.54173    0.82177    0.12057    1.000
    H159     H        0.56653    0.83487    0.14277    1.000
    H160     H        0.58823    0.84057    0.11977    1.000
    C181     C        0.53838    0.93730    0.08573    1.000
    H161     H        0.55933    0.95537    0.07587    1.000
    H162     H        0.52373    0.94967    0.09107    1.000
    H163     H        0.52063    0.91327    0.07777    1.000
    C182     C        0.61827    0.98237    0.15556    1.000
    H164     H        0.63563    0.00657    0.14767    1.000
    H165     H        0.63393    0.97497    0.16477    1.000
    H166     H        0.60033    0.98647    0.16477    1.000
    C183     C        0.57542    0.99500    0.12053    1.000
    H167     H        0.55463    0.99297    0.11067    1.000
    H168     H        0.57173    0.00347    0.13517    1.000
    C184     C        0.62722    0.06186    0.11391    1.000
    C185     C        0.66771    0.08785    0.11033    1.000
    H169     H        0.68473    0.07777    0.10757    1.000
    C186     C        0.68285    0.12890    0.11091    1.000
    H170     H        0.70993    0.14627    0.10847    1.000
    C187     C        0.65749    0.14396    0.11506    1.000
    H171     H        0.66763    0.17147    0.11547    1.000
    C188     C        0.61699    0.11798    0.11863    1.000
    C189     C        0.60185    0.07693    0.11805    1.000
    H172     H        0.57473    0.05957    0.12047    1.000
    C190     C        0.59094    0.13397    0.12274    1.000
    C191     C        0.61826    0.90819    0.15796    1.000
    H173     H        0.61783    0.88317    0.15577    1.000
    H174     H        0.64553    0.92967    0.15597    1.000
    C192     C        0.63531    0.92386    0.19592    1.000
    C193     C        0.62517    0.93464    0.21598    1.000
    H175     H        0.60003    0.93187    0.21777    1.000
    C194     C        0.65263    0.94954    0.23338    1.000
    H176     H        0.64583    0.95677    0.24677    1.000
    C195     C        0.69024    0.95364    0.23073    1.000
    H177     H        0.70863    0.96357    0.24237    1.000
    C196     C        0.70038    0.94286    0.21067    1.000
    C197     C        0.67292    0.92796    0.19327    1.000
    H178     H        0.67973    0.92077    0.17987    1.000
    C198     C        0.74018    0.94658    0.20797    1.000
    Mn7      Mn       0.67635    0.83117    0.02765    1.000
    Mn8      Mn       0.58861    0.80665    0.99515    1.000
    Mn9      Mn       0.51900    0.80661    0.95915    1.000
    O41      O        0.67014    0.87808    0.04717    1.000
    O42      O        0.62351    0.84822    0.02314    1.000
    O43      O        0.56610    0.94169    0.01704    1.000
    O44      O        0.53639    0.01155    0.93493    1.000
    O45      O        0.49206    0.97970    0.85521    1.000
    O46      O        0.52629    0.03693    0.83704    1.000
    O47      O        0.39764    0.92178    0.00326    1.000
    O48      O        0.24999    0.83203    0.00767    1.000
    O49      O        0.22958    0.87051    0.02317    1.000
    O50      O        0.53521    0.79777    0.01417    1.000
    O51      O        0.48866    0.79222    0.99158    1.000
    O52      O        0.49956    0.84206    0.08602    1.000
    O53      O        0.61534    0.02312    0.11157    1.000
    O54      O        0.55561    0.10988    0.12907    1.000
    O55      O        0.60071    0.16942    0.11923    1.000
    O56      O        0.60604    0.90946    0.17997    1.000
    O57      O        0.75049    0.94095    0.18930    1.000
    O58      O        0.76267    0.95530    0.22500    1.000
    O59      O        0.73013    0.83657    0.03797    1.000
    O60      O        0.73323    0.83127    0.03507    1.000
    H179     H        0.75433    0.85787    0.03757    1.000
    H180     H        0.73053    0.81527    0.04787    1.000
    H181     H        0.72843    0.80457    0.03417    1.000
    H182     H        0.75223    0.84727    0.02387    1.000
    H183     H        0.74933    0.86387    0.04077    1.000
    H184     H        0.72503    0.82167    0.05157    1.000
    H185     H        0.72693    0.81047    0.03877    1.000
    H186     H        0.75133    0.85267    0.02797    1.000
    C199     C        0.79130    0.09846    0.36996    1.000
    C200     C        0.76117    0.05679    0.37339    1.000
    C201     C        0.72898    0.04691    0.38776    1.000
    H187     H        0.72920    0.06670    0.39670    1.000
    C202     C        0.69753    0.00920    0.38891    1.000
    H188     H        0.67630    0.00310    0.39850    1.000
    C203     C        0.69730    0.98086    0.37616    1.000
    H189     H        0.67560    0.95510    0.37680    1.000
    C204     C        0.72928    0.98916    0.36166    1.000
    C205     C        0.76114    0.02730    0.36032    1.000
    H190     H        0.78240    0.03320    0.35080    1.000
    C206     C        0.75541    0.96195    0.33486    1.000
    H191     H        0.78030    0.97010    0.34270    1.000
    H192     H        0.76000    0.98200    0.32370    1.000
    C207     C        0.74042    0.92148    0.32389    1.000
    C208     C        0.73831    0.89019    0.33631    1.000
    C209     C        0.71975    0.85259    0.32709    1.000
    C210     C        0.70710    0.84657    0.30493    1.000
    C211     C        0.71070    0.87861    0.29271    1.000
    C212     C        0.72599    0.91697    0.30286    1.000
    C213     C        0.72564    0.95009    0.28958    1.000
    H193     H        0.71940    0.96600    0.29930    1.000
    H194     H        0.70590    0.93870    0.27800    1.000
    H195     H        0.75150    0.96670    0.28300    1.000
    C214     C        0.75639    0.89632    0.35970    1.000
    H196     H        0.78280    0.91920    0.35970    1.000
    H197     H        0.75770    0.87310    0.36400    1.000
    H198     H        0.74000    0.90050    0.37010    1.000
    C215     C        0.68902    0.80586    0.29479    1.000
    H199     H        0.69730    0.79000    0.30310    1.000
    H200     H        0.69770    0.80800    0.27960    1.000
    H201     H        0.66040    0.79340    0.29520    1.000
    C216     C        0.71259    0.81692    0.34065    1.000
    H202     H        0.71140    0.82210    0.35640    1.000
    H203     H        0.68740    0.79390    0.33640    1.000
    C217     C        0.74124    0.77625    0.34714    1.000
    C218     C        0.70888    0.75091    0.36044    1.000
    H204     H        0.68830    0.75630    0.36290    1.000
    C219     C        0.70726    0.71743    0.37011    1.000
    H205     H        0.68560    0.70050    0.37900    1.000
    C220     C        0.73800    0.70928    0.36647    1.000
    H206     H        0.73690    0.68690    0.37290    1.000
    C221     C        0.77037    0.73463    0.35317    1.000
    C222     C        0.77199    0.76811    0.34350    1.000
    H207     H        0.79360    0.78500    0.33460    1.000
    C223     C        0.80284    0.72594    0.34934    1.000
    C224     C        0.69588    0.87215    0.26873    1.000
    H208     H        0.70980    0.89710    0.26060    1.000
    H209     H        0.70140    0.85290    0.26150    1.000
    C225     C        0.63545    0.84509    0.24860    1.000
    C226     C        0.59458    0.83065    0.24946    1.000
    H210     H        0.58270    0.83060    0.26300    1.000
    C227     C        0.57157    0.81646    0.23054    1.000
    H211     H        0.54410    0.80610    0.23130    1.000
    C228     C        0.58966    0.81764    0.21006    1.000
    H212     H        0.57440    0.80910    0.19710    1.000
    C229     C        0.63011    0.83144    0.20922    1.000
    C230     C        0.65272    0.84603    0.22864    1.000
    H213     H        0.68020    0.85660    0.22790    1.000
    C231     C        0.65022    0.83327    0.18755    1.000
    C232     C        0.87006    0.04091    0.34342    1.000
    C233     C        0.86633    0.01474    0.36261    1.000
    C234     C        0.87938    0.98721    0.36100    1.000
    H214     H        0.89200    0.98590    0.34800    1.000
    C235     C        0.87365    0.96169    0.37875    1.000
    H215     H        0.88240    0.94330    0.37770    1.000
    C236     C        0.85486    0.96369    0.39812    1.000
    H216     H        0.85100    0.94660    0.41000    1.000
    C237     C        0.84181    0.99122    0.39973    1.000
    C238     C        0.84754    0.01674    0.38197    1.000
    H217     H        0.83880    0.03510    0.38300    1.000
    C239     C        0.80332    0.01166    0.41937    1.000
    H218     H        0.78850    0.00670    0.40550    1.000
    H219     H        0.82170    0.04010    0.42060    1.000
    C240     C        0.77451    0.99726    0.43921    1.000
    C241     C        0.73916    0.96156    0.43792    1.000
    C242     C        0.71055    0.95191    0.45523    1.000
    C243     C        0.71783    0.97856    0.47205    1.000
    C244     C        0.75469    0.01381    0.47404    1.000
    C245     C        0.78448    0.02257    0.45841    1.000
    C246     C        0.82557    0.05878    0.46059    1.000
    H220     H        0.84490    0.05330    0.45390    1.000
    H221     H        0.83180    0.06500    0.47610    1.000
    H222     H        0.82610    0.08100    0.45310    1.000
    C247     C        0.72937    0.93442    0.41906    1.000
    H223     H        0.71130    0.93730    0.40920    1.000
    H224     H        0.71700    0.90740    0.42440    1.000
    H225     H        0.75340    0.94070    0.41110    1.000
    C248     C        0.68430    0.96924    0.48889    1.000
    H226     H        0.66010    0.96240    0.48100    1.000
    H227     H        0.69170    0.99230    0.49810    1.000
    H228     H        0.68020    0.94720    0.49810    1.000
    C249     C        0.67167    0.91376    0.45386    1.000
    H229     H        0.67370    0.89500    0.44400    1.000
    H230     H        0.66320    0.90160    0.46850    1.000
    C250     C        0.60481    0.89870    0.44724    1.000
    C251     C        0.57882    0.91320    0.44366    1.000
    H231     H        0.58890    0.94030    0.44090    1.000
    C252     C        0.53777    0.88729    0.44424    1.000
    H232     H        0.52040    0.89700    0.44180    1.000
    C253     C        0.52271    0.84687    0.44839    1.000
    H233     H        0.49520    0.82950    0.44880    1.000
    C254     C        0.54869    0.83235    0.45196    1.000
    C255     C        0.58974    0.85826    0.45138    1.000
    H234     H        0.60710    0.84850    0.45380    1.000
    C256     C        0.53270    0.79031    0.45607    1.000
    C257     C        0.75848    0.04341    0.49129    1.000
    H235     H        0.78350    0.06800    0.48910    1.000
    H236     H        0.73700    0.04920    0.48930    1.000
    C258     C        0.74281    0.04479    0.52925    1.000
    C259     C        0.73203    0.02387    0.54931    1.000
    H237     H        0.73480    0.00150    0.55110    1.000
    C260     C        0.71713    0.03643    0.56671    1.000
    H238     H        0.70990    0.02240    0.58010    1.000
    C261     C        0.71303    0.06994    0.56406    1.000
    H239     H        0.70310    0.07840    0.57570    1.000
    C262     C        0.72381    0.09086    0.54400    1.000
    C263     C        0.73871    0.07830    0.52660    1.000
    H240     H        0.74590    0.09230    0.51320    1.000
    C264     C        0.72009    0.12694    0.54130    1.000
    Mn10     Mn       0.83550    0.17851    0.36098    1.000
    Mn11     Mn       0.86002    0.11529    0.32848    1.000
    Mn12     Mn       0.86006    0.04573    0.29248    1.000
    O61      O        0.78859    0.12540    0.38050    1.000
    O62      O        0.81845    0.10863    0.35647    1.000
    O63      O        0.72498    0.95775    0.35037    1.000
    O64      O        0.65512    0.85818    0.26826    1.000
    O65      O        0.68697    0.84570    0.18854    1.000
    O66      O        0.62974    0.82270    0.17037    1.000
    O67      O        0.74489    0.80920    0.33659    1.000
    O68      O        0.83464    0.75130    0.34100    1.000
    O69      O        0.79616    0.69241    0.35650    1.000
    O70      O        0.86890    0.07078    0.34750    1.000
    O71      O        0.87445    0.02978    0.32491    1.000
    O72      O        0.82461    0.99084    0.41935    1.000
    O73      O        0.64355    0.92556    0.44490    1.000
    O74      O        0.55679    0.77907    0.46240    1.000
    O75      O        0.49725    0.76463    0.45256    1.000
    O76      O        0.75721    0.02992    0.51330    1.000
    O77      O        0.72572    0.14288    0.52263    1.000
    O78      O        0.71137    0.14071    0.55833    1.000
    O79      O        0.83010    0.22690    0.37130    1.000
    O80      O        0.83540    0.23530    0.36840    1.000
    H241     H        0.80880    0.22980    0.37090    1.000
    H242     H        0.85140    0.24860    0.38120    1.000
    H243     H        0.86210    0.25720    0.36750    1.000
    H244     H        0.81940    0.23830    0.35720    1.000
    H245     H        0.80280    0.21880    0.37410    1.000
    H246     H        0.84500    0.23670    0.38490    1.000
    H247     H        0.85620    0.24980    0.37210    1.000
    H248     H        0.81400    0.23200    0.36130    1.000
    C265     C        0.45797    0.43179    0.70329    1.000
    C266     C        0.42784    0.39012    0.70672    1.000
    C267     C        0.39565    0.38024    0.72109    1.000
    H249     H        0.39587    0.40003    0.73003    1.000
    C268     C        0.36420    0.34253    0.72224    1.000
    H250     H        0.34297    0.33643    0.73183    1.000
    C269     C        0.36397    0.31419    0.70949    1.000
    H251     H        0.34227    0.28843    0.71013    1.000
    C270     C        0.39595    0.32249    0.69499    1.000
    C271     C        0.42781    0.36063    0.69365    1.000
    H252     H        0.44907    0.36653    0.68413    1.000
    C272     C        0.42208    0.29528    0.66819    1.000
    H253     H        0.44697    0.30343    0.67603    1.000
    H254     H        0.42667    0.31533    0.65703    1.000
    C273     C        0.40709    0.25481    0.65722    1.000
    C274     C        0.40498    0.22352    0.66964    1.000
    C275     C        0.38642    0.18592    0.66042    1.000
    C276     C        0.37377    0.17990    0.63826    1.000
    C277     C        0.37737    0.21194    0.62604    1.000
    C278     C        0.39266    0.25030    0.63619    1.000
    C279     C        0.39231    0.28342    0.62291    1.000
    H255     H        0.38607    0.29933    0.63263    1.000
    H256     H        0.37257    0.27203    0.61133    1.000
    H257     H        0.41817    0.30003    0.61633    1.000
    C280     C        0.42306    0.22965    0.69303    1.000
    H258     H        0.44947    0.25253    0.69303    1.000
    H259     H        0.42437    0.20643    0.69733    1.000
    H260     H        0.40667    0.23383    0.70343    1.000
    C281     C        0.35569    0.13919    0.62812    1.000
    H261     H        0.36397    0.12333    0.63643    1.000
    H262     H        0.36437    0.14133    0.61293    1.000
    H263     H        0.32707    0.12673    0.62853    1.000
    C282     C        0.37926    0.15025    0.67398    1.000
    H264     H        0.37807    0.15543    0.68973    1.000
    H265     H        0.35407    0.12723    0.66973    1.000
    C283     C        0.40791    0.10958    0.68047    1.000
    C284     C        0.37555    0.08424    0.69377    1.000
    H266     H        0.35497    0.08963    0.69623    1.000
    C285     C        0.37393    0.05076    0.70344    1.000
    H267     H        0.35227    0.03383    0.71233    1.000
    C286     C        0.40467    0.04261    0.69980    1.000
    H268     H        0.40357    0.02023    0.70623    1.000
    C287     C        0.43704    0.06796    0.68650    1.000
    C288     C        0.43866    0.10144    0.67683    1.000
    H269     H        0.46027    0.11833    0.66793    1.000
    C289     C        0.46951    0.05927    0.68267    1.000
    C290     C        0.36255    0.20548    0.60206    1.000
    H270     H        0.37647    0.23043    0.59393    1.000
    H271     H        0.36807    0.18623    0.59483    1.000
    C291     C        0.30212    0.17842    0.58193    1.000
    C292     C        0.26125    0.16398    0.58279    1.000
    H272     H        0.24937    0.16393    0.59633    1.000
    C293     C        0.23824    0.14979    0.56387    1.000
    H273     H        0.21077    0.13943    0.56463    1.000
    C294     C        0.25633    0.15097    0.54339    1.000
    H274     H        0.24107    0.14243    0.53043    1.000
    C295     C        0.29678    0.16477    0.54255    1.000
    C296     C        0.31939    0.17936    0.56197    1.000
    H275     H        0.34687    0.18993    0.56123    1.000
    C297     C        0.31689    0.16660    0.52088    1.000
    C298     C        0.53673    0.37424    0.67675    1.000
    C299     C        0.53300    0.34807    0.69594    1.000
    C300     C        0.54605    0.32054    0.69433    1.000
    H276     H        0.55867    0.31923    0.68133    1.000
    C301     C        0.54032    0.29502    0.71208    1.000
    H277     H        0.54907    0.27663    0.71103    1.000
    C302     C        0.52153    0.29702    0.73145    1.000
    H278     H        0.51767    0.27993    0.74333    1.000
    C303     C        0.50848    0.32455    0.73306    1.000
    C304     C        0.51421    0.35007    0.71530    1.000
    H279     H        0.50547    0.36843    0.71633    1.000
    C305     C        0.46999    0.34499    0.75270    1.000
    H280     H        0.45517    0.34003    0.73883    1.000
    H281     H        0.48837    0.37343    0.75393    1.000
    C306     C        0.44118    0.33059    0.77254    1.000
    C307     C        0.40583    0.29489    0.77125    1.000
    C308     C        0.37722    0.28524    0.78856    1.000
    C309     C        0.38450    0.31189    0.80538    1.000
    C310     C        0.42136    0.34714    0.80737    1.000
    C311     C        0.45115    0.35590    0.79174    1.000
    C312     C        0.49224    0.39211    0.79392    1.000
    H282     H        0.51157    0.38663    0.78723    1.000
    H283     H        0.49847    0.39833    0.80943    1.000
    H284     H        0.49277    0.41433    0.78643    1.000
    C313     C        0.39604    0.26775    0.75239    1.000
    H285     H        0.37797    0.27063    0.74253    1.000
    H286     H        0.38367    0.24073    0.75773    1.000
    H287     H        0.42007    0.27403    0.74443    1.000
    C314     C        0.35097    0.30257    0.82222    1.000
    H288     H        0.32677    0.29573    0.81433    1.000
    H289     H        0.35837    0.32563    0.83143    1.000
    H290     H        0.34687    0.28053    0.83143    1.000
    C315     C        0.33834    0.24709    0.78719    1.000
    H291     H        0.34037    0.22833    0.77733    1.000
    H292     H        0.32987    0.23493    0.80183    1.000
    C316     C        0.27148    0.23203    0.78057    1.000
    C317     C        0.24549    0.24653    0.77699    1.000
    H293     H        0.25557    0.27363    0.77423    1.000
    C318     C        0.20444    0.22062    0.77757    1.000
    H294     H        0.18707    0.23033    0.77513    1.000
    C319     C        0.18938    0.18020    0.78172    1.000
    H295     H        0.16187    0.16283    0.78213    1.000
    C320     C        0.21536    0.16568    0.78529    1.000
    C321     C        0.25641    0.19159    0.78471    1.000
    H296     H        0.27377    0.18183    0.78713    1.000
    C322     C        0.19937    0.12364    0.78940    1.000
    C323     C        0.42515    0.37674    0.82462    1.000
    H297     H        0.45017    0.40133    0.82243    1.000
    H298     H        0.40367    0.38253    0.82263    1.000
    C324     C        0.40948    0.37812    0.86258    1.000
    C325     C        0.39870    0.35720    0.88264    1.000
    H299     H        0.40147    0.33483    0.88443    1.000
    C326     C        0.38380    0.36976    0.90004    1.000
    H300     H        0.37657    0.35573    0.91343    1.000
    C327     C        0.37970    0.40327    0.89739    1.000
    H301     H        0.36977    0.41173    0.90903    1.000
    C328     C        0.39048    0.42419    0.87733    1.000
    C329     C        0.40538    0.41163    0.85993    1.000
    H302     H        0.41257    0.42563    0.84653    1.000
    C330     C        0.38676    0.46027    0.87463    1.000
    Mn13     Mn       0.50216    0.51185    0.69431    1.000
    Mn14     Mn       0.52669    0.44863    0.66182    1.000
    Mn15     Mn       0.52672    0.37906    0.62582    1.000
    O81      O        0.45526    0.45873    0.71383    1.000
    O82      O        0.48512    0.44196    0.68980    1.000
    O83      O        0.39165    0.29108    0.68370    1.000
    O84      O        0.32179    0.19151    0.60159    1.000
    O85      O        0.35364    0.17903    0.52187    1.000
    O86      O        0.29641    0.15603    0.50370    1.000
    O87      O        0.41156    0.14253    0.66992    1.000
    O88      O        0.50131    0.08463    0.67433    1.000
    O89      O        0.46283    0.02574    0.68983    1.000
    O90      O        0.53557    0.40411    0.68083    1.000
    O91      O        0.54112    0.36311    0.65824    1.000
    O92      O        0.49128    0.32417    0.75268    1.000
    O93      O        0.31022    0.25889    0.77823    1.000
    O94      O        0.22346    0.11240    0.79573    1.000
    O95      O        0.16392    0.09796    0.78589    1.000
    O96      O        0.42388    0.36325    0.84663    1.000
    O97      O        0.39239    0.47621    0.85596    1.000
    O98      O        0.37804    0.47404    0.89166    1.000
    O99      O        0.49677    0.56023    0.70463    1.000
    O100     O        0.50207    0.56863    0.70173    1.000
    H303     H        0.47547    0.56313    0.70423    1.000
    H304     H        0.51807    0.58193    0.71453    1.000
    H305     H        0.52877    0.59053    0.70083    1.000
    H306     H        0.48607    0.57163    0.69053    1.000
    H307     H        0.46947    0.55213    0.70743    1.000
    H308     H        0.51167    0.57003    0.71823    1.000
    H309     H        0.52287    0.58313    0.70543    1.000
    H310     H        0.48067    0.56533    0.69463    1.000
    C331     C        0.12463    0.76513    0.03663    1.000
    C332     C        0.09450    0.72346    0.04006    1.000
    C333     C        0.06231    0.71358    0.05443    1.000
    H311     H        0.06253    0.73337    0.06337    1.000
    C334     C        0.03086    0.67587    0.05558    1.000
    H312     H        0.00963    0.66977    0.06517    1.000
    C335     C        0.03063    0.64753    0.04283    1.000
    H313     H        0.00893    0.62177    0.04347    1.000
    C336     C        0.06261    0.65583    0.02833    1.000
    C337     C        0.09447    0.69397    0.02699    1.000
    H314     H        0.11573    0.69987    0.01747    1.000
    C338     C        0.08874    0.62862    0.00153    1.000
    H315     H        0.11363    0.63677    0.00937    1.000
    H316     H        0.09333    0.64867    0.99037    1.000
    C339     C        0.07375    0.58815    0.99056    1.000
    C340     C        0.07164    0.55686    0.00298    1.000
    C341     C        0.05308    0.51926    0.99376    1.000
    C342     C        0.04043    0.51324    0.97160    1.000
    C343     C        0.04403    0.54528    0.95938    1.000
    C344     C        0.05932    0.58364    0.96953    1.000
    C345     C        0.05897    0.61676    0.95625    1.000
    H317     H        0.05273    0.63267    0.96597    1.000
    H318     H        0.03923    0.60537    0.94467    1.000
    H319     H        0.08483    0.63337    0.94967    1.000
    C346     C        0.08972    0.56299    0.02637    1.000
    H320     H        0.11613    0.58587    0.02637    1.000
    H321     H        0.09103    0.53977    0.03067    1.000
    H322     H        0.07333    0.56717    0.03677    1.000
    C347     C        0.02235    0.47253    0.96146    1.000
    H323     H        0.03063    0.45667    0.96977    1.000
    H324     H        0.03103    0.47467    0.94627    1.000
    H325     H        0.99373    0.46007    0.96187    1.000
    C348     C        0.04592    0.48359    0.00732    1.000
    H326     H        0.04473    0.48877    0.02307    1.000
    H327     H        0.02073    0.46057    0.00307    1.000
    C349     C        0.07457    0.44292    0.01381    1.000
    C350     C        0.04221    0.41758    0.02711    1.000
    H328     H        0.02163    0.42297    0.02957    1.000
    C351     C        0.04059    0.38410    0.03678    1.000
    H329     H        0.01893    0.36717    0.04567    1.000
    C352     C        0.07133    0.37595    0.03314    1.000
    H330     H        0.07023    0.35357    0.03957    1.000
    C353     C        0.10370    0.40130    0.01984    1.000
    C354     C        0.10532    0.43478    0.01017    1.000
    H331     H        0.12693    0.45167    0.00127    1.000
    C355     C        0.13617    0.39261    0.01601    1.000
    C356     C        0.02921    0.53882    0.93540    1.000
    H332     H        0.04313    0.56377    0.92727    1.000
    H333     H        0.03473    0.51957    0.92817    1.000
    C357     C        0.96878    0.51176    0.91527    1.000
    C358     C        0.92791    0.49732    0.91613    1.000
    H334     H        0.91603    0.49727    0.92967    1.000
    C359     C        0.90490    0.48313    0.89721    1.000
    H335     H        0.87743    0.47277    0.89797    1.000
    C360     C        0.92299    0.48431    0.87673    1.000
    H336     H        0.90773    0.47577    0.86377    1.000
    C361     C        0.96344    0.49811    0.87589    1.000
    C362     C        0.98605    0.51270    0.89531    1.000
    H337     H        0.01353    0.52327    0.89457    1.000
    C363     C        0.98355    0.49994    0.85422    1.000
    C364     C        0.20339    0.70758    0.01009    1.000
    C365     C        0.19966    0.68141    0.02928    1.000
    C366     C        0.21271    0.65388    0.02767    1.000
    H338     H        0.22533    0.65257    0.01467    1.000
    C367     C        0.20698    0.62836    0.04542    1.000
    H339     H        0.21573    0.60997    0.04437    1.000
    C368     C        0.18819    0.63036    0.06479    1.000
    H340     H        0.18433    0.61327    0.07667    1.000
    C369     C        0.17514    0.65789    0.06640    1.000
    C370     C        0.18087    0.68341    0.04864    1.000
    H341     H        0.17213    0.70177    0.04967    1.000
    C371     C        0.13665    0.67833    0.08604    1.000
    H342     H        0.12183    0.67337    0.07217    1.000
    H343     H        0.15503    0.70677    0.08727    1.000
    C372     C        0.10784    0.66393    0.10588    1.000
    C373     C        0.07249    0.62823    0.10459    1.000
    C374     C        0.04388    0.61858    0.12190    1.000
    C375     C        0.05116    0.64523    0.13872    1.000
    C376     C        0.08802    0.68048    0.14071    1.000
    C377     C        0.11781    0.68924    0.12508    1.000
    C378     C        0.15890    0.72545    0.12726    1.000
    H344     H        0.17823    0.71997    0.12057    1.000
    H345     H        0.16513    0.73167    0.14277    1.000
    H346     H        0.15943    0.74767    0.11977    1.000
    C379     C        0.06270    0.60109    0.08573    1.000
    H347     H        0.04463    0.60397    0.07587    1.000
    H348     H        0.05033    0.57407    0.09107    1.000
    H349     H        0.08673    0.60737    0.07777    1.000
    C380     C        0.01763    0.63591    0.15556    1.000
    H350     H        0.99343    0.62907    0.14767    1.000
    H351     H        0.02503    0.65897    0.16477    1.000
    H352     H        0.01353    0.61387    0.16477    1.000
    C381     C        0.00500    0.58043    0.12053    1.000
    H353     H        0.00703    0.56167    0.11067    1.000
    H354     H        0.99653    0.56827    0.13517    1.000
    C382     C        0.93814    0.56537    0.11391    1.000
    C383     C        0.91215    0.57987    0.11033    1.000
    H355     H        0.92223    0.60697    0.10757    1.000
    C384     C        0.87110    0.55396    0.11091    1.000
    H356     H        0.85373    0.56367    0.10847    1.000
    C385     C        0.85604    0.51354    0.11506    1.000
    H357     H        0.82853    0.49617    0.11547    1.000
    C386     C        0.88202    0.49902    0.11863    1.000
    C387     C        0.92307    0.52493    0.11805    1.000
    H358     H        0.94043    0.51517    0.12047    1.000
    C388     C        0.86603    0.45698    0.12274    1.000
    C389     C        0.09181    0.71008    0.15796    1.000
    H359     H        0.11683    0.73467    0.15577    1.000
    H360     H        0.07033    0.71587    0.15597    1.000
    C390     C        0.07614    0.71146    0.19592    1.000
    C391     C        0.06536    0.69054    0.21598    1.000
    H361     H        0.06813    0.66817    0.21777    1.000
    C392     C        0.05046    0.70310    0.23338    1.000
    H362     H        0.04323    0.68907    0.24677    1.000
    C393     C        0.04636    0.73661    0.23073    1.000
    H363     H        0.03643    0.74507    0.24237    1.000
    C394     C        0.05714    0.75753    0.21067    1.000
    C395     C        0.07204    0.74497    0.19327    1.000
    H364     H        0.07923    0.75897    0.17987    1.000
    C396     C        0.05342    0.79361    0.20797    1.000
    Mn16     Mn       0.16883    0.84518    0.02765    1.000
    Mn17     Mn       0.19335    0.78196    0.99515    1.000
    Mn18     Mn       0.19339    0.71239    0.95915    1.000
    O101     O        0.12192    0.79207    0.04717    1.000
    O102     O        0.15178    0.77530    0.02314    1.000
    O103     O        0.05831    0.62442    0.01704    1.000
    O104     O        0.98845    0.52485    0.93493    1.000
    O105     O        0.02030    0.51237    0.85521    1.000
    O106     O        0.96307    0.48937    0.83704    1.000
    O107     O        0.07822    0.47587    0.00326    1.000
    O108     O        0.16797    0.41797    0.00767    1.000
    O109     O        0.12949    0.35908    0.02317    1.000
    O110     O        0.20223    0.73745    0.01417    1.000
    O111     O        0.20778    0.69645    0.99158    1.000
    O112     O        0.15794    0.65751    0.08602    1.000
    O113     O        0.97688    0.59223    0.11157    1.000
    O114     O        0.89012    0.44574    0.12907    1.000
    O115     O        0.83058    0.43130    0.11923    1.000
    O116     O        0.09054    0.69659    0.17997    1.000
    O117     O        0.05905    0.80955    0.18930    1.000
    O118     O        0.04470    0.80738    0.22500    1.000
    O119     O        0.16343    0.89357    0.03797    1.000
    O120     O        0.16873    0.90197    0.03507    1.000
    H365     H        0.14213    0.89647    0.03757    1.000
    H366     H        0.18473    0.91527    0.04787    1.000
    H367     H        0.19543    0.92387    0.03417    1.000
    H368     H        0.15273    0.90497    0.02387    1.000
    H369     H        0.13613    0.88547    0.04077    1.000
    H370     H        0.17833    0.90337    0.05157    1.000
    H371     H        0.18953    0.91647    0.03877    1.000
    H372     H        0.14733    0.89867    0.02797    1.000
    C397     C        0.90154    0.69284    0.36996    1.000
    C398     C        0.94321    0.70438    0.37339    1.000
    C399     C        0.95309    0.68207    0.38776    1.000
    H373     H        0.93330    0.66250    0.39670    1.000
    C400     C        0.99080    0.68833    0.38891    1.000
    H374     H        0.99690    0.67320    0.39850    1.000
    C401     C        0.01914    0.71644    0.37616    1.000
    H375     H        0.04490    0.72050    0.37680    1.000
    C402     C        0.01084    0.74012    0.36166    1.000
    C403     C        0.97270    0.73384    0.36032    1.000
    H376     H        0.96680    0.74920    0.35080    1.000
    C404     C        0.03805    0.79346    0.33486    1.000
    H377     H        0.02990    0.81020    0.34270    1.000
    H378     H        0.01800    0.77800    0.32370    1.000
    C405     C        0.07852    0.81894    0.32389    1.000
    C406     C        0.10981    0.84812    0.33631    1.000
    C407     C        0.14741    0.86716    0.32709    1.000
    C408     C        0.15343    0.86053    0.30493    1.000
    C409     C        0.12139    0.83209    0.29271    1.000
    C410     C        0.08303    0.80902    0.30286    1.000
    C411     C        0.04991    0.77555    0.28958    1.000
    H379     H        0.03400    0.75340    0.29930    1.000
    H380     H        0.06130    0.76720    0.27800    1.000
    H381     H        0.03330    0.78480    0.28300    1.000
    C412     C        0.10368    0.86007    0.35970    1.000
    H382     H        0.08080    0.86360    0.35970    1.000
    H383     H        0.12690    0.88460    0.36400    1.000
    H384     H        0.09950    0.83950    0.37010    1.000
    C413     C        0.19414    0.88316    0.29479    1.000
    H385     H        0.21000    0.90730    0.30310    1.000
    H386     H        0.19200    0.88970    0.27960    1.000
    H387     H        0.20660    0.86700    0.29520    1.000
    C414     C        0.18308    0.89567    0.34065    1.000
    H388     H        0.17790    0.88930    0.35640    1.000
    H389     H        0.20610    0.89350    0.33640    1.000
    C415     C        0.22375    0.96499    0.34714    1.000
    C416     C        0.24909    0.95797    0.36044    1.000
    H390     H        0.24370    0.93200    0.36290    1.000
    C417     C        0.28257    0.98983    0.37011    1.000
    H391     H        0.29950    0.98510    0.37900    1.000
    C418     C        0.29072    0.02872    0.36647    1.000
    H392     H        0.31310    0.05000    0.37290    1.000
    C419     C        0.26537    0.03574    0.35317    1.000
    C420     C        0.23189    0.00388    0.34350    1.000
    H393     H        0.21500    0.00860    0.33460    1.000
    C421     C        0.27406    0.07690    0.34934    1.000
    C422     C        0.12785    0.82373    0.26873    1.000
    H394     H        0.10290    0.81270    0.26060    1.000
    H395     H        0.14710    0.84850    0.26150    1.000
    C423     C        0.15491    0.79036    0.24860    1.000
    C424     C        0.16935    0.76393    0.24946    1.000
    H396     H        0.16940    0.75210    0.26300    1.000
    C425     C        0.18354    0.75511    0.23054    1.000
    H397     H        0.19390    0.73800    0.23130    1.000
    C426     C        0.18236    0.77202    0.21006    1.000
    H398     H        0.19090    0.76530    0.19710    1.000
    C427     C        0.16856    0.79867    0.20922    1.000
    C428     C        0.15397    0.80669    0.22864    1.000
    H399     H        0.14340    0.82360    0.22790    1.000
    C429     C        0.16673    0.81695    0.18755    1.000
    C430     C        0.95909    0.82915    0.34342    1.000
    C431     C        0.98526    0.85159    0.36261    1.000
    C432     C        0.01279    0.89217    0.36100    1.000
    H400     H        0.01410    0.90610    0.34800    1.000
    C433     C        0.03831    0.91196    0.37875    1.000
    H401     H        0.05670    0.93910    0.37770    1.000
    C434     C        0.03631    0.89117    0.39812    1.000
    H402     H        0.05340    0.90440    0.41000    1.000
    C435     C        0.00878    0.85059    0.39973    1.000
    C436     C        0.98326    0.83080    0.38197    1.000
    H403     H        0.96490    0.80370    0.38300    1.000
    C437     C        0.98834    0.79166    0.41937    1.000
    H404     H        0.99330    0.78180    0.40550    1.000
    H405     H        0.95990    0.78160    0.42060    1.000
    C438     C        0.00274    0.77725    0.43921    1.000
    C439     C        0.03844    0.77760    0.43792    1.000
    C440     C        0.04809    0.75864    0.45523    1.000
    C441     C        0.02144    0.73927    0.47205    1.000
    C442     C        0.98619    0.74088    0.47404    1.000
    C443     C        0.97743    0.76191    0.45841    1.000
    C444     C        0.94122    0.76679    0.46059    1.000
    H406     H        0.94670    0.79160    0.45390    1.000
    H407     H        0.93500    0.76680    0.47610    1.000
    H408     H        0.91900    0.74510    0.45310    1.000
    C445     C        0.06558    0.79495    0.41906    1.000
    H409     H        0.06270    0.77400    0.40920    1.000
    H410     H        0.09260    0.80960    0.42440    1.000
    H411     H        0.05930    0.81270    0.41110    1.000
    C446     C        0.03076    0.71506    0.48889    1.000
    H412     H        0.03760    0.69770    0.48100    1.000
    H413     H        0.00770    0.69940    0.49810    1.000
    H414     H        0.05280    0.73300    0.49810    1.000
    C447     C        0.08624    0.75791    0.45386    1.000
    H415     H        0.10500    0.77870    0.44400    1.000
    H416     H        0.09840    0.76160    0.46850    1.000
    C448     C        0.10130    0.70611    0.44724    1.000
    C449     C        0.08680    0.66562    0.44366    1.000
    H417     H        0.05970    0.64860    0.44090    1.000
    C450     C        0.11271    0.65048    0.44424    1.000
    H418     H        0.10300    0.62340    0.44180    1.000
    C451     C        0.15313    0.67584    0.44839    1.000
    H419     H        0.17050    0.66570    0.44880    1.000
    C452     C        0.16765    0.71634    0.45196    1.000
    C453     C        0.14174    0.73148    0.45138    1.000
    H420     H        0.15150    0.75860    0.45380    1.000
    C454     C        0.20969    0.74239    0.45607    1.000
    C455     C        0.95659    0.71507    0.49129    1.000
    H421     H        0.93200    0.71550    0.48910    1.000
    H422     H        0.95080    0.68780    0.48930    1.000
    C456     C        0.95521    0.69802    0.52925    1.000
    C457     C        0.97613    0.70816    0.54931    1.000
    H423     H        0.99850    0.73330    0.55110    1.000
    C458     C        0.96357    0.68070    0.56671    1.000
    H424     H        0.97760    0.68750    0.58010    1.000
    C459     C        0.93006    0.64309    0.56406    1.000
    H425     H        0.92160    0.62470    0.57570    1.000
    C460     C        0.90914    0.63295    0.54400    1.000
    C461     C        0.92170    0.66041    0.52660    1.000
    H426     H        0.90770    0.65360    0.51320    1.000
    C462     C        0.87306    0.59315    0.54130    1.000
    Mn19     Mn       0.82149    0.65698    0.36098    1.000
    Mn20     Mn       0.88471    0.74473    0.32848    1.000
    Mn21     Mn       0.95427    0.81433    0.29248    1.000
    O121     O        0.87460    0.66319    0.38050    1.000
    O122     O        0.89137    0.70982    0.35647    1.000
    O123     O        0.04225    0.76723    0.35037    1.000
    O124     O        0.14182    0.79694    0.26826    1.000
    O125     O        0.15430    0.84127    0.18854    1.000
    O126     O        0.17730    0.80704    0.17037    1.000
    O127     O        0.19080    0.93569    0.33659    1.000
    O128     O        0.24870    0.08334    0.34100    1.000
    O129     O        0.30759    0.10375    0.35650    1.000
    O130     O        0.92922    0.79812    0.34750    1.000
    O131     O        0.97022    0.84467    0.32491    1.000
    O132     O        0.00916    0.83377    0.41935    1.000
    O133     O        0.07444    0.71799    0.44490    1.000
    O134     O        0.22093    0.77772    0.46240    1.000
    O135     O        0.23537    0.73262    0.45256    1.000
    O136     O        0.97008    0.72729    0.51330    1.000
    O137     O        0.85712    0.58284    0.52263    1.000
    O138     O        0.85929    0.57066    0.55833    1.000
    O139     O        0.77310    0.60320    0.37130    1.000
    O140     O        0.76470    0.60010    0.36840    1.000
    H427     H        0.77020    0.57900    0.37090    1.000
    H428     H        0.75140    0.60280    0.38120    1.000
    H429     H        0.74280    0.60490    0.36750    1.000
    H430     H        0.76170    0.58110    0.35720    1.000
    H431     H        0.78120    0.58400    0.37410    1.000
    H432     H        0.76330    0.60830    0.38490    1.000
    H433     H        0.75020    0.60640    0.37210    1.000
    H434     H        0.76800    0.58200    0.36130    1.000
    C463     C        0.56821    0.02617    0.70329    1.000
    C464     C        0.60988    0.03771    0.70672    1.000
    C465     C        0.61976    0.01540    0.72109    1.000
    H435     H        0.59997    0.99583    0.73003    1.000
    C466     C        0.65747    0.02166    0.72224    1.000
    H436     H        0.66357    0.00653    0.73183    1.000
    C467     C        0.68581    0.04977    0.70949    1.000
    H437     H        0.71157    0.05383    0.71013    1.000
    C468     C        0.67751    0.07345    0.69499    1.000
    C469     C        0.63937    0.06717    0.69365    1.000
    H438     H        0.63347    0.08253    0.68413    1.000
    C470     C        0.70472    0.12679    0.66819    1.000
    H439     H        0.69657    0.14353    0.67603    1.000
    H440     H        0.68467    0.11133    0.65703    1.000
    C471     C        0.74519    0.15227    0.65722    1.000
    C472     C        0.77648    0.18145    0.66964    1.000
    C473     C        0.81408    0.20049    0.66042    1.000
    C474     C        0.82010    0.19386    0.63826    1.000
    C475     C        0.78806    0.16542    0.62604    1.000
    C476     C        0.74970    0.14235    0.63619    1.000
    C477     C        0.71658    0.10888    0.62291    1.000
    H441     H        0.70067    0.08673    0.63263    1.000
    H442     H        0.72797    0.10053    0.61133    1.000
    H443     H        0.69997    0.11813    0.61633    1.000
    C478     C        0.77035    0.19340    0.69303    1.000
    H444     H        0.74747    0.19693    0.69303    1.000
    H445     H        0.79357    0.21793    0.69733    1.000
    H446     H        0.76617    0.17283    0.70343    1.000
    C479     C        0.86081    0.21649    0.62812    1.000
    H447     H        0.87667    0.24063    0.63643    1.000
    H448     H        0.85867    0.22303    0.61293    1.000
    H449     H        0.87327    0.20033    0.62853    1.000
    C480     C        0.84975    0.22900    0.67398    1.000
    H450     H        0.84457    0.22263    0.68973    1.000
    H451     H        0.87277    0.22683    0.66973    1.000
    C481     C        0.89042    0.29832    0.68047    1.000
    C482     C        0.91576    0.29130    0.69377    1.000
    H452     H        0.91037    0.26533    0.69623    1.000
    C483     C        0.94924    0.32316    0.70344    1.000
    H453     H        0.96617    0.31843    0.71233    1.000
    C484     C        0.95739    0.36205    0.69980    1.000
    H454     H        0.97977    0.38333    0.70623    1.000
    C485     C        0.93204    0.36907    0.68650    1.000
    C486     C        0.89856    0.33721    0.67683    1.000
    H455     H        0.88167    0.34193    0.66793    1.000
    C487     C        0.94073    0.41023    0.68267    1.000
    C488     C        0.79452    0.15706    0.60206    1.000
    H456     H        0.76957    0.14603    0.59393    1.000
    H457     H        0.81377    0.18183    0.59483    1.000
    C489     C        0.82158    0.12369    0.58193    1.000
    C490     C        0.83602    0.09726    0.58279    1.000
    H458     H        0.83607    0.08543    0.59633    1.000
    C491     C        0.85021    0.08844    0.56387    1.000
    H459     H        0.86057    0.07133    0.56463    1.000
    C492     C        0.84903    0.10535    0.54339    1.000
    H460     H        0.85757    0.09863    0.53043    1.000
    C493     C        0.83523    0.13200    0.54255    1.000
    C494     C        0.82064    0.14002    0.56197    1.000
    H461     H        0.81007    0.15693    0.56123    1.000
    C495     C        0.83340    0.15028    0.52088    1.000
    C496     C        0.62576    0.16248    0.67675    1.000
    C497     C        0.65193    0.18492    0.69594    1.000
    C498     C        0.67946    0.22550    0.69433    1.000
    H462     H        0.68077    0.23943    0.68133    1.000
    C499     C        0.70498    0.24529    0.71208    1.000
    H463     H        0.72337    0.27243    0.71103    1.000
    C500     C        0.70298    0.22450    0.73145    1.000
    H464     H        0.72007    0.23773    0.74333    1.000
    C501     C        0.67545    0.18392    0.73306    1.000
    C502     C        0.64993    0.16413    0.71530    1.000
    H465     H        0.63157    0.13703    0.71633    1.000
    C503     C        0.65501    0.12499    0.75270    1.000
    H466     H        0.65997    0.11513    0.73883    1.000
    H467     H        0.62657    0.11493    0.75393    1.000
    C504     C        0.66941    0.11058    0.77254    1.000
    C505     C        0.70511    0.11093    0.77125    1.000
    C506     C        0.71476    0.09197    0.78856    1.000
    C507     C        0.68811    0.07260    0.80538    1.000
    C508     C        0.65286    0.07421    0.80737    1.000
    C509     C        0.64410    0.09524    0.79174    1.000
    C510     C        0.60789    0.10012    0.79392    1.000
    H468     H        0.61337    0.12493    0.78723    1.000
    H469     H        0.60167    0.10013    0.80943    1.000
    H470     H        0.58567    0.07843    0.78643    1.000
    C511     C        0.73225    0.12828    0.75239    1.000
    H471     H        0.72937    0.10733    0.74253    1.000
    H472     H        0.75927    0.14293    0.75773    1.000
    H473     H        0.72597    0.14603    0.74443    1.000
    C512     C        0.69743    0.04839    0.82222    1.000
    H474     H        0.70427    0.03103    0.81433    1.000
    H475     H        0.67437    0.03273    0.83143    1.000
    H476     H        0.71947    0.06633    0.83143    1.000
    C513     C        0.75291    0.09124    0.78719    1.000
    H477     H        0.77167    0.11203    0.77733    1.000
    H478     H        0.76507    0.09493    0.80183    1.000
    C514     C        0.76797    0.03944    0.78057    1.000
    C515     C        0.75347    0.99895    0.77699    1.000
    H479     H        0.72637    0.98193    0.77423    1.000
    C516     C        0.77938    0.98381    0.77757    1.000
    H480     H        0.76967    0.95673    0.77513    1.000
    C517     C        0.81980    0.00917    0.78172    1.000
    H481     H        0.83717    0.99903    0.78213    1.000
    C518     C        0.83432    0.04967    0.78529    1.000
    C519     C        0.80841    0.06481    0.78471    1.000
    H482     H        0.81817    0.09193    0.78713    1.000
    C520     C        0.87636    0.07572    0.78940    1.000
    C521     C        0.62326    0.04840    0.82462    1.000
    H483     H        0.59867    0.04883    0.82243    1.000
    H484     H        0.61747    0.02113    0.82263    1.000
    C522     C        0.62188    0.03135    0.86258    1.000
    C523     C        0.64280    0.04149    0.88264    1.000
    H485     H        0.66517    0.06663    0.88443    1.000
    C524     C        0.63024    0.01403    0.90004    1.000
    H486     H        0.64427    0.02083    0.91343    1.000
    C525     C        0.59673    0.97642    0.89739    1.000
    H487     H        0.58827    0.95803    0.90903    1.000
    C526     C        0.57581    0.96628    0.87733    1.000
    C527     C        0.58837    0.99374    0.85993    1.000
    H488     H        0.57437    0.98693    0.84653    1.000
    C528     C        0.53973    0.92648    0.87463    1.000
    Mn22     Mn       0.48815    0.99032    0.69431    1.000
    Mn23     Mn       0.55137    0.07806    0.66182    1.000
    Mn24     Mn       0.62094    0.14766    0.62582    1.000
    O141     O        0.54127    0.99652    0.71383    1.000
    O142     O        0.55804    0.04315    0.68980    1.000
    O143     O        0.70892    0.10056    0.68370    1.000
    O144     O        0.80849    0.13027    0.60159    1.000
    O145     O        0.82097    0.17460    0.52187    1.000
    O146     O        0.84397    0.14037    0.50370    1.000
    O147     O        0.85747    0.26902    0.66992    1.000
    O148     O        0.91537    0.41667    0.67433    1.000
    O149     O        0.97426    0.43708    0.68983    1.000
    O150     O        0.59589    0.13145    0.68083    1.000
    O151     O        0.63689    0.17800    0.65824    1.000
    O152     O        0.67583    0.16710    0.75268    1.000
    O153     O        0.74111    0.05132    0.77823    1.000
    O154     O        0.88760    0.11105    0.79573    1.000
    O155     O        0.90204    0.06595    0.78589    1.000
    O156     O        0.63675    0.06062    0.84663    1.000
    O157     O        0.52379    0.91617    0.85596    1.000
    O158     O        0.52596    0.90399    0.89166    1.000
    O159     O        0.43977    0.93653    0.70463    1.000
    O160     O        0.43137    0.93343    0.70173    1.000
    H489     H        0.43687    0.91233    0.70423    1.000
    H490     H        0.41807    0.93613    0.71453    1.000
    H491     H        0.40947    0.93823    0.70083    1.000
    H492     H        0.42837    0.91443    0.69053    1.000
    H493     H        0.44787    0.91733    0.70743    1.000
    H494     H        0.42997    0.94163    0.71823    1.000
    H495     H        0.41687    0.93973    0.70543    1.000
    H496     H        0.43467    0.91533    0.69463    1.000
    C529     C        0.23487    0.35951    0.03663    1.000
    C530     C        0.27654    0.37105    0.04006    1.000
    C531     C        0.28642    0.34874    0.05443    1.000
    H497     H        0.26663    0.32917    0.06337    1.000
    C532     C        0.32413    0.35500    0.05558    1.000
    H498     H        0.33023    0.33987    0.06517    1.000
    C533     C        0.35247    0.38311    0.04283    1.000
    H499     H        0.37823    0.38717    0.04347    1.000
    C534     C        0.34417    0.40679    0.02833    1.000
    C535     C        0.30603    0.40051    0.02699    1.000
    H500     H        0.30013    0.41587    0.01747    1.000
    C536     C        0.37138    0.46013    0.00153    1.000
    H501     H        0.36323    0.47687    0.00937    1.000
    H502     H        0.35133    0.44467    0.99037    1.000
    C537     C        0.41185    0.48561    0.99056    1.000
    C538     C        0.44314    0.51479    0.00298    1.000
    C539     C        0.48074    0.53383    0.99376    1.000
    C540     C        0.48676    0.52720    0.97160    1.000
    C541     C        0.45472    0.49876    0.95938    1.000
    C542     C        0.41636    0.47569    0.96953    1.000
    C543     C        0.38324    0.44222    0.95625    1.000
    H503     H        0.36733    0.42007    0.96597    1.000
    H504     H        0.39463    0.43387    0.94467    1.000
    H505     H        0.36663    0.45147    0.94967    1.000
    C544     C        0.43701    0.52674    0.02637    1.000
    H506     H        0.41413    0.53027    0.02637    1.000
    H507     H        0.46023    0.55127    0.03067    1.000
    H508     H        0.43283    0.50617    0.03677    1.000
    C545     C        0.52747    0.54983    0.96146    1.000
    H509     H        0.54333    0.57397    0.96977    1.000
    H510     H        0.52533    0.55637    0.94627    1.000
    H511     H        0.53993    0.53367    0.96187    1.000
    C546     C        0.51641    0.56234    0.00732    1.000
    H512     H        0.51123    0.55597    0.02307    1.000
    H513     H        0.53943    0.56017    0.00307    1.000
    C547     C        0.55708    0.63166    0.01381    1.000
    C548     C        0.58242    0.62464    0.02711    1.000
    H514     H        0.57703    0.59867    0.02957    1.000
    C549     C        0.61590    0.65650    0.03678    1.000
    H515     H        0.63283    0.65177    0.04567    1.000
    C550     C        0.62405    0.69539    0.03314    1.000
    H516     H        0.64643    0.71667    0.03957    1.000
    C551     C        0.59870    0.70241    0.01984    1.000
    C552     C        0.56522    0.67055    0.01017    1.000
    H517     H        0.54833    0.67527    0.00127    1.000
    C553     C        0.60739    0.74357    0.01601    1.000
    C554     C        0.46118    0.49040    0.93540    1.000
    H518     H        0.43623    0.47937    0.92727    1.000
    H519     H        0.48043    0.51517    0.92817    1.000
    C555     C        0.48824    0.45703    0.91527    1.000
    C556     C        0.50268    0.43060    0.91613    1.000
    H520     H        0.50273    0.41877    0.92967    1.000
    C557     C        0.51687    0.42178    0.89721    1.000
    H521     H        0.52723    0.40467    0.89797    1.000
    C558     C        0.51569    0.43869    0.87673    1.000
    H522     H        0.52423    0.43197    0.86377    1.000
    C559     C        0.50189    0.46534    0.87589    1.000
    C560     C        0.48730    0.47336    0.89531    1.000
    H523     H        0.47673    0.49027    0.89457    1.000
    C561     C        0.50006    0.48362    0.85422    1.000
    C562     C        0.29242    0.49582    0.01009    1.000
    C563     C        0.31859    0.51826    0.02928    1.000
    C564     C        0.34612    0.55884    0.02767    1.000
    H524     H        0.34743    0.57277    0.01467    1.000
    C565     C        0.37164    0.57863    0.04542    1.000
    H525     H        0.39003    0.60577    0.04437    1.000
    C566     C        0.36964    0.55784    0.06479    1.000
    H526     H        0.38673    0.57107    0.07667    1.000
    C567     C        0.34211    0.51726    0.06640    1.000
    C568     C        0.31659    0.49747    0.04864    1.000
    H527     H        0.29823    0.47037    0.04967    1.000
    C569     C        0.32167    0.45833    0.08604    1.000
    H528     H        0.32663    0.44847    0.07217    1.000
    H529     H        0.29323    0.44827    0.08727    1.000
    C570     C        0.33607    0.44392    0.10588    1.000
    C571     C        0.37177    0.44427    0.10459    1.000
    C572     C        0.38142    0.42531    0.12190    1.000
    C573     C        0.35477    0.40594    0.13872    1.000
    C574     C        0.31952    0.40755    0.14071    1.000
    C575     C        0.31076    0.42858    0.12508    1.000
    C576     C        0.27455    0.43346    0.12726    1.000
    H530     H        0.28003    0.45827    0.12057    1.000
    H531     H        0.26833    0.43347    0.14277    1.000
    H532     H        0.25233    0.41177    0.11977    1.000
    C577     C        0.39891    0.46162    0.08573    1.000
    H533     H        0.39603    0.44067    0.07587    1.000
    H534     H        0.42593    0.47627    0.09107    1.000
    H535     H        0.39263    0.47937    0.07777    1.000
    C578     C        0.36409    0.38173    0.15556    1.000
    H536     H        0.37093    0.36437    0.14767    1.000
    H537     H        0.34103    0.36607    0.16477    1.000
    H538     H        0.38613    0.39967    0.16477    1.000
    C579     C        0.41957    0.42458    0.12053    1.000
    H539     H        0.43833    0.44537    0.11067    1.000
    H540     H        0.43173    0.42827    0.13517    1.000
    C580     C        0.43463    0.37278    0.11391    1.000
    C581     C        0.42013    0.33229    0.11033    1.000
    H541     H        0.39303    0.31527    0.10757    1.000
    C582     C        0.44604    0.31715    0.11091    1.000
    H542     H        0.43633    0.29007    0.10847    1.000
    C583     C        0.48646    0.34251    0.11506    1.000
    H543     H        0.50383    0.33237    0.11547    1.000
    C584     C        0.50098    0.38301    0.11863    1.000
    C585     C        0.47507    0.39815    0.11805    1.000
    H544     H        0.48483    0.42527    0.12047    1.000
    C586     C        0.54302    0.40906    0.12274    1.000
    C587     C        0.28992    0.38174    0.15796    1.000
    H545     H        0.26533    0.38217    0.15577    1.000
    H546     H        0.28413    0.35447    0.15597    1.000
    C588     C        0.28854    0.36469    0.19592    1.000
    C589     C        0.30946    0.37483    0.21598    1.000
    H547     H        0.33183    0.39997    0.21777    1.000
    C590     C        0.29690    0.34737    0.23338    1.000
    H548     H        0.31093    0.35417    0.24677    1.000
    C591     C        0.26339    0.30976    0.23073    1.000
    H549     H        0.25493    0.29137    0.24237    1.000
    C592     C        0.24247    0.29962    0.21067    1.000
    C593     C        0.25503    0.32708    0.19327    1.000
    H550     H        0.24103    0.32027    0.17987    1.000
    C594     C        0.20639    0.25982    0.20797    1.000
    Mn25     Mn       0.15482    0.32365    0.02765    1.000
    Mn26     Mn       0.21804    0.41139    0.99515    1.000
    Mn27     Mn       0.28761    0.48100    0.95915    1.000
    O161     O        0.20793    0.32986    0.04717    1.000
    O162     O        0.22470    0.37649    0.02314    1.000
    O163     O        0.37558    0.43390    0.01704    1.000
    O164     O        0.47515    0.46361    0.93493    1.000
    O165     O        0.48763    0.50794    0.85521    1.000
    O166     O        0.51063    0.47371    0.83704    1.000
    O167     O        0.52413    0.60236    0.00326    1.000
    O168     O        0.58203    0.75001    0.00767    1.000
    O169     O        0.64092    0.77042    0.02317    1.000
    O170     O        0.26255    0.46479    0.01417    1.000
    O171     O        0.30355    0.51134    0.99158    1.000
    O172     O        0.34249    0.50044    0.08602    1.000
    O173     O        0.40777    0.38466    0.11157    1.000
    O174     O        0.55426    0.44439    0.12907    1.000
    O175     O        0.56870    0.39929    0.11923    1.000
    O176     O        0.30341    0.39396    0.17997    1.000
    O177     O        0.19045    0.24951    0.18930    1.000
    O178     O        0.19262    0.23733    0.22500    1.000
    O179     O        0.10643    0.26987    0.03797    1.000
    O180     O        0.09803    0.26677    0.03507    1.000
    H551     H        0.10353    0.24567    0.03757    1.000
    H552     H        0.08473    0.26947    0.04787    1.000
    H553     H        0.07613    0.27157    0.03417    1.000
    H554     H        0.09503    0.24777    0.02387    1.000
    H555     H        0.11453    0.25067    0.04077    1.000
    H556     H        0.09663    0.27497    0.05157    1.000
    H557     H        0.08353    0.27307    0.03877    1.000
    H558     H        0.10133    0.24867    0.02797    1.000
    C595     C        0.20870    0.30716    0.13004    1.000
    C596     C        0.23883    0.29562    0.12661    1.000
    C597     C        0.27102    0.31793    0.11224    1.000
    H559     H        0.27080    0.33750    0.10330    1.000
    C598     C        0.30247    0.31167    0.11109    1.000
    H560     H        0.32370    0.32680    0.10150    1.000
    C599     C        0.30270    0.28356    0.12384    1.000
    H561     H        0.32440    0.27950    0.12320    1.000
    C600     C        0.27072    0.25988    0.13834    1.000
    C601     C        0.23886    0.26616    0.13968    1.000
    H562     H        0.21760    0.25080    0.14920    1.000
    C602     C        0.24459    0.20654    0.16514    1.000
    H563     H        0.21970    0.18980    0.15730    1.000
    H564     H        0.24000    0.22200    0.17630    1.000
    C603     C        0.25958    0.18106    0.17611    1.000
    C604     C        0.26169    0.15188    0.16369    1.000
    C605     C        0.28025    0.13284    0.17291    1.000
    C606     C        0.29290    0.13947    0.19507    1.000
    C607     C        0.28930    0.16791    0.20729    1.000
    C608     C        0.27401    0.19098    0.19714    1.000
    C609     C        0.27436    0.22445    0.21042    1.000
    H565     H        0.28060    0.24660    0.20070    1.000
    H566     H        0.29410    0.23280    0.22200    1.000
    H567     H        0.24850    0.21520    0.21700    1.000
    C610     C        0.24361    0.13993    0.14030    1.000
    H568     H        0.21720    0.13640    0.14030    1.000
    H569     H        0.24230    0.11540    0.13600    1.000
    H570     H        0.26000    0.16050    0.12990    1.000
    C611     C        0.31098    0.11684    0.20521    1.000
    H571     H        0.30270    0.09270    0.19690    1.000
    H572     H        0.30230    0.11030    0.22040    1.000
    H573     H        0.33960    0.13300    0.20480    1.000
    C612     C        0.28741    0.10433    0.15935    1.000
    H574     H        0.28860    0.11070    0.14360    1.000
    H575     H        0.31260    0.10650    0.16360    1.000
    C613     C        0.25876    0.03501    0.15286    1.000
    C614     C        0.29112    0.04203    0.13956    1.000
    H576     H        0.31170    0.06800    0.13710    1.000
    C615     C        0.29274    0.01017    0.12989    1.000
    H577     H        0.31440    0.01490    0.12100    1.000
    C616     C        0.26200    0.97128    0.13353    1.000
    H578     H        0.26310    0.95000    0.12710    1.000
    C617     C        0.22963    0.96426    0.14683    1.000
    C618     C        0.22801    0.99612    0.15650    1.000
    H579     H        0.20640    0.99140    0.16540    1.000
    C619     C        0.19716    0.92310    0.15066    1.000
    C620     C        0.30412    0.17627    0.23127    1.000
    H580     H        0.29020    0.18730    0.23940    1.000
    H581     H        0.29860    0.15150    0.23850    1.000
    C621     C        0.36455    0.20964    0.25140    1.000
    C622     C        0.40542    0.23607    0.25054    1.000
    H582     H        0.41730    0.24790    0.23700    1.000
    C623     C        0.42843    0.24489    0.26946    1.000
    H583     H        0.45590    0.26200    0.26870    1.000
    C624     C        0.41034    0.22798    0.28994    1.000
    H584     H        0.42560    0.23470    0.30290    1.000
    C625     C        0.36989    0.20133    0.29078    1.000
    C626     C        0.34728    0.19331    0.27136    1.000
    H585     H        0.31980    0.17640    0.27210    1.000
    C627     C        0.34978    0.18305    0.31245    1.000
    C628     C        0.12994    0.17085    0.15658    1.000
    C629     C        0.13367    0.14841    0.13739    1.000
    C630     C        0.12062    0.10783    0.13900    1.000
    H586     H        0.10800    0.09390    0.15200    1.000
    C631     C        0.12635    0.08804    0.12125    1.000
    H587     H        0.11760    0.06090    0.12230    1.000
    C632     C        0.14514    0.10883    0.10188    1.000
    H588     H        0.14900    0.09560    0.09000    1.000
    C633     C        0.15819    0.14941    0.10027    1.000
    C634     C        0.15246    0.16920    0.11803    1.000
    H589     H        0.16120    0.19630    0.11700    1.000
    C635     C        0.19668    0.20834    0.08063    1.000
    H590     H        0.21150    0.21820    0.09450    1.000
    H591     H        0.17830    0.21840    0.07940    1.000
    C636     C        0.22549    0.22275    0.06079    1.000
    C637     C        0.26084    0.22240    0.06208    1.000
    C638     C        0.28945    0.24136    0.04477    1.000
    C639     C        0.28217    0.26073    0.02795    1.000
    C640     C        0.24531    0.25912    0.02596    1.000
    C641     C        0.21552    0.23809    0.04159    1.000
    C642     C        0.17443    0.23321    0.03941    1.000
    H592     H        0.15510    0.20840    0.04610    1.000
    H593     H        0.16820    0.23320    0.02390    1.000
    H594     H        0.17390    0.25490    0.04690    1.000
    C643     C        0.27063    0.20505    0.08094    1.000
    H595     H        0.28870    0.22600    0.09080    1.000
    H596     H        0.28300    0.19040    0.07560    1.000
    H597     H        0.24660    0.18730    0.08890    1.000
    C644     C        0.31570    0.28494    0.01111    1.000
    H598     H        0.33990    0.30230    0.01900    1.000
    H599     H        0.30830    0.30060    0.00190    1.000
    H600     H        0.31980    0.26700    0.00190    1.000
    C645     C        0.32833    0.24209    0.04614    1.000
    H601     H        0.32630    0.22130    0.05600    1.000
    H602     H        0.33680    0.23840    0.03150    1.000
    C646     C        0.39519    0.29389    0.05276    1.000
    C647     C        0.42118    0.33438    0.05634    1.000
    H603     H        0.41110    0.35140    0.05910    1.000
    C648     C        0.46223    0.34952    0.05576    1.000
    H604     H        0.47960    0.37660    0.05820    1.000
    C649     C        0.47729    0.32416    0.05161    1.000
    H605     H        0.50480    0.33430    0.05120    1.000
    C650     C        0.45131    0.28366    0.04804    1.000
    C651     C        0.41026    0.26852    0.04862    1.000
    H606     H        0.39290    0.24140    0.04620    1.000
    C652     C        0.46730    0.25761    0.04393    1.000
    C653     C        0.24152    0.28493    0.00871    1.000
    H607     H        0.21650    0.28450    0.01090    1.000
    H608     H        0.26300    0.31220    0.01070    1.000
    C654     C        0.25719    0.30198    0.97075    1.000
    C655     C        0.26797    0.29184    0.95069    1.000
    H609     H        0.26520    0.26670    0.94890    1.000
    C656     C        0.28287    0.31930    0.93329    1.000
    H610     H        0.29010    0.31250    0.91990    1.000
    C657     C        0.28697    0.35691    0.93594    1.000
    H611     H        0.29690    0.37530    0.92430    1.000
    C658     C        0.27619    0.36705    0.95600    1.000
    C659     C        0.26129    0.33959    0.97340    1.000
    H612     H        0.25410    0.34640    0.98680    1.000
    C660     C        0.27991    0.40685    0.95870    1.000
    Mn28     Mn       0.16450    0.34302    0.13902    1.000
    Mn29     Mn       0.13998    0.25527    0.17152    1.000
    Mn30     Mn       0.13994    0.18567    0.20752    1.000
    O181     O        0.21141    0.33681    0.11950    1.000
    O182     O        0.18155    0.29018    0.14353    1.000
    O183     O        0.27502    0.23277    0.14963    1.000
    O184     O        0.34488    0.20306    0.23174    1.000
    O185     O        0.31303    0.15873    0.31146    1.000
    O186     O        0.37026    0.19296    0.32963    1.000
    O187     O        0.25511    0.06431    0.16341    1.000
    O188     O        0.16536    0.91666    0.15900    1.000
    O189     O        0.20384    0.89625    0.14350    1.000
    O190     O        0.13110    0.20188    0.15250    1.000
    O191     O        0.12555    0.15533    0.17509    1.000
    O192     O        0.17539    0.16623    0.08065    1.000
    O193     O        0.35645    0.28201    0.05510    1.000
    O194     O        0.44321    0.22228    0.03760    1.000
    O195     O        0.50275    0.26738    0.04744    1.000
    O196     O        0.24279    0.27271    0.98670    1.000
    O197     O        0.27428    0.41716    0.97737    1.000
    O198     O        0.28863    0.42934    0.94167    1.000
    O199     O        0.16990    0.39680    0.12870    1.000
    O200     O        0.16460    0.39990    0.13160    1.000
    H613     H        0.19120    0.42100    0.12910    1.000
    H614     H        0.14860    0.39720    0.11880    1.000
    H615     H        0.13790    0.39510    0.13250    1.000
    H616     H        0.18060    0.41890    0.14280    1.000
    H617     H        0.19720    0.41600    0.12590    1.000
    H618     H        0.15500    0.39170    0.11510    1.000
    H619     H        0.14380    0.39360    0.12790    1.000
    H620     H        0.18600    0.41800    0.13870    1.000
    C661     C        0.87537    0.64049    0.46337    1.000
    C662     C        0.90550    0.62895    0.45994    1.000
    C663     C        0.93769    0.65126    0.44557    1.000
    H621     H        0.93747    0.67083    0.43663    1.000
    C664     C        0.96914    0.64500    0.44442    1.000
    H622     H        0.99037    0.66013    0.43483    1.000
    C665     C        0.96937    0.61689    0.45717    1.000
    H623     H        0.99107    0.61283    0.45653    1.000
    C666     C        0.93739    0.59321    0.47167    1.000
    C667     C        0.90553    0.59949    0.47301    1.000
    H624     H        0.88427    0.58413    0.48253    1.000
    C668     C        0.91126    0.53987    0.49847    1.000
    H625     H        0.88637    0.52313    0.49063    1.000
    H626     H        0.90667    0.55533    0.50963    1.000
    C669     C        0.92625    0.51439    0.50944    1.000
    C670     C        0.92836    0.48521    0.49702    1.000
    C671     C        0.94692    0.46617    0.50624    1.000
    C672     C        0.95957    0.47280    0.52840    1.000
    C673     C        0.95597    0.50124    0.54062    1.000
    C674     C        0.94068    0.52431    0.53047    1.000
    C675     C        0.94103    0.55778    0.54375    1.000
    H627     H        0.94727    0.57993    0.53403    1.000
    H628     H        0.96077    0.56613    0.55533    1.000
    H629     H        0.91517    0.54853    0.55033    1.000
    C676     C        0.91028    0.47326    0.47363    1.000
    H630     H        0.88387    0.46973    0.47363    1.000
    H631     H        0.90897    0.44873    0.46933    1.000
    H632     H        0.92667    0.49383    0.46323    1.000
    C677     C        0.97765    0.45017    0.53854    1.000
    H633     H        0.96937    0.42603    0.53023    1.000
    H634     H        0.96897    0.44363    0.55373    1.000
    H635     H        0.00627    0.46633    0.53813    1.000
    C678     C        0.95408    0.43766    0.49268    1.000
    H636     H        0.95527    0.44403    0.47693    1.000
    H637     H        0.97927    0.43983    0.49693    1.000
    C679     C        0.92543    0.36834    0.48619    1.000
    C680     C        0.95779    0.37536    0.47289    1.000
    H638     H        0.97837    0.40133    0.47043    1.000
    C681     C        0.95941    0.34350    0.46322    1.000
    H639     H        0.98107    0.34823    0.45433    1.000
    C682     C        0.92867    0.30461    0.46686    1.000
    H640     H        0.92977    0.28333    0.46043    1.000
    C683     C        0.89630    0.29759    0.48016    1.000
    C684     C        0.89468    0.32945    0.48983    1.000
    H641     H        0.87307    0.32473    0.49873    1.000
    C685     C        0.86383    0.25643    0.48399    1.000
    C686     C        0.97079    0.50960    0.56460    1.000
    H642     H        0.95687    0.52063    0.57273    1.000
    H643     H        0.96527    0.48483    0.57183    1.000
    C687     C        0.03122    0.54297    0.58473    1.000
    C688     C        0.07209    0.56940    0.58387    1.000
    H644     H        0.08397    0.58123    0.57033    1.000
    C689     C        0.09510    0.57822    0.60279    1.000
    H645     H        0.12257    0.59533    0.60203    1.000
    C690     C        0.07701    0.56131    0.62327    1.000
    H646     H        0.09227    0.56803    0.63623    1.000
    C691     C        0.03656    0.53466    0.62411    1.000
    C692     C        0.01395    0.52664    0.60469    1.000
    H647     H        0.98647    0.50973    0.60543    1.000
    C693     C        0.01645    0.51638    0.64578    1.000
    C694     C        0.79661    0.50418    0.48991    1.000
    C695     C        0.80034    0.48174    0.47072    1.000
    C696     C        0.78729    0.44116    0.47233    1.000
    H648     H        0.77467    0.42723    0.48533    1.000
    C697     C        0.79302    0.42137    0.45458    1.000
    H649     H        0.78427    0.39423    0.45563    1.000
    C698     C        0.81181    0.44216    0.43521    1.000
    H650     H        0.81567    0.42893    0.42333    1.000
    C699     C        0.82486    0.48274    0.43360    1.000
    C700     C        0.81913    0.50253    0.45136    1.000
    H651     H        0.82787    0.52963    0.45033    1.000
    C701     C        0.86335    0.54167    0.41396    1.000
    H652     H        0.87817    0.55153    0.42783    1.000
    H653     H        0.84497    0.55173    0.41273    1.000
    C702     C        0.89216    0.55608    0.39412    1.000
    C703     C        0.92751    0.55573    0.39541    1.000
    C704     C        0.95612    0.57469    0.37810    1.000
    C705     C        0.94884    0.59406    0.36128    1.000
    C706     C        0.91198    0.59245    0.35929    1.000
    C707     C        0.88219    0.57142    0.37492    1.000
    C708     C        0.84110    0.56654    0.37274    1.000
    H654     H        0.82177    0.54173    0.37943    1.000
    H655     H        0.83487    0.56653    0.35723    1.000
    H656     H        0.84057    0.58823    0.38023    1.000
    C709     C        0.93730    0.53838    0.41427    1.000
    H657     H        0.95537    0.55933    0.42413    1.000
    H658     H        0.94967    0.52373    0.40893    1.000
    H659     H        0.91327    0.52063    0.42223    1.000
    C710     C        0.98237    0.61827    0.34444    1.000
    H660     H        0.00657    0.63563    0.35233    1.000
    H661     H        0.97497    0.63393    0.33523    1.000
    H662     H        0.98647    0.60033    0.33523    1.000
    C711     C        0.99500    0.57542    0.37947    1.000
    H663     H        0.99297    0.55463    0.38933    1.000
    H664     H        0.00347    0.57173    0.36483    1.000
    C712     C        0.06186    0.62722    0.38609    1.000
    C713     C        0.08785    0.66771    0.38967    1.000
    H665     H        0.07777    0.68473    0.39243    1.000
    C714     C        0.12890    0.68285    0.38909    1.000
    H666     H        0.14627    0.70993    0.39153    1.000
    C715     C        0.14396    0.65749    0.38494    1.000
    H667     H        0.17147    0.66763    0.38453    1.000
    C716     C        0.11798    0.61699    0.38137    1.000
    C717     C        0.07693    0.60185    0.38195    1.000
    H668     H        0.05957    0.57473    0.37953    1.000
    C718     C        0.13397    0.59094    0.37726    1.000
    C719     C        0.90819    0.61826    0.34204    1.000
    H669     H        0.88317    0.61783    0.34423    1.000
    H670     H        0.92967    0.64553    0.34403    1.000
    C720     C        0.92386    0.63531    0.30408    1.000
    C721     C        0.93464    0.62517    0.28402    1.000
    H671     H        0.93187    0.60003    0.28223    1.000
    C722     C        0.94954    0.65263    0.26662    1.000
    H672     H        0.95677    0.64583    0.25323    1.000
    C723     C        0.95364    0.69024    0.26927    1.000
    H673     H        0.96357    0.70863    0.25763    1.000
    C724     C        0.94286    0.70038    0.28933    1.000
    C725     C        0.92796    0.67292    0.30673    1.000
    H674     H        0.92077    0.67973    0.32013    1.000
    C726     C        0.94658    0.74018    0.29203    1.000
    Mn31     Mn       0.83117    0.67635    0.47235    1.000
    Mn32     Mn       0.80665    0.58861    0.50485    1.000
    Mn33     Mn       0.80661    0.51900    0.54085    1.000
    O201     O        0.87808    0.67014    0.45283    1.000
    O202     O        0.84822    0.62351    0.47686    1.000
    O203     O        0.94169    0.56610    0.48296    1.000
    O204     O        0.01155    0.53639    0.56507    1.000
    O205     O        0.97970    0.49206    0.64479    1.000
    O206     O        0.03693    0.52629    0.66296    1.000
    O207     O        0.92178    0.39764    0.49674    1.000
    O208     O        0.83203    0.24999    0.49233    1.000
    O209     O        0.87051    0.22958    0.47683    1.000
    O210     O        0.79777    0.53521    0.48583    1.000
    O211     O        0.79222    0.48866    0.50842    1.000
    O212     O        0.84206    0.49956    0.41398    1.000
    O213     O        0.02312    0.61534    0.38843    1.000
    O214     O        0.10988    0.55561    0.37093    1.000
    O215     O        0.16942    0.60071    0.38077    1.000
    O216     O        0.90946    0.60604    0.32003    1.000
    O217     O        0.94095    0.75049    0.31070    1.000
    O218     O        0.95530    0.76267    0.27500    1.000
    O219     O        0.83657    0.73013    0.46203    1.000
    O220     O        0.83127    0.73323    0.46493    1.000
    H675     H        0.85787    0.75433    0.46243    1.000
    H676     H        0.81527    0.73053    0.45213    1.000
    H677     H        0.80457    0.72843    0.46583    1.000
    H678     H        0.84727    0.75223    0.47613    1.000
    H679     H        0.86387    0.74933    0.45923    1.000
    H680     H        0.82167    0.72503    0.44843    1.000
    H681     H        0.81047    0.72693    0.46123    1.000
    H682     H        0.85267    0.75133    0.47203    1.000
    C727     C        0.54203    0.97383    0.79671    1.000
    C728     C        0.57216    0.96229    0.79328    1.000
    C729     C        0.60435    0.98460    0.77891    1.000
    H683     H        0.60413    0.00417    0.76997    1.000
    C730     C        0.63580    0.97834    0.77776    1.000
    H684     H        0.65703    0.99347    0.76817    1.000
    C731     C        0.63603    0.95023    0.79051    1.000
    H685     H        0.65773    0.94617    0.78987    1.000
    C732     C        0.60405    0.92655    0.80501    1.000
    C733     C        0.57219    0.93283    0.80635    1.000
    H686     H        0.55093    0.91747    0.81587    1.000
    C734     C        0.57792    0.87321    0.83181    1.000
    H687     H        0.55303    0.85647    0.82397    1.000
    H688     H        0.57333    0.88867    0.84297    1.000
    C735     C        0.59291    0.84773    0.84278    1.000
    C736     C        0.59502    0.81855    0.83036    1.000
    C737     C        0.61358    0.79951    0.83958    1.000
    C738     C        0.62623    0.80614    0.86174    1.000
    C739     C        0.62263    0.83458    0.87396    1.000
    C740     C        0.60734    0.85765    0.86381    1.000
    C741     C        0.60769    0.89112    0.87709    1.000
    H689     H        0.61393    0.91327    0.86737    1.000
    H690     H        0.62743    0.89947    0.88867    1.000
    H691     H        0.58183    0.88187    0.88367    1.000
    C742     C        0.57694    0.80660    0.80697    1.000
    H692     H        0.55053    0.80307    0.80697    1.000
    H693     H        0.57563    0.78207    0.80267    1.000
    H694     H        0.59333    0.82717    0.79657    1.000
    C743     C        0.64431    0.78351    0.87188    1.000
    H695     H        0.63603    0.75937    0.86357    1.000
    H696     H        0.63563    0.77697    0.88707    1.000
    H697     H        0.67293    0.79967    0.87147    1.000
    C744     C        0.62074    0.77100    0.82602    1.000
    H698     H        0.62193    0.77737    0.81027    1.000
    H699     H        0.64593    0.77317    0.83027    1.000
    C745     C        0.59209    0.70168    0.81953    1.000
    C746     C        0.62445    0.70870    0.80623    1.000
    H700     H        0.64503    0.73467    0.80377    1.000
    C747     C        0.62607    0.67684    0.79656    1.000
    H701     H        0.64773    0.68157    0.78767    1.000
    C748     C        0.59533    0.63795    0.80020    1.000
    H702     H        0.59643    0.61667    0.79377    1.000
    C749     C        0.56296    0.63093    0.81350    1.000
    C750     C        0.56134    0.66279    0.82317    1.000
    H703     H        0.53973    0.65807    0.83207    1.000
    C751     C        0.53049    0.58977    0.81733    1.000
    C752     C        0.63745    0.84294    0.89794    1.000
    H704     H        0.62353    0.85397    0.90607    1.000
    H705     H        0.63193    0.81817    0.90517    1.000
    C753     C        0.69788    0.87631    0.91807    1.000
    C754     C        0.73875    0.90274    0.91721    1.000
    H706     H        0.75063    0.91457    0.90367    1.000
    C755     C        0.76176    0.91156    0.93613    1.000
    H707     H        0.78923    0.92867    0.93537    1.000
    C756     C        0.74367    0.89465    0.95661    1.000
    H708     H        0.75893    0.90137    0.96957    1.000
    C757     C        0.70322    0.86800    0.95745    1.000
    C758     C        0.68061    0.85998    0.93803    1.000
    H709     H        0.65313    0.84307    0.93877    1.000
    C759     C        0.68311    0.84972    0.97912    1.000
    C760     C        0.46327    0.83752    0.82325    1.000
    C761     C        0.46700    0.81508    0.80406    1.000
    C762     C        0.45395    0.77450    0.80567    1.000
    H710     H        0.44133    0.76057    0.81867    1.000
    C763     C        0.45968    0.75471    0.78792    1.000
    H711     H        0.45093    0.72757    0.78897    1.000
    C764     C        0.47847    0.77550    0.76855    1.000
    H712     H        0.48233    0.76227    0.75667    1.000
    C765     C        0.49152    0.81608    0.76694    1.000
    C766     C        0.48579    0.83587    0.78470    1.000
    H713     H        0.49453    0.86297    0.78367    1.000
    C767     C        0.53001    0.87501    0.74730    1.000
    H714     H        0.54483    0.88487    0.76117    1.000
    H715     H        0.51163    0.88507    0.74607    1.000
    C768     C        0.55882    0.88942    0.72746    1.000
    C769     C        0.59417    0.88907    0.72875    1.000
    C770     C        0.62278    0.90803    0.71144    1.000
    C771     C        0.61550    0.92740    0.69462    1.000
    C772     C        0.57864    0.92579    0.69263    1.000
    C773     C        0.54885    0.90476    0.70826    1.000
    C774     C        0.50776    0.89988    0.70608    1.000
    H716     H        0.48843    0.87507    0.71277    1.000
    H717     H        0.50153    0.89987    0.69057    1.000
    H718     H        0.50723    0.92157    0.71357    1.000
    C775     C        0.60396    0.87172    0.74761    1.000
    H719     H        0.62203    0.89267    0.75747    1.000
    H720     H        0.61633    0.85707    0.74227    1.000
    H721     H        0.57993    0.85397    0.75557    1.000
    C776     C        0.64903    0.95161    0.67778    1.000
    H722     H        0.67323    0.96897    0.68567    1.000
    H723     H        0.64163    0.96727    0.66857    1.000
    H724     H        0.65313    0.93367    0.66857    1.000
    C777     C        0.66166    0.90876    0.71281    1.000
    H725     H        0.65963    0.88797    0.72267    1.000
    H726     H        0.67013    0.90507    0.69817    1.000
    C778     C        0.72852    0.96056    0.71943    1.000
    C779     C        0.75451    0.00105    0.72301    1.000
    H727     H        0.74443    0.01807    0.72577    1.000
    C780     C        0.79556    0.01619    0.72243    1.000
    H728     H        0.81293    0.04327    0.72487    1.000
    C781     C        0.81062    0.99083    0.71828    1.000
    H729     H        0.83813    0.00097    0.71787    1.000
    C782     C        0.78464    0.95033    0.71471    1.000
    C783     C        0.74359    0.93519    0.71529    1.000
    H730     H        0.72623    0.90807    0.71287    1.000
    C784     C        0.80063    0.92428    0.71060    1.000
    C785     C        0.57485    0.95160    0.67538    1.000
    H731     H        0.54983    0.95117    0.67757    1.000
    H732     H        0.59633    0.97887    0.67737    1.000
    C786     C        0.59052    0.96865    0.63742    1.000
    C787     C        0.60130    0.95851    0.61736    1.000
    H733     H        0.59853    0.93337    0.61557    1.000
    C788     C        0.61620    0.98597    0.59996    1.000
    H734     H        0.62343    0.97917    0.58657    1.000
    C789     C        0.62030    0.02358    0.60261    1.000
    H735     H        0.63023    0.04197    0.59097    1.000
    C790     C        0.60952    0.03372    0.62267    1.000
    C791     C        0.59462    0.00626    0.64007    1.000
    H736     H        0.58743    0.01307    0.65347    1.000
    C792     C        0.61324    0.07352    0.62537    1.000
    Mn34     Mn       0.49784    0.00968    0.80569    1.000
    Mn35     Mn       0.47331    0.92194    0.83818    1.000
    Mn36     Mn       0.47328    0.85234    0.87418    1.000
    O221     O        0.54474    0.00348    0.78617    1.000
    O222     O        0.51488    0.95685    0.81020    1.000
    O223     O        0.60835    0.89944    0.81630    1.000
    O224     O        0.67821    0.86973    0.89841    1.000
    O225     O        0.64636    0.82540    0.97813    1.000
    O226     O        0.70359    0.85963    0.99630    1.000
    O227     O        0.58844    0.73098    0.83008    1.000
    O228     O        0.49869    0.58333    0.82567    1.000
    O229     O        0.53717    0.56292    0.81017    1.000
    O230     O        0.46443    0.86855    0.81917    1.000
    O231     O        0.45888    0.82200    0.84176    1.000
    O232     O        0.50872    0.83290    0.74732    1.000
    O233     O        0.68978    0.94868    0.72177    1.000
    O234     O        0.77654    0.88895    0.70427    1.000
    O235     O        0.83608    0.93405    0.71411    1.000
    O236     O        0.57612    0.93938    0.65337    1.000
    O237     O        0.60761    0.08383    0.64404    1.000
    O238     O        0.62196    0.09601    0.60834    1.000
    O239     O        0.50323    0.06347    0.79537    1.000
    O240     O        0.49793    0.06657    0.79827    1.000
    H737     H        0.52453    0.08767    0.79577    1.000
    H738     H        0.48193    0.06387    0.78547    1.000
    H739     H        0.47123    0.06177    0.79917    1.000
    H740     H        0.51393    0.08557    0.80947    1.000
    H741     H        0.53053    0.08267    0.79257    1.000
    H742     H        0.48833    0.05837    0.78177    1.000
    H743     H        0.47713    0.06027    0.79457    1.000
    H744     H        0.51933    0.08467    0.80537    1.000
    C793     C        0.09846    0.79130    0.13004    1.000
    C794     C        0.05679    0.76117    0.12661    1.000
    C795     C        0.04691    0.72898    0.11224    1.000
    H745     H        0.06670    0.72920    0.10330    1.000
    C796     C        0.00920    0.69753    0.11109    1.000
    H746     H        0.00310    0.67630    0.10150    1.000
    C797     C        0.98086    0.69730    0.12384    1.000
    H747     H        0.95510    0.67560    0.12320    1.000
    C798     C        0.98916    0.72928    0.13834    1.000
    C799     C        0.02730    0.76114    0.13968    1.000
    H748     H        0.03320    0.78240    0.14920    1.000
    C800     C        0.96195    0.75541    0.16514    1.000
    H749     H        0.97010    0.78030    0.15730    1.000
    H750     H        0.98200    0.76000    0.17630    1.000
    C801     C        0.92148    0.74042    0.17611    1.000
    C802     C        0.89019    0.73831    0.16369    1.000
    C803     C        0.85259    0.71975    0.17291    1.000
    C804     C        0.84657    0.70710    0.19507    1.000
    C805     C        0.87861    0.71070    0.20729    1.000
    C806     C        0.91697    0.72599    0.19714    1.000
    C807     C        0.95009    0.72564    0.21042    1.000
    H751     H        0.96600    0.71940    0.20070    1.000
    H752     H        0.93870    0.70590    0.22200    1.000
    H753     H        0.96670    0.75150    0.21700    1.000
    C808     C        0.89632    0.75639    0.14030    1.000
    H754     H        0.91920    0.78280    0.14030    1.000
    H755     H        0.87310    0.75770    0.13600    1.000
    H756     H        0.90050    0.74000    0.12990    1.000
    C809     C        0.80586    0.68902    0.20521    1.000
    H757     H        0.79000    0.69730    0.19690    1.000
    H758     H        0.80800    0.69770    0.22040    1.000
    H759     H        0.79340    0.66040    0.20480    1.000
    C810     C        0.81692    0.71259    0.15935    1.000
    H760     H        0.82210    0.71140    0.14360    1.000
    H761     H        0.79390    0.68740    0.16360    1.000
    C811     C        0.77625    0.74124    0.15286    1.000
    C812     C        0.75091    0.70888    0.13956    1.000
    H762     H        0.75630    0.68830    0.13710    1.000
    C813     C        0.71743    0.70726    0.12989    1.000
    H763     H        0.70050    0.68560    0.12100    1.000
    C814     C        0.70928    0.73800    0.13353    1.000
    H764     H        0.68690    0.73690    0.12710    1.000
    C815     C        0.73463    0.77037    0.14683    1.000
    C816     C        0.76811    0.77199    0.15650    1.000
    H765     H        0.78500    0.79360    0.16540    1.000
    C817     C        0.72594    0.80284    0.15066    1.000
    C818     C        0.87215    0.69588    0.23127    1.000
    H766     H        0.89710    0.70980    0.23940    1.000
    H767     H        0.85290    0.70140    0.23850    1.000
    C819     C        0.84509    0.63545    0.25140    1.000
    C820     C        0.83065    0.59458    0.25054    1.000
    H768     H        0.83060    0.58270    0.23700    1.000
    C821     C        0.81646    0.57157    0.26946    1.000
    H769     H        0.80610    0.54410    0.26870    1.000
    C822     C        0.81764    0.58966    0.28994    1.000
    H770     H        0.80910    0.57440    0.30290    1.000
    C823     C        0.83144    0.63011    0.29078    1.000
    C824     C        0.84603    0.65272    0.27136    1.000
    H771     H        0.85660    0.68020    0.27210    1.000
    C825     C        0.83327    0.65022    0.31245    1.000
    C826     C        0.04091    0.87006    0.15658    1.000
    C827     C        0.01474    0.86633    0.13739    1.000
    C828     C        0.98721    0.87938    0.13900    1.000
    H772     H        0.98590    0.89200    0.15200    1.000
    C829     C        0.96169    0.87365    0.12125    1.000
    H773     H        0.94330    0.88240    0.12230    1.000
    C830     C        0.96369    0.85486    0.10188    1.000
    H774     H        0.94660    0.85100    0.09000    1.000
    C831     C        0.99122    0.84181    0.10027    1.000
    C832     C        0.01674    0.84754    0.11803    1.000
    H775     H        0.03510    0.83880    0.11700    1.000
    C833     C        0.01166    0.80332    0.08063    1.000
    H776     H        0.00670    0.78850    0.09450    1.000
    H777     H        0.04010    0.82170    0.07940    1.000
    C834     C        0.99726    0.77451    0.06079    1.000
    C835     C        0.96156    0.73916    0.06208    1.000
    C836     C        0.95191    0.71055    0.04477    1.000
    C837     C        0.97856    0.71783    0.02795    1.000
    C838     C        0.01381    0.75469    0.02596    1.000
    C839     C        0.02257    0.78448    0.04159    1.000
    C840     C        0.05878    0.82557    0.03941    1.000
    H778     H        0.05330    0.84490    0.04610    1.000
    H779     H        0.06500    0.83180    0.02390    1.000
    H780     H        0.08100    0.82610    0.04690    1.000
    C841     C        0.93442    0.72937    0.08094    1.000
    H781     H        0.93730    0.71130    0.09080    1.000
    H782     H        0.90740    0.71700    0.07560    1.000
    H783     H        0.94070    0.75340    0.08890    1.000
    C842     C        0.96924    0.68430    0.01111    1.000
    H784     H        0.96240    0.66010    0.01900    1.000
    H785     H        0.99230    0.69170    0.00190    1.000
    H786     H        0.94720    0.68020    0.00190    1.000
    C843     C        0.91376    0.67167    0.04614    1.000
    H787     H        0.89500    0.67370    0.05600    1.000
    H788     H        0.90160    0.66320    0.03150    1.000
    C844     C        0.89870    0.60481    0.05276    1.000
    C845     C        0.91320    0.57882    0.05634    1.000
    H789     H        0.94030    0.58890    0.05910    1.000
    C846     C        0.88729    0.53777    0.05576    1.000
    H790     H        0.89700    0.52040    0.05820    1.000
    C847     C        0.84687    0.52271    0.05161    1.000
    H791     H        0.82950    0.49520    0.05120    1.000
    C848     C        0.83235    0.54869    0.04804    1.000
    C849     C        0.85826    0.58974    0.04862    1.000
    H792     H        0.84850    0.60710    0.04620    1.000
    C850     C        0.79031    0.53270    0.04393    1.000
    C851     C        0.04341    0.75848    0.00871    1.000
    H793     H        0.06800    0.78350    0.01090    1.000
    H794     H        0.04920    0.73700    0.01070    1.000
    C852     C        0.04479    0.74281    0.97075    1.000
    C853     C        0.02387    0.73203    0.95069    1.000
    H795     H        0.00150    0.73480    0.94890    1.000
    C854     C        0.03643    0.71713    0.93329    1.000
    H796     H        0.02240    0.70990    0.91990    1.000
    C855     C        0.06994    0.71303    0.93594    1.000
    H797     H        0.07840    0.70310    0.92430    1.000
    C856     C        0.09086    0.72381    0.95600    1.000
    C857     C        0.07830    0.73871    0.97340    1.000
    H798     H        0.09230    0.74590    0.98680    1.000
    C858     C        0.12694    0.72009    0.95870    1.000
    Mn37     Mn       0.17851    0.83550    0.13902    1.000
    Mn38     Mn       0.11529    0.86002    0.17152    1.000
    Mn39     Mn       0.04573    0.86006    0.20752    1.000
    O241     O        0.12540    0.78859    0.11950    1.000
    O242     O        0.10863    0.81845    0.14353    1.000
    O243     O        0.95775    0.72498    0.14963    1.000
    O244     O        0.85818    0.65512    0.23174    1.000
    O245     O        0.84570    0.68697    0.31146    1.000
    O246     O        0.82270    0.62974    0.32963    1.000
    O247     O        0.80920    0.74489    0.16341    1.000
    O248     O        0.75130    0.83464    0.15900    1.000
    O249     O        0.69241    0.79616    0.14350    1.000
    O250     O        0.07078    0.86890    0.15250    1.000
    O251     O        0.02978    0.87445    0.17509    1.000
    O252     O        0.99084    0.82461    0.08065    1.000
    O253     O        0.92556    0.64355    0.05510    1.000
    O254     O        0.77907    0.55679    0.03760    1.000
    O255     O        0.76463    0.49725    0.04744    1.000
    O256     O        0.02992    0.75721    0.98670    1.000
    O257     O        0.14288    0.72572    0.97737    1.000
    O258     O        0.14071    0.71137    0.94167    1.000
    O259     O        0.22690    0.83010    0.12870    1.000
    O260     O        0.23530    0.83540    0.13160    1.000
    H799     H        0.22980    0.80880    0.12910    1.000
    H800     H        0.24860    0.85140    0.11880    1.000
    H801     H        0.25720    0.86210    0.13250    1.000
    H802     H        0.23830    0.81940    0.14280    1.000
    H803     H        0.21880    0.80280    0.12590    1.000
    H804     H        0.23670    0.84500    0.11510    1.000
    H805     H        0.24980    0.85620    0.12790    1.000
    H806     H        0.23200    0.81400    0.13870    1.000
    C859     C        0.76513    0.12463    0.46337    1.000
    C860     C        0.72346    0.09450    0.45994    1.000
    C861     C        0.71358    0.06231    0.44557    1.000
    H807     H        0.73337    0.06253    0.43663    1.000
    C862     C        0.67587    0.03086    0.44442    1.000
    H808     H        0.66977    0.00963    0.43483    1.000
    C863     C        0.64753    0.03063    0.45717    1.000
    H809     H        0.62177    0.00893    0.45653    1.000
    C864     C        0.65583    0.06261    0.47167    1.000
    C865     C        0.69397    0.09447    0.47301    1.000
    H810     H        0.69987    0.11573    0.48253    1.000
    C866     C        0.62862    0.08874    0.49847    1.000
    H811     H        0.63677    0.11363    0.49063    1.000
    H812     H        0.64867    0.09333    0.50963    1.000
    C867     C        0.58815    0.07375    0.50944    1.000
    C868     C        0.55686    0.07164    0.49702    1.000
    C869     C        0.51926    0.05308    0.50624    1.000
    C870     C        0.51324    0.04043    0.52840    1.000
    C871     C        0.54528    0.04403    0.54062    1.000
    C872     C        0.58364    0.05932    0.53047    1.000
    C873     C        0.61676    0.05897    0.54375    1.000
    H813     H        0.63267    0.05273    0.53403    1.000
    H814     H        0.60537    0.03923    0.55533    1.000
    H815     H        0.63337    0.08483    0.55033    1.000
    C874     C        0.56299    0.08972    0.47363    1.000
    H816     H        0.58587    0.11613    0.47363    1.000
    H817     H        0.53977    0.09103    0.46933    1.000
    H818     H        0.56717    0.07333    0.46323    1.000
    C875     C        0.47253    0.02235    0.53854    1.000
    H819     H        0.45667    0.03063    0.53023    1.000
    H820     H        0.47467    0.03103    0.55373    1.000
    H821     H        0.46007    0.99373    0.53813    1.000
    C876     C        0.48359    0.04592    0.49268    1.000
    H822     H        0.48877    0.04473    0.47693    1.000
    H823     H        0.46057    0.02073    0.49693    1.000
    C877     C        0.44292    0.07457    0.48619    1.000
    C878     C        0.41758    0.04221    0.47289    1.000
    H824     H        0.42297    0.02163    0.47043    1.000
    C879     C        0.38410    0.04059    0.46322    1.000
    H825     H        0.36717    0.01893    0.45433    1.000
    C880     C        0.37595    0.07133    0.46686    1.000
    H826     H        0.35357    0.07023    0.46043    1.000
    C881     C        0.40130    0.10370    0.48016    1.000
    C882     C        0.43478    0.10532    0.48983    1.000
    H827     H        0.45167    0.12693    0.49873    1.000
    C883     C        0.39261    0.13617    0.48399    1.000
    C884     C        0.53882    0.02921    0.56460    1.000
    H828     H        0.56377    0.04313    0.57273    1.000
    H829     H        0.51957    0.03473    0.57183    1.000
    C885     C        0.51176    0.96878    0.58473    1.000
    C886     C        0.49732    0.92791    0.58387    1.000
    H830     H        0.49727    0.91603    0.57033    1.000
    C887     C        0.48313    0.90490    0.60279    1.000
    H831     H        0.47277    0.87743    0.60203    1.000
    C888     C        0.48431    0.92299    0.62327    1.000
    H832     H        0.47577    0.90773    0.63623    1.000
    C889     C        0.49811    0.96344    0.62411    1.000
    C890     C        0.51270    0.98605    0.60469    1.000
    H833     H        0.52327    0.01353    0.60543    1.000
    C891     C        0.49994    0.98355    0.64578    1.000
    C892     C        0.70758    0.20339    0.48991    1.000
    C893     C        0.68141    0.19966    0.47072    1.000
    C894     C        0.65388    0.21271    0.47233    1.000
    H834     H        0.65257    0.22533    0.48533    1.000
    C895     C        0.62836    0.20698    0.45458    1.000
    H835     H        0.60997    0.21573    0.45563    1.000
    C896     C        0.63036    0.18819    0.43521    1.000
    H836     H        0.61327    0.18433    0.42333    1.000
    C897     C        0.65789    0.17514    0.43360    1.000
    C898     C        0.68341    0.18087    0.45136    1.000
    H837     H        0.70177    0.17213    0.45033    1.000
    C899     C        0.67833    0.13665    0.41396    1.000
    H838     H        0.67337    0.12183    0.42783    1.000
    H839     H        0.70677    0.15503    0.41273    1.000
    C900     C        0.66393    0.10784    0.39412    1.000
    C901     C        0.62823    0.07249    0.39541    1.000
    C902     C        0.61858    0.04388    0.37810    1.000
    C903     C        0.64523    0.05116    0.36128    1.000
    C904     C        0.68048    0.08802    0.35929    1.000
    C905     C        0.68924    0.11781    0.37492    1.000
    C906     C        0.72545    0.15890    0.37274    1.000
    H840     H        0.71997    0.17823    0.37943    1.000
    H841     H        0.73167    0.16513    0.35723    1.000
    H842     H        0.74767    0.15943    0.38023    1.000
    C907     C        0.60109    0.06270    0.41427    1.000
    H843     H        0.60397    0.04463    0.42413    1.000
    H844     H        0.57407    0.05033    0.40893    1.000
    H845     H        0.60737    0.08673    0.42223    1.000
    C908     C        0.63591    0.01763    0.34444    1.000
    H846     H        0.62907    0.99343    0.35233    1.000
    H847     H        0.65897    0.02503    0.33523    1.000
    H848     H        0.61387    0.01353    0.33523    1.000
    C909     C        0.58043    0.00500    0.37947    1.000
    H849     H        0.56167    0.00703    0.38933    1.000
    H850     H        0.56827    0.99653    0.36483    1.000
    C910     C        0.56537    0.93814    0.38609    1.000
    C911     C        0.57987    0.91215    0.38967    1.000
    H851     H        0.60697    0.92223    0.39243    1.000
    C912     C        0.55396    0.87110    0.38909    1.000
    H852     H        0.56367    0.85373    0.39153    1.000
    C913     C        0.51354    0.85604    0.38494    1.000
    H853     H        0.49617    0.82853    0.38453    1.000
    C914     C        0.49902    0.88202    0.38137    1.000
    C915     C        0.52493    0.92307    0.38195    1.000
    H854     H        0.51517    0.94043    0.37953    1.000
    C916     C        0.45698    0.86603    0.37726    1.000
    C917     C        0.71008    0.09181    0.34204    1.000
    H855     H        0.73467    0.11683    0.34423    1.000
    H856     H        0.71587    0.07033    0.34403    1.000
    C918     C        0.71146    0.07614    0.30408    1.000
    C919     C        0.69054    0.06536    0.28402    1.000
    H857     H        0.66817    0.06813    0.28223    1.000
    C920     C        0.70310    0.05046    0.26662    1.000
    H858     H        0.68907    0.04323    0.25323    1.000
    C921     C        0.73661    0.04636    0.26927    1.000
    H859     H        0.74507    0.03643    0.25763    1.000
    C922     C        0.75753    0.05714    0.28933    1.000
    C923     C        0.74497    0.07204    0.30673    1.000
    H860     H        0.75897    0.07923    0.32013    1.000
    C924     C        0.79361    0.05342    0.29203    1.000
    Mn40     Mn       0.84518    0.16883    0.47235    1.000
    Mn41     Mn       0.78196    0.19335    0.50485    1.000
    Mn42     Mn       0.71239    0.19339    0.54085    1.000
    O261     O        0.79207    0.12192    0.45283    1.000
    O262     O        0.77530    0.15178    0.47686    1.000
    O263     O        0.62442    0.05831    0.48296    1.000
    O264     O        0.52485    0.98845    0.56507    1.000
    O265     O        0.51237    0.02030    0.64479    1.000
    O266     O        0.48937    0.96307    0.66296    1.000
    O267     O        0.47587    0.07822    0.49674    1.000
    O268     O        0.41797    0.16797    0.49233    1.000
    O269     O        0.35908    0.12949    0.47683    1.000
    O270     O        0.73745    0.20223    0.48583    1.000
    O271     O        0.69645    0.20778    0.50842    1.000
    O272     O        0.65751    0.15794    0.41398    1.000
    O273     O        0.59223    0.97688    0.38843    1.000
    O274     O        0.44574    0.89012    0.37093    1.000
    O275     O        0.43130    0.83058    0.38077    1.000
    O276     O        0.69659    0.09054    0.32003    1.000
    O277     O        0.80955    0.05905    0.31070    1.000
    O278     O        0.80738    0.04470    0.27500    1.000
    O279     O        0.89357    0.16343    0.46203    1.000
    O280     O        0.90197    0.16873    0.46493    1.000
    H861     H        0.89647    0.14213    0.46243    1.000
    H862     H        0.91527    0.18473    0.45213    1.000
    H863     H        0.92387    0.19543    0.46583    1.000
    H864     H        0.90497    0.15273    0.47613    1.000
    H865     H        0.88547    0.13613    0.45923    1.000
    H866     H        0.90337    0.17833    0.44843    1.000
    H867     H        0.91647    0.18953    0.46123    1.000
    H868     H        0.89867    0.14733    0.47203    1.000
    C925     C        0.43179    0.45797    0.79671    1.000
    C926     C        0.39012    0.42784    0.79328    1.000
    C927     C        0.38024    0.39565    0.77891    1.000
    H869     H        0.40003    0.39587    0.76997    1.000
    C928     C        0.34253    0.36420    0.77776    1.000
    H870     H        0.33643    0.34297    0.76817    1.000
    C929     C        0.31419    0.36397    0.79051    1.000
    H871     H        0.28843    0.34227    0.78987    1.000
    C930     C        0.32249    0.39595    0.80501    1.000
    C931     C        0.36063    0.42781    0.80635    1.000
    H872     H        0.36653    0.44907    0.81587    1.000
    C932     C        0.29528    0.42208    0.83181    1.000
    H873     H        0.30343    0.44697    0.82397    1.000
    H874     H        0.31533    0.42667    0.84297    1.000
    C933     C        0.25481    0.40709    0.84278    1.000
    C934     C        0.22352    0.40498    0.83036    1.000
    C935     C        0.18592    0.38642    0.83958    1.000
    C936     C        0.17990    0.37377    0.86174    1.000
    C937     C        0.21194    0.37737    0.87396    1.000
    C938     C        0.25030    0.39266    0.86381    1.000
    C939     C        0.28342    0.39231    0.87709    1.000
    H875     H        0.29933    0.38607    0.86737    1.000
    H876     H        0.27203    0.37257    0.88867    1.000
    H877     H        0.30003    0.41817    0.88367    1.000
    C940     C        0.22965    0.42306    0.80697    1.000
    H878     H        0.25253    0.44947    0.80697    1.000
    H879     H        0.20643    0.42437    0.80267    1.000
    H880     H        0.23383    0.40667    0.79657    1.000
    C941     C        0.13919    0.35569    0.87188    1.000
    H881     H        0.12333    0.36397    0.86357    1.000
    H882     H        0.14133    0.36437    0.88707    1.000
    H883     H        0.12673    0.32707    0.87147    1.000
    C942     C        0.15025    0.37926    0.82602    1.000
    H884     H        0.15543    0.37807    0.81027    1.000
    H885     H        0.12723    0.35407    0.83027    1.000
    C943     C        0.10958    0.40791    0.81953    1.000
    C944     C        0.08424    0.37555    0.80623    1.000
    H886     H        0.08963    0.35497    0.80377    1.000
    C945     C        0.05076    0.37393    0.79656    1.000
    H887     H        0.03383    0.35227    0.78767    1.000
    C946     C        0.04261    0.40467    0.80020    1.000
    H888     H        0.02023    0.40357    0.79377    1.000
    C947     C        0.06796    0.43704    0.81350    1.000
    C948     C        0.10144    0.43866    0.82317    1.000
    H889     H        0.11833    0.46027    0.83207    1.000
    C949     C        0.05927    0.46951    0.81733    1.000
    C950     C        0.20548    0.36255    0.89794    1.000
    H890     H        0.23043    0.37647    0.90607    1.000
    H891     H        0.18623    0.36807    0.90517    1.000
    C951     C        0.17842    0.30212    0.91807    1.000
    C952     C        0.16398    0.26125    0.91721    1.000
    H892     H        0.16393    0.24937    0.90367    1.000
    C953     C        0.14979    0.23824    0.93613    1.000
    H893     H        0.13943    0.21077    0.93537    1.000
    C954     C        0.15097    0.25633    0.95661    1.000
    H894     H        0.14243    0.24107    0.96957    1.000
    C955     C        0.16477    0.29678    0.95745    1.000
    C956     C        0.17936    0.31939    0.93803    1.000
    H895     H        0.18993    0.34687    0.93877    1.000
    C957     C        0.16660    0.31689    0.97912    1.000
    C958     C        0.37424    0.53673    0.82325    1.000
    C959     C        0.34807    0.53300    0.80406    1.000
    C960     C        0.32054    0.54605    0.80567    1.000
    H896     H        0.31923    0.55867    0.81867    1.000
    C961     C        0.29502    0.54032    0.78792    1.000
    H897     H        0.27663    0.54907    0.78897    1.000
    C962     C        0.29702    0.52153    0.76855    1.000
    H898     H        0.27993    0.51767    0.75667    1.000
    C963     C        0.32455    0.50848    0.76694    1.000
    C964     C        0.35007    0.51421    0.78470    1.000
    H899     H        0.36843    0.50547    0.78367    1.000
    C965     C        0.34499    0.46999    0.74730    1.000
    H900     H        0.34003    0.45517    0.76117    1.000
    H901     H        0.37343    0.48837    0.74607    1.000
    C966     C        0.33059    0.44118    0.72746    1.000
    C967     C        0.29489    0.40583    0.72875    1.000
    C968     C        0.28524    0.37722    0.71144    1.000
    C969     C        0.31189    0.38450    0.69462    1.000
    C970     C        0.34714    0.42136    0.69263    1.000
    C971     C        0.35590    0.45115    0.70826    1.000
    C972     C        0.39211    0.49224    0.70608    1.000
    H902     H        0.38663    0.51157    0.71277    1.000
    H903     H        0.39833    0.49847    0.69057    1.000
    H904     H        0.41433    0.49277    0.71357    1.000
    C973     C        0.26775    0.39604    0.74761    1.000
    H905     H        0.27063    0.37797    0.75747    1.000
    H906     H        0.24073    0.38367    0.74227    1.000
    H907     H        0.27403    0.42007    0.75557    1.000
    C974     C        0.30257    0.35097    0.67778    1.000
    H908     H        0.29573    0.32677    0.68567    1.000
    H909     H        0.32563    0.35837    0.66857    1.000
    H910     H        0.28053    0.34687    0.66857    1.000
    C975     C        0.24709    0.33834    0.71281    1.000
    H911     H        0.22833    0.34037    0.72267    1.000
    H912     H        0.23493    0.32987    0.69817    1.000
    C976     C        0.23203    0.27148    0.71943    1.000
    C977     C        0.24653    0.24549    0.72301    1.000
    H913     H        0.27363    0.25557    0.72577    1.000
    C978     C        0.22062    0.20444    0.72243    1.000
    H914     H        0.23033    0.18707    0.72487    1.000
    C979     C        0.18020    0.18938    0.71828    1.000
    H915     H        0.16283    0.16187    0.71787    1.000
    C980     C        0.16568    0.21536    0.71471    1.000
    C981     C        0.19159    0.25641    0.71529    1.000
    H916     H        0.18183    0.27377    0.71287    1.000
    C982     C        0.12364    0.19937    0.71060    1.000
    C983     C        0.37674    0.42515    0.67538    1.000
    H917     H        0.40133    0.45017    0.67757    1.000
    H918     H        0.38253    0.40367    0.67737    1.000
    C984     C        0.37812    0.40948    0.63742    1.000
    C985     C        0.35720    0.39870    0.61736    1.000
    H919     H        0.33483    0.40147    0.61557    1.000
    C986     C        0.36976    0.38380    0.59996    1.000
    H920     H        0.35573    0.37657    0.58657    1.000
    C987     C        0.40327    0.37970    0.60261    1.000
    H921     H        0.41173    0.36977    0.59097    1.000
    C988     C        0.42419    0.39048    0.62267    1.000
    C989     C        0.41163    0.40538    0.64007    1.000
    H922     H        0.42563    0.41257    0.65347    1.000
    C990     C        0.46027    0.38676    0.62537    1.000
    Mn43     Mn       0.51185    0.50216    0.80569    1.000
    Mn44     Mn       0.44863    0.52669    0.83818    1.000
    Mn45     Mn       0.37906    0.52672    0.87418    1.000
    O281     O        0.45873    0.45526    0.78617    1.000
    O282     O        0.44196    0.48512    0.81020    1.000
    O283     O        0.29108    0.39165    0.81630    1.000
    O284     O        0.19151    0.32179    0.89841    1.000
    O285     O        0.17903    0.35364    0.97813    1.000
    O286     O        0.15603    0.29641    0.99630    1.000
    O287     O        0.14253    0.41156    0.83008    1.000
    O288     O        0.08463    0.50131    0.82567    1.000
    O289     O        0.02574    0.46283    0.81017    1.000
    O290     O        0.40411    0.53557    0.81917    1.000
    O291     O        0.36311    0.54112    0.84176    1.000
    O292     O        0.32417    0.49128    0.74732    1.000
    O293     O        0.25889    0.31022    0.72177    1.000
    O294     O        0.11240    0.22346    0.70427    1.000
    O295     O        0.09796    0.16392    0.71411    1.000
    O296     O        0.36325    0.42388    0.65337    1.000
    O297     O        0.47621    0.39239    0.64404    1.000
    O298     O        0.47404    0.37804    0.60834    1.000
    O299     O        0.56023    0.49677    0.79537    1.000
    O300     O        0.56863    0.50207    0.79827    1.000
    H923     H        0.56313    0.47547    0.79577    1.000
    H924     H        0.58193    0.51807    0.78547    1.000
    H925     H        0.59053    0.52877    0.79917    1.000
    H926     H        0.57163    0.48607    0.80947    1.000
    H927     H        0.55213    0.46947    0.79257    1.000
    H928     H        0.57003    0.51167    0.78177    1.000
    H929     H        0.58313    0.52287    0.79457    1.000
    H930     H        0.56533    0.48067    0.80537    1.000
    C991     C        0.69284    0.90154    0.13004    1.000
    C992     C        0.70438    0.94321    0.12661    1.000
    C993     C        0.68207    0.95309    0.11224    1.000
    H931     H        0.66250    0.93330    0.10330    1.000
    C994     C        0.68833    0.99080    0.11109    1.000
    H932     H        0.67320    0.99690    0.10150    1.000
    C995     C        0.71644    0.01914    0.12384    1.000
    H933     H        0.72050    0.04490    0.12320    1.000
    C996     C        0.74012    0.01084    0.13834    1.000
    C997     C        0.73384    0.97270    0.13968    1.000
    H934     H        0.74920    0.96680    0.14920    1.000
    C998     C        0.79346    0.03805    0.16514    1.000
    H935     H        0.81020    0.02990    0.15730    1.000
    H936     H        0.77800    0.01800    0.17630    1.000
    C999     C        0.81894    0.07852    0.17611    1.000
    C1000    C        0.84812    0.10981    0.16369    1.000
    C1001    C        0.86716    0.14741    0.17291    1.000
    C1002    C        0.86053    0.15343    0.19507    1.000
    C1003    C        0.83209    0.12139    0.20729    1.000
    C1004    C        0.80902    0.08303    0.19714    1.000
    C1005    C        0.77555    0.04991    0.21042    1.000
    H937     H        0.75340    0.03400    0.20070    1.000
    H938     H        0.76720    0.06130    0.22200    1.000
    H939     H        0.78480    0.03330    0.21700    1.000
    C1006    C        0.86007    0.10368    0.14030    1.000
    H940     H        0.86360    0.08080    0.14030    1.000
    H941     H        0.88460    0.12690    0.13600    1.000
    H942     H        0.83950    0.09950    0.12990    1.000
    C1007    C        0.88316    0.19414    0.20521    1.000
    H943     H        0.90730    0.21000    0.19690    1.000
    H944     H        0.88970    0.19200    0.22040    1.000
    H945     H        0.86700    0.20660    0.20480    1.000
    C1008    C        0.89567    0.18308    0.15935    1.000
    H946     H        0.88930    0.17790    0.14360    1.000
    H947     H        0.89350    0.20610    0.16360    1.000
    C1009    C        0.96499    0.22375    0.15286    1.000
    C1010    C        0.95797    0.24909    0.13956    1.000
    H948     H        0.93200    0.24370    0.13710    1.000
    C1011    C        0.98983    0.28257    0.12989    1.000
    H949     H        0.98510    0.29950    0.12100    1.000
    C1012    C        0.02872    0.29072    0.13353    1.000
    H950     H        0.05000    0.31310    0.12710    1.000
    C1013    C        0.03574    0.26537    0.14683    1.000
    C1014    C        0.00388    0.23189    0.15650    1.000
    H951     H        0.00860    0.21500    0.16540    1.000
    C1015    C        0.07690    0.27406    0.15066    1.000
    C1016    C        0.82373    0.12785    0.23127    1.000
    H952     H        0.81270    0.10290    0.23940    1.000
    H953     H        0.84850    0.14710    0.23850    1.000
    C1017    C        0.79036    0.15491    0.25140    1.000
    C1018    C        0.76393    0.16935    0.25054    1.000
    H954     H        0.75210    0.16940    0.23700    1.000
    C1019    C        0.75511    0.18354    0.26946    1.000
    H955     H        0.73800    0.19390    0.26870    1.000
    C1020    C        0.77202    0.18236    0.28994    1.000
    H956     H        0.76530    0.19090    0.30290    1.000
    C1021    C        0.79867    0.16856    0.29078    1.000
    C1022    C        0.80669    0.15397    0.27136    1.000
    H957     H        0.82360    0.14340    0.27210    1.000
    C1023    C        0.81695    0.16673    0.31245    1.000
    C1024    C        0.82915    0.95909    0.15658    1.000
    C1025    C        0.85159    0.98526    0.13739    1.000
    C1026    C        0.89217    0.01279    0.13900    1.000
    H958     H        0.90610    0.01410    0.15200    1.000
    C1027    C        0.91196    0.03831    0.12125    1.000
    H959     H        0.93910    0.05670    0.12230    1.000
    C1028    C        0.89117    0.03631    0.10188    1.000
    H960     H        0.90440    0.05340    0.09000    1.000
    C1029    C        0.85059    0.00878    0.10027    1.000
    C1030    C        0.83080    0.98326    0.11803    1.000
    H961     H        0.80370    0.96490    0.11700    1.000
    C1031    C        0.79166    0.98834    0.08063    1.000
    H962     H        0.78180    0.99330    0.09450    1.000
    H963     H        0.78160    0.95990    0.07940    1.000
    C1032    C        0.77725    0.00274    0.06079    1.000
    C1033    C        0.77760    0.03844    0.06208    1.000
    C1034    C        0.75864    0.04809    0.04477    1.000
    C1035    C        0.73927    0.02144    0.02795    1.000
    C1036    C        0.74088    0.98619    0.02596    1.000
    C1037    C        0.76191    0.97743    0.04159    1.000
    C1038    C        0.76679    0.94122    0.03941    1.000
    H964     H        0.79160    0.94670    0.04610    1.000
    H965     H        0.76680    0.93500    0.02390    1.000
    H966     H        0.74510    0.91900    0.04690    1.000
    C1039    C        0.79495    0.06558    0.08094    1.000
    H967     H        0.77400    0.06270    0.09080    1.000
    H968     H        0.80960    0.09260    0.07560    1.000
    H969     H        0.81270    0.05930    0.08890    1.000
    C1040    C        0.71506    0.03076    0.01111    1.000
    H970     H        0.69770    0.03760    0.01900    1.000
    H971     H        0.69940    0.00770    0.00190    1.000
    H972     H        0.73300    0.05280    0.00190    1.000
    C1041    C        0.75791    0.08624    0.04614    1.000
    H973     H        0.77870    0.10500    0.05600    1.000
    H974     H        0.76160    0.09840    0.03150    1.000
    C1042    C        0.70611    0.10130    0.05276    1.000
    C1043    C        0.66562    0.08680    0.05634    1.000
    H975     H        0.64860    0.05970    0.05910    1.000
    C1044    C        0.65048    0.11271    0.05576    1.000
    H976     H        0.62340    0.10300    0.05820    1.000
    C1045    C        0.67584    0.15313    0.05161    1.000
    H977     H        0.66570    0.17050    0.05120    1.000
    C1046    C        0.71634    0.16765    0.04804    1.000
    C1047    C        0.73148    0.14174    0.04862    1.000
    H978     H        0.75860    0.15150    0.04620    1.000
    C1048    C        0.74239    0.20969    0.04393    1.000
    C1049    C        0.71507    0.95659    0.00871    1.000
    H979     H        0.71550    0.93200    0.01090    1.000
    H980     H        0.68780    0.95080    0.01070    1.000
    C1050    C        0.69802    0.95521    0.97075    1.000
    C1051    C        0.70816    0.97613    0.95069    1.000
    H981     H        0.73330    0.99850    0.94890    1.000
    C1052    C        0.68070    0.96357    0.93329    1.000
    H982     H        0.68750    0.97760    0.91990    1.000
    C1053    C        0.64309    0.93006    0.93594    1.000
    H983     H        0.62470    0.92160    0.92430    1.000
    C1054    C        0.63295    0.90914    0.95600    1.000
    C1055    C        0.66041    0.92170    0.97340    1.000
    H984     H        0.65360    0.90770    0.98680    1.000
    C1056    C        0.59315    0.87306    0.95870    1.000
    Mn46     Mn       0.65698    0.82149    0.13902    1.000
    Mn47     Mn       0.74473    0.88471    0.17152    1.000
    Mn48     Mn       0.81433    0.95427    0.20752    1.000
    O301     O        0.66319    0.87460    0.11950    1.000
    O302     O        0.70982    0.89137    0.14353    1.000
    O303     O        0.76723    0.04225    0.14963    1.000
    O304     O        0.79694    0.14182    0.23174    1.000
    O305     O        0.84127    0.15430    0.31146    1.000
    O306     O        0.80704    0.17730    0.32963    1.000
    O307     O        0.93569    0.19080    0.16341    1.000
    O308     O        0.08334    0.24870    0.15900    1.000
    O309     O        0.10375    0.30759    0.14350    1.000
    O310     O        0.79812    0.92922    0.15250    1.000
    O311     O        0.84467    0.97022    0.17509    1.000
    O312     O        0.83377    0.00916    0.08065    1.000
    O313     O        0.71799    0.07444    0.05510    1.000
    O314     O        0.77772    0.22093    0.03760    1.000
    O315     O        0.73262    0.23537    0.04744    1.000
    O316     O        0.72729    0.97008    0.98670    1.000
    O317     O        0.58284    0.85712    0.97737    1.000
    O318     O        0.57066    0.85929    0.94167    1.000
    O319     O        0.60320    0.77310    0.12870    1.000
    O320     O        0.60010    0.76470    0.13160    1.000
    H985     H        0.57900    0.77020    0.12910    1.000
    H986     H        0.60280    0.75140    0.11880    1.000
    H987     H        0.60490    0.74280    0.13250    1.000
    H988     H        0.58110    0.76170    0.14280    1.000
    H989     H        0.58400    0.78120    0.12590    1.000
    H990     H        0.60830    0.76330    0.11510    1.000
    H991     H        0.60640    0.75020    0.12790    1.000
    H992     H        0.58200    0.76800    0.13870    1.000
    C1057    C        0.35951    0.23487    0.46337    1.000
    C1058    C        0.37105    0.27654    0.45994    1.000
    C1059    C        0.34874    0.28642    0.44557    1.000
    H993     H        0.32917    0.26663    0.43663    1.000
    C1060    C        0.35500    0.32413    0.44442    1.000
    H994     H        0.33987    0.33023    0.43483    1.000
    C1061    C        0.38311    0.35247    0.45717    1.000
    H995     H        0.38717    0.37823    0.45653    1.000
    C1062    C        0.40679    0.34417    0.47167    1.000
    C1063    C        0.40051    0.30603    0.47301    1.000
    H996     H        0.41587    0.30013    0.48253    1.000
    C1064    C        0.46013    0.37138    0.49847    1.000
    H997     H        0.47687    0.36323    0.49063    1.000
    H998     H        0.44467    0.35133    0.50963    1.000
    C1065    C        0.48561    0.41185    0.50944    1.000
    C1066    C        0.51479    0.44314    0.49702    1.000
    C1067    C        0.53383    0.48074    0.50624    1.000
    C1068    C        0.52720    0.48676    0.52840    1.000
    C1069    C        0.49876    0.45472    0.54062    1.000
    C1070    C        0.47569    0.41636    0.53047    1.000
    C1071    C        0.44222    0.38324    0.54375    1.000
    H999     H        0.42007    0.36733    0.53403    1.000
    H1000    H        0.43387    0.39463    0.55533    1.000
    H1001    H        0.45147    0.36663    0.55033    1.000
    C1072    C        0.52674    0.43701    0.47363    1.000
    H1002    H        0.53027    0.41413    0.47363    1.000
    H1003    H        0.55127    0.46023    0.46933    1.000
    H1004    H        0.50617    0.43283    0.46323    1.000
    C1073    C        0.54983    0.52747    0.53854    1.000
    H1005    H        0.57397    0.54333    0.53023    1.000
    H1006    H        0.55637    0.52533    0.55373    1.000
    H1007    H        0.53367    0.53993    0.53813    1.000
    C1074    C        0.56234    0.51641    0.49268    1.000
    H1008    H        0.55597    0.51123    0.47693    1.000
    H1009    H        0.56017    0.53943    0.49693    1.000
    C1075    C        0.63166    0.55708    0.48619    1.000
    C1076    C        0.62464    0.58242    0.47289    1.000
    H1010    H        0.59867    0.57703    0.47043    1.000
    C1077    C        0.65650    0.61590    0.46322    1.000
    H1011    H        0.65177    0.63283    0.45433    1.000
    C1078    C        0.69539    0.62405    0.46686    1.000
    H1012    H        0.71667    0.64643    0.46043    1.000
    C1079    C        0.70241    0.59870    0.48016    1.000
    C1080    C        0.67055    0.56522    0.48983    1.000
    H1013    H        0.67527    0.54833    0.49873    1.000
    C1081    C        0.74357    0.60739    0.48399    1.000
    C1082    C        0.49040    0.46118    0.56460    1.000
    H1014    H        0.47937    0.43623    0.57273    1.000
    H1015    H        0.51517    0.48043    0.57183    1.000
    C1083    C        0.45703    0.48824    0.58473    1.000
    C1084    C        0.43060    0.50268    0.58387    1.000
    H1016    H        0.41877    0.50273    0.57033    1.000
    C1085    C        0.42178    0.51687    0.60279    1.000
    H1017    H        0.40467    0.52723    0.60203    1.000
    C1086    C        0.43869    0.51569    0.62327    1.000
    H1018    H        0.43197    0.52423    0.63623    1.000
    C1087    C        0.46534    0.50189    0.62411    1.000
    C1088    C        0.47336    0.48730    0.60469    1.000
    H1019    H        0.49027    0.47673    0.60543    1.000
    C1089    C        0.48362    0.50006    0.64578    1.000
    C1090    C        0.49582    0.29242    0.48991    1.000
    C1091    C        0.51826    0.31859    0.47072    1.000
    C1092    C        0.55884    0.34612    0.47233    1.000
    H1020    H        0.57277    0.34743    0.48533    1.000
    C1093    C        0.57863    0.37164    0.45458    1.000
    H1021    H        0.60577    0.39003    0.45563    1.000
    C1094    C        0.55784    0.36964    0.43521    1.000
    H1022    H        0.57107    0.38673    0.42333    1.000
    C1095    C        0.51726    0.34211    0.43360    1.000
    C1096    C        0.49747    0.31659    0.45136    1.000
    H1023    H        0.47037    0.29823    0.45033    1.000
    C1097    C        0.45833    0.32167    0.41396    1.000
    H1024    H        0.44847    0.32663    0.42783    1.000
    H1025    H        0.44827    0.29323    0.41273    1.000
    C1098    C        0.44392    0.33607    0.39412    1.000
    C1099    C        0.44427    0.37177    0.39541    1.000
    C1100    C        0.42531    0.38142    0.37810    1.000
    C1101    C        0.40594    0.35477    0.36128    1.000
    C1102    C        0.40755    0.31952    0.35929    1.000
    C1103    C        0.42858    0.31076    0.37492    1.000
    C1104    C        0.43346    0.27455    0.37274    1.000
    H1026    H        0.45827    0.28003    0.37943    1.000
    H1027    H        0.43347    0.26833    0.35723    1.000
    H1028    H        0.41177    0.25233    0.38023    1.000
    C1105    C        0.46162    0.39891    0.41427    1.000
    H1029    H        0.44067    0.39603    0.42413    1.000
    H1030    H        0.47627    0.42593    0.40893    1.000
    H1031    H        0.47937    0.39263    0.42223    1.000
    C1106    C        0.38173    0.36409    0.34444    1.000
    H1032    H        0.36437    0.37093    0.35233    1.000
    H1033    H        0.36607    0.34103    0.33523    1.000
    H1034    H        0.39967    0.38613    0.33523    1.000
    C1107    C        0.42458    0.41957    0.37947    1.000
    H1035    H        0.44537    0.43833    0.38933    1.000
    H1036    H        0.42827    0.43173    0.36483    1.000
    C1108    C        0.37278    0.43463    0.38609    1.000
    C1109    C        0.33229    0.42013    0.38967    1.000
    H1037    H        0.31527    0.39303    0.39243    1.000
    C1110    C        0.31715    0.44604    0.38909    1.000
    H1038    H        0.29007    0.43633    0.39153    1.000
    C1111    C        0.34251    0.48646    0.38494    1.000
    H1039    H        0.33237    0.50383    0.38453    1.000
    C1112    C        0.38301    0.50098    0.38137    1.000
    C1113    C        0.39815    0.47507    0.38195    1.000
    H1040    H        0.42527    0.48483    0.37953    1.000
    C1114    C        0.40906    0.54302    0.37726    1.000
    C1115    C        0.38174    0.28992    0.34204    1.000
    H1041    H        0.38217    0.26533    0.34423    1.000
    H1042    H        0.35447    0.28413    0.34403    1.000
    C1116    C        0.36469    0.28854    0.30408    1.000
    C1117    C        0.37483    0.30946    0.28402    1.000
    H1043    H        0.39997    0.33183    0.28223    1.000
    C1118    C        0.34737    0.29690    0.26662    1.000
    H1044    H        0.35417    0.31093    0.25323    1.000
    C1119    C        0.30976    0.26339    0.26927    1.000
    H1045    H        0.29137    0.25493    0.25763    1.000
    C1120    C        0.29962    0.24247    0.28933    1.000
    C1121    C        0.32708    0.25503    0.30673    1.000
    H1046    H        0.32027    0.24103    0.32013    1.000
    C1122    C        0.25982    0.20639    0.29203    1.000
    Mn49     Mn       0.32365    0.15482    0.47235    1.000
    Mn50     Mn       0.41139    0.21804    0.50485    1.000
    Mn51     Mn       0.48100    0.28761    0.54085    1.000
    O321     O        0.32986    0.20793    0.45283    1.000
    O322     O        0.37649    0.22470    0.47686    1.000
    O323     O        0.43390    0.37558    0.48296    1.000
    O324     O        0.46361    0.47515    0.56507    1.000
    O325     O        0.50794    0.48763    0.64479    1.000
    O326     O        0.47371    0.51063    0.66296    1.000
    O327     O        0.60236    0.52413    0.49674    1.000
    O328     O        0.75001    0.58203    0.49233    1.000
    O329     O        0.77042    0.64092    0.47683    1.000
    O330     O        0.46479    0.26255    0.48583    1.000
    O331     O        0.51134    0.30355    0.50842    1.000
    O332     O        0.50044    0.34249    0.41398    1.000
    O333     O        0.38466    0.40777    0.38843    1.000
    O334     O        0.44439    0.55426    0.37093    1.000
    O335     O        0.39929    0.56870    0.38077    1.000
    O336     O        0.39396    0.30341    0.32003    1.000
    O337     O        0.24951    0.19045    0.31070    1.000
    O338     O        0.23733    0.19262    0.27500    1.000
    O339     O        0.26987    0.10643    0.46203    1.000
    O340     O        0.26677    0.09803    0.46493    1.000
    H1047    H        0.24567    0.10353    0.46243    1.000
    H1048    H        0.26947    0.08473    0.45213    1.000
    H1049    H        0.27157    0.07613    0.46583    1.000
    H1050    H        0.24777    0.09503    0.47613    1.000
    H1051    H        0.25067    0.11453    0.45923    1.000
    H1052    H        0.27497    0.09663    0.44843    1.000
    H1053    H        0.27307    0.08353    0.46123    1.000
    H1054    H        0.24867    0.10133    0.47203    1.000
    C1123    C        0.02617    0.56821    0.79671    1.000
    C1124    C        0.03771    0.60988    0.79328    1.000
    C1125    C        0.01540    0.61976    0.77891    1.000
    H1055    H        0.99583    0.59997    0.76997    1.000
    C1126    C        0.02166    0.65747    0.77776    1.000
    H1056    H        0.00653    0.66357    0.76817    1.000
    C1127    C        0.04977    0.68581    0.79051    1.000
    H1057    H        0.05383    0.71157    0.78987    1.000
    C1128    C        0.07345    0.67751    0.80501    1.000
    C1129    C        0.06717    0.63937    0.80635    1.000
    H1058    H        0.08253    0.63347    0.81587    1.000
    C1130    C        0.12679    0.70472    0.83181    1.000
    H1059    H        0.14353    0.69657    0.82397    1.000
    H1060    H        0.11133    0.68467    0.84297    1.000
    C1131    C        0.15227    0.74519    0.84278    1.000
    C1132    C        0.18145    0.77648    0.83036    1.000
    C1133    C        0.20049    0.81408    0.83958    1.000
    C1134    C        0.19386    0.82010    0.86174    1.000
    C1135    C        0.16542    0.78806    0.87396    1.000
    C1136    C        0.14235    0.74970    0.86381    1.000
    C1137    C        0.10888    0.71658    0.87709    1.000
    H1061    H        0.08673    0.70067    0.86737    1.000
    H1062    H        0.10053    0.72797    0.88867    1.000
    H1063    H        0.11813    0.69997    0.88367    1.000
    C1138    C        0.19340    0.77035    0.80697    1.000
    H1064    H        0.19693    0.74747    0.80697    1.000
    H1065    H        0.21793    0.79357    0.80267    1.000
    H1066    H        0.17283    0.76617    0.79657    1.000
    C1139    C        0.21649    0.86081    0.87188    1.000
    H1067    H        0.24063    0.87667    0.86357    1.000
    H1068    H        0.22303    0.85867    0.88707    1.000
    H1069    H        0.20033    0.87327    0.87147    1.000
    C1140    C        0.22900    0.84975    0.82602    1.000
    H1070    H        0.22263    0.84457    0.81027    1.000
    H1071    H        0.22683    0.87277    0.83027    1.000
    C1141    C        0.29832    0.89042    0.81953    1.000
    C1142    C        0.29130    0.91576    0.80623    1.000
    H1072    H        0.26533    0.91037    0.80377    1.000
    C1143    C        0.32316    0.94924    0.79656    1.000
    H1073    H        0.31843    0.96617    0.78767    1.000
    C1144    C        0.36205    0.95739    0.80020    1.000
    H1074    H        0.38333    0.97977    0.79377    1.000
    C1145    C        0.36907    0.93204    0.81350    1.000
    C1146    C        0.33721    0.89856    0.82317    1.000
    H1075    H        0.34193    0.88167    0.83207    1.000
    C1147    C        0.41023    0.94073    0.81733    1.000
    C1148    C        0.15706    0.79452    0.89794    1.000
    H1076    H        0.14603    0.76957    0.90607    1.000
    H1077    H        0.18183    0.81377    0.90517    1.000
    C1149    C        0.12369    0.82158    0.91807    1.000
    C1150    C        0.09726    0.83602    0.91721    1.000
    H1078    H        0.08543    0.83607    0.90367    1.000
    C1151    C        0.08844    0.85021    0.93613    1.000
    H1079    H        0.07133    0.86057    0.93537    1.000
    C1152    C        0.10535    0.84903    0.95661    1.000
    H1080    H        0.09863    0.85757    0.96957    1.000
    C1153    C        0.13200    0.83523    0.95745    1.000
    C1154    C        0.14002    0.82064    0.93803    1.000
    H1081    H        0.15693    0.81007    0.93877    1.000
    C1155    C        0.15028    0.83340    0.97912    1.000
    C1156    C        0.16248    0.62576    0.82325    1.000
    C1157    C        0.18492    0.65193    0.80406    1.000
    C1158    C        0.22550    0.67946    0.80567    1.000
    H1082    H        0.23943    0.68077    0.81867    1.000
    C1159    C        0.24529    0.70498    0.78792    1.000
    H1083    H        0.27243    0.72337    0.78897    1.000
    C1160    C        0.22450    0.70298    0.76855    1.000
    H1084    H        0.23773    0.72007    0.75667    1.000
    C1161    C        0.18392    0.67545    0.76694    1.000
    C1162    C        0.16413    0.64993    0.78470    1.000
    H1085    H        0.13703    0.63157    0.78367    1.000
    C1163    C        0.12499    0.65501    0.74730    1.000
    H1086    H        0.11513    0.65997    0.76117    1.000
    H1087    H        0.11493    0.62657    0.74607    1.000
    C1164    C        0.11058    0.66941    0.72746    1.000
    C1165    C        0.11093    0.70511    0.72875    1.000
    C1166    C        0.09197    0.71476    0.71144    1.000
    C1167    C        0.07260    0.68811    0.69462    1.000
    C1168    C        0.07421    0.65286    0.69263    1.000
    C1169    C        0.09524    0.64410    0.70826    1.000
    C1170    C        0.10012    0.60789    0.70608    1.000
    H1088    H        0.12493    0.61337    0.71277    1.000
    H1089    H        0.10013    0.60167    0.69057    1.000
    H1090    H        0.07843    0.58567    0.71357    1.000
    C1171    C        0.12828    0.73225    0.74761    1.000
    H1091    H        0.10733    0.72937    0.75747    1.000
    H1092    H        0.14293    0.75927    0.74227    1.000
    H1093    H        0.14603    0.72597    0.75557    1.000
    C1172    C        0.04839    0.69743    0.67778    1.000
    H1094    H        0.03103    0.70427    0.68567    1.000
    H1095    H        0.03273    0.67437    0.66857    1.000
    H1096    H        0.06633    0.71947    0.66857    1.000
    C1173    C        0.09124    0.75291    0.71281    1.000
    H1097    H        0.11203    0.77167    0.72267    1.000
    H1098    H        0.09493    0.76507    0.69817    1.000
    C1174    C        0.03944    0.76797    0.71943    1.000
    C1175    C        0.99895    0.75347    0.72301    1.000
    H1099    H        0.98193    0.72637    0.72577    1.000
    C1176    C        0.98381    0.77938    0.72243    1.000
    H1100    H        0.95673    0.76967    0.72487    1.000
    C1177    C        0.00917    0.81980    0.71828    1.000
    H1101    H        0.99903    0.83717    0.71787    1.000
    C1178    C        0.04967    0.83432    0.71471    1.000
    C1179    C        0.06481    0.80841    0.71529    1.000
    H1102    H        0.09193    0.81817    0.71287    1.000
    C1180    C        0.07572    0.87636    0.71060    1.000
    C1181    C        0.04840    0.62326    0.67538    1.000
    H1103    H        0.04883    0.59867    0.67757    1.000
    H1104    H        0.02113    0.61747    0.67737    1.000
    C1182    C        0.03135    0.62188    0.63742    1.000
    C1183    C        0.04149    0.64280    0.61736    1.000
    H1105    H        0.06663    0.66517    0.61557    1.000
    C1184    C        0.01403    0.63024    0.59996    1.000
    H1106    H        0.02083    0.64427    0.58657    1.000
    C1185    C        0.97642    0.59673    0.60261    1.000
    H1107    H        0.95803    0.58827    0.59097    1.000
    C1186    C        0.96628    0.57581    0.62267    1.000
    C1187    C        0.99374    0.58837    0.64007    1.000
    H1108    H        0.98693    0.57437    0.65347    1.000
    C1188    C        0.92648    0.53973    0.62537    1.000
    Mn52     Mn       0.99032    0.48815    0.80569    1.000
    Mn53     Mn       0.07806    0.55137    0.83818    1.000
    Mn54     Mn       0.14766    0.62094    0.87418    1.000
    O341     O        0.99652    0.54127    0.78617    1.000
    O342     O        0.04315    0.55804    0.81020    1.000
    O343     O        0.10056    0.70892    0.81630    1.000
    O344     O        0.13027    0.80849    0.89841    1.000
    O345     O        0.17460    0.82097    0.97813    1.000
    O346     O        0.14037    0.84397    0.99630    1.000
    O347     O        0.26902    0.85747    0.83008    1.000
    O348     O        0.41667    0.91537    0.82567    1.000
    O349     O        0.43708    0.97426    0.81017    1.000
    O350     O        0.13145    0.59589    0.81917    1.000
    O351     O        0.17800    0.63689    0.84176    1.000
    O352     O        0.16710    0.67583    0.74732    1.000
    O353     O        0.05132    0.74111    0.72177    1.000
    O354     O        0.11105    0.88760    0.70427    1.000
    O355     O        0.06595    0.90204    0.71411    1.000
    O356     O        0.06062    0.63675    0.65337    1.000
    O357     O        0.91617    0.52379    0.64404    1.000
    O358     O        0.90399    0.52596    0.60834    1.000
    O359     O        0.93653    0.43977    0.79537    1.000
    O360     O        0.93343    0.43137    0.79827    1.000
    H1109    H        0.91233    0.43687    0.79577    1.000
    H1110    H        0.93613    0.41807    0.78547    1.000
    H1111    H        0.93823    0.40947    0.79917    1.000
    H1112    H        0.91443    0.42837    0.80947    1.000
    H1113    H        0.91733    0.44787    0.79257    1.000
    H1114    H        0.94163    0.42997    0.78177    1.000
    H1115    H        0.93973    0.41687    0.79457    1.000
    H1116    H        0.91533    0.43467    0.80537    1.000
    C1189    C        0.69284    0.79130    0.63004    1.000
    C1190    C        0.70438    0.76117    0.62661    1.000
    C1191    C        0.68207    0.72898    0.61224    1.000
    H1117    H        0.66250    0.72920    0.60330    1.000
    C1192    C        0.68833    0.69753    0.61109    1.000
    H1118    H        0.67320    0.67630    0.60150    1.000
    C1193    C        0.71644    0.69730    0.62384    1.000
    H1119    H        0.72050    0.67560    0.62320    1.000
    C1194    C        0.74012    0.72928    0.63834    1.000
    C1195    C        0.73384    0.76114    0.63968    1.000
    H1120    H        0.74920    0.78240    0.64920    1.000
    C1196    C        0.79346    0.75541    0.66514    1.000
    H1121    H        0.81020    0.78030    0.65730    1.000
    H1122    H        0.77800    0.76000    0.67630    1.000
    C1197    C        0.81894    0.74042    0.67611    1.000
    C1198    C        0.84812    0.73831    0.66369    1.000
    C1199    C        0.86716    0.71975    0.67291    1.000
    C1200    C        0.86053    0.70710    0.69507    1.000
    C1201    C        0.83209    0.71070    0.70729    1.000
    C1202    C        0.80902    0.72599    0.69714    1.000
    C1203    C        0.77555    0.72564    0.71042    1.000
    H1123    H        0.75340    0.71940    0.70070    1.000
    H1124    H        0.76720    0.70590    0.72200    1.000
    H1125    H        0.78480    0.75150    0.71700    1.000
    C1204    C        0.86007    0.75639    0.64030    1.000
    H1126    H        0.86360    0.78280    0.64030    1.000
    H1127    H        0.88460    0.75770    0.63600    1.000
    H1128    H        0.83950    0.74000    0.62990    1.000
    C1205    C        0.88316    0.68902    0.70521    1.000
    H1129    H        0.90730    0.69730    0.69690    1.000
    H1130    H        0.88970    0.69770    0.72040    1.000
    H1131    H        0.86700    0.66040    0.70480    1.000
    C1206    C        0.89567    0.71259    0.65935    1.000
    H1132    H        0.88930    0.71140    0.64360    1.000
    H1133    H        0.89350    0.68740    0.66360    1.000
    C1207    C        0.96499    0.74124    0.65286    1.000
    C1208    C        0.95797    0.70888    0.63956    1.000
    H1134    H        0.93200    0.68830    0.63710    1.000
    C1209    C        0.98983    0.70726    0.62989    1.000
    H1135    H        0.98510    0.68560    0.62100    1.000
    C1210    C        0.02872    0.73800    0.63353    1.000
    H1136    H        0.05000    0.73690    0.62710    1.000
    C1211    C        0.03574    0.77037    0.64683    1.000
    C1212    C        0.00388    0.77199    0.65650    1.000
    H1137    H        0.00860    0.79360    0.66540    1.000
    C1213    C        0.07690    0.80284    0.65066    1.000
    C1214    C        0.82373    0.69588    0.73127    1.000
    H1138    H        0.81270    0.70980    0.73940    1.000
    H1139    H        0.84850    0.70140    0.73850    1.000
    C1215    C        0.79036    0.63545    0.75140    1.000
    C1216    C        0.76393    0.59458    0.75054    1.000
    H1140    H        0.75210    0.58270    0.73700    1.000
    C1217    C        0.75511    0.57157    0.76946    1.000
    H1141    H        0.73800    0.54410    0.76870    1.000
    C1218    C        0.77202    0.58966    0.78994    1.000
    H1142    H        0.76530    0.57440    0.80290    1.000
    C1219    C        0.79867    0.63011    0.79078    1.000
    C1220    C        0.80669    0.65272    0.77136    1.000
    H1143    H        0.82360    0.68020    0.77210    1.000
    C1221    C        0.81695    0.65022    0.81245    1.000
    C1222    C        0.82915    0.87006    0.65658    1.000
    C1223    C        0.85159    0.86633    0.63739    1.000
    C1224    C        0.89217    0.87938    0.63900    1.000
    H1144    H        0.90610    0.89200    0.65200    1.000
    C1225    C        0.91196    0.87365    0.62125    1.000
    H1145    H        0.93910    0.88240    0.62230    1.000
    C1226    C        0.89117    0.85486    0.60188    1.000
    H1146    H        0.90440    0.85100    0.59000    1.000
    C1227    C        0.85059    0.84181    0.60027    1.000
    C1228    C        0.83080    0.84754    0.61803    1.000
    H1147    H        0.80370    0.83880    0.61700    1.000
    C1229    C        0.79166    0.80332    0.58063    1.000
    H1148    H        0.78180    0.78850    0.59450    1.000
    H1149    H        0.78160    0.82170    0.57940    1.000
    C1230    C        0.77725    0.77451    0.56079    1.000
    C1231    C        0.77760    0.73916    0.56208    1.000
    C1232    C        0.75864    0.71055    0.54477    1.000
    C1233    C        0.73927    0.71783    0.52795    1.000
    C1234    C        0.74088    0.75469    0.52596    1.000
    C1235    C        0.76191    0.78448    0.54159    1.000
    C1236    C        0.76679    0.82557    0.53941    1.000
    H1150    H        0.79160    0.84490    0.54610    1.000
    H1151    H        0.76680    0.83180    0.52390    1.000
    H1152    H        0.74510    0.82610    0.54690    1.000
    C1237    C        0.79495    0.72937    0.58094    1.000
    H1153    H        0.77400    0.71130    0.59080    1.000
    H1154    H        0.80960    0.71700    0.57560    1.000
    H1155    H        0.81270    0.75340    0.58890    1.000
    C1238    C        0.71506    0.68430    0.51111    1.000
    H1156    H        0.69770    0.66010    0.51900    1.000
    H1157    H        0.69940    0.69170    0.50190    1.000
    H1158    H        0.73300    0.68020    0.50190    1.000
    C1239    C        0.75791    0.67167    0.54614    1.000
    H1159    H        0.77870    0.67370    0.55600    1.000
    H1160    H        0.76160    0.66320    0.53150    1.000
    C1240    C        0.70611    0.60481    0.55276    1.000
    C1241    C        0.66562    0.57882    0.55634    1.000
    H1161    H        0.64860    0.58890    0.55910    1.000
    C1242    C        0.65048    0.53777    0.55576    1.000
    H1162    H        0.62340    0.52040    0.55820    1.000
    C1243    C        0.67584    0.52271    0.55161    1.000
    H1163    H        0.66570    0.49520    0.55120    1.000
    C1244    C        0.71634    0.54869    0.54804    1.000
    C1245    C        0.73148    0.58974    0.54862    1.000
    H1164    H        0.75860    0.60710    0.54620    1.000
    C1246    C        0.74239    0.53270    0.54393    1.000
    C1247    C        0.71507    0.75848    0.50871    1.000
    H1165    H        0.71550    0.78350    0.51090    1.000
    H1166    H        0.68780    0.73700    0.51070    1.000
    C1248    C        0.69802    0.74281    0.47075    1.000
    C1249    C        0.70816    0.73203    0.45069    1.000
    H1167    H        0.73330    0.73480    0.44890    1.000
    C1250    C        0.68070    0.71713    0.43329    1.000
    H1168    H        0.68750    0.70990    0.41990    1.000
    C1251    C        0.64309    0.71303    0.43594    1.000
    H1169    H        0.62470    0.70310    0.42430    1.000
    C1252    C        0.63295    0.72381    0.45600    1.000
    C1253    C        0.66041    0.73871    0.47340    1.000
    H1170    H        0.65360    0.74590    0.48680    1.000
    C1254    C        0.59315    0.72009    0.45870    1.000
    Mn55     Mn       0.65698    0.83550    0.63902    1.000
    Mn56     Mn       0.74473    0.86002    0.67152    1.000
    Mn57     Mn       0.81433    0.86006    0.70752    1.000
    O361     O        0.66319    0.78859    0.61950    1.000
    O362     O        0.70982    0.81845    0.64353    1.000
    O363     O        0.76723    0.72498    0.64963    1.000
    O364     O        0.79694    0.65512    0.73174    1.000
    O365     O        0.84127    0.68697    0.81146    1.000
    O366     O        0.80704    0.62974    0.82963    1.000
    O367     O        0.93569    0.74489    0.66341    1.000
    O368     O        0.08334    0.83464    0.65900    1.000
    O369     O        0.10375    0.79616    0.64350    1.000
    O370     O        0.79812    0.86890    0.65250    1.000
    O371     O        0.84467    0.87445    0.67509    1.000
    O372     O        0.83377    0.82461    0.58065    1.000
    O373     O        0.71799    0.64355    0.55510    1.000
    O374     O        0.77772    0.55679    0.53760    1.000
    O375     O        0.73262    0.49725    0.54744    1.000
    O376     O        0.72729    0.75721    0.48670    1.000
    O377     O        0.58284    0.72572    0.47737    1.000
    O378     O        0.57066    0.71137    0.44167    1.000
    O379     O        0.60320    0.83010    0.62870    1.000
    O380     O        0.60010    0.83540    0.63160    1.000
    H1171    H        0.57900    0.80880    0.62910    1.000
    H1172    H        0.60280    0.85140    0.61880    1.000
    H1173    H        0.60490    0.86210    0.63250    1.000
    H1174    H        0.58110    0.81940    0.64280    1.000
    H1175    H        0.58400    0.80280    0.62590    1.000
    H1176    H        0.60830    0.84500    0.61510    1.000
    H1177    H        0.60640    0.85620    0.62790    1.000
    H1178    H        0.58200    0.81400    0.63870    1.000
    C1255    C        0.35951    0.12463    0.96337    1.000
    C1256    C        0.37105    0.09450    0.95994    1.000
    C1257    C        0.34874    0.06231    0.94557    1.000
    H1179    H        0.32917    0.06253    0.93663    1.000
    C1258    C        0.35500    0.03086    0.94442    1.000
    H1180    H        0.33987    0.00963    0.93483    1.000
    C1259    C        0.38311    0.03063    0.95717    1.000
    H1181    H        0.38717    0.00893    0.95653    1.000
    C1260    C        0.40679    0.06261    0.97167    1.000
    C1261    C        0.40051    0.09447    0.97301    1.000
    H1182    H        0.41587    0.11573    0.98253    1.000
    C1262    C        0.46013    0.08874    0.99847    1.000
    H1183    H        0.47687    0.11363    0.99063    1.000
    H1184    H        0.44467    0.09333    0.00963    1.000
    C1263    C        0.48561    0.07375    0.00944    1.000
    C1264    C        0.51479    0.07164    0.99702    1.000
    C1265    C        0.53383    0.05308    0.00624    1.000
    C1266    C        0.52720    0.04043    0.02840    1.000
    C1267    C        0.49876    0.04403    0.04062    1.000
    C1268    C        0.47569    0.05932    0.03047    1.000
    C1269    C        0.44222    0.05897    0.04375    1.000
    H1185    H        0.42007    0.05273    0.03403    1.000
    H1186    H        0.43387    0.03923    0.05533    1.000
    H1187    H        0.45147    0.08483    0.05033    1.000
    C1270    C        0.52674    0.08972    0.97363    1.000
    H1188    H        0.53027    0.11613    0.97363    1.000
    H1189    H        0.55127    0.09103    0.96933    1.000
    H1190    H        0.50617    0.07333    0.96323    1.000
    C1271    C        0.54983    0.02235    0.03854    1.000
    H1191    H        0.57397    0.03063    0.03023    1.000
    H1192    H        0.55637    0.03103    0.05373    1.000
    H1193    H        0.53367    0.99373    0.03813    1.000
    C1272    C        0.56234    0.04592    0.99268    1.000
    H1194    H        0.55597    0.04473    0.97693    1.000
    H1195    H        0.56017    0.02073    0.99693    1.000
    C1273    C        0.63166    0.07457    0.98619    1.000
    C1274    C        0.62464    0.04221    0.97289    1.000
    H1196    H        0.59867    0.02163    0.97043    1.000
    C1275    C        0.65650    0.04059    0.96322    1.000
    H1197    H        0.65177    0.01893    0.95433    1.000
    C1276    C        0.69539    0.07133    0.96686    1.000
    H1198    H        0.71667    0.07023    0.96043    1.000
    C1277    C        0.70241    0.10370    0.98016    1.000
    C1278    C        0.67055    0.10532    0.98983    1.000
    H1199    H        0.67527    0.12693    0.99873    1.000
    C1279    C        0.74357    0.13617    0.98399    1.000
    C1280    C        0.49040    0.02921    0.06460    1.000
    H1200    H        0.47937    0.04313    0.07273    1.000
    H1201    H        0.51517    0.03473    0.07183    1.000
    C1281    C        0.45703    0.96878    0.08473    1.000
    C1282    C        0.43060    0.92791    0.08387    1.000
    H1202    H        0.41877    0.91603    0.07033    1.000
    C1283    C        0.42178    0.90490    0.10279    1.000
    H1203    H        0.40467    0.87743    0.10203    1.000
    C1284    C        0.43869    0.92299    0.12327    1.000
    H1204    H        0.43197    0.90773    0.13623    1.000
    C1285    C        0.46534    0.96344    0.12411    1.000
    C1286    C        0.47336    0.98605    0.10469    1.000
    H1205    H        0.49027    0.01353    0.10543    1.000
    C1287    C        0.48362    0.98355    0.14578    1.000
    C1288    C        0.49582    0.20339    0.98991    1.000
    C1289    C        0.51826    0.19966    0.97072    1.000
    C1290    C        0.55884    0.21271    0.97233    1.000
    H1206    H        0.57277    0.22533    0.98533    1.000
    C1291    C        0.57863    0.20698    0.95458    1.000
    H1207    H        0.60577    0.21573    0.95563    1.000
    C1292    C        0.55784    0.18819    0.93521    1.000
    H1208    H        0.57107    0.18433    0.92333    1.000
    C1293    C        0.51726    0.17514    0.93360    1.000
    C1294    C        0.49747    0.18087    0.95136    1.000
    H1209    H        0.47037    0.17213    0.95033    1.000
    C1295    C        0.45833    0.13665    0.91396    1.000
    H1210    H        0.44847    0.12183    0.92783    1.000
    H1211    H        0.44827    0.15503    0.91273    1.000
    C1296    C        0.44392    0.10784    0.89412    1.000
    C1297    C        0.44427    0.07249    0.89541    1.000
    C1298    C        0.42531    0.04388    0.87810    1.000
    C1299    C        0.40594    0.05116    0.86128    1.000
    C1300    C        0.40755    0.08802    0.85929    1.000
    C1301    C        0.42858    0.11781    0.87492    1.000
    C1302    C        0.43346    0.15890    0.87274    1.000
    H1212    H        0.45827    0.17823    0.87943    1.000
    H1213    H        0.43347    0.16513    0.85723    1.000
    H1214    H        0.41177    0.15943    0.88023    1.000
    C1303    C        0.46162    0.06270    0.91427    1.000
    H1215    H        0.44067    0.04463    0.92413    1.000
    H1216    H        0.47627    0.05033    0.90893    1.000
    H1217    H        0.47937    0.08673    0.92223    1.000
    C1304    C        0.38173    0.01763    0.84444    1.000
    H1218    H        0.36437    0.99343    0.85233    1.000
    H1219    H        0.36607    0.02503    0.83523    1.000
    H1220    H        0.39967    0.01353    0.83523    1.000
    C1305    C        0.42458    0.00500    0.87947    1.000
    H1221    H        0.44537    0.00703    0.88933    1.000
    H1222    H        0.42827    0.99653    0.86483    1.000
    C1306    C        0.37278    0.93814    0.88609    1.000
    C1307    C        0.33229    0.91215    0.88967    1.000
    H1223    H        0.31527    0.92223    0.89243    1.000
    C1308    C        0.31715    0.87110    0.88909    1.000
    H1224    H        0.29007    0.85373    0.89153    1.000
    C1309    C        0.34251    0.85604    0.88494    1.000
    H1225    H        0.33237    0.82853    0.88453    1.000
    C1310    C        0.38301    0.88202    0.88137    1.000
    C1311    C        0.39815    0.92307    0.88195    1.000
    H1226    H        0.42527    0.94043    0.87953    1.000
    C1312    C        0.40906    0.86603    0.87726    1.000
    C1313    C        0.38174    0.09181    0.84204    1.000
    H1227    H        0.38217    0.11683    0.84423    1.000
    H1228    H        0.35447    0.07033    0.84403    1.000
    C1314    C        0.36469    0.07614    0.80408    1.000
    C1315    C        0.37483    0.06536    0.78402    1.000
    H1229    H        0.39997    0.06813    0.78223    1.000
    C1316    C        0.34737    0.05046    0.76662    1.000
    H1230    H        0.35417    0.04323    0.75323    1.000
    C1317    C        0.30976    0.04636    0.76927    1.000
    H1231    H        0.29137    0.03643    0.75763    1.000
    C1318    C        0.29962    0.05714    0.78933    1.000
    C1319    C        0.32708    0.07204    0.80673    1.000
    H1232    H        0.32027    0.07923    0.82013    1.000
    C1320    C        0.25982    0.05342    0.79203    1.000
    Mn58     Mn       0.32365    0.16883    0.97235    1.000
    Mn59     Mn       0.41139    0.19335    0.00485    1.000
    Mn60     Mn       0.48100    0.19339    0.04085    1.000
    O381     O        0.32986    0.12192    0.95283    1.000
    O382     O        0.37649    0.15178    0.97686    1.000
    O383     O        0.43390    0.05831    0.98296    1.000
    O384     O        0.46361    0.98845    0.06507    1.000
    O385     O        0.50794    0.02030    0.14479    1.000
    O386     O        0.47371    0.96307    0.16296    1.000
    O387     O        0.60236    0.07822    0.99674    1.000
    O388     O        0.75001    0.16797    0.99233    1.000
    O389     O        0.77042    0.12949    0.97683    1.000
    O390     O        0.46479    0.20223    0.98583    1.000
    O391     O        0.51134    0.20778    0.00842    1.000
    O392     O        0.50044    0.15794    0.91398    1.000
    O393     O        0.38466    0.97688    0.88843    1.000
    O394     O        0.44439    0.89012    0.87093    1.000
    O395     O        0.39929    0.83058    0.88077    1.000
    O396     O        0.39396    0.09054    0.82003    1.000
    O397     O        0.24951    0.05905    0.81070    1.000
    O398     O        0.23733    0.04470    0.77500    1.000
    O399     O        0.26987    0.16343    0.96203    1.000
    O400     O        0.26677    0.16873    0.96493    1.000
    H1233    H        0.24567    0.14213    0.96243    1.000
    H1234    H        0.26947    0.18473    0.95213    1.000
    H1235    H        0.27157    0.19543    0.96583    1.000
    H1236    H        0.24777    0.15273    0.97613    1.000
    H1237    H        0.25067    0.13613    0.95923    1.000
    H1238    H        0.27497    0.17833    0.94843    1.000
    H1239    H        0.27307    0.18953    0.96123    1.000
    H1240    H        0.24867    0.14733    0.97203    1.000
    C1321    C        0.02617    0.45797    0.29671    1.000
    C1322    C        0.03771    0.42784    0.29328    1.000
    C1323    C        0.01540    0.39565    0.27891    1.000
    H1241    H        0.99583    0.39587    0.26997    1.000
    C1324    C        0.02166    0.36420    0.27776    1.000
    H1242    H        0.00653    0.34297    0.26817    1.000
    C1325    C        0.04977    0.36397    0.29051    1.000
    H1243    H        0.05383    0.34227    0.28987    1.000
    C1326    C        0.07345    0.39595    0.30501    1.000
    C1327    C        0.06717    0.42781    0.30635    1.000
    H1244    H        0.08253    0.44907    0.31587    1.000
    C1328    C        0.12679    0.42208    0.33181    1.000
    H1245    H        0.14353    0.44697    0.32397    1.000
    H1246    H        0.11133    0.42667    0.34297    1.000
    C1329    C        0.15227    0.40709    0.34278    1.000
    C1330    C        0.18145    0.40498    0.33036    1.000
    C1331    C        0.20049    0.38642    0.33958    1.000
    C1332    C        0.19386    0.37377    0.36174    1.000
    C1333    C        0.16542    0.37737    0.37396    1.000
    C1334    C        0.14235    0.39266    0.36381    1.000
    C1335    C        0.10888    0.39231    0.37709    1.000
    H1247    H        0.08673    0.38607    0.36737    1.000
    H1248    H        0.10053    0.37257    0.38867    1.000
    H1249    H        0.11813    0.41817    0.38367    1.000
    C1336    C        0.19340    0.42306    0.30697    1.000
    H1250    H        0.19693    0.44947    0.30697    1.000
    H1251    H        0.21793    0.42437    0.30267    1.000
    H1252    H        0.17283    0.40667    0.29657    1.000
    C1337    C        0.21649    0.35569    0.37188    1.000
    H1253    H        0.24063    0.36397    0.36357    1.000
    H1254    H        0.22303    0.36437    0.38707    1.000
    H1255    H        0.20033    0.32707    0.37147    1.000
    C1338    C        0.22900    0.37926    0.32602    1.000
    H1256    H        0.22263    0.37807    0.31027    1.000
    H1257    H        0.22683    0.35407    0.33027    1.000
    C1339    C        0.29832    0.40791    0.31953    1.000
    C1340    C        0.29130    0.37555    0.30623    1.000
    H1258    H        0.26533    0.35497    0.30377    1.000
    C1341    C        0.32316    0.37393    0.29656    1.000
    H1259    H        0.31843    0.35227    0.28767    1.000
    C1342    C        0.36205    0.40467    0.30020    1.000
    H1260    H        0.38333    0.40357    0.29377    1.000
    C1343    C        0.36907    0.43704    0.31350    1.000
    C1344    C        0.33721    0.43866    0.32317    1.000
    H1261    H        0.34193    0.46027    0.33207    1.000
    C1345    C        0.41023    0.46951    0.31733    1.000
    C1346    C        0.15706    0.36255    0.39794    1.000
    H1262    H        0.14603    0.37647    0.40607    1.000
    H1263    H        0.18183    0.36807    0.40517    1.000
    C1347    C        0.12369    0.30212    0.41807    1.000
    C1348    C        0.09726    0.26125    0.41721    1.000
    H1264    H        0.08543    0.24937    0.40367    1.000
    C1349    C        0.08844    0.23824    0.43613    1.000
    H1265    H        0.07133    0.21077    0.43537    1.000
    C1350    C        0.10535    0.25633    0.45661    1.000
    H1266    H        0.09863    0.24107    0.46957    1.000
    C1351    C        0.13200    0.29678    0.45745    1.000
    C1352    C        0.14002    0.31939    0.43803    1.000
    H1267    H        0.15693    0.34687    0.43877    1.000
    C1353    C        0.15028    0.31689    0.47912    1.000
    C1354    C        0.16248    0.53673    0.32325    1.000
    C1355    C        0.18492    0.53300    0.30406    1.000
    C1356    C        0.22550    0.54605    0.30567    1.000
    H1268    H        0.23943    0.55867    0.31867    1.000
    C1357    C        0.24529    0.54032    0.28792    1.000
    H1269    H        0.27243    0.54907    0.28897    1.000
    C1358    C        0.22450    0.52153    0.26855    1.000
    H1270    H        0.23773    0.51767    0.25667    1.000
    C1359    C        0.18392    0.50848    0.26694    1.000
    C1360    C        0.16413    0.51421    0.28470    1.000
    H1271    H        0.13703    0.50547    0.28367    1.000
    C1361    C        0.12499    0.46999    0.24730    1.000
    H1272    H        0.11513    0.45517    0.26117    1.000
    H1273    H        0.11493    0.48837    0.24607    1.000
    C1362    C        0.11058    0.44118    0.22746    1.000
    C1363    C        0.11093    0.40583    0.22875    1.000
    C1364    C        0.09197    0.37722    0.21144    1.000
    C1365    C        0.07260    0.38450    0.19462    1.000
    C1366    C        0.07421    0.42136    0.19263    1.000
    C1367    C        0.09524    0.45115    0.20826    1.000
    C1368    C        0.10012    0.49224    0.20608    1.000
    H1274    H        0.12493    0.51157    0.21277    1.000
    H1275    H        0.10013    0.49847    0.19057    1.000
    H1276    H        0.07843    0.49277    0.21357    1.000
    C1369    C        0.12828    0.39604    0.24761    1.000
    H1277    H        0.10733    0.37797    0.25747    1.000
    H1278    H        0.14293    0.38367    0.24227    1.000
    H1279    H        0.14603    0.42007    0.25557    1.000
    C1370    C        0.04839    0.35097    0.17778    1.000
    H1280    H        0.03103    0.32677    0.18567    1.000
    H1281    H        0.03273    0.35837    0.16857    1.000
    H1282    H        0.06633    0.34687    0.16857    1.000
    C1371    C        0.09124    0.33834    0.21281    1.000
    H1283    H        0.11203    0.34037    0.22267    1.000
    H1284    H        0.09493    0.32987    0.19817    1.000
    C1372    C        0.03944    0.27148    0.21943    1.000
    C1373    C        0.99895    0.24549    0.22301    1.000
    H1285    H        0.98193    0.25557    0.22577    1.000
    C1374    C        0.98381    0.20444    0.22243    1.000
    H1286    H        0.95673    0.18707    0.22487    1.000
    C1375    C        0.00917    0.18938    0.21828    1.000
    H1287    H        0.99903    0.16187    0.21787    1.000
    C1376    C        0.04967    0.21536    0.21471    1.000
    C1377    C        0.06481    0.25641    0.21529    1.000
    H1288    H        0.09193    0.27377    0.21287    1.000
    C1378    C        0.07572    0.19937    0.21060    1.000
    C1379    C        0.04840    0.42515    0.17538    1.000
    H1289    H        0.04883    0.45017    0.17757    1.000
    H1290    H        0.02113    0.40367    0.17737    1.000
    C1380    C        0.03135    0.40948    0.13742    1.000
    C1381    C        0.04149    0.39870    0.11736    1.000
    H1291    H        0.06663    0.40147    0.11557    1.000
    C1382    C        0.01403    0.38380    0.09996    1.000
    H1292    H        0.02083    0.37657    0.08657    1.000
    C1383    C        0.97642    0.37970    0.10261    1.000
    H1293    H        0.95803    0.36977    0.09097    1.000
    C1384    C        0.96628    0.39048    0.12267    1.000
    C1385    C        0.99374    0.40538    0.14007    1.000
    H1294    H        0.98693    0.41257    0.15347    1.000
    C1386    C        0.92648    0.38676    0.12537    1.000
    Mn61     Mn       0.99032    0.50216    0.30569    1.000
    Mn62     Mn       0.07806    0.52669    0.33818    1.000
    Mn63     Mn       0.14766    0.52672    0.37418    1.000
    O401     O        0.99652    0.45526    0.28617    1.000
    O402     O        0.04315    0.48512    0.31020    1.000
    O403     O        0.10056    0.39165    0.31630    1.000
    O404     O        0.13027    0.32179    0.39841    1.000
    O405     O        0.17460    0.35364    0.47813    1.000
    O406     O        0.14037    0.29641    0.49630    1.000
    O407     O        0.26902    0.41156    0.33008    1.000
    O408     O        0.41667    0.50131    0.32567    1.000
    O409     O        0.43708    0.46283    0.31017    1.000
    O410     O        0.13145    0.53557    0.31917    1.000
    O411     O        0.17800    0.54112    0.34176    1.000
    O412     O        0.16710    0.49128    0.24732    1.000
    O413     O        0.05132    0.31022    0.22177    1.000
    O414     O        0.11105    0.22346    0.20427    1.000
    O415     O        0.06595    0.16392    0.21411    1.000
    O416     O        0.06062    0.42388    0.15337    1.000
    O417     O        0.91617    0.39239    0.14404    1.000
    O418     O        0.90399    0.37804    0.10834    1.000
    O419     O        0.93653    0.49677    0.29537    1.000
    O420     O        0.93343    0.50207    0.29827    1.000
    H1295    H        0.91233    0.47547    0.29577    1.000
    H1296    H        0.93613    0.51807    0.28547    1.000
    H1297    H        0.93823    0.52877    0.29917    1.000
    H1298    H        0.91443    0.48607    0.30947    1.000
    H1299    H        0.91733    0.46947    0.29257    1.000
    H1300    H        0.94163    0.51167    0.28177    1.000
    H1301    H        0.93973    0.52287    0.29457    1.000
    H1302    H        0.91533    0.48067    0.30537    1.000
    C1387    C        0.20870    0.90154    0.63004    1.000
    C1388    C        0.23883    0.94321    0.62661    1.000
    C1389    C        0.27102    0.95309    0.61224    1.000
    H1303    H        0.27080    0.93330    0.60330    1.000
    C1390    C        0.30247    0.99080    0.61109    1.000
    H1304    H        0.32370    0.99690    0.60150    1.000
    C1391    C        0.30270    0.01914    0.62384    1.000
    H1305    H        0.32440    0.04490    0.62320    1.000
    C1392    C        0.27072    0.01084    0.63834    1.000
    C1393    C        0.23886    0.97270    0.63968    1.000
    H1306    H        0.21760    0.96680    0.64920    1.000
    C1394    C        0.24459    0.03805    0.66514    1.000
    H1307    H        0.21970    0.02990    0.65730    1.000
    H1308    H        0.24000    0.01800    0.67630    1.000
    C1395    C        0.25958    0.07852    0.67611    1.000
    C1396    C        0.26169    0.10981    0.66369    1.000
    C1397    C        0.28025    0.14741    0.67291    1.000
    C1398    C        0.29290    0.15343    0.69507    1.000
    C1399    C        0.28930    0.12139    0.70729    1.000
    C1400    C        0.27401    0.08303    0.69714    1.000
    C1401    C        0.27436    0.04991    0.71042    1.000
    H1309    H        0.28060    0.03400    0.70070    1.000
    H1310    H        0.29410    0.06130    0.72200    1.000
    H1311    H        0.24850    0.03330    0.71700    1.000
    C1402    C        0.24361    0.10368    0.64030    1.000
    H1312    H        0.21720    0.08080    0.64030    1.000
    H1313    H        0.24230    0.12690    0.63600    1.000
    H1314    H        0.26000    0.09950    0.62990    1.000
    C1403    C        0.31098    0.19414    0.70521    1.000
    H1315    H        0.30270    0.21000    0.69690    1.000
    H1316    H        0.30230    0.19200    0.72040    1.000
    H1317    H        0.33960    0.20660    0.70480    1.000
    C1404    C        0.28741    0.18308    0.65935    1.000
    H1318    H        0.28860    0.17790    0.64360    1.000
    H1319    H        0.31260    0.20610    0.66360    1.000
    C1405    C        0.25876    0.22375    0.65286    1.000
    C1406    C        0.29112    0.24909    0.63956    1.000
    H1320    H        0.31170    0.24370    0.63710    1.000
    C1407    C        0.29274    0.28257    0.62989    1.000
    H1321    H        0.31440    0.29950    0.62100    1.000
    C1408    C        0.26200    0.29072    0.63353    1.000
    H1322    H        0.26310    0.31310    0.62710    1.000
    C1409    C        0.22963    0.26537    0.64683    1.000
    C1410    C        0.22801    0.23189    0.65650    1.000
    H1323    H        0.20640    0.21500    0.66540    1.000
    C1411    C        0.19716    0.27406    0.65066    1.000
    C1412    C        0.30412    0.12785    0.73127    1.000
    H1324    H        0.29020    0.10290    0.73940    1.000
    H1325    H        0.29860    0.14710    0.73850    1.000
    C1413    C        0.36455    0.15491    0.75140    1.000
    C1414    C        0.40542    0.16935    0.75054    1.000
    H1326    H        0.41730    0.16940    0.73700    1.000
    C1415    C        0.42843    0.18354    0.76946    1.000
    H1327    H        0.45590    0.19390    0.76870    1.000
    C1416    C        0.41034    0.18236    0.78994    1.000
    H1328    H        0.42560    0.19090    0.80290    1.000
    C1417    C        0.36989    0.16856    0.79078    1.000
    C1418    C        0.34728    0.15397    0.77136    1.000
    H1329    H        0.31980    0.14340    0.77210    1.000
    C1419    C        0.34978    0.16673    0.81245    1.000
    C1420    C        0.12994    0.95909    0.65658    1.000
    C1421    C        0.13367    0.98526    0.63739    1.000
    C1422    C        0.12062    0.01279    0.63900    1.000
    H1330    H        0.10800    0.01410    0.65200    1.000
    C1423    C        0.12635    0.03831    0.62125    1.000
    H1331    H        0.11760    0.05670    0.62230    1.000
    C1424    C        0.14514    0.03631    0.60188    1.000
    H1332    H        0.14900    0.05340    0.59000    1.000
    C1425    C        0.15819    0.00878    0.60027    1.000
    C1426    C        0.15246    0.98326    0.61803    1.000
    H1333    H        0.16120    0.96490    0.61700    1.000
    C1427    C        0.19668    0.98834    0.58063    1.000
    H1334    H        0.21150    0.99330    0.59450    1.000
    H1335    H        0.17830    0.95990    0.57940    1.000
    C1428    C        0.22549    0.00274    0.56079    1.000
    C1429    C        0.26084    0.03844    0.56208    1.000
    C1430    C        0.28945    0.04809    0.54477    1.000
    C1431    C        0.28217    0.02144    0.52795    1.000
    C1432    C        0.24531    0.98619    0.52596    1.000
    C1433    C        0.21552    0.97743    0.54159    1.000
    C1434    C        0.17443    0.94122    0.53941    1.000
    H1336    H        0.15510    0.94670    0.54610    1.000
    H1337    H        0.16820    0.93500    0.52390    1.000
    H1338    H        0.17390    0.91900    0.54690    1.000
    C1435    C        0.27063    0.06558    0.58094    1.000
    H1339    H        0.28870    0.06270    0.59080    1.000
    H1340    H        0.28300    0.09260    0.57560    1.000
    H1341    H        0.24660    0.05930    0.58890    1.000
    C1436    C        0.31570    0.03076    0.51111    1.000
    H1342    H        0.33990    0.03760    0.51900    1.000
    H1343    H        0.30830    0.00770    0.50190    1.000
    H1344    H        0.31980    0.05280    0.50190    1.000
    C1437    C        0.32833    0.08624    0.54614    1.000
    H1345    H        0.32630    0.10500    0.55600    1.000
    H1346    H        0.33680    0.09840    0.53150    1.000
    C1438    C        0.39519    0.10130    0.55276    1.000
    C1439    C        0.42118    0.08680    0.55634    1.000
    H1347    H        0.41110    0.05970    0.55910    1.000
    C1440    C        0.46223    0.11271    0.55576    1.000
    H1348    H        0.47960    0.10300    0.55820    1.000
    C1441    C        0.47729    0.15313    0.55161    1.000
    H1349    H        0.50480    0.17050    0.55120    1.000
    C1442    C        0.45131    0.16765    0.54804    1.000
    C1443    C        0.41026    0.14174    0.54862    1.000
    H1350    H        0.39290    0.15150    0.54620    1.000
    C1444    C        0.46730    0.20969    0.54393    1.000
    C1445    C        0.24152    0.95659    0.50871    1.000
    H1351    H        0.21650    0.93200    0.51090    1.000
    H1352    H        0.26300    0.95080    0.51070    1.000
    C1446    C        0.25719    0.95521    0.47075    1.000
    C1447    C        0.26797    0.97613    0.45069    1.000
    H1353    H        0.26520    0.99850    0.44890    1.000
    C1448    C        0.28287    0.96357    0.43329    1.000
    H1354    H        0.29010    0.97760    0.41990    1.000
    C1449    C        0.28697    0.93006    0.43594    1.000
    H1355    H        0.29690    0.92160    0.42430    1.000
    C1450    C        0.27619    0.90914    0.45600    1.000
    C1451    C        0.26129    0.92170    0.47340    1.000
    H1356    H        0.25410    0.90770    0.48680    1.000
    C1452    C        0.27991    0.87306    0.45870    1.000
    Mn64     Mn       0.16450    0.82149    0.63902    1.000
    Mn65     Mn       0.13998    0.88471    0.67152    1.000
    Mn66     Mn       0.13994    0.95427    0.70752    1.000
    O421     O        0.21141    0.87460    0.61950    1.000
    O422     O        0.18155    0.89137    0.64353    1.000
    O423     O        0.27502    0.04225    0.64963    1.000
    O424     O        0.34488    0.14182    0.73174    1.000
    O425     O        0.31303    0.15430    0.81146    1.000
    O426     O        0.37026    0.17730    0.82963    1.000
    O427     O        0.25511    0.19080    0.66341    1.000
    O428     O        0.16536    0.24870    0.65900    1.000
    O429     O        0.20384    0.30759    0.64350    1.000
    O430     O        0.13110    0.92922    0.65250    1.000
    O431     O        0.12555    0.97022    0.67509    1.000
    O432     O        0.17539    0.00916    0.58065    1.000
    O433     O        0.35645    0.07444    0.55510    1.000
    O434     O        0.44321    0.22093    0.53760    1.000
    O435     O        0.50275    0.23537    0.54744    1.000
    O436     O        0.24279    0.97008    0.48670    1.000
    O437     O        0.27428    0.85712    0.47737    1.000
    O438     O        0.28863    0.85929    0.44167    1.000
    O439     O        0.16990    0.77310    0.62870    1.000
    O440     O        0.16460    0.76470    0.63160    1.000
    H1357    H        0.19120    0.77020    0.62910    1.000
    H1358    H        0.14860    0.75140    0.61880    1.000
    H1359    H        0.13790    0.74280    0.63250    1.000
    H1360    H        0.18060    0.76170    0.64280    1.000
    H1361    H        0.19720    0.78120    0.62590    1.000
    H1362    H        0.15500    0.76330    0.61510    1.000
    H1363    H        0.14380    0.75020    0.62790    1.000
    H1364    H        0.18600    0.76800    0.63870    1.000
    C1453    C        0.87537    0.23487    0.96337    1.000
    C1454    C        0.90550    0.27654    0.95994    1.000
    C1455    C        0.93769    0.28642    0.94557    1.000
    H1365    H        0.93747    0.26663    0.93663    1.000
    C1456    C        0.96914    0.32413    0.94442    1.000
    H1366    H        0.99037    0.33023    0.93483    1.000
    C1457    C        0.96937    0.35247    0.95717    1.000
    H1367    H        0.99107    0.37823    0.95653    1.000
    C1458    C        0.93739    0.34417    0.97167    1.000
    C1459    C        0.90553    0.30603    0.97301    1.000
    H1368    H        0.88427    0.30013    0.98253    1.000
    C1460    C        0.91126    0.37138    0.99847    1.000
    H1369    H        0.88637    0.36323    0.99063    1.000
    H1370    H        0.90667    0.35133    0.00963    1.000
    C1461    C        0.92625    0.41185    0.00944    1.000
    C1462    C        0.92836    0.44314    0.99702    1.000
    C1463    C        0.94692    0.48074    0.00624    1.000
    C1464    C        0.95957    0.48676    0.02840    1.000
    C1465    C        0.95597    0.45472    0.04062    1.000
    C1466    C        0.94068    0.41636    0.03047    1.000
    C1467    C        0.94103    0.38324    0.04375    1.000
    H1371    H        0.94727    0.36733    0.03403    1.000
    H1372    H        0.96077    0.39463    0.05533    1.000
    H1373    H        0.91517    0.36663    0.05033    1.000
    C1468    C        0.91028    0.43701    0.97363    1.000
    H1374    H        0.88387    0.41413    0.97363    1.000
    H1375    H        0.90897    0.46023    0.96933    1.000
    H1376    H        0.92667    0.43283    0.96323    1.000
    C1469    C        0.97765    0.52747    0.03854    1.000
    H1377    H        0.96937    0.54333    0.03023    1.000
    H1378    H        0.96897    0.52533    0.05373    1.000
    H1379    H        0.00627    0.53993    0.03813    1.000
    C1470    C        0.95408    0.51641    0.99268    1.000
    H1380    H        0.95527    0.51123    0.97693    1.000
    H1381    H        0.97927    0.53943    0.99693    1.000
    C1471    C        0.92543    0.55708    0.98619    1.000
    C1472    C        0.95779    0.58242    0.97289    1.000
    H1382    H        0.97837    0.57703    0.97043    1.000
    C1473    C        0.95941    0.61590    0.96322    1.000
    H1383    H        0.98107    0.63283    0.95433    1.000
    C1474    C        0.92867    0.62405    0.96686    1.000
    H1384    H        0.92977    0.64643    0.96043    1.000
    C1475    C        0.89630    0.59870    0.98016    1.000
    C1476    C        0.89468    0.56522    0.98983    1.000
    H1385    H        0.87307    0.54833    0.99873    1.000
    C1477    C        0.86383    0.60739    0.98399    1.000
    C1478    C        0.97079    0.46118    0.06460    1.000
    H1386    H        0.95687    0.43623    0.07273    1.000
    H1387    H        0.96527    0.48043    0.07183    1.000
    C1479    C        0.03122    0.48824    0.08473    1.000
    C1480    C        0.07209    0.50268    0.08387    1.000
    H1388    H        0.08397    0.50273    0.07033    1.000
    C1481    C        0.09510    0.51687    0.10279    1.000
    H1389    H        0.12257    0.52723    0.10203    1.000
    C1482    C        0.07701    0.51569    0.12327    1.000
    H1390    H        0.09227    0.52423    0.13623    1.000
    C1483    C        0.03656    0.50189    0.12411    1.000
    C1484    C        0.01395    0.48730    0.10469    1.000
    H1391    H        0.98647    0.47673    0.10543    1.000
    C1485    C        0.01645    0.50006    0.14578    1.000
    C1486    C        0.79661    0.29242    0.98991    1.000
    C1487    C        0.80034    0.31859    0.97072    1.000
    C1488    C        0.78729    0.34612    0.97233    1.000
    H1392    H        0.77467    0.34743    0.98533    1.000
    C1489    C        0.79302    0.37164    0.95458    1.000
    H1393    H        0.78427    0.39003    0.95563    1.000
    C1490    C        0.81181    0.36964    0.93521    1.000
    H1394    H        0.81567    0.38673    0.92333    1.000
    C1491    C        0.82486    0.34211    0.93360    1.000
    C1492    C        0.81913    0.31659    0.95136    1.000
    H1395    H        0.82787    0.29823    0.95033    1.000
    C1493    C        0.86335    0.32167    0.91396    1.000
    H1396    H        0.87817    0.32663    0.92783    1.000
    H1397    H        0.84497    0.29323    0.91273    1.000
    C1494    C        0.89216    0.33607    0.89412    1.000
    C1495    C        0.92751    0.37177    0.89541    1.000
    C1496    C        0.95612    0.38142    0.87810    1.000
    C1497    C        0.94884    0.35477    0.86128    1.000
    C1498    C        0.91198    0.31952    0.85929    1.000
    C1499    C        0.88219    0.31076    0.87492    1.000
    C1500    C        0.84110    0.27455    0.87274    1.000
    H1398    H        0.82177    0.28003    0.87943    1.000
    H1399    H        0.83487    0.26833    0.85723    1.000
    H1400    H        0.84057    0.25233    0.88023    1.000
    C1501    C        0.93730    0.39891    0.91427    1.000
    H1401    H        0.95537    0.39603    0.92413    1.000
    H1402    H        0.94967    0.42593    0.90893    1.000
    H1403    H        0.91327    0.39263    0.92223    1.000
    C1502    C        0.98237    0.36409    0.84444    1.000
    H1404    H        0.00657    0.37093    0.85233    1.000
    H1405    H        0.97497    0.34103    0.83523    1.000
    H1406    H        0.98647    0.38613    0.83523    1.000
    C1503    C        0.99500    0.41957    0.87947    1.000
    H1407    H        0.99297    0.43833    0.88933    1.000
    H1408    H        0.00347    0.43173    0.86483    1.000
    C1504    C        0.06186    0.43463    0.88609    1.000
    C1505    C        0.08785    0.42013    0.88967    1.000
    H1409    H        0.07777    0.39303    0.89243    1.000
    C1506    C        0.12890    0.44604    0.88909    1.000
    H1410    H        0.14627    0.43633    0.89153    1.000
    C1507    C        0.14396    0.48646    0.88494    1.000
    H1411    H        0.17147    0.50383    0.88453    1.000
    C1508    C        0.11798    0.50098    0.88137    1.000
    C1509    C        0.07693    0.47507    0.88195    1.000
    H1412    H        0.05957    0.48483    0.87953    1.000
    C1510    C        0.13397    0.54302    0.87726    1.000
    C1511    C        0.90819    0.28992    0.84204    1.000
    H1413    H        0.88317    0.26533    0.84423    1.000
    H1414    H        0.92967    0.28413    0.84403    1.000
    C1512    C        0.92386    0.28854    0.80408    1.000
    C1513    C        0.93464    0.30946    0.78402    1.000
    H1415    H        0.93187    0.33183    0.78223    1.000
    C1514    C        0.94954    0.29690    0.76662    1.000
    H1416    H        0.95677    0.31093    0.75323    1.000
    C1515    C        0.95364    0.26339    0.76927    1.000
    H1417    H        0.96357    0.25493    0.75763    1.000
    C1516    C        0.94286    0.24247    0.78933    1.000
    C1517    C        0.92796    0.25503    0.80673    1.000
    H1418    H        0.92077    0.24103    0.82013    1.000
    C1518    C        0.94658    0.20639    0.79203    1.000
    Mn67     Mn       0.83117    0.15482    0.97235    1.000
    Mn68     Mn       0.80665    0.21804    0.00485    1.000
    Mn69     Mn       0.80661    0.28761    0.04085    1.000
    O441     O        0.87808    0.20793    0.95283    1.000
    O442     O        0.84822    0.22470    0.97686    1.000
    O443     O        0.94169    0.37558    0.98296    1.000
    O444     O        0.01155    0.47515    0.06507    1.000
    O445     O        0.97970    0.48763    0.14479    1.000
    O446     O        0.03693    0.51063    0.16296    1.000
    O447     O        0.92178    0.52413    0.99674    1.000
    O448     O        0.83203    0.58203    0.99233    1.000
    O449     O        0.87051    0.64092    0.97683    1.000
    O450     O        0.79777    0.26255    0.98583    1.000
    O451     O        0.79222    0.30355    0.00842    1.000
    O452     O        0.84206    0.34249    0.91398    1.000
    O453     O        0.02312    0.40777    0.88843    1.000
    O454     O        0.10988    0.55426    0.87093    1.000
    O455     O        0.16942    0.56870    0.88077    1.000
    O456     O        0.90946    0.30341    0.82003    1.000
    O457     O        0.94095    0.19045    0.81070    1.000
    O458     O        0.95530    0.19262    0.77500    1.000
    O459     O        0.83657    0.10643    0.96203    1.000
    O460     O        0.83127    0.09803    0.96493    1.000
    H1419    H        0.85787    0.10353    0.96243    1.000
    H1420    H        0.81527    0.08473    0.95213    1.000
    H1421    H        0.80457    0.07613    0.96583    1.000
    H1422    H        0.84727    0.09503    0.97613    1.000
    H1423    H        0.86387    0.11453    0.95923    1.000
    H1424    H        0.82167    0.09663    0.94843    1.000
    H1425    H        0.81047    0.08353    0.96123    1.000
    H1426    H        0.85267    0.10133    0.97203    1.000
    C1519    C        0.54203    0.56821    0.29671    1.000
    C1520    C        0.57216    0.60988    0.29328    1.000
    C1521    C        0.60435    0.61976    0.27891    1.000
    H1427    H        0.60413    0.59997    0.26997    1.000
    C1522    C        0.63580    0.65747    0.27776    1.000
    H1428    H        0.65703    0.66357    0.26817    1.000
    C1523    C        0.63603    0.68581    0.29051    1.000
    H1429    H        0.65773    0.71157    0.28987    1.000
    C1524    C        0.60405    0.67751    0.30501    1.000
    C1525    C        0.57219    0.63937    0.30635    1.000
    H1430    H        0.55093    0.63347    0.31587    1.000
    C1526    C        0.57792    0.70472    0.33181    1.000
    H1431    H        0.55303    0.69657    0.32397    1.000
    H1432    H        0.57333    0.68467    0.34297    1.000
    C1527    C        0.59291    0.74519    0.34278    1.000
    C1528    C        0.59502    0.77648    0.33036    1.000
    C1529    C        0.61358    0.81408    0.33958    1.000
    C1530    C        0.62623    0.82010    0.36174    1.000
    C1531    C        0.62263    0.78806    0.37396    1.000
    C1532    C        0.60734    0.74970    0.36381    1.000
    C1533    C        0.60769    0.71658    0.37709    1.000
    H1433    H        0.61393    0.70067    0.36737    1.000
    H1434    H        0.62743    0.72797    0.38867    1.000
    H1435    H        0.58183    0.69997    0.38367    1.000
    C1534    C        0.57694    0.77035    0.30697    1.000
    H1436    H        0.55053    0.74747    0.30697    1.000
    H1437    H        0.57563    0.79357    0.30267    1.000
    H1438    H        0.59333    0.76617    0.29657    1.000
    C1535    C        0.64431    0.86081    0.37188    1.000
    H1439    H        0.63603    0.87667    0.36357    1.000
    H1440    H        0.63563    0.85867    0.38707    1.000
    H1441    H        0.67293    0.87327    0.37147    1.000
    C1536    C        0.62074    0.84975    0.32602    1.000
    H1442    H        0.62193    0.84457    0.31027    1.000
    H1443    H        0.64593    0.87277    0.33027    1.000
    C1537    C        0.59209    0.89042    0.31953    1.000
    C1538    C        0.62445    0.91576    0.30623    1.000
    H1444    H        0.64503    0.91037    0.30377    1.000
    C1539    C        0.62607    0.94924    0.29656    1.000
    H1445    H        0.64773    0.96617    0.28767    1.000
    C1540    C        0.59533    0.95739    0.30020    1.000
    H1446    H        0.59643    0.97977    0.29377    1.000
    C1541    C        0.56296    0.93204    0.31350    1.000
    C1542    C        0.56134    0.89856    0.32317    1.000
    H1447    H        0.53973    0.88167    0.33207    1.000
    C1543    C        0.53049    0.94073    0.31733    1.000
    C1544    C        0.63745    0.79452    0.39794    1.000
    H1448    H        0.62353    0.76957    0.40607    1.000
    H1449    H        0.63193    0.81377    0.40517    1.000
    C1545    C        0.69788    0.82158    0.41807    1.000
    C1546    C        0.73875    0.83602    0.41721    1.000
    H1450    H        0.75063    0.83607    0.40367    1.000
    C1547    C        0.76176    0.85021    0.43613    1.000
    H1451    H        0.78923    0.86057    0.43537    1.000
    C1548    C        0.74367    0.84903    0.45661    1.000
    H1452    H        0.75893    0.85757    0.46957    1.000
    C1549    C        0.70322    0.83523    0.45745    1.000
    C1550    C        0.68061    0.82064    0.43803    1.000
    H1453    H        0.65313    0.81007    0.43877    1.000
    C1551    C        0.68311    0.83340    0.47912    1.000
    C1552    C        0.46327    0.62576    0.32325    1.000
    C1553    C        0.46700    0.65193    0.30406    1.000
    C1554    C        0.45395    0.67946    0.30567    1.000
    H1454    H        0.44133    0.68077    0.31867    1.000
    C1555    C        0.45968    0.70498    0.28792    1.000
    H1455    H        0.45093    0.72337    0.28897    1.000
    C1556    C        0.47847    0.70298    0.26855    1.000
    H1456    H        0.48233    0.72007    0.25667    1.000
    C1557    C        0.49152    0.67545    0.26694    1.000
    C1558    C        0.48579    0.64993    0.28470    1.000
    H1457    H        0.49453    0.63157    0.28367    1.000
    C1559    C        0.53001    0.65501    0.24730    1.000
    H1458    H        0.54483    0.65997    0.26117    1.000
    H1459    H        0.51163    0.62657    0.24607    1.000
    C1560    C        0.55882    0.66941    0.22746    1.000
    C1561    C        0.59417    0.70511    0.22875    1.000
    C1562    C        0.62278    0.71476    0.21144    1.000
    C1563    C        0.61550    0.68811    0.19462    1.000
    C1564    C        0.57864    0.65286    0.19263    1.000
    C1565    C        0.54885    0.64410    0.20826    1.000
    C1566    C        0.50776    0.60789    0.20608    1.000
    H1460    H        0.48843    0.61337    0.21277    1.000
    H1461    H        0.50153    0.60167    0.19057    1.000
    H1462    H        0.50723    0.58567    0.21357    1.000
    C1567    C        0.60396    0.73225    0.24761    1.000
    H1463    H        0.62203    0.72937    0.25747    1.000
    H1464    H        0.61633    0.75927    0.24227    1.000
    H1465    H        0.57993    0.72597    0.25557    1.000
    C1568    C        0.64903    0.69743    0.17778    1.000
    H1466    H        0.67323    0.70427    0.18567    1.000
    H1467    H        0.64163    0.67437    0.16857    1.000
    H1468    H        0.65313    0.71947    0.16857    1.000
    C1569    C        0.66166    0.75291    0.21281    1.000
    H1469    H        0.65963    0.77167    0.22267    1.000
    H1470    H        0.67013    0.76507    0.19817    1.000
    C1570    C        0.72852    0.76797    0.21943    1.000
    C1571    C        0.75451    0.75347    0.22301    1.000
    H1471    H        0.74443    0.72637    0.22577    1.000
    C1572    C        0.79556    0.77938    0.22243    1.000
    H1472    H        0.81293    0.76967    0.22487    1.000
    C1573    C        0.81062    0.81980    0.21828    1.000
    H1473    H        0.83813    0.83717    0.21787    1.000
    C1574    C        0.78464    0.83432    0.21471    1.000
    C1575    C        0.74359    0.80841    0.21529    1.000
    H1474    H        0.72623    0.81817    0.21287    1.000
    C1576    C        0.80063    0.87636    0.21060    1.000
    C1577    C        0.57485    0.62326    0.17538    1.000
    H1475    H        0.54983    0.59867    0.17757    1.000
    H1476    H        0.59633    0.61747    0.17737    1.000
    C1578    C        0.59052    0.62188    0.13742    1.000
    C1579    C        0.60130    0.64280    0.11736    1.000
    H1477    H        0.59853    0.66517    0.11557    1.000
    C1580    C        0.61620    0.63024    0.09996    1.000
    H1478    H        0.62343    0.64427    0.08657    1.000
    C1581    C        0.62030    0.59673    0.10261    1.000
    H1479    H        0.63023    0.58827    0.09097    1.000
    C1582    C        0.60952    0.57581    0.12267    1.000
    C1583    C        0.59462    0.58837    0.14007    1.000
    H1480    H        0.58743    0.57437    0.15347    1.000
    C1584    C        0.61324    0.53973    0.12537    1.000
    Mn70     Mn       0.49784    0.48815    0.30569    1.000
    Mn71     Mn       0.47331    0.55137    0.33818    1.000
    Mn72     Mn       0.47328    0.62094    0.37418    1.000
    O461     O        0.54474    0.54127    0.28617    1.000
    O462     O        0.51488    0.55804    0.31020    1.000
    O463     O        0.60835    0.70892    0.31630    1.000
    O464     O        0.67821    0.80849    0.39841    1.000
    O465     O        0.64636    0.82097    0.47813    1.000
    O466     O        0.70359    0.84397    0.49630    1.000
    O467     O        0.58844    0.85747    0.33008    1.000
    O468     O        0.49869    0.91537    0.32567    1.000
    O469     O        0.53717    0.97426    0.31017    1.000
    O470     O        0.46443    0.59589    0.31917    1.000
    O471     O        0.45888    0.63689    0.34176    1.000
    O472     O        0.50872    0.67583    0.24732    1.000
    O473     O        0.68978    0.74111    0.22177    1.000
    O474     O        0.77654    0.88760    0.20427    1.000
    O475     O        0.83608    0.90204    0.21411    1.000
    O476     O        0.57612    0.63675    0.15337    1.000
    O477     O        0.60761    0.52379    0.14404    1.000
    O478     O        0.62196    0.52596    0.10834    1.000
    O479     O        0.50323    0.43977    0.29537    1.000
    O480     O        0.49793    0.43137    0.29827    1.000
    H1481    H        0.52453    0.43687    0.29577    1.000
    H1482    H        0.48193    0.41807    0.28547    1.000
    H1483    H        0.47123    0.40947    0.29917    1.000
    H1484    H        0.51393    0.42837    0.30947    1.000
    H1485    H        0.53053    0.44787    0.29257    1.000
    H1486    H        0.48833    0.42997    0.28177    1.000
    H1487    H        0.47713    0.41687    0.29457    1.000
    H1488    H        0.51933    0.43467    0.30537    1.000
    C1585    C        0.09846    0.30716    0.63004    1.000
    C1586    C        0.05679    0.29562    0.62661    1.000
    C1587    C        0.04691    0.31793    0.61224    1.000
    H1489    H        0.06670    0.33750    0.60330    1.000
    C1588    C        0.00920    0.31167    0.61109    1.000
    H1490    H        0.00310    0.32680    0.60150    1.000
    C1589    C        0.98086    0.28356    0.62384    1.000
    H1491    H        0.95510    0.27950    0.62320    1.000
    C1590    C        0.98916    0.25988    0.63834    1.000
    C1591    C        0.02730    0.26616    0.63968    1.000
    H1492    H        0.03320    0.25080    0.64920    1.000
    C1592    C        0.96195    0.20654    0.66514    1.000
    H1493    H        0.97010    0.18980    0.65730    1.000
    H1494    H        0.98200    0.22200    0.67630    1.000
    C1593    C        0.92148    0.18106    0.67611    1.000
    C1594    C        0.89019    0.15188    0.66369    1.000
    C1595    C        0.85259    0.13284    0.67291    1.000
    C1596    C        0.84657    0.13947    0.69507    1.000
    C1597    C        0.87861    0.16791    0.70729    1.000
    C1598    C        0.91697    0.19098    0.69714    1.000
    C1599    C        0.95009    0.22445    0.71042    1.000
    H1495    H        0.96600    0.24660    0.70070    1.000
    H1496    H        0.93870    0.23280    0.72200    1.000
    H1497    H        0.96670    0.21520    0.71700    1.000
    C1600    C        0.89632    0.13993    0.64030    1.000
    H1498    H        0.91920    0.13640    0.64030    1.000
    H1499    H        0.87310    0.11540    0.63600    1.000
    H1500    H        0.90050    0.16050    0.62990    1.000
    C1601    C        0.80586    0.11684    0.70521    1.000
    H1501    H        0.79000    0.09270    0.69690    1.000
    H1502    H        0.80800    0.11030    0.72040    1.000
    H1503    H        0.79340    0.13300    0.70480    1.000
    C1602    C        0.81692    0.10433    0.65935    1.000
    H1504    H        0.82210    0.11070    0.64360    1.000
    H1505    H        0.79390    0.10650    0.66360    1.000
    C1603    C        0.77625    0.03501    0.65286    1.000
    C1604    C        0.75091    0.04203    0.63956    1.000
    H1506    H        0.75630    0.06800    0.63710    1.000
    C1605    C        0.71743    0.01017    0.62989    1.000
    H1507    H        0.70050    0.01490    0.62100    1.000
    C1606    C        0.70928    0.97128    0.63353    1.000
    H1508    H        0.68690    0.95000    0.62710    1.000
    C1607    C        0.73463    0.96426    0.64683    1.000
    C1608    C        0.76811    0.99612    0.65650    1.000
    H1509    H        0.78500    0.99140    0.66540    1.000
    C1609    C        0.72594    0.92310    0.65066    1.000
    C1610    C        0.87215    0.17627    0.73127    1.000
    H1510    H        0.89710    0.18730    0.73940    1.000
    H1511    H        0.85290    0.15150    0.73850    1.000
    C1611    C        0.84509    0.20964    0.75140    1.000
    C1612    C        0.83065    0.23607    0.75054    1.000
    H1512    H        0.83060    0.24790    0.73700    1.000
    C1613    C        0.81646    0.24489    0.76946    1.000
    H1513    H        0.80610    0.26200    0.76870    1.000
    C1614    C        0.81764    0.22798    0.78994    1.000
    H1514    H        0.80910    0.23470    0.80290    1.000
    C1615    C        0.83144    0.20133    0.79078    1.000
    C1616    C        0.84603    0.19331    0.77136    1.000
    H1515    H        0.85660    0.17640    0.77210    1.000
    C1617    C        0.83327    0.18305    0.81245    1.000
    C1618    C        0.04091    0.17085    0.65658    1.000
    C1619    C        0.01474    0.14841    0.63739    1.000
    C1620    C        0.98721    0.10783    0.63900    1.000
    H1516    H        0.98590    0.09390    0.65200    1.000
    C1621    C        0.96169    0.08804    0.62125    1.000
    H1517    H        0.94330    0.06090    0.62230    1.000
    C1622    C        0.96369    0.10883    0.60188    1.000
    H1518    H        0.94660    0.09560    0.59000    1.000
    C1623    C        0.99122    0.14941    0.60027    1.000
    C1624    C        0.01674    0.16920    0.61803    1.000
    H1519    H        0.03510    0.19630    0.61700    1.000
    C1625    C        0.01166    0.20834    0.58063    1.000
    H1520    H        0.00670    0.21820    0.59450    1.000
    H1521    H        0.04010    0.21840    0.57940    1.000
    C1626    C        0.99726    0.22275    0.56079    1.000
    C1627    C        0.96156    0.22240    0.56208    1.000
    C1628    C        0.95191    0.24136    0.54477    1.000
    C1629    C        0.97856    0.26073    0.52795    1.000
    C1630    C        0.01381    0.25912    0.52596    1.000
    C1631    C        0.02257    0.23809    0.54159    1.000
    C1632    C        0.05878    0.23321    0.53941    1.000
    H1522    H        0.05330    0.20840    0.54610    1.000
    H1523    H        0.06500    0.23320    0.52390    1.000
    H1524    H        0.08100    0.25490    0.54690    1.000
    C1633    C        0.93442    0.20505    0.58094    1.000
    H1525    H        0.93730    0.22600    0.59080    1.000
    H1526    H        0.90740    0.19040    0.57560    1.000
    H1527    H        0.94070    0.18730    0.58890    1.000
    C1634    C        0.96924    0.28494    0.51111    1.000
    H1528    H        0.96240    0.30230    0.51900    1.000
    H1529    H        0.99230    0.30060    0.50190    1.000
    H1530    H        0.94720    0.26700    0.50190    1.000
    C1635    C        0.91376    0.24209    0.54614    1.000
    H1531    H        0.89500    0.22130    0.55600    1.000
    H1532    H        0.90160    0.23840    0.53150    1.000
    C1636    C        0.89870    0.29389    0.55276    1.000
    C1637    C        0.91320    0.33438    0.55634    1.000
    H1533    H        0.94030    0.35140    0.55910    1.000
    C1638    C        0.88729    0.34952    0.55576    1.000
    H1534    H        0.89700    0.37660    0.55820    1.000
    C1639    C        0.84687    0.32416    0.55161    1.000
    H1535    H        0.82950    0.33430    0.55120    1.000
    C1640    C        0.83235    0.28366    0.54804    1.000
    C1641    C        0.85826    0.26852    0.54862    1.000
    H1536    H        0.84850    0.24140    0.54620    1.000
    C1642    C        0.79031    0.25761    0.54393    1.000
    C1643    C        0.04341    0.28493    0.50871    1.000
    H1537    H        0.06800    0.28450    0.51090    1.000
    H1538    H        0.04920    0.31220    0.51070    1.000
    C1644    C        0.04479    0.30198    0.47075    1.000
    C1645    C        0.02387    0.29184    0.45069    1.000
    H1539    H        0.00150    0.26670    0.44890    1.000
    C1646    C        0.03643    0.31930    0.43329    1.000
    H1540    H        0.02240    0.31250    0.41990    1.000
    C1647    C        0.06994    0.35691    0.43594    1.000
    H1541    H        0.07840    0.37530    0.42430    1.000
    C1648    C        0.09086    0.36705    0.45600    1.000
    C1649    C        0.07830    0.33959    0.47340    1.000
    H1542    H        0.09230    0.34640    0.48680    1.000
    C1650    C        0.12694    0.40685    0.45870    1.000
    Mn73     Mn       0.17851    0.34302    0.63902    1.000
    Mn74     Mn       0.11529    0.25527    0.67152    1.000
    Mn75     Mn       0.04573    0.18567    0.70752    1.000
    O481     O        0.12540    0.33681    0.61950    1.000
    O482     O        0.10863    0.29018    0.64353    1.000
    O483     O        0.95775    0.23277    0.64963    1.000
    O484     O        0.85818    0.20306    0.73174    1.000
    O485     O        0.84570    0.15873    0.81146    1.000
    O486     O        0.82270    0.19296    0.82963    1.000
    O487     O        0.80920    0.06431    0.66341    1.000
    O488     O        0.75130    0.91666    0.65900    1.000
    O489     O        0.69241    0.89625    0.64350    1.000
    O490     O        0.07078    0.20188    0.65250    1.000
    O491     O        0.02978    0.15533    0.67509    1.000
    O492     O        0.99084    0.16623    0.58065    1.000
    O493     O        0.92556    0.28201    0.55510    1.000
    O494     O        0.77907    0.22228    0.53760    1.000
    O495     O        0.76463    0.26738    0.54744    1.000
    O496     O        0.02992    0.27271    0.48670    1.000
    O497     O        0.14288    0.41716    0.47737    1.000
    O498     O        0.14071    0.42934    0.44167    1.000
    O499     O        0.22690    0.39680    0.62870    1.000
    O500     O        0.23530    0.39990    0.63160    1.000
    H1543    H        0.22980    0.42100    0.62910    1.000
    H1544    H        0.24860    0.39720    0.61880    1.000
    H1545    H        0.25720    0.39510    0.63250    1.000
    H1546    H        0.23830    0.41890    0.64280    1.000
    H1547    H        0.21880    0.41600    0.62590    1.000
    H1548    H        0.23670    0.39170    0.61510    1.000
    H1549    H        0.24980    0.39360    0.62790    1.000
    H1550    H        0.23200    0.41800    0.63870    1.000
    C1651    C        0.76513    0.64049    0.96337    1.000
    C1652    C        0.72346    0.62895    0.95994    1.000
    C1653    C        0.71358    0.65126    0.94557    1.000
    H1551    H        0.73337    0.67083    0.93663    1.000
    C1654    C        0.67587    0.64500    0.94442    1.000
    H1552    H        0.66977    0.66013    0.93483    1.000
    C1655    C        0.64753    0.61689    0.95717    1.000
    H1553    H        0.62177    0.61283    0.95653    1.000
    C1656    C        0.65583    0.59321    0.97167    1.000
    C1657    C        0.69397    0.59949    0.97301    1.000
    H1554    H        0.69987    0.58413    0.98253    1.000
    C1658    C        0.62862    0.53987    0.99847    1.000
    H1555    H        0.63677    0.52313    0.99063    1.000
    H1556    H        0.64867    0.55533    0.00963    1.000
    C1659    C        0.58815    0.51439    0.00944    1.000
    C1660    C        0.55686    0.48521    0.99702    1.000
    C1661    C        0.51926    0.46617    0.00624    1.000
    C1662    C        0.51324    0.47280    0.02840    1.000
    C1663    C        0.54528    0.50124    0.04062    1.000
    C1664    C        0.58364    0.52431    0.03047    1.000
    C1665    C        0.61676    0.55778    0.04375    1.000
    H1557    H        0.63267    0.57993    0.03403    1.000
    H1558    H        0.60537    0.56613    0.05533    1.000
    H1559    H        0.63337    0.54853    0.05033    1.000
    C1666    C        0.56299    0.47326    0.97363    1.000
    H1560    H        0.58587    0.46973    0.97363    1.000
    H1561    H        0.53977    0.44873    0.96933    1.000
    H1562    H        0.56717    0.49383    0.96323    1.000
    C1667    C        0.47253    0.45017    0.03854    1.000
    H1563    H        0.45667    0.42603    0.03023    1.000
    H1564    H        0.47467    0.44363    0.05373    1.000
    H1565    H        0.46007    0.46633    0.03813    1.000
    C1668    C        0.48359    0.43766    0.99268    1.000
    H1566    H        0.48877    0.44403    0.97693    1.000
    H1567    H        0.46057    0.43983    0.99693    1.000
    C1669    C        0.44292    0.36834    0.98619    1.000
    C1670    C        0.41758    0.37536    0.97289    1.000
    H1568    H        0.42297    0.40133    0.97043    1.000
    C1671    C        0.38410    0.34350    0.96322    1.000
    H1569    H        0.36717    0.34823    0.95433    1.000
    C1672    C        0.37595    0.30461    0.96686    1.000
    H1570    H        0.35357    0.28333    0.96043    1.000
    C1673    C        0.40130    0.29759    0.98016    1.000
    C1674    C        0.43478    0.32945    0.98983    1.000
    H1571    H        0.45167    0.32473    0.99873    1.000
    C1675    C        0.39261    0.25643    0.98399    1.000
    C1676    C        0.53882    0.50960    0.06460    1.000
    H1572    H        0.56377    0.52063    0.07273    1.000
    H1573    H        0.51957    0.48483    0.07183    1.000
    C1677    C        0.51176    0.54297    0.08473    1.000
    C1678    C        0.49732    0.56940    0.08387    1.000
    H1574    H        0.49727    0.58123    0.07033    1.000
    C1679    C        0.48313    0.57822    0.10279    1.000
    H1575    H        0.47277    0.59533    0.10203    1.000
    C1680    C        0.48431    0.56131    0.12327    1.000
    H1576    H        0.47577    0.56803    0.13623    1.000
    C1681    C        0.49811    0.53466    0.12411    1.000
    C1682    C        0.51270    0.52664    0.10469    1.000
    H1577    H        0.52327    0.50973    0.10543    1.000
    C1683    C        0.49994    0.51638    0.14578    1.000
    C1684    C        0.70758    0.50418    0.98991    1.000
    C1685    C        0.68141    0.48174    0.97072    1.000
    C1686    C        0.65388    0.44116    0.97233    1.000
    H1578    H        0.65257    0.42723    0.98533    1.000
    C1687    C        0.62836    0.42137    0.95458    1.000
    H1579    H        0.60997    0.39423    0.95563    1.000
    C1688    C        0.63036    0.44216    0.93521    1.000
    H1580    H        0.61327    0.42893    0.92333    1.000
    C1689    C        0.65789    0.48274    0.93360    1.000
    C1690    C        0.68341    0.50253    0.95136    1.000
    H1581    H        0.70177    0.52963    0.95033    1.000
    C1691    C        0.67833    0.54167    0.91396    1.000
    H1582    H        0.67337    0.55153    0.92783    1.000
    H1583    H        0.70677    0.55173    0.91273    1.000
    C1692    C        0.66393    0.55608    0.89412    1.000
    C1693    C        0.62823    0.55573    0.89541    1.000
    C1694    C        0.61858    0.57469    0.87810    1.000
    C1695    C        0.64523    0.59406    0.86128    1.000
    C1696    C        0.68048    0.59245    0.85929    1.000
    C1697    C        0.68924    0.57142    0.87492    1.000
    C1698    C        0.72545    0.56654    0.87274    1.000
    H1584    H        0.71997    0.54173    0.87943    1.000
    H1585    H        0.73167    0.56653    0.85723    1.000
    H1586    H        0.74767    0.58823    0.88023    1.000
    C1699    C        0.60109    0.53838    0.91427    1.000
    H1587    H        0.60397    0.55933    0.92413    1.000
    H1588    H        0.57407    0.52373    0.90893    1.000
    H1589    H        0.60737    0.52063    0.92223    1.000
    C1700    C        0.63591    0.61827    0.84444    1.000
    H1590    H        0.62907    0.63563    0.85233    1.000
    H1591    H        0.65897    0.63393    0.83523    1.000
    H1592    H        0.61387    0.60033    0.83523    1.000
    C1701    C        0.58043    0.57542    0.87947    1.000
    H1593    H        0.56167    0.55463    0.88933    1.000
    H1594    H        0.56827    0.57173    0.86483    1.000
    C1702    C        0.56537    0.62722    0.88609    1.000
    C1703    C        0.57987    0.66771    0.88967    1.000
    H1595    H        0.60697    0.68473    0.89243    1.000
    C1704    C        0.55396    0.68285    0.88909    1.000
    H1596    H        0.56367    0.70993    0.89153    1.000
    C1705    C        0.51354    0.65749    0.88494    1.000
    H1597    H        0.49617    0.66763    0.88453    1.000
    C1706    C        0.49902    0.61699    0.88137    1.000
    C1707    C        0.52493    0.60185    0.88195    1.000
    H1598    H        0.51517    0.57473    0.87953    1.000
    C1708    C        0.45698    0.59094    0.87726    1.000
    C1709    C        0.71008    0.61826    0.84204    1.000
    H1599    H        0.73467    0.61783    0.84423    1.000
    H1600    H        0.71587    0.64553    0.84403    1.000
    C1710    C        0.71146    0.63531    0.80408    1.000
    C1711    C        0.69054    0.62517    0.78402    1.000
    H1601    H        0.66817    0.60003    0.78223    1.000
    C1712    C        0.70310    0.65263    0.76662    1.000
    H1602    H        0.68907    0.64583    0.75323    1.000
    C1713    C        0.73661    0.69024    0.76927    1.000
    H1603    H        0.74507    0.70863    0.75763    1.000
    C1714    C        0.75753    0.70038    0.78933    1.000
    C1715    C        0.74497    0.67292    0.80673    1.000
    H1604    H        0.75897    0.67973    0.82013    1.000
    C1716    C        0.79361    0.74018    0.79203    1.000
    Mn76     Mn       0.84518    0.67635    0.97235    1.000
    Mn77     Mn       0.78196    0.58861    0.00485    1.000
    Mn78     Mn       0.71239    0.51900    0.04085    1.000
    O501     O        0.79207    0.67014    0.95283    1.000
    O502     O        0.77530    0.62351    0.97686    1.000
    O503     O        0.62442    0.56610    0.98296    1.000
    O504     O        0.52485    0.53639    0.06507    1.000
    O505     O        0.51237    0.49206    0.14479    1.000
    O506     O        0.48937    0.52629    0.16296    1.000
    O507     O        0.47587    0.39764    0.99674    1.000
    O508     O        0.41797    0.24999    0.99233    1.000
    O509     O        0.35908    0.22958    0.97683    1.000
    O510     O        0.73745    0.53521    0.98583    1.000
    O511     O        0.69645    0.48866    0.00842    1.000
    O512     O        0.65751    0.49956    0.91398    1.000
    O513     O        0.59223    0.61534    0.88843    1.000
    O514     O        0.44574    0.55561    0.87093    1.000
    O515     O        0.43130    0.60071    0.88077    1.000
    O516     O        0.69659    0.60604    0.82003    1.000
    O517     O        0.80955    0.75049    0.81070    1.000
    O518     O        0.80738    0.76267    0.77500    1.000
    O519     O        0.89357    0.73013    0.96203    1.000
    O520     O        0.90197    0.73323    0.96493    1.000
    H1605    H        0.89647    0.75433    0.96243    1.000
    H1606    H        0.91527    0.73053    0.95213    1.000
    H1607    H        0.92387    0.72843    0.96583    1.000
    H1608    H        0.90497    0.75223    0.97613    1.000
    H1609    H        0.88547    0.74933    0.95923    1.000
    H1610    H        0.90337    0.72503    0.94843    1.000
    H1611    H        0.91647    0.72693    0.96123    1.000
    H1612    H        0.89867    0.75133    0.97203    1.000
    C1717    C        0.43179    0.97383    0.29671    1.000
    C1718    C        0.39012    0.96229    0.29328    1.000
    C1719    C        0.38024    0.98460    0.27891    1.000
    H1613    H        0.40003    0.00417    0.26997    1.000
    C1720    C        0.34253    0.97834    0.27776    1.000
    H1614    H        0.33643    0.99347    0.26817    1.000
    C1721    C        0.31419    0.95023    0.29051    1.000
    H1615    H        0.28843    0.94617    0.28987    1.000
    C1722    C        0.32249    0.92655    0.30501    1.000
    C1723    C        0.36063    0.93283    0.30635    1.000
    H1616    H        0.36653    0.91747    0.31587    1.000
    C1724    C        0.29528    0.87321    0.33181    1.000
    H1617    H        0.30343    0.85647    0.32397    1.000
    H1618    H        0.31533    0.88867    0.34297    1.000
    C1725    C        0.25481    0.84773    0.34278    1.000
    C1726    C        0.22352    0.81855    0.33036    1.000
    C1727    C        0.18592    0.79951    0.33958    1.000
    C1728    C        0.17990    0.80614    0.36174    1.000
    C1729    C        0.21194    0.83458    0.37396    1.000
    C1730    C        0.25030    0.85765    0.36381    1.000
    C1731    C        0.28342    0.89112    0.37709    1.000
    H1619    H        0.29933    0.91327    0.36737    1.000
    H1620    H        0.27203    0.89947    0.38867    1.000
    H1621    H        0.30003    0.88187    0.38367    1.000
    C1732    C        0.22965    0.80660    0.30697    1.000
    H1622    H        0.25253    0.80307    0.30697    1.000
    H1623    H        0.20643    0.78207    0.30267    1.000
    H1624    H        0.23383    0.82717    0.29657    1.000
    C1733    C        0.13919    0.78351    0.37188    1.000
    H1625    H        0.12333    0.75937    0.36357    1.000
    H1626    H        0.14133    0.77697    0.38707    1.000
    H1627    H        0.12673    0.79967    0.37147    1.000
    C1734    C        0.15025    0.77100    0.32602    1.000
    H1628    H        0.15543    0.77737    0.31027    1.000
    H1629    H        0.12723    0.77317    0.33027    1.000
    C1735    C        0.10958    0.70168    0.31953    1.000
    C1736    C        0.08424    0.70870    0.30623    1.000
    H1630    H        0.08963    0.73467    0.30377    1.000
    C1737    C        0.05076    0.67684    0.29656    1.000
    H1631    H        0.03383    0.68157    0.28767    1.000
    C1738    C        0.04261    0.63795    0.30020    1.000
    H1632    H        0.02023    0.61667    0.29377    1.000
    C1739    C        0.06796    0.63093    0.31350    1.000
    C1740    C        0.10144    0.66279    0.32317    1.000
    H1633    H        0.11833    0.65807    0.33207    1.000
    C1741    C        0.05927    0.58977    0.31733    1.000
    C1742    C        0.20548    0.84294    0.39794    1.000
    H1634    H        0.23043    0.85397    0.40607    1.000
    H1635    H        0.18623    0.81817    0.40517    1.000
    C1743    C        0.17842    0.87631    0.41807    1.000
    C1744    C        0.16398    0.90274    0.41721    1.000
    H1636    H        0.16393    0.91457    0.40367    1.000
    C1745    C        0.14979    0.91156    0.43613    1.000
    H1637    H        0.13943    0.92867    0.43537    1.000
    C1746    C        0.15097    0.89465    0.45661    1.000
    H1638    H        0.14243    0.90137    0.46957    1.000
    C1747    C        0.16477    0.86800    0.45745    1.000
    C1748    C        0.17936    0.85998    0.43803    1.000
    H1639    H        0.18993    0.84307    0.43877    1.000
    C1749    C        0.16660    0.84972    0.47912    1.000
    C1750    C        0.37424    0.83752    0.32325    1.000
    C1751    C        0.34807    0.81508    0.30406    1.000
    C1752    C        0.32054    0.77450    0.30567    1.000
    H1640    H        0.31923    0.76057    0.31867    1.000
    C1753    C        0.29502    0.75471    0.28792    1.000
    H1641    H        0.27663    0.72757    0.28897    1.000
    C1754    C        0.29702    0.77550    0.26855    1.000
    H1642    H        0.27993    0.76227    0.25667    1.000
    C1755    C        0.32455    0.81608    0.26694    1.000
    C1756    C        0.35007    0.83587    0.28470    1.000
    H1643    H        0.36843    0.86297    0.28367    1.000
    C1757    C        0.34499    0.87501    0.24730    1.000
    H1644    H        0.34003    0.88487    0.26117    1.000
    H1645    H        0.37343    0.88507    0.24607    1.000
    C1758    C        0.33059    0.88942    0.22746    1.000
    C1759    C        0.29489    0.88907    0.22875    1.000
    C1760    C        0.28524    0.90803    0.21144    1.000
    C1761    C        0.31189    0.92740    0.19462    1.000
    C1762    C        0.34714    0.92579    0.19263    1.000
    C1763    C        0.35590    0.90476    0.20826    1.000
    C1764    C        0.39211    0.89988    0.20608    1.000
    H1646    H        0.38663    0.87507    0.21277    1.000
    H1647    H        0.39833    0.89987    0.19057    1.000
    H1648    H        0.41433    0.92157    0.21357    1.000
    C1765    C        0.26775    0.87172    0.24761    1.000
    H1649    H        0.27063    0.89267    0.25747    1.000
    H1650    H        0.24073    0.85707    0.24227    1.000
    H1651    H        0.27403    0.85397    0.25557    1.000
    C1766    C        0.30257    0.95161    0.17778    1.000
    H1652    H        0.29573    0.96897    0.18567    1.000
    H1653    H        0.32563    0.96727    0.16857    1.000
    H1654    H        0.28053    0.93367    0.16857    1.000
    C1767    C        0.24709    0.90876    0.21281    1.000
    H1655    H        0.22833    0.88797    0.22267    1.000
    H1656    H        0.23493    0.90507    0.19817    1.000
    C1768    C        0.23203    0.96056    0.21943    1.000
    C1769    C        0.24653    0.00105    0.22301    1.000
    H1657    H        0.27363    0.01807    0.22577    1.000
    C1770    C        0.22062    0.01619    0.22243    1.000
    H1658    H        0.23033    0.04327    0.22487    1.000
    C1771    C        0.18020    0.99083    0.21828    1.000
    H1659    H        0.16283    0.00097    0.21787    1.000
    C1772    C        0.16568    0.95033    0.21471    1.000
    C1773    C        0.19159    0.93519    0.21529    1.000
    H1660    H        0.18183    0.90807    0.21287    1.000
    C1774    C        0.12364    0.92428    0.21060    1.000
    C1775    C        0.37674    0.95160    0.17538    1.000
    H1661    H        0.40133    0.95117    0.17757    1.000
    H1662    H        0.38253    0.97887    0.17737    1.000
    C1776    C        0.37812    0.96865    0.13742    1.000
    C1777    C        0.35720    0.95851    0.11736    1.000
    H1663    H        0.33483    0.93337    0.11557    1.000
    C1778    C        0.36976    0.98597    0.09996    1.000
    H1664    H        0.35573    0.97917    0.08657    1.000
    C1779    C        0.40327    0.02358    0.10261    1.000
    H1665    H        0.41173    0.04197    0.09097    1.000
    C1780    C        0.42419    0.03372    0.12267    1.000
    C1781    C        0.41163    0.00626    0.14007    1.000
    H1666    H        0.42563    0.01307    0.15347    1.000
    C1782    C        0.46027    0.07352    0.12537    1.000
    Mn79     Mn       0.51185    0.00968    0.30569    1.000
    Mn80     Mn       0.44863    0.92194    0.33818    1.000
    Mn81     Mn       0.37906    0.85234    0.37418    1.000
    O521     O        0.45873    0.00348    0.28617    1.000
    O522     O        0.44196    0.95685    0.31020    1.000
    O523     O        0.29108    0.89944    0.31630    1.000
    O524     O        0.19151    0.86973    0.39841    1.000
    O525     O        0.17903    0.82540    0.47813    1.000
    O526     O        0.15603    0.85963    0.49630    1.000
    O527     O        0.14253    0.73098    0.33008    1.000
    O528     O        0.08463    0.58333    0.32567    1.000
    O529     O        0.02574    0.56292    0.31017    1.000
    O530     O        0.40411    0.86855    0.31917    1.000
    O531     O        0.36311    0.82200    0.34176    1.000
    O532     O        0.32417    0.83290    0.24732    1.000
    O533     O        0.25889    0.94868    0.22177    1.000
    O534     O        0.11240    0.88895    0.20427    1.000
    O535     O        0.09796    0.93405    0.21411    1.000
    O536     O        0.36325    0.93938    0.15337    1.000
    O537     O        0.47621    0.08383    0.14404    1.000
    O538     O        0.47404    0.09601    0.10834    1.000
    O539     O        0.56023    0.06347    0.29537    1.000
    O540     O        0.56863    0.06657    0.29827    1.000
    H1667    H        0.56313    0.08767    0.29577    1.000
    H1668    H        0.58193    0.06387    0.28547    1.000
    H1669    H        0.59053    0.06177    0.29917    1.000
    H1670    H        0.57163    0.08557    0.30947    1.000
    H1671    H        0.55213    0.08267    0.29257    1.000
    H1672    H        0.57003    0.05837    0.28177    1.000
    H1673    H        0.58313    0.06027    0.29457    1.000
    H1674    H        0.56533    0.08467    0.30537    1.000
    C1783    C        0.79130    0.69284    0.86996    1.000
    C1784    C        0.76117    0.70438    0.87339    1.000
    C1785    C        0.72898    0.68207    0.88776    1.000
    H1675    H        0.72920    0.66250    0.89670    1.000
    C1786    C        0.69753    0.68833    0.88891    1.000
    H1676    H        0.67630    0.67320    0.89850    1.000
    C1787    C        0.69730    0.71644    0.87616    1.000
    H1677    H        0.67560    0.72050    0.87680    1.000
    C1788    C        0.72928    0.74012    0.86166    1.000
    C1789    C        0.76114    0.73384    0.86032    1.000
    H1678    H        0.78240    0.74920    0.85080    1.000
    C1790    C        0.75541    0.79346    0.83486    1.000
    H1679    H        0.78030    0.81020    0.84270    1.000
    H1680    H        0.76000    0.77800    0.82370    1.000
    C1791    C        0.74042    0.81894    0.82389    1.000
    C1792    C        0.73831    0.84812    0.83631    1.000
    C1793    C        0.71975    0.86716    0.82709    1.000
    C1794    C        0.70710    0.86053    0.80493    1.000
    C1795    C        0.71070    0.83209    0.79271    1.000
    C1796    C        0.72599    0.80902    0.80286    1.000
    C1797    C        0.72564    0.77555    0.78958    1.000
    H1681    H        0.71940    0.75340    0.79930    1.000
    H1682    H        0.70590    0.76720    0.77800    1.000
    H1683    H        0.75150    0.78480    0.78300    1.000
    C1798    C        0.75639    0.86007    0.85970    1.000
    H1684    H        0.78280    0.86360    0.85970    1.000
    H1685    H        0.75770    0.88460    0.86400    1.000
    H1686    H        0.74000    0.83950    0.87010    1.000
    C1799    C        0.68902    0.88316    0.79479    1.000
    H1687    H        0.69730    0.90730    0.80310    1.000
    H1688    H        0.69770    0.88970    0.77960    1.000
    H1689    H        0.66040    0.86700    0.79520    1.000
    C1800    C        0.71259    0.89567    0.84065    1.000
    H1690    H        0.71140    0.88930    0.85640    1.000
    H1691    H        0.68740    0.89350    0.83640    1.000
    C1801    C        0.74124    0.96499    0.84714    1.000
    C1802    C        0.70888    0.95797    0.86044    1.000
    H1692    H        0.68830    0.93200    0.86290    1.000
    C1803    C        0.70726    0.98983    0.87011    1.000
    H1693    H        0.68560    0.98510    0.87900    1.000
    C1804    C        0.73800    0.02872    0.86647    1.000
    H1694    H        0.73690    0.05000    0.87290    1.000
    C1805    C        0.77037    0.03574    0.85317    1.000
    C1806    C        0.77199    0.00388    0.84350    1.000
    H1695    H        0.79360    0.00860    0.83460    1.000
    C1807    C        0.80284    0.07690    0.84934    1.000
    C1808    C        0.69588    0.82373    0.76873    1.000
    H1696    H        0.70980    0.81270    0.76060    1.000
    H1697    H        0.70140    0.84850    0.76150    1.000
    C1809    C        0.63545    0.79036    0.74860    1.000
    C1810    C        0.59458    0.76393    0.74946    1.000
    H1698    H        0.58270    0.75210    0.76300    1.000
    C1811    C        0.57157    0.75511    0.73054    1.000
    H1699    H        0.54410    0.73800    0.73130    1.000
    C1812    C        0.58966    0.77202    0.71006    1.000
    H1700    H        0.57440    0.76530    0.69710    1.000
    C1813    C        0.63011    0.79867    0.70922    1.000
    C1814    C        0.65272    0.80669    0.72864    1.000
    H1701    H        0.68020    0.82360    0.72790    1.000
    C1815    C        0.65022    0.81695    0.68755    1.000
    C1816    C        0.87006    0.82915    0.84342    1.000
    C1817    C        0.86633    0.85159    0.86261    1.000
    C1818    C        0.87938    0.89217    0.86100    1.000
    H1702    H        0.89200    0.90610    0.84800    1.000
    C1819    C        0.87365    0.91196    0.87875    1.000
    H1703    H        0.88240    0.93910    0.87770    1.000
    C1820    C        0.85486    0.89117    0.89812    1.000
    H1704    H        0.85100    0.90440    0.91000    1.000
    C1821    C        0.84181    0.85059    0.89973    1.000
    C1822    C        0.84754    0.83080    0.88197    1.000
    H1705    H        0.83880    0.80370    0.88300    1.000
    C1823    C        0.80332    0.79166    0.91937    1.000
    H1706    H        0.78850    0.78180    0.90550    1.000
    H1707    H        0.82170    0.78160    0.92060    1.000
    C1824    C        0.77451    0.77725    0.93921    1.000
    C1825    C        0.73916    0.77760    0.93792    1.000
    C1826    C        0.71055    0.75864    0.95523    1.000
    C1827    C        0.71783    0.73927    0.97205    1.000
    C1828    C        0.75469    0.74088    0.97404    1.000
    C1829    C        0.78448    0.76191    0.95841    1.000
    C1830    C        0.82557    0.76679    0.96059    1.000
    H1708    H        0.84490    0.79160    0.95390    1.000
    H1709    H        0.83180    0.76680    0.97610    1.000
    H1710    H        0.82610    0.74510    0.95310    1.000
    C1831    C        0.72937    0.79495    0.91906    1.000
    H1711    H        0.71130    0.77400    0.90920    1.000
    H1712    H        0.71700    0.80960    0.92440    1.000
    H1713    H        0.75340    0.81270    0.91110    1.000
    C1832    C        0.68430    0.71506    0.98889    1.000
    H1714    H        0.66010    0.69770    0.98100    1.000
    H1715    H        0.69170    0.69940    0.99810    1.000
    H1716    H        0.68020    0.73300    0.99810    1.000
    C1833    C        0.67167    0.75791    0.95386    1.000
    H1717    H        0.67370    0.77870    0.94400    1.000
    H1718    H        0.66320    0.76160    0.96850    1.000
    C1834    C        0.60481    0.70611    0.94724    1.000
    C1835    C        0.57882    0.66562    0.94366    1.000
    H1719    H        0.58890    0.64860    0.94090    1.000
    C1836    C        0.53777    0.65048    0.94424    1.000
    H1720    H        0.52040    0.62340    0.94180    1.000
    C1837    C        0.52271    0.67584    0.94839    1.000
    H1721    H        0.49520    0.66570    0.94880    1.000
    C1838    C        0.54869    0.71634    0.95196    1.000
    C1839    C        0.58974    0.73148    0.95138    1.000
    H1722    H        0.60710    0.75860    0.95380    1.000
    C1840    C        0.53270    0.74239    0.95607    1.000
    C1841    C        0.75848    0.71507    0.99129    1.000
    H1723    H        0.78350    0.71550    0.98910    1.000
    H1724    H        0.73700    0.68780    0.98930    1.000
    C1842    C        0.74281    0.69802    0.02925    1.000
    C1843    C        0.73203    0.70816    0.04931    1.000
    H1725    H        0.73480    0.73330    0.05110    1.000
    C1844    C        0.71713    0.68070    0.06671    1.000
    H1726    H        0.70990    0.68750    0.08010    1.000
    C1845    C        0.71303    0.64309    0.06406    1.000
    H1727    H        0.70310    0.62470    0.07570    1.000
    C1846    C        0.72381    0.63295    0.04400    1.000
    C1847    C        0.73871    0.66041    0.02660    1.000
    H1728    H        0.74590    0.65360    0.01320    1.000
    C1848    C        0.72009    0.59315    0.04130    1.000
    Mn82     Mn       0.83550    0.65698    0.86098    1.000
    Mn83     Mn       0.86002    0.74473    0.82848    1.000
    Mn84     Mn       0.86006    0.81433    0.79248    1.000
    O541     O        0.78859    0.66319    0.88050    1.000
    O542     O        0.81845    0.70982    0.85647    1.000
    O543     O        0.72498    0.76723    0.85037    1.000
    O544     O        0.65512    0.79694    0.76826    1.000
    O545     O        0.68697    0.84127    0.68854    1.000
    O546     O        0.62974    0.80704    0.67037    1.000
    O547     O        0.74489    0.93569    0.83659    1.000
    O548     O        0.83464    0.08334    0.84100    1.000
    O549     O        0.79616    0.10375    0.85650    1.000
    O550     O        0.86890    0.79812    0.84750    1.000
    O551     O        0.87445    0.84467    0.82491    1.000
    O552     O        0.82461    0.83377    0.91935    1.000
    O553     O        0.64355    0.71799    0.94490    1.000
    O554     O        0.55679    0.77772    0.96240    1.000
    O555     O        0.49725    0.73262    0.95256    1.000
    O556     O        0.75721    0.72729    0.01330    1.000
    O557     O        0.72572    0.58284    0.02263    1.000
    O558     O        0.71137    0.57066    0.05833    1.000
    O559     O        0.83010    0.60320    0.87130    1.000
    O560     O        0.83540    0.60010    0.86840    1.000
    H1729    H        0.80880    0.57900    0.87090    1.000
    H1730    H        0.85140    0.60280    0.88120    1.000
    H1731    H        0.86210    0.60490    0.86750    1.000
    H1732    H        0.81940    0.58110    0.85720    1.000
    H1733    H        0.80280    0.58400    0.87410    1.000
    H1734    H        0.84500    0.60830    0.88490    1.000
    H1735    H        0.85620    0.60640    0.87210    1.000
    H1736    H        0.81400    0.58200    0.86130    1.000
    C1849    C        0.45797    0.02617    0.20329    1.000
    C1850    C        0.42784    0.03771    0.20672    1.000
    C1851    C        0.39565    0.01540    0.22109    1.000
    H1737    H        0.39587    0.99583    0.23003    1.000
    C1852    C        0.36420    0.02166    0.22224    1.000
    H1738    H        0.34297    0.00653    0.23183    1.000
    C1853    C        0.36397    0.04977    0.20949    1.000
    H1739    H        0.34227    0.05383    0.21013    1.000
    C1854    C        0.39595    0.07345    0.19499    1.000
    C1855    C        0.42781    0.06717    0.19365    1.000
    H1740    H        0.44907    0.08253    0.18413    1.000
    C1856    C        0.42208    0.12679    0.16819    1.000
    H1741    H        0.44697    0.14353    0.17603    1.000
    H1742    H        0.42667    0.11133    0.15703    1.000
    C1857    C        0.40709    0.15227    0.15722    1.000
    C1858    C        0.40498    0.18145    0.16964    1.000
    C1859    C        0.38642    0.20049    0.16042    1.000
    C1860    C        0.37377    0.19386    0.13826    1.000
    C1861    C        0.37737    0.16542    0.12604    1.000
    C1862    C        0.39266    0.14235    0.13619    1.000
    C1863    C        0.39231    0.10888    0.12291    1.000
    H1743    H        0.38607    0.08673    0.13263    1.000
    H1744    H        0.37257    0.10053    0.11133    1.000
    H1745    H        0.41817    0.11813    0.11633    1.000
    C1864    C        0.42306    0.19340    0.19303    1.000
    H1746    H        0.44947    0.19693    0.19303    1.000
    H1747    H        0.42437    0.21793    0.19733    1.000
    H1748    H        0.40667    0.17283    0.20343    1.000
    C1865    C        0.35569    0.21649    0.12812    1.000
    H1749    H        0.36397    0.24063    0.13643    1.000
    H1750    H        0.36437    0.22303    0.11293    1.000
    H1751    H        0.32707    0.20033    0.12853    1.000
    C1866    C        0.37926    0.22900    0.17398    1.000
    H1752    H        0.37807    0.22263    0.18973    1.000
    H1753    H        0.35407    0.22683    0.16973    1.000
    C1867    C        0.40791    0.29832    0.18047    1.000
    C1868    C        0.37555    0.29130    0.19377    1.000
    H1754    H        0.35497    0.26533    0.19623    1.000
    C1869    C        0.37393    0.32316    0.20344    1.000
    H1755    H        0.35227    0.31843    0.21233    1.000
    C1870    C        0.40467    0.36205    0.19980    1.000
    H1756    H        0.40357    0.38333    0.20623    1.000
    C1871    C        0.43704    0.36907    0.18650    1.000
    C1872    C        0.43866    0.33721    0.17683    1.000
    H1757    H        0.46027    0.34193    0.16793    1.000
    C1873    C        0.46951    0.41023    0.18267    1.000
    C1874    C        0.36255    0.15706    0.10206    1.000
    H1758    H        0.37647    0.14603    0.09393    1.000
    H1759    H        0.36807    0.18183    0.09483    1.000
    C1875    C        0.30212    0.12369    0.08193    1.000
    C1876    C        0.26125    0.09726    0.08279    1.000
    H1760    H        0.24937    0.08543    0.09633    1.000
    C1877    C        0.23824    0.08844    0.06387    1.000
    H1761    H        0.21077    0.07133    0.06463    1.000
    C1878    C        0.25633    0.10535    0.04339    1.000
    H1762    H        0.24107    0.09863    0.03043    1.000
    C1879    C        0.29678    0.13200    0.04255    1.000
    C1880    C        0.31939    0.14002    0.06197    1.000
    H1763    H        0.34687    0.15693    0.06123    1.000
    C1881    C        0.31689    0.15028    0.02088    1.000
    C1882    C        0.53673    0.16248    0.17675    1.000
    C1883    C        0.53300    0.18492    0.19594    1.000
    C1884    C        0.54605    0.22550    0.19433    1.000
    H1764    H        0.55867    0.23943    0.18133    1.000
    C1885    C        0.54032    0.24529    0.21208    1.000
    H1765    H        0.54907    0.27243    0.21103    1.000
    C1886    C        0.52153    0.22450    0.23145    1.000
    H1766    H        0.51767    0.23773    0.24333    1.000
    C1887    C        0.50848    0.18392    0.23306    1.000
    C1888    C        0.51421    0.16413    0.21530    1.000
    H1767    H        0.50547    0.13703    0.21633    1.000
    C1889    C        0.46999    0.12499    0.25270    1.000
    H1768    H        0.45517    0.11513    0.23883    1.000
    H1769    H        0.48837    0.11493    0.25393    1.000
    C1890    C        0.44118    0.11058    0.27254    1.000
    C1891    C        0.40583    0.11093    0.27125    1.000
    C1892    C        0.37722    0.09197    0.28856    1.000
    C1893    C        0.38450    0.07260    0.30538    1.000
    C1894    C        0.42136    0.07421    0.30737    1.000
    C1895    C        0.45115    0.09524    0.29174    1.000
    C1896    C        0.49224    0.10012    0.29392    1.000
    H1770    H        0.51157    0.12493    0.28723    1.000
    H1771    H        0.49847    0.10013    0.30943    1.000
    H1772    H        0.49277    0.07843    0.28643    1.000
    C1897    C        0.39604    0.12828    0.25239    1.000
    H1773    H        0.37797    0.10733    0.24253    1.000
    H1774    H        0.38367    0.14293    0.25773    1.000
    H1775    H        0.42007    0.14603    0.24443    1.000
    C1898    C        0.35097    0.04839    0.32222    1.000
    H1776    H        0.32677    0.03103    0.31433    1.000
    H1777    H        0.35837    0.03273    0.33143    1.000
    H1778    H        0.34687    0.06633    0.33143    1.000
    C1899    C        0.33834    0.09124    0.28719    1.000
    H1779    H        0.34037    0.11203    0.27733    1.000
    H1780    H        0.32987    0.09493    0.30183    1.000
    C1900    C        0.27148    0.03944    0.28057    1.000
    C1901    C        0.24549    0.99895    0.27699    1.000
    H1781    H        0.25557    0.98193    0.27423    1.000
    C1902    C        0.20444    0.98381    0.27757    1.000
    H1782    H        0.18707    0.95673    0.27513    1.000
    C1903    C        0.18938    0.00917    0.28172    1.000
    H1783    H        0.16187    0.99903    0.28213    1.000
    C1904    C        0.21536    0.04967    0.28529    1.000
    C1905    C        0.25641    0.06481    0.28471    1.000
    H1784    H        0.27377    0.09193    0.28713    1.000
    C1906    C        0.19937    0.07572    0.28940    1.000
    C1907    C        0.42515    0.04840    0.32462    1.000
    H1785    H        0.45017    0.04883    0.32243    1.000
    H1786    H        0.40367    0.02113    0.32263    1.000
    C1908    C        0.40948    0.03135    0.36258    1.000
    C1909    C        0.39870    0.04149    0.38264    1.000
    H1787    H        0.40147    0.06663    0.38443    1.000
    C1910    C        0.38380    0.01403    0.40004    1.000
    H1788    H        0.37657    0.02083    0.41343    1.000
    C1911    C        0.37970    0.97642    0.39739    1.000
    H1789    H        0.36977    0.95803    0.40903    1.000
    C1912    C        0.39048    0.96628    0.37733    1.000
    C1913    C        0.40538    0.99374    0.35993    1.000
    H1790    H        0.41257    0.98693    0.34653    1.000
    C1914    C        0.38676    0.92648    0.37463    1.000
    Mn85     Mn       0.50216    0.99032    0.19431    1.000
    Mn86     Mn       0.52669    0.07806    0.16182    1.000
    Mn87     Mn       0.52672    0.14766    0.12582    1.000
    O561     O        0.45526    0.99652    0.21383    1.000
    O562     O        0.48512    0.04315    0.18980    1.000
    O563     O        0.39165    0.10056    0.18370    1.000
    O564     O        0.32179    0.13027    0.10159    1.000
    O565     O        0.35364    0.17460    0.02187    1.000
    O566     O        0.29641    0.14037    0.00370    1.000
    O567     O        0.41156    0.26902    0.16992    1.000
    O568     O        0.50131    0.41667    0.17433    1.000
    O569     O        0.46283    0.43708    0.18983    1.000
    O570     O        0.53557    0.13145    0.18083    1.000
    O571     O        0.54112    0.17800    0.15824    1.000
    O572     O        0.49128    0.16710    0.25268    1.000
    O573     O        0.31022    0.05132    0.27823    1.000
    O574     O        0.22346    0.11105    0.29573    1.000
    O575     O        0.16392    0.06595    0.28589    1.000
    O576     O        0.42388    0.06062    0.34663    1.000
    O577     O        0.39239    0.91617    0.35596    1.000
    O578     O        0.37804    0.90399    0.39166    1.000
    O579     O        0.49677    0.93653    0.20463    1.000
    O580     O        0.50207    0.93343    0.20173    1.000
    H1791    H        0.47547    0.91233    0.20423    1.000
    H1792    H        0.51807    0.93613    0.21453    1.000
    H1793    H        0.52877    0.93823    0.20083    1.000
    H1794    H        0.48607    0.91443    0.19053    1.000
    H1795    H        0.46947    0.91733    0.20743    1.000
    H1796    H        0.51167    0.94163    0.21823    1.000
    H1797    H        0.52287    0.93973    0.20543    1.000
    H1798    H        0.48067    0.91533    0.19463    1.000
    C1915    C        0.12463    0.35951    0.53663    1.000
    C1916    C        0.09450    0.37105    0.54006    1.000
    C1917    C        0.06231    0.34874    0.55443    1.000
    H1799    H        0.06253    0.32917    0.56337    1.000
    C1918    C        0.03086    0.35500    0.55558    1.000
    H1800    H        0.00963    0.33987    0.56517    1.000
    C1919    C        0.03063    0.38311    0.54283    1.000
    H1801    H        0.00893    0.38717    0.54347    1.000
    C1920    C        0.06261    0.40679    0.52833    1.000
    C1921    C        0.09447    0.40051    0.52699    1.000
    H1802    H        0.11573    0.41587    0.51747    1.000
    C1922    C        0.08874    0.46013    0.50153    1.000
    H1803    H        0.11363    0.47687    0.50937    1.000
    H1804    H        0.09333    0.44467    0.49037    1.000
    C1923    C        0.07375    0.48561    0.49056    1.000
    C1924    C        0.07164    0.51479    0.50298    1.000
    C1925    C        0.05308    0.53383    0.49376    1.000
    C1926    C        0.04043    0.52720    0.47160    1.000
    C1927    C        0.04403    0.49876    0.45938    1.000
    C1928    C        0.05932    0.47569    0.46953    1.000
    C1929    C        0.05897    0.44222    0.45625    1.000
    H1805    H        0.05273    0.42007    0.46597    1.000
    H1806    H        0.03923    0.43387    0.44467    1.000
    H1807    H        0.08483    0.45147    0.44967    1.000
    C1930    C        0.08972    0.52674    0.52637    1.000
    H1808    H        0.11613    0.53027    0.52637    1.000
    H1809    H        0.09103    0.55127    0.53067    1.000
    H1810    H        0.07333    0.50617    0.53677    1.000
    C1931    C        0.02235    0.54983    0.46146    1.000
    H1811    H        0.03063    0.57397    0.46977    1.000
    H1812    H        0.03103    0.55637    0.44627    1.000
    H1813    H        0.99373    0.53367    0.46187    1.000
    C1932    C        0.04592    0.56234    0.50732    1.000
    H1814    H        0.04473    0.55597    0.52307    1.000
    H1815    H        0.02073    0.56017    0.50307    1.000
    C1933    C        0.07457    0.63166    0.51381    1.000
    C1934    C        0.04221    0.62464    0.52711    1.000
    H1816    H        0.02163    0.59867    0.52957    1.000
    C1935    C        0.04059    0.65650    0.53678    1.000
    H1817    H        0.01893    0.65177    0.54567    1.000
    C1936    C        0.07133    0.69539    0.53314    1.000
    H1818    H        0.07023    0.71667    0.53957    1.000
    C1937    C        0.10370    0.70241    0.51984    1.000
    C1938    C        0.10532    0.67055    0.51017    1.000
    H1819    H        0.12693    0.67527    0.50127    1.000
    C1939    C        0.13617    0.74357    0.51601    1.000
    C1940    C        0.02921    0.49040    0.43540    1.000
    H1820    H        0.04313    0.47937    0.42727    1.000
    H1821    H        0.03473    0.51517    0.42817    1.000
    C1941    C        0.96878    0.45703    0.41527    1.000
    C1942    C        0.92791    0.43060    0.41613    1.000
    H1822    H        0.91603    0.41877    0.42967    1.000
    C1943    C        0.90490    0.42178    0.39721    1.000
    H1823    H        0.87743    0.40467    0.39797    1.000
    C1944    C        0.92299    0.43869    0.37673    1.000
    H1824    H        0.90773    0.43197    0.36377    1.000
    C1945    C        0.96344    0.46534    0.37589    1.000
    C1946    C        0.98605    0.47336    0.39531    1.000
    H1825    H        0.01353    0.49027    0.39457    1.000
    C1947    C        0.98355    0.48362    0.35422    1.000
    C1948    C        0.20339    0.49582    0.51009    1.000
    C1949    C        0.19966    0.51826    0.52928    1.000
    C1950    C        0.21271    0.55884    0.52767    1.000
    H1826    H        0.22533    0.57277    0.51467    1.000
    C1951    C        0.20698    0.57863    0.54542    1.000
    H1827    H        0.21573    0.60577    0.54437    1.000
    C1952    C        0.18819    0.55784    0.56479    1.000
    H1828    H        0.18433    0.57107    0.57667    1.000
    C1953    C        0.17514    0.51726    0.56640    1.000
    C1954    C        0.18087    0.49747    0.54864    1.000
    H1829    H        0.17213    0.47037    0.54967    1.000
    C1955    C        0.13665    0.45833    0.58604    1.000
    H1830    H        0.12183    0.44847    0.57217    1.000
    H1831    H        0.15503    0.44827    0.58727    1.000
    C1956    C        0.10784    0.44392    0.60588    1.000
    C1957    C        0.07249    0.44427    0.60459    1.000
    C1958    C        0.04388    0.42531    0.62190    1.000
    C1959    C        0.05116    0.40594    0.63872    1.000
    C1960    C        0.08802    0.40755    0.64071    1.000
    C1961    C        0.11781    0.42858    0.62508    1.000
    C1962    C        0.15890    0.43346    0.62726    1.000
    H1832    H        0.17823    0.45827    0.62057    1.000
    H1833    H        0.16513    0.43347    0.64277    1.000
    H1834    H        0.15943    0.41177    0.61977    1.000
    C1963    C        0.06270    0.46162    0.58573    1.000
    H1835    H        0.04463    0.44067    0.57587    1.000
    H1836    H        0.05033    0.47627    0.59107    1.000
    H1837    H        0.08673    0.47937    0.57777    1.000
    C1964    C        0.01763    0.38173    0.65556    1.000
    H1838    H        0.99343    0.36437    0.64767    1.000
    H1839    H        0.02503    0.36607    0.66477    1.000
    H1840    H        0.01353    0.39967    0.66477    1.000
    C1965    C        0.00500    0.42458    0.62053    1.000
    H1841    H        0.00703    0.44537    0.61067    1.000
    H1842    H        0.99653    0.42827    0.63517    1.000
    C1966    C        0.93814    0.37278    0.61391    1.000
    C1967    C        0.91215    0.33229    0.61033    1.000
    H1843    H        0.92223    0.31527    0.60757    1.000
    C1968    C        0.87110    0.31715    0.61091    1.000
    H1844    H        0.85373    0.29007    0.60847    1.000
    C1969    C        0.85604    0.34251    0.61506    1.000
    H1845    H        0.82853    0.33237    0.61547    1.000
    C1970    C        0.88202    0.38301    0.61863    1.000
    C1971    C        0.92307    0.39815    0.61805    1.000
    H1846    H        0.94043    0.42527    0.62047    1.000
    C1972    C        0.86603    0.40906    0.62274    1.000
    C1973    C        0.09181    0.38174    0.65796    1.000
    H1847    H        0.11683    0.38217    0.65577    1.000
    H1848    H        0.07033    0.35447    0.65597    1.000
    C1974    C        0.07614    0.36469    0.69592    1.000
    C1975    C        0.06536    0.37483    0.71598    1.000
    H1849    H        0.06813    0.39997    0.71777    1.000
    C1976    C        0.05046    0.34737    0.73338    1.000
    H1850    H        0.04323    0.35417    0.74677    1.000
    C1977    C        0.04636    0.30976    0.73073    1.000
    H1851    H        0.03643    0.29137    0.74237    1.000
    C1978    C        0.05714    0.29962    0.71067    1.000
    C1979    C        0.07204    0.32708    0.69327    1.000
    H1852    H        0.07923    0.32027    0.67987    1.000
    C1980    C        0.05342    0.25982    0.70797    1.000
    Mn88     Mn       0.16883    0.32365    0.52765    1.000
    Mn89     Mn       0.19335    0.41139    0.49515    1.000
    Mn90     Mn       0.19339    0.48100    0.45915    1.000
    O581     O        0.12192    0.32986    0.54717    1.000
    O582     O        0.15178    0.37649    0.52314    1.000
    O583     O        0.05831    0.43390    0.51704    1.000
    O584     O        0.98845    0.46361    0.43493    1.000
    O585     O        0.02030    0.50794    0.35521    1.000
    O586     O        0.96307    0.47371    0.33704    1.000
    O587     O        0.07822    0.60236    0.50326    1.000
    O588     O        0.16797    0.75001    0.50767    1.000
    O589     O        0.12949    0.77042    0.52317    1.000
    O590     O        0.20223    0.46479    0.51417    1.000
    O591     O        0.20778    0.51134    0.49158    1.000
    O592     O        0.15794    0.50044    0.58602    1.000
    O593     O        0.97688    0.38466    0.61157    1.000
    O594     O        0.89012    0.44439    0.62907    1.000
    O595     O        0.83058    0.39929    0.61923    1.000
    O596     O        0.09054    0.39396    0.67997    1.000
    O597     O        0.05905    0.24951    0.68930    1.000
    O598     O        0.04470    0.23733    0.72500    1.000
    O599     O        0.16343    0.26987    0.53797    1.000
    O600     O        0.16873    0.26677    0.53507    1.000
    H1853    H        0.14213    0.24567    0.53757    1.000
    H1854    H        0.18473    0.26947    0.54787    1.000
    H1855    H        0.19543    0.27157    0.53417    1.000
    H1856    H        0.15273    0.24777    0.52387    1.000
    H1857    H        0.13613    0.25067    0.54077    1.000
    H1858    H        0.17833    0.27497    0.55157    1.000
    H1859    H        0.18953    0.27307    0.53877    1.000
    H1860    H        0.14733    0.24867    0.52797    1.000
    C1981    C        0.90154    0.20870    0.86996    1.000
    C1982    C        0.94321    0.23883    0.87339    1.000
    C1983    C        0.95309    0.27102    0.88776    1.000
    H1861    H        0.93330    0.27080    0.89670    1.000
    C1984    C        0.99080    0.30247    0.88891    1.000
    H1862    H        0.99690    0.32370    0.89850    1.000
    C1985    C        0.01914    0.30270    0.87616    1.000
    H1863    H        0.04490    0.32440    0.87680    1.000
    C1986    C        0.01084    0.27072    0.86166    1.000
    C1987    C        0.97270    0.23886    0.86032    1.000
    H1864    H        0.96680    0.21760    0.85080    1.000
    C1988    C        0.03805    0.24459    0.83486    1.000
    H1865    H        0.02990    0.21970    0.84270    1.000
    H1866    H        0.01800    0.24000    0.82370    1.000
    C1989    C        0.07852    0.25958    0.82389    1.000
    C1990    C        0.10981    0.26169    0.83631    1.000
    C1991    C        0.14741    0.28025    0.82709    1.000
    C1992    C        0.15343    0.29290    0.80493    1.000
    C1993    C        0.12139    0.28930    0.79271    1.000
    C1994    C        0.08303    0.27401    0.80286    1.000
    C1995    C        0.04991    0.27436    0.78958    1.000
    H1867    H        0.03400    0.28060    0.79930    1.000
    H1868    H        0.06130    0.29410    0.77800    1.000
    H1869    H        0.03330    0.24850    0.78300    1.000
    C1996    C        0.10368    0.24361    0.85970    1.000
    H1870    H        0.08080    0.21720    0.85970    1.000
    H1871    H        0.12690    0.24230    0.86400    1.000
    H1872    H        0.09950    0.26000    0.87010    1.000
    C1997    C        0.19414    0.31098    0.79479    1.000
    H1873    H        0.21000    0.30270    0.80310    1.000
    H1874    H        0.19200    0.30230    0.77960    1.000
    H1875    H        0.20660    0.33960    0.79520    1.000
    C1998    C        0.18308    0.28741    0.84065    1.000
    H1876    H        0.17790    0.28860    0.85640    1.000
    H1877    H        0.20610    0.31260    0.83640    1.000
    C1999    C        0.22375    0.25876    0.84714    1.000
    C2000    C        0.24909    0.29112    0.86044    1.000
    H1878    H        0.24370    0.31170    0.86290    1.000
    C2001    C        0.28257    0.29274    0.87011    1.000
    H1879    H        0.29950    0.31440    0.87900    1.000
    C2002    C        0.29072    0.26200    0.86647    1.000
    H1880    H        0.31310    0.26310    0.87290    1.000
    C2003    C        0.26537    0.22963    0.85317    1.000
    C2004    C        0.23189    0.22801    0.84350    1.000
    H1881    H        0.21500    0.20640    0.83460    1.000
    C2005    C        0.27406    0.19716    0.84934    1.000
    C2006    C        0.12785    0.30412    0.76873    1.000
    H1882    H        0.10290    0.29020    0.76060    1.000
    H1883    H        0.14710    0.29860    0.76150    1.000
    C2007    C        0.15491    0.36455    0.74860    1.000
    C2008    C        0.16935    0.40542    0.74946    1.000
    H1884    H        0.16940    0.41730    0.76300    1.000
    C2009    C        0.18354    0.42843    0.73054    1.000
    H1885    H        0.19390    0.45590    0.73130    1.000
    C2010    C        0.18236    0.41034    0.71006    1.000
    H1886    H        0.19090    0.42560    0.69710    1.000
    C2011    C        0.16856    0.36989    0.70922    1.000
    C2012    C        0.15397    0.34728    0.72864    1.000
    H1887    H        0.14340    0.31980    0.72790    1.000
    C2013    C        0.16673    0.34978    0.68755    1.000
    C2014    C        0.95909    0.12994    0.84342    1.000
    C2015    C        0.98526    0.13367    0.86261    1.000
    C2016    C        0.01279    0.12062    0.86100    1.000
    H1888    H        0.01410    0.10800    0.84800    1.000
    C2017    C        0.03831    0.12635    0.87875    1.000
    H1889    H        0.05670    0.11760    0.87770    1.000
    C2018    C        0.03631    0.14514    0.89812    1.000
    H1890    H        0.05340    0.14900    0.91000    1.000
    C2019    C        0.00878    0.15819    0.89973    1.000
    C2020    C        0.98326    0.15246    0.88197    1.000
    H1891    H        0.96490    0.16120    0.88300    1.000
    C2021    C        0.98834    0.19668    0.91937    1.000
    H1892    H        0.99330    0.21150    0.90550    1.000
    H1893    H        0.95990    0.17830    0.92060    1.000
    C2022    C        0.00274    0.22549    0.93921    1.000
    C2023    C        0.03844    0.26084    0.93792    1.000
    C2024    C        0.04809    0.28945    0.95523    1.000
    C2025    C        0.02144    0.28217    0.97205    1.000
    C2026    C        0.98619    0.24531    0.97404    1.000
    C2027    C        0.97743    0.21552    0.95841    1.000
    C2028    C        0.94122    0.17443    0.96059    1.000
    H1894    H        0.94670    0.15510    0.95390    1.000
    H1895    H        0.93500    0.16820    0.97610    1.000
    H1896    H        0.91900    0.17390    0.95310    1.000
    C2029    C        0.06558    0.27063    0.91906    1.000
    H1897    H        0.06270    0.28870    0.90920    1.000
    H1898    H        0.09260    0.28300    0.92440    1.000
    H1899    H        0.05930    0.24660    0.91110    1.000
    C2030    C        0.03076    0.31570    0.98889    1.000
    H1900    H        0.03760    0.33990    0.98100    1.000
    H1901    H        0.00770    0.30830    0.99810    1.000
    H1902    H        0.05280    0.31980    0.99810    1.000
    C2031    C        0.08624    0.32833    0.95386    1.000
    H1903    H        0.10500    0.32630    0.94400    1.000
    H1904    H        0.09840    0.33680    0.96850    1.000
    C2032    C        0.10130    0.39519    0.94724    1.000
    C2033    C        0.08680    0.42118    0.94366    1.000
    H1905    H        0.05970    0.41110    0.94090    1.000
    C2034    C        0.11271    0.46223    0.94424    1.000
    H1906    H        0.10300    0.47960    0.94180    1.000
    C2035    C        0.15313    0.47729    0.94839    1.000
    H1907    H        0.17050    0.50480    0.94880    1.000
    C2036    C        0.16765    0.45131    0.95196    1.000
    C2037    C        0.14174    0.41026    0.95138    1.000
    H1908    H        0.15150    0.39290    0.95380    1.000
    C2038    C        0.20969    0.46730    0.95607    1.000
    C2039    C        0.95659    0.24152    0.99129    1.000
    H1909    H        0.93200    0.21650    0.98910    1.000
    H1910    H        0.95080    0.26300    0.98930    1.000
    C2040    C        0.95521    0.25719    0.02925    1.000
    C2041    C        0.97613    0.26797    0.04931    1.000
    H1911    H        0.99850    0.26520    0.05110    1.000
    C2042    C        0.96357    0.28287    0.06671    1.000
    H1912    H        0.97760    0.29010    0.08010    1.000
    C2043    C        0.93006    0.28697    0.06406    1.000
    H1913    H        0.92160    0.29690    0.07570    1.000
    C2044    C        0.90914    0.27619    0.04400    1.000
    C2045    C        0.92170    0.26129    0.02660    1.000
    H1914    H        0.90770    0.25410    0.01320    1.000
    C2046    C        0.87306    0.27991    0.04130    1.000
    Mn91     Mn       0.82149    0.16450    0.86098    1.000
    Mn92     Mn       0.88471    0.13998    0.82848    1.000
    Mn93     Mn       0.95427    0.13994    0.79248    1.000
    O601     O        0.87460    0.21141    0.88050    1.000
    O602     O        0.89137    0.18155    0.85647    1.000
    O603     O        0.04225    0.27502    0.85037    1.000
    O604     O        0.14182    0.34488    0.76826    1.000
    O605     O        0.15430    0.31303    0.68854    1.000
    O606     O        0.17730    0.37026    0.67037    1.000
    O607     O        0.19080    0.25511    0.83659    1.000
    O608     O        0.24870    0.16536    0.84100    1.000
    O609     O        0.30759    0.20384    0.85650    1.000
    O610     O        0.92922    0.13110    0.84750    1.000
    O611     O        0.97022    0.12555    0.82491    1.000
    O612     O        0.00916    0.17539    0.91935    1.000
    O613     O        0.07444    0.35645    0.94490    1.000
    O614     O        0.22093    0.44321    0.96240    1.000
    O615     O        0.23537    0.50275    0.95256    1.000
    O616     O        0.97008    0.24279    0.01330    1.000
    O617     O        0.85712    0.27428    0.02263    1.000
    O618     O        0.85929    0.28863    0.05833    1.000
    O619     O        0.77310    0.16990    0.87130    1.000
    O620     O        0.76470    0.16460    0.86840    1.000
    H1915    H        0.77020    0.19120    0.87090    1.000
    H1916    H        0.75140    0.14860    0.88120    1.000
    H1917    H        0.74280    0.13790    0.86750    1.000
    H1918    H        0.76170    0.18060    0.85720    1.000
    H1919    H        0.78120    0.19720    0.87410    1.000
    H1920    H        0.76330    0.15500    0.88490    1.000
    H1921    H        0.75020    0.14380    0.87210    1.000
    H1922    H        0.76800    0.18600    0.86130    1.000
    C2047    C        0.56821    0.54203    0.20329    1.000
    C2048    C        0.60988    0.57216    0.20672    1.000
    C2049    C        0.61976    0.60435    0.22109    1.000
    H1923    H        0.59997    0.60413    0.23003    1.000
    C2050    C        0.65747    0.63580    0.22224    1.000
    H1924    H        0.66357    0.65703    0.23183    1.000
    C2051    C        0.68581    0.63603    0.20949    1.000
    H1925    H        0.71157    0.65773    0.21013    1.000
    C2052    C        0.67751    0.60405    0.19499    1.000
    C2053    C        0.63937    0.57219    0.19365    1.000
    H1926    H        0.63347    0.55093    0.18413    1.000
    C2054    C        0.70472    0.57792    0.16819    1.000
    H1927    H        0.69657    0.55303    0.17603    1.000
    H1928    H        0.68467    0.57333    0.15703    1.000
    C2055    C        0.74519    0.59291    0.15722    1.000
    C2056    C        0.77648    0.59502    0.16964    1.000
    C2057    C        0.81408    0.61358    0.16042    1.000
    C2058    C        0.82010    0.62623    0.13826    1.000
    C2059    C        0.78806    0.62263    0.12604    1.000
    C2060    C        0.74970    0.60734    0.13619    1.000
    C2061    C        0.71658    0.60769    0.12291    1.000
    H1929    H        0.70067    0.61393    0.13263    1.000
    H1930    H        0.72797    0.62743    0.11133    1.000
    H1931    H        0.69997    0.58183    0.11633    1.000
    C2062    C        0.77035    0.57694    0.19303    1.000
    H1932    H        0.74747    0.55053    0.19303    1.000
    H1933    H        0.79357    0.57563    0.19733    1.000
    H1934    H        0.76617    0.59333    0.20343    1.000
    C2063    C        0.86081    0.64431    0.12812    1.000
    H1935    H        0.87667    0.63603    0.13643    1.000
    H1936    H        0.85867    0.63563    0.11293    1.000
    H1937    H        0.87327    0.67293    0.12853    1.000
    C2064    C        0.84975    0.62074    0.17398    1.000
    H1938    H        0.84457    0.62193    0.18973    1.000
    H1939    H        0.87277    0.64593    0.16973    1.000
    C2065    C        0.89042    0.59209    0.18047    1.000
    C2066    C        0.91576    0.62445    0.19377    1.000
    H1940    H        0.91037    0.64503    0.19623    1.000
    C2067    C        0.94924    0.62607    0.20344    1.000
    H1941    H        0.96617    0.64773    0.21233    1.000
    C2068    C        0.95739    0.59533    0.19980    1.000
    H1942    H        0.97977    0.59643    0.20623    1.000
    C2069    C        0.93204    0.56296    0.18650    1.000
    C2070    C        0.89856    0.56134    0.17683    1.000
    H1943    H        0.88167    0.53973    0.16793    1.000
    C2071    C        0.94073    0.53049    0.18267    1.000
    C2072    C        0.79452    0.63745    0.10206    1.000
    H1944    H        0.76957    0.62353    0.09393    1.000
    H1945    H        0.81377    0.63193    0.09483    1.000
    C2073    C        0.82158    0.69788    0.08193    1.000
    C2074    C        0.83602    0.73875    0.08279    1.000
    H1946    H        0.83607    0.75063    0.09633    1.000
    C2075    C        0.85021    0.76176    0.06387    1.000
    H1947    H        0.86057    0.78923    0.06463    1.000
    C2076    C        0.84903    0.74367    0.04339    1.000
    H1948    H        0.85757    0.75893    0.03043    1.000
    C2077    C        0.83523    0.70322    0.04255    1.000
    C2078    C        0.82064    0.68061    0.06197    1.000
    H1949    H        0.81007    0.65313    0.06123    1.000
    C2079    C        0.83340    0.68311    0.02088    1.000
    C2080    C        0.62576    0.46327    0.17675    1.000
    C2081    C        0.65193    0.46700    0.19594    1.000
    C2082    C        0.67946    0.45395    0.19433    1.000
    H1950    H        0.68077    0.44133    0.18133    1.000
    C2083    C        0.70498    0.45968    0.21208    1.000
    H1951    H        0.72337    0.45093    0.21103    1.000
    C2084    C        0.70298    0.47847    0.23145    1.000
    H1952    H        0.72007    0.48233    0.24333    1.000
    C2085    C        0.67545    0.49152    0.23306    1.000
    C2086    C        0.64993    0.48579    0.21530    1.000
    H1953    H        0.63157    0.49453    0.21633    1.000
    C2087    C        0.65501    0.53001    0.25270    1.000
    H1954    H        0.65997    0.54483    0.23883    1.000
    H1955    H        0.62657    0.51163    0.25393    1.000
    C2088    C        0.66941    0.55882    0.27254    1.000
    C2089    C        0.70511    0.59417    0.27125    1.000
    C2090    C        0.71476    0.62278    0.28856    1.000
    C2091    C        0.68811    0.61550    0.30538    1.000
    C2092    C        0.65286    0.57864    0.30737    1.000
    C2093    C        0.64410    0.54885    0.29174    1.000
    C2094    C        0.60789    0.50776    0.29392    1.000
    H1956    H        0.61337    0.48843    0.28723    1.000
    H1957    H        0.60167    0.50153    0.30943    1.000
    H1958    H        0.58567    0.50723    0.28643    1.000
    C2095    C        0.73225    0.60396    0.25239    1.000
    H1959    H        0.72937    0.62203    0.24253    1.000
    H1960    H        0.75927    0.61633    0.25773    1.000
    H1961    H        0.72597    0.57993    0.24443    1.000
    C2096    C        0.69743    0.64903    0.32222    1.000
    H1962    H        0.70427    0.67323    0.31433    1.000
    H1963    H        0.67437    0.64163    0.33143    1.000
    H1964    H        0.71947    0.65313    0.33143    1.000
    C2097    C        0.75291    0.66166    0.28719    1.000
    H1965    H        0.77167    0.65963    0.27733    1.000
    H1966    H        0.76507    0.67013    0.30183    1.000
    C2098    C        0.76797    0.72852    0.28057    1.000
    C2099    C        0.75347    0.75451    0.27699    1.000
    H1967    H        0.72637    0.74443    0.27423    1.000
    C2100    C        0.77938    0.79556    0.27757    1.000
    H1968    H        0.76967    0.81293    0.27513    1.000
    C2101    C        0.81980    0.81062    0.28172    1.000
    H1969    H        0.83717    0.83813    0.28213    1.000
    C2102    C        0.83432    0.78464    0.28529    1.000
    C2103    C        0.80841    0.74359    0.28471    1.000
    H1970    H        0.81817    0.72623    0.28713    1.000
    C2104    C        0.87636    0.80063    0.28940    1.000
    C2105    C        0.62326    0.57485    0.32462    1.000
    H1971    H        0.59867    0.54983    0.32243    1.000
    H1972    H        0.61747    0.59633    0.32263    1.000
    C2106    C        0.62188    0.59052    0.36258    1.000
    C2107    C        0.64280    0.60130    0.38264    1.000
    H1973    H        0.66517    0.59853    0.38443    1.000
    C2108    C        0.63024    0.61620    0.40004    1.000
    H1974    H        0.64427    0.62343    0.41343    1.000
    C2109    C        0.59673    0.62030    0.39739    1.000
    H1975    H        0.58827    0.63023    0.40903    1.000
    C2110    C        0.57581    0.60952    0.37733    1.000
    C2111    C        0.58837    0.59462    0.35993    1.000
    H1976    H        0.57437    0.58743    0.34653    1.000
    C2112    C        0.53973    0.61324    0.37463    1.000
    Mn94     Mn       0.48815    0.49784    0.19431    1.000
    Mn95     Mn       0.55137    0.47331    0.16182    1.000
    Mn96     Mn       0.62094    0.47328    0.12582    1.000
    O621     O        0.54127    0.54474    0.21383    1.000
    O622     O        0.55804    0.51488    0.18980    1.000
    O623     O        0.70892    0.60835    0.18370    1.000
    O624     O        0.80849    0.67821    0.10159    1.000
    O625     O        0.82097    0.64636    0.02187    1.000
    O626     O        0.84397    0.70359    0.00370    1.000
    O627     O        0.85747    0.58844    0.16992    1.000
    O628     O        0.91537    0.49869    0.17433    1.000
    O629     O        0.97426    0.53717    0.18983    1.000
    O630     O        0.59589    0.46443    0.18083    1.000
    O631     O        0.63689    0.45888    0.15824    1.000
    O632     O        0.67583    0.50872    0.25268    1.000
    O633     O        0.74111    0.68978    0.27823    1.000
    O634     O        0.88760    0.77654    0.29573    1.000
    O635     O        0.90204    0.83608    0.28589    1.000
    O636     O        0.63675    0.57612    0.34663    1.000
    O637     O        0.52379    0.60761    0.35596    1.000
    O638     O        0.52596    0.62196    0.39166    1.000
    O639     O        0.43977    0.50323    0.20463    1.000
    O640     O        0.43137    0.49793    0.20173    1.000
    H1977    H        0.43687    0.52453    0.20423    1.000
    H1978    H        0.41807    0.48193    0.21453    1.000
    H1979    H        0.40947    0.47123    0.20083    1.000
    H1980    H        0.42837    0.51393    0.19053    1.000
    H1981    H        0.44787    0.53053    0.20743    1.000
    H1982    H        0.42997    0.48833    0.21823    1.000
    H1983    H        0.41687    0.47713    0.20543    1.000
    H1984    H        0.43467    0.51933    0.19463    1.000
    C2113    C        0.23487    0.87537    0.53663    1.000
    C2114    C        0.27654    0.90550    0.54006    1.000
    C2115    C        0.28642    0.93769    0.55443    1.000
    H1985    H        0.26663    0.93747    0.56337    1.000
    C2116    C        0.32413    0.96914    0.55558    1.000
    H1986    H        0.33023    0.99037    0.56517    1.000
    C2117    C        0.35247    0.96937    0.54283    1.000
    H1987    H        0.37823    0.99107    0.54347    1.000
    C2118    C        0.34417    0.93739    0.52833    1.000
    C2119    C        0.30603    0.90553    0.52699    1.000
    H1988    H        0.30013    0.88427    0.51747    1.000
    C2120    C        0.37138    0.91126    0.50153    1.000
    H1989    H        0.36323    0.88637    0.50937    1.000
    H1990    H        0.35133    0.90667    0.49037    1.000
    C2121    C        0.41185    0.92625    0.49056    1.000
    C2122    C        0.44314    0.92836    0.50298    1.000
    C2123    C        0.48074    0.94692    0.49376    1.000
    C2124    C        0.48676    0.95957    0.47160    1.000
    C2125    C        0.45472    0.95597    0.45938    1.000
    C2126    C        0.41636    0.94068    0.46953    1.000
    C2127    C        0.38324    0.94103    0.45625    1.000
    H1991    H        0.36733    0.94727    0.46597    1.000
    H1992    H        0.39463    0.96077    0.44467    1.000
    H1993    H        0.36663    0.91517    0.44967    1.000
    C2128    C        0.43701    0.91028    0.52637    1.000
    H1994    H        0.41413    0.88387    0.52637    1.000
    H1995    H        0.46023    0.90897    0.53067    1.000
    H1996    H        0.43283    0.92667    0.53677    1.000
    C2129    C        0.52747    0.97765    0.46146    1.000
    H1997    H        0.54333    0.96937    0.46977    1.000
    H1998    H        0.52533    0.96897    0.44627    1.000
    H1999    H        0.53993    0.00627    0.46187    1.000
    C2130    C        0.51641    0.95408    0.50732    1.000
    H2000    H        0.51123    0.95527    0.52307    1.000
    H2001    H        0.53943    0.97927    0.50307    1.000
    C2131    C        0.55708    0.92543    0.51381    1.000
    C2132    C        0.58242    0.95779    0.52711    1.000
    H2002    H        0.57703    0.97837    0.52957    1.000
    C2133    C        0.61590    0.95941    0.53678    1.000
    H2003    H        0.63283    0.98107    0.54567    1.000
    C2134    C        0.62405    0.92867    0.53314    1.000
    H2004    H        0.64643    0.92977    0.53957    1.000
    C2135    C        0.59870    0.89630    0.51984    1.000
    C2136    C        0.56522    0.89468    0.51017    1.000
    H2005    H        0.54833    0.87307    0.50127    1.000
    C2137    C        0.60739    0.86383    0.51601    1.000
    C2138    C        0.46118    0.97079    0.43540    1.000
    H2006    H        0.43623    0.95687    0.42727    1.000
    H2007    H        0.48043    0.96527    0.42817    1.000
    C2139    C        0.48824    0.03122    0.41527    1.000
    C2140    C        0.50268    0.07209    0.41613    1.000
    H2008    H        0.50273    0.08397    0.42967    1.000
    C2141    C        0.51687    0.09510    0.39721    1.000
    H2009    H        0.52723    0.12257    0.39797    1.000
    C2142    C        0.51569    0.07701    0.37673    1.000
    H2010    H        0.52423    0.09227    0.36377    1.000
    C2143    C        0.50189    0.03656    0.37589    1.000
    C2144    C        0.48730    0.01395    0.39531    1.000
    H2011    H        0.47673    0.98647    0.39457    1.000
    C2145    C        0.50006    0.01645    0.35422    1.000
    C2146    C        0.29242    0.79661    0.51009    1.000
    C2147    C        0.31859    0.80034    0.52928    1.000
    C2148    C        0.34612    0.78729    0.52767    1.000
    H2012    H        0.34743    0.77467    0.51467    1.000
    C2149    C        0.37164    0.79302    0.54542    1.000
    H2013    H        0.39003    0.78427    0.54437    1.000
    C2150    C        0.36964    0.81181    0.56479    1.000
    H2014    H        0.38673    0.81567    0.57667    1.000
    C2151    C        0.34211    0.82486    0.56640    1.000
    C2152    C        0.31659    0.81913    0.54864    1.000
    H2015    H        0.29823    0.82787    0.54967    1.000
    C2153    C        0.32167    0.86335    0.58604    1.000
    H2016    H        0.32663    0.87817    0.57217    1.000
    H2017    H        0.29323    0.84497    0.58727    1.000
    C2154    C        0.33607    0.89216    0.60588    1.000
    C2155    C        0.37177    0.92751    0.60459    1.000
    C2156    C        0.38142    0.95612    0.62190    1.000
    C2157    C        0.35477    0.94884    0.63872    1.000
    C2158    C        0.31952    0.91198    0.64071    1.000
    C2159    C        0.31076    0.88219    0.62508    1.000
    C2160    C        0.27455    0.84110    0.62726    1.000
    H2018    H        0.28003    0.82177    0.62057    1.000
    H2019    H        0.26833    0.83487    0.64277    1.000
    H2020    H        0.25233    0.84057    0.61977    1.000
    C2161    C        0.39891    0.93730    0.58573    1.000
    H2021    H        0.39603    0.95537    0.57587    1.000
    H2022    H        0.42593    0.94967    0.59107    1.000
    H2023    H        0.39263    0.91327    0.57777    1.000
    C2162    C        0.36409    0.98237    0.65556    1.000
    H2024    H        0.37093    0.00657    0.64767    1.000
    H2025    H        0.34103    0.97497    0.66477    1.000
    H2026    H        0.38613    0.98647    0.66477    1.000
    C2163    C        0.41957    0.99500    0.62053    1.000
    H2027    H        0.43833    0.99297    0.61067    1.000
    H2028    H        0.43173    0.00347    0.63517    1.000
    C2164    C        0.43463    0.06186    0.61391    1.000
    C2165    C        0.42013    0.08785    0.61033    1.000
    H2029    H        0.39303    0.07777    0.60757    1.000
    C2166    C        0.44604    0.12890    0.61091    1.000
    H2030    H        0.43633    0.14627    0.60847    1.000
    C2167    C        0.48646    0.14396    0.61506    1.000
    H2031    H        0.50383    0.17147    0.61547    1.000
    C2168    C        0.50098    0.11798    0.61863    1.000
    C2169    C        0.47507    0.07693    0.61805    1.000
    H2032    H        0.48483    0.05957    0.62047    1.000
    C2170    C        0.54302    0.13397    0.62274    1.000
    C2171    C        0.28992    0.90819    0.65796    1.000
    H2033    H        0.26533    0.88317    0.65577    1.000
    H2034    H        0.28413    0.92967    0.65597    1.000
    C2172    C        0.28854    0.92386    0.69592    1.000
    C2173    C        0.30946    0.93464    0.71598    1.000
    H2035    H        0.33183    0.93187    0.71777    1.000
    C2174    C        0.29690    0.94954    0.73338    1.000
    H2036    H        0.31093    0.95677    0.74677    1.000
    C2175    C        0.26339    0.95364    0.73073    1.000
    H2037    H        0.25493    0.96357    0.74237    1.000
    C2176    C        0.24247    0.94286    0.71067    1.000
    C2177    C        0.25503    0.92796    0.69327    1.000
    H2038    H        0.24103    0.92077    0.67987    1.000
    C2178    C        0.20639    0.94658    0.70797    1.000
    Mn97     Mn       0.15482    0.83117    0.52765    1.000
    Mn98     Mn       0.21804    0.80665    0.49515    1.000
    Mn99     Mn       0.28761    0.80661    0.45915    1.000
    O641     O        0.20793    0.87808    0.54717    1.000
    O642     O        0.22470    0.84822    0.52314    1.000
    O643     O        0.37558    0.94169    0.51704    1.000
    O644     O        0.47515    0.01155    0.43493    1.000
    O645     O        0.48763    0.97970    0.35521    1.000
    O646     O        0.51063    0.03693    0.33704    1.000
    O647     O        0.52413    0.92178    0.50326    1.000
    O648     O        0.58203    0.83203    0.50767    1.000
    O649     O        0.64092    0.87051    0.52317    1.000
    O650     O        0.26255    0.79777    0.51417    1.000
    O651     O        0.30355    0.79222    0.49158    1.000
    O652     O        0.34249    0.84206    0.58602    1.000
    O653     O        0.40777    0.02312    0.61157    1.000
    O654     O        0.55426    0.10988    0.62907    1.000
    O655     O        0.56870    0.16942    0.61923    1.000
    O656     O        0.30341    0.90946    0.67997    1.000
    O657     O        0.19045    0.94095    0.68930    1.000
    O658     O        0.19262    0.95530    0.72500    1.000
    O659     O        0.10643    0.83657    0.53797    1.000
    O660     O        0.09803    0.83127    0.53507    1.000
    H2039    H        0.10353    0.85787    0.53757    1.000
    H2040    H        0.08473    0.81527    0.54787    1.000
    H2041    H        0.07613    0.80457    0.53417    1.000
    H2042    H        0.09503    0.84727    0.52387    1.000
    H2043    H        0.11453    0.86387    0.54077    1.000
    H2044    H        0.09663    0.82167    0.55157    1.000
    H2045    H        0.08353    0.81047    0.53877    1.000
    H2046    H        0.10133    0.85267    0.52797    1.000
    C2179    C        0.30716    0.09846    0.86996    1.000
    C2180    C        0.29562    0.05679    0.87339    1.000
    C2181    C        0.31793    0.04691    0.88776    1.000
    H2047    H        0.33750    0.06670    0.89670    1.000
    C2182    C        0.31167    0.00920    0.88891    1.000
    H2048    H        0.32680    0.00310    0.89850    1.000
    C2183    C        0.28356    0.98086    0.87616    1.000
    H2049    H        0.27950    0.95510    0.87680    1.000
    C2184    C        0.25988    0.98916    0.86166    1.000
    C2185    C        0.26616    0.02730    0.86032    1.000
    H2050    H        0.25080    0.03320    0.85080    1.000
    C2186    C        0.20654    0.96195    0.83486    1.000
    H2051    H        0.18980    0.97010    0.84270    1.000
    H2052    H        0.22200    0.98200    0.82370    1.000
    C2187    C        0.18106    0.92148    0.82389    1.000
    C2188    C        0.15188    0.89019    0.83631    1.000
    C2189    C        0.13284    0.85259    0.82709    1.000
    C2190    C        0.13947    0.84657    0.80493    1.000
    C2191    C        0.16791    0.87861    0.79271    1.000
    C2192    C        0.19098    0.91697    0.80286    1.000
    C2193    C        0.22445    0.95009    0.78958    1.000
    H2053    H        0.24660    0.96600    0.79930    1.000
    H2054    H        0.23280    0.93870    0.77800    1.000
    H2055    H        0.21520    0.96670    0.78300    1.000
    C2194    C        0.13993    0.89632    0.85970    1.000
    H2056    H        0.13640    0.91920    0.85970    1.000
    H2057    H        0.11540    0.87310    0.86400    1.000
    H2058    H        0.16050    0.90050    0.87010    1.000
    C2195    C        0.11684    0.80586    0.79479    1.000
    H2059    H        0.09270    0.79000    0.80310    1.000
    H2060    H        0.11030    0.80800    0.77960    1.000
    H2061    H        0.13300    0.79340    0.79520    1.000
    C2196    C        0.10433    0.81692    0.84065    1.000
    H2062    H        0.11070    0.82210    0.85640    1.000
    H2063    H        0.10650    0.79390    0.83640    1.000
    C2197    C        0.03501    0.77625    0.84714    1.000
    C2198    C        0.04203    0.75091    0.86044    1.000
    H2064    H        0.06800    0.75630    0.86290    1.000
    C2199    C        0.01017    0.71743    0.87011    1.000
    H2065    H        0.01490    0.70050    0.87900    1.000
    C2200    C        0.97128    0.70928    0.86647    1.000
    H2066    H        0.95000    0.68690    0.87290    1.000
    C2201    C        0.96426    0.73463    0.85317    1.000
    C2202    C        0.99612    0.76811    0.84350    1.000
    H2067    H        0.99140    0.78500    0.83460    1.000
    C2203    C        0.92310    0.72594    0.84934    1.000
    C2204    C        0.17627    0.87215    0.76873    1.000
    H2068    H        0.18730    0.89710    0.76060    1.000
    H2069    H        0.15150    0.85290    0.76150    1.000
    C2205    C        0.20964    0.84509    0.74860    1.000
    C2206    C        0.23607    0.83065    0.74946    1.000
    H2070    H        0.24790    0.83060    0.76300    1.000
    C2207    C        0.24489    0.81646    0.73054    1.000
    H2071    H        0.26200    0.80610    0.73130    1.000
    C2208    C        0.22798    0.81764    0.71006    1.000
    H2072    H        0.23470    0.80910    0.69710    1.000
    C2209    C        0.20133    0.83144    0.70922    1.000
    C2210    C        0.19331    0.84603    0.72864    1.000
    H2073    H        0.17640    0.85660    0.72790    1.000
    C2211    C        0.18305    0.83327    0.68755    1.000
    C2212    C        0.17085    0.04091    0.84342    1.000
    C2213    C        0.14841    0.01474    0.86261    1.000
    C2214    C        0.10783    0.98721    0.86100    1.000
    H2074    H        0.09390    0.98590    0.84800    1.000
    C2215    C        0.08804    0.96169    0.87875    1.000
    H2075    H        0.06090    0.94330    0.87770    1.000
    C2216    C        0.10883    0.96369    0.89812    1.000
    H2076    H        0.09560    0.94660    0.91000    1.000
    C2217    C        0.14941    0.99122    0.89973    1.000
    C2218    C        0.16920    0.01674    0.88197    1.000
    H2077    H        0.19630    0.03510    0.88300    1.000
    C2219    C        0.20834    0.01166    0.91937    1.000
    H2078    H        0.21820    0.00670    0.90550    1.000
    H2079    H        0.21840    0.04010    0.92060    1.000
    C2220    C        0.22275    0.99726    0.93921    1.000
    C2221    C        0.22240    0.96156    0.93792    1.000
    C2222    C        0.24136    0.95191    0.95523    1.000
    C2223    C        0.26073    0.97856    0.97205    1.000
    C2224    C        0.25912    0.01381    0.97404    1.000
    C2225    C        0.23809    0.02257    0.95841    1.000
    C2226    C        0.23321    0.05878    0.96059    1.000
    H2080    H        0.20840    0.05330    0.95390    1.000
    H2081    H        0.23320    0.06500    0.97610    1.000
    H2082    H        0.25490    0.08100    0.95310    1.000
    C2227    C        0.20505    0.93442    0.91906    1.000
    H2083    H        0.22600    0.93730    0.90920    1.000
    H2084    H        0.19040    0.90740    0.92440    1.000
    H2085    H        0.18730    0.94070    0.91110    1.000
    C2228    C        0.28494    0.96924    0.98889    1.000
    H2086    H        0.30230    0.96240    0.98100    1.000
    H2087    H        0.30060    0.99230    0.99810    1.000
    H2088    H        0.26700    0.94720    0.99810    1.000
    C2229    C        0.24209    0.91376    0.95386    1.000
    H2089    H        0.22130    0.89500    0.94400    1.000
    H2090    H        0.23840    0.90160    0.96850    1.000
    C2230    C        0.29389    0.89870    0.94724    1.000
    C2231    C        0.33438    0.91320    0.94366    1.000
    H2091    H        0.35140    0.94030    0.94090    1.000
    C2232    C        0.34952    0.88729    0.94424    1.000
    H2092    H        0.37660    0.89700    0.94180    1.000
    C2233    C        0.32416    0.84687    0.94839    1.000
    H2093    H        0.33430    0.82950    0.94880    1.000
    C2234    C        0.28366    0.83235    0.95196    1.000
    C2235    C        0.26852    0.85826    0.95138    1.000
    H2094    H        0.24140    0.84850    0.95380    1.000
    C2236    C        0.25761    0.79031    0.95607    1.000
    C2237    C        0.28493    0.04341    0.99129    1.000
    H2095    H        0.28450    0.06800    0.98910    1.000
    H2096    H        0.31220    0.04920    0.98930    1.000
    C2238    C        0.30198    0.04479    0.02925    1.000
    C2239    C        0.29184    0.02387    0.04931    1.000
    H2097    H        0.26670    0.00150    0.05110    1.000
    C2240    C        0.31930    0.03643    0.06671    1.000
    H2098    H        0.31250    0.02240    0.08010    1.000
    C2241    C        0.35691    0.06994    0.06406    1.000
    H2099    H        0.37530    0.07840    0.07570    1.000
    C2242    C        0.36705    0.09086    0.04400    1.000
    C2243    C        0.33959    0.07830    0.02660    1.000
    H2100    H        0.34640    0.09230    0.01320    1.000
    C2244    C        0.40685    0.12694    0.04130    1.000
    Mn100    Mn       0.34302    0.17851    0.86098    1.000
    Mn101    Mn       0.25527    0.11529    0.82848    1.000
    Mn102    Mn       0.18567    0.04573    0.79248    1.000
    O661     O        0.33681    0.12540    0.88050    1.000
    O662     O        0.29018    0.10863    0.85647    1.000
    O663     O        0.23277    0.95775    0.85037    1.000
    O664     O        0.20306    0.85818    0.76826    1.000
    O665     O        0.15873    0.84570    0.68854    1.000
    O666     O        0.19296    0.82270    0.67037    1.000
    O667     O        0.06431    0.80920    0.83659    1.000
    O668     O        0.91666    0.75130    0.84100    1.000
    O669     O        0.89625    0.69241    0.85650    1.000
    O670     O        0.20188    0.07078    0.84750    1.000
    O671     O        0.15533    0.02978    0.82491    1.000
    O672     O        0.16623    0.99084    0.91935    1.000
    O673     O        0.28201    0.92556    0.94490    1.000
    O674     O        0.22228    0.77907    0.96240    1.000
    O675     O        0.26738    0.76463    0.95256    1.000
    O676     O        0.27271    0.02992    0.01330    1.000
    O677     O        0.41716    0.14288    0.02263    1.000
    O678     O        0.42934    0.14071    0.05833    1.000
    O679     O        0.39680    0.22690    0.87130    1.000
    O680     O        0.39990    0.23530    0.86840    1.000
    H2101    H        0.42100    0.22980    0.87090    1.000
    H2102    H        0.39720    0.24860    0.88120    1.000
    H2103    H        0.39510    0.25720    0.86750    1.000
    H2104    H        0.41890    0.23830    0.85720    1.000
    H2105    H        0.41600    0.21880    0.87410    1.000
    H2106    H        0.39170    0.23670    0.88490    1.000
    H2107    H        0.39360    0.24980    0.87210    1.000
    H2108    H        0.41800    0.23200    0.86130    1.000
    C2245    C        0.97383    0.43179    0.20329    1.000
    C2246    C        0.96229    0.39012    0.20672    1.000
    C2247    C        0.98460    0.38024    0.22109    1.000
    H2109    H        0.00417    0.40003    0.23003    1.000
    C2248    C        0.97834    0.34253    0.22224    1.000
    H2110    H        0.99347    0.33643    0.23183    1.000
    C2249    C        0.95023    0.31419    0.20949    1.000
    H2111    H        0.94617    0.28843    0.21013    1.000
    C2250    C        0.92655    0.32249    0.19499    1.000
    C2251    C        0.93283    0.36063    0.19365    1.000
    H2112    H        0.91747    0.36653    0.18413    1.000
    C2252    C        0.87321    0.29528    0.16819    1.000
    H2113    H        0.85647    0.30343    0.17603    1.000
    H2114    H        0.88867    0.31533    0.15703    1.000
    C2253    C        0.84773    0.25481    0.15722    1.000
    C2254    C        0.81855    0.22352    0.16964    1.000
    C2255    C        0.79951    0.18592    0.16042    1.000
    C2256    C        0.80614    0.17990    0.13826    1.000
    C2257    C        0.83458    0.21194    0.12604    1.000
    C2258    C        0.85765    0.25030    0.13619    1.000
    C2259    C        0.89112    0.28342    0.12291    1.000
    H2115    H        0.91327    0.29933    0.13263    1.000
    H2116    H        0.89947    0.27203    0.11133    1.000
    H2117    H        0.88187    0.30003    0.11633    1.000
    C2260    C        0.80660    0.22965    0.19303    1.000
    H2118    H        0.80307    0.25253    0.19303    1.000
    H2119    H        0.78207    0.20643    0.19733    1.000
    H2120    H        0.82717    0.23383    0.20343    1.000
    C2261    C        0.78351    0.13919    0.12812    1.000
    H2121    H        0.75937    0.12333    0.13643    1.000
    H2122    H        0.77697    0.14133    0.11293    1.000
    H2123    H        0.79967    0.12673    0.12853    1.000
    C2262    C        0.77100    0.15025    0.17398    1.000
    H2124    H        0.77737    0.15543    0.18973    1.000
    H2125    H        0.77317    0.12723    0.16973    1.000
    C2263    C        0.70168    0.10958    0.18047    1.000
    C2264    C        0.70870    0.08424    0.19377    1.000
    H2126    H        0.73467    0.08963    0.19623    1.000
    C2265    C        0.67684    0.05076    0.20344    1.000
    H2127    H        0.68157    0.03383    0.21233    1.000
    C2266    C        0.63795    0.04261    0.19980    1.000
    H2128    H        0.61667    0.02023    0.20623    1.000
    C2267    C        0.63093    0.06796    0.18650    1.000
    C2268    C        0.66279    0.10144    0.17683    1.000
    H2129    H        0.65807    0.11833    0.16793    1.000
    C2269    C        0.58977    0.05927    0.18267    1.000
    C2270    C        0.84294    0.20548    0.10206    1.000
    H2130    H        0.85397    0.23043    0.09393    1.000
    H2131    H        0.81817    0.18623    0.09483    1.000
    C2271    C        0.87631    0.17842    0.08193    1.000
    C2272    C        0.90274    0.16398    0.08279    1.000
    H2132    H        0.91457    0.16393    0.09633    1.000
    C2273    C        0.91156    0.14979    0.06387    1.000
    H2133    H        0.92867    0.13943    0.06463    1.000
    C2274    C        0.89465    0.15097    0.04339    1.000
    H2134    H        0.90137    0.14243    0.03043    1.000
    C2275    C        0.86800    0.16477    0.04255    1.000
    C2276    C        0.85998    0.17936    0.06197    1.000
    H2135    H        0.84307    0.18993    0.06123    1.000
    C2277    C        0.84972    0.16660    0.02088    1.000
    C2278    C        0.83752    0.37424    0.17675    1.000
    C2279    C        0.81508    0.34807    0.19594    1.000
    C2280    C        0.77450    0.32054    0.19433    1.000
    H2136    H        0.76057    0.31923    0.18133    1.000
    C2281    C        0.75471    0.29502    0.21208    1.000
    H2137    H        0.72757    0.27663    0.21103    1.000
    C2282    C        0.77550    0.29702    0.23145    1.000
    H2138    H        0.76227    0.27993    0.24333    1.000
    C2283    C        0.81608    0.32455    0.23306    1.000
    C2284    C        0.83587    0.35007    0.21530    1.000
    H2139    H        0.86297    0.36843    0.21633    1.000
    C2285    C        0.87501    0.34499    0.25270    1.000
    H2140    H        0.88487    0.34003    0.23883    1.000
    H2141    H        0.88507    0.37343    0.25393    1.000
    C2286    C        0.88942    0.33059    0.27254    1.000
    C2287    C        0.88907    0.29489    0.27125    1.000
    C2288    C        0.90803    0.28524    0.28856    1.000
    C2289    C        0.92740    0.31189    0.30538    1.000
    C2290    C        0.92579    0.34714    0.30737    1.000
    C2291    C        0.90476    0.35590    0.29174    1.000
    C2292    C        0.89988    0.39211    0.29392    1.000
    H2142    H        0.87507    0.38663    0.28723    1.000
    H2143    H        0.89987    0.39833    0.30943    1.000
    H2144    H        0.92157    0.41433    0.28643    1.000
    C2293    C        0.87172    0.26775    0.25239    1.000
    H2145    H        0.89267    0.27063    0.24253    1.000
    H2146    H        0.85707    0.24073    0.25773    1.000
    H2147    H        0.85397    0.27403    0.24443    1.000
    C2294    C        0.95161    0.30257    0.32222    1.000
    H2148    H        0.96897    0.29573    0.31433    1.000
    H2149    H        0.96727    0.32563    0.33143    1.000
    H2150    H        0.93367    0.28053    0.33143    1.000
    C2295    C        0.90876    0.24709    0.28719    1.000
    H2151    H        0.88797    0.22833    0.27733    1.000
    H2152    H        0.90507    0.23493    0.30183    1.000
    C2296    C        0.96056    0.23203    0.28057    1.000
    C2297    C        0.00105    0.24653    0.27699    1.000
    H2153    H        0.01807    0.27363    0.27423    1.000
    C2298    C        0.01619    0.22062    0.27757    1.000
    H2154    H        0.04327    0.23033    0.27513    1.000
    C2299    C        0.99083    0.18020    0.28172    1.000
    H2155    H        0.00097    0.16283    0.28213    1.000
    C2300    C        0.95033    0.16568    0.28529    1.000
    C2301    C        0.93519    0.19159    0.28471    1.000
    H2156    H        0.90807    0.18183    0.28713    1.000
    C2302    C        0.92428    0.12364    0.28940    1.000
    C2303    C        0.95160    0.37674    0.32462    1.000
    H2157    H        0.95117    0.40133    0.32243    1.000
    H2158    H        0.97887    0.38253    0.32263    1.000
    C2304    C        0.96865    0.37812    0.36258    1.000
    C2305    C        0.95851    0.35720    0.38264    1.000
    H2159    H        0.93337    0.33483    0.38443    1.000
    C2306    C        0.98597    0.36976    0.40004    1.000
    H2160    H        0.97917    0.35573    0.41343    1.000
    C2307    C        0.02358    0.40327    0.39739    1.000
    H2161    H        0.04197    0.41173    0.40903    1.000
    C2308    C        0.03372    0.42419    0.37733    1.000
    C2309    C        0.00626    0.41163    0.35993    1.000
    H2162    H        0.01307    0.42563    0.34653    1.000
    C2310    C        0.07352    0.46027    0.37463    1.000
    Mn103    Mn       0.00968    0.51185    0.19431    1.000
    Mn104    Mn       0.92194    0.44863    0.16182    1.000
    Mn105    Mn       0.85234    0.37906    0.12582    1.000
    O681     O        0.00348    0.45873    0.21383    1.000
    O682     O        0.95685    0.44196    0.18980    1.000
    O683     O        0.89944    0.29108    0.18370    1.000
    O684     O        0.86973    0.19151    0.10159    1.000
    O685     O        0.82540    0.17903    0.02187    1.000
    O686     O        0.85963    0.15603    0.00370    1.000
    O687     O        0.73098    0.14253    0.16992    1.000
    O688     O        0.58333    0.08463    0.17433    1.000
    O689     O        0.56292    0.02574    0.18983    1.000
    O690     O        0.86855    0.40411    0.18083    1.000
    O691     O        0.82200    0.36311    0.15824    1.000
    O692     O        0.83290    0.32417    0.25268    1.000
    O693     O        0.94868    0.25889    0.27823    1.000
    O694     O        0.88895    0.11240    0.29573    1.000
    O695     O        0.93405    0.09796    0.28589    1.000
    O696     O        0.93938    0.36325    0.34663    1.000
    O697     O        0.08383    0.47621    0.35596    1.000
    O698     O        0.09601    0.47404    0.39166    1.000
    O699     O        0.06347    0.56023    0.20463    1.000
    O700     O        0.06657    0.56863    0.20173    1.000
    H2163    H        0.08767    0.56313    0.20423    1.000
    H2164    H        0.06387    0.58193    0.21453    1.000
    H2165    H        0.06177    0.59053    0.20083    1.000
    H2166    H        0.08557    0.57163    0.19053    1.000
    H2167    H        0.08267    0.55213    0.20743    1.000
    H2168    H        0.05837    0.57003    0.21823    1.000
    H2169    H        0.06027    0.58313    0.20543    1.000
    H2170    H        0.08467    0.56533    0.19463    1.000
    C2311    C        0.64049    0.76513    0.53663    1.000
    C2312    C        0.62895    0.72346    0.54006    1.000
    C2313    C        0.65126    0.71358    0.55443    1.000
    H2171    H        0.67083    0.73337    0.56337    1.000
    C2314    C        0.64500    0.67587    0.55558    1.000
    H2172    H        0.66013    0.66977    0.56517    1.000
    C2315    C        0.61689    0.64753    0.54283    1.000
    H2173    H        0.61283    0.62177    0.54347    1.000
    C2316    C        0.59321    0.65583    0.52833    1.000
    C2317    C        0.59949    0.69397    0.52699    1.000
    H2174    H        0.58413    0.69987    0.51747    1.000
    C2318    C        0.53987    0.62862    0.50153    1.000
    H2175    H        0.52313    0.63677    0.50937    1.000
    H2176    H        0.55533    0.64867    0.49037    1.000
    C2319    C        0.51439    0.58815    0.49056    1.000
    C2320    C        0.48521    0.55686    0.50298    1.000
    C2321    C        0.46617    0.51926    0.49376    1.000
    C2322    C        0.47280    0.51324    0.47160    1.000
    C2323    C        0.50124    0.54528    0.45938    1.000
    C2324    C        0.52431    0.58364    0.46953    1.000
    C2325    C        0.55778    0.61676    0.45625    1.000
    H2177    H        0.57993    0.63267    0.46597    1.000
    H2178    H        0.56613    0.60537    0.44467    1.000
    H2179    H        0.54853    0.63337    0.44967    1.000
    C2326    C        0.47326    0.56299    0.52637    1.000
    H2180    H        0.46973    0.58587    0.52637    1.000
    H2181    H        0.44873    0.53977    0.53067    1.000
    H2182    H        0.49383    0.56717    0.53677    1.000
    C2327    C        0.45017    0.47253    0.46146    1.000
    H2183    H        0.42603    0.45667    0.46977    1.000
    H2184    H        0.44363    0.47467    0.44627    1.000
    H2185    H        0.46633    0.46007    0.46187    1.000
    C2328    C        0.43766    0.48359    0.50732    1.000
    H2186    H        0.44403    0.48877    0.52307    1.000
    H2187    H        0.43983    0.46057    0.50307    1.000
    C2329    C        0.36834    0.44292    0.51381    1.000
    C2330    C        0.37536    0.41758    0.52711    1.000
    H2188    H        0.40133    0.42297    0.52957    1.000
    C2331    C        0.34350    0.38410    0.53678    1.000
    H2189    H        0.34823    0.36717    0.54567    1.000
    C2332    C        0.30461    0.37595    0.53314    1.000
    H2190    H        0.28333    0.35357    0.53957    1.000
    C2333    C        0.29759    0.40130    0.51984    1.000
    C2334    C        0.32945    0.43478    0.51017    1.000
    H2191    H        0.32473    0.45167    0.50127    1.000
    C2335    C        0.25643    0.39261    0.51601    1.000
    C2336    C        0.50960    0.53882    0.43540    1.000
    H2192    H        0.52063    0.56377    0.42727    1.000
    H2193    H        0.48483    0.51957    0.42817    1.000
    C2337    C        0.54297    0.51176    0.41527    1.000
    C2338    C        0.56940    0.49732    0.41613    1.000
    H2194    H        0.58123    0.49727    0.42967    1.000
    C2339    C        0.57822    0.48313    0.39721    1.000
    H2195    H        0.59533    0.47277    0.39797    1.000
    C2340    C        0.56131    0.48431    0.37673    1.000
    H2196    H        0.56803    0.47577    0.36377    1.000
    C2341    C        0.53466    0.49811    0.37589    1.000
    C2342    C        0.52664    0.51270    0.39531    1.000
    H2197    H        0.50973    0.52327    0.39457    1.000
    C2343    C        0.51638    0.49994    0.35422    1.000
    C2344    C        0.50418    0.70758    0.51009    1.000
    C2345    C        0.48174    0.68141    0.52928    1.000
    C2346    C        0.44116    0.65388    0.52767    1.000
    H2198    H        0.42723    0.65257    0.51467    1.000
    C2347    C        0.42137    0.62836    0.54542    1.000
    H2199    H        0.39423    0.60997    0.54437    1.000
    C2348    C        0.44216    0.63036    0.56479    1.000
    H2200    H        0.42893    0.61327    0.57667    1.000
    C2349    C        0.48274    0.65789    0.56640    1.000
    C2350    C        0.50253    0.68341    0.54864    1.000
    H2201    H        0.52963    0.70177    0.54967    1.000
    C2351    C        0.54167    0.67833    0.58604    1.000
    H2202    H        0.55153    0.67337    0.57217    1.000
    H2203    H        0.55173    0.70677    0.58727    1.000
    C2352    C        0.55608    0.66393    0.60588    1.000
    C2353    C        0.55573    0.62823    0.60459    1.000
    C2354    C        0.57469    0.61858    0.62190    1.000
    C2355    C        0.59406    0.64523    0.63872    1.000
    C2356    C        0.59245    0.68048    0.64071    1.000
    C2357    C        0.57142    0.68924    0.62508    1.000
    C2358    C        0.56654    0.72545    0.62726    1.000
    H2204    H        0.54173    0.71997    0.62057    1.000
    H2205    H        0.56653    0.73167    0.64277    1.000
    H2206    H        0.58823    0.74767    0.61977    1.000
    C2359    C        0.53838    0.60109    0.58573    1.000
    H2207    H        0.55933    0.60397    0.57587    1.000
    H2208    H        0.52373    0.57407    0.59107    1.000
    H2209    H        0.52063    0.60737    0.57777    1.000
    C2360    C        0.61827    0.63591    0.65556    1.000
    H2210    H        0.63563    0.62907    0.64767    1.000
    H2211    H        0.63393    0.65897    0.66477    1.000
    H2212    H        0.60033    0.61387    0.66477    1.000
    C2361    C        0.57542    0.58043    0.62053    1.000
    H2213    H        0.55463    0.56167    0.61067    1.000
    H2214    H        0.57173    0.56827    0.63517    1.000
    C2362    C        0.62722    0.56537    0.61391    1.000
    C2363    C        0.66771    0.57987    0.61033    1.000
    H2215    H        0.68473    0.60697    0.60757    1.000
    C2364    C        0.68285    0.55396    0.61091    1.000
    H2216    H        0.70993    0.56367    0.60847    1.000
    C2365    C        0.65749    0.51354    0.61506    1.000
    H2217    H        0.66763    0.49617    0.61547    1.000
    C2366    C        0.61699    0.49902    0.61863    1.000
    C2367    C        0.60185    0.52493    0.61805    1.000
    H2218    H        0.57473    0.51517    0.62047    1.000
    C2368    C        0.59094    0.45698    0.62274    1.000
    C2369    C        0.61826    0.71008    0.65796    1.000
    H2219    H        0.61783    0.73467    0.65577    1.000
    H2220    H        0.64553    0.71587    0.65597    1.000
    C2370    C        0.63531    0.71146    0.69592    1.000
    C2371    C        0.62517    0.69054    0.71598    1.000
    H2221    H        0.60003    0.66817    0.71777    1.000
    C2372    C        0.65263    0.70310    0.73338    1.000
    H2222    H        0.64583    0.68907    0.74677    1.000
    C2373    C        0.69024    0.73661    0.73073    1.000
    H2223    H        0.70863    0.74507    0.74237    1.000
    C2374    C        0.70038    0.75753    0.71067    1.000
    C2375    C        0.67292    0.74497    0.69327    1.000
    H2224    H        0.67973    0.75897    0.67987    1.000
    C2376    C        0.74018    0.79361    0.70797    1.000
    Mn106    Mn       0.67635    0.84518    0.52765    1.000
    Mn107    Mn       0.58861    0.78196    0.49515    1.000
    Mn108    Mn       0.51900    0.71239    0.45915    1.000
    O701     O        0.67014    0.79207    0.54717    1.000
    O702     O        0.62351    0.77530    0.52314    1.000
    O703     O        0.56610    0.62442    0.51704    1.000
    O704     O        0.53639    0.52485    0.43493    1.000
    O705     O        0.49206    0.51237    0.35521    1.000
    O706     O        0.52629    0.48937    0.33704    1.000
    O707     O        0.39764    0.47587    0.50326    1.000
    O708     O        0.24999    0.41797    0.50767    1.000
    O709     O        0.22958    0.35908    0.52317    1.000
    O710     O        0.53521    0.73745    0.51417    1.000
    O711     O        0.48866    0.69645    0.49158    1.000
    O712     O        0.49956    0.65751    0.58602    1.000
    O713     O        0.61534    0.59223    0.61157    1.000
    O714     O        0.55561    0.44574    0.62907    1.000
    O715     O        0.60071    0.43130    0.61923    1.000
    O716     O        0.60604    0.69659    0.67997    1.000
    O717     O        0.75049    0.80955    0.68930    1.000
    O718     O        0.76267    0.80738    0.72500    1.000
    O719     O        0.73013    0.89357    0.53797    1.000
    O720     O        0.73323    0.90197    0.53507    1.000
    H2225    H        0.75433    0.89647    0.53757    1.000
    H2226    H        0.73053    0.91527    0.54787    1.000
    H2227    H        0.72843    0.92387    0.53417    1.000
    H2228    H        0.75223    0.90497    0.52387    1.000
    H2229    H        0.74933    0.88547    0.54077    1.000
    H2230    H        0.72503    0.90337    0.55157    1.000
    H2231    H        0.72693    0.91647    0.53877    1.000
    H2232    H        0.75133    0.89867    0.52797    1.000
