data_functionalizedCrystal
_audit_creation_method	'EQeq! by Chris Wilmer'
_symmetry_space_group_name_H-M	'P1'
_symmetry_Int_Tables_number	1
_symmetry_cell_setting	triclinic
loop_
_symmetry_equiv_pos_as_xyz
  x,y,z
_cell_length_a	24.605
_cell_length_b	24.605
_cell_length_c	46.814
_cell_angle_alpha	90
_cell_angle_beta	90
_cell_angle_gamma	90
loop_
_atom_site_label
_atom_site_type_symbol
_atom_site_fract_x
_atom_site_fract_y
_atom_site_fract_z
_atom_site_charge
Mof_Pt	Pt	0.7561	0.50005	0.20525	0.271
Mof_Pt	Pt	0.83512	0.77542	0.23281	0.277
Mof_Pt	Pt	0.95333	0.56755	0.31356	0.268
Mof_Pt	Pt	0.68418	0.47755	0.34808	0.293
Mof_Pt	Pt	0.57183	0.68611	0.26961	0.217
Mof_Pt	Pt	0.76155	0.74667	0.37614	0.254
Mof_Ag	Ag	0.7164	0.65944	0.22989	0.433
Mof_Ag	Ag	0.84916	0.61054	0.25117	0.409
Mof_Ag	Ag	0.81057	0.49992	0.28892	0.432
Mof_Ag	Ag	0.673	0.55956	0.27422	0.402
Mof_Ag	Ag	0.72873	0.73625	0.29258	0.425
Mof_Ag	Ag	0.87396	0.7117	0.31269	0.475
Mof_Ag	Ag	0.79838	0.59389	0.34583	0.419
Mof_Ag	Ag	0.6476	0.64045	0.3458	0.475
Mof_La	La	0.91892	0.3817	0.11279	1.703
Mof_S 	S 	0.69619	0.5627	0.22104	-0.384
Mof_S 	S 	0.82466	0.51556	0.23659	-0.383
Mof_S 	S 	0.81193	0.69026	0.22288	-0.375
Mof_S 	S 	0.81985	0.77253	0.28075	-0.365
Mof_S 	S 	0.92083	0.63689	0.28686	-0.391
Mof_S 	S 	0.87316	0.53198	0.3272	-0.397
Mof_S 	S 	0.71379	0.481	0.30235	-0.405
Mof_S 	S 	0.70594	0.56216	0.36159	-0.452
Mof_S 	S 	0.60252	0.61926	0.29843	-0.36
Mof_S 	S 	0.65356	0.719	0.25616	-0.379
Mof_S 	S 	0.69523	0.73073	0.34347	-0.38
Mof_S 	S 	0.82565	0.69005	0.35924	-0.376
Mof_O 	O 	0.6074	0.4626	0.14704	-0.394
Mof_O 	O 	0.5885	0.5413	0.13566	-0.356
Mof_O 	O 	0.88273	0.395	0.16129	-0.548
Mof_O 	O 	0.9354	0.3745	0.20102	-0.327
Mof_O 	O 	0.8691	0.7735	0.1358	-0.366
Mof_O 	O 	0.7984	0.729	0.12416	-0.313
Mof_O 	O 	0.8591	0.9546	0.25234	-0.429
Mof_O 	O 	0.9018	0.9502	0.29287	-0.604
Mof_O 	O 	0.11425	0.6274	0.27258	-0.455
Mof_O 	O 	0.1011	0.7109	0.27894	-0.373
Mof_O 	O 	0.92556	0.48033	0.12014	-0.493
Mof_O 	O 	0.86882	0.54534	0.10647	-0.327
Mof_O 	O 	0.63238	0.30152	0.31696	-0.323
Mof_O 	O 	0.71	0.28915	0.29483	-0.303
Mof_O 	O 	0.6717	0.4522	0.44518	-0.3
Mof_O 	O 	0.6361	0.5322	0.45652	-0.338
Mof_O 	O 	0.4091	0.5914	0.29315	-0.314
Mof_O 	O 	0.425	0.5921	0.34	-0.276
Mof_O 	O 	0.987	0.33004	0.04193	-0.354
Mof_O 	O 	0.91873	0.31431	0.07258	-0.534
Mof_O 	O 	0.6459	0.89042	0.3969	-0.326
Mof_O 	O 	0.5662	0.8436	0.39353	-0.285
Mof_O 	O 	0.8938	0.7662	0.44727	-0.432
Mof_O 	O 	0.9623	0.7557	0.42194	-0.528
Mof_N 	N 	0.7008	0.4896	0.17287	-0.218
Mof_H 	H 	0.7202	0.4861	0.1562	0.098
Mof_H 	H 	0.6837	0.4569	0.176	0.123
Mof_N 	N 	0.8039	0.4399	0.18948	-0.224
Mof_H 	H 	0.7831	0.4089	0.1877	0.116
Mof_H 	H 	0.8151	0.4497	0.1714	0.104
Mof_N 	N 	0.8423	0.7882	0.18983	-0.231
Mof_H 	H 	0.8293	0.8221	0.1852	0.098
Mof_H 	H 	0.8783	0.7866	0.1846	0.126
Mof_N 	N 	0.8686	0.847	0.24114	-0.233
Mof_H 	H 	0.903	0.8468	0.2334	0.109
Mof_H 	H 	0.849	0.8729	0.2314	0.099
Mof_N 	N 	0.0268	0.5993	0.30299	-0.216
Mof_H 	H 	0.0486	0.5989	0.3189	0.11
Mof_H 	H 	0.0427	0.5771	0.2895	0.09
Mof_N 	N 	0.9872	0.5041	0.33572	-0.212
Mof_H 	H 	0.0176	0.4921	0.3262	0.09
Mof_H 	H 	0.9978	0.516	0.3535	0.071
Mof_N 	N 	0.6681	0.3971	0.33956	-0.231
Mof_H 	H 	0.6774	0.3769	0.3553	0.146
Mof_H 	H 	0.6313	0.3932	0.3368	0.119
Mof_N 	N 	0.6564	0.4676	0.38826	-0.224
Mof_H 	H 	0.6207	0.4566	0.3874	0.097
Mof_H 	H 	0.6759	0.4402	0.3968	0.125
Mof_N 	N 	0.4959	0.6627	0.28201	-0.221
Mof_H 	H 	0.4754	0.6932	0.2855	0.074
Mof_H 	H 	0.4797	0.6441	0.2672	0.096
Mof_N 	N 	0.5421	0.7407	0.24076	-0.171
Mof_H 	H 	0.5135	0.7247	0.2313	0.049
Mof_H 	H 	0.5283	0.7699	0.2507	-0.041
Mof_N 	N 	0.70704	0.7972	0.39374	-0.232
Mof_H 	H 	0.7075	0.7912	0.4131	0.115
Mof_H 	H 	0.7193	0.8321	0.3909	0.099
Mof_N 	N 	0.8193	0.7639	0.4048	-0.207
Mof_H 	H 	0.8171	0.8005	0.4087	0.088
Mof_H 	H 	0.8106	0.7458	0.4214	0.048
Mof_C 	C 	0.6368	0.545	0.19875	0.341
Mof_C 	C 	0.6591	0.5297	0.1679	-0.252
Mof_H 	H 	0.6745	0.5624	0.1582	0.091
Mof_C 	C 	0.6145	0.5049	0.15029	0.461
Mof_C 	C 	0.6012	0.5053	0.21133	-0.691
Mof_H 	H 	0.5891	0.5182	0.2301	0.188
Mof_H 	H 	0.6206	0.4708	0.2135	0.202
Mof_H 	H 	0.5695	0.4999	0.1989	0.212
Mof_C 	C 	0.6049	0.6042	0.1942	-0.549
Mof_H 	H 	0.6299	0.6306	0.1856	0.151
Mof_H 	H 	0.5925	0.6179	0.2128	0.155
Mof_H 	H 	0.5735	0.5991	0.1816	0.179
Mof_C 	C 	0.8801	0.479	0.21882	0.356
Mof_C 	C 	0.8536	0.4263	0.20709	-0.251
Mof_H 	H 	0.8443	0.4008	0.223	0.089
Mof_C 	C 	0.8894	0.3987	0.18505	0.412
Mof_C 	C 	0.9028	0.5152	0.19531	-0.626
Mof_H 	H 	0.8751	0.5205	0.1805	0.195
Mof_H 	H 	0.9349	0.498	0.1869	0.182
Mof_H 	H 	0.913	0.5505	0.2034	0.165
Mof_C 	C 	0.9206	0.4676	0.24259	-0.625
Mof_H 	H 	0.9037	0.4441	0.257	0.171
Mof_H 	H 	0.9316	0.5019	0.2515	0.168
Mof_H 	H 	0.9526	0.4494	0.2346	0.186
Mof_C 	C 	0.8292	0.6883	0.1843	0.283
Mof_C 	C 	0.8109	0.7459	0.17443	-0.187
Mof_H 	H 	0.7708	0.7513	0.1762	0.067
Mof_C 	C 	0.832	0.7498	0.14081	0.405
Mof_C 	C 	0.8921	0.6748	0.18313	-0.541
Mof_H 	H 	0.898	0.6371	0.1891	0.145
Mof_H 	H 	0.9118	0.6993	0.196	0.16
Mof_H 	H 	0.9054	0.6797	0.1636	0.165
Mof_C 	C 	0.7976	0.6399	0.17121	-0.579
Mof_H 	H 	0.8123	0.6057	0.1787	0.169
Mof_H 	H 	0.8015	0.6405	0.1504	0.194
Mof_H 	H 	0.7591	0.6429	0.1763	0.161
Mof_C 	C 	0.8271	0.8439	0.28693	0.142
Mof_C 	C 	0.8737	0.8652	0.27068	-0.164
Mof_H 	H 	0.907	0.8477	0.2787	0.056
Mof_C 	C 	0.8839	0.9279	0.27089	0.4
Mof_C 	C 	0.7766	0.8739	0.2779	-0.426
Mof_H 	H 	0.7456	0.8612	0.2893	0.103
Mof_H 	H 	0.7695	0.8672	0.2576	0.124
Mof_H 	H 	0.7817	0.913	0.281	0.123
Mof_C 	C 	0.9821	0.6566	0.26894	0.321
Mof_C 	C 	0.0254	0.6521	0.2923	-0.219
Mof_H 	H 	0.0163	0.6778	0.3081	0.091
Mof_C 	C 	0.0842	0.6641	0.2816	0.394
Mof_C 	C 	0.9952	0.6199	0.24502	-0.582
Mof_H 	H 	0.9663	0.6218	0.2306	0.149
Mof_H 	H 	0.9982	0.5825	0.2521	0.159
Mof_H 	H 	0.0298	0.6308	0.2364	0.149
Mof_C 	C 	0.9703	0.717	0.25754	-0.567
Mof_H 	H 	0.9613	0.7406	0.2737	0.161
Mof_H 	H 	0.9397	0.7161	0.2442	0.163
Mof_H 	H 	0.0026	0.731	0.2478	0.171
Mof_C 	C 	0.893	0.4763	0.3513	0.394
Mof_C 	C 	0.9477	0.4574	0.33909	-0.258
Mof_H 	H 	0.9411	0.4412	0.3198	0.087
Mof_C 	C 	0.9151	0.5227	0.10752	0.423
Mof_C 	C 	0.9019	0.4981	0.3818	-0.642
Mof_H 	H 	0.9297	0.5266	0.3815	0.181
Mof_H 	H 	0.914	0.4684	0.3942	0.189
Mof_H 	H 	0.8678	0.5131	0.3891	0.167
Mof_C 	C 	0.8503	0.4339	0.34984	-0.73
Mof_H 	H 	0.8165	0.4482	0.358	0.212
Mof_H 	H 	0.8619	0.402	0.3607	0.241
Mof_H 	H 	0.8442	0.4236	0.3299	0.206
Mof_C 	C 	0.6872	0.415	0.2888	0.474
Mof_C 	C 	0.6964	0.3751	0.3148	-0.239
Mof_H 	H 	0.7361	0.3733	0.3191	0.101
Mof_C 	C 	0.6749	0.3161	0.30862	0.374
Mof_C 	C 	0.6314	0.4213	0.28244	-0.831
Mof_H 	H 	0.6116	0.4312	0.2999	0.248
Mof_H 	H 	0.6169	0.387	0.2749	0.242
Mof_H 	H 	0.6268	0.45	0.2681	0.224
Mof_C 	C 	0.7221	0.3992	0.26359	-0.773
Mof_H 	H 	0.7601	0.3961	0.2697	0.222
Mof_H 	H 	0.7191	0.4271	0.2487	0.224
Mof_H 	H 	0.7098	0.3642	0.256	0.249
Mof_C 	C 	0.7066	0.5544	0.40085	0.631
Mof_C 	C 	0.6598	0.5196	0.4076	-0.327
Mof_H 	H 	0.6268	0.5417	0.4029	0.096
Mof_C 	C 	0.6519	0.5006	0.43882	0.347
Mof_C 	C 	0.7536	0.5272	0.4104	-0.995
Mof_H 	H 	0.7549	0.4908	0.402	0.303
Mof_H 	H 	0.7527	0.5243	0.4313	0.29
Mof_H 	H 	0.7859	0.5478	0.4046	0.262
Mof_C 	C 	0.6983	0.6076	0.413	-0.909
Mof_H 	H 	0.6638	0.6226	0.406	0.244
Mof_H 	H 	0.7282	0.6316	0.4073	0.235
Mof_H 	H 	0.6971	0.6048	0.4339	0.25
Mof_C 	C 	0.5376	0.5833	0.30564	0.274
Mof_C 	C 	0.4955	0.6265	0.30885	-0.192
Mof_H 	H 	0.5042	0.6492	0.326	0.088
Mof_C 	C 	0.4368	0.6015	0.31239	0.34
Mof_C 	C 	0.527	0.5463	0.27739	-0.52
Mof_H 	H 	0.5552	0.5184	0.276	0.136
Mof_H 	H 	0.5281	0.5694	0.2603	0.157
Mof_H 	H 	0.4913	0.5289	0.2788	0.17
Mof_C 	C 	0.5407	0.5441	0.33159	-0.568
Mof_H 	H 	0.5691	0.5169	0.3282	0.164
Mof_H 	H 	0.5057	0.5258	0.3341	0.19
Mof_H 	H 	0.5494	0.5648	0.3489	0.158
Mof_C 	C 	0.6337	0.7778	0.2321	0.342
Mof_C 	C 	0.5814	0.7616	0.21901	-0.278
Mof_H 	H 	0.59	0.7299	0.2064	0.089
Mof_C 	C 	0.9401	0.3058	0.05077	0.425
Mof_C 	C 	0.6237	0.8271	0.25177	-0.503
Mof_H 	H 	0.6582	0.8386	0.2603	0.125
Mof_H 	H 	0.5981	0.817	0.2669	0.087
Mof_H 	H 	0.6085	0.8571	0.2406	0.13
Mof_C 	C 	0.6802	0.7864	0.21261	-0.645
Mof_H 	H 	0.7119	0.7982	0.2237	0.181
Mof_H 	H 	0.6709	0.8143	0.1985	0.205
Mof_H 	H 	0.6887	0.7523	0.2027	0.173
Mof_C 	C 	0.6487	0.7876	0.35231	0.314
Mof_C 	C 	0.6507	0.7955	0.3846	-0.192
Mof_H 	H 	0.632	0.7643	0.3941	0.075
Mof_C 	C 	0.6216	0.8491	0.39297	0.308
Mof_C 	C 	0.6659	0.837	0.33645	-0.59
Mof_H 	H 	0.6636	0.8302	0.3159	0.148
Mof_H 	H 	0.7035	0.846	0.3415	0.173
Mof_H 	H 	0.6421	0.8675	0.3415	0.165
Mof_C 	C 	0.5928	0.7696	0.3411	-0.53
Mof_H 	H 	0.5943	0.7658	0.3203	0.12
Mof_H 	H 	0.5654	0.7969	0.3462	0.146
Mof_H 	H 	0.5829	0.7346	0.3497	0.147
Mof_C 	C 	0.8719	0.6896	0.38909	0.255
Mof_C 	C 	0.8781	0.7514	0.39819	-0.242
Mof_H 	H 	0.8897	0.7732	0.3812	0.088
Mof_C 	C 	0.9209	0.7582	0.42253	0.507
Mof_C 	C 	0.8564	0.6518	0.41167	-0.401
Mof_H 	H 	0.8543	0.6149	0.4038	0.08
Mof_H 	H 	0.8208	0.6621	0.4194	0.057
Mof_H 	H 	0.8836	0.6528	0.427	0.039
Mof_C 	C 	0.9306	0.6743	0.3784	-0.489
Mof_H 	H 	0.9418	0.6996	0.3633	0.141
Mof_H 	H 	0.9304	0.6372	0.3708	0.132
Mof_H 	H 	0.9562	0.6766	0.3944	0.129
Mof_O 	O 	0.913	0.4359	0.06287	-0.606
Mof_O 	O 	0.8371	0.416	0.08009	-0.519
Mof_C 	C 	0.8675	0.4395	0.0595	0.86
Mof_C 	C 	0.8505	0.4654	0.035	-1.294
Mof_H 	H 	0.8107	0.4661	0.0345	0.368
Mof_H 	H 	0.8642	0.4458	0.0183	0.371
Mof_H 	H 	0.8645	0.5027	0.0349	0.379
Mof_La	La	0.93444	0.02731	0.2935	1.338
Mof_La	La	0.4931	0.8182	0.28732	0.929
Mof_La	La	0.2148	0.6437	0.25495	1.028
Mof_La	La	0.8338	0.7684	0.49624	-0.199
Mof_La	La	0.8637	0.0606	0.2388	0.325
Mof_La	La	0.1873	0.7233	0.2232	0.531
Mof_O 	O 	0.7878	0.7132	0.5462	-0.386
Mof_Pt	Pt	0.2439	0.49995	0.70525	0.272
Mof_Pt	Pt	0.16488	0.22458	0.73281	0.278
Mof_Pt	Pt	0.04667	0.43245	0.81356	0.269
Mof_Pt	Pt	0.31582	0.52245	0.84808	0.294
Mof_Pt	Pt	0.42817	0.31389	0.76961	0.218
Mof_Pt	Pt	0.23845	0.25333	0.87614	0.255
Mof_Ag	Ag	0.2836	0.34056	0.72989	0.434
Mof_Ag	Ag	0.15084	0.38946	0.75117	0.409
Mof_Ag	Ag	0.18943	0.50008	0.78892	0.432
Mof_Ag	Ag	0.327	0.44044	0.77422	0.402
Mof_Ag	Ag	0.27127	0.26375	0.79258	0.425
Mof_Ag	Ag	0.12604	0.2883	0.81269	0.475
Mof_Ag	Ag	0.20162	0.40611	0.84583	0.419
Mof_Ag	Ag	0.3524	0.35955	0.8458	0.475
Mof_La	La	0.08108	0.6183	0.61279	1.703
Mof_S 	S 	0.30381	0.4373	0.72104	-0.384
Mof_S 	S 	0.17534	0.48444	0.73659	-0.383
Mof_S 	S 	0.18807	0.30974	0.72288	-0.375
Mof_S 	S 	0.18015	0.22747	0.78075	-0.365
Mof_S 	S 	0.07917	0.36311	0.78686	-0.391
Mof_S 	S 	0.12684	0.46802	0.8272	-0.397
Mof_S 	S 	0.28621	0.519	0.80235	-0.405
Mof_S 	S 	0.29406	0.43784	0.86159	-0.452
Mof_S 	S 	0.39748	0.38074	0.79843	-0.36
Mof_S 	S 	0.34644	0.281	0.75616	-0.379
Mof_S 	S 	0.30477	0.26927	0.84347	-0.38
Mof_S 	S 	0.17435	0.30995	0.85924	-0.376
Mof_O 	O 	0.3926	0.5374	0.64704	-0.394
Mof_O 	O 	0.4115	0.4587	0.63566	-0.356
Mof_O 	O 	0.11727	0.605	0.66129	-0.548
Mof_O 	O 	0.0646	0.6255	0.70102	-0.327
Mof_O 	O 	0.1309	0.2265	0.6358	-0.366
Mof_O 	O 	0.2016	0.271	0.62416	-0.313
Mof_O 	O 	0.1409	0.0454	0.75234	-0.429
Mof_O 	O 	0.0982	0.0498	0.79287	-0.604
Mof_O 	O 	0.88575	0.3726	0.77258	-0.455
Mof_O 	O 	0.8989	0.2891	0.77894	-0.373
Mof_O 	O 	0.07444	0.51967	0.62014	-0.493
Mof_O 	O 	0.13118	0.45466	0.60647	-0.327
Mof_O 	O 	0.36762	0.69848	0.81696	-0.323
Mof_O 	O 	0.29	0.71085	0.79483	-0.303
Mof_O 	O 	0.3283	0.5478	0.94518	-0.3
Mof_O 	O 	0.3639	0.4678	0.95652	-0.338
Mof_O 	O 	0.5909	0.4086	0.79315	-0.314
Mof_O 	O 	0.575	0.4079	0.84	-0.276
Mof_O 	O 	0.013	0.66996	0.54193	-0.354
Mof_O 	O 	0.08127	0.68569	0.57258	-0.534
Mof_O 	O 	0.3541	0.10958	0.8969	-0.326
Mof_O 	O 	0.4338	0.1564	0.89353	-0.285
Mof_O 	O 	0.1062	0.2338	0.94727	-0.432
Mof_O 	O 	0.0377	0.2443	0.92194	-0.528
Mof_N 	N 	0.2992	0.5104	0.67287	-0.218
Mof_H 	H 	0.2798	0.5139	0.6562	0.098
Mof_H 	H 	0.3163	0.5431	0.676	0.123
Mof_N 	N 	0.1961	0.5601	0.68948	-0.224
Mof_H 	H 	0.2169	0.5911	0.6877	0.116
Mof_H 	H 	0.1849	0.5503	0.6714	0.104
Mof_N 	N 	0.1577	0.2118	0.68983	-0.231
Mof_H 	H 	0.1707	0.1779	0.6852	0.098
Mof_H 	H 	0.1217	0.2134	0.6846	0.126
Mof_N 	N 	0.1314	0.153	0.74114	-0.233
Mof_H 	H 	0.097	0.1532	0.7334	0.109
Mof_H 	H 	0.151	0.1271	0.7314	0.099
Mof_N 	N 	0.9732	0.4007	0.80299	-0.216
Mof_H 	H 	0.9514	0.4011	0.8189	0.11
Mof_H 	H 	0.9573	0.4229	0.7895	0.09
Mof_N 	N 	0.0128	0.4959	0.83572	-0.212
Mof_H 	H 	0.9824	0.5079	0.8262	0.09
Mof_H 	H 	0.0022	0.484	0.8535	0.071
Mof_N 	N 	0.3319	0.6029	0.83956	-0.231
Mof_H 	H 	0.3226	0.6231	0.8553	0.146
Mof_H 	H 	0.3687	0.6068	0.8368	0.119
Mof_N 	N 	0.3436	0.5324	0.88826	-0.224
Mof_H 	H 	0.3793	0.5434	0.8874	0.097
Mof_H 	H 	0.3241	0.5598	0.8968	0.125
Mof_N 	N 	0.5041	0.3373	0.78201	-0.221
Mof_H 	H 	0.5246	0.3068	0.7855	0.074
Mof_H 	H 	0.5203	0.3559	0.7672	0.096
Mof_N 	N 	0.4579	0.2593	0.74076	-0.171
Mof_H 	H 	0.4865	0.2753	0.7313	0.049
Mof_H 	H 	0.4717	0.2301	0.7507	-0.041
Mof_N 	N 	0.29296	0.2028	0.89374	-0.232
Mof_H 	H 	0.2925	0.2088	0.9131	0.115
Mof_H 	H 	0.2807	0.1679	0.8909	0.099
Mof_N 	N 	0.1807	0.2361	0.9048	-0.207
Mof_H 	H 	0.1829	0.1995	0.9087	0.088
Mof_H 	H 	0.1894	0.2542	0.9214	0.048
Mof_C 	C 	0.3632	0.455	0.69875	0.341
Mof_C 	C 	0.3409	0.4703	0.6679	-0.252
Mof_H 	H 	0.3255	0.4376	0.6582	0.091
Mof_C 	C 	0.3855	0.4951	0.65029	0.461
Mof_C 	C 	0.3988	0.4947	0.71133	-0.691
Mof_H 	H 	0.4109	0.4818	0.7301	0.188
Mof_H 	H 	0.3794	0.5292	0.7135	0.202
Mof_H 	H 	0.4305	0.5001	0.6989	0.212
Mof_C 	C 	0.3951	0.3958	0.6942	-0.549
Mof_H 	H 	0.3701	0.3694	0.6856	0.151
Mof_H 	H 	0.4075	0.3821	0.7128	0.155
Mof_H 	H 	0.4265	0.4009	0.6816	0.179
Mof_C 	C 	0.1199	0.521	0.71882	0.356
Mof_C 	C 	0.1464	0.5737	0.70709	-0.251
Mof_H 	H 	0.1557	0.5992	0.723	0.089
Mof_C 	C 	0.1106	0.6013	0.68505	0.412
Mof_C 	C 	0.0972	0.4848	0.69531	-0.626
Mof_H 	H 	0.1249	0.4795	0.6805	0.195
Mof_H 	H 	0.0651	0.502	0.6869	0.182
Mof_H 	H 	0.087	0.4495	0.7034	0.165
Mof_C 	C 	0.0794	0.5324	0.74259	-0.625
Mof_H 	H 	0.0963	0.5559	0.757	0.171
Mof_H 	H 	0.0684	0.4981	0.7515	0.168
Mof_H 	H 	0.0474	0.5506	0.7346	0.186
Mof_C 	C 	0.1708	0.3117	0.6843	0.283
Mof_C 	C 	0.1891	0.2541	0.67443	-0.187
Mof_H 	H 	0.2292	0.2487	0.6762	0.067
Mof_C 	C 	0.168	0.2502	0.64081	0.405
Mof_C 	C 	0.1079	0.3252	0.68313	-0.541
Mof_H 	H 	0.102	0.3629	0.6891	0.145
Mof_H 	H 	0.0882	0.3007	0.696	0.16
Mof_H 	H 	0.0946	0.3203	0.6636	0.165
Mof_C 	C 	0.2024	0.3601	0.67121	-0.579
Mof_H 	H 	0.1877	0.3943	0.6787	0.169
Mof_H 	H 	0.1985	0.3595	0.6504	0.194
Mof_H 	H 	0.2409	0.3571	0.6763	0.161
Mof_C 	C 	0.1729	0.1561	0.78693	0.142
Mof_C 	C 	0.1263	0.1348	0.77068	-0.164
Mof_H 	H 	0.093	0.1523	0.7787	0.056
Mof_C 	C 	0.1161	0.0721	0.77089	0.4
Mof_C 	C 	0.2234	0.1261	0.7779	-0.426
Mof_H 	H 	0.2544	0.1388	0.7893	0.103
Mof_H 	H 	0.2305	0.1328	0.7576	0.124
Mof_H 	H 	0.2183	0.087	0.781	0.123
Mof_C 	C 	0.0179	0.3434	0.76894	0.321
Mof_C 	C 	0.9746	0.3479	0.7923	-0.219
Mof_H 	H 	0.9837	0.3222	0.8081	0.091
Mof_C 	C 	0.9158	0.3359	0.7816	0.394
Mof_C 	C 	0.0048	0.3801	0.74502	-0.582
Mof_H 	H 	0.0337	0.3782	0.7306	0.149
Mof_H 	H 	0.0018	0.4175	0.7521	0.159
Mof_H 	H 	0.9702	0.3692	0.7364	0.149
Mof_C 	C 	0.0297	0.283	0.75754	-0.567
Mof_H 	H 	0.0387	0.2594	0.7737	0.161
Mof_H 	H 	0.0603	0.2839	0.7442	0.163
Mof_H 	H 	0.9974	0.269	0.7478	0.171
Mof_C 	C 	0.107	0.5237	0.8513	0.394
Mof_C 	C 	0.0523	0.5426	0.83909	-0.258
Mof_H 	H 	0.0589	0.5588	0.8198	0.087
Mof_C 	C 	0.0849	0.4773	0.60752	0.423
Mof_C 	C 	0.0981	0.5019	0.8818	-0.642
Mof_H 	H 	0.0703	0.4734	0.8815	0.181
Mof_H 	H 	0.086	0.5316	0.8942	0.189
Mof_H 	H 	0.1322	0.4869	0.8891	0.167
Mof_C 	C 	0.1497	0.5661	0.84984	-0.73
Mof_H 	H 	0.1835	0.5518	0.858	0.212
Mof_H 	H 	0.1381	0.598	0.8607	0.241
Mof_H 	H 	0.1558	0.5764	0.8299	0.206
Mof_C 	C 	0.3128	0.585	0.7888	0.474
Mof_C 	C 	0.3036	0.6249	0.8148	-0.239
Mof_H 	H 	0.2639	0.6267	0.8191	0.101
Mof_C 	C 	0.3251	0.6839	0.80862	0.374
Mof_C 	C 	0.3686	0.5787	0.78244	-0.831
Mof_H 	H 	0.3884	0.5688	0.7999	0.248
Mof_H 	H 	0.3831	0.613	0.7749	0.242
Mof_H 	H 	0.3732	0.55	0.7681	0.224
Mof_C 	C 	0.2779	0.6008	0.76359	-0.773
Mof_H 	H 	0.2399	0.6039	0.7697	0.222
Mof_H 	H 	0.2809	0.5729	0.7487	0.224
Mof_H 	H 	0.2902	0.6358	0.756	0.249
Mof_C 	C 	0.2934	0.4456	0.90085	0.631
Mof_C 	C 	0.3402	0.4804	0.9076	-0.327
Mof_H 	H 	0.3732	0.4583	0.9029	0.096
Mof_C 	C 	0.3481	0.4994	0.93882	0.347
Mof_C 	C 	0.2464	0.4728	0.9104	-0.995
Mof_H 	H 	0.2451	0.5092	0.902	0.303
Mof_H 	H 	0.2473	0.4757	0.9313	0.29
Mof_H 	H 	0.2141	0.4522	0.9046	0.262
Mof_C 	C 	0.3017	0.3924	0.913	-0.909
Mof_H 	H 	0.3362	0.3774	0.906	0.244
Mof_H 	H 	0.2718	0.3684	0.9073	0.235
Mof_H 	H 	0.3029	0.3952	0.9339	0.25
Mof_C 	C 	0.4624	0.4167	0.80564	0.274
Mof_C 	C 	0.5045	0.3735	0.80885	-0.192
Mof_H 	H 	0.4958	0.3508	0.826	0.088
Mof_C 	C 	0.5632	0.3985	0.81239	0.34
Mof_C 	C 	0.473	0.4537	0.77739	-0.52
Mof_H 	H 	0.4448	0.4816	0.776	0.136
Mof_H 	H 	0.4719	0.4306	0.7603	0.157
Mof_H 	H 	0.5087	0.4711	0.7788	0.17
Mof_C 	C 	0.4593	0.4559	0.83159	-0.568
Mof_H 	H 	0.4309	0.4831	0.8282	0.164
Mof_H 	H 	0.4943	0.4742	0.8341	0.19
Mof_H 	H 	0.4506	0.4352	0.8489	0.158
Mof_C 	C 	0.3663	0.2222	0.7321	0.342
Mof_C 	C 	0.4186	0.2384	0.71901	-0.278
Mof_H 	H 	0.41	0.2701	0.7064	0.089
Mof_C 	C 	0.0599	0.6942	0.55077	0.425
Mof_C 	C 	0.3763	0.1729	0.75177	-0.503
Mof_H 	H 	0.3418	0.1614	0.7603	0.125
Mof_H 	H 	0.4019	0.183	0.7669	0.087
Mof_H 	H 	0.3915	0.1429	0.7406	0.13
Mof_C 	C 	0.3198	0.2136	0.71261	-0.645
Mof_H 	H 	0.2881	0.2018	0.7237	0.181
Mof_H 	H 	0.3291	0.1857	0.6985	0.205
Mof_H 	H 	0.3113	0.2477	0.7027	0.173
Mof_C 	C 	0.3513	0.2124	0.85231	0.314
Mof_C 	C 	0.3493	0.2045	0.8846	-0.192
Mof_H 	H 	0.368	0.2357	0.8941	0.075
Mof_C 	C 	0.3784	0.1509	0.89297	0.308
Mof_C 	C 	0.3341	0.163	0.83645	-0.59
Mof_H 	H 	0.3364	0.1698	0.8159	0.148
Mof_H 	H 	0.2965	0.154	0.8415	0.173
Mof_H 	H 	0.3579	0.1325	0.8415	0.165
Mof_C 	C 	0.4072	0.2304	0.8411	-0.53
Mof_H 	H 	0.4057	0.2342	0.8203	0.12
Mof_H 	H 	0.4346	0.2031	0.8462	0.146
Mof_H 	H 	0.4171	0.2654	0.8497	0.147
Mof_C 	C 	0.1281	0.3104	0.88909	0.255
Mof_C 	C 	0.1219	0.2486	0.89819	-0.242
Mof_H 	H 	0.1103	0.2268	0.8812	0.088
Mof_C 	C 	0.0791	0.2418	0.92253	0.507
Mof_C 	C 	0.1436	0.3482	0.91167	-0.401
Mof_H 	H 	0.1457	0.3851	0.9038	0.08
Mof_H 	H 	0.1792	0.3379	0.9194	0.057
Mof_H 	H 	0.1164	0.3472	0.927	0.039
Mof_C 	C 	0.0694	0.3257	0.8784	-0.489
Mof_H 	H 	0.0582	0.3004	0.8633	0.142
Mof_H 	H 	0.0696	0.3628	0.8708	0.132
Mof_H 	H 	0.0438	0.3234	0.8944	0.129
Mof_O 	O 	0.087	0.5641	0.56287	-0.606
Mof_O 	O 	0.1629	0.584	0.58009	-0.519
Mof_C 	C 	0.1325	0.5605	0.5595	0.86
Mof_C 	C 	0.1495	0.5346	0.535	-1.293
Mof_H 	H 	0.1893	0.5339	0.5345	0.368
Mof_H 	H 	0.1358	0.5542	0.5183	0.371
Mof_H 	H 	0.1355	0.4973	0.5349	0.379
Mof_La	La	0.06556	0.97269	0.7935	1.338
Mof_La	La	0.5069	0.1818	0.78732	0.929
Mof_La	La	0.7852	0.3563	0.75495	1.028
Mof_La	La	0.1662	0.2316	0.99624	-0.191
Mof_La	La	0.1363	0.9394	0.7388	0.325
Mof_La	La	0.8127	0.2767	0.7232	0.531
Mof_O 	O 	0.2122	0.2868	0.0462	-0.386
Mof_Pt	Pt	0.99995	0.2561	0.45525	0.271
Mof_Pt	Pt	0.72458	0.33512	0.48281	0.278
Mof_Pt	Pt	0.93245	0.45333	0.56356	0.27
Mof_Pt	Pt	0.02245	0.18418	0.59808	0.295
Mof_Pt	Pt	0.81389	0.07183	0.51961	0.217
Mof_Pt	Pt	0.75333	0.26155	0.62614	0.255
Mof_Ag	Ag	0.84056	0.2164	0.47989	0.434
Mof_Ag	Ag	0.88946	0.34916	0.50117	0.409
Mof_Ag	Ag	8e-05	0.31057	0.53892	0.433
Mof_Ag	Ag	0.94044	0.173	0.52422	0.402
Mof_Ag	Ag	0.76375	0.22873	0.54258	0.425
Mof_Ag	Ag	0.7883	0.37396	0.56269	0.474
Mof_Ag	Ag	0.90611	0.29838	0.59583	0.419
Mof_Ag	Ag	0.85955	0.1476	0.5958	0.475
Mof_La	La	0.1183	0.41892	0.36279	1.704
Mof_S 	S 	0.9373	0.19619	0.47104	-0.385
Mof_S 	S 	0.98444	0.32466	0.48659	-0.384
Mof_S 	S 	0.80974	0.31193	0.47288	-0.375
Mof_S 	S 	0.72747	0.31985	0.53075	-0.365
Mof_S 	S 	0.86311	0.42083	0.53686	-0.391
Mof_S 	S 	0.96802	0.37316	0.5772	-0.397
Mof_S 	S 	0.019	0.21379	0.55235	-0.405
Mof_S 	S 	0.93784	0.20594	0.61159	-0.453
Mof_S 	S 	0.88074	0.10252	0.54843	-0.36
Mof_S 	S 	0.781	0.15356	0.50616	-0.379
Mof_S 	S 	0.76927	0.19523	0.59347	-0.38
Mof_S 	S 	0.80995	0.32565	0.60924	-0.376
Mof_O 	O 	0.0374	0.1074	0.39704	-0.392
Mof_O 	O 	0.9587	0.0885	0.38566	-0.356
Mof_O 	O 	0.105	0.38273	0.41129	-0.548
Mof_O 	O 	0.1255	0.4354	0.45102	-0.327
Mof_O 	O 	0.7265	0.3691	0.3858	-0.366
Mof_O 	O 	0.771	0.2984	0.37416	-0.313
Mof_O 	O 	0.5454	0.3591	0.50234	-0.43
Mof_O 	O 	0.5498	0.4018	0.54287	-0.606
Mof_O 	O 	0.8726	0.61425	0.52258	-0.455
Mof_O 	O 	0.7891	0.6011	0.52894	-0.373
Mof_O 	O 	0.01967	0.42556	0.37014	-0.493
Mof_O 	O 	0.95466	0.36882	0.35647	-0.327
Mof_O 	O 	0.19848	0.13238	0.56696	-0.323
Mof_O 	O 	0.21085	0.21	0.54483	-0.303
Mof_O 	O 	0.0478	0.1717	0.69518	-0.3
Mof_O 	O 	0.9678	0.1361	0.70652	-0.338
Mof_O 	O 	0.9086	0.9091	0.54315	-0.313
Mof_O 	O 	0.9079	0.925	0.59	-0.276
Mof_O 	O 	0.16996	0.487	0.29193	-0.353
Mof_O 	O 	0.18569	0.41873	0.32258	-0.534
Mof_O 	O 	0.60958	0.1459	0.6469	-0.326
Mof_O 	O 	0.6564	0.0662	0.64353	-0.285
Mof_O 	O 	0.7338	0.3938	0.69727	-0.432
Mof_O 	O 	0.7443	0.4623	0.67194	-0.528
Mof_N 	N 	0.0104	0.2008	0.42287	-0.217
Mof_H 	H 	0.0139	0.2202	0.4062	0.098
Mof_H 	H 	0.0431	0.1837	0.426	0.123
Mof_N 	N 	0.0601	0.3039	0.43948	-0.223
Mof_H 	H 	0.0911	0.2831	0.4377	0.116
Mof_H 	H 	0.0503	0.3151	0.4214	0.104
Mof_N 	N 	0.7118	0.3423	0.43983	-0.231
Mof_H 	H 	0.6779	0.3293	0.4352	0.098
Mof_H 	H 	0.7134	0.3783	0.4346	0.126
Mof_N 	N 	0.653	0.3686	0.49114	-0.233
Mof_H 	H 	0.6532	0.403	0.4834	0.109
Mof_H 	H 	0.6271	0.349	0.4814	0.099
Mof_N 	N 	0.9007	0.5268	0.55299	-0.216
Mof_H 	H 	0.9011	0.5486	0.5689	0.11
Mof_H 	H 	0.9229	0.5427	0.5395	0.09
Mof_N 	N 	0.9959	0.4872	0.58572	-0.212
Mof_H 	H 	0.0079	0.5176	0.5762	0.09
Mof_H 	H 	0.984	0.4978	0.6035	0.071
Mof_N 	N 	0.1029	0.1681	0.58956	-0.231
Mof_H 	H 	0.1231	0.1774	0.6053	0.146
Mof_H 	H 	0.1068	0.1313	0.5868	0.119
Mof_N 	N 	0.0324	0.1564	0.63826	-0.224
Mof_H 	H 	0.0434	0.1207	0.6374	0.097
Mof_H 	H 	0.0598	0.1759	0.6468	0.125
Mof_N 	N 	0.8373	0.9959	0.53201	-0.221
Mof_H 	H 	0.8068	0.9754	0.5355	0.074
Mof_H 	H 	0.8559	0.9797	0.5172	0.096
Mof_N 	N 	0.7593	0.0421	0.49076	-0.171
Mof_H 	H 	0.7753	0.0135	0.4813	0.049
Mof_H 	H 	0.7301	0.0283	0.5007	-0.041
Mof_N 	N 	0.7028	0.20704	0.64374	-0.232
Mof_H 	H 	0.7088	0.2075	0.6631	0.115
Mof_H 	H 	0.6679	0.2193	0.6409	0.099
Mof_N 	N 	0.7361	0.3193	0.6548	-0.207
Mof_H 	H 	0.6995	0.3171	0.6587	0.088
Mof_H 	H 	0.7542	0.3106	0.6714	0.048
Mof_C 	C 	0.955	0.1368	0.44875	0.344
Mof_C 	C 	0.9703	0.1591	0.4179	-0.253
Mof_H 	H 	0.9376	0.1745	0.4082	0.091
Mof_C 	C 	0.9951	0.1145	0.40029	0.459
Mof_C 	C 	0.9947	0.1012	0.46133	-0.701
Mof_H 	H 	0.9818	0.0891	0.4801	0.19
Mof_H 	H 	0.0292	0.1206	0.4635	0.205
Mof_H 	H 	0.0001	0.0695	0.4489	0.216
Mof_C 	C 	0.8958	0.1049	0.4442	-0.551
Mof_H 	H 	0.8694	0.1299	0.4356	0.152
Mof_H 	H 	0.8821	0.0925	0.4628	0.155
Mof_H 	H 	0.9009	0.0735	0.4316	0.179
Mof_C 	C 	0.021	0.3801	0.46882	0.357
Mof_C 	C 	0.0737	0.3536	0.45709	-0.251
Mof_H 	H 	0.0992	0.3443	0.473	0.089
Mof_C 	C 	0.1013	0.3894	0.43505	0.412
Mof_C 	C 	0.9848	0.4028	0.44531	-0.628
Mof_H 	H 	0.9795	0.3751	0.4305	0.196
Mof_H 	H 	0.002	0.4349	0.4369	0.183
Mof_H 	H 	0.9495	0.413	0.4534	0.165
Mof_C 	C 	0.0324	0.4206	0.49259	-0.626
Mof_H 	H 	0.0559	0.4037	0.507	0.171
Mof_H 	H 	0.9981	0.4316	0.5015	0.168
Mof_H 	H 	0.0506	0.4526	0.4846	0.187
Mof_C 	C 	0.8117	0.3292	0.4343	0.283
Mof_C 	C 	0.7541	0.3109	0.42443	-0.187
Mof_H 	H 	0.7487	0.2708	0.4262	0.067
Mof_C 	C 	0.7502	0.332	0.39081	0.405
Mof_C 	C 	0.8252	0.3921	0.43313	-0.541
Mof_H 	H 	0.8629	0.398	0.4391	0.145
Mof_H 	H 	0.8007	0.4118	0.446	0.16
Mof_H 	H 	0.8203	0.4054	0.4136	0.165
Mof_C 	C 	0.8601	0.2976	0.42121	-0.579
Mof_H 	H 	0.8943	0.3123	0.4287	0.169
Mof_H 	H 	0.8595	0.3015	0.4004	0.194
Mof_H 	H 	0.8571	0.2591	0.4263	0.161
Mof_C 	C 	0.6561	0.3271	0.53693	0.142
Mof_C 	C 	0.6348	0.3737	0.52068	-0.164
Mof_H 	H 	0.6523	0.407	0.5287	0.056
Mof_C 	C 	0.5721	0.3839	0.52089	0.4
Mof_C 	C 	0.6261	0.2766	0.5279	-0.425
Mof_H 	H 	0.6388	0.2456	0.5393	0.103
Mof_H 	H 	0.6328	0.2695	0.5076	0.124
Mof_H 	H 	0.587	0.2817	0.531	0.123
Mof_C 	C 	0.8434	0.4821	0.51894	0.321
Mof_C 	C 	0.8479	0.5254	0.5423	-0.219
Mof_H 	H 	0.8222	0.5163	0.5581	0.091
Mof_C 	C 	0.8359	0.5842	0.5316	0.395
Mof_C 	C 	0.8801	0.4952	0.49502	-0.582
Mof_H 	H 	0.8782	0.4663	0.4806	0.149
Mof_H 	H 	0.9175	0.4982	0.5021	0.159
Mof_H 	H 	0.8692	0.5298	0.4864	0.149
Mof_C 	C 	0.783	0.4703	0.50754	-0.568
Mof_H 	H 	0.7594	0.4613	0.5237	0.161
Mof_H 	H 	0.7839	0.4397	0.4942	0.163
Mof_H 	H 	0.769	0.5026	0.4978	0.171
Mof_C 	C 	0.0237	0.393	0.6013	0.394
Mof_C 	C 	0.0426	0.4477	0.58909	-0.259
Mof_H 	H 	0.0588	0.4411	0.5698	0.087
Mof_C 	C 	0.9773	0.4151	0.35752	0.422
Mof_C 	C 	0.0019	0.4019	0.6318	-0.642
Mof_H 	H 	0.9734	0.4297	0.6315	0.181
Mof_H 	H 	0.0316	0.414	0.6442	0.19
Mof_H 	H 	0.9869	0.3678	0.6391	0.167
Mof_C 	C 	0.0661	0.3503	0.59984	-0.73
Mof_H 	H 	0.0518	0.3165	0.608	0.212
Mof_H 	H 	0.098	0.3619	0.6107	0.241
Mof_H 	H 	0.0764	0.3442	0.5799	0.206
Mof_C 	C 	0.085	0.1872	0.5388	0.474
Mof_C 	C 	0.1249	0.1964	0.5648	-0.239
Mof_H 	H 	0.1267	0.2361	0.5691	0.101
Mof_C 	C 	0.1839	0.1749	0.55862	0.374
Mof_C 	C 	0.0787	0.1314	0.53244	-0.832
Mof_H 	H 	0.0688	0.1116	0.5499	0.248
Mof_H 	H 	0.113	0.1169	0.5249	0.242
Mof_H 	H 	0.05	0.1268	0.5181	0.224
Mof_C 	C 	0.1008	0.2221	0.51359	-0.773
Mof_H 	H 	0.1039	0.2601	0.5197	0.222
Mof_H 	H 	0.0729	0.2191	0.4987	0.224
Mof_H 	H 	0.1358	0.2098	0.506	0.249
Mof_C 	C 	0.9456	0.2066	0.65085	0.632
Mof_C 	C 	0.9804	0.1598	0.6576	-0.328
Mof_H 	H 	0.9583	0.1268	0.6529	0.096
Mof_C 	C 	0.9994	0.1519	0.68882	0.346
Mof_C 	C 	0.9728	0.2536	0.6604	-0.997
Mof_H 	H 	0.0092	0.2549	0.652	0.304
Mof_H 	H 	0.9757	0.2527	0.6813	0.29
Mof_H 	H 	0.9522	0.2859	0.6546	0.262
Mof_C 	C 	0.8924	0.1983	0.663	-0.91
Mof_H 	H 	0.8774	0.1638	0.656	0.244
Mof_H 	H 	0.8684	0.2282	0.6573	0.235
Mof_H 	H 	0.8952	0.1971	0.6839	0.25
Mof_C 	C 	0.9167	0.0376	0.55564	0.273
Mof_C 	C 	0.8735	0.9955	0.55885	-0.19
Mof_H 	H 	0.8508	0.0042	0.576	0.086
Mof_C 	C 	0.8985	0.9368	0.56239	0.339
Mof_C 	C 	0.9537	0.027	0.52739	-0.523
Mof_H 	H 	0.9816	0.0552	0.526	0.136
Mof_H 	H 	0.9306	0.0281	0.5103	0.157
Mof_H 	H 	0.9711	0.9913	0.5288	0.172
Mof_C 	C 	0.9559	0.0407	0.58159	-0.567
Mof_H 	H 	0.9831	0.0691	0.5782	0.163
Mof_H 	H 	0.9742	0.0057	0.5841	0.189
Mof_H 	H 	0.9352	0.0494	0.5989	0.158
Mof_C 	C 	0.7222	0.1337	0.4821	0.342
Mof_C 	C 	0.7384	0.0814	0.46901	-0.278
Mof_H 	H 	0.7701	0.09	0.4564	0.089
Mof_C 	C 	0.1942	0.4401	0.30077	0.425
Mof_C 	C 	0.6729	0.1237	0.50177	-0.502
Mof_H 	H 	0.6614	0.1582	0.5103	0.125
Mof_H 	H 	0.683	0.0981	0.5169	0.087
Mof_H 	H 	0.6429	0.1085	0.4906	0.129
Mof_C 	C 	0.7136	0.1802	0.46261	-0.645
Mof_H 	H 	0.7018	0.2119	0.4737	0.181
Mof_H 	H 	0.6857	0.1709	0.4485	0.205
Mof_H 	H 	0.7477	0.1887	0.4527	0.173
Mof_C 	C 	0.7124	0.1487	0.60231	0.314
Mof_C 	C 	0.7045	0.1507	0.6346	-0.192
Mof_H 	H 	0.7357	0.132	0.6441	0.075
Mof_C 	C 	0.6509	0.1216	0.64297	0.308
Mof_C 	C 	0.663	0.1659	0.58645	-0.59
Mof_H 	H 	0.6698	0.1636	0.5659	0.148
Mof_H 	H 	0.654	0.2035	0.5915	0.172
Mof_H 	H 	0.6325	0.1421	0.5915	0.165
Mof_C 	C 	0.7304	0.0928	0.5911	-0.529
Mof_H 	H 	0.7342	0.0943	0.5703	0.12
Mof_H 	H 	0.7031	0.0654	0.5962	0.146
Mof_H 	H 	0.7654	0.0829	0.5997	0.147
Mof_C 	C 	0.8104	0.3719	0.63909	0.255
Mof_C 	C 	0.7486	0.3781	0.64819	-0.242
Mof_H 	H 	0.7268	0.3897	0.6312	0.088
Mof_C 	C 	0.7418	0.4209	0.67253	0.507
Mof_C 	C 	0.8482	0.3564	0.66167	-0.401
Mof_H 	H 	0.8851	0.3543	0.6538	0.08
Mof_H 	H 	0.8379	0.3208	0.6694	0.057
Mof_H 	H 	0.8472	0.3836	0.677	0.039
Mof_C 	C 	0.8257	0.4306	0.6284	-0.489
Mof_H 	H 	0.8004	0.4418	0.6133	0.141
Mof_H 	H 	0.8628	0.4304	0.6208	0.132
Mof_H 	H 	0.8234	0.4562	0.6444	0.129
Mof_O 	O 	0.0641	0.413	0.31287	-0.605
Mof_O 	O 	0.084	0.3371	0.33009	-0.519
Mof_C 	C 	0.0605	0.3675	0.3095	0.859
Mof_C 	C 	0.0346	0.3505	0.285	-1.29
Mof_H 	H 	0.0339	0.3107	0.2845	0.367
Mof_H 	H 	0.0542	0.3642	0.2683	0.37
Mof_H 	H 	0.9973	0.3645	0.2849	0.378
Mof_La	La	0.47269	0.43444	0.5435	1.341
Mof_La	La	0.6818	0.9931	0.53732	0.93
Mof_La	La	0.8563	0.7148	0.50495	1.028
Mof_La	La	0.7316	0.3338	0.74624	-0.199
Mof_La	La	0.4394	0.3637	0.4888	0.325
Mof_La	La	0.7767	0.6873	0.4732	0.531
Mof_O 	O 	0.7868	0.2878	0.7962	-0.386
Mof_Pt	Pt	5e-05	0.7439	0.95525	0.271
Mof_Pt	Pt	0.27542	0.66488	0.98281	0.278
Mof_Pt	Pt	0.06755	0.54667	0.06356	0.27
Mof_Pt	Pt	0.97755	0.81582	0.09808	0.295
Mof_Pt	Pt	0.18611	0.92817	0.01961	0.218
Mof_Pt	Pt	0.24667	0.73845	0.12614	0.255
Mof_Ag	Ag	0.15944	0.7836	0.97989	0.434
Mof_Ag	Ag	0.11054	0.65084	0.00117	0.41
Mof_Ag	Ag	0.99992	0.68943	0.03892	0.433
Mof_Ag	Ag	0.05956	0.827	0.02422	0.402
Mof_Ag	Ag	0.23625	0.77127	0.04258	0.425
Mof_Ag	Ag	0.2117	0.62604	0.06269	0.474
Mof_Ag	Ag	0.09389	0.70162	0.09583	0.419
Mof_Ag	Ag	0.14045	0.8524	0.0958	0.475
Mof_La	La	0.8817	0.58108	0.86279	1.704
Mof_S 	S 	0.0627	0.80381	0.97104	-0.385
Mof_S 	S 	0.01556	0.67534	0.98659	-0.385
Mof_S 	S 	0.19026	0.68807	0.97288	-0.375
Mof_S 	S 	0.27253	0.68015	0.03075	-0.364
Mof_S 	S 	0.13689	0.57917	0.03686	-0.391
Mof_S 	S 	0.03198	0.62684	0.0772	-0.398
Mof_S 	S 	0.981	0.78621	0.05235	-0.405
Mof_S 	S 	0.06216	0.79406	0.11159	-0.453
Mof_S 	S 	0.11926	0.89748	0.04843	-0.36
Mof_S 	S 	0.219	0.84644	0.00616	-0.378
Mof_S 	S 	0.23073	0.80477	0.09347	-0.38
Mof_S 	S 	0.19005	0.67435	0.10924	-0.376
Mof_O 	O 	0.9626	0.8926	0.89704	-0.392
Mof_O 	O 	0.0413	0.9115	0.88566	-0.356
Mof_O 	O 	0.895	0.61727	0.91129	-0.548
Mof_O 	O 	0.8745	0.5646	0.95102	-0.327
Mof_O 	O 	0.2735	0.6309	0.8858	-0.366
Mof_O 	O 	0.229	0.7016	0.87416	-0.313
Mof_O 	O 	0.4546	0.6409	0.00234	-0.43
Mof_O 	O 	0.4502	0.5982	0.04287	-0.606
Mof_O 	O 	0.1274	0.38575	0.02258	-0.454
Mof_O 	O 	0.2109	0.3989	0.02894	-0.373
Mof_O 	O 	0.98033	0.57444	0.87014	-0.493
Mof_O 	O 	0.04534	0.63118	0.85647	-0.327
Mof_O 	O 	0.80152	0.86762	0.06696	-0.323
Mof_O 	O 	0.78915	0.79	0.04483	-0.303
Mof_O 	O 	0.9522	0.8283	0.19518	-0.3
Mof_O 	O 	0.0322	0.8639	0.20652	-0.338
Mof_O 	O 	0.0914	0.0909	0.04315	-0.313
Mof_O 	O 	0.0921	0.075	0.09	-0.276
Mof_O 	O 	0.83004	0.513	0.79193	-0.353
Mof_O 	O 	0.81431	0.58127	0.82258	-0.534
Mof_O 	O 	0.39042	0.8541	0.1469	-0.326
Mof_O 	O 	0.3436	0.9338	0.14353	-0.285
Mof_O 	O 	0.2662	0.6062	0.19727	-0.432
Mof_O 	O 	0.2557	0.5377	0.17194	-0.528
Mof_N 	N 	0.9896	0.7992	0.92287	-0.217
Mof_H 	H 	0.9861	0.7798	0.9062	0.098
Mof_H 	H 	0.9569	0.8163	0.926	0.123
Mof_N 	N 	0.9399	0.6961	0.93948	-0.223
Mof_H 	H 	0.9089	0.7169	0.9377	0.116
Mof_H 	H 	0.9497	0.6849	0.9214	0.104
Mof_N 	N 	0.2882	0.6577	0.93983	-0.231
Mof_H 	H 	0.3221	0.6707	0.9352	0.098
Mof_H 	H 	0.2866	0.6217	0.9346	0.126
Mof_N 	N 	0.347	0.6314	0.99114	-0.233
Mof_H 	H 	0.3468	0.597	0.9834	0.109
Mof_H 	H 	0.3729	0.651	0.9814	0.099
Mof_N 	N 	0.0993	0.4732	0.05299	-0.216
Mof_H 	H 	0.0989	0.4514	0.0689	0.11
Mof_H 	H 	0.0771	0.4573	0.0395	0.09
Mof_N 	N 	0.0041	0.5128	0.08572	-0.212
Mof_H 	H 	0.9921	0.4824	0.0762	0.09
Mof_H 	H 	0.016	0.5022	0.1035	0.071
Mof_N 	N 	0.8971	0.8319	0.08956	-0.231
Mof_H 	H 	0.8769	0.8226	0.1053	0.146
Mof_H 	H 	0.8932	0.8687	0.0868	0.119
Mof_N 	N 	0.9676	0.8436	0.13826	-0.224
Mof_H 	H 	0.9566	0.8793	0.1374	0.097
Mof_H 	H 	0.9402	0.8241	0.1468	0.125
Mof_N 	N 	0.1627	0.0041	0.03201	-0.221
Mof_H 	H 	0.1932	0.0246	0.0355	0.075
Mof_H 	H 	0.1441	0.0203	0.0172	0.096
Mof_N 	N 	0.2407	0.9579	0.99076	-0.171
Mof_H 	H 	0.2247	0.9865	0.9813	0.049
Mof_H 	H 	0.2699	0.9717	0.0007	-0.04
Mof_N 	N 	0.2972	0.79296	0.14374	-0.232
Mof_H 	H 	0.2912	0.7925	0.1631	0.115
Mof_H 	H 	0.3321	0.7807	0.1409	0.099
Mof_N 	N 	0.2639	0.6807	0.1548	-0.207
Mof_H 	H 	0.3005	0.6829	0.1587	0.088
Mof_H 	H 	0.2458	0.6894	0.1714	0.048
Mof_C 	C 	0.045	0.8632	0.94875	0.344
Mof_C 	C 	0.0297	0.8409	0.9179	-0.253
Mof_H 	H 	0.0624	0.8255	0.9082	0.091
Mof_C 	C 	0.0049	0.8855	0.90029	0.459
Mof_C 	C 	0.0053	0.8988	0.96133	-0.701
Mof_H 	H 	0.0182	0.9109	0.9801	0.19
Mof_H 	H 	0.9708	0.8794	0.9635	0.205
Mof_H 	H 	0.9999	0.9305	0.9489	0.216
Mof_C 	C 	0.1042	0.8951	0.9442	-0.551
Mof_H 	H 	0.1306	0.8701	0.9356	0.152
Mof_H 	H 	0.1179	0.9075	0.9628	0.155
Mof_H 	H 	0.0991	0.9265	0.9316	0.179
Mof_C 	C 	0.979	0.6199	0.96882	0.358
Mof_C 	C 	0.9263	0.6464	0.95709	-0.252
Mof_H 	H 	0.9008	0.6557	0.973	0.089
Mof_C 	C 	0.8987	0.6106	0.93505	0.412
Mof_C 	C 	0.0152	0.5972	0.94531	-0.629
Mof_H 	H 	0.0205	0.6249	0.9305	0.196
Mof_H 	H 	0.998	0.5651	0.9369	0.183
Mof_H 	H 	0.0505	0.587	0.9534	0.165
Mof_C 	C 	0.9676	0.5794	0.99259	-0.629
Mof_H 	H 	0.9441	0.5963	0.007	0.172
Mof_H 	H 	0.0019	0.5684	0.0015	0.17
Mof_H 	H 	0.9494	0.5474	0.9846	0.187
Mof_C 	C 	0.1883	0.6708	0.9343	0.283
Mof_C 	C 	0.2459	0.6891	0.92443	-0.187
Mof_H 	H 	0.2513	0.7292	0.9262	0.067
Mof_C 	C 	0.2498	0.668	0.89081	0.405
Mof_C 	C 	0.1748	0.6079	0.93313	-0.541
Mof_H 	H 	0.1371	0.602	0.9391	0.145
Mof_H 	H 	0.1993	0.5882	0.946	0.16
Mof_H 	H 	0.1797	0.5946	0.9136	0.165
Mof_C 	C 	0.1399	0.7024	0.92121	-0.579
Mof_H 	H 	0.1057	0.6877	0.9287	0.169
Mof_H 	H 	0.1405	0.6985	0.9004	0.194
Mof_H 	H 	0.1429	0.7409	0.9263	0.161
Mof_C 	C 	0.3439	0.6729	0.03693	0.142
Mof_C 	C 	0.3652	0.6263	0.02068	-0.163
Mof_H 	H 	0.3477	0.593	0.0287	0.056
Mof_C 	C 	0.4279	0.6161	0.02089	0.4
Mof_C 	C 	0.3739	0.7234	0.0279	-0.426
Mof_H 	H 	0.3612	0.7544	0.0393	0.103
Mof_H 	H 	0.3672	0.7305	0.0076	0.124
Mof_H 	H 	0.413	0.7183	0.031	0.123
Mof_C 	C 	0.1566	0.5179	0.01894	0.321
Mof_C 	C 	0.1521	0.4746	0.0423	-0.219
Mof_H 	H 	0.1778	0.4837	0.0581	0.091
Mof_C 	C 	0.1641	0.4158	0.0316	0.394
Mof_C 	C 	0.1199	0.5048	0.99502	-0.584
Mof_H 	H 	0.1218	0.5337	0.9806	0.15
Mof_H 	H 	0.0825	0.5018	0.0021	0.16
Mof_H 	H 	0.1308	0.4702	0.9864	0.15
Mof_C 	C 	0.217	0.5297	0.00754	-0.565
Mof_H 	H 	0.2406	0.5387	0.0237	0.16
Mof_H 	H 	0.2161	0.5603	0.9942	0.162
Mof_H 	H 	0.231	0.4974	0.9978	0.17
Mof_C 	C 	0.9763	0.607	0.1013	0.394
Mof_C 	C 	0.9574	0.5523	0.08909	-0.259
Mof_H 	H 	0.9412	0.5589	0.0698	0.087
Mof_C 	C 	0.0227	0.5849	0.85752	0.422
Mof_C 	C 	0.9981	0.5981	0.1318	-0.642
Mof_H 	H 	0.0266	0.5703	0.1315	0.181
Mof_H 	H 	0.9684	0.586	0.1442	0.19
Mof_H 	H 	0.0131	0.6322	0.1391	0.167
Mof_C 	C 	0.9339	0.6497	0.09984	-0.73
Mof_H 	H 	0.9482	0.6835	0.108	0.212
Mof_H 	H 	0.902	0.6381	0.1107	0.241
Mof_H 	H 	0.9236	0.6558	0.0799	0.206
Mof_C 	C 	0.915	0.8128	0.0388	0.474
Mof_C 	C 	0.8751	0.8036	0.0648	-0.239
Mof_H 	H 	0.8733	0.7639	0.0691	0.101
Mof_C 	C 	0.8161	0.8251	0.05862	0.374
Mof_C 	C 	0.9213	0.8686	0.03244	-0.831
Mof_H 	H 	0.9312	0.8884	0.0499	0.248
Mof_H 	H 	0.887	0.8831	0.0249	0.242
Mof_H 	H 	0.95	0.8732	0.0181	0.224
Mof_C 	C 	0.8992	0.7779	0.01359	-0.771
Mof_H 	H 	0.8961	0.7399	0.0197	0.222
Mof_H 	H 	0.9271	0.7809	0.9987	0.223
Mof_H 	H 	0.8642	0.7902	0.006	0.249
Mof_C 	C 	0.0544	0.7934	0.15085	0.632
Mof_C 	C 	0.0196	0.8402	0.1576	-0.328
Mof_H 	H 	0.0417	0.8732	0.1529	0.096
Mof_C 	C 	0.0006	0.8481	0.18882	0.346
Mof_C 	C 	0.0272	0.7464	0.1604	-0.997
Mof_H 	H 	0.9908	0.7451	0.152	0.304
Mof_H 	H 	0.0243	0.7473	0.1813	0.29
Mof_H 	H 	0.0478	0.7141	0.1546	0.262
Mof_C 	C 	0.1076	0.8017	0.163	-0.91
Mof_H 	H 	0.1226	0.8362	0.156	0.244
Mof_H 	H 	0.1316	0.7718	0.1573	0.235
Mof_H 	H 	0.1048	0.8029	0.1839	0.25
Mof_C 	C 	0.0833	0.9624	0.05564	0.274
Mof_C 	C 	0.1265	0.0045	0.05885	-0.19
Mof_H 	H 	0.1492	0.9958	0.076	0.086
Mof_C 	C 	0.1015	0.0632	0.06239	0.339
Mof_C 	C 	0.0463	0.973	0.02739	-0.523
Mof_H 	H 	0.0184	0.9448	0.026	0.136
Mof_H 	H 	0.0694	0.9719	0.0103	0.157
Mof_H 	H 	0.0289	0.0087	0.0288	0.172
Mof_C 	C 	0.0441	0.9593	0.08159	-0.567
Mof_H 	H 	0.0169	0.9309	0.0782	0.163
Mof_H 	H 	0.0258	0.9943	0.0841	0.189
Mof_H 	H 	0.0648	0.9506	0.0989	0.158
Mof_C 	C 	0.2778	0.8663	0.9821	0.34
Mof_C 	C 	0.2616	0.9186	0.96901	-0.277
Mof_H 	H 	0.2299	0.91	0.9564	0.089
Mof_C 	C 	0.8058	0.5599	0.80077	0.425
Mof_C 	C 	0.3271	0.8763	0.00177	-0.499
Mof_H 	H 	0.3386	0.8418	0.0103	0.124
Mof_H 	H 	0.317	0.9019	0.0169	0.086
Mof_H 	H 	0.3571	0.8915	0.9906	0.128
Mof_C 	C 	0.2864	0.8198	0.96261	-0.643
Mof_H 	H 	0.2982	0.7881	0.9737	0.18
Mof_H 	H 	0.3143	0.8291	0.9485	0.204
Mof_H 	H 	0.2523	0.8113	0.9527	0.172
Mof_C 	C 	0.2876	0.8513	0.10231	0.314
Mof_C 	C 	0.2955	0.8493	0.1346	-0.192
Mof_H 	H 	0.2643	0.868	0.1441	0.075
Mof_C 	C 	0.3491	0.8784	0.14297	0.308
Mof_C 	C 	0.337	0.8341	0.08645	-0.59
Mof_H 	H 	0.3302	0.8364	0.0659	0.148
Mof_H 	H 	0.346	0.7965	0.0915	0.172
Mof_H 	H 	0.3675	0.8579	0.0915	0.165
Mof_C 	C 	0.2696	0.9072	0.0911	-0.529
Mof_H 	H 	0.2658	0.9057	0.0703	0.12
Mof_H 	H 	0.2969	0.9346	0.0962	0.146
Mof_H 	H 	0.2346	0.9171	0.0997	0.147
Mof_C 	C 	0.1896	0.6281	0.13909	0.255
Mof_C 	C 	0.2514	0.6219	0.14819	-0.242
Mof_H 	H 	0.2732	0.6103	0.1312	0.088
Mof_C 	C 	0.2582	0.5791	0.17253	0.507
Mof_C 	C 	0.1518	0.6436	0.16167	-0.401
Mof_H 	H 	0.1149	0.6457	0.1538	0.08
Mof_H 	H 	0.1621	0.6792	0.1694	0.057
Mof_H 	H 	0.1528	0.6164	0.177	0.039
Mof_C 	C 	0.1743	0.5694	0.1284	-0.489
Mof_H 	H 	0.1996	0.5582	0.1133	0.141
Mof_H 	H 	0.1372	0.5696	0.1208	0.132
Mof_H 	H 	0.1766	0.5438	0.1444	0.129
Mof_O 	O 	0.9359	0.587	0.81287	-0.605
Mof_O 	O 	0.916	0.6629	0.83009	-0.519
Mof_C 	C 	0.9395	0.6325	0.8095	0.859
Mof_C 	C 	0.9654	0.6495	0.785	-1.29
Mof_H 	H 	0.9661	0.6893	0.7845	0.367
Mof_H 	H 	0.9458	0.6358	0.7683	0.37
Mof_H 	H 	0.0027	0.6355	0.7849	0.378
Mof_La	La	0.52731	0.56556	0.0435	1.341
Mof_La	La	0.3182	0.0069	0.03732	0.93
Mof_La	La	0.1437	0.2852	0.00495	1.023
Mof_La	La	0.2684	0.6662	0.24624	-0.199
Mof_La	La	0.5606	0.6363	0.9888	0.324
Mof_La	La	0.2233	0.3127	0.9732	0.53
Mof_O 	O 	0.2132	0.7122	0.2962	-0.386
Mof_Pt	Pt	0.7439	5e-05	0.04475	0.271
Mof_Pt	Pt	0.66488	0.27542	0.01719	0.279
Mof_Pt	Pt	0.54667	0.06755	0.93644	0.27
Mof_Pt	Pt	0.81582	0.97755	0.90192	0.295
Mof_Pt	Pt	0.92817	0.18611	0.98039	0.217
Mof_Pt	Pt	0.73845	0.24667	0.87386	0.255
Mof_Ag	Ag	0.7836	0.15944	0.02011	0.435
Mof_Ag	Ag	0.65084	0.11054	0.99883	0.408
Mof_Ag	Ag	0.68943	0.99992	0.96107	0.432
Mof_Ag	Ag	0.827	0.05956	0.97578	0.401
Mof_Ag	Ag	0.77127	0.23625	0.95742	0.425
Mof_Ag	Ag	0.62604	0.2117	0.93731	0.474
Mof_Ag	Ag	0.70162	0.09389	0.90417	0.419
Mof_Ag	Ag	0.8524	0.14045	0.9042	0.475
Mof_La	La	0.58108	0.8817	0.13721	1.704
Mof_S 	S 	0.80381	0.0627	0.02896	-0.385
Mof_S 	S 	0.67534	0.01556	0.01341	-0.383
Mof_S 	S 	0.68807	0.19026	0.02712	-0.375
Mof_S 	S 	0.68015	0.27253	0.96925	-0.365
Mof_S 	S 	0.57917	0.13689	0.96314	-0.391
Mof_S 	S 	0.62684	0.03198	0.9228	-0.397
Mof_S 	S 	0.78621	0.981	0.94765	-0.405
Mof_S 	S 	0.79406	0.06216	0.88841	-0.452
Mof_S 	S 	0.89748	0.11926	0.95157	-0.359
Mof_S 	S 	0.84644	0.219	0.99384	-0.379
Mof_S 	S 	0.80477	0.23073	0.90653	-0.38
Mof_S 	S 	0.67435	0.19005	0.89076	-0.376
Mof_O 	O 	0.8926	0.9626	0.10296	-0.392
Mof_O 	O 	0.9115	0.0413	0.11434	-0.356
Mof_O 	O 	0.61727	0.895	0.08871	-0.548
Mof_O 	O 	0.5646	0.8745	0.04898	-0.326
Mof_O 	O 	0.6309	0.2735	0.1142	-0.366
Mof_O 	O 	0.7016	0.229	0.12584	-0.313
Mof_O 	O 	0.6409	0.4546	0.99766	-0.43
Mof_O 	O 	0.5982	0.4502	0.95713	-0.606
Mof_O 	O 	0.38575	0.1274	0.97742	-0.455
Mof_O 	O 	0.3989	0.2109	0.97106	-0.374
Mof_O 	O 	0.57444	0.98033	0.12986	-0.493
Mof_O 	O 	0.63118	0.04534	0.14353	-0.327
Mof_O 	O 	0.86762	0.80152	0.93304	-0.323
Mof_O 	O 	0.79	0.78915	0.95517	-0.303
Mof_O 	O 	0.8283	0.9522	0.80482	-0.3
Mof_O 	O 	0.8639	0.0322	0.79348	-0.338
Mof_O 	O 	0.0909	0.0914	0.95685	-0.313
Mof_O 	O 	0.075	0.0921	0.91	-0.276
Mof_O 	O 	0.513	0.83004	0.20807	-0.353
Mof_O 	O 	0.58127	0.81431	0.17742	-0.534
Mof_O 	O 	0.8541	0.39042	0.8531	-0.326
Mof_O 	O 	0.9338	0.3436	0.85647	-0.285
Mof_O 	O 	0.6062	0.2662	0.80273	-0.432
Mof_O 	O 	0.5377	0.2557	0.82806	-0.528
Mof_N 	N 	0.7992	0.9896	0.07713	-0.217
Mof_H 	H 	0.7798	0.9861	0.0938	0.098
Mof_H 	H 	0.8163	0.9569	0.074	0.123
Mof_N 	N 	0.6961	0.9399	0.06052	-0.223
Mof_H 	H 	0.7169	0.9089	0.0623	0.116
Mof_H 	H 	0.6849	0.9497	0.0786	0.104
Mof_N 	N 	0.6577	0.2882	0.06017	-0.231
Mof_H 	H 	0.6707	0.3221	0.0648	0.098
Mof_H 	H 	0.6217	0.2866	0.0654	0.126
Mof_N 	N 	0.6314	0.347	0.00886	-0.233
Mof_H 	H 	0.597	0.3468	0.0166	0.109
Mof_H 	H 	0.651	0.3729	0.0186	0.099
Mof_N 	N 	0.4732	0.0993	0.94701	-0.216
Mof_H 	H 	0.4514	0.0989	0.9311	0.11
Mof_H 	H 	0.4573	0.0771	0.9605	0.09
Mof_N 	N 	0.5128	0.0041	0.91428	-0.212
Mof_H 	H 	0.4824	0.9921	0.9238	0.09
Mof_H 	H 	0.5022	0.016	0.8965	0.071
Mof_N 	N 	0.8319	0.8971	0.91044	-0.231
Mof_H 	H 	0.8226	0.8769	0.8947	0.146
Mof_H 	H 	0.8687	0.8932	0.9132	0.119
Mof_N 	N 	0.8436	0.9676	0.86174	-0.224
Mof_H 	H 	0.8793	0.9566	0.8626	0.097
Mof_H 	H 	0.8241	0.9402	0.8532	0.125
Mof_N 	N 	0.0041	0.1627	0.96799	-0.221
Mof_H 	H 	0.0246	0.1932	0.9645	0.074
Mof_H 	H 	0.0203	0.1441	0.9828	0.096
Mof_N 	N 	0.9579	0.2407	0.00924	-0.17
Mof_H 	H 	0.9865	0.2247	0.0187	0.049
Mof_H 	H 	0.9717	0.2699	0.9993	-0.041
Mof_N 	N 	0.79296	0.2972	0.85626	-0.232
Mof_H 	H 	0.7925	0.2912	0.8369	0.115
Mof_H 	H 	0.7807	0.3321	0.8591	0.099
Mof_N 	N 	0.6807	0.2639	0.8452	-0.207
Mof_H 	H 	0.6829	0.3005	0.8413	0.088
Mof_H 	H 	0.6894	0.2458	0.8286	0.048
Mof_C 	C 	0.8632	0.045	0.05125	0.344
Mof_C 	C 	0.8409	0.0297	0.0821	-0.253
Mof_H 	H 	0.8255	0.0624	0.0918	0.091
Mof_C 	C 	0.8855	0.0049	0.09971	0.459
Mof_C 	C 	0.8988	0.0053	0.03867	-0.701
Mof_H 	H 	0.9109	0.0182	0.0199	0.19
Mof_H 	H 	0.8794	0.9708	0.0365	0.206
Mof_H 	H 	0.9305	0.9999	0.0511	0.216
Mof_C 	C 	0.8951	0.1042	0.0558	-0.551
Mof_H 	H 	0.8701	0.1306	0.0644	0.152
Mof_H 	H 	0.9075	0.1179	0.0372	0.155
Mof_H 	H 	0.9265	0.0991	0.0684	0.179
Mof_C 	C 	0.6199	0.979	0.03118	0.356
Mof_C 	C 	0.6464	0.9263	0.04291	-0.251
Mof_H 	H 	0.6557	0.9008	0.027	0.089
Mof_C 	C 	0.6106	0.8987	0.06495	0.412
Mof_C 	C 	0.5972	0.0152	0.05469	-0.627
Mof_H 	H 	0.6249	0.0205	0.0695	0.195
Mof_H 	H 	0.5651	0.998	0.0631	0.183
Mof_H 	H 	0.587	0.0505	0.0466	0.165
Mof_C 	C 	0.5794	0.9676	0.00741	-0.622
Mof_H 	H 	0.5963	0.9441	0.993	0.169
Mof_H 	H 	0.5684	0.0019	0.9985	0.167
Mof_H 	H 	0.5474	0.9494	0.0154	0.186
Mof_C 	C 	0.6708	0.1883	0.0657	0.283
Mof_C 	C 	0.6891	0.2459	0.07557	-0.187
Mof_H 	H 	0.7292	0.2513	0.0738	0.067
Mof_C 	C 	0.668	0.2498	0.10919	0.405
Mof_C 	C 	0.6079	0.1748	0.06687	-0.541
Mof_H 	H 	0.602	0.1371	0.0609	0.145
Mof_H 	H 	0.5882	0.1993	0.054	0.16
Mof_H 	H 	0.5946	0.1797	0.0864	0.165
Mof_C 	C 	0.7024	0.1399	0.07879	-0.579
Mof_H 	H 	0.6877	0.1057	0.0713	0.169
Mof_H 	H 	0.6985	0.1405	0.0996	0.194
Mof_H 	H 	0.7409	0.1429	0.0737	0.161
Mof_C 	C 	0.6729	0.3439	0.96307	0.142
Mof_C 	C 	0.6263	0.3652	0.97932	-0.164
Mof_H 	H 	0.593	0.3477	0.9713	0.056
Mof_C 	C 	0.6161	0.4279	0.97911	0.401
Mof_C 	C 	0.7234	0.3739	0.9721	-0.425
Mof_H 	H 	0.7544	0.3612	0.9607	0.103
Mof_H 	H 	0.7305	0.3672	0.9924	0.124
Mof_H 	H 	0.7183	0.413	0.969	0.123
Mof_C 	C 	0.5179	0.1566	0.98106	0.32
Mof_C 	C 	0.4746	0.1521	0.9577	-0.219
Mof_H 	H 	0.4837	0.1778	0.9419	0.091
Mof_C 	C 	0.4158	0.1641	0.9684	0.395
Mof_C 	C 	0.5048	0.1199	0.00498	-0.58
Mof_H 	H 	0.5337	0.1218	0.0194	0.149
Mof_H 	H 	0.5018	0.0825	0.9979	0.158
Mof_H 	H 	0.4702	0.1308	0.0136	0.149
Mof_C 	C 	0.5297	0.217	0.99246	-0.57
Mof_H 	H 	0.5387	0.2406	0.9763	0.162
Mof_H 	H 	0.5603	0.2161	0.0058	0.164
Mof_H 	H 	0.4974	0.231	0.0022	0.172
Mof_C 	C 	0.607	0.9763	0.8987	0.394
Mof_C 	C 	0.5523	0.9574	0.91091	-0.259
Mof_H 	H 	0.5589	0.9412	0.9302	0.087
Mof_C 	C 	0.5849	0.0227	0.14248	0.422
Mof_C 	C 	0.5981	0.9981	0.8682	-0.642
Mof_H 	H 	0.5703	0.0266	0.8685	0.181
Mof_H 	H 	0.586	0.9684	0.8558	0.19
Mof_H 	H 	0.6322	0.0131	0.8609	0.167
Mof_C 	C 	0.6497	0.9339	0.90016	-0.73
Mof_H 	H 	0.6835	0.9482	0.892	0.212
Mof_H 	H 	0.6381	0.902	0.8893	0.241
Mof_H 	H 	0.6558	0.9236	0.9201	0.206
Mof_C 	C 	0.8128	0.915	0.9612	0.475
Mof_C 	C 	0.8036	0.8751	0.9352	-0.239
Mof_H 	H 	0.7639	0.8733	0.9309	0.101
Mof_C 	C 	0.8251	0.8161	0.94138	0.374
Mof_C 	C 	0.8686	0.9213	0.96756	-0.832
Mof_H 	H 	0.8884	0.9312	0.9501	0.248
Mof_H 	H 	0.8831	0.887	0.9751	0.242
Mof_H 	H 	0.8732	0.95	0.9819	0.224
Mof_C 	C 	0.7779	0.8992	0.98641	-0.775
Mof_H 	H 	0.7399	0.8961	0.9803	0.223
Mof_H 	H 	0.7809	0.9271	0.0013	0.225
Mof_H 	H 	0.7902	0.8642	0.994	0.249
Mof_C 	C 	0.7934	0.0544	0.84915	0.632
Mof_C 	C 	0.8402	0.0196	0.8424	-0.328
Mof_H 	H 	0.8732	0.0417	0.8471	0.096
Mof_C 	C 	0.8481	0.0006	0.81118	0.346
Mof_C 	C 	0.7464	0.0272	0.8396	-0.997
Mof_H 	H 	0.7451	0.9908	0.848	0.304
Mof_H 	H 	0.7473	0.0243	0.8187	0.29
Mof_H 	H 	0.7141	0.0478	0.8454	0.262
Mof_C 	C 	0.8017	0.1076	0.837	-0.91
Mof_H 	H 	0.8362	0.1226	0.844	0.244
Mof_H 	H 	0.7718	0.1316	0.8427	0.235
Mof_H 	H 	0.8029	0.1048	0.8161	0.25
Mof_C 	C 	0.9624	0.0833	0.94436	0.273
Mof_C 	C 	0.0045	0.1265	0.94115	-0.19
Mof_H 	H 	0.9958	0.1492	0.924	0.086
Mof_C 	C 	0.0632	0.1015	0.93761	0.34
Mof_C 	C 	0.973	0.0463	0.97261	-0.523
Mof_H 	H 	0.9448	0.0184	0.974	0.136
Mof_H 	H 	0.9719	0.0694	0.9897	0.157
Mof_H 	H 	0.0087	0.0289	0.9712	0.171
Mof_C 	C 	0.9593	0.0441	0.91841	-0.567
Mof_H 	H 	0.9309	0.0169	0.9218	0.163
Mof_H 	H 	0.9943	0.0258	0.9159	0.189
Mof_H 	H 	0.9506	0.0648	0.9011	0.158
Mof_C 	C 	0.8663	0.2778	0.0179	0.344
Mof_C 	C 	0.9186	0.2616	0.03099	-0.278
Mof_H 	H 	0.91	0.2299	0.0436	0.089
Mof_C 	C 	0.5599	0.8058	0.19923	0.425
Mof_C 	C 	0.8763	0.3271	0.99823	-0.506
Mof_H 	H 	0.8418	0.3386	0.9897	0.126
Mof_H 	H 	0.9019	0.317	0.9831	0.087
Mof_H 	H 	0.8915	0.3571	0.0094	0.131
Mof_C 	C 	0.8198	0.2864	0.03739	-0.646
Mof_H 	H 	0.7881	0.2982	0.0263	0.181
Mof_H 	H 	0.8291	0.3143	0.0515	0.205
Mof_H 	H 	0.8113	0.2523	0.0473	0.173
Mof_C 	C 	0.8513	0.2876	0.89769	0.314
Mof_C 	C 	0.8493	0.2955	0.8654	-0.192
Mof_H 	H 	0.868	0.2643	0.8559	0.075
Mof_C 	C 	0.8784	0.3491	0.85703	0.308
Mof_C 	C 	0.8341	0.337	0.91355	-0.59
Mof_H 	H 	0.8364	0.3302	0.9341	0.148
Mof_H 	H 	0.7965	0.346	0.9085	0.172
Mof_H 	H 	0.8579	0.3675	0.9085	0.165
Mof_C 	C 	0.9072	0.2696	0.9089	-0.529
Mof_H 	H 	0.9057	0.2658	0.9297	0.12
Mof_H 	H 	0.9346	0.2969	0.9038	0.146
Mof_H 	H 	0.9171	0.2346	0.9003	0.147
Mof_C 	C 	0.6281	0.1896	0.86091	0.255
Mof_C 	C 	0.6219	0.2514	0.85181	-0.242
Mof_H 	H 	0.6103	0.2732	0.8688	0.088
Mof_C 	C 	0.5791	0.2582	0.82747	0.507
Mof_C 	C 	0.6436	0.1518	0.83833	-0.401
Mof_H 	H 	0.6457	0.1149	0.8462	0.08
Mof_H 	H 	0.6792	0.1621	0.8306	0.057
Mof_H 	H 	0.6164	0.1528	0.823	0.039
Mof_C 	C 	0.5694	0.1743	0.8716	-0.489
Mof_H 	H 	0.5582	0.1996	0.8867	0.141
Mof_H 	H 	0.5696	0.1372	0.8792	0.132
Mof_H 	H 	0.5438	0.1766	0.8556	0.129
Mof_O 	O 	0.587	0.9359	0.18713	-0.605
Mof_O 	O 	0.6629	0.916	0.16991	-0.519
Mof_C 	C 	0.6325	0.9395	0.1905	0.859
Mof_C 	C 	0.6495	0.9654	0.215	-1.29
Mof_H 	H 	0.6893	0.9661	0.2155	0.367
Mof_H 	H 	0.6358	0.9458	0.2317	0.37
Mof_H 	H 	0.6355	0.0027	0.2151	0.378
Mof_La	La	0.56556	0.52731	0.9565	1.34
Mof_La	La	0.0069	0.3182	0.96268	0.93
Mof_La	La	0.2852	0.1437	0.99505	1.034
Mof_La	La	0.6662	0.2684	0.75376	-0.199
Mof_La	La	0.6363	0.5606	0.0112	0.326
Mof_La	La	0.3127	0.2233	0.0268	0.532
Mof_O 	O 	0.7122	0.2132	0.7038	-0.386
Mof_Pt	Pt	0.2561	0.99995	0.54475	0.271
Mof_Pt	Pt	0.33512	0.72458	0.51719	0.278
Mof_Pt	Pt	0.45333	0.93245	0.43644	0.27
Mof_Pt	Pt	0.18418	0.02245	0.40192	0.295
Mof_Pt	Pt	0.07183	0.81389	0.48039	0.217
Mof_Pt	Pt	0.26155	0.75333	0.37386	0.255
Mof_Ag	Ag	0.2164	0.84056	0.52011	0.434
Mof_Ag	Ag	0.34916	0.88946	0.49882	0.409
Mof_Ag	Ag	0.31057	8e-05	0.46108	0.433
Mof_Ag	Ag	0.173	0.94044	0.47578	0.402
Mof_Ag	Ag	0.22873	0.76375	0.45742	0.425
Mof_Ag	Ag	0.37396	0.7883	0.43731	0.474
Mof_Ag	Ag	0.29838	0.90611	0.40417	0.419
Mof_Ag	Ag	0.1476	0.85955	0.4042	0.475
Mof_La	La	0.41892	0.1183	0.63721	1.704
Mof_S 	S 	0.19619	0.9373	0.52896	-0.385
Mof_S 	S 	0.32466	0.98444	0.51341	-0.384
Mof_S 	S 	0.31193	0.80974	0.52712	-0.375
Mof_S 	S 	0.31985	0.72747	0.46925	-0.365
Mof_S 	S 	0.42083	0.86311	0.46314	-0.391
Mof_S 	S 	0.37316	0.96802	0.4228	-0.398
Mof_S 	S 	0.21379	0.019	0.44765	-0.405
Mof_S 	S 	0.20594	0.93784	0.38841	-0.453
Mof_S 	S 	0.10252	0.88074	0.45157	-0.36
Mof_S 	S 	0.15356	0.781	0.49384	-0.379
Mof_S 	S 	0.19523	0.76927	0.40653	-0.38
Mof_S 	S 	0.32565	0.80995	0.39076	-0.376
Mof_O 	O 	0.1074	0.0374	0.60296	-0.392
Mof_O 	O 	0.0885	0.9587	0.61434	-0.356
Mof_O 	O 	0.38273	0.105	0.58871	-0.548
Mof_O 	O 	0.4354	0.1255	0.54898	-0.327
Mof_O 	O 	0.3691	0.7265	0.6142	-0.366
Mof_O 	O 	0.2984	0.771	0.62584	-0.313
Mof_O 	O 	0.3591	0.5454	0.49766	-0.43
Mof_O 	O 	0.4018	0.5498	0.45713	-0.606
Mof_O 	O 	0.61425	0.8726	0.47742	-0.455
Mof_O 	O 	0.6011	0.7891	0.47106	-0.373
Mof_O 	O 	0.42556	0.01967	0.62986	-0.493
Mof_O 	O 	0.36882	0.95466	0.64353	-0.327
Mof_O 	O 	0.13238	0.19848	0.43304	-0.323
Mof_O 	O 	0.21	0.21085	0.45517	-0.303
Mof_O 	O 	0.1717	0.0478	0.30482	-0.3
Mof_O 	O 	0.1361	0.9678	0.29348	-0.338
Mof_O 	O 	0.9091	0.9086	0.45685	-0.313
Mof_O 	O 	0.925	0.9079	0.41	-0.276
Mof_O 	O 	0.487	0.16996	0.70807	-0.353
Mof_O 	O 	0.41873	0.18569	0.67742	-0.534
Mof_O 	O 	0.1459	0.60958	0.3531	-0.326
Mof_O 	O 	0.0662	0.6564	0.35647	-0.285
Mof_O 	O 	0.3938	0.7338	0.30273	-0.432
Mof_O 	O 	0.4623	0.7443	0.32806	-0.528
Mof_N 	N 	0.2008	0.0104	0.57713	-0.217
Mof_H 	H 	0.2202	0.0139	0.5938	0.098
Mof_H 	H 	0.1837	0.0431	0.574	0.123
Mof_N 	N 	0.3039	0.0601	0.56052	-0.223
Mof_H 	H 	0.2831	0.0911	0.5623	0.116
Mof_H 	H 	0.3151	0.0503	0.5786	0.104
Mof_N 	N 	0.3423	0.7118	0.56017	-0.231
Mof_H 	H 	0.3293	0.6779	0.5648	0.098
Mof_H 	H 	0.3783	0.7134	0.5654	0.126
Mof_N 	N 	0.3686	0.653	0.50886	-0.233
Mof_H 	H 	0.403	0.6532	0.5166	0.109
Mof_H 	H 	0.349	0.6271	0.5186	0.099
Mof_N 	N 	0.5268	0.9007	0.44701	-0.216
Mof_H 	H 	0.5486	0.9011	0.4311	0.11
Mof_H 	H 	0.5427	0.9229	0.4605	0.09
Mof_N 	N 	0.4872	0.9959	0.41428	-0.212
Mof_H 	H 	0.5176	0.0079	0.4238	0.09
Mof_H 	H 	0.4978	0.984	0.3965	0.071
Mof_N 	N 	0.1681	0.1029	0.41044	-0.231
Mof_H 	H 	0.1774	0.1231	0.3947	0.146
Mof_H 	H 	0.1313	0.1068	0.4132	0.119
Mof_N 	N 	0.1564	0.0324	0.36174	-0.224
Mof_H 	H 	0.1207	0.0434	0.3626	0.097
Mof_H 	H 	0.1759	0.0598	0.3532	0.125
Mof_N 	N 	0.9959	0.8373	0.46799	-0.221
Mof_H 	H 	0.9754	0.8068	0.4645	0.074
Mof_H 	H 	0.9797	0.8559	0.4828	0.096
Mof_N 	N 	0.0421	0.7593	0.50924	-0.171
Mof_H 	H 	0.0135	0.7753	0.5187	0.049
Mof_H 	H 	0.0283	0.7301	0.4993	-0.041
Mof_N 	N 	0.20704	0.7028	0.35626	-0.232
Mof_H 	H 	0.2075	0.7088	0.3369	0.115
Mof_H 	H 	0.2193	0.6679	0.3591	0.099
Mof_N 	N 	0.3193	0.7361	0.3452	-0.207
Mof_H 	H 	0.3171	0.6995	0.3413	0.088
Mof_H 	H 	0.3106	0.7542	0.3286	0.048
Mof_C 	C 	0.1368	0.955	0.55125	0.344
Mof_C 	C 	0.1591	0.9703	0.5821	-0.253
Mof_H 	H 	0.1745	0.9376	0.5918	0.091
Mof_C 	C 	0.1145	0.9951	0.59971	0.459
Mof_C 	C 	0.1012	0.9947	0.53867	-0.701
Mof_H 	H 	0.0891	0.9818	0.5199	0.19
Mof_H 	H 	0.1206	0.0292	0.5365	0.205
Mof_H 	H 	0.0695	0.0001	0.5511	0.216
Mof_C 	C 	0.1049	0.8958	0.5558	-0.551
Mof_H 	H 	0.1299	0.8694	0.5644	0.152
Mof_H 	H 	0.0925	0.8821	0.5372	0.155
Mof_H 	H 	0.0735	0.9009	0.5684	0.179
Mof_C 	C 	0.3801	0.021	0.53118	0.357
Mof_C 	C 	0.3536	0.0737	0.54291	-0.251
Mof_H 	H 	0.3443	0.0992	0.527	0.089
Mof_C 	C 	0.3894	0.1013	0.56495	0.412
Mof_C 	C 	0.4028	0.9848	0.55469	-0.628
Mof_H 	H 	0.3751	0.9795	0.5695	0.196
Mof_H 	H 	0.4349	0.002	0.5631	0.183
Mof_H 	H 	0.413	0.9495	0.5466	0.165
Mof_C 	C 	0.4206	0.0324	0.50741	-0.626
Mof_H 	H 	0.4037	0.0559	0.493	0.171
Mof_H 	H 	0.4316	0.9981	0.4985	0.168
Mof_H 	H 	0.4526	0.0506	0.5154	0.187
Mof_C 	C 	0.3292	0.8117	0.5657	0.283
Mof_C 	C 	0.3109	0.7541	0.57557	-0.187
Mof_H 	H 	0.2708	0.7487	0.5738	0.067
Mof_C 	C 	0.332	0.7502	0.60919	0.405
Mof_C 	C 	0.3921	0.8252	0.56687	-0.541
Mof_H 	H 	0.398	0.8629	0.5609	0.145
Mof_H 	H 	0.4118	0.8007	0.554	0.16
Mof_H 	H 	0.4054	0.8203	0.5864	0.165
Mof_C 	C 	0.2976	0.8601	0.57879	-0.579
Mof_H 	H 	0.3123	0.8943	0.5713	0.169
Mof_H 	H 	0.3015	0.8595	0.5996	0.194
Mof_H 	H 	0.2591	0.8571	0.5737	0.161
Mof_C 	C 	0.3271	0.6561	0.46307	0.142
Mof_C 	C 	0.3737	0.6348	0.47932	-0.164
Mof_H 	H 	0.407	0.6523	0.4713	0.056
Mof_C 	C 	0.3839	0.5721	0.47911	0.4
Mof_C 	C 	0.2766	0.6261	0.4721	-0.425
Mof_H 	H 	0.2456	0.6388	0.4607	0.103
Mof_H 	H 	0.2695	0.6328	0.4924	0.124
Mof_H 	H 	0.2817	0.587	0.469	0.123
Mof_C 	C 	0.4821	0.8434	0.48106	0.321
Mof_C 	C 	0.5254	0.8479	0.4577	-0.219
Mof_H 	H 	0.5163	0.8222	0.4419	0.091
Mof_C 	C 	0.5842	0.8359	0.4684	0.395
Mof_C 	C 	0.4952	0.8801	0.50498	-0.582
Mof_H 	H 	0.4663	0.8782	0.5194	0.149
Mof_H 	H 	0.4982	0.9175	0.4979	0.159
Mof_H 	H 	0.5298	0.8692	0.5136	0.149
Mof_C 	C 	0.4703	0.783	0.49246	-0.568
Mof_H 	H 	0.4613	0.7594	0.4763	0.161
Mof_H 	H 	0.4397	0.7839	0.5058	0.163
Mof_H 	H 	0.5026	0.769	0.5022	0.171
Mof_C 	C 	0.393	0.0237	0.3987	0.394
Mof_C 	C 	0.4477	0.0426	0.41091	-0.259
Mof_H 	H 	0.4411	0.0588	0.4302	0.087
Mof_C 	C 	0.4151	0.9773	0.64248	0.422
Mof_C 	C 	0.4019	0.0019	0.3682	-0.642
Mof_H 	H 	0.4297	0.9734	0.3685	0.181
Mof_H 	H 	0.414	0.0316	0.3558	0.19
Mof_H 	H 	0.3678	0.9869	0.3609	0.167
Mof_C 	C 	0.3503	0.0661	0.40016	-0.73
Mof_H 	H 	0.3165	0.0518	0.392	0.212
Mof_H 	H 	0.3619	0.098	0.3893	0.241
Mof_H 	H 	0.3442	0.0764	0.4201	0.206
Mof_C 	C 	0.1872	0.085	0.4612	0.474
Mof_C 	C 	0.1964	0.1249	0.4352	-0.239
Mof_H 	H 	0.2361	0.1267	0.4309	0.101
Mof_C 	C 	0.1749	0.1839	0.44138	0.374
Mof_C 	C 	0.1314	0.0787	0.46756	-0.832
Mof_H 	H 	0.1116	0.0688	0.4501	0.248
Mof_H 	H 	0.1169	0.113	0.4751	0.242
Mof_H 	H 	0.1268	0.05	0.4819	0.224
Mof_C 	C 	0.2221	0.1008	0.48641	-0.773
Mof_H 	H 	0.2601	0.1039	0.4803	0.222
Mof_H 	H 	0.2191	0.0729	0.5013	0.224
Mof_H 	H 	0.2098	0.1358	0.494	0.249
Mof_C 	C 	0.2066	0.9456	0.34915	0.632
Mof_C 	C 	0.1598	0.9804	0.3424	-0.328
Mof_H 	H 	0.1268	0.9583	0.3471	0.096
Mof_C 	C 	0.1519	0.9994	0.31118	0.346
Mof_C 	C 	0.2536	0.9728	0.3396	-0.997
Mof_H 	H 	0.2549	0.0092	0.348	0.304
Mof_H 	H 	0.2527	0.9757	0.3187	0.29
Mof_H 	H 	0.2859	0.9522	0.3454	0.262
Mof_C 	C 	0.1983	0.8924	0.337	-0.91
Mof_H 	H 	0.1638	0.8774	0.344	0.244
Mof_H 	H 	0.2282	0.8684	0.3427	0.235
Mof_H 	H 	0.1971	0.8952	0.3161	0.25
Mof_C 	C 	0.0376	0.9167	0.44436	0.273
Mof_C 	C 	0.9955	0.8735	0.44115	-0.19
Mof_H 	H 	0.0042	0.8508	0.424	0.086
Mof_C 	C 	0.9368	0.8985	0.43761	0.339
Mof_C 	C 	0.027	0.9537	0.47261	-0.523
Mof_H 	H 	0.0552	0.9816	0.474	0.136
Mof_H 	H 	0.0281	0.9306	0.4897	0.157
Mof_H 	H 	0.9913	0.9711	0.4712	0.172
Mof_C 	C 	0.0407	0.9559	0.41841	-0.567
Mof_H 	H 	0.0691	0.9831	0.4218	0.163
Mof_H 	H 	0.0057	0.9742	0.4159	0.189
Mof_H 	H 	0.0494	0.9352	0.4011	0.158
Mof_C 	C 	0.1337	0.7222	0.5179	0.342
Mof_C 	C 	0.0814	0.7384	0.53099	-0.278
Mof_H 	H 	0.09	0.7701	0.5436	0.089
Mof_C 	C 	0.4401	0.1942	0.69923	0.425
Mof_C 	C 	0.1237	0.6729	0.49823	-0.502
Mof_H 	H 	0.1582	0.6614	0.4897	0.125
Mof_H 	H 	0.0981	0.683	0.4831	0.087
Mof_H 	H 	0.1085	0.6429	0.5094	0.129
Mof_C 	C 	0.1802	0.7136	0.53739	-0.645
Mof_H 	H 	0.2119	0.7018	0.5263	0.181
Mof_H 	H 	0.1709	0.6857	0.5515	0.205
Mof_H 	H 	0.1887	0.7477	0.5473	0.173
Mof_C 	C 	0.1487	0.7124	0.39769	0.314
Mof_C 	C 	0.1507	0.7045	0.3654	-0.192
Mof_H 	H 	0.132	0.7357	0.3559	0.075
Mof_C 	C 	0.1216	0.6509	0.35703	0.308
Mof_C 	C 	0.1659	0.663	0.41355	-0.59
Mof_H 	H 	0.1636	0.6698	0.4341	0.148
Mof_H 	H 	0.2035	0.654	0.4085	0.172
Mof_H 	H 	0.1421	0.6325	0.4085	0.165
Mof_C 	C 	0.0928	0.7304	0.4089	-0.529
Mof_H 	H 	0.0943	0.7342	0.4297	0.12
Mof_H 	H 	0.0654	0.7031	0.4038	0.146
Mof_H 	H 	0.0829	0.7654	0.4003	0.147
Mof_C 	C 	0.3719	0.8104	0.36091	0.255
Mof_C 	C 	0.3781	0.7486	0.35181	-0.242
Mof_H 	H 	0.3897	0.7268	0.3688	0.088
Mof_C 	C 	0.4209	0.7418	0.32747	0.507
Mof_C 	C 	0.3564	0.8482	0.33833	-0.401
Mof_H 	H 	0.3543	0.8851	0.3462	0.08
Mof_H 	H 	0.3208	0.8379	0.3306	0.057
Mof_H 	H 	0.3836	0.8472	0.323	0.039
Mof_C 	C 	0.4306	0.8257	0.3716	-0.489
Mof_H 	H 	0.4418	0.8004	0.3867	0.141
Mof_H 	H 	0.4304	0.8628	0.3792	0.132
Mof_H 	H 	0.4562	0.8234	0.3556	0.129
Mof_O 	O 	0.413	0.0641	0.68713	-0.605
Mof_O 	O 	0.3371	0.084	0.66991	-0.519
Mof_C 	C 	0.3675	0.0605	0.6905	0.859
Mof_C 	C 	0.3505	0.0346	0.715	-1.29
Mof_H 	H 	0.3107	0.0339	0.7155	0.367
Mof_H 	H 	0.3642	0.0542	0.7317	0.37
Mof_H 	H 	0.3645	0.9973	0.7151	0.378
Mof_La	La	0.43444	0.47269	0.4565	1.341
Mof_La	La	0.9931	0.6818	0.46268	0.93
Mof_La	La	0.7148	0.8563	0.49505	1.028
Mof_La	La	0.3338	0.7316	0.25376	-0.199
Mof_La	La	0.3637	0.4394	0.5112	0.325
Mof_La	La	0.6873	0.7767	0.5268	0.531
Mof_O 	O 	0.2878	0.7868	0.2038	-0.386
Mof_Pt	Pt	0.50005	0.7561	0.79475	0.272
Mof_Pt	Pt	0.77542	0.83512	0.76719	0.278
Mof_Pt	Pt	0.56755	0.95333	0.68644	0.27
Mof_Pt	Pt	0.47755	0.68418	0.65192	0.294
Mof_Pt	Pt	0.68611	0.57183	0.73039	0.218
Mof_Pt	Pt	0.74667	0.76155	0.62386	0.255
Mof_Ag	Ag	0.65944	0.7164	0.77011	0.434
Mof_Ag	Ag	0.61054	0.84916	0.74882	0.409
Mof_Ag	Ag	0.49992	0.81057	0.71107	0.432
Mof_Ag	Ag	0.55956	0.673	0.72578	0.402
Mof_Ag	Ag	0.73625	0.72873	0.70742	0.425
Mof_Ag	Ag	0.7117	0.87396	0.68731	0.475
Mof_Ag	Ag	0.59389	0.79838	0.65417	0.419
Mof_Ag	Ag	0.64045	0.6476	0.6542	0.475
Mof_La	La	0.3817	0.91892	0.88721	1.703
Mof_S 	S 	0.5627	0.69619	0.77896	-0.384
Mof_S 	S 	0.51556	0.82466	0.76341	-0.383
Mof_S 	S 	0.69026	0.81193	0.77712	-0.375
Mof_S 	S 	0.77253	0.81985	0.71925	-0.365
Mof_S 	S 	0.63689	0.92083	0.71314	-0.391
Mof_S 	S 	0.53198	0.87316	0.6728	-0.397
Mof_S 	S 	0.481	0.71379	0.69765	-0.405
Mof_S 	S 	0.56216	0.70594	0.63841	-0.452
Mof_S 	S 	0.61926	0.60252	0.70157	-0.36
Mof_S 	S 	0.719	0.65356	0.74384	-0.379
Mof_S 	S 	0.73073	0.69523	0.65653	-0.38
Mof_S 	S 	0.69005	0.82565	0.64076	-0.376
Mof_O 	O 	0.4626	0.6074	0.85296	-0.394
Mof_O 	O 	0.5413	0.5885	0.86434	-0.356
Mof_O 	O 	0.395	0.88273	0.83871	-0.548
Mof_O 	O 	0.3745	0.9354	0.79898	-0.327
Mof_O 	O 	0.7735	0.8691	0.8642	-0.366
Mof_O 	O 	0.729	0.7984	0.87584	-0.313
Mof_O 	O 	0.9546	0.8591	0.74766	-0.429
Mof_O 	O 	0.9502	0.9018	0.70713	-0.604
Mof_O 	O 	0.6274	0.11425	0.72742	-0.455
Mof_O 	O 	0.7109	0.1011	0.72106	-0.373
Mof_O 	O 	0.48033	0.92556	0.87986	-0.493
Mof_O 	O 	0.54534	0.86882	0.89353	-0.327
Mof_O 	O 	0.30152	0.63238	0.68304	-0.323
Mof_O 	O 	0.28915	0.71	0.70517	-0.303
Mof_O 	O 	0.4522	0.6717	0.55482	-0.3
Mof_O 	O 	0.5322	0.6361	0.54348	-0.338
Mof_O 	O 	0.5914	0.4091	0.70685	-0.314
Mof_O 	O 	0.5921	0.425	0.66	-0.276
Mof_O 	O 	0.33004	0.987	0.95807	-0.354
Mof_O 	O 	0.31431	0.91873	0.92742	-0.534
Mof_O 	O 	0.89042	0.6459	0.6031	-0.326
Mof_O 	O 	0.8436	0.5662	0.60647	-0.285
Mof_O 	O 	0.7662	0.8938	0.55273	-0.432
Mof_O 	O 	0.7557	0.9623	0.57806	-0.528
Mof_N 	N 	0.4896	0.7008	0.82713	-0.218
Mof_H 	H 	0.4861	0.7202	0.8438	0.098
Mof_H 	H 	0.4569	0.6837	0.824	0.123
Mof_N 	N 	0.4399	0.8039	0.81052	-0.224
Mof_H 	H 	0.4089	0.7831	0.8123	0.116
Mof_H 	H 	0.4497	0.8151	0.8286	0.104
Mof_N 	N 	0.7882	0.8423	0.81017	-0.231
Mof_H 	H 	0.8221	0.8293	0.8148	0.098
Mof_H 	H 	0.7866	0.8783	0.8154	0.126
Mof_N 	N 	0.847	0.8686	0.75886	-0.233
Mof_H 	H 	0.8468	0.903	0.7666	0.109
Mof_H 	H 	0.8729	0.849	0.7686	0.099
Mof_N 	N 	0.5993	0.0268	0.69701	-0.216
Mof_H 	H 	0.5989	0.0486	0.6811	0.11
Mof_H 	H 	0.5771	0.0427	0.7105	0.09
Mof_N 	N 	0.5041	0.9872	0.66428	-0.212
Mof_H 	H 	0.4921	0.0176	0.6738	0.09
Mof_H 	H 	0.516	0.9978	0.6465	0.071
Mof_N 	N 	0.3971	0.6681	0.66044	-0.231
Mof_H 	H 	0.3769	0.6774	0.6447	0.146
Mof_H 	H 	0.3932	0.6313	0.6632	0.119
Mof_N 	N 	0.4676	0.6564	0.61174	-0.224
Mof_H 	H 	0.4566	0.6207	0.6126	0.097
Mof_H 	H 	0.4402	0.6759	0.6032	0.125
Mof_N 	N 	0.6627	0.4959	0.71799	-0.221
Mof_H 	H 	0.6932	0.4754	0.7145	0.074
Mof_H 	H 	0.6441	0.4797	0.7328	0.096
Mof_N 	N 	0.7407	0.5421	0.75924	-0.171
Mof_H 	H 	0.7247	0.5135	0.7687	0.049
Mof_H 	H 	0.7699	0.5283	0.7493	-0.041
Mof_N 	N 	0.7972	0.70704	0.60626	-0.232
Mof_H 	H 	0.7912	0.7075	0.5869	0.115
Mof_H 	H 	0.8321	0.7193	0.6091	0.099
Mof_N 	N 	0.7639	0.8193	0.5952	-0.207
Mof_H 	H 	0.8005	0.8171	0.5913	0.088
Mof_H 	H 	0.7458	0.8106	0.5786	0.048
Mof_C 	C 	0.545	0.6368	0.80125	0.341
Mof_C 	C 	0.5297	0.6591	0.8321	-0.252
Mof_H 	H 	0.5624	0.6745	0.8418	0.091
Mof_C 	C 	0.5049	0.6145	0.84971	0.461
Mof_C 	C 	0.5053	0.6012	0.78867	-0.691
Mof_H 	H 	0.5182	0.5891	0.7699	0.188
Mof_H 	H 	0.4708	0.6206	0.7865	0.202
Mof_H 	H 	0.4999	0.5695	0.8011	0.212
Mof_C 	C 	0.6042	0.6049	0.8058	-0.549
Mof_H 	H 	0.6306	0.6299	0.8144	0.151
Mof_H 	H 	0.6179	0.5925	0.7872	0.155
Mof_H 	H 	0.5991	0.5735	0.8184	0.179
Mof_C 	C 	0.479	0.8801	0.78118	0.356
Mof_C 	C 	0.4263	0.8536	0.79291	-0.251
Mof_H 	H 	0.4008	0.8443	0.777	0.089
Mof_C 	C 	0.3987	0.8894	0.81495	0.412
Mof_C 	C 	0.5152	0.9028	0.80469	-0.626
Mof_H 	H 	0.5205	0.8751	0.8195	0.195
Mof_H 	H 	0.498	0.9349	0.8131	0.182
Mof_H 	H 	0.5505	0.913	0.7966	0.165
Mof_C 	C 	0.4676	0.9206	0.75741	-0.625
Mof_H 	H 	0.4441	0.9037	0.743	0.171
Mof_H 	H 	0.5019	0.9316	0.7485	0.168
Mof_H 	H 	0.4494	0.9526	0.7654	0.186
Mof_C 	C 	0.6883	0.8292	0.8157	0.283
Mof_C 	C 	0.7459	0.8109	0.82557	-0.187
Mof_H 	H 	0.7513	0.7708	0.8238	0.067
Mof_C 	C 	0.7498	0.832	0.85919	0.405
Mof_C 	C 	0.6748	0.8921	0.81687	-0.541
Mof_H 	H 	0.6371	0.898	0.8109	0.145
Mof_H 	H 	0.6993	0.9118	0.804	0.16
Mof_H 	H 	0.6797	0.9054	0.8364	0.165
Mof_C 	C 	0.6399	0.7976	0.82879	-0.579
Mof_H 	H 	0.6057	0.8123	0.8213	0.169
Mof_H 	H 	0.6405	0.8015	0.8496	0.194
Mof_H 	H 	0.6429	0.7591	0.8237	0.161
Mof_C 	C 	0.8439	0.8271	0.71307	0.142
Mof_C 	C 	0.8652	0.8737	0.72932	-0.164
Mof_H 	H 	0.8477	0.907	0.7213	0.056
Mof_C 	C 	0.9279	0.8839	0.72911	0.4
Mof_C 	C 	0.8739	0.7766	0.7221	-0.426
Mof_H 	H 	0.8612	0.7456	0.7107	0.103
Mof_H 	H 	0.8672	0.7695	0.7424	0.124
Mof_H 	H 	0.913	0.7817	0.719	0.123
Mof_C 	C 	0.6566	0.9821	0.73106	0.321
Mof_C 	C 	0.6521	0.0254	0.7077	-0.219
Mof_H 	H 	0.6778	0.0163	0.6919	0.091
Mof_C 	C 	0.6641	0.0842	0.7184	0.394
Mof_C 	C 	0.6199	0.9952	0.75498	-0.582
Mof_H 	H 	0.6218	0.9663	0.7694	0.149
Mof_H 	H 	0.5825	0.9982	0.7479	0.159
Mof_H 	H 	0.6308	0.0298	0.7636	0.149
Mof_C 	C 	0.717	0.9703	0.74246	-0.567
Mof_H 	H 	0.7406	0.9613	0.7263	0.161
Mof_H 	H 	0.7161	0.9397	0.7558	0.163
Mof_H 	H 	0.731	0.0026	0.7522	0.171
Mof_C 	C 	0.4763	0.893	0.6487	0.394
Mof_C 	C 	0.4574	0.9477	0.66091	-0.258
Mof_H 	H 	0.4412	0.9411	0.6802	0.087
Mof_C 	C 	0.5227	0.9151	0.89248	0.423
Mof_C 	C 	0.4981	0.9019	0.6182	-0.642
Mof_H 	H 	0.5266	0.9297	0.6185	0.181
Mof_H 	H 	0.4684	0.914	0.6058	0.189
Mof_H 	H 	0.5131	0.8678	0.6109	0.167
Mof_C 	C 	0.4339	0.8503	0.65016	-0.73
Mof_H 	H 	0.4482	0.8165	0.642	0.212
Mof_H 	H 	0.402	0.8619	0.6393	0.241
Mof_H 	H 	0.4236	0.8442	0.6701	0.206
Mof_C 	C 	0.415	0.6872	0.7112	0.474
Mof_C 	C 	0.3751	0.6964	0.6852	-0.239
Mof_H 	H 	0.3733	0.7361	0.6809	0.101
Mof_C 	C 	0.3161	0.6749	0.69138	0.374
Mof_C 	C 	0.4213	0.6314	0.71756	-0.831
Mof_H 	H 	0.4312	0.6116	0.7001	0.248
Mof_H 	H 	0.387	0.6169	0.7251	0.242
Mof_H 	H 	0.45	0.6268	0.7319	0.224
Mof_C 	C 	0.3992	0.7221	0.73641	-0.773
Mof_H 	H 	0.3961	0.7601	0.7303	0.222
Mof_H 	H 	0.4271	0.7191	0.7513	0.224
Mof_H 	H 	0.3642	0.7098	0.744	0.249
Mof_C 	C 	0.5544	0.7066	0.59915	0.631
Mof_C 	C 	0.5196	0.6598	0.5924	-0.327
Mof_H 	H 	0.5417	0.6268	0.5971	0.096
Mof_C 	C 	0.5006	0.6519	0.56118	0.347
Mof_C 	C 	0.5272	0.7536	0.5896	-0.995
Mof_H 	H 	0.4908	0.7549	0.598	0.303
Mof_H 	H 	0.5243	0.7527	0.5687	0.29
Mof_H 	H 	0.5478	0.7859	0.5954	0.262
Mof_C 	C 	0.6076	0.6983	0.587	-0.909
Mof_H 	H 	0.6226	0.6638	0.594	0.244
Mof_H 	H 	0.6316	0.7282	0.5927	0.235
Mof_H 	H 	0.6048	0.6971	0.5661	0.25
Mof_C 	C 	0.5833	0.5376	0.69436	0.274
Mof_C 	C 	0.6265	0.4955	0.69115	-0.192
Mof_H 	H 	0.6492	0.5042	0.674	0.088
Mof_C 	C 	0.6015	0.4368	0.68761	0.34
Mof_C 	C 	0.5463	0.527	0.72261	-0.52
Mof_H 	H 	0.5184	0.5552	0.724	0.136
Mof_H 	H 	0.5694	0.5281	0.7397	0.157
Mof_H 	H 	0.5289	0.4913	0.7212	0.17
Mof_C 	C 	0.5441	0.5407	0.66841	-0.568
Mof_H 	H 	0.5169	0.5691	0.6718	0.164
Mof_H 	H 	0.5258	0.5057	0.6659	0.19
Mof_H 	H 	0.5648	0.5494	0.6511	0.158
Mof_C 	C 	0.7778	0.6337	0.7679	0.342
Mof_C 	C 	0.7616	0.5814	0.78099	-0.278
Mof_H 	H 	0.7299	0.59	0.7936	0.089
Mof_C 	C 	0.3058	0.9401	0.94923	0.424
Mof_C 	C 	0.8271	0.6237	0.74823	-0.503
Mof_H 	H 	0.8386	0.6582	0.7397	0.125
Mof_H 	H 	0.817	0.5981	0.7331	0.087
Mof_H 	H 	0.8571	0.6085	0.7594	0.13
Mof_C 	C 	0.7864	0.6802	0.78739	-0.645
Mof_H 	H 	0.7982	0.7119	0.7763	0.181
Mof_H 	H 	0.8143	0.6709	0.8015	0.205
Mof_H 	H 	0.7523	0.6887	0.7973	0.173
Mof_C 	C 	0.7876	0.6487	0.64769	0.314
Mof_C 	C 	0.7955	0.6507	0.6154	-0.192
Mof_H 	H 	0.7643	0.632	0.6059	0.075
Mof_C 	C 	0.8491	0.6216	0.60703	0.308
Mof_C 	C 	0.837	0.6659	0.66355	-0.59
Mof_H 	H 	0.8302	0.6636	0.6841	0.148
Mof_H 	H 	0.846	0.7035	0.6585	0.173
Mof_H 	H 	0.8675	0.6421	0.6585	0.165
Mof_C 	C 	0.7696	0.5928	0.6589	-0.53
Mof_H 	H 	0.7658	0.5943	0.6797	0.12
Mof_H 	H 	0.7969	0.5654	0.6538	0.146
Mof_H 	H 	0.7346	0.5829	0.6503	0.147
Mof_C 	C 	0.6896	0.8719	0.61091	0.255
Mof_C 	C 	0.7514	0.8781	0.60181	-0.242
Mof_H 	H 	0.7732	0.8897	0.6188	0.088
Mof_C 	C 	0.7582	0.9209	0.57747	0.507
Mof_C 	C 	0.6518	0.8564	0.58833	-0.401
Mof_H 	H 	0.6149	0.8543	0.5962	0.08
Mof_H 	H 	0.6621	0.8208	0.5806	0.057
Mof_H 	H 	0.6528	0.8836	0.573	0.039
Mof_C 	C 	0.6743	0.9306	0.6216	-0.489
Mof_H 	H 	0.6996	0.9418	0.6367	0.141
Mof_H 	H 	0.6372	0.9304	0.6292	0.132
Mof_H 	H 	0.6766	0.9562	0.6056	0.129
Mof_O 	O 	0.4359	0.913	0.93713	-0.606
Mof_O 	O 	0.416	0.8371	0.91991	-0.519
Mof_C 	C 	0.4395	0.8675	0.9405	0.86
Mof_C 	C 	0.4654	0.8505	0.965	-1.293
Mof_H 	H 	0.4661	0.8107	0.9655	0.368
Mof_H 	H 	0.4458	0.8642	0.9817	0.371
Mof_H 	H 	0.5027	0.8645	0.9651	0.379
Mof_La	La	0.02731	0.93444	0.7065	1.338
Mof_La	La	0.8182	0.4931	0.71268	0.929
Mof_La	La	0.6437	0.2148	0.74505	1.028
Mof_La	La	0.7684	0.8338	0.50376	-0.199
Mof_La	La	0.0606	0.8637	0.7612	0.325
Mof_La	La	0.7233	0.1873	0.7768	0.531
Mof_O 	O 	0.7132	0.7878	0.4538	-0.386
Mof_Pt	Pt	0.49995	0.2439	0.29475	0.272
Mof_Pt	Pt	0.22458	0.16488	0.26719	0.278
Mof_Pt	Pt	0.43245	0.04667	0.18644	0.269
Mof_Pt	Pt	0.52245	0.31582	0.15192	0.294
Mof_Pt	Pt	0.31389	0.42817	0.23039	0.218
Mof_Pt	Pt	0.25333	0.23845	0.12386	0.255
Mof_Ag	Ag	0.34056	0.2836	0.27011	0.434
Mof_Ag	Ag	0.38946	0.15084	0.24883	0.409
Mof_Ag	Ag	0.50008	0.18943	0.21108	0.432
Mof_Ag	Ag	0.44044	0.327	0.22578	0.402
Mof_Ag	Ag	0.26375	0.27127	0.20742	0.425
Mof_Ag	Ag	0.2883	0.12604	0.18731	0.475
Mof_Ag	Ag	0.40611	0.20162	0.15417	0.419
Mof_Ag	Ag	0.35955	0.3524	0.1542	0.475
Mof_La	La	0.6183	0.08108	0.38721	1.703
Mof_S 	S 	0.4373	0.30381	0.27896	-0.384
Mof_S 	S 	0.48444	0.17534	0.26341	-0.383
Mof_S 	S 	0.30974	0.18807	0.27712	-0.375
Mof_S 	S 	0.22747	0.18015	0.21925	-0.365
Mof_S 	S 	0.36311	0.07917	0.21314	-0.391
Mof_S 	S 	0.46802	0.12684	0.1728	-0.397
Mof_S 	S 	0.519	0.28621	0.19765	-0.405
Mof_S 	S 	0.43784	0.29406	0.13841	-0.452
Mof_S 	S 	0.38074	0.39748	0.20157	-0.36
Mof_S 	S 	0.281	0.34644	0.24384	-0.379
Mof_S 	S 	0.26927	0.30477	0.15653	-0.38
Mof_S 	S 	0.30995	0.17435	0.14076	-0.376
Mof_O 	O 	0.5374	0.3926	0.35296	-0.394
Mof_O 	O 	0.4587	0.4115	0.36434	-0.356
Mof_O 	O 	0.605	0.11727	0.33871	-0.548
Mof_O 	O 	0.6255	0.0646	0.29898	-0.327
Mof_O 	O 	0.2265	0.1309	0.3642	-0.366
Mof_O 	O 	0.271	0.2016	0.37584	-0.313
Mof_O 	O 	0.0454	0.1409	0.24766	-0.429
Mof_O 	O 	0.0498	0.0982	0.20713	-0.604
Mof_O 	O 	0.3726	0.88575	0.22742	-0.455
Mof_O 	O 	0.2891	0.8989	0.22106	-0.373
Mof_O 	O 	0.51967	0.07444	0.37986	-0.493
Mof_O 	O 	0.45466	0.13118	0.39353	-0.327
Mof_O 	O 	0.69848	0.36762	0.18304	-0.323
Mof_O 	O 	0.71085	0.29	0.20517	-0.303
Mof_O 	O 	0.5478	0.3283	0.05482	-0.3
Mof_O 	O 	0.4678	0.3639	0.04348	-0.338
Mof_O 	O 	0.4086	0.5909	0.20685	-0.314
Mof_O 	O 	0.4079	0.575	0.16	-0.276
Mof_O 	O 	0.66996	0.013	0.45807	-0.354
Mof_O 	O 	0.68569	0.08127	0.42742	-0.534
Mof_O 	O 	0.10958	0.3541	0.1031	-0.325
Mof_O 	O 	0.1564	0.4338	0.10647	-0.285
Mof_O 	O 	0.2338	0.1062	0.05273	-0.431
Mof_O 	O 	0.2443	0.0377	0.07806	-0.528
Mof_N 	N 	0.5104	0.2992	0.32713	-0.218
Mof_H 	H 	0.5139	0.2798	0.3438	0.098
Mof_H 	H 	0.5431	0.3163	0.324	0.123
Mof_N 	N 	0.5601	0.1961	0.31052	-0.224
Mof_H 	H 	0.5911	0.2169	0.3123	0.116
Mof_H 	H 	0.5503	0.1849	0.3286	0.104
Mof_N 	N 	0.2118	0.1577	0.31017	-0.231
Mof_H 	H 	0.1779	0.1707	0.3148	0.098
Mof_H 	H 	0.2134	0.1217	0.3154	0.126
Mof_N 	N 	0.153	0.1314	0.25886	-0.233
Mof_H 	H 	0.1532	0.097	0.2666	0.109
Mof_H 	H 	0.1271	0.151	0.2686	0.099
Mof_N 	N 	0.4007	0.9732	0.19701	-0.216
Mof_H 	H 	0.4011	0.9514	0.1811	0.11
Mof_H 	H 	0.4229	0.9573	0.2105	0.09
Mof_N 	N 	0.4959	0.0128	0.16428	-0.212
Mof_H 	H 	0.5079	0.9824	0.1738	0.09
Mof_H 	H 	0.484	0.0022	0.1465	0.071
Mof_N 	N 	0.6029	0.3319	0.16044	-0.231
Mof_H 	H 	0.6231	0.3226	0.1447	0.146
Mof_H 	H 	0.6068	0.3687	0.1632	0.119
Mof_N 	N 	0.5324	0.3436	0.11174	-0.224
Mof_H 	H 	0.5434	0.3793	0.1126	0.097
Mof_H 	H 	0.5598	0.3241	0.1032	0.125
Mof_N 	N 	0.3373	0.5041	0.21799	-0.221
Mof_H 	H 	0.3068	0.5246	0.2145	0.074
Mof_H 	H 	0.3559	0.5203	0.2328	0.096
Mof_N 	N 	0.2593	0.4579	0.25924	-0.171
Mof_H 	H 	0.2753	0.4865	0.2687	0.049
Mof_H 	H 	0.2301	0.4717	0.2493	-0.041
Mof_N 	N 	0.2028	0.29296	0.10626	-0.232
Mof_H 	H 	0.2088	0.2925	0.0869	0.115
Mof_H 	H 	0.1679	0.2807	0.1091	0.099
Mof_N 	N 	0.2361	0.1807	0.0952	-0.207
Mof_H 	H 	0.1995	0.1829	0.0913	0.088
Mof_H 	H 	0.2542	0.1894	0.0786	0.048
Mof_C 	C 	0.455	0.3632	0.30125	0.341
Mof_C 	C 	0.4703	0.3409	0.3321	-0.252
Mof_H 	H 	0.4376	0.3255	0.3418	0.091
Mof_C 	C 	0.4951	0.3855	0.34971	0.461
Mof_C 	C 	0.4947	0.3988	0.28867	-0.691
Mof_H 	H 	0.4818	0.4109	0.2699	0.188
Mof_H 	H 	0.5292	0.3794	0.2865	0.202
Mof_H 	H 	0.5001	0.4305	0.3011	0.212
Mof_C 	C 	0.3958	0.3951	0.3058	-0.549
Mof_H 	H 	0.3694	0.3701	0.3144	0.151
Mof_H 	H 	0.3821	0.4075	0.2872	0.155
Mof_H 	H 	0.4009	0.4265	0.3184	0.179
Mof_C 	C 	0.521	0.1199	0.28118	0.356
Mof_C 	C 	0.5737	0.1464	0.29291	-0.251
Mof_H 	H 	0.5992	0.1557	0.277	0.089
Mof_C 	C 	0.6013	0.1106	0.31495	0.412
Mof_C 	C 	0.4848	0.0972	0.30469	-0.626
Mof_H 	H 	0.4795	0.1249	0.3195	0.195
Mof_H 	H 	0.502	0.0651	0.3131	0.182
Mof_H 	H 	0.4495	0.087	0.2966	0.165
Mof_C 	C 	0.5324	0.0794	0.25741	-0.625
Mof_H 	H 	0.5559	0.0963	0.243	0.171
Mof_H 	H 	0.4981	0.0684	0.2485	0.168
Mof_H 	H 	0.5506	0.0474	0.2654	0.186
Mof_C 	C 	0.3117	0.1708	0.3157	0.283
Mof_C 	C 	0.2541	0.1891	0.32557	-0.187
Mof_H 	H 	0.2487	0.2292	0.3238	0.067
Mof_C 	C 	0.2502	0.168	0.35919	0.405
Mof_C 	C 	0.3252	0.1079	0.31687	-0.541
Mof_H 	H 	0.3629	0.102	0.3109	0.145
Mof_H 	H 	0.3007	0.0882	0.304	0.16
Mof_H 	H 	0.3203	0.0946	0.3364	0.165
Mof_C 	C 	0.3601	0.2024	0.32879	-0.579
Mof_H 	H 	0.3943	0.1877	0.3213	0.169
Mof_H 	H 	0.3595	0.1985	0.3496	0.194
Mof_H 	H 	0.3571	0.2409	0.3237	0.161
Mof_C 	C 	0.1561	0.1729	0.21307	0.142
Mof_C 	C 	0.1348	0.1263	0.22932	-0.164
Mof_H 	H 	0.1523	0.093	0.2213	0.056
Mof_C 	C 	0.0721	0.1161	0.22911	0.4
Mof_C 	C 	0.1261	0.2234	0.2221	-0.426
Mof_H 	H 	0.1388	0.2544	0.2107	0.103
Mof_H 	H 	0.1328	0.2305	0.2424	0.124
Mof_H 	H 	0.087	0.2183	0.219	0.123
Mof_C 	C 	0.3434	0.0179	0.23106	0.321
Mof_C 	C 	0.3479	0.9746	0.2077	-0.219
Mof_H 	H 	0.3222	0.9837	0.1919	0.091
Mof_C 	C 	0.3359	0.9158	0.2184	0.394
Mof_C 	C 	0.3801	0.0048	0.25498	-0.582
Mof_H 	H 	0.3782	0.0337	0.2694	0.149
Mof_H 	H 	0.4175	0.0018	0.2479	0.159
Mof_H 	H 	0.3692	0.9702	0.2636	0.149
Mof_C 	C 	0.283	0.0297	0.24246	-0.567
Mof_H 	H 	0.2594	0.0387	0.2263	0.161
Mof_H 	H 	0.2839	0.0603	0.2558	0.163
Mof_H 	H 	0.269	0.9974	0.2522	0.171
Mof_C 	C 	0.5237	0.107	0.1487	0.394
Mof_C 	C 	0.5426	0.0523	0.16091	-0.258
Mof_H 	H 	0.5588	0.0589	0.1802	0.087
Mof_C 	C 	0.4773	0.0849	0.39248	0.423
Mof_C 	C 	0.5019	0.0981	0.1182	-0.642
Mof_H 	H 	0.4734	0.0703	0.1185	0.181
Mof_H 	H 	0.5316	0.086	0.1058	0.189
Mof_H 	H 	0.4869	0.1322	0.1109	0.167
Mof_C 	C 	0.5661	0.1497	0.15016	-0.73
Mof_H 	H 	0.5518	0.1835	0.142	0.212
Mof_H 	H 	0.598	0.1381	0.1393	0.241
Mof_H 	H 	0.5764	0.1558	0.1701	0.206
Mof_C 	C 	0.585	0.3128	0.2112	0.474
Mof_C 	C 	0.6249	0.3036	0.1852	-0.239
Mof_H 	H 	0.6267	0.2639	0.1809	0.101
Mof_C 	C 	0.6839	0.3251	0.19138	0.374
Mof_C 	C 	0.5787	0.3686	0.21756	-0.831
Mof_H 	H 	0.5688	0.3884	0.2001	0.248
Mof_H 	H 	0.613	0.3831	0.2251	0.242
Mof_H 	H 	0.55	0.3732	0.2319	0.224
Mof_C 	C 	0.6008	0.2779	0.23641	-0.773
Mof_H 	H 	0.6039	0.2399	0.2303	0.222
Mof_H 	H 	0.5729	0.2809	0.2513	0.224
Mof_H 	H 	0.6358	0.2902	0.244	0.249
Mof_C 	C 	0.4456	0.2934	0.09915	0.631
Mof_C 	C 	0.4804	0.3402	0.0924	-0.327
Mof_H 	H 	0.4583	0.3732	0.0971	0.096
Mof_C 	C 	0.4994	0.3481	0.06118	0.347
Mof_C 	C 	0.4728	0.2464	0.0896	-0.995
Mof_H 	H 	0.5092	0.2451	0.098	0.303
Mof_H 	H 	0.4757	0.2473	0.0687	0.29
Mof_H 	H 	0.4522	0.2141	0.0954	0.262
Mof_C 	C 	0.3924	0.3017	0.087	-0.909
Mof_H 	H 	0.3774	0.3362	0.094	0.244
Mof_H 	H 	0.3684	0.2718	0.0927	0.235
Mof_H 	H 	0.3952	0.3029	0.0661	0.25
Mof_C 	C 	0.4167	0.4624	0.19436	0.274
Mof_C 	C 	0.3735	0.5045	0.19115	-0.192
Mof_H 	H 	0.3508	0.4958	0.174	0.088
Mof_C 	C 	0.3985	0.5632	0.18761	0.34
Mof_C 	C 	0.4537	0.473	0.22261	-0.52
Mof_H 	H 	0.4816	0.4448	0.224	0.136
Mof_H 	H 	0.4306	0.4719	0.2397	0.157
Mof_H 	H 	0.4711	0.5087	0.2212	0.17
Mof_C 	C 	0.4559	0.4593	0.16841	-0.568
Mof_H 	H 	0.4831	0.4309	0.1718	0.164
Mof_H 	H 	0.4742	0.4943	0.1659	0.19
Mof_H 	H 	0.4352	0.4506	0.1511	0.158
Mof_C 	C 	0.2222	0.3663	0.2679	0.342
Mof_C 	C 	0.2384	0.4186	0.28099	-0.278
Mof_H 	H 	0.2701	0.41	0.2936	0.089
Mof_C 	C 	0.6942	0.0599	0.44923	0.425
Mof_C 	C 	0.1729	0.3763	0.24823	-0.503
Mof_H 	H 	0.1614	0.3418	0.2397	0.125
Mof_H 	H 	0.183	0.4019	0.2331	0.087
Mof_H 	H 	0.1429	0.3915	0.2594	0.13
Mof_C 	C 	0.2136	0.3198	0.28739	-0.645
Mof_H 	H 	0.2018	0.2881	0.2763	0.181
Mof_H 	H 	0.1857	0.3291	0.3015	0.205
Mof_H 	H 	0.2477	0.3113	0.2973	0.173
Mof_C 	C 	0.2124	0.3513	0.14769	0.314
Mof_C 	C 	0.2045	0.3493	0.1154	-0.192
Mof_H 	H 	0.2357	0.368	0.1059	0.075
Mof_C 	C 	0.1509	0.3784	0.10703	0.308
Mof_C 	C 	0.163	0.3341	0.16355	-0.59
Mof_H 	H 	0.1698	0.3364	0.1841	0.148
Mof_H 	H 	0.154	0.2965	0.1585	0.173
Mof_H 	H 	0.1325	0.3579	0.1585	0.165
Mof_C 	C 	0.2304	0.4072	0.1589	-0.53
Mof_H 	H 	0.2342	0.4057	0.1797	0.12
Mof_H 	H 	0.2031	0.4346	0.1538	0.146
Mof_H 	H 	0.2654	0.4171	0.1503	0.147
Mof_C 	C 	0.3104	0.1281	0.11091	0.255
Mof_C 	C 	0.2486	0.1219	0.10181	-0.242
Mof_H 	H 	0.2268	0.1103	0.1188	0.088
Mof_C 	C 	0.2418	0.0791	0.07747	0.507
Mof_C 	C 	0.3482	0.1436	0.08833	-0.401
Mof_H 	H 	0.3851	0.1457	0.0962	0.08
Mof_H 	H 	0.3379	0.1792	0.0806	0.057
Mof_H 	H 	0.3472	0.1164	0.073	0.039
Mof_C 	C 	0.3257	0.0694	0.1216	-0.489
Mof_H 	H 	0.3004	0.0582	0.1367	0.141
Mof_H 	H 	0.3628	0.0696	0.1292	0.132
Mof_H 	H 	0.3234	0.0438	0.1056	0.129
Mof_O 	O 	0.5641	0.087	0.43713	-0.606
Mof_O 	O 	0.584	0.1629	0.41991	-0.519
Mof_C 	C 	0.5605	0.1325	0.4405	0.86
Mof_C 	C 	0.5346	0.1495	0.465	-1.293
Mof_H 	H 	0.5339	0.1893	0.4655	0.368
Mof_H 	H 	0.5542	0.1358	0.4817	0.371
Mof_H 	H 	0.4973	0.1355	0.4651	0.379
Mof_La	La	0.97269	0.06556	0.2065	1.338
Mof_La	La	0.1818	0.5069	0.21268	0.929
Mof_La	La	0.3563	0.7852	0.24505	1.028
Mof_La	La	0.2316	0.1662	0.00376	-0.207
Mof_La	La	0.9394	0.1363	0.2612	0.325
Mof_La	La	0.2767	0.8127	0.2768	0.531
Mof_O 	O 	0.2868	0.2122	0.9538	-0.387
Mof_O 	O 	0.9594	0.0406	0.25	-0.777
Mof_O 	O 	0.0406	0.9594	0.75	-0.777
Mof_O 	O 	0.4594	0.4594	0.5	-0.777
Mof_O 	O 	0.5406	0.5406	-0	-0.777
_end
