data_functionalizedCrystal
_audit_creation_method	'EQeq! by Chris Wilmer'
_symmetry_space_group_name_H-M	'P1'
_symmetry_Int_Tables_number	1
_symmetry_cell_setting	triclinic
loop_
_symmetry_equiv_pos_as_xyz
  x,y,z
_cell_length_a	7.1364
_cell_length_b	11.4297
_cell_length_c	11.7485
_cell_angle_alpha	62.658
_cell_angle_beta	75.568
_cell_angle_gamma	88.56
loop_
_atom_site_label
_atom_site_type_symbol
_atom_site_fract_x
_atom_site_fract_y
_atom_site_fract_z
_atom_site_charge
Mof_K 	K 	0.7671	0.923	0.0032	2.851
Mof_K 	K 	0.2329	0.077	0.9968	2.851
Mof_Cu	Cu	0.87997	0.7193	0.35633	0.835
Mof_Cu	Cu	0.12003	0.2807	0.64367	0.835
Mof_H 	H 	0.3074	0.5862	0.9311	0.05
Mof_H 	H 	0.5285	0.4311	0.8128	0.214
Mof_H 	H 	0.4346	0.9015	0.3038	0.087
Mof_H 	H 	0.017	0.6486	0.6926	0.086
Mof_H 	H 	0.983	0.3514	0.3074	0.086
Mof_H 	H 	0.6038	0.2025	0.542	0.175
Mof_H 	H 	0.3962	0.7975	0.458	0.175
Mof_H 	H 	0.774	0.1815	0.6141	0.099
Mof_H 	H 	0.6317	0.4958	0.2623	0.229
Mof_H 	H 	0.4715	0.5689	0.1872	0.214
Mof_H 	H 	0.226	0.8185	0.3859	0.099
Mof_H 	H 	0.4719	0.4117	0.2476	0.254
Mof_H 	H 	0.6926	0.4138	0.0689	0.05
Mof_H 	H 	0.5281	0.5883	0.7524	0.254
Mof_H 	H 	0.5654	0.0985	0.6962	0.087
Mof_H 	H 	0.3683	0.5042	0.7377	0.229
Mof_C 	C 	0.8043	0.3127	0.9663	-0.258
Mof_C 	C 	0.6367	0.5298	0.6104	0.421
Mof_C 	C 	0.8462	0.548	0.8822	0.203
Mof_C 	C 	0.0388	0.4367	0.2378	-0.157
Mof_C 	C 	0.3666	0.8159	0.3746	-0.579
Mof_C 	C 	0.9177	0.3216	0.8457	0.175
Mof_C 	C 	0.0066	0.5477	0.255	-0.009
Mof_C 	C 	0.9612	0.5633	0.7622	-0.157
Mof_C 	C 	0.1538	0.452	0.1178	0.203
Mof_C 	C 	0.7689	0.4235	0.9857	-0.033
Mof_C 	C 	0.6334	0.1841	0.6254	-0.579
Mof_C 	C 	0.6726	0.4248	0.5787	-0.267
Mof_C 	C 	0.0823	0.6784	0.1543	0.175
Mof_C 	C 	0.5039	0.5118	0.7395	-0.705
Mof_C 	C 	0.3274	0.5752	0.4213	-0.267
Mof_C 	C 	0.9934	0.4523	0.745	-0.009
Mof_C 	C 	0.1957	0.6873	0.0337	-0.258
Mof_C 	C 	0.4316	0.7098	0.3385	0.404
Mof_C 	C 	0.2311	0.5765	0.0143	-0.033
Mof_C 	C 	0.5684	0.2902	0.6615	0.404
Mof_C 	C 	0.4961	0.4882	0.2605	-0.705
Mof_C 	C 	0.3633	0.4702	0.3896	0.421
Mof_S 	S 	0.6981	0.15613	0.1001	0.765
Mof_S 	S 	0.3019	0.84387	0.8999	0.765
Mof_N 	N 	0.2007	0.5654	0.5349	-0.06
Mof_N 	N 	0.8887	0.5464	0.3718	-0.2
Mof_N 	N 	0.1113	0.4536	0.6282	-0.2
Mof_N 	N 	0.7993	0.4346	0.4651	-0.06
Mof_Cl	Cl	0.213	0.31359	0.09614	-0.596
Mof_Cl	Cl	0.787	0.68641	0.90386	-0.596
Mof_O 	O 	0.4434	0.8916	0.9414	-0.885
Mof_O 	O 	0.3836	0.8227	0.7863	-0.359
Mof_O 	O 	0.9548	0.2213	0.8209	-0.706
Mof_O 	O 	0.2853	0.3516	0.4668	-0.464
Mof_O 	O 	0.7147	0.6484	0.5332	-0.464
Mof_O 	O 	0.4239	0.2672	0.7543	-0.689
Mof_O 	O 	0.142	0.9277	0.8815	-0.881
Mof_O 	O 	0.5761	0.7328	0.2457	-0.689
Mof_O 	O 	0.858	0.0723	0.1185	-0.881
Mof_O 	O 	0.5566	0.1084	0.0586	-0.885
Mof_O 	O 	0.6164	0.1773	0.2137	-0.359
Mof_O 	O 	0.0452	0.7787	0.1791	-0.706
_end
