# CIF file generated by openbabel 3.1.0, see https://openbabel.org
data_I
_chemical_name_common 'image0'
_cell_length_a 8.311
_cell_length_b 21.674
_cell_length_c 13.501
_cell_angle_alpha 90
_cell_angle_beta 103.323
_cell_angle_gamma 90
_space_group_name_H-M_alt 'P 1'
_space_group_name_Hall 'P 1'
loop_
    _symmetry_equiv_pos_as_xyz
    x,y,z
loop_
    _atom_site_label
    _atom_site_type_symbol
    _atom_site_fract_x
    _atom_site_fract_y
    _atom_site_fract_z
    _atom_site_occupancy
    N1       N        0.85750    0.04740    0.60190    1.000
    N2       N        0.77880    0.11500    0.70390    1.000
    N3       N        0.73920    0.33010    0.92720    1.000
    N4       N        0.64430    0.41290    0.98950    1.000
    N5       N        0.80350    0.02980    0.35790    1.000
    N6       N        0.63950    0.03080    0.20430    1.000
    C1       C        0.87380    0.10360    0.63750    1.000
    H1       H        0.94370    0.13280    0.61900    1.000
    C2       C        0.74220    0.01970    0.64850    1.000
    H2       H        0.70570    0.97910    0.63860    1.000
    C3       C        0.69200    0.06070    0.71000    1.000
    H3       H        0.61470    0.05400    0.74890    1.000
    C4       C        0.76820    0.17070    0.75830    1.000
    C5       C        0.90600    0.20610    0.79380    1.000
    H4       H        0.00730    0.19400    0.78210    1.000
    C6       C        0.89520    0.25920    0.84650    1.000
    H5       H        0.98810    0.28380    0.86900    1.000
    C7       C        0.74470    0.27610    0.86610    1.000
    C8       C        0.60560    0.24200    0.82920    1.000
    H6       H        0.50420    0.25420    0.84070    1.000
    C9       C        0.61830    0.18920    0.77460    1.000
    H7       H        0.52430    0.16580    0.74840    1.000
    C10      C        0.61150    0.36910    0.92150    1.000
    H8       H        0.51110    0.36530    0.87430    1.000
    C11      C        0.86280    0.35060    0.00550    1.000
    H9       H        0.96710    0.33330    0.02840    1.000
    C12      C        0.80260    0.40100    0.04260    1.000
    H10      H        0.86060    0.42450    0.09680    1.000
    C13      C        0.77440    0.00600    0.26520    1.000
    H11      H        0.83940    0.97580    0.24490    1.000
    C14      C        0.68440    0.07350    0.35420    1.000
    H12      H        0.67530    0.09890    0.40820    1.000
    C15      C        0.58220    0.07450    0.26140    1.000
    H13      H        0.49050    0.09990    0.24000    1.000
    C16      C        0.56910    0.01460    0.09950    1.000
    C17      C        0.48210    0.05860    0.03580    1.000
    H14      H        0.46910    0.09800    0.06000    1.000
    C18      C        0.58630    0.95640    0.06530    1.000
    H15      H        0.64360    0.92680    0.10950    1.000
    N7       N        0.64250    0.54740    0.89810    1.000
    N8       N        0.72120    0.61500    0.79610    1.000
    N9       N        0.76080    0.83010    0.57280    1.000
    N10      N        0.85570    0.91290    0.51050    1.000
    N11      N        0.69650    0.52980    0.14210    1.000
    N12      N        0.86050    0.53080    0.29570    1.000
    C19      C        0.62620    0.60360    0.86250    1.000
    H16      H        0.55630    0.63280    0.88100    1.000
    C20      C        0.75780    0.51970    0.85150    1.000
    H17      H        0.79430    0.47910    0.86140    1.000
    C21      C        0.80800    0.56070    0.79000    1.000
    H18      H        0.88530    0.55400    0.75110    1.000
    C22      C        0.73180    0.67070    0.74170    1.000
    C23      C        0.59400    0.70610    0.70620    1.000
    H19      H        0.49270    0.69400    0.71790    1.000
    C24      C        0.60480    0.75920    0.65350    1.000
    H20      H        0.51190    0.78380    0.63100    1.000
    C25      C        0.75530    0.77610    0.63390    1.000
    C26      C        0.89440    0.74200    0.67080    1.000
    H21      H        0.99580    0.75420    0.65930    1.000
    C27      C        0.88170    0.68920    0.72540    1.000
    H22      H        0.97570    0.66580    0.75160    1.000
    C28      C        0.88850    0.86910    0.57850    1.000
    H23      H        0.98890    0.86530    0.62570    1.000
    C29      C        0.63720    0.85060    0.49450    1.000
    H24      H        0.53290    0.83330    0.47160    1.000
    C30      C        0.69740    0.90100    0.45740    1.000
    H25      H        0.63940    0.92450    0.40320    1.000
    C31      C        0.72560    0.50600    0.23480    1.000
    H26      H        0.66060    0.47580    0.25510    1.000
    C32      C        0.81560    0.57350    0.14580    1.000
    H27      H        0.82470    0.59890    0.09180    1.000
    C33      C        0.91780    0.57450    0.23860    1.000
    H28      H        0.00950    0.59990    0.26000    1.000
    C34      C        0.93090    0.51460    0.40050    1.000
    C35      C        0.01790    0.55860    0.46420    1.000
    H29      H        0.03090    0.59800    0.44000    1.000
    C36      C        0.91370    0.45640    0.43470    1.000
    H30      H        0.85640    0.42680    0.39050    1.000
    N13      N        0.14250    0.95260    0.39810    1.000
    N14      N        0.22120    0.88500    0.29610    1.000
    N15      N        0.26080    0.66990    0.07280    1.000
    N16      N        0.35570    0.58710    0.01050    1.000
    N17      N        0.19650    0.97020    0.64210    1.000
    N18      N        0.36050    0.96920    0.79570    1.000
    C37      C        0.12620    0.89640    0.36250    1.000
    H31      H        0.05630    0.86720    0.38100    1.000
    C38      C        0.25780    0.98030    0.35150    1.000
    H32      H        0.29430    0.02090    0.36140    1.000
    C39      C        0.30800    0.93930    0.29000    1.000
    H33      H        0.38530    0.94600    0.25110    1.000
    C40      C        0.23180    0.82930    0.24170    1.000
    C41      C        0.09400    0.79390    0.20620    1.000
    H34      H        0.99270    0.80600    0.21790    1.000
    C42      C        0.10480    0.74080    0.15350    1.000
    H35      H        0.01190    0.71620    0.13100    1.000
    C43      C        0.25530    0.72390    0.13390    1.000
    C44      C        0.39440    0.75800    0.17080    1.000
    H36      H        0.49580    0.74580    0.15930    1.000
    C45      C        0.38170    0.81080    0.22540    1.000
    H37      H        0.47570    0.83420    0.25160    1.000
    C46      C        0.38850    0.63090    0.07850    1.000
    H38      H        0.48890    0.63470    0.12570    1.000
    C47      C        0.13720    0.64940    0.99450    1.000
    H39      H        0.03290    0.66670    0.97160    1.000
    C48      C        0.19740    0.59900    0.95740    1.000
    H40      H        0.13940    0.57550    0.90320    1.000
    C49      C        0.22560    0.99400    0.73480    1.000
    H41      H        0.16060    0.02420    0.75510    1.000
    C50      C        0.31560    0.92650    0.64580    1.000
    H42      H        0.32470    0.90110    0.59180    1.000
    C51      C        0.41780    0.92550    0.73860    1.000
    H43      H        0.50950    0.90010    0.76000    1.000
    C52      C        0.43090    0.98540    0.90050    1.000
    C53      C        0.51790    0.94140    0.96420    1.000
    H44      H        0.53090    0.90200    0.94000    1.000
    C54      C        0.41370    0.04360    0.93470    1.000
    H45      H        0.35640    0.07320    0.89050    1.000
    N19      N        0.35750    0.45260    0.10190    1.000
    N20      N        0.27880    0.38500    0.20390    1.000
    N21      N        0.23920    0.16990    0.42720    1.000
    N22      N        0.14430    0.08710    0.48950    1.000
    N23      N        0.30350    0.47020    0.85790    1.000
    N24      N        0.13950    0.46920    0.70430    1.000
    C55      C        0.37380    0.39640    0.13750    1.000
    H46      H        0.44370    0.36720    0.11900    1.000
    C56      C        0.24220    0.48030    0.14850    1.000
    H47      H        0.20570    0.52090    0.13860    1.000
    C57      C        0.19200    0.43930    0.21000    1.000
    H48      H        0.11470    0.44600    0.24890    1.000
    C58      C        0.26820    0.32930    0.25830    1.000
    C59      C        0.40600    0.29390    0.29380    1.000
    H49      H        0.50730    0.30600    0.28210    1.000
    C60      C        0.39520    0.24080    0.34650    1.000
    H50      H        0.48810    0.21620    0.36900    1.000
    C61      C        0.24470    0.22390    0.36610    1.000
    C62      C        0.10560    0.25800    0.32920    1.000
    H51      H        0.00420    0.24580    0.34070    1.000
    C63      C        0.11830    0.31080    0.27460    1.000
    H52      H        0.02430    0.33420    0.24840    1.000
    C64      C        0.11150    0.13090    0.42150    1.000
    H53      H        0.01110    0.13470    0.37430    1.000
    C65      C        0.36280    0.14940    0.50550    1.000
    H54      H        0.46710    0.16670    0.52840    1.000
    C66      C        0.30260    0.09900    0.54260    1.000
    H55      H        0.36060    0.07550    0.59680    1.000
    C67      C        0.27440    0.49400    0.76520    1.000
    H56      H        0.33940    0.52420    0.74490    1.000
    C68      C        0.18440    0.42650    0.85420    1.000
    H57      H        0.17530    0.40110    0.90820    1.000
    C69      C        0.08220    0.42550    0.76140    1.000
    H58      H        0.99050    0.40010    0.74000    1.000
    C70      C        0.06910    0.48540    0.59950    1.000
    C71      C        0.98210    0.44140    0.53580    1.000
    H59      H        0.96910    0.40200    0.56000    1.000
    C72      C        0.08630    0.54360    0.56530    1.000
    H60      H        0.14360    0.57320    0.60950    1.000
    Mn1      Mn       0.00000    0.00000    0.50000    1.000
    Mn2      Mn       0.50000    0.50000    0.00000    1.000
