data_functionalizedCrystal
_audit_creation_method	'EQeq! by Chris Wilmer'
_symmetry_space_group_name_H-M	'P1'
_symmetry_Int_Tables_number	1
_symmetry_cell_setting	triclinic
loop_
_symmetry_equiv_pos_as_xyz
  x,y,z
_cell_length_a	21.863
_cell_length_b	10.035
_cell_length_c	13.854
_cell_angle_alpha	90
_cell_angle_beta	91.53
_cell_angle_gamma	90
loop_
_atom_site_label
_atom_site_type_symbol
_atom_site_fract_x
_atom_site_fract_y
_atom_site_fract_z
_atom_site_charge
Mof_Gd	Gd	0.25952	0.56098	0.26962	1.745
Mof_O 	O 	0.36389	0.4961	0.21557	-0.453
Mof_O 	O 	0.3239	0.6659	0.13739	-0.592
Mof_O 	O 	0.21451	0.7638	0.20536	-0.564
Mof_O 	O 	0.21829	0.5256	0.1094	-0.571
Mof_C 	C 	0.36713	0.5811	0.1498	0.498
Mof_Gd	Gd	0.24855	0.74949	0.02903	1.877
Mof_C 	C 	0.18268	0.8677	0.1858	0.487
Mof_C 	C 	0.16531	0.5362	0.0686	0.493
Mof_C 	C 	0.41892	0.5844	0.0805	-0.501
Mof_O 	O 	0.1879	0.9227	0.10572	-0.463
Mof_O 	O 	0.31454	0.928	0.03714	-0.543
Mof_O 	O 	0.15263	0.6361	0.01746	-0.482
Mof_O 	O 	0.30934	0.762	0.86111	-0.534
Mof_O 	O 	0.28024	0.5723	0.92266	-0.474
Mof_O 	O 	0.19643	0.8639	0.90427	-0.613
Mof_C 	C 	0.13907	0.9241	0.2576	-0.476
Mof_C 	C 	0.11916	0.4263	0.081	-0.495
Mof_H 	H 	0.4213	0.6736	0.0538	0.175
Mof_H 	H 	0.4091	0.5243	0.0275	0.174
Mof_C 	C 	0.48124	0.5476	0.1218	0.183
Mof_C 	C 	0.32928	0.0253	0.9858	0.584
Mof_C 	C 	0.30655	0.6359	0.8567	0.474
Mof_C 	C 	0.14709	0.9217	0.873	0.531
Mof_H 	H 	0.1581	0.9995	0.2902	0.164
Mof_H 	H 	0.1306	0.8569	0.3058	0.171
Mof_C 	C 	0.0793	0.9686	0.2095	0.15
Mof_H 	H 	0.1157	0.4069	0.1492	0.18
Mof_H 	H 	0.1336	0.3464	0.0495	0.168
Mof_C 	C 	0.05685	0.4624	0.0395	0.176
Mof_C 	C 	0.52591	0.6434	0.1349	-0.136
Mof_C 	C 	0.49581	0.4158	0.1445	-0.121
Mof_C 	C 	0.3785	0.1159	0.0272	-0.545
Mof_O 	O 	0.30644	0.0508	0.90384	-0.525
Mof_O 	O 	0.14938	0.9829	0.7962	-0.484
Mof_C 	C 	0.33658	0.5604	0.7772	-0.47
Mof_C 	C 	0.09019	0.9101	0.9318	-0.538
Mof_C 	C 	0.06776	0.1007	0.1893	-0.092
Mof_C 	C 	0.03589	0.8745	0.18	-0.099
Mof_C 	C 	0.04313	0.4413	0.9422	-0.104
Mof_C 	C 	0.01341	0.5212	0.0968	-0.121
Mof_H 	H 	0.5168	0.732	0.1211	0.078
Mof_C 	C 	0.58453	0.6091	0.1685	-0.102
Mof_C 	C 	0.55403	0.3826	0.1784	-0.102
Mof_H 	H 	0.4663	0.3497	0.1368	0.076
Mof_H 	H 	0.3722	0.1292	0.0955	0.189
Mof_H 	H 	0.3761	0.202	0.9955	0.192
Mof_C 	C 	0.44152	0.055	0.0128	0.176
Mof_C 	C 	0.40096	0.5218	0.8097	0.146
Mof_H 	H 	0.3131	0.481	0.7615	0.162
Mof_H 	H 	0.338	0.6155	0.7197	0.172
Mof_C 	C 	0.03141	0.9532	0.8813	0.195
Mof_H 	H 	0.0959	0.9632	0.9899	0.198
Mof_H 	H 	0.0858	0.818	0.9517	0.199
Mof_H 	H 	0.097	0.1645	0.2058	0.052
Mof_C 	C 	0.0131	0.14	0.1445	-0.141
Mof_C 	C 	0.98116	0.9142	0.1358	-0.127
Mof_H 	H 	0.0436	0.7843	0.19	0.066
Mof_H 	H 	0.0719	0.402	0.903	0.062
Mof_H 	H 	0.0222	0.5356	0.162	0.078
Mof_H 	H 	0.6142	0.675	0.1763	0.058
Mof_H 	H 	0.563	0.2943	0.1934	0.068
Mof_C 	C 	0.48451	0.0475	0.0888	-0.117
Mof_C 	C 	0.45815	0.0054	0.9239	-0.118
Mof_H 	H 	0.0062	0.2298	0.1317	0.077
Mof_H 	H 	0.9524	0.8501	0.1174	0.075
Mof_H 	H 	0.4742	0.079	0.1494	0.073
Mof_H 	H 	0.4302	0.008	0.8721	0.084
Mof_Gd	Gd	0.74048	0.06098	0.23038	1.741
Mof_O 	O 	0.63611	0.9961	0.28443	-0.452
Mof_O 	O 	0.6761	0.1659	0.36261	-0.592
Mof_O 	O 	0.78549	0.2638	0.29464	-0.565
Mof_O 	O 	0.78171	0.0256	0.3906	-0.571
Mof_C 	C 	0.63287	0.0811	0.3502	0.496
Mof_Gd	Gd	0.75145	0.24949	0.47097	1.876
Mof_C 	C 	0.81732	0.3677	0.3142	0.487
Mof_C 	C 	0.83469	0.0362	0.4314	0.492
Mof_C 	C 	0.58108	0.0844	0.4195	-0.499
Mof_O 	O 	0.8121	0.4227	0.39428	-0.462
Mof_O 	O 	0.68546	0.428	0.46286	-0.542
Mof_O 	O 	0.84737	0.1361	0.48254	-0.482
Mof_O 	O 	0.69066	0.262	0.63889	-0.534
Mof_O 	O 	0.71976	0.0723	0.57734	-0.474
Mof_O 	O 	0.80357	0.3639	0.59573	-0.613
Mof_C 	C 	0.86093	0.4241	0.2424	-0.475
Mof_C 	C 	0.88084	0.9263	0.419	-0.494
Mof_H 	H 	0.5787	0.1736	0.4462	0.175
Mof_H 	H 	0.5909	0.0243	0.4725	0.173
Mof_C 	C 	0.51876	0.0476	0.3782	0.182
Mof_C 	C 	0.67072	0.5253	0.5142	0.581
Mof_C 	C 	0.69345	0.1359	0.6433	0.475
Mof_C 	C 	0.85291	0.4217	0.627	0.532
Mof_H 	H 	0.8419	0.4995	0.2098	0.164
Mof_H 	H 	0.8694	0.3569	0.1942	0.171
Mof_C 	C 	0.9207	0.4686	0.2905	0.148
Mof_H 	H 	0.8843	0.9069	0.3508	0.181
Mof_H 	H 	0.8664	0.8464	0.4505	0.168
Mof_C 	C 	0.94315	0.9624	0.4605	0.177
Mof_C 	C 	0.47409	0.1434	0.3651	-0.135
Mof_C 	C 	0.50419	0.9158	0.3555	-0.12
Mof_C 	C 	0.6215	0.6159	0.4728	-0.542
Mof_O 	O 	0.69356	0.5508	0.59616	-0.525
Mof_O 	O 	0.85062	0.4829	0.7038	-0.483
Mof_C 	C 	0.66342	0.0604	0.7228	-0.472
Mof_C 	C 	0.90981	0.4101	0.5682	-0.541
Mof_C 	C 	0.93224	0.6007	0.3107	-0.089
Mof_C 	C 	0.96411	0.3745	0.32	-0.094
Mof_C 	C 	0.95687	0.9413	0.5578	-0.104
Mof_C 	C 	0.98659	0.0212	0.4032	-0.123
Mof_H 	H 	0.4832	0.232	0.3789	0.077
Mof_C 	C 	0.41547	0.1091	0.3315	-0.103
Mof_C 	C 	0.44597	0.8826	0.3216	-0.103
Mof_H 	H 	0.5337	0.8497	0.3632	0.076
Mof_H 	H 	0.6278	0.6292	0.4045	0.188
Mof_H 	H 	0.6239	0.702	0.5045	0.19
Mof_C 	C 	0.55848	0.555	0.4872	0.176
Mof_C 	C 	0.59904	0.0218	0.6903	0.146
Mof_H 	H 	0.6869	0.981	0.7385	0.162
Mof_H 	H 	0.662	0.1155	0.7803	0.173
Mof_C 	C 	0.96859	0.4532	0.6187	0.201
Mof_H 	H 	0.9041	0.4632	0.5101	0.199
Mof_H 	H 	0.9142	0.318	0.5483	0.2
Mof_H 	H 	0.903	0.6645	0.2942	0.051
Mof_C 	C 	0.9869	0.64	0.3555	-0.145
Mof_C 	C 	0.01884	0.4142	0.3642	-0.135
Mof_H 	H 	0.9564	0.2843	0.31	0.064
Mof_H 	H 	0.9281	0.902	0.597	0.061
Mof_H 	H 	0.9778	0.0356	0.338	0.079
Mof_H 	H 	0.3858	0.175	0.3237	0.059
Mof_H 	H 	0.437	0.7943	0.3066	0.069
Mof_C 	C 	0.51549	0.5475	0.4112	-0.116
Mof_C 	C 	0.54185	0.5054	0.5761	-0.119
Mof_H 	H 	0.9938	0.7298	0.3683	0.079
Mof_H 	H 	0.0476	0.3501	0.3826	0.077
Mof_H 	H 	0.5258	0.579	0.3506	0.072
Mof_H 	H 	0.5698	0.508	0.6279	0.085
Mof_Gd	Gd	0.74048	0.43902	0.73038	1.744
Mof_O 	O 	0.63611	0.5039	0.78443	-0.454
Mof_O 	O 	0.6761	0.3341	0.86261	-0.593
Mof_O 	O 	0.78549	0.2362	0.79464	-0.565
Mof_O 	O 	0.78171	0.4744	0.8906	-0.571
Mof_C 	C 	0.63287	0.4189	0.8502	0.498
Mof_Gd	Gd	0.75145	0.25051	0.97097	1.877
Mof_C 	C 	0.81732	0.1323	0.8142	0.487
Mof_C 	C 	0.83469	0.4638	0.9314	0.493
Mof_C 	C 	0.58108	0.4156	0.9195	-0.501
Mof_O 	O 	0.8121	0.0773	0.89428	-0.463
Mof_O 	O 	0.68546	0.072	0.96286	-0.543
Mof_O 	O 	0.84737	0.3639	0.98254	-0.482
Mof_O 	O 	0.69066	0.238	0.13889	-0.534
Mof_O 	O 	0.71976	0.4277	0.07734	-0.474
Mof_O 	O 	0.80357	0.1361	0.09573	-0.613
Mof_C 	C 	0.86093	0.0759	0.7424	-0.476
Mof_C 	C 	0.88084	0.5737	0.919	-0.495
Mof_H 	H 	0.5787	0.3264	0.9462	0.175
Mof_H 	H 	0.5909	0.4757	0.9725	0.174
Mof_C 	C 	0.51876	0.4524	0.8782	0.183
Mof_C 	C 	0.67072	0.9747	0.0142	0.584
Mof_C 	C 	0.69345	0.3641	0.1433	0.474
Mof_C 	C 	0.85291	0.0783	0.127	0.531
Mof_H 	H 	0.8419	0.0005	0.7098	0.164
Mof_H 	H 	0.8694	0.1431	0.6942	0.171
Mof_C 	C 	0.9207	0.0314	0.7905	0.15
Mof_H 	H 	0.8843	0.5931	0.8508	0.18
Mof_H 	H 	0.8664	0.6536	0.9505	0.168
Mof_C 	C 	0.94315	0.5376	0.9605	0.176
Mof_C 	C 	0.47409	0.3566	0.8651	-0.136
Mof_C 	C 	0.50419	0.5842	0.8555	-0.121
Mof_C 	C 	0.6215	0.8841	0.9728	-0.545
Mof_O 	O 	0.69356	0.9492	0.09616	-0.525
Mof_O 	O 	0.85062	0.0171	0.2038	-0.484
Mof_C 	C 	0.66342	0.4396	0.2228	-0.47
Mof_C 	C 	0.90981	0.0899	0.0682	-0.538
Mof_C 	C 	0.93224	0.8993	0.8107	-0.092
Mof_C 	C 	0.96411	0.1255	0.82	-0.099
Mof_C 	C 	0.95687	0.5587	0.0578	-0.104
Mof_C 	C 	0.98659	0.4788	0.9032	-0.121
Mof_H 	H 	0.4832	0.268	0.8789	0.078
Mof_C 	C 	0.41547	0.3909	0.8315	-0.102
Mof_C 	C 	0.44597	0.6174	0.8216	-0.102
Mof_H 	H 	0.5337	0.6503	0.8632	0.076
Mof_H 	H 	0.6278	0.8708	0.9045	0.189
Mof_H 	H 	0.6239	0.798	0.0045	0.192
Mof_C 	C 	0.55848	0.945	0.9872	0.176
Mof_C 	C 	0.59904	0.4782	0.1903	0.146
Mof_H 	H 	0.6869	0.519	0.2385	0.162
Mof_H 	H 	0.662	0.3845	0.2803	0.172
Mof_C 	C 	0.96859	0.0468	0.1187	0.195
Mof_H 	H 	0.9041	0.0368	0.0101	0.198
Mof_H 	H 	0.9142	0.182	0.0483	0.199
Mof_H 	H 	0.903	0.8355	0.7942	0.052
Mof_C 	C 	0.9869	0.86	0.8555	-0.141
Mof_C 	C 	0.01884	0.0858	0.8642	-0.127
Mof_H 	H 	0.9564	0.2157	0.81	0.066
Mof_H 	H 	0.9281	0.598	0.097	0.062
Mof_H 	H 	0.9778	0.4644	0.838	0.078
Mof_H 	H 	0.3858	0.325	0.8237	0.058
Mof_H 	H 	0.437	0.7057	0.8066	0.068
Mof_C 	C 	0.51549	0.9525	0.9112	-0.117
Mof_C 	C 	0.54185	0.9946	0.0761	-0.118
Mof_H 	H 	0.9938	0.7702	0.8683	0.077
Mof_H 	H 	0.0476	0.1499	0.8826	0.075
Mof_H 	H 	0.5258	0.921	0.8506	0.073
Mof_H 	H 	0.5698	0.992	0.1279	0.084
Mof_Gd	Gd	0.25952	0.93902	0.76962	1.741
Mof_O 	O 	0.36389	0.0039	0.71557	-0.452
Mof_O 	O 	0.3239	0.8341	0.63739	-0.592
Mof_O 	O 	0.21451	0.7362	0.70536	-0.565
Mof_O 	O 	0.21829	0.9744	0.6094	-0.571
Mof_C 	C 	0.36713	0.9189	0.6498	0.496
Mof_Gd	Gd	0.24855	0.75051	0.52903	1.876
Mof_C 	C 	0.18268	0.6323	0.6858	0.487
Mof_C 	C 	0.16531	0.9638	0.5686	0.492
Mof_C 	C 	0.41892	0.9156	0.5805	-0.499
Mof_O 	O 	0.1879	0.5773	0.60572	-0.462
Mof_O 	O 	0.31454	0.572	0.53714	-0.542
Mof_O 	O 	0.15263	0.8639	0.51746	-0.482
Mof_O 	O 	0.30934	0.738	0.36111	-0.534
Mof_O 	O 	0.28024	0.9277	0.42266	-0.474
Mof_O 	O 	0.19643	0.6361	0.40427	-0.613
Mof_C 	C 	0.13907	0.5759	0.7576	-0.475
Mof_C 	C 	0.11916	0.0737	0.581	-0.494
Mof_H 	H 	0.4213	0.8264	0.5538	0.175
Mof_H 	H 	0.4091	0.9757	0.5275	0.173
Mof_C 	C 	0.48124	0.9524	0.6218	0.182
Mof_C 	C 	0.32928	0.4747	0.4858	0.581
Mof_C 	C 	0.30655	0.8641	0.3567	0.475
Mof_C 	C 	0.14709	0.5783	0.373	0.532
Mof_H 	H 	0.1581	0.5005	0.7902	0.164
Mof_H 	H 	0.1306	0.6431	0.8058	0.171
Mof_C 	C 	0.0793	0.5314	0.7095	0.148
Mof_H 	H 	0.1157	0.0931	0.6492	0.181
Mof_H 	H 	0.1336	0.1536	0.5495	0.168
Mof_C 	C 	0.05685	0.0376	0.5395	0.177
Mof_C 	C 	0.52591	0.8566	0.6349	-0.135
Mof_C 	C 	0.49581	0.0842	0.6445	-0.12
Mof_C 	C 	0.3785	0.3841	0.5272	-0.542
Mof_O 	O 	0.30644	0.4492	0.40384	-0.525
Mof_O 	O 	0.14938	0.5171	0.2962	-0.483
Mof_C 	C 	0.33658	0.9396	0.2772	-0.472
Mof_C 	C 	0.09019	0.5899	0.4318	-0.541
Mof_C 	C 	0.06776	0.3993	0.6893	-0.089
Mof_C 	C 	0.03589	0.6255	0.68	-0.094
Mof_C 	C 	0.04313	0.0587	0.4422	-0.104
Mof_C 	C 	0.01341	0.9788	0.5968	-0.123
Mof_H 	H 	0.5168	0.768	0.6211	0.077
Mof_C 	C 	0.58453	0.8909	0.6685	-0.103
Mof_C 	C 	0.55403	0.1174	0.6784	-0.103
Mof_H 	H 	0.4663	0.1503	0.6368	0.076
Mof_H 	H 	0.3722	0.3708	0.5955	0.188
Mof_H 	H 	0.3761	0.298	0.4955	0.19
Mof_C 	C 	0.44152	0.445	0.5128	0.176
Mof_C 	C 	0.40096	0.9782	0.3097	0.146
Mof_H 	H 	0.3131	0.019	0.2615	0.162
Mof_H 	H 	0.338	0.8845	0.2197	0.173
Mof_C 	C 	0.03141	0.5468	0.3813	0.201
Mof_H 	H 	0.0959	0.5368	0.4899	0.199
Mof_H 	H 	0.0858	0.682	0.4517	0.2
Mof_H 	H 	0.097	0.3355	0.7058	0.051
Mof_C 	C 	0.0131	0.36	0.6445	-0.145
Mof_C 	C 	0.98116	0.5858	0.6358	-0.135
Mof_H 	H 	0.0436	0.7157	0.69	0.064
Mof_H 	H 	0.0719	0.098	0.403	0.061
Mof_H 	H 	0.0222	0.9644	0.662	0.079
Mof_H 	H 	0.6142	0.825	0.6763	0.059
Mof_H 	H 	0.563	0.2057	0.6934	0.069
Mof_C 	C 	0.48451	0.4525	0.5888	-0.116
Mof_C 	C 	0.45815	0.4946	0.4239	-0.119
Mof_H 	H 	0.0062	0.2702	0.6317	0.079
Mof_H 	H 	0.9524	0.6499	0.6174	0.077
Mof_H 	H 	0.4742	0.421	0.6494	0.072
Mof_H 	H 	0.4302	0.492	0.3721	0.085
_end
