data_functionalizedCrystal
_audit_creation_method	'EQeq! by Chris Wilmer'
_symmetry_space_group_name_H-M	'P1'
_symmetry_Int_Tables_number	1
_symmetry_cell_setting	triclinic
loop_
_symmetry_equiv_pos_as_xyz
  x,y,z
_cell_length_a	32.223
_cell_length_b	32.223
_cell_length_c	20.8273
_cell_angle_alpha	90
_cell_angle_beta	90
_cell_angle_gamma	120
loop_
_atom_site_label
_atom_site_type_symbol
_atom_site_fract_x
_atom_site_fract_y
_atom_site_fract_z
_atom_site_charge
Mof_Ag	Ag	0.14932	0.0459	0.23113	0.609
Mof_Ag	Ag	0.37039	0.04775	0.3303	0.611
Mof_N 	N 	0.3039	0.0585	0.3094	-0.17
Mof_N 	N 	0.2205	0.0574	0.2686	-0.177
Mof_C 	C 	0.2459	0.0473	0.2283	0.022
Mof_C 	C 	0.2876	0.0474	0.2493	0.019
Mof_C 	C 	0.2789	0.0709	0.3494	0.055
Mof_C 	C 	0.2955	0.0842	0.4142	-0.089
Mof_H 	H 	0.3241	0.0853	0.4279	0.046
Mof_C 	C 	0.27	0.0952	0.4556	-0.021
Mof_H 	H 	0.2803	0.1024	0.499	0.031
Mof_C 	C 	0.2284	0.0961	0.4358	-0.04
Mof_H 	H 	0.2122	0.1057	0.4652	0.038
Mof_C 	C 	0.2108	0.0829	0.3726	-0.077
Mof_H 	H 	0.1825	0.0825	0.3591	0.03
Mof_C 	C 	0.237	0.0702	0.3303	0.04
Mof_N 	N 	0.189	0.0333	0.1456	-0.172
Mof_N 	N 	0.2421	0.0126	0.0576	-0.178
Mof_C 	C 	0.2565	0.0244	0.1172	0.022
Mof_C 	C 	0.2292	0.0352	0.1632	0.021
Mof_C 	C 	0.1737	0.0223	0.0829	0.054
Mof_C 	C 	0.132	0.0204	0.0642	-0.089
Mof_H 	H 	0.1134	0.0264	0.0941	0.044
Mof_C 	C 	0.1178	0.0097	0.0015	-0.02
Mof_H 	H 	0.0889	0.0085	0.9884	0.032
Mof_C 	C 	0.1433	0.0007	0.9575	-0.031
Mof_H 	H 	0.1322	0.9937	0.9144	0.035
Mof_C 	C 	0.1854	0.0014	0.9741	-0.08
Mof_H 	H 	0.2029	0.9947	0.9432	0.035
Mof_C 	C 	0.2016	0.0125	0.0386	0.045
Mof_N 	N 	0.3223	0.0119	0.0979	-0.175
Mof_N 	N 	0.3522	0.032	0.2259	-0.18
Mof_C 	C 	0.3146	0.0344	0.2048	0.02
Mof_C 	C 	0.2996	0.0232	0.139	0.025
Mof_C 	C 	0.3616	0.0103	0.1182	0.052
Mof_C 	C 	0.3866	0.9977	0.0754	-0.088
Mof_H 	H 	0.3765	0.9902	0.032	0.04
Mof_C 	C 	0.4268	0.9962	0.0971	-0.028
Mof_H 	H 	0.4444	0.9885	0.0678	0.032
Mof_C 	C 	0.4414	0.0059	0.1606	-0.035
Mof_H 	H 	0.4688	0.0046	0.1742	0.035
Mof_C 	C 	0.4169	0.0173	0.2036	-0.08
Mof_H 	H 	0.4269	0.0237	0.2472	0.03
Mof_C 	C 	0.3764	0.0195	0.183	0.04
Mof_N 	N 	0.0715	0.9766	0.2369	-0.172
Mof_N 	N 	0.9756	0.9044	0.2364	-0.18
Mof_C 	C 	0.9877	0.9505	0.24	0.017
Mof_C 	C 	0.0366	0.9866	0.2407	0.024
Mof_C 	C 	0.0594	0.9304	0.2332	0.054
Mof_C 	C 	0.0956	0.9172	0.2267	-0.09
Mof_H 	H 	0.1286	0.9411	0.2277	0.045
Mof_C 	C 	0.0827	0.8707	0.2193	-0.021
Mof_H 	H 	0.1069	0.8625	0.2128	0.032
Mof_C 	C 	0.0352	0.8346	0.221	-0.038
Mof_H 	H 	0.0276	0.8021	0.2176	0.039
Mof_C 	C 	0.9988	0.8448	0.2274	-0.081
Mof_H 	H 	0.9663	0.8198	0.2283	0.028
Mof_C 	C 	0.0108	0.8936	0.2326	0.043
Mof_Ag	Ag	0.81599	0.37923	0.56446	0.608
Mof_Ag	Ag	0.03706	0.38108	0.66363	0.61
Mof_N 	N 	0.97057	0.39183	0.64273	-0.171
Mof_N 	N 	0.88717	0.39073	0.60193	-0.178
Mof_C 	C 	0.91257	0.38063	0.56163	0.021
Mof_C 	C 	0.95427	0.38073	0.58263	0.018
Mof_C 	C 	0.94557	0.40423	0.68273	0.054
Mof_C 	C 	0.96217	0.41753	0.74753	-0.09
Mof_H 	H 	0.99077	0.41863	0.76123	0.045
Mof_C 	C 	0.93667	0.42853	0.78893	-0.022
Mof_H 	H 	0.94697	0.43573	0.83233	0.03
Mof_C 	C 	0.89507	0.42943	0.76913	-0.041
Mof_H 	H 	0.87887	0.43903	0.79853	0.037
Mof_C 	C 	0.87747	0.41623	0.70593	-0.078
Mof_H 	H 	0.84917	0.41583	0.69243	0.029
Mof_C 	C 	0.90367	0.40353	0.66363	0.039
Mof_N 	N 	0.85567	0.36663	0.47893	-0.173
Mof_N 	N 	0.90877	0.34593	0.39093	-0.179
Mof_C 	C 	0.92317	0.35773	0.45053	0.021
Mof_C 	C 	0.89587	0.36853	0.49653	0.02
Mof_C 	C 	0.84037	0.35563	0.41623	0.053
Mof_C 	C 	0.79867	0.35373	0.39753	-0.091
Mof_H 	H 	0.78007	0.35973	0.42743	0.043
Mof_C 	C 	0.78447	0.34303	0.33483	-0.021
Mof_H 	H 	0.75557	0.34183	0.32173	0.031
Mof_C 	C 	0.80997	0.33403	0.29083	-0.032
Mof_H 	H 	0.79887	0.32703	0.24773	0.034
Mof_C 	C 	0.85207	0.33473	0.30743	-0.082
Mof_H 	H 	0.86957	0.32803	0.27653	0.034
Mof_C 	C 	0.86827	0.34583	0.37193	0.044
Mof_N 	N 	0.98897	0.34523	0.43123	-0.176
Mof_N 	N 	0.01887	0.36533	0.55923	-0.181
Mof_C 	C 	0.98127	0.36773	0.53813	0.02
Mof_C 	C 	0.96627	0.35653	0.47233	0.025
Mof_C 	C 	0.02827	0.34363	0.45153	0.053
Mof_C 	C 	0.05327	0.33103	0.40873	-0.089
Mof_H 	H 	0.04317	0.32353	0.36533	0.04
Mof_C 	C 	0.09347	0.32953	0.43043	-0.029
Mof_H 	H 	0.11107	0.32183	0.40113	0.032
Mof_C 	C 	0.10807	0.33923	0.49393	-0.034
Mof_H 	H 	0.13547	0.33793	0.50753	0.035
Mof_C 	C 	0.08357	0.35063	0.53693	-0.08
Mof_H 	H 	0.09357	0.35703	0.58053	0.03
Mof_C 	C 	0.04307	0.35283	0.51633	0.04
Mof_N 	N 	0.73817	0.30993	0.57023	-0.172
Mof_N 	N 	0.64227	0.23773	0.56973	-0.18
Mof_C 	C 	0.65437	0.28383	0.57333	0.018
Mof_C 	C 	0.70327	0.31993	0.57403	0.023
Mof_C 	C 	0.72607	0.26373	0.56653	0.054
Mof_C 	C 	0.76227	0.25053	0.56003	-0.09
Mof_H 	H 	0.79527	0.27443	0.56103	0.045
Mof_C 	C 	0.74937	0.20403	0.55263	-0.02
Mof_H 	H 	0.77357	0.19583	0.54613	0.031
Mof_C 	C 	0.70187	0.16793	0.55433	-0.039
Mof_H 	H 	0.69427	0.13543	0.55093	0.039
Mof_C 	C 	0.66547	0.17813	0.56073	-0.08
Mof_H 	H 	0.63297	0.15313	0.56163	0.028
Mof_C 	C 	0.67747	0.22693	0.56593	0.042
Mof_Ag	Ag	0.48265	0.71257	0.8978	0.608
Mof_Ag	Ag	0.70372	0.71442	0.99697	0.61
Mof_N 	N 	0.63723	0.72517	0.97607	-0.171
Mof_N 	N 	0.55383	0.72407	0.93527	-0.178
Mof_C 	C 	0.57923	0.71397	0.89497	0.021
Mof_C 	C 	0.62093	0.71407	0.91597	0.018
Mof_C 	C 	0.61223	0.73757	0.01607	0.054
Mof_C 	C 	0.62883	0.75087	0.08087	-0.09
Mof_H 	H 	0.65743	0.75197	0.09457	0.045
Mof_C 	C 	0.60333	0.76187	0.12227	-0.022
Mof_H 	H 	0.61363	0.76907	0.16567	0.03
Mof_C 	C 	0.56173	0.76277	0.10247	-0.041
Mof_H 	H 	0.54553	0.77237	0.13187	0.037
Mof_C 	C 	0.54413	0.74957	0.03927	-0.078
Mof_H 	H 	0.51583	0.74917	0.02577	0.029
Mof_C 	C 	0.57033	0.73687	0.99697	0.039
Mof_N 	N 	0.52233	0.69997	0.81227	-0.173
Mof_N 	N 	0.57543	0.67927	0.72427	-0.179
Mof_C 	C 	0.58983	0.69107	0.78387	0.021
Mof_C 	C 	0.56253	0.70187	0.82987	0.02
Mof_C 	C 	0.50703	0.68897	0.74957	0.053
Mof_C 	C 	0.46533	0.68707	0.73087	-0.091
Mof_H 	H 	0.44673	0.69307	0.76077	0.043
Mof_C 	C 	0.45113	0.67637	0.66817	-0.021
Mof_H 	H 	0.42223	0.67517	0.65507	0.031
Mof_C 	C 	0.47663	0.66737	0.62417	-0.033
Mof_H 	H 	0.46553	0.66037	0.58107	0.034
Mof_C 	C 	0.51873	0.66807	0.64077	-0.082
Mof_H 	H 	0.53623	0.66137	0.60987	0.034
Mof_C 	C 	0.53493	0.67917	0.70527	0.044
Mof_N 	N 	0.65563	0.67857	0.76457	-0.176
Mof_N 	N 	0.68553	0.69867	0.89257	-0.181
Mof_C 	C 	0.64793	0.70107	0.87147	0.02
Mof_C 	C 	0.63293	0.68987	0.80567	0.025
Mof_C 	C 	0.69493	0.67697	0.78487	0.052
Mof_C 	C 	0.71993	0.66437	0.74207	-0.089
Mof_H 	H 	0.70983	0.65687	0.69867	0.04
Mof_C 	C 	0.76013	0.66287	0.76377	-0.029
Mof_H 	H 	0.77773	0.65517	0.73447	0.032
Mof_C 	C 	0.77473	0.67257	0.82727	-0.034
Mof_H 	H 	0.80213	0.67127	0.84087	0.035
Mof_C 	C 	0.75023	0.68397	0.87027	-0.08
Mof_H 	H 	0.76023	0.69037	0.91387	0.03
Mof_C 	C 	0.70973	0.68617	0.84967	0.04
Mof_N 	N 	0.40483	0.64327	0.90357	-0.172
Mof_N 	N 	0.30893	0.57107	0.90307	-0.18
Mof_C 	C 	0.32103	0.61717	0.90667	0.018
Mof_C 	C 	0.36993	0.65327	0.90737	0.023
Mof_C 	C 	0.39273	0.59707	0.89987	0.054
Mof_C 	C 	0.42893	0.58387	0.89337	-0.09
Mof_H 	H 	0.46193	0.60777	0.89437	0.045
Mof_C 	C 	0.41603	0.53737	0.88597	-0.02
Mof_H 	H 	0.44023	0.52917	0.87947	0.031
Mof_C 	C 	0.36853	0.50127	0.88767	-0.039
Mof_H 	H 	0.36093	0.46877	0.88427	0.039
Mof_C 	C 	0.33213	0.51147	0.89407	-0.08
Mof_H 	H 	0.29963	0.48647	0.89497	0.028
Mof_C 	C 	0.34413	0.56027	0.89927	0.042
Mof_Ag	Ag	0.9541	0.10342	0.23113	0.608
Mof_Ag	Ag	0.95225	0.32264	0.3303	0.61
Mof_N 	N 	0.9415	0.2454	0.3094	-0.171
Mof_N 	N 	0.9426	0.1631	0.2686	-0.178
Mof_C 	C 	0.9527	0.1986	0.2283	0.021
Mof_C 	C 	0.9526	0.2402	0.2493	0.018
Mof_C 	C 	0.9291	0.208	0.3494	0.054
Mof_C 	C 	0.9158	0.2113	0.4142	-0.09
Mof_H 	H 	0.9147	0.2388	0.4279	0.045
Mof_C 	C 	0.9048	0.1748	0.4556	-0.022
Mof_H 	H 	0.8976	0.1779	0.499	0.03
Mof_C 	C 	0.9039	0.1323	0.4358	-0.041
Mof_H 	H 	0.8943	0.1065	0.4652	0.037
Mof_C 	C 	0.9171	0.1279	0.3726	-0.078
Mof_H 	H 	0.9175	0.1	0.3591	0.029
Mof_C 	C 	0.9298	0.1668	0.3303	0.039
Mof_N 	N 	0.9667	0.1557	0.1456	-0.173
Mof_N 	N 	0.9874	0.2295	0.0576	-0.179
Mof_C 	C 	0.9756	0.2321	0.1172	0.021
Mof_C 	C 	0.9648	0.194	0.1632	0.02
Mof_C 	C 	0.9777	0.1514	0.0829	0.052
Mof_C 	C 	0.9796	0.1116	0.0642	-0.088
Mof_H 	H 	0.9736	0.087	0.0941	0.042
Mof_C 	C 	0.9903	0.1081	0.0015	-0.025
Mof_H 	H 	0.9915	0.0804	0.9884	0.033
Mof_C 	C 	0.9993	0.1426	0.9575	-0.029
Mof_H 	H 	0.0063	0.1385	0.9144	0.033
Mof_C 	C 	0.9986	0.184	0.9741	-0.082
Mof_H 	H 	0.0053	0.2082	0.9432	0.034
Mof_C 	C 	0.9875	0.1891	0.0386	0.044
Mof_N 	N 	0.9881	0.3104	0.0979	-0.176
Mof_N 	N 	0.968	0.3202	0.2259	-0.181
Mof_C 	C 	0.9656	0.2802	0.2048	0.02
Mof_C 	C 	0.9768	0.2764	0.139	0.025
Mof_C 	C 	0.9897	0.3513	0.1182	0.052
Mof_C 	C 	0.0023	0.3889	0.0754	-0.088
Mof_H 	H 	0.0098	0.3863	0.032	0.04
Mof_C 	C 	0.0038	0.4306	0.0971	-0.028
Mof_H 	H 	0.0115	0.4559	0.0678	0.032
Mof_C 	C 	0.9941	0.4355	0.1606	-0.035
Mof_H 	H 	0.9954	0.4642	0.1742	0.035
Mof_C 	C 	0.9827	0.3996	0.2036	-0.08
Mof_H 	H 	0.9763	0.4032	0.2472	0.03
Mof_C 	C 	0.9805	0.3569	0.183	0.04
Mof_N 	N 	0.0234	0.0949	0.2369	-0.172
Mof_N 	N 	0.0956	0.0712	0.2364	-0.18
Mof_C 	C 	0.0495	0.0372	0.24	0.017
Mof_C 	C 	0.0134	0.05	0.2407	0.024
Mof_C 	C 	0.0696	0.129	0.2332	0.054
Mof_C 	C 	0.0828	0.1784	0.2267	-0.09
Mof_H 	H 	0.0589	0.1875	0.2277	0.045
Mof_C 	C 	0.1293	0.212	0.2193	-0.02
Mof_H 	H 	0.1375	0.2444	0.2128	0.031
Mof_C 	C 	0.1654	0.2006	0.221	-0.039
Mof_H 	H 	0.1979	0.2255	0.2176	0.039
Mof_C 	C 	0.1552	0.154	0.2274	-0.08
Mof_H 	H 	0.1802	0.1465	0.2283	0.028
Mof_C 	C 	0.1064	0.1172	0.2326	0.042
Mof_Ag	Ag	0.62077	0.43675	0.56446	0.608
Mof_Ag	Ag	0.61892	0.65597	0.66363	0.61
Mof_N 	N 	0.60817	0.57873	0.64273	-0.171
Mof_N 	N 	0.60927	0.49643	0.60193	-0.178
Mof_C 	C 	0.61937	0.53193	0.56163	0.021
Mof_C 	C 	0.61927	0.57353	0.58263	0.018
Mof_C 	C 	0.59577	0.54133	0.68273	0.054
Mof_C 	C 	0.58247	0.54463	0.74753	-0.09
Mof_H 	H 	0.58137	0.57213	0.76123	0.045
Mof_C 	C 	0.57147	0.50813	0.78893	-0.022
Mof_H 	H 	0.56427	0.51123	0.83233	0.03
Mof_C 	C 	0.57057	0.46563	0.76913	-0.041
Mof_H 	H 	0.56097	0.43983	0.79853	0.037
Mof_C 	C 	0.58377	0.46123	0.70593	-0.078
Mof_H 	H 	0.58417	0.43333	0.69243	0.029
Mof_C 	C 	0.59647	0.50013	0.66363	0.039
Mof_N 	N 	0.63337	0.48903	0.47893	-0.173
Mof_N 	N 	0.65407	0.56283	0.39093	-0.179
Mof_C 	C 	0.64227	0.56543	0.45053	0.021
Mof_C 	C 	0.63147	0.52733	0.49653	0.02
Mof_C 	C 	0.64437	0.48473	0.41623	0.053
Mof_C 	C 	0.64627	0.44493	0.39753	-0.091
Mof_H 	H 	0.64027	0.42033	0.42743	0.043
Mof_C 	C 	0.65697	0.44143	0.33483	-0.021
Mof_H 	H 	0.65817	0.41373	0.32173	0.031
Mof_C 	C 	0.66597	0.47593	0.29083	-0.032
Mof_H 	H 	0.67297	0.47183	0.24773	0.034
Mof_C 	C 	0.66527	0.51733	0.30743	-0.082
Mof_H 	H 	0.67197	0.54153	0.27653	0.034
Mof_C 	C 	0.65417	0.52243	0.37193	0.044
Mof_N 	N 	0.65477	0.64373	0.43123	-0.176
Mof_N 	N 	0.63467	0.65353	0.55923	-0.181
Mof_C 	C 	0.63227	0.61353	0.53813	0.02
Mof_C 	C 	0.64347	0.60973	0.47233	0.025
Mof_C 	C 	0.65637	0.68463	0.45153	0.052
Mof_C 	C 	0.66897	0.72223	0.40873	-0.089
Mof_H 	H 	0.67647	0.71963	0.36533	0.04
Mof_C 	C 	0.67047	0.76393	0.43043	-0.029
Mof_H 	H 	0.67817	0.78923	0.40113	0.032
Mof_C 	C 	0.66077	0.76883	0.49393	-0.034
Mof_H 	H 	0.66207	0.79753	0.50753	0.035
Mof_C 	C 	0.64937	0.73293	0.53693	-0.08
Mof_H 	H 	0.64297	0.73653	0.58053	0.03
Mof_C 	C 	0.64717	0.69023	0.51633	0.04
Mof_N 	N 	0.69007	0.42823	0.57023	-0.172
Mof_N 	N 	0.76227	0.40453	0.56973	-0.18
Mof_C 	C 	0.71617	0.37053	0.57333	0.018
Mof_C 	C 	0.68007	0.38333	0.57403	0.023
Mof_C 	C 	0.73627	0.46233	0.56653	0.054
Mof_C 	C 	0.74947	0.51173	0.56003	-0.09
Mof_H 	H 	0.72557	0.52083	0.56103	0.045
Mof_C 	C 	0.79597	0.54533	0.55263	-0.02
Mof_H 	H 	0.80417	0.57773	0.54613	0.031
Mof_C 	C 	0.83207	0.53393	0.55433	-0.039
Mof_H 	H 	0.86457	0.55883	0.55093	0.039
Mof_C 	C 	0.82187	0.48733	0.56073	-0.08
Mof_H 	H 	0.84687	0.47983	0.56163	0.028
Mof_C 	C 	0.77307	0.45053	0.56593	0.042
Mof_Ag	Ag	0.28743	0.77009	0.8978	0.608
Mof_Ag	Ag	0.28558	0.98931	0.99697	0.609
Mof_N 	N 	0.27483	0.91207	0.97607	-0.171
Mof_N 	N 	0.27593	0.82977	0.93527	-0.178
Mof_C 	C 	0.28603	0.86527	0.89497	0.021
Mof_C 	C 	0.28593	0.90687	0.91597	0.019
Mof_C 	C 	0.26243	0.87467	0.01607	0.055
Mof_C 	C 	0.24913	0.87797	0.08087	-0.091
Mof_H 	H 	0.24803	0.90547	0.09457	0.046
Mof_C 	C 	0.23813	0.84147	0.12227	-0.021
Mof_H 	H 	0.23093	0.84457	0.16567	0.03
Mof_C 	C 	0.23723	0.79897	0.10247	-0.041
Mof_H 	H 	0.22763	0.77317	0.13187	0.037
Mof_C 	C 	0.25043	0.79457	0.03927	-0.077
Mof_H 	H 	0.25083	0.76667	0.02577	0.029
Mof_C 	C 	0.26313	0.83347	0.99697	0.038
Mof_N 	N 	0.30003	0.82237	0.81227	-0.173
Mof_N 	N 	0.32073	0.89617	0.72427	-0.179
Mof_C 	C 	0.30893	0.89877	0.78387	0.021
Mof_C 	C 	0.29813	0.86067	0.82987	0.02
Mof_C 	C 	0.31103	0.81807	0.74957	0.053
Mof_C 	C 	0.31293	0.77827	0.73087	-0.091
Mof_H 	H 	0.30693	0.75367	0.76077	0.043
Mof_C 	C 	0.32363	0.77477	0.66817	-0.021
Mof_H 	H 	0.32483	0.74707	0.65507	0.031
Mof_C 	C 	0.33263	0.80927	0.62417	-0.033
Mof_H 	H 	0.33963	0.80517	0.58107	0.034
Mof_C 	C 	0.33193	0.85067	0.64077	-0.082
Mof_H 	H 	0.33863	0.87487	0.60987	0.034
Mof_C 	C 	0.32083	0.85577	0.70527	0.044
Mof_N 	N 	0.32143	0.97707	0.76457	-0.176
Mof_N 	N 	0.30133	0.98687	0.89257	-0.181
Mof_C 	C 	0.29893	0.94687	0.87147	0.019
Mof_C 	C 	0.31013	0.94307	0.80567	0.025
Mof_C 	C 	0.32303	0.01797	0.78487	0.053
Mof_C 	C 	0.33563	0.05557	0.74207	-0.089
Mof_H 	H 	0.34313	0.05297	0.69867	0.04
Mof_C 	C 	0.33713	0.09727	0.76377	-0.029
Mof_H 	H 	0.34483	0.12257	0.73447	0.032
Mof_C 	C 	0.32743	0.10217	0.82727	-0.034
Mof_H 	H 	0.32873	0.13087	0.84087	0.035
Mof_C 	C 	0.31603	0.06627	0.87027	-0.08
Mof_H 	H 	0.30963	0.06987	0.91387	0.03
Mof_C 	C 	0.31383	0.02357	0.84967	0.04
Mof_N 	N 	0.35673	0.76157	0.90357	-0.172
Mof_N 	N 	0.42893	0.73787	0.90307	-0.18
Mof_C 	C 	0.38283	0.70387	0.90667	0.018
Mof_C 	C 	0.34673	0.71667	0.90737	0.023
Mof_C 	C 	0.40293	0.79567	0.89987	0.054
Mof_C 	C 	0.41613	0.84507	0.89337	-0.09
Mof_H 	H 	0.39223	0.85417	0.89437	0.045
Mof_C 	C 	0.46263	0.87867	0.88597	-0.02
Mof_H 	H 	0.47083	0.91107	0.87947	0.031
Mof_C 	C 	0.49873	0.86727	0.88767	-0.039
Mof_H 	H 	0.53123	0.89217	0.88427	0.039
Mof_C 	C 	0.48853	0.82067	0.89407	-0.08
Mof_H 	H 	0.51353	0.81317	0.89497	0.028
Mof_C 	C 	0.43973	0.78387	0.89927	0.042
Mof_Ag	Ag	0.89658	0.85068	0.23113	0.608
Mof_Ag	Ag	0.67736	0.62961	0.3303	0.61
Mof_N 	N 	0.7546	0.6961	0.3094	-0.171
Mof_N 	N 	0.8369	0.7795	0.2686	-0.178
Mof_C 	C 	0.8014	0.7541	0.2283	0.021
Mof_C 	C 	0.7598	0.7124	0.2493	0.018
Mof_C 	C 	0.792	0.7211	0.3494	0.054
Mof_C 	C 	0.7887	0.7045	0.4142	-0.09
Mof_H 	H 	0.7612	0.6759	0.4279	0.045
Mof_C 	C 	0.8252	0.73	0.4556	-0.022
Mof_H 	H 	0.8221	0.7197	0.499	0.03
Mof_C 	C 	0.8677	0.7716	0.4358	-0.041
Mof_H 	H 	0.8935	0.7878	0.4652	0.037
Mof_C 	C 	0.8721	0.7892	0.3726	-0.078
Mof_H 	H 	0.9	0.8175	0.3591	0.029
Mof_C 	C 	0.8332	0.763	0.3303	0.039
Mof_N 	N 	0.8443	0.811	0.1456	-0.173
Mof_N 	N 	0.7705	0.7579	0.0576	-0.179
Mof_C 	C 	0.7679	0.7435	0.1172	0.021
Mof_C 	C 	0.806	0.7708	0.1632	0.02
Mof_C 	C 	0.8486	0.8263	0.0829	0.053
Mof_C 	C 	0.8884	0.868	0.0642	-0.091
Mof_H 	H 	0.913	0.8866	0.0941	0.043
Mof_C 	C 	0.8919	0.8822	0.0015	-0.02
Mof_H 	H 	0.9196	0.9111	0.9884	0.031
Mof_C 	C 	0.8574	0.8567	0.9575	-0.033
Mof_H 	H 	0.8615	0.8678	0.9144	0.034
Mof_C 	C 	0.816	0.8146	0.9741	-0.082
Mof_H 	H 	0.7918	0.7971	0.9432	0.034
Mof_C 	C 	0.8109	0.7984	0.0386	0.044
Mof_N 	N 	0.6896	0.6777	0.0979	-0.176
Mof_N 	N 	0.6798	0.6478	0.2259	-0.181
Mof_C 	C 	0.7198	0.6854	0.2048	0.02
Mof_C 	C 	0.7236	0.7004	0.139	0.025
Mof_C 	C 	0.6487	0.6384	0.1182	0.052
Mof_C 	C 	0.6111	0.6134	0.0754	-0.089
Mof_H 	H 	0.6137	0.6235	0.032	0.04
Mof_C 	C 	0.5694	0.5732	0.0971	-0.029
Mof_H 	H 	0.5441	0.5556	0.0678	0.032
Mof_C 	C 	0.5645	0.5586	0.1606	-0.034
Mof_H 	H 	0.5358	0.5312	0.1742	0.035
Mof_C 	C 	0.6004	0.5831	0.2036	-0.08
Mof_H 	H 	0.5968	0.5731	0.2472	0.03
Mof_C 	C 	0.6431	0.6236	0.183	0.04
Mof_N 	N 	0.9051	0.9285	0.2369	-0.172
Mof_N 	N 	0.9288	0.0244	0.2364	-0.18
Mof_C 	C 	0.9628	0.0123	0.24	0.017
Mof_C 	C 	0.95	0.9634	0.2407	0.023
Mof_C 	C 	0.871	0.9406	0.2332	0.054
Mof_C 	C 	0.8216	0.9044	0.2267	-0.09
Mof_H 	H 	0.8125	0.8714	0.2277	0.045
Mof_C 	C 	0.788	0.9173	0.2193	-0.021
Mof_H 	H 	0.7556	0.8931	0.2128	0.032
Mof_C 	C 	0.7994	0.9648	0.221	-0.038
Mof_H 	H 	0.7745	0.9724	0.2176	0.039
Mof_C 	C 	0.846	0.0012	0.2274	-0.081
Mof_H 	H 	0.8535	0.0337	0.2283	0.028
Mof_C 	C 	0.8828	0.9892	0.2326	0.043
Mof_Ag	Ag	0.56325	0.18401	0.56446	0.608
Mof_Ag	Ag	0.34403	0.96294	0.66363	0.61
Mof_N 	N 	0.42127	0.02943	0.64273	-0.171
Mof_N 	N 	0.50357	0.11283	0.60193	-0.178
Mof_C 	C 	0.46807	0.08743	0.56163	0.021
Mof_C 	C 	0.42647	0.04573	0.58263	0.018
Mof_C 	C 	0.45867	0.05443	0.68273	0.054
Mof_C 	C 	0.45537	0.03783	0.74753	-0.09
Mof_H 	H 	0.42787	0.00923	0.76123	0.045
Mof_C 	C 	0.49187	0.06333	0.78893	-0.022
Mof_H 	H 	0.48877	0.05303	0.83233	0.03
Mof_C 	C 	0.53437	0.10493	0.76913	-0.041
Mof_H 	H 	0.56017	0.12113	0.79853	0.037
Mof_C 	C 	0.53877	0.12253	0.70593	-0.078
Mof_H 	H 	0.56667	0.15083	0.69243	0.029
Mof_C 	C 	0.49987	0.09633	0.66363	0.039
Mof_N 	N 	0.51097	0.14433	0.47893	-0.173
Mof_N 	N 	0.43717	0.09123	0.39093	-0.179
Mof_C 	C 	0.43457	0.07683	0.45053	0.021
Mof_C 	C 	0.47267	0.10413	0.49653	0.02
Mof_C 	C 	0.51527	0.15963	0.41623	0.053
Mof_C 	C 	0.55507	0.20133	0.39753	-0.091
Mof_H 	H 	0.57967	0.21993	0.42743	0.043
Mof_C 	C 	0.55857	0.21553	0.33483	-0.021
Mof_H 	H 	0.58627	0.24443	0.32173	0.031
Mof_C 	C 	0.52407	0.19003	0.29083	-0.032
Mof_H 	H 	0.52817	0.20113	0.24773	0.034
Mof_C 	C 	0.48267	0.14793	0.30743	-0.082
Mof_H 	H 	0.45847	0.13043	0.27653	0.034
Mof_C 	C 	0.47757	0.13173	0.37193	0.044
Mof_N 	N 	0.35627	0.01103	0.43123	-0.176
Mof_N 	N 	0.34647	0.98113	0.55923	-0.181
Mof_C 	C 	0.38647	0.01873	0.53813	0.02
Mof_C 	C 	0.39027	0.03373	0.47233	0.025
Mof_C 	C 	0.31537	0.97173	0.45153	0.053
Mof_C 	C 	0.27777	0.94673	0.40873	-0.089
Mof_H 	H 	0.28037	0.95683	0.36533	0.04
Mof_C 	C 	0.23607	0.90653	0.43043	-0.029
Mof_H 	H 	0.21077	0.88893	0.40113	0.032
Mof_C 	C 	0.23117	0.89193	0.49393	-0.034
Mof_H 	H 	0.20247	0.86453	0.50753	0.035
Mof_C 	C 	0.26707	0.91643	0.53693	-0.08
Mof_H 	H 	0.26347	0.90643	0.58053	0.03
Mof_C 	C 	0.30977	0.95693	0.51633	0.04
Mof_N 	N 	0.57177	0.26183	0.57023	-0.172
Mof_N 	N 	0.59547	0.35773	0.56973	-0.18
Mof_C 	C 	0.62947	0.34563	0.57333	0.018
Mof_C 	C 	0.61667	0.29673	0.57403	0.023
Mof_C 	C 	0.53767	0.27393	0.56653	0.054
Mof_C 	C 	0.48827	0.23773	0.56003	-0.09
Mof_H 	H 	0.47917	0.20473	0.56103	0.045
Mof_C 	C 	0.45467	0.25063	0.55263	-0.02
Mof_H 	H 	0.42227	0.22643	0.54613	0.031
Mof_C 	C 	0.46607	0.29813	0.55433	-0.039
Mof_H 	H 	0.44117	0.30573	0.55093	0.039
Mof_C 	C 	0.51267	0.33453	0.56073	-0.08
Mof_H 	H 	0.52017	0.36703	0.56163	0.028
Mof_C 	C 	0.54947	0.32253	0.56593	0.042
Mof_Ag	Ag	0.22991	0.51735	0.8978	0.608
Mof_Ag	Ag	0.01069	0.29628	0.99697	0.61
Mof_N 	N 	0.08793	0.36277	0.97607	-0.171
Mof_N 	N 	0.17023	0.44617	0.93527	-0.178
Mof_C 	C 	0.13473	0.42077	0.89497	0.021
Mof_C 	C 	0.09313	0.37907	0.91597	0.018
Mof_C 	C 	0.12533	0.38777	0.01607	0.055
Mof_C 	C 	0.12203	0.37117	0.08087	-0.09
Mof_H 	H 	0.09453	0.34257	0.09457	0.045
Mof_C 	C 	0.15853	0.39667	0.12227	-0.021
Mof_H 	H 	0.15543	0.38637	0.16567	0.03
Mof_C 	C 	0.20103	0.43827	0.10247	-0.041
Mof_H 	H 	0.22683	0.45447	0.13187	0.037
Mof_C 	C 	0.20543	0.45587	0.03927	-0.077
Mof_H 	H 	0.23333	0.48417	0.02577	0.029
Mof_C 	C 	0.16653	0.42967	0.99697	0.039
Mof_N 	N 	0.17763	0.47767	0.81227	-0.173
Mof_N 	N 	0.10383	0.42457	0.72427	-0.179
Mof_C 	C 	0.10123	0.41017	0.78387	0.021
Mof_C 	C 	0.13933	0.43747	0.82987	0.02
Mof_C 	C 	0.18193	0.49297	0.74957	0.053
Mof_C 	C 	0.22173	0.53467	0.73087	-0.091
Mof_H 	H 	0.24633	0.55327	0.76077	0.043
Mof_C 	C 	0.22523	0.54887	0.66817	-0.021
Mof_H 	H 	0.25293	0.57777	0.65507	0.031
Mof_C 	C 	0.19073	0.52337	0.62417	-0.032
Mof_H 	H 	0.19483	0.53447	0.58107	0.034
Mof_C 	C 	0.14933	0.48127	0.64077	-0.082
Mof_H 	H 	0.12513	0.46377	0.60987	0.034
Mof_C 	C 	0.14423	0.46507	0.70527	0.044
Mof_N 	N 	0.02293	0.34437	0.76457	-0.176
Mof_N 	N 	0.01313	0.31447	0.89257	-0.181
Mof_C 	C 	0.05313	0.35207	0.87147	0.019
Mof_C 	C 	0.05693	0.36707	0.80567	0.025
Mof_C 	C 	0.98203	0.30507	0.78487	0.053
Mof_C 	C 	0.94443	0.28007	0.74207	-0.089
Mof_H 	H 	0.94703	0.29017	0.69867	0.04
Mof_C 	C 	0.90273	0.23987	0.76377	-0.029
Mof_H 	H 	0.87743	0.22227	0.73447	0.032
Mof_C 	C 	0.89783	0.22527	0.82727	-0.034
Mof_H 	H 	0.86913	0.19787	0.84087	0.035
Mof_C 	C 	0.93373	0.24977	0.87027	-0.08
Mof_H 	H 	0.93013	0.23977	0.91387	0.03
Mof_C 	C 	0.97643	0.29027	0.84967	0.04
Mof_N 	N 	0.23843	0.59517	0.90357	-0.172
Mof_N 	N 	0.26213	0.69107	0.90307	-0.18
Mof_C 	C 	0.29613	0.67897	0.90667	0.018
Mof_C 	C 	0.28333	0.63007	0.90737	0.023
Mof_C 	C 	0.20433	0.60727	0.89987	0.054
Mof_C 	C 	0.15493	0.57107	0.89337	-0.09
Mof_H 	H 	0.14583	0.53807	0.89437	0.045
Mof_C 	C 	0.12133	0.58397	0.88597	-0.02
Mof_H 	H 	0.08893	0.55977	0.87947	0.031
Mof_C 	C 	0.13273	0.63147	0.88767	-0.039
Mof_H 	H 	0.10783	0.63907	0.88427	0.039
Mof_C 	C 	0.17933	0.66787	0.89407	-0.08
Mof_H 	H 	0.18683	0.70037	0.89497	0.028
Mof_C 	C 	0.21613	0.65587	0.89927	0.042
Mof_Ag	Ag	0.85068	0.9541	0.76887	0.608
Mof_Ag	Ag	0.62961	0.95225	0.6697	0.61
Mof_N 	N 	0.6961	0.9415	0.6906	-0.171
Mof_N 	N 	0.7795	0.9426	0.7314	-0.178
Mof_C 	C 	0.7541	0.9527	0.7717	0.021
Mof_C 	C 	0.7124	0.9526	0.7507	0.018
Mof_C 	C 	0.7211	0.9291	0.6506	0.054
Mof_C 	C 	0.7045	0.9158	0.5858	-0.09
Mof_H 	H 	0.6759	0.9147	0.5721	0.045
Mof_C 	C 	0.73	0.9048	0.5444	-0.022
Mof_H 	H 	0.7197	0.8976	0.501	0.03
Mof_C 	C 	0.7716	0.9039	0.5642	-0.041
Mof_H 	H 	0.7878	0.8943	0.5348	0.037
Mof_C 	C 	0.7892	0.9171	0.6274	-0.078
Mof_H 	H 	0.8175	0.9175	0.6409	0.029
Mof_C 	C 	0.763	0.9298	0.6697	0.039
Mof_N 	N 	0.811	0.9667	0.8544	-0.173
Mof_N 	N 	0.7579	0.9874	0.9424	-0.179
Mof_C 	C 	0.7435	0.9756	0.8828	0.021
Mof_C 	C 	0.7708	0.9648	0.8368	0.02
Mof_C 	C 	0.8263	0.9777	0.9171	0.053
Mof_C 	C 	0.868	0.9796	0.9358	-0.09
Mof_H 	H 	0.8866	0.9736	0.9059	0.043
Mof_C 	C 	0.8822	0.9903	0.9985	-0.021
Mof_H 	H 	0.9111	0.9915	0.0116	0.031
Mof_C 	C 	0.8567	0.9993	0.0425	-0.032
Mof_H 	H 	0.8678	0.0063	0.0856	0.034
Mof_C 	C 	0.8146	0.9986	0.0259	-0.081
Mof_H 	H 	0.7971	0.0053	0.0568	0.034
Mof_C 	C 	0.7984	0.9875	0.9614	0.044
Mof_N 	N 	0.6777	0.9881	0.9021	-0.176
Mof_N 	N 	0.6478	0.968	0.7741	-0.181
Mof_C 	C 	0.6854	0.9656	0.7952	0.02
Mof_C 	C 	0.7004	0.9768	0.861	0.025
Mof_C 	C 	0.6384	0.9897	0.8818	0.052
Mof_C 	C 	0.6134	0.0023	0.9246	-0.088
Mof_H 	H 	0.6235	0.0098	0.968	0.04
Mof_C 	C 	0.5732	0.0038	0.9029	-0.028
Mof_H 	H 	0.5556	0.0115	0.9322	0.032
Mof_C 	C 	0.5586	0.9941	0.8394	-0.035
Mof_H 	H 	0.5312	0.9954	0.8258	0.035
Mof_C 	C 	0.5831	0.9827	0.7964	-0.08
Mof_H 	H 	0.5731	0.9763	0.7528	0.03
Mof_C 	C 	0.6236	0.9805	0.817	0.04
Mof_N 	N 	0.9285	0.0234	0.7631	-0.172
Mof_N 	N 	0.0244	0.0956	0.7636	-0.18
Mof_C 	C 	0.0123	0.0495	0.76	0.017
Mof_C 	C 	0.9634	0.0134	0.7593	0.024
Mof_C 	C 	0.9406	0.0696	0.7668	0.054
Mof_C 	C 	0.9044	0.0828	0.7733	-0.09
Mof_H 	H 	0.8714	0.0589	0.7723	0.045
Mof_C 	C 	0.9173	0.1293	0.7807	-0.021
Mof_H 	H 	0.8931	0.1375	0.7872	0.032
Mof_C 	C 	0.9648	0.1654	0.779	-0.038
Mof_H 	H 	0.9724	0.1979	0.7824	0.039
Mof_C 	C 	0.0012	0.1552	0.7726	-0.081
Mof_H 	H 	0.0337	0.1802	0.7717	0.028
Mof_C 	C 	0.9892	0.1064	0.7674	0.043
Mof_Ag	Ag	0.51735	0.28743	0.1022	0.608
Mof_Ag	Ag	0.29628	0.28558	0.00303	0.61
Mof_N 	N 	0.36277	0.27483	0.02393	-0.171
Mof_N 	N 	0.44617	0.27593	0.06473	-0.178
Mof_C 	C 	0.42077	0.28603	0.10503	0.021
Mof_C 	C 	0.37907	0.28593	0.08403	0.018
Mof_C 	C 	0.38777	0.26243	0.98393	0.054
Mof_C 	C 	0.37117	0.24913	0.91913	-0.09
Mof_H 	H 	0.34257	0.24803	0.90543	0.045
Mof_C 	C 	0.39667	0.23813	0.87773	-0.022
Mof_H 	H 	0.38637	0.23093	0.83433	0.03
Mof_C 	C 	0.43827	0.23723	0.89753	-0.041
Mof_H 	H 	0.45447	0.22763	0.86813	0.037
Mof_C 	C 	0.45587	0.25043	0.96073	-0.078
Mof_H 	H 	0.48417	0.25083	0.97423	0.029
Mof_C 	C 	0.42967	0.26313	0.00303	0.039
Mof_N 	N 	0.47767	0.30003	0.18773	-0.173
Mof_N 	N 	0.42457	0.32073	0.27573	-0.179
Mof_C 	C 	0.41017	0.30893	0.21613	0.021
Mof_C 	C 	0.43747	0.29813	0.17013	0.02
Mof_C 	C 	0.49297	0.31103	0.25043	0.053
Mof_C 	C 	0.53467	0.31293	0.26913	-0.091
Mof_H 	H 	0.55327	0.30693	0.23923	0.043
Mof_C 	C 	0.54887	0.32363	0.33183	-0.021
Mof_H 	H 	0.57777	0.32483	0.34493	0.031
Mof_C 	C 	0.52337	0.33263	0.37583	-0.033
Mof_H 	H 	0.53447	0.33963	0.41893	0.034
Mof_C 	C 	0.48127	0.33193	0.35923	-0.082
Mof_H 	H 	0.46377	0.33863	0.39013	0.034
Mof_C 	C 	0.46507	0.32083	0.29473	0.044
Mof_N 	N 	0.34437	0.32143	0.23543	-0.176
Mof_N 	N 	0.31447	0.30133	0.10743	-0.181
Mof_C 	C 	0.35207	0.29893	0.12853	0.02
Mof_C 	C 	0.36707	0.31013	0.19433	0.025
Mof_C 	C 	0.30507	0.32303	0.21513	0.052
Mof_C 	C 	0.28007	0.33563	0.25793	-0.089
Mof_H 	H 	0.29017	0.34313	0.30133	0.04
Mof_C 	C 	0.23987	0.33713	0.23623	-0.029
Mof_H 	H 	0.22227	0.34483	0.26553	0.032
Mof_C 	C 	0.22527	0.32743	0.17273	-0.034
Mof_H 	H 	0.19787	0.32873	0.15913	0.035
Mof_C 	C 	0.24977	0.31603	0.12973	-0.08
Mof_H 	H 	0.23977	0.30963	0.08613	0.03
Mof_C 	C 	0.29027	0.31383	0.15033	0.04
Mof_N 	N 	0.59517	0.35673	0.09643	-0.172
Mof_N 	N 	0.69107	0.42893	0.09693	-0.18
Mof_C 	C 	0.67897	0.38283	0.09333	0.018
Mof_C 	C 	0.63007	0.34673	0.09263	0.023
Mof_C 	C 	0.60727	0.40293	0.10013	0.054
Mof_C 	C 	0.57107	0.41613	0.10663	-0.09
Mof_H 	H 	0.53807	0.39223	0.10563	0.045
Mof_C 	C 	0.58397	0.46263	0.11403	-0.02
Mof_H 	H 	0.55977	0.47083	0.12053	0.031
Mof_C 	C 	0.63147	0.49873	0.11233	-0.039
Mof_H 	H 	0.63907	0.53123	0.11573	0.039
Mof_C 	C 	0.66787	0.48853	0.10593	-0.08
Mof_H 	H 	0.70037	0.51353	0.10503	0.028
Mof_C 	C 	0.65587	0.43973	0.10073	0.042
Mof_Ag	Ag	0.18401	0.62077	0.43554	0.608
Mof_Ag	Ag	0.96294	0.61892	0.33637	0.61
Mof_N 	N 	0.02943	0.60817	0.35727	-0.171
Mof_N 	N 	0.11283	0.60927	0.39807	-0.178
Mof_C 	C 	0.08743	0.61937	0.43837	0.021
Mof_C 	C 	0.04573	0.61927	0.41737	0.018
Mof_C 	C 	0.05443	0.59577	0.31727	0.054
Mof_C 	C 	0.03783	0.58247	0.25247	-0.09
Mof_H 	H 	0.00923	0.58137	0.23877	0.045
Mof_C 	C 	0.06333	0.57147	0.21107	-0.022
Mof_H 	H 	0.05303	0.56427	0.16767	0.03
Mof_C 	C 	0.10493	0.57057	0.23087	-0.041
Mof_H 	H 	0.12113	0.56097	0.20147	0.037
Mof_C 	C 	0.12253	0.58377	0.29407	-0.078
Mof_H 	H 	0.15083	0.58417	0.30757	0.029
Mof_C 	C 	0.09633	0.59647	0.33637	0.039
Mof_N 	N 	0.14433	0.63337	0.52107	-0.173
Mof_N 	N 	0.09123	0.65407	0.60907	-0.179
Mof_C 	C 	0.07683	0.64227	0.54947	0.021
Mof_C 	C 	0.10413	0.63147	0.50347	0.02
Mof_C 	C 	0.15963	0.64437	0.58377	0.053
Mof_C 	C 	0.20133	0.64627	0.60247	-0.091
Mof_H 	H 	0.21993	0.64027	0.57257	0.043
Mof_C 	C 	0.21553	0.65697	0.66517	-0.021
Mof_H 	H 	0.24443	0.65817	0.67827	0.031
Mof_C 	C 	0.19003	0.66597	0.70917	-0.032
Mof_H 	H 	0.20113	0.67297	0.75227	0.034
Mof_C 	C 	0.14793	0.66527	0.69257	-0.082
Mof_H 	H 	0.13043	0.67197	0.72347	0.034
Mof_C 	C 	0.13173	0.65417	0.62807	0.044
Mof_N 	N 	0.01103	0.65477	0.56877	-0.176
Mof_N 	N 	0.98113	0.63467	0.44077	-0.181
Mof_C 	C 	0.01873	0.63227	0.46187	0.02
Mof_C 	C 	0.03373	0.64347	0.52767	0.025
Mof_C 	C 	0.97173	0.65637	0.54847	0.053
Mof_C 	C 	0.94673	0.66897	0.59127	-0.089
Mof_H 	H 	0.95683	0.67647	0.63467	0.04
Mof_C 	C 	0.90653	0.67047	0.56957	-0.029
Mof_H 	H 	0.88893	0.67817	0.59887	0.032
Mof_C 	C 	0.89193	0.66077	0.50607	-0.034
Mof_H 	H 	0.86453	0.66207	0.49247	0.035
Mof_C 	C 	0.91643	0.64937	0.46307	-0.08
Mof_H 	H 	0.90643	0.64297	0.41947	0.03
Mof_C 	C 	0.95693	0.64717	0.48367	0.04
Mof_N 	N 	0.26183	0.69007	0.42977	-0.172
Mof_N 	N 	0.35773	0.76227	0.43027	-0.18
Mof_C 	C 	0.34563	0.71617	0.42667	0.018
Mof_C 	C 	0.29673	0.68007	0.42597	0.023
Mof_C 	C 	0.27393	0.73627	0.43347	0.054
Mof_C 	C 	0.23773	0.74947	0.43997	-0.09
Mof_H 	H 	0.20473	0.72557	0.43897	0.045
Mof_C 	C 	0.25063	0.79597	0.44737	-0.02
Mof_H 	H 	0.22643	0.80417	0.45387	0.031
Mof_C 	C 	0.29813	0.83207	0.44567	-0.039
Mof_H 	H 	0.30573	0.86457	0.44907	0.039
Mof_C 	C 	0.33453	0.82187	0.43927	-0.08
Mof_H 	H 	0.36703	0.84687	0.43837	0.028
Mof_C 	C 	0.32253	0.77307	0.43407	0.042
Mof_Ag	Ag	0.0459	0.89658	0.76887	0.608
Mof_Ag	Ag	0.04775	0.67736	0.6697	0.61
Mof_N 	N 	0.0585	0.7546	0.6906	-0.171
Mof_N 	N 	0.0574	0.8369	0.7314	-0.178
Mof_C 	C 	0.0473	0.8014	0.7717	0.021
Mof_C 	C 	0.0474	0.7598	0.7507	0.018
Mof_C 	C 	0.0709	0.792	0.6506	0.054
Mof_C 	C 	0.0842	0.7887	0.5858	-0.09
Mof_H 	H 	0.0853	0.7612	0.5721	0.045
Mof_C 	C 	0.0952	0.8252	0.5444	-0.022
Mof_H 	H 	0.1024	0.8221	0.501	0.03
Mof_C 	C 	0.0961	0.8677	0.5642	-0.041
Mof_H 	H 	0.1057	0.8935	0.5348	0.037
Mof_C 	C 	0.0829	0.8721	0.6274	-0.078
Mof_H 	H 	0.0825	0.9	0.6409	0.029
Mof_C 	C 	0.0702	0.8332	0.6697	0.039
Mof_N 	N 	0.0333	0.8443	0.8544	-0.173
Mof_N 	N 	0.0126	0.7705	0.9424	-0.179
Mof_C 	C 	0.0244	0.7679	0.8828	0.021
Mof_C 	C 	0.0352	0.806	0.8368	0.02
Mof_C 	C 	0.0223	0.8486	0.9171	0.052
Mof_C 	C 	0.0204	0.8884	0.9358	-0.088
Mof_H 	H 	0.0264	0.913	0.9059	0.042
Mof_C 	C 	0.0097	0.8919	0.9985	-0.025
Mof_H 	H 	0.0085	0.9196	0.0116	0.033
Mof_C 	C 	0.0007	0.8574	0.0425	-0.029
Mof_H 	H 	0.9937	0.8615	0.0856	0.033
Mof_C 	C 	0.0014	0.816	0.0259	-0.082
Mof_H 	H 	0.9947	0.7918	0.0568	0.034
Mof_C 	C 	0.0125	0.8109	0.9614	0.044
Mof_N 	N 	0.0119	0.6896	0.9021	-0.176
Mof_N 	N 	0.032	0.6798	0.7741	-0.181
Mof_C 	C 	0.0344	0.7198	0.7952	0.02
Mof_C 	C 	0.0232	0.7236	0.861	0.025
Mof_C 	C 	0.0103	0.6487	0.8818	0.052
Mof_C 	C 	0.9977	0.6111	0.9246	-0.088
Mof_H 	H 	0.9902	0.6137	0.968	0.04
Mof_C 	C 	0.9962	0.5694	0.9029	-0.028
Mof_H 	H 	0.9885	0.5441	0.9322	0.032
Mof_C 	C 	0.0059	0.5645	0.8394	-0.035
Mof_H 	H 	0.0046	0.5358	0.8258	0.035
Mof_C 	C 	0.0173	0.6004	0.7964	-0.08
Mof_H 	H 	0.0237	0.5968	0.7528	0.03
Mof_C 	C 	0.0195	0.6431	0.817	0.04
Mof_N 	N 	0.9766	0.9051	0.7631	-0.172
Mof_N 	N 	0.9044	0.9288	0.7636	-0.18
Mof_C 	C 	0.9505	0.9628	0.76	0.017
Mof_C 	C 	0.9866	0.95	0.7593	0.024
Mof_C 	C 	0.9304	0.871	0.7668	0.054
Mof_C 	C 	0.9172	0.8216	0.7733	-0.09
Mof_H 	H 	0.9411	0.8125	0.7723	0.045
Mof_C 	C 	0.8707	0.788	0.7807	-0.02
Mof_H 	H 	0.8625	0.7556	0.7872	0.031
Mof_C 	C 	0.8346	0.7994	0.779	-0.039
Mof_H 	H 	0.8021	0.7745	0.7824	0.039
Mof_C 	C 	0.8448	0.846	0.7726	-0.08
Mof_H 	H 	0.8198	0.8535	0.7717	0.028
Mof_C 	C 	0.8936	0.8828	0.7674	0.042
Mof_Ag	Ag	0.71257	0.22991	0.1022	0.608
Mof_Ag	Ag	0.71442	0.01069	0.00303	0.609
Mof_N 	N 	0.72517	0.08793	0.02393	-0.171
Mof_N 	N 	0.72407	0.17023	0.06473	-0.178
Mof_C 	C 	0.71397	0.13473	0.10503	0.021
Mof_C 	C 	0.71407	0.09313	0.08403	0.019
Mof_C 	C 	0.73757	0.12533	0.98393	0.055
Mof_C 	C 	0.75087	0.12203	0.91913	-0.091
Mof_H 	H 	0.75197	0.09453	0.90543	0.046
Mof_C 	C 	0.76187	0.15853	0.87773	-0.021
Mof_H 	H 	0.76907	0.15543	0.83433	0.03
Mof_C 	C 	0.76277	0.20103	0.89753	-0.041
Mof_H 	H 	0.77237	0.22683	0.86813	0.037
Mof_C 	C 	0.74957	0.20543	0.96073	-0.077
Mof_H 	H 	0.74917	0.23333	0.97423	0.029
Mof_C 	C 	0.73687	0.16653	0.00303	0.038
Mof_N 	N 	0.69997	0.17763	0.18773	-0.173
Mof_N 	N 	0.67927	0.10383	0.27573	-0.179
Mof_C 	C 	0.69107	0.10123	0.21613	0.021
Mof_C 	C 	0.70187	0.13933	0.17013	0.02
Mof_C 	C 	0.68897	0.18193	0.25043	0.053
Mof_C 	C 	0.68707	0.22173	0.26913	-0.091
Mof_H 	H 	0.69307	0.24633	0.23923	0.043
Mof_C 	C 	0.67637	0.22523	0.33183	-0.021
Mof_H 	H 	0.67517	0.25293	0.34493	0.031
Mof_C 	C 	0.66737	0.19073	0.37583	-0.033
Mof_H 	H 	0.66037	0.19483	0.41893	0.034
Mof_C 	C 	0.66807	0.14933	0.35923	-0.082
Mof_H 	H 	0.66137	0.12513	0.39013	0.034
Mof_C 	C 	0.67917	0.14423	0.29473	0.044
Mof_N 	N 	0.67857	0.02293	0.23543	-0.176
Mof_N 	N 	0.69867	0.01313	0.10743	-0.181
Mof_C 	C 	0.70107	0.05313	0.12853	0.019
Mof_C 	C 	0.68987	0.05693	0.19433	0.025
Mof_C 	C 	0.67697	0.98203	0.21513	0.053
Mof_C 	C 	0.66437	0.94443	0.25793	-0.089
Mof_H 	H 	0.65687	0.94703	0.30133	0.04
Mof_C 	C 	0.66287	0.90273	0.23623	-0.029
Mof_H 	H 	0.65517	0.87743	0.26553	0.032
Mof_C 	C 	0.67257	0.89783	0.17273	-0.034
Mof_H 	H 	0.67127	0.86913	0.15913	0.035
Mof_C 	C 	0.68397	0.93373	0.12973	-0.08
Mof_H 	H 	0.69037	0.93013	0.08613	0.03
Mof_C 	C 	0.68617	0.97643	0.15033	0.04
Mof_N 	N 	0.64327	0.23843	0.09643	-0.172
Mof_N 	N 	0.57107	0.26213	0.09693	-0.18
Mof_C 	C 	0.61717	0.29613	0.09333	0.018
Mof_C 	C 	0.65327	0.28333	0.09263	0.023
Mof_C 	C 	0.59707	0.20433	0.10013	0.054
Mof_C 	C 	0.58387	0.15493	0.10663	-0.09
Mof_H 	H 	0.60777	0.14583	0.10563	0.045
Mof_C 	C 	0.53737	0.12133	0.11403	-0.02
Mof_H 	H 	0.52917	0.08893	0.12053	0.031
Mof_C 	C 	0.50127	0.13273	0.11233	-0.039
Mof_H 	H 	0.46877	0.10783	0.11573	0.039
Mof_C 	C 	0.51147	0.17933	0.10593	-0.08
Mof_H 	H 	0.48647	0.18683	0.10503	0.028
Mof_C 	C 	0.56027	0.21613	0.10073	0.042
Mof_Ag	Ag	0.37923	0.56325	0.43554	0.608
Mof_Ag	Ag	0.38108	0.34403	0.33637	0.61
Mof_N 	N 	0.39183	0.42127	0.35727	-0.171
Mof_N 	N 	0.39073	0.50357	0.39807	-0.178
Mof_C 	C 	0.38063	0.46807	0.43837	0.021
Mof_C 	C 	0.38073	0.42647	0.41737	0.018
Mof_C 	C 	0.40423	0.45867	0.31727	0.054
Mof_C 	C 	0.41753	0.45537	0.25247	-0.09
Mof_H 	H 	0.41863	0.42787	0.23877	0.045
Mof_C 	C 	0.42853	0.49187	0.21107	-0.022
Mof_H 	H 	0.43573	0.48877	0.16767	0.03
Mof_C 	C 	0.42943	0.53437	0.23087	-0.041
Mof_H 	H 	0.43903	0.56017	0.20147	0.037
Mof_C 	C 	0.41623	0.53877	0.29407	-0.078
Mof_H 	H 	0.41583	0.56667	0.30757	0.029
Mof_C 	C 	0.40353	0.49987	0.33637	0.039
Mof_N 	N 	0.36663	0.51097	0.52107	-0.173
Mof_N 	N 	0.34593	0.43717	0.60907	-0.179
Mof_C 	C 	0.35773	0.43457	0.54947	0.021
Mof_C 	C 	0.36853	0.47267	0.50347	0.02
Mof_C 	C 	0.35563	0.51527	0.58377	0.053
Mof_C 	C 	0.35373	0.55507	0.60247	-0.091
Mof_H 	H 	0.35973	0.57967	0.57257	0.043
Mof_C 	C 	0.34303	0.55857	0.66517	-0.021
Mof_H 	H 	0.34183	0.58627	0.67827	0.031
Mof_C 	C 	0.33403	0.52407	0.70917	-0.032
Mof_H 	H 	0.32703	0.52817	0.75227	0.034
Mof_C 	C 	0.33473	0.48267	0.69257	-0.082
Mof_H 	H 	0.32803	0.45847	0.72347	0.034
Mof_C 	C 	0.34583	0.47757	0.62807	0.044
Mof_N 	N 	0.34523	0.35627	0.56877	-0.176
Mof_N 	N 	0.36533	0.34647	0.44077	-0.181
Mof_C 	C 	0.36773	0.38647	0.46187	0.02
Mof_C 	C 	0.35653	0.39027	0.52767	0.025
Mof_C 	C 	0.34363	0.31537	0.54847	0.052
Mof_C 	C 	0.33103	0.27777	0.59127	-0.089
Mof_H 	H 	0.32353	0.28037	0.63467	0.04
Mof_C 	C 	0.32953	0.23607	0.56957	-0.029
Mof_H 	H 	0.32183	0.21077	0.59887	0.032
Mof_C 	C 	0.33923	0.23117	0.50607	-0.034
Mof_H 	H 	0.33793	0.20247	0.49247	0.035
Mof_C 	C 	0.35063	0.26707	0.46307	-0.08
Mof_H 	H 	0.35703	0.26347	0.41947	0.03
Mof_C 	C 	0.35283	0.30977	0.48367	0.04
Mof_N 	N 	0.30993	0.57177	0.42977	-0.172
Mof_N 	N 	0.23773	0.59547	0.43027	-0.18
Mof_C 	C 	0.28383	0.62947	0.42667	0.018
Mof_C 	C 	0.31993	0.61667	0.42597	0.023
Mof_C 	C 	0.26373	0.53767	0.43347	0.054
Mof_C 	C 	0.25053	0.48827	0.43997	-0.09
Mof_H 	H 	0.27443	0.47917	0.43897	0.045
Mof_C 	C 	0.20403	0.45467	0.44737	-0.02
Mof_H 	H 	0.19583	0.42227	0.45387	0.031
Mof_C 	C 	0.16793	0.46607	0.44567	-0.039
Mof_H 	H 	0.13543	0.44117	0.44907	0.039
Mof_C 	C 	0.17813	0.51267	0.43927	-0.08
Mof_H 	H 	0.15313	0.52017	0.43837	0.028
Mof_C 	C 	0.22693	0.54947	0.43407	0.042
Mof_Ag	Ag	0.10342	0.14932	0.76887	0.608
Mof_Ag	Ag	0.32264	0.37039	0.6697	0.61
Mof_N 	N 	0.2454	0.3039	0.6906	-0.171
Mof_N 	N 	0.1631	0.2205	0.7314	-0.178
Mof_C 	C 	0.1986	0.2459	0.7717	0.021
Mof_C 	C 	0.2402	0.2876	0.7507	0.018
Mof_C 	C 	0.208	0.2789	0.6506	0.054
Mof_C 	C 	0.2113	0.2955	0.5858	-0.09
Mof_H 	H 	0.2388	0.3241	0.5721	0.045
Mof_C 	C 	0.1748	0.27	0.5444	-0.022
Mof_H 	H 	0.1779	0.2803	0.501	0.03
Mof_C 	C 	0.1323	0.2284	0.5642	-0.041
Mof_H 	H 	0.1065	0.2122	0.5348	0.037
Mof_C 	C 	0.1279	0.2108	0.6274	-0.078
Mof_H 	H 	0.1	0.1825	0.6409	0.029
Mof_C 	C 	0.1668	0.237	0.6697	0.039
Mof_N 	N 	0.1557	0.189	0.8544	-0.173
Mof_N 	N 	0.2295	0.2421	0.9424	-0.179
Mof_C 	C 	0.2321	0.2565	0.8828	0.021
Mof_C 	C 	0.194	0.2292	0.8368	0.02
Mof_C 	C 	0.1514	0.1737	0.9171	0.053
Mof_C 	C 	0.1116	0.132	0.9358	-0.091
Mof_H 	H 	0.087	0.1134	0.9059	0.043
Mof_C 	C 	0.1081	0.1178	0.9985	-0.02
Mof_H 	H 	0.0804	0.0889	0.0116	0.031
Mof_C 	C 	0.1426	0.1433	0.0425	-0.033
Mof_H 	H 	0.1385	0.1322	0.0856	0.034
Mof_C 	C 	0.184	0.1854	0.0259	-0.082
Mof_H 	H 	0.2082	0.2029	0.0568	0.034
Mof_C 	C 	0.1891	0.2016	0.9614	0.044
Mof_N 	N 	0.3104	0.3223	0.9021	-0.176
Mof_N 	N 	0.3202	0.3522	0.7741	-0.181
Mof_C 	C 	0.2802	0.3146	0.7952	0.02
Mof_C 	C 	0.2764	0.2996	0.861	0.025
Mof_C 	C 	0.3513	0.3616	0.8818	0.052
Mof_C 	C 	0.3889	0.3866	0.9246	-0.089
Mof_H 	H 	0.3863	0.3765	0.968	0.04
Mof_C 	C 	0.4306	0.4268	0.9029	-0.029
Mof_H 	H 	0.4559	0.4444	0.9322	0.032
Mof_C 	C 	0.4355	0.4414	0.8394	-0.034
Mof_H 	H 	0.4642	0.4688	0.8258	0.035
Mof_C 	C 	0.3996	0.4169	0.7964	-0.08
Mof_H 	H 	0.4032	0.4269	0.7528	0.03
Mof_C 	C 	0.3569	0.3764	0.817	0.04
Mof_N 	N 	0.0949	0.0715	0.7631	-0.172
Mof_N 	N 	0.0712	0.9756	0.7636	-0.18
Mof_C 	C 	0.0372	0.9877	0.76	0.017
Mof_C 	C 	0.05	0.0366	0.7593	0.023
Mof_C 	C 	0.129	0.0594	0.7668	0.054
Mof_C 	C 	0.1784	0.0956	0.7733	-0.09
Mof_H 	H 	0.1875	0.1286	0.7723	0.045
Mof_C 	C 	0.212	0.0827	0.7807	-0.021
Mof_H 	H 	0.2444	0.1069	0.7872	0.032
Mof_C 	C 	0.2006	0.0352	0.779	-0.038
Mof_H 	H 	0.2255	0.0276	0.7824	0.039
Mof_C 	C 	0.154	0.9988	0.7726	-0.081
Mof_H 	H 	0.1465	0.9663	0.7717	0.028
Mof_C 	C 	0.1172	0.0108	0.7674	0.043
Mof_Ag	Ag	0.77009	0.48265	0.1022	0.608
Mof_Ag	Ag	0.98931	0.70372	0.00303	0.61
Mof_N 	N 	0.91207	0.63723	0.02393	-0.171
Mof_N 	N 	0.82977	0.55383	0.06473	-0.178
Mof_C 	C 	0.86527	0.57923	0.10503	0.021
Mof_C 	C 	0.90687	0.62093	0.08403	0.018
Mof_C 	C 	0.87467	0.61223	0.98393	0.055
Mof_C 	C 	0.87797	0.62883	0.91913	-0.09
Mof_H 	H 	0.90547	0.65743	0.90543	0.045
Mof_C 	C 	0.84147	0.60333	0.87773	-0.021
Mof_H 	H 	0.84457	0.61363	0.83433	0.03
Mof_C 	C 	0.79897	0.56173	0.89753	-0.041
Mof_H 	H 	0.77317	0.54553	0.86813	0.037
Mof_C 	C 	0.79457	0.54413	0.96073	-0.077
Mof_H 	H 	0.76667	0.51583	0.97423	0.029
Mof_C 	C 	0.83347	0.57033	0.00303	0.039
Mof_N 	N 	0.82237	0.52233	0.18773	-0.173
Mof_N 	N 	0.89617	0.57543	0.27573	-0.179
Mof_C 	C 	0.89877	0.58983	0.21613	0.021
Mof_C 	C 	0.86067	0.56253	0.17013	0.02
Mof_C 	C 	0.81807	0.50703	0.25043	0.053
Mof_C 	C 	0.77827	0.46533	0.26913	-0.091
Mof_H 	H 	0.75367	0.44673	0.23923	0.043
Mof_C 	C 	0.77477	0.45113	0.33183	-0.021
Mof_H 	H 	0.74707	0.42223	0.34493	0.031
Mof_C 	C 	0.80927	0.47663	0.37583	-0.032
Mof_H 	H 	0.80517	0.46553	0.41893	0.034
Mof_C 	C 	0.85067	0.51873	0.35923	-0.082
Mof_H 	H 	0.87487	0.53623	0.39013	0.034
Mof_C 	C 	0.85577	0.53493	0.29473	0.044
Mof_N 	N 	0.97707	0.65563	0.23543	-0.176
Mof_N 	N 	0.98687	0.68553	0.10743	-0.181
Mof_C 	C 	0.94687	0.64793	0.12853	0.019
Mof_C 	C 	0.94307	0.63293	0.19433	0.025
Mof_C 	C 	0.01797	0.69493	0.21513	0.053
Mof_C 	C 	0.05557	0.71993	0.25793	-0.089
Mof_H 	H 	0.05297	0.70983	0.30133	0.04
Mof_C 	C 	0.09727	0.76013	0.23623	-0.029
Mof_H 	H 	0.12257	0.77773	0.26553	0.032
Mof_C 	C 	0.10217	0.77473	0.17273	-0.034
Mof_H 	H 	0.13087	0.80213	0.15913	0.035
Mof_C 	C 	0.06627	0.75023	0.12973	-0.08
Mof_H 	H 	0.06987	0.76023	0.08613	0.03
Mof_C 	C 	0.02357	0.70973	0.15033	0.04
Mof_N 	N 	0.76157	0.40483	0.09643	-0.172
Mof_N 	N 	0.73787	0.30893	0.09693	-0.18
Mof_C 	C 	0.70387	0.32103	0.09333	0.018
Mof_C 	C 	0.71667	0.36993	0.09263	0.023
Mof_C 	C 	0.79567	0.39273	0.10013	0.054
Mof_C 	C 	0.84507	0.42893	0.10663	-0.09
Mof_H 	H 	0.85417	0.46193	0.10563	0.045
Mof_C 	C 	0.87867	0.41603	0.11403	-0.02
Mof_H 	H 	0.91107	0.44023	0.12053	0.031
Mof_C 	C 	0.86727	0.36853	0.11233	-0.039
Mof_H 	H 	0.89217	0.36093	0.11573	0.039
Mof_C 	C 	0.82067	0.33213	0.10593	-0.08
Mof_H 	H 	0.81317	0.29963	0.10503	0.028
Mof_C 	C 	0.78387	0.34413	0.10073	0.042
Mof_Ag	Ag	0.43675	0.81599	0.43554	0.608
Mof_Ag	Ag	0.65597	0.03706	0.33637	0.61
Mof_N 	N 	0.57873	0.97057	0.35727	-0.171
Mof_N 	N 	0.49643	0.88717	0.39807	-0.178
Mof_C 	C 	0.53193	0.91257	0.43837	0.021
Mof_C 	C 	0.57353	0.95427	0.41737	0.018
Mof_C 	C 	0.54133	0.94557	0.31727	0.054
Mof_C 	C 	0.54463	0.96217	0.25247	-0.09
Mof_H 	H 	0.57213	0.99077	0.23877	0.045
Mof_C 	C 	0.50813	0.93667	0.21107	-0.022
Mof_H 	H 	0.51123	0.94697	0.16767	0.03
Mof_C 	C 	0.46563	0.89507	0.23087	-0.041
Mof_H 	H 	0.43983	0.87887	0.20147	0.037
Mof_C 	C 	0.46123	0.87747	0.29407	-0.078
Mof_H 	H 	0.43333	0.84917	0.30757	0.029
Mof_C 	C 	0.50013	0.90367	0.33637	0.039
Mof_N 	N 	0.48903	0.85567	0.52107	-0.173
Mof_N 	N 	0.56283	0.90877	0.60907	-0.179
Mof_C 	C 	0.56543	0.92317	0.54947	0.021
Mof_C 	C 	0.52733	0.89587	0.50347	0.02
Mof_C 	C 	0.48473	0.84037	0.58377	0.053
Mof_C 	C 	0.44493	0.79867	0.60247	-0.091
Mof_H 	H 	0.42033	0.78007	0.57257	0.043
Mof_C 	C 	0.44143	0.78447	0.66517	-0.021
Mof_H 	H 	0.41373	0.75557	0.67827	0.031
Mof_C 	C 	0.47593	0.80997	0.70917	-0.032
Mof_H 	H 	0.47183	0.79887	0.75227	0.034
Mof_C 	C 	0.51733	0.85207	0.69257	-0.082
Mof_H 	H 	0.54153	0.86957	0.72347	0.034
Mof_C 	C 	0.52243	0.86827	0.62807	0.044
Mof_N 	N 	0.64373	0.98897	0.56877	-0.176
Mof_N 	N 	0.65353	0.01887	0.44077	-0.181
Mof_C 	C 	0.61353	0.98127	0.46187	0.02
Mof_C 	C 	0.60973	0.96627	0.52767	0.025
Mof_C 	C 	0.68463	0.02827	0.54847	0.053
Mof_C 	C 	0.72223	0.05327	0.59127	-0.089
Mof_H 	H 	0.71963	0.04317	0.63467	0.04
Mof_C 	C 	0.76393	0.09347	0.56957	-0.029
Mof_H 	H 	0.78923	0.11107	0.59887	0.032
Mof_C 	C 	0.76883	0.10807	0.50607	-0.034
Mof_H 	H 	0.79753	0.13547	0.49247	0.035
Mof_C 	C 	0.73293	0.08357	0.46307	-0.08
Mof_H 	H 	0.73653	0.09357	0.41947	0.03
Mof_C 	C 	0.69023	0.04307	0.48367	0.04
Mof_N 	N 	0.42823	0.73817	0.42977	-0.172
Mof_N 	N 	0.40453	0.64227	0.43027	-0.18
Mof_C 	C 	0.37053	0.65437	0.42667	0.018
Mof_C 	C 	0.38333	0.70327	0.42597	0.023
Mof_C 	C 	0.46233	0.72607	0.43347	0.054
Mof_C 	C 	0.51173	0.76227	0.43997	-0.09
Mof_H 	H 	0.52083	0.79527	0.43897	0.045
Mof_C 	C 	0.54533	0.74937	0.44737	-0.02
Mof_H 	H 	0.57773	0.77357	0.45387	0.031
Mof_C 	C 	0.53393	0.70187	0.44567	-0.039
Mof_H 	H 	0.55883	0.69427	0.44907	0.039
Mof_C 	C 	0.48733	0.66547	0.43927	-0.08
Mof_H 	H 	0.47983	0.63297	0.43837	0.028
Mof_C 	C 	0.45053	0.67747	0.43407	0.042
_end
