# CIF file generated by openbabel 3.1.0, see https://openbabel.org
data_I
_chemical_name_common 'image0'
_cell_length_a 15.1133
_cell_length_b 15.1133
_cell_length_c 12.0327
_cell_angle_alpha 90
_cell_angle_beta 90
_cell_angle_gamma 90
_space_group_name_H-M_alt 'P 1'
_space_group_name_Hall 'P 1'
loop_
    _symmetry_equiv_pos_as_xyz
    x,y,z
loop_
    _atom_site_label
    _atom_site_type_symbol
    _atom_site_fract_x
    _atom_site_fract_y
    _atom_site_fract_z
    _atom_site_occupancy
    O1       O        0.60088    0.28965    0.75599    1.000
    O2       O        0.61803    0.37995    0.60896    1.000
    C1       C        0.59123    0.36045    0.70242    1.000
    C2       C        0.54327    0.43316    0.76017    1.000
    C3       C        0.54678    0.43276    0.87918    1.000
    H1       H        0.57318    0.38162    0.90735    1.000
    O3       O        0.10088    0.78965    0.25599    1.000
    O4       O        0.11803    0.87995    0.10896    1.000
    C4       C        0.09123    0.86045    0.20242    1.000
    C5       C        0.04327    0.93316    0.26017    1.000
    C6       C        0.04678    0.93276    0.37918    1.000
    H2       H        0.07318    0.88162    0.40735    1.000
    O5       O        0.89912    0.21035    0.25599    1.000
    O6       O        0.88197    0.12005    0.10896    1.000
    C7       C        0.90877    0.13955    0.20242    1.000
    C8       C        0.95673    0.06684    0.26017    1.000
    C9       C        0.95322    0.06724    0.37918    1.000
    H3       H        0.92682    0.11838    0.40735    1.000
    O7       O        0.39912    0.71035    0.75599    1.000
    O8       O        0.38197    0.62005    0.60896    1.000
    C10      C        0.40877    0.63955    0.70242    1.000
    C11      C        0.45673    0.56684    0.76017    1.000
    C12      C        0.45322    0.56724    0.87918    1.000
    H4       H        0.42682    0.61838    0.90735    1.000
    O9       O        0.71035    0.10088    0.00599    1.000
    O10      O        0.62005    0.11803    0.85896    1.000
    C13      C        0.63955    0.09123    0.95242    1.000
    C14      C        0.56684    0.04327    0.01017    1.000
    C15      C        0.56724    0.04678    0.12918    1.000
    H5       H        0.61838    0.07318    0.15735    1.000
    O11      O        0.21035    0.60088    0.50599    1.000
    O12      O        0.12005    0.61803    0.35896    1.000
    C16      C        0.13955    0.59123    0.45242    1.000
    C17      C        0.06684    0.54327    0.51017    1.000
    C18      C        0.06724    0.54678    0.62918    1.000
    H6       H        0.11838    0.57318    0.65735    1.000
    O13      O        0.78965    0.39912    0.50599    1.000
    O14      O        0.87995    0.38197    0.35896    1.000
    C19      C        0.86045    0.40877    0.45242    1.000
    C20      C        0.93316    0.45673    0.51017    1.000
    C21      C        0.93276    0.45322    0.62918    1.000
    H7       H        0.88162    0.42682    0.65735    1.000
    O15      O        0.28965    0.89912    0.00599    1.000
    O16      O        0.37995    0.88197    0.85896    1.000
    C22      C        0.36045    0.90877    0.95242    1.000
    C23      C        0.43316    0.95673    0.01017    1.000
    C24      C        0.43276    0.95322    0.12918    1.000
    H8       H        0.38162    0.92682    0.15735    1.000
    O17      O        0.89912    0.28965    0.99401    1.000
    O18      O        0.88197    0.37995    0.14104    1.000
    C25      C        0.90877    0.36045    0.04758    1.000
    C26      C        0.95673    0.43316    0.98983    1.000
    C27      C        0.95322    0.43276    0.87082    1.000
    H9       H        0.92682    0.38162    0.84265    1.000
    O19      O        0.39912    0.78965    0.49401    1.000
    O20      O        0.38197    0.87995    0.64104    1.000
    C28      C        0.40877    0.86045    0.54758    1.000
    C29      C        0.45673    0.93316    0.48983    1.000
    C30      C        0.45322    0.93276    0.37082    1.000
    H10      H        0.42682    0.88162    0.34265    1.000
    O21      O        0.60088    0.21035    0.49401    1.000
    O22      O        0.61803    0.12005    0.64104    1.000
    C31      C        0.59123    0.13955    0.54758    1.000
    C32      C        0.54327    0.06684    0.48983    1.000
    C33      C        0.54678    0.06724    0.37082    1.000
    H11      H        0.57318    0.11838    0.34265    1.000
    O23      O        0.10088    0.71035    0.99401    1.000
    O24      O        0.11803    0.62005    0.14104    1.000
    C34      C        0.09123    0.63955    0.04758    1.000
    C35      C        0.04327    0.56684    0.98983    1.000
    C36      C        0.04678    0.56724    0.87082    1.000
    H12      H        0.07318    0.61838    0.84265    1.000
    O25      O        0.78965    0.10088    0.74401    1.000
    O26      O        0.87995    0.11803    0.89104    1.000
    C37      C        0.86045    0.09123    0.79758    1.000
    C38      C        0.93316    0.04327    0.73983    1.000
    C39      C        0.93276    0.04678    0.62082    1.000
    H13      H        0.88162    0.07318    0.59265    1.000
    O27      O        0.28965    0.60088    0.24401    1.000
    O28      O        0.37995    0.61803    0.39104    1.000
    C40      C        0.36045    0.59123    0.29758    1.000
    C41      C        0.43316    0.54327    0.23983    1.000
    C42      C        0.43276    0.54678    0.12082    1.000
    H14      H        0.38162    0.57318    0.09265    1.000
    O29      O        0.71035    0.39912    0.24401    1.000
    O30      O        0.62005    0.38197    0.39104    1.000
    C43      C        0.63955    0.40877    0.29758    1.000
    C44      C        0.56684    0.45673    0.23983    1.000
    C45      C        0.56724    0.45322    0.12082    1.000
    H15      H        0.61838    0.42682    0.09265    1.000
    O31      O        0.21035    0.89912    0.74401    1.000
    O32      O        0.12005    0.88197    0.89104    1.000
    C46      C        0.13955    0.90877    0.79758    1.000
    C47      C        0.06684    0.95673    0.73983    1.000
    C48      C        0.06724    0.95322    0.62082    1.000
    H16      H        0.11838    0.92682    0.59265    1.000
    V1       V        0.69123    0.30877    0.50000    1.000
    V2       V        0.19123    0.80877    0.00000    1.000
    V3       V        0.80877    0.19123    0.00000    1.000
    V4       V        0.30877    0.69123    0.50000    1.000
    V5       V        0.69123    0.19123    0.75000    1.000
    V6       V        0.19123    0.69123    0.25000    1.000
    V7       V        0.80877    0.30877    0.25000    1.000
    V8       V        0.30877    0.80877    0.75000    1.000
    O33      O        0.74470    0.25000    0.62500    1.000
    H17      H        0.80600    0.25000    0.62500    1.000
    O34      O        0.24470    0.75000    0.12500    1.000
    H18      H        0.30600    0.75000    0.12500    1.000
    O35      O        0.75530    0.25000    0.12500    1.000
    H19      H        0.69400    0.25000    0.12500    1.000
    O36      O        0.25530    0.75000    0.62500    1.000
    H20      H        0.19400    0.75000    0.62500    1.000
    O37      O        0.75000    0.24470    0.87500    1.000
    H21      H        0.75000    0.30600    0.87500    1.000
    O38      O        0.25000    0.74470    0.37500    1.000
    H22      H        0.25000    0.80600    0.37500    1.000
    O39      O        0.75000    0.25530    0.37500    1.000
    H23      H        0.75000    0.19400    0.37500    1.000
    O40      O        0.25000    0.75530    0.87500    1.000
    H24      H        0.25000    0.69400    0.87500    1.000
    C49      C        0.50000    0.50000    0.70333    1.000
    C50      C        0.50000    0.50000    0.93620    1.000
    H25      H        0.50000    0.50000    0.62600    1.000
    C51      C        0.00000    0.00000    0.20333    1.000
    C52      C        0.00000    0.00000    0.43620    1.000
    H26      H        0.00000    0.00000    0.12600    1.000
    C53      C        0.50000    0.00000    0.95333    1.000
    C54      C        0.50000    0.00000    0.18620    1.000
    H27      H        0.50000    0.00000    0.87600    1.000
    C55      C        0.00000    0.50000    0.45333    1.000
    C56      C        0.00000    0.50000    0.68620    1.000
    H28      H        0.00000    0.50000    0.37600    1.000
    C57      C        0.00000    0.50000    0.04667    1.000
    C58      C        0.00000    0.50000    0.81380    1.000
    H29      H        0.00000    0.50000    0.12400    1.000
    C59      C        0.50000    0.00000    0.54667    1.000
    C60      C        0.50000    0.00000    0.31380    1.000
    H30      H        0.50000    0.00000    0.62400    1.000
    C61      C        0.00000    0.00000    0.79667    1.000
    C62      C        0.00000    0.00000    0.56380    1.000
    H31      H        0.00000    0.00000    0.87400    1.000
    C63      C        0.50000    0.50000    0.29667    1.000
    C64      C        0.50000    0.50000    0.06380    1.000
    H32      H        0.50000    0.50000    0.37400    1.000
