data_functionalizedCrystal
_audit_creation_method	'EQeq! by Chris Wilmer'
_symmetry_space_group_name_H-M	'P1'
_symmetry_Int_Tables_number	1
_symmetry_cell_setting	triclinic
loop_
_symmetry_equiv_pos_as_xyz
  x,y,z
_cell_length_a	9.889
_cell_length_b	10.293
_cell_length_c	13.518
_cell_angle_alpha	82.04
_cell_angle_beta	86.67
_cell_angle_gamma	65.58
loop_
_atom_site_label
_atom_site_type_symbol
_atom_site_fract_x
_atom_site_fract_y
_atom_site_fract_z
_atom_site_charge
Mof_Tb	Tb	0.33381	0.21745	0.18326	0.909
Mof_Mo	Mo	0.74454	0.62429	0.24011	1.02
Mof_O 	O 	0.3514	0.4462	0.1856	-0.617
Mof_H 	H 	0.4543	0.4242	0.2026	0.13
Mof_N 	N 	0.9046	0.3396	0.4069	-0.319
Mof_N 	N 	0.7492	0.7366	0.4585	-0.316
Mof_N 	N 	0.4339	0.6113	0.3327	-0.303
Mof_N 	N 	0.4825	0.956	0.2102	-0.234
Mof_N 	N 	0.678	0.3728	0.1502	-0.125
Mof_N 	N 	0.2929	0.281	0.0038	-0.19
Mof_N 	N 	0.0818	0.4129	0.1728	-0.225
Mof_N 	N 	0.9462	0.8164	0.2037	-0.177
Mof_C 	C 	0.8432	0.4371	0.3509	-0.375
Mof_C 	C 	0.7454	0.7012	0.3816	-0.392
Mof_C 	C 	0.5421	0.615	0.3043	-0.182
Mof_C 	C 	0.5729	0.8415	0.2201	-0.161
Mof_C 	C 	0.7033	0.4603	0.1796	-0.161
Mof_C 	C 	0.2815	0.3124	0.9184	-0.125
Mof_C 	C 	0.9633	0.4902	0.1908	-0.263
Mof_C 	C 	0.8735	0.753	0.2155	-0.317
Mof_C 	C 	0.3068	0.5648	0.1059	0.247
Mof_H 	H 	0.3862	0.5497	0.0584	-0.06
Mof_H 	H 	0.2841	0.6529	0.1331	-0.127
Mof_H 	H 	0.2204	0.5704	0.0734	-0.079
Mof_Cs	Cs	0.14923	0.55003	0.38406	2.442
Mof_Tb	Tb	0.66619	0.78255	0.81674	0.909
Mof_Mo	Mo	0.25546	0.37571	0.75989	1.02
Mof_O 	O 	0.6486	0.5538	0.8144	-0.617
Mof_H 	H 	0.5457	0.5758	0.7974	0.13
Mof_N 	N 	0.0954	0.6604	0.5931	-0.319
Mof_N 	N 	0.2508	0.2634	0.5415	-0.316
Mof_N 	N 	0.5661	0.3887	0.6673	-0.303
Mof_N 	N 	0.5175	0.044	0.7898	-0.234
Mof_N 	N 	0.322	0.6272	0.8498	-0.125
Mof_N 	N 	0.7071	0.719	0.9962	-0.19
Mof_N 	N 	0.9182	0.5871	0.8272	-0.225
Mof_N 	N 	0.0538	0.1836	0.7963	-0.177
Mof_C 	C 	0.1568	0.5629	0.6491	-0.375
Mof_C 	C 	0.2546	0.2988	0.6184	-0.392
Mof_C 	C 	0.4579	0.385	0.6957	-0.182
Mof_C 	C 	0.4271	0.1585	0.7799	-0.161
Mof_C 	C 	0.2967	0.5397	0.8204	-0.161
Mof_C 	C 	0.7185	0.6876	0.0816	-0.125
Mof_C 	C 	0.0367	0.5098	0.8092	-0.263
Mof_C 	C 	0.1265	0.247	0.7845	-0.317
Mof_C 	C 	0.6932	0.4352	0.8941	0.247
Mof_H 	H 	0.6138	0.4503	0.9416	-0.06
Mof_H 	H 	0.7159	0.3471	0.8669	-0.127
Mof_H 	H 	0.7796	0.4296	0.9266	-0.079
Mof_Cs	Cs	0.85077	0.44997	0.61594	2.442
_end
