# CIF file generated by openbabel 3.1.0, see https://openbabel.org
data_I
_chemical_name_common 'image0'
_cell_length_a 17.5207
_cell_length_b 17.5207
_cell_length_c 15.1261
_cell_angle_alpha 90
_cell_angle_beta 90
_cell_angle_gamma 90
_space_group_name_H-M_alt 'P 1'
_space_group_name_Hall 'P 1'
loop_
    _symmetry_equiv_pos_as_xyz
    x,y,z
loop_
    _atom_site_label
    _atom_site_type_symbol
    _atom_site_fract_x
    _atom_site_fract_y
    _atom_site_fract_z
    _atom_site_occupancy
    Co1      Co       0.89933    0.14093    0.96933    1.000
    C1       C        0.05070    0.12550    0.90260    1.000
    C2       C        0.00450    0.14590    0.82240    1.000
    H1       H        0.01760    0.10980    0.77350    1.000
    C3       C        0.02660    0.22640    0.79460    1.000
    H2       H        0.99900    0.24020    0.74050    1.000
    H3       H        0.08170    0.22860    0.78350    1.000
    H4       H        0.01340    0.26230    0.84180    1.000
    C4       C        0.73540    0.14100    0.88880    1.000
    C5       C        0.65250    0.13100    0.91090    1.000
    C6       C        0.63070    0.12100    0.99720    1.000
    H5       H        0.66800    0.12150    0.04270    1.000
    C7       C        0.55460    0.11010    0.01820    1.000
    H6       H        0.54040    0.10060    0.07780    1.000
    C8       C        0.49810    0.11300    0.95210    1.000
    C9       C        0.52120    0.12410    0.86530    1.000
    H7       H        0.48400    0.12580    0.81970    1.000
    C10      C        0.59790    0.13280    0.84420    1.000
    H8       H        0.61300    0.14000    0.78440    1.000
    C11      C        0.41600    0.10550    0.97480    1.000
    C12      C        0.36560    0.06970    0.91810    1.000
    H9       H        0.38360    0.04630    0.86540    1.000
    C13      C        0.28850    0.06810    0.93870    1.000
    H10      H        0.25440    0.04510    0.89780    1.000
    C14      C        0.30920    0.13000    0.06870    1.000
    H11      H        0.29010    0.15100    0.12220    1.000
    C15      C        0.38660    0.13470    0.05200    1.000
    H12      H        0.41950    0.15810    0.09390    1.000
    N1       N        0.26000    0.09710    0.01280    1.000
    O1       O        0.12163    0.11350    0.89640    1.000
    O2       O        0.01782    0.12223    0.97720    1.000
    O3       O        0.92585    0.13949    0.84150    1.000
    O4       O        0.75099    0.14810    0.80700    1.000
    O5       O        0.78275    0.14188    0.95110    1.000
    Co2      Co       0.10067    0.85907    0.96933    1.000
    C16      C        0.94930    0.87450    0.90260    1.000
    C17      C        0.99550    0.85410    0.82240    1.000
    H13      H        0.98240    0.89020    0.77350    1.000
    C18      C        0.97340    0.77360    0.79460    1.000
    H14      H        0.00100    0.75980    0.74050    1.000
    H15      H        0.91830    0.77140    0.78350    1.000
    H16      H        0.98660    0.73770    0.84180    1.000
    C19      C        0.26460    0.85900    0.88880    1.000
    C20      C        0.34750    0.86900    0.91090    1.000
    C21      C        0.36930    0.87900    0.99720    1.000
    H17      H        0.33200    0.87850    0.04270    1.000
    C22      C        0.44540    0.88990    0.01820    1.000
    H18      H        0.45960    0.89940    0.07780    1.000
    C23      C        0.50190    0.88700    0.95210    1.000
    C24      C        0.47880    0.87590    0.86530    1.000
    H19      H        0.51600    0.87420    0.81970    1.000
    C25      C        0.40210    0.86720    0.84420    1.000
    H20      H        0.38700    0.86000    0.78440    1.000
    C26      C        0.58400    0.89450    0.97480    1.000
    C27      C        0.63440    0.93030    0.91810    1.000
    H21      H        0.61640    0.95370    0.86540    1.000
    C28      C        0.71150    0.93190    0.93870    1.000
    H22      H        0.74560    0.95490    0.89780    1.000
    C29      C        0.69080    0.87000    0.06870    1.000
    H23      H        0.70990    0.84900    0.12220    1.000
    C30      C        0.61340    0.86530    0.05200    1.000
    H24      H        0.58050    0.84190    0.09390    1.000
    N2       N        0.74000    0.90290    0.01280    1.000
    O6       O        0.87837    0.88650    0.89640    1.000
    O7       O        0.98218    0.87777    0.97720    1.000
    O8       O        0.07415    0.86051    0.84150    1.000
    O9       O        0.24901    0.85190    0.80700    1.000
    O10      O        0.21725    0.85812    0.95110    1.000
    Co3      Co       0.14093    0.10067    0.03067    1.000
    C31      C        0.12550    0.94930    0.09740    1.000
    C32      C        0.14590    0.99550    0.17760    1.000
    H25      H        0.10980    0.98240    0.22650    1.000
    C33      C        0.22640    0.97340    0.20540    1.000
    H26      H        0.24020    0.00100    0.25950    1.000
    H27      H        0.22860    0.91830    0.21650    1.000
    H28      H        0.26230    0.98660    0.15820    1.000
    C34      C        0.14100    0.26460    0.11120    1.000
    C35      C        0.13100    0.34750    0.08910    1.000
    C36      C        0.12100    0.36930    0.00280    1.000
    H29      H        0.12150    0.33200    0.95730    1.000
    C37      C        0.11010    0.44540    0.98180    1.000
    H30      H        0.10060    0.45960    0.92220    1.000
    C38      C        0.11300    0.50190    0.04790    1.000
    C39      C        0.12410    0.47880    0.13470    1.000
    H31      H        0.12580    0.51600    0.18030    1.000
    C40      C        0.13280    0.40210    0.15580    1.000
    H32      H        0.14000    0.38700    0.21560    1.000
    C41      C        0.10550    0.58400    0.02520    1.000
    C42      C        0.06970    0.63440    0.08190    1.000
    H33      H        0.04630    0.61640    0.13460    1.000
    C43      C        0.06810    0.71150    0.06130    1.000
    H34      H        0.04510    0.74560    0.10220    1.000
    C44      C        0.13000    0.69080    0.93130    1.000
    H35      H        0.15100    0.70990    0.87780    1.000
    C45      C        0.13470    0.61340    0.94800    1.000
    H36      H        0.15810    0.58050    0.90610    1.000
    N3       N        0.09710    0.74000    0.98720    1.000
    O11      O        0.11350    0.87837    0.10360    1.000
    O12      O        0.12223    0.98218    0.02280    1.000
    O13      O        0.13949    0.07415    0.15850    1.000
    O14      O        0.14810    0.24901    0.19300    1.000
    O15      O        0.14188    0.21725    0.04890    1.000
    Co4      Co       0.85907    0.89933    0.03067    1.000
    C46      C        0.87450    0.05070    0.09740    1.000
    C47      C        0.85410    0.00450    0.17760    1.000
    H37      H        0.89020    0.01760    0.22650    1.000
    C48      C        0.77360    0.02660    0.20540    1.000
    H38      H        0.75980    0.99900    0.25950    1.000
    H39      H        0.77140    0.08170    0.21650    1.000
    H40      H        0.73770    0.01340    0.15820    1.000
    C49      C        0.85900    0.73540    0.11120    1.000
    C50      C        0.86900    0.65250    0.08910    1.000
    C51      C        0.87900    0.63070    0.00280    1.000
    H41      H        0.87850    0.66800    0.95730    1.000
    C52      C        0.88990    0.55460    0.98180    1.000
    H42      H        0.89940    0.54040    0.92220    1.000
    C53      C        0.88700    0.49810    0.04790    1.000
    C54      C        0.87590    0.52120    0.13470    1.000
    H43      H        0.87420    0.48400    0.18030    1.000
    C55      C        0.86720    0.59790    0.15580    1.000
    H44      H        0.86000    0.61300    0.21560    1.000
    C56      C        0.89450    0.41600    0.02520    1.000
    C57      C        0.93030    0.36560    0.08190    1.000
    H45      H        0.95370    0.38360    0.13460    1.000
    C58      C        0.93190    0.28850    0.06130    1.000
    H46      H        0.95490    0.25440    0.10220    1.000
    C59      C        0.87000    0.30920    0.93130    1.000
    H47      H        0.84900    0.29010    0.87780    1.000
    C60      C        0.86530    0.38660    0.94800    1.000
    H48      H        0.84190    0.41950    0.90610    1.000
    N4       N        0.90290    0.26000    0.98720    1.000
    O16      O        0.88650    0.12163    0.10360    1.000
    O17      O        0.87777    0.01782    0.02280    1.000
    O18      O        0.86051    0.92585    0.15850    1.000
    O19      O        0.85190    0.75099    0.19300    1.000
    O20      O        0.85812    0.78275    0.04890    1.000
    Co5      Co       0.89933    0.85907    0.46933    1.000
    C61      C        0.05070    0.87450    0.40260    1.000
    C62      C        0.00450    0.85410    0.32240    1.000
    H49      H        0.01760    0.89020    0.27350    1.000
    C63      C        0.02660    0.77360    0.29460    1.000
    H50      H        0.99900    0.75980    0.24050    1.000
    H51      H        0.08170    0.77140    0.28350    1.000
    H52      H        0.01340    0.73770    0.34180    1.000
    C64      C        0.73540    0.85900    0.38880    1.000
    C65      C        0.65250    0.86900    0.41090    1.000
    C66      C        0.63070    0.87900    0.49720    1.000
    H53      H        0.66800    0.87850    0.54270    1.000
    C67      C        0.55460    0.88990    0.51820    1.000
    H54      H        0.54040    0.89940    0.57780    1.000
    C68      C        0.49810    0.88700    0.45210    1.000
    C69      C        0.52120    0.87590    0.36530    1.000
    H55      H        0.48400    0.87420    0.31970    1.000
    C70      C        0.59790    0.86720    0.34420    1.000
    H56      H        0.61300    0.86000    0.28440    1.000
    C71      C        0.41600    0.89450    0.47480    1.000
    C72      C        0.36560    0.93030    0.41810    1.000
    H57      H        0.38360    0.95370    0.36540    1.000
    C73      C        0.28850    0.93190    0.43870    1.000
    H58      H        0.25440    0.95490    0.39780    1.000
    C74      C        0.30920    0.87000    0.56870    1.000
    H59      H        0.29010    0.84900    0.62220    1.000
    C75      C        0.38660    0.86530    0.55200    1.000
    H60      H        0.41950    0.84190    0.59390    1.000
    N5       N        0.26000    0.90290    0.51280    1.000
    O21      O        0.12163    0.88650    0.39640    1.000
    O22      O        0.01782    0.87777    0.47720    1.000
    O23      O        0.92585    0.86051    0.34150    1.000
    O24      O        0.75099    0.85190    0.30700    1.000
    O25      O        0.78275    0.85812    0.45110    1.000
    Co6      Co       0.10067    0.14093    0.46933    1.000
    C76      C        0.94930    0.12550    0.40260    1.000
    C77      C        0.99550    0.14590    0.32240    1.000
    H61      H        0.98240    0.10980    0.27350    1.000
    C78      C        0.97340    0.22640    0.29460    1.000
    H62      H        0.00100    0.24020    0.24050    1.000
    H63      H        0.91830    0.22860    0.28350    1.000
    H64      H        0.98660    0.26230    0.34180    1.000
    C79      C        0.26460    0.14100    0.38880    1.000
    C80      C        0.34750    0.13100    0.41090    1.000
    C81      C        0.36930    0.12100    0.49720    1.000
    H65      H        0.33200    0.12150    0.54270    1.000
    C82      C        0.44540    0.11010    0.51820    1.000
    H66      H        0.45960    0.10060    0.57780    1.000
    C83      C        0.50190    0.11300    0.45210    1.000
    C84      C        0.47880    0.12410    0.36530    1.000
    H67      H        0.51600    0.12580    0.31970    1.000
    C85      C        0.40210    0.13280    0.34420    1.000
    H68      H        0.38700    0.14000    0.28440    1.000
    C86      C        0.58400    0.10550    0.47480    1.000
    C87      C        0.63440    0.06970    0.41810    1.000
    H69      H        0.61640    0.04630    0.36540    1.000
    C88      C        0.71150    0.06810    0.43870    1.000
    H70      H        0.74560    0.04510    0.39780    1.000
    C89      C        0.69080    0.13000    0.56870    1.000
    H71      H        0.70990    0.15100    0.62220    1.000
    C90      C        0.61340    0.13470    0.55200    1.000
    H72      H        0.58050    0.15810    0.59390    1.000
    N6       N        0.74000    0.09710    0.51280    1.000
    O26      O        0.87837    0.11350    0.39640    1.000
    O27      O        0.98218    0.12223    0.47720    1.000
    O28      O        0.07415    0.13949    0.34150    1.000
    O29      O        0.24901    0.14810    0.30700    1.000
    O30      O        0.21725    0.14188    0.45110    1.000
    Co7      Co       0.14093    0.89933    0.53067    1.000
    C91      C        0.12550    0.05070    0.59740    1.000
    C92      C        0.14590    0.00450    0.67760    1.000
    H73      H        0.10980    0.01760    0.72650    1.000
    C93      C        0.22640    0.02660    0.70540    1.000
    H74      H        0.24020    0.99900    0.75950    1.000
    H75      H        0.22860    0.08170    0.71650    1.000
    H76      H        0.26230    0.01340    0.65820    1.000
    C94      C        0.14100    0.73540    0.61120    1.000
    C95      C        0.13100    0.65250    0.58910    1.000
    C96      C        0.12100    0.63070    0.50280    1.000
    H77      H        0.12150    0.66800    0.45730    1.000
    C97      C        0.11010    0.55460    0.48180    1.000
    H78      H        0.10060    0.54040    0.42220    1.000
    C98      C        0.11300    0.49810    0.54790    1.000
    C99      C        0.12410    0.52120    0.63470    1.000
    H79      H        0.12580    0.48400    0.68030    1.000
    C100     C        0.13280    0.59790    0.65580    1.000
    H80      H        0.14000    0.61300    0.71560    1.000
    C101     C        0.10550    0.41600    0.52520    1.000
    C102     C        0.06970    0.36560    0.58190    1.000
    H81      H        0.04630    0.38360    0.63460    1.000
    C103     C        0.06810    0.28850    0.56130    1.000
    H82      H        0.04510    0.25440    0.60220    1.000
    C104     C        0.13000    0.30920    0.43130    1.000
    H83      H        0.15100    0.29010    0.37780    1.000
    C105     C        0.13470    0.38660    0.44800    1.000
    H84      H        0.15810    0.41950    0.40610    1.000
    N7       N        0.09710    0.26000    0.48720    1.000
    O31      O        0.11350    0.12163    0.60360    1.000
    O32      O        0.12223    0.01782    0.52280    1.000
    O33      O        0.13949    0.92585    0.65850    1.000
    O34      O        0.14810    0.75099    0.69300    1.000
    O35      O        0.14188    0.78275    0.54890    1.000
    Co8      Co       0.85907    0.10067    0.53067    1.000
    C106     C        0.87450    0.94930    0.59740    1.000
    C107     C        0.85410    0.99550    0.67760    1.000
    H85      H        0.89020    0.98240    0.72650    1.000
    C108     C        0.77360    0.97340    0.70540    1.000
    H86      H        0.75980    0.00100    0.75950    1.000
    H87      H        0.77140    0.91830    0.71650    1.000
    H88      H        0.73770    0.98660    0.65820    1.000
    C109     C        0.85900    0.26460    0.61120    1.000
    C110     C        0.86900    0.34750    0.58910    1.000
    C111     C        0.87900    0.36930    0.50280    1.000
    H89      H        0.87850    0.33200    0.45730    1.000
    C112     C        0.88990    0.44540    0.48180    1.000
    H90      H        0.89940    0.45960    0.42220    1.000
    C113     C        0.88700    0.50190    0.54790    1.000
    C114     C        0.87590    0.47880    0.63470    1.000
    H91      H        0.87420    0.51600    0.68030    1.000
    C115     C        0.86720    0.40210    0.65580    1.000
    H92      H        0.86000    0.38700    0.71560    1.000
    C116     C        0.89450    0.58400    0.52520    1.000
    C117     C        0.93030    0.63440    0.58190    1.000
    H93      H        0.95370    0.61640    0.63460    1.000
    C118     C        0.93190    0.71150    0.56130    1.000
    H94      H        0.95490    0.74560    0.60220    1.000
    C119     C        0.87000    0.69080    0.43130    1.000
    H95      H        0.84900    0.70990    0.37780    1.000
    C120     C        0.86530    0.61340    0.44800    1.000
    H96      H        0.84190    0.58050    0.40610    1.000
    N8       N        0.90290    0.74000    0.48720    1.000
    O36      O        0.88650    0.87837    0.60360    1.000
    O37      O        0.87777    0.98218    0.52280    1.000
    O38      O        0.86051    0.07415    0.65850    1.000
    O39      O        0.85190    0.24901    0.69300    1.000
    O40      O        0.85812    0.21725    0.54890    1.000
    Co9      Co       0.85164    0.14836    0.75000    1.000
    Co10     Co       0.14836    0.85164    0.75000    1.000
    Co11     Co       0.14836    0.14836    0.25000    1.000
    Co12     Co       0.85164    0.85164    0.25000    1.000
