data_functionalizedCrystal
_audit_creation_method	'EQeq! by Chris Wilmer'
_symmetry_space_group_name_H-M	'P1'
_symmetry_Int_Tables_number	1
_symmetry_cell_setting	triclinic
loop_
_symmetry_equiv_pos_as_xyz
  x,y,z
_cell_length_a	14.586
_cell_length_b	18.068
_cell_length_c	24.846
_cell_angle_alpha	90
_cell_angle_beta	90
_cell_angle_gamma	90
loop_
_atom_site_label
_atom_site_type_symbol
_atom_site_fract_x
_atom_site_fract_y
_atom_site_fract_z
_atom_site_charge
Mof_Zn	Zn	0.46049	0.93962	0.14407	1.22
Mof_Zn	Zn	0.49629	0.74682	0.14498	1.245
Mof_O 	O 	0.3304	0.9146	0.1511	-0.481
Mof_O 	O 	0.3824	0.8083	0.12049	-0.479
Mof_O 	O 	0.6639	0.5783	0.1424	-0.487
Mof_O 	O 	0.6144	0.6889	0.16666	-0.468
Mof_O 	O 	0.5261	0.9251	0.07734	-0.482
Mof_O 	O 	0.5841	0.816	0.10216	-0.461
Mof_O 	O 	0.9796	0.9297	0.71279	-0.478
Mof_O 	O 	0.9116	0.8248	0.6878	-0.445
Mof_O 	O 	0.532	0.922	0.20932	-0.501
Mof_O 	O 	0.5056	0.8018	0.21767	-0.455
Mof_O 	O 	0.9582	0.9318	0.58083	-0.496
Mof_O 	O 	0.9832	0.811	0.57465	-0.446
Mof_N 	N 	0.467	0.05309	0.1436	-0.224
Mof_N 	N 	0.5262	0.4392	0.1432	-0.221
Mof_C 	C 	0.5153	0.0877	0.1054	0.031
Mof_H 	H 	0.5418	0.059	0.0774	0.017
Mof_C 	C 	0.5284	0.164	0.1049	-0.07
Mof_H 	H 	0.5622	0.1873	0.0769	0.058
Mof_C 	C 	0.4907	0.2047	0.1463	-0.029
Mof_C 	C 	0.4405	0.1696	0.1861	0.126
Mof_C 	C 	0.3931	0.2089	0.2316	-0.51
Mof_H 	H 	0.3486	0.2443	0.2169	0.178
Mof_H 	H 	0.4385	0.2354	0.2533	0.177
Mof_H 	H 	0.3611	0.1727	0.2541	0.178
Mof_C 	C 	0.4321	0.0936	0.1827	-0.05
Mof_H 	H 	0.3991	0.0689	0.2103	0.032
Mof_C 	C 	0.4793	0.4045	0.1039	0.028
Mof_H 	H 	0.4547	0.4325	0.075	0.019
Mof_C 	C 	0.4665	0.3289	0.1051	-0.067
Mof_H 	H 	0.4314	0.3054	0.0779	0.059
Mof_C 	C 	0.5057	0.2866	0.1469	-0.032
Mof_C 	C 	0.5605	0.323	0.1847	0.135
Mof_C 	C 	0.6184	0.2838	0.2255	-0.526
Mof_H 	H 	0.6087	0.2303	0.2225	0.182
Mof_H 	H 	0.6014	0.3004	0.2617	0.178
Mof_H 	H 	0.6832	0.2951	0.2189	0.186
Mof_C 	C 	0.5666	0.3993	0.1815	-0.061
Mof_H 	H 	0.6014	0.4246	0.2081	0.035
Mof_C 	C 	0.3192	0.8483	0.1382	0.389
Mof_C 	C 	0.2241	0.8189	0.1405	-0.126
Mof_C 	C 	0.1513	0.8626	0.1593	0.031
Mof_H 	H 	0.1629	0.911	0.1725	0.03
Mof_C 	C 	0.0602	0.8346	0.1584	-0.101
Mof_H 	H 	0.0109	0.8638	0.1717	0.054
Mof_C 	C 	0.0437	0.7635	0.1378	0.023
Mof_C 	C 	0.1179	0.7198	0.1203	-0.102
Mof_H 	H 	0.1073	0.6712	0.1072	0.063
Mof_C 	C 	0.206	0.7475	0.1222	0.038
Mof_H 	H 	0.2554	0.7171	0.1107	0.03
Mof_C 	C 	0.9484	0.7338	0.1397	0.047
Mof_C 	C 	0.9336	0.658	0.146	-0.12
Mof_H 	H 	0.9845	0.6253	0.1479	0.067
Mof_C 	C 	0.8464	0.6302	0.1496	0.054
Mof_H 	H 	0.8373	0.5787	0.155	0.021
Mof_C 	C 	0.7724	0.6763	0.1454	-0.133
Mof_C 	C 	0.7851	0.7511	0.1403	0.043
Mof_H 	H 	0.7339	0.7836	0.1396	0.034
Mof_C 	C 	0.8745	0.7792	0.1362	-0.119
Mof_H 	H 	0.8835	0.8308	0.1309	0.067
Mof_C 	C 	0.6763	0.6461	0.1511	0.393
Mof_C 	C 	0.5753	0.8665	0.0698	0.399
Mof_C 	C 	0.6341	0.8668	0.0211	-0.129
Mof_C 	C 	0.6487	0.9317	0.9916	0.045
Mof_H 	H 	0.6209	0.9767	0.0028	0.026
Mof_C 	C 	0.7033	0.931	0.9463	-0.111
Mof_H 	H 	0.7144	0.9759	0.9275	0.063
Mof_C 	C 	0.7421	0.8657	0.9276	0.045
Mof_C 	C 	0.7254	0.7992	0.9555	-0.104
Mof_H 	H 	0.7507	0.7539	0.943	0.064
Mof_C 	C 	0.6708	0.8009	0.0023	0.044
Mof_H 	H 	0.6589	0.7562	0.0212	0.03
Mof_C 	C 	0.7967	0.8651	0.8769	0.036
Mof_C 	C 	0.8426	0.9282	0.8593	-0.099
Mof_H 	H 	0.8404	0.9716	0.8809	0.067
Mof_C 	C 	0.891	0.9301	0.8117	0.037
Mof_H 	H 	0.9246	0.973	0.8018	0.029
Mof_C 	C 	0.8897	0.8686	0.7788	-0.111
Mof_C 	C 	0.8433	0.8056	0.794	0.031
Mof_H 	H 	0.8406	0.7641	0.7706	0.031
Mof_C 	C 	0.8012	0.8034	0.8431	-0.1
Mof_H 	H 	0.7741	0.7583	0.8547	0.059
Mof_C 	C 	0.9332	0.8718	0.7229	0.375
Mof_C 	C 	0.5438	0.8618	0.2314	0.423
Mof_C 	C 	0.6009	0.8623	0.2799	-0.155
Mof_C 	C 	0.6502	0.9216	0.2941	0.068
Mof_H 	H 	0.6478	0.965	0.2726	0.019
Mof_C 	C 	0.7059	0.9206	0.3408	-0.133
Mof_H 	H 	0.7437	0.9621	0.3486	0.079
Mof_C 	C 	0.7063	0.8617	0.3745	0.055
Mof_C 	C 	0.6535	0.8004	0.3628	-0.119
Mof_H 	H 	0.6528	0.7591	0.3865	0.069
Mof_C 	C 	0.6004	0.7996	0.3151	0.05
Mof_H 	H 	0.5643	0.7575	0.3065	0.029
Mof_C 	C 	0.7636	0.8637	0.4239	0.04
Mof_C 	C 	0.7927	0.9311	0.4443	-0.114
Mof_H 	H 	0.7742	0.976	0.4276	0.069
Mof_C 	C 	0.8494	0.9324	0.4896	0.048
Mof_H 	H 	0.8702	0.9787	0.5031	0.025
Mof_C 	C 	0.8756	0.8689	0.515	-0.128
Mof_C 	C 	0.8482	0.801	0.4937	0.041
Mof_H 	H 	0.8683	0.7563	0.51	0.031
Mof_C 	C 	0.7921	0.7985	0.449	-0.101
Mof_H 	H 	0.7728	0.752	0.4351	0.062
Mof_C 	C 	0.9392	0.8706	0.5624	0.394
Mof_Zn	Zn	0.53416	0.55273	0.14361	1.223
Mof_Zn	Zn	0.96049	0.56038	0.64407	1.221
Mof_Zn	Zn	0.99629	0.75318	0.64498	1.247
Mof_O 	O 	0.8304	0.5854	0.6511	-0.48
Mof_O 	O 	0.8824	0.6917	0.62049	-0.477
Mof_O 	O 	0.1639	0.9217	0.6424	-0.487
Mof_O 	O 	0.1144	0.8111	0.66666	-0.468
Mof_O 	O 	0.0261	0.5749	0.57734	-0.48
Mof_O 	O 	0.0841	0.684	0.60216	-0.46
Mof_O 	O 	0.4796	0.5703	0.21279	-0.479
Mof_O 	O 	0.4116	0.6752	0.1878	-0.445
Mof_O 	O 	0.032	0.578	0.70932	-0.501
Mof_O 	O 	0.0056	0.6982	0.71767	-0.455
Mof_O 	O 	0.4582	0.5682	0.08083	-0.497
Mof_O 	O 	0.4832	0.689	0.07465	-0.447
Mof_N 	N 	0.967	0.44691	0.6436	-0.224
Mof_N 	N 	0.0262	0.0608	0.6432	-0.22
Mof_C 	C 	0.0153	0.4123	0.6054	0.031
Mof_H 	H 	0.0418	0.441	0.5774	0.017
Mof_C 	C 	0.0284	0.336	0.6049	-0.067
Mof_H 	H 	0.0622	0.3127	0.5769	0.058
Mof_C 	C 	0.9907	0.2953	0.6463	-0.033
Mof_C 	C 	0.9405	0.3304	0.6861	0.127
Mof_C 	C 	0.8931	0.2911	0.7316	-0.511
Mof_H 	H 	0.8486	0.2557	0.7169	0.178
Mof_H 	H 	0.9385	0.2646	0.7533	0.177
Mof_H 	H 	0.8611	0.3273	0.7541	0.179
Mof_C 	C 	0.9321	0.4064	0.6827	-0.051
Mof_H 	H 	0.8991	0.4311	0.7103	0.032
Mof_C 	C 	0.9793	0.0955	0.6039	0.027
Mof_H 	H 	0.9547	0.0675	0.575	0.018
Mof_C 	C 	0.9665	0.1711	0.6051	-0.07
Mof_H 	H 	0.9314	0.1946	0.5779	0.059
Mof_C 	C 	0.0057	0.2134	0.6469	-0.028
Mof_C 	C 	0.0605	0.177	0.6847	0.134
Mof_C 	C 	0.1184	0.2162	0.7255	-0.525
Mof_H 	H 	0.1087	0.2697	0.7225	0.182
Mof_H 	H 	0.1014	0.1996	0.7617	0.178
Mof_H 	H 	0.1832	0.2049	0.7189	0.186
Mof_C 	C 	0.0666	0.1007	0.6815	-0.06
Mof_H 	H 	0.1014	0.0754	0.7081	0.035
Mof_C 	C 	0.8192	0.6517	0.6382	0.389
Mof_C 	C 	0.7241	0.6811	0.6405	-0.127
Mof_C 	C 	0.6513	0.6374	0.6593	0.032
Mof_H 	H 	0.6629	0.589	0.6725	0.03
Mof_C 	C 	0.5602	0.6654	0.6584	-0.103
Mof_H 	H 	0.5109	0.6362	0.6717	0.055
Mof_C 	C 	0.5437	0.7365	0.6378	0.026
Mof_C 	C 	0.6179	0.7802	0.6203	-0.103
Mof_H 	H 	0.6073	0.8288	0.6072	0.064
Mof_C 	C 	0.706	0.7525	0.6222	0.039
Mof_H 	H 	0.7554	0.7829	0.6107	0.03
Mof_C 	C 	0.4484	0.7662	0.6397	0.043
Mof_C 	C 	0.4336	0.842	0.646	-0.118
Mof_H 	H 	0.4845	0.8747	0.6479	0.066
Mof_C 	C 	0.3464	0.8698	0.6496	0.052
Mof_H 	H 	0.3373	0.9213	0.655	0.021
Mof_C 	C 	0.2724	0.8237	0.6454	-0.132
Mof_C 	C 	0.2851	0.7489	0.6403	0.041
Mof_H 	H 	0.2339	0.7164	0.6396	0.034
Mof_C 	C 	0.3745	0.7208	0.6362	-0.117
Mof_H 	H 	0.3835	0.6692	0.6309	0.066
Mof_C 	C 	0.1763	0.8539	0.6511	0.393
Mof_C 	C 	0.0753	0.6335	0.5698	0.399
Mof_C 	C 	0.1341	0.6332	0.5211	-0.129
Mof_C 	C 	0.1487	0.5683	0.4916	0.045
Mof_H 	H 	0.1209	0.5233	0.5028	0.026
Mof_C 	C 	0.2033	0.569	0.4463	-0.111
Mof_H 	H 	0.2144	0.5241	0.4275	0.063
Mof_C 	C 	0.2421	0.6343	0.4276	0.045
Mof_C 	C 	0.2254	0.7008	0.4555	-0.104
Mof_H 	H 	0.2507	0.7461	0.443	0.064
Mof_C 	C 	0.1708	0.6991	0.5023	0.043
Mof_H 	H 	0.1589	0.7438	0.5212	0.03
Mof_C 	C 	0.2967	0.6349	0.3769	0.036
Mof_C 	C 	0.3426	0.5718	0.3593	-0.1
Mof_H 	H 	0.3404	0.5284	0.3809	0.066
Mof_C 	C 	0.391	0.5699	0.3117	0.037
Mof_H 	H 	0.4246	0.527	0.3018	0.029
Mof_C 	C 	0.3897	0.6314	0.2788	-0.111
Mof_C 	C 	0.3433	0.6944	0.294	0.031
Mof_H 	H 	0.3406	0.7359	0.2706	0.03
Mof_C 	C 	0.3012	0.6966	0.3431	-0.1
Mof_H 	H 	0.2741	0.7417	0.3547	0.059
Mof_C 	C 	0.4332	0.6282	0.2229	0.375
Mof_C 	C 	0.0438	0.6382	0.7314	0.423
Mof_C 	C 	0.1009	0.6377	0.7799	-0.155
Mof_C 	C 	0.1502	0.5784	0.7941	0.068
Mof_H 	H 	0.1478	0.535	0.7726	0.019
Mof_C 	C 	0.2059	0.5794	0.8408	-0.132
Mof_H 	H 	0.2437	0.5379	0.8486	0.079
Mof_C 	C 	0.2063	0.6383	0.8745	0.055
Mof_C 	C 	0.1535	0.6996	0.8628	-0.119
Mof_H 	H 	0.1528	0.7409	0.8865	0.069
Mof_C 	C 	0.1004	0.7004	0.8151	0.049
Mof_H 	H 	0.0643	0.7425	0.8065	0.029
Mof_C 	C 	0.2636	0.6363	0.9239	0.041
Mof_C 	C 	0.2927	0.5689	0.9443	-0.116
Mof_H 	H 	0.2742	0.524	0.9276	0.07
Mof_C 	C 	0.3494	0.5676	0.9896	0.049
Mof_H 	H 	0.3702	0.5213	0.0031	0.024
Mof_C 	C 	0.3756	0.6311	0.015	-0.13
Mof_C 	C 	0.3482	0.699	0.9937	0.042
Mof_H 	H 	0.3683	0.7437	0.01	0.03
Mof_C 	C 	0.2921	0.7015	0.949	-0.103
Mof_H 	H 	0.2728	0.748	0.9351	0.062
Mof_C 	C 	0.4392	0.6294	0.0624	0.395
Mof_Zn	Zn	0.03416	0.94727	0.64361	1.222
Mof_Zn	Zn	0.03951	0.43962	0.35593	1.221
Mof_Zn	Zn	0.00371	0.24682	0.35502	1.247
Mof_O 	O 	0.1696	0.4146	0.3489	-0.48
Mof_O 	O 	0.1176	0.3083	0.37951	-0.477
Mof_O 	O 	0.8361	0.0783	0.3576	-0.487
Mof_O 	O 	0.8856	0.1889	0.33334	-0.468
Mof_O 	O 	0.9739	0.4251	0.42266	-0.48
Mof_O 	O 	0.9159	0.316	0.39784	-0.46
Mof_O 	O 	0.5204	0.4297	0.78721	-0.479
Mof_O 	O 	0.5884	0.3248	0.8122	-0.445
Mof_O 	O 	0.968	0.422	0.29068	-0.501
Mof_O 	O 	0.9944	0.3018	0.28233	-0.455
Mof_O 	O 	0.5418	0.4318	0.91917	-0.497
Mof_O 	O 	0.5168	0.311	0.92535	-0.447
Mof_N 	N 	0.033	0.55309	0.3564	-0.224
Mof_N 	N 	0.9738	0.9392	0.3568	-0.22
Mof_C 	C 	0.9847	0.5877	0.3946	0.031
Mof_H 	H 	0.9582	0.559	0.4226	0.017
Mof_C 	C 	0.9716	0.664	0.3951	-0.067
Mof_H 	H 	0.9378	0.6873	0.4231	0.058
Mof_C 	C 	0.0093	0.7047	0.3537	-0.033
Mof_C 	C 	0.0595	0.6696	0.3139	0.127
Mof_C 	C 	0.1069	0.7089	0.2684	-0.511
Mof_H 	H 	0.1514	0.7443	0.2831	0.178
Mof_H 	H 	0.0615	0.7354	0.2467	0.177
Mof_H 	H 	0.1389	0.6727	0.2459	0.179
Mof_C 	C 	0.0679	0.5936	0.3173	-0.051
Mof_H 	H 	0.1009	0.5689	0.2897	0.032
Mof_C 	C 	0.0207	0.9045	0.3961	0.027
Mof_H 	H 	0.0453	0.9325	0.425	0.018
Mof_C 	C 	0.0335	0.8289	0.3949	-0.07
Mof_H 	H 	0.0686	0.8054	0.4221	0.059
Mof_C 	C 	0.9943	0.7866	0.3531	-0.028
Mof_C 	C 	0.9395	0.823	0.3153	0.134
Mof_C 	C 	0.8816	0.7838	0.2745	-0.525
Mof_H 	H 	0.8913	0.7303	0.2775	0.182
Mof_H 	H 	0.8986	0.8004	0.2383	0.178
Mof_H 	H 	0.8168	0.7951	0.2811	0.186
Mof_C 	C 	0.9334	0.8993	0.3185	-0.06
Mof_H 	H 	0.8986	0.9246	0.2919	0.035
Mof_C 	C 	0.1808	0.3483	0.3618	0.389
Mof_C 	C 	0.2759	0.3189	0.3595	-0.127
Mof_C 	C 	0.3487	0.3626	0.3407	0.032
Mof_H 	H 	0.3371	0.411	0.3275	0.03
Mof_C 	C 	0.4398	0.3346	0.3416	-0.103
Mof_H 	H 	0.4891	0.3638	0.3283	0.055
Mof_C 	C 	0.4563	0.2635	0.3622	0.026
Mof_C 	C 	0.3821	0.2198	0.3797	-0.103
Mof_H 	H 	0.3927	0.1712	0.3928	0.064
Mof_C 	C 	0.294	0.2475	0.3778	0.039
Mof_H 	H 	0.2446	0.2171	0.3893	0.03
Mof_C 	C 	0.5516	0.2338	0.3603	0.043
Mof_C 	C 	0.5664	0.158	0.354	-0.118
Mof_H 	H 	0.5155	0.1253	0.3521	0.066
Mof_C 	C 	0.6536	0.1302	0.3504	0.052
Mof_H 	H 	0.6627	0.0787	0.345	0.021
Mof_C 	C 	0.7276	0.1763	0.3546	-0.132
Mof_C 	C 	0.7149	0.2511	0.3597	0.041
Mof_H 	H 	0.7661	0.2836	0.3604	0.034
Mof_C 	C 	0.6255	0.2792	0.3638	-0.117
Mof_H 	H 	0.6165	0.3308	0.3691	0.066
Mof_C 	C 	0.8237	0.1461	0.3489	0.393
Mof_C 	C 	0.9247	0.3665	0.4302	0.399
Mof_C 	C 	0.8659	0.3668	0.4789	-0.129
Mof_C 	C 	0.8513	0.4317	0.5084	0.045
Mof_H 	H 	0.8791	0.4767	0.4972	0.026
Mof_C 	C 	0.7967	0.431	0.5537	-0.111
Mof_H 	H 	0.7856	0.4759	0.5725	0.063
Mof_C 	C 	0.7579	0.3657	0.5724	0.045
Mof_C 	C 	0.7746	0.2992	0.5445	-0.104
Mof_H 	H 	0.7493	0.2539	0.557	0.064
Mof_C 	C 	0.8292	0.3009	0.4977	0.043
Mof_H 	H 	0.8411	0.2562	0.4788	0.03
Mof_C 	C 	0.7033	0.3651	0.6231	0.036
Mof_C 	C 	0.6574	0.4282	0.6407	-0.1
Mof_H 	H 	0.6596	0.4716	0.6191	0.066
Mof_C 	C 	0.609	0.4301	0.6883	0.037
Mof_H 	H 	0.5754	0.473	0.6982	0.029
Mof_C 	C 	0.6103	0.3686	0.7212	-0.111
Mof_C 	C 	0.6567	0.3056	0.706	0.031
Mof_H 	H 	0.6594	0.2641	0.7294	0.03
Mof_C 	C 	0.6988	0.3034	0.6569	-0.1
Mof_H 	H 	0.7259	0.2583	0.6453	0.059
Mof_C 	C 	0.5668	0.3718	0.7771	0.375
Mof_C 	C 	0.9562	0.3618	0.2686	0.423
Mof_C 	C 	0.8991	0.3623	0.2201	-0.155
Mof_C 	C 	0.8498	0.4216	0.2059	0.068
Mof_H 	H 	0.8522	0.465	0.2274	0.019
Mof_C 	C 	0.7941	0.4206	0.1592	-0.132
Mof_H 	H 	0.7563	0.4621	0.1514	0.079
Mof_C 	C 	0.7937	0.3617	0.1255	0.055
Mof_C 	C 	0.8465	0.3004	0.1372	-0.119
Mof_H 	H 	0.8472	0.2591	0.1135	0.069
Mof_C 	C 	0.8996	0.2996	0.1849	0.049
Mof_H 	H 	0.9357	0.2575	0.1935	0.029
Mof_C 	C 	0.7364	0.3637	0.0761	0.041
Mof_C 	C 	0.7073	0.4311	0.0557	-0.116
Mof_H 	H 	0.7258	0.476	0.0724	0.07
Mof_C 	C 	0.6506	0.4324	0.0104	0.049
Mof_H 	H 	0.6298	0.4787	0.9969	0.024
Mof_C 	C 	0.6244	0.3689	0.985	-0.13
Mof_C 	C 	0.6518	0.301	0.0063	0.042
Mof_H 	H 	0.6317	0.2563	0.99	0.03
Mof_C 	C 	0.7079	0.2985	0.051	-0.103
Mof_H 	H 	0.7272	0.252	0.0649	0.062
Mof_C 	C 	0.5608	0.3706	0.9376	0.395
Mof_Zn	Zn	0.96584	0.05273	0.35639	1.222
Mof_Zn	Zn	0.53951	0.06038	0.85593	1.221
Mof_Zn	Zn	0.50371	0.25318	0.85502	1.246
Mof_O 	O 	0.6696	0.0854	0.8489	-0.48
Mof_O 	O 	0.6176	0.1917	0.87951	-0.478
Mof_O 	O 	0.3361	0.4217	0.8576	-0.486
Mof_O 	O 	0.3856	0.3111	0.83334	-0.467
Mof_O 	O 	0.4739	0.0749	0.92266	-0.481
Mof_O 	O 	0.4159	0.184	0.89784	-0.46
Mof_O 	O 	0.0204	0.0703	0.28721	-0.478
Mof_O 	O 	0.0884	0.1752	0.3122	-0.445
Mof_O 	O 	0.468	0.078	0.79068	-0.501
Mof_O 	O 	0.4944	0.1982	0.78233	-0.455
Mof_O 	O 	0.0418	0.0682	0.41917	-0.496
Mof_O 	O 	0.0168	0.189	0.42535	-0.446
Mof_N 	N 	0.533	0.94691	0.8564	-0.224
Mof_N 	N 	0.4738	0.5608	0.8568	-0.221
Mof_C 	C 	0.4847	0.9123	0.8946	0.031
Mof_H 	H 	0.4582	0.941	0.9226	0.017
Mof_C 	C 	0.4716	0.836	0.8951	-0.07
Mof_H 	H 	0.4378	0.8127	0.9231	0.058
Mof_C 	C 	0.5093	0.7953	0.8537	-0.029
Mof_C 	C 	0.5595	0.8304	0.8139	0.126
Mof_C 	C 	0.6069	0.7911	0.7684	-0.51
Mof_H 	H 	0.6514	0.7557	0.7831	0.178
Mof_H 	H 	0.5615	0.7646	0.7467	0.177
Mof_H 	H 	0.6389	0.8273	0.7459	0.178
Mof_C 	C 	0.5679	0.9064	0.8173	-0.05
Mof_H 	H 	0.6009	0.9311	0.7897	0.032
Mof_C 	C 	0.5207	0.5955	0.8961	0.028
Mof_H 	H 	0.5453	0.5675	0.925	0.019
Mof_C 	C 	0.5335	0.6711	0.8949	-0.067
Mof_H 	H 	0.5686	0.6946	0.9221	0.059
Mof_C 	C 	0.4943	0.7134	0.8531	-0.032
Mof_C 	C 	0.4395	0.677	0.8153	0.135
Mof_C 	C 	0.3816	0.7162	0.7745	-0.526
Mof_H 	H 	0.3913	0.7697	0.7775	0.182
Mof_H 	H 	0.3986	0.6996	0.7383	0.178
Mof_H 	H 	0.3168	0.7049	0.7811	0.186
Mof_C 	C 	0.4334	0.6007	0.8185	-0.061
Mof_H 	H 	0.3986	0.5754	0.7919	0.035
Mof_C 	C 	0.6808	0.1517	0.8618	0.389
Mof_C 	C 	0.7759	0.1811	0.8595	-0.126
Mof_C 	C 	0.8487	0.1374	0.8407	0.031
Mof_H 	H 	0.8371	0.089	0.8275	0.03
Mof_C 	C 	0.9398	0.1654	0.8416	-0.101
Mof_H 	H 	0.9891	0.1362	0.8283	0.054
Mof_C 	C 	0.9563	0.2365	0.8622	0.023
Mof_C 	C 	0.8821	0.2802	0.8797	-0.102
Mof_H 	H 	0.8927	0.3288	0.8928	0.063
Mof_C 	C 	0.794	0.2525	0.8778	0.038
Mof_H 	H 	0.7446	0.2829	0.8893	0.03
Mof_C 	C 	0.0516	0.2662	0.8603	0.047
Mof_C 	C 	0.0664	0.342	0.854	-0.12
Mof_H 	H 	0.0155	0.3747	0.8521	0.067
Mof_C 	C 	0.1536	0.3698	0.8504	0.054
Mof_H 	H 	0.1627	0.4213	0.845	0.021
Mof_C 	C 	0.2276	0.3237	0.8546	-0.133
Mof_C 	C 	0.2149	0.2489	0.8597	0.043
Mof_H 	H 	0.2661	0.2164	0.8604	0.034
Mof_C 	C 	0.1255	0.2208	0.8638	-0.119
Mof_H 	H 	0.1165	0.1692	0.8691	0.067
Mof_C 	C 	0.3237	0.3539	0.8489	0.393
Mof_C 	C 	0.4247	0.1335	0.9302	0.399
Mof_C 	C 	0.3659	0.1332	0.9789	-0.129
Mof_C 	C 	0.3513	0.0683	0.0084	0.045
Mof_H 	H 	0.3791	0.0233	0.9972	0.026
Mof_C 	C 	0.2967	0.069	0.0537	-0.111
Mof_H 	H 	0.2856	0.0241	0.0725	0.063
Mof_C 	C 	0.2579	0.1343	0.0724	0.045
Mof_C 	C 	0.2746	0.2008	0.0445	-0.104
Mof_H 	H 	0.2493	0.2461	0.057	0.064
Mof_C 	C 	0.3292	0.1991	0.9977	0.044
Mof_H 	H 	0.3411	0.2438	0.9788	0.03
Mof_C 	C 	0.2033	0.1349	0.1231	0.036
Mof_C 	C 	0.1574	0.0718	0.1407	-0.099
Mof_H 	H 	0.1596	0.0284	0.1191	0.067
Mof_C 	C 	0.109	0.0699	0.1883	0.037
Mof_H 	H 	0.0754	0.027	0.1982	0.029
Mof_C 	C 	0.1103	0.1314	0.2212	-0.111
Mof_C 	C 	0.1567	0.1944	0.206	0.031
Mof_H 	H 	0.1594	0.2359	0.2294	0.031
Mof_C 	C 	0.1988	0.1966	0.1569	-0.1
Mof_H 	H 	0.2259	0.2417	0.1453	0.059
Mof_C 	C 	0.0668	0.1282	0.2771	0.375
Mof_C 	C 	0.4562	0.1382	0.7686	0.423
Mof_C 	C 	0.3991	0.1377	0.7201	-0.155
Mof_C 	C 	0.3498	0.0784	0.7059	0.068
Mof_H 	H 	0.3522	0.035	0.7274	0.019
Mof_C 	C 	0.2941	0.0794	0.6592	-0.133
Mof_H 	H 	0.2563	0.0379	0.6514	0.079
Mof_C 	C 	0.2937	0.1383	0.6255	0.055
Mof_C 	C 	0.3465	0.1996	0.6372	-0.119
Mof_H 	H 	0.3472	0.2409	0.6135	0.069
Mof_C 	C 	0.3996	0.2004	0.6849	0.05
Mof_H 	H 	0.4357	0.2425	0.6935	0.029
Mof_C 	C 	0.2364	0.1363	0.5761	0.04
Mof_C 	C 	0.2073	0.0689	0.5557	-0.114
Mof_H 	H 	0.2258	0.024	0.5724	0.069
Mof_C 	C 	0.1506	0.0676	0.5104	0.048
Mof_H 	H 	0.1298	0.0213	0.4969	0.025
Mof_C 	C 	0.1244	0.1311	0.485	-0.128
Mof_C 	C 	0.1518	0.199	0.5063	0.041
Mof_H 	H 	0.1317	0.2437	0.49	0.031
Mof_C 	C 	0.2079	0.2015	0.551	-0.101
Mof_H 	H 	0.2272	0.248	0.5649	0.062
Mof_C 	C 	0.0608	0.1294	0.4376	0.394
Mof_Zn	Zn	0.46584	0.44727	0.85639	1.223
_end
