data_functionalizedCrystal
_audit_creation_method	'EQeq! by Chris Wilmer'
_symmetry_space_group_name_H-M	'P1'
_symmetry_Int_Tables_number	1
_symmetry_cell_setting	triclinic
loop_
_symmetry_equiv_pos_as_xyz
  x,y,z
_cell_length_a	10.1032
_cell_length_b	9.2299
_cell_length_c	31.773
_cell_angle_alpha	90
_cell_angle_beta	107.486
_cell_angle_gamma	90
loop_
_atom_site_label
_atom_site_type_symbol
_atom_site_fract_x
_atom_site_fract_y
_atom_site_fract_z
_atom_site_charge
Mof_Co	Co	0.09958	0.90351	0.21953	1.083
Mof_Co	Co	0.67981	0.15545	0.09389	1.17
Mof_Co	Co	0.1146	0.01311	0.62488	1.177
Mof_Co	Co	0.54788	0.17972	0.65698	1.162
Mof_Co	Co	0.13184	0.92954	0.52967	1.103
Mof_P 	P 	0.8289	0.1315	0.62781	0.44
Mof_P 	P 	0.3998	0.8941	0.6217	0.435
Mof_C 	C 	0.8712	0.3015	0.6074	-0.05
Mof_C 	C 	0.9253	0.3232	0.572	-0.069
Mof_C 	C 	0.9627	0.4631	0.5631	0.002
Mof_H 	H 	0.9938	0.4783	0.5381	0.08
Mof_C 	C 	0.956	0.5802	0.5896	0.006
Mof_C 	C 	0.9056	0.5584	0.6253	-0.078
Mof_C 	C 	0.8618	0.4225	0.6332	0.007
Mof_H 	H 	0.8239	0.4101	0.6569	0.034
Mof_C 	C 	0.9467	0.2009	0.543	0.425
Mof_C 	C 	0.008	0.7261	0.5812	0.282
Mof_C 	C 	0.8948	0.6719	0.6589	0.343
Mof_C 	C 	0.3566	0.7236	0.6415	-0.057
Mof_C 	C 	0.3025	0.7034	0.6771	-0.082
Mof_C 	C 	0.263	0.5672	0.6864	0.026
Mof_H 	H 	0.2317	0.5542	0.7115	0.04
Mof_C 	C 	0.2679	0.4482	0.66	-0.089
Mof_C 	C 	0.3214	0.468	0.6241	-0.074
Mof_C 	C 	0.3667	0.604	0.616	-0.008
Mof_H 	H 	0.4056	0.6158	0.5925	0.031
Mof_C 	C 	0.2841	0.8261	0.7069	0.357
Mof_C 	C 	0.2181	0.3013	0.6681	0.367
Mof_C 	C 	0.3353	0.3523	0.5921	0.339
Mof_C 	C 	0.5079	0.2979	0.7411	0.098
Mof_H 	H 	0.4677	0.2126	0.7487	-0.025
Mof_C 	C 	0.6123	0.4492	0.7105	0.008
Mof_H 	H 	0.6597	0.4877	0.6914	0.021
Mof_C 	C 	0.584	0.5227	0.7429	0.001
Mof_H 	H 	0.6056	0.6211	0.7508	0.043
Mof_C 	C 	0.4593	0.4604	0.7988	-0.168
Mof_H 	H 	0.4077	0.3755	0.8047	0.071
Mof_H 	H 	0.3934	0.5423	0.7901	0.093
Mof_C 	C 	0.5733	0.4998	0.8402	0.172
Mof_C 	C 	0.6265	0.3976	0.8722	-0.233
Mof_H 	H 	0.5888	0.3025	0.8689	0.102
Mof_C 	C 	0.7352	0.4325	0.9095	0.181
Mof_C 	C 	0.7886	0.5699	0.9148	-0.218
Mof_H 	H 	0.8633	0.5936	0.9402	0.131
Mof_C 	C 	0.7336	0.6739	0.8833	0.13
Mof_H 	H 	0.7706	0.7693	0.8873	-0.007
Mof_C 	C 	0.6257	0.6418	0.8458	-0.211
Mof_H 	H 	0.5878	0.7143	0.8244	0.108
Mof_C 	C 	0.7926	0.3215	0.9453	-0.175
Mof_H 	H 	0.7804	0.2233	0.9322	0.077
Mof_H 	H 	0.8932	0.3384	0.9589	0.096
Mof_C 	C 	0.7256	0.2214	0.0084	0.071
Mof_H 	H 	0.7639	0.1279	0.0074	-0
Mof_C 	C 	0.6599	0.4458	0.9922	-0.003
Mof_H 	H 	0.643	0.5379	0.9783	0.045
Mof_C 	C 	0.6266	0.4041	0.0288	0.016
Mof_H 	H 	0.5818	0.4634	0.0448	0.017
Mof_C 	C 	0.0028	0.63	0.2578	-0.065
Mof_H 	H 	0.0442	0.5689	0.2412	0.045
Mof_C 	C 	0.9325	0.8183	0.285	-0.001
Mof_H 	H 	0.9155	0.9164	0.2908	0.013
Mof_C 	C 	0.8968	0.7001	0.3054	0.008
Mof_H 	H 	0.8503	0.6999	0.3273	0.037
Mof_C 	C 	0.9387	0.4326	0.3021	-0.06
Mof_H 	H 	0.918	0.3672	0.2762	0.076
Mof_H 	H 	0.8637	0.4217	0.316	0.064
Mof_C 	C 	0.0747	0.3896	0.3346	0.037
Mof_C 	C 	0.1092	0.4296	0.3779	-0.147
Mof_H 	H 	0.0449	0.4849	0.3878	0.056
Mof_C 	C 	0.1686	0.311	0.3201	-0.13
Mof_H 	H 	0.146	0.2829	0.29	0.059
Mof_C 	C 	0.2955	0.2731	0.3492	0.04
Mof_H 	H 	0.3598	0.2191	0.339	0.014
Mof_C 	C 	0.3297	0.3129	0.3929	-0.147
Mof_H 	H 	0.4173	0.2862	0.4126	0.076
Mof_C 	C 	0.2375	0.3913	0.4084	0.097
Mof_C 	C 	0.2759	0.4302	0.4565	-0.137
Mof_H 	H 	0.2123	0.3792	0.4699	0.068
Mof_H 	H 	0.3711	0.3948	0.4712	0.075
Mof_C 	C 	0.2134	0.6466	0.494	0.066
Mof_H 	H 	0.1665	0.5944	0.511	0.008
Mof_C 	C 	0.3297	0.6956	0.4483	-0.016
Mof_H 	H 	0.38	0.6876	0.4275	0.036
Mof_C 	C 	0.3027	0.8175	0.4668	-0.003
Mof_H 	H 	0.3301	0.9116	0.4606	-0.001
Mof_N 	N 	0.5623	0.308	0.7089	-0.254
Mof_N 	N 	0.517	0.4263	0.7623	-0.101
Mof_N 	N 	0.6668	0.2657	0.039	-0.248
Mof_N 	N 	0.7223	0.3299	0.9792	-0.09
Mof_N 	N 	0.9972	0.7723	0.2546	-0.175
Mof_N 	N 	0.9421	0.5826	0.2875	-0.058
Mof_N 	N 	0.2301	0.7884	0.4959	-0.246
Mof_N 	N 	0.2706	0.5838	0.465	-0.101
Mof_O 	O 	0.7569	0.0363	0.5883	-0.431
Mof_O 	O 	0.7395	0.1611	0.65723	-0.459
Mof_O 	O 	0.9685	0.0699	0.65512	-0.484
Mof_O 	O 	0.0149	0.0884	0.5604	-0.575
Mof_O 	O 	0.9029	0.2202	0.5017	-0.293
Mof_O 	O 	0.0406	0.7461	0.5462	-0.452
Mof_O 	O 	0.0135	0.8177	0.61081	-0.458
Mof_O 	O 	0.7841	0.7514	0.6487	-0.434
Mof_O 	O 	0.9813	0.6691	0.6957	-0.238
Mof_O 	O 	0.4888	0.863	0.5919	-0.463
Mof_O 	O 	0.4724	0.9879	0.66119	-0.438
Mof_O 	O 	0.2595	0.9562	0.5943	-0.521
Mof_O 	O 	0.2164	0.9389	0.6895	-0.516
Mof_O 	O 	0.3349	0.8088	0.7471	-0.307
Mof_O 	O 	0.1803	0.2848	0.70224	-0.464
Mof_O 	O 	0.2176	0.2067	0.6406	-0.47
Mof_O 	O 	0.4441	0.275	0.6017	-0.442
Mof_O 	O 	0.2474	0.3503	0.555	-0.288
Mof_Co	Co	0.09958	0.09649	0.71953	1.082
Mof_Co	Co	0.67981	0.84455	0.59389	1.169
Mof_Co	Co	0.1146	0.98689	0.12488	1.177
Mof_Co	Co	0.54788	0.82028	0.15698	1.162
Mof_Co	Co	0.13184	0.07046	0.02967	1.101
Mof_P 	P 	0.8289	0.8685	0.12781	0.44
Mof_P 	P 	0.3998	0.1059	0.1217	0.435
Mof_C 	C 	0.8712	0.6985	0.1074	-0.05
Mof_C 	C 	0.9253	0.6768	0.072	-0.07
Mof_C 	C 	0.9627	0.5369	0.0631	0.002
Mof_H 	H 	0.9938	0.5217	0.0381	0.079
Mof_C 	C 	0.956	0.4198	0.0896	0.005
Mof_C 	C 	0.9056	0.4416	0.1253	-0.077
Mof_C 	C 	0.8618	0.5775	0.1332	0.006
Mof_H 	H 	0.8239	0.5899	0.1569	0.034
Mof_C 	C 	0.9467	0.7991	0.043	0.425
Mof_C 	C 	0.008	0.2739	0.0812	0.282
Mof_C 	C 	0.8948	0.3281	0.1589	0.343
Mof_C 	C 	0.3566	0.2764	0.1415	-0.057
Mof_C 	C 	0.3025	0.2966	0.1771	-0.082
Mof_C 	C 	0.263	0.4328	0.1864	0.026
Mof_H 	H 	0.2317	0.4458	0.2115	0.04
Mof_C 	C 	0.2679	0.5518	0.16	-0.089
Mof_C 	C 	0.3214	0.532	0.1241	-0.075
Mof_C 	C 	0.3667	0.396	0.116	-0.007
Mof_H 	H 	0.4056	0.3842	0.0925	0.03
Mof_C 	C 	0.2841	0.1739	0.2069	0.357
Mof_C 	C 	0.2181	0.6987	0.1681	0.367
Mof_C 	C 	0.3353	0.6477	0.0921	0.339
Mof_C 	C 	0.5079	0.7021	0.2411	0.098
Mof_H 	H 	0.4677	0.7874	0.2487	-0.025
Mof_C 	C 	0.6123	0.5508	0.2105	0.008
Mof_H 	H 	0.6597	0.5123	0.1914	0.021
Mof_C 	C 	0.584	0.4773	0.2429	0.001
Mof_H 	H 	0.6056	0.3789	0.2508	0.043
Mof_C 	C 	0.4593	0.5396	0.2988	-0.168
Mof_H 	H 	0.4077	0.6245	0.3047	0.071
Mof_H 	H 	0.3934	0.4577	0.2901	0.093
Mof_C 	C 	0.5733	0.5002	0.3402	0.172
Mof_C 	C 	0.6265	0.6024	0.3722	-0.232
Mof_H 	H 	0.5888	0.6975	0.3689	0.102
Mof_C 	C 	0.7352	0.5675	0.4095	0.18
Mof_C 	C 	0.7886	0.4301	0.4148	-0.217
Mof_H 	H 	0.8633	0.4064	0.4402	0.13
Mof_C 	C 	0.7336	0.3261	0.3833	0.129
Mof_H 	H 	0.7706	0.2307	0.3873	-0.008
Mof_C 	C 	0.6257	0.3582	0.3458	-0.21
Mof_H 	H 	0.5878	0.2857	0.3244	0.108
Mof_C 	C 	0.7926	0.6785	0.4453	-0.175
Mof_H 	H 	0.7804	0.7767	0.4322	0.076
Mof_H 	H 	0.8932	0.6616	0.4589	0.095
Mof_C 	C 	0.7256	0.7786	0.5084	0.077
Mof_H 	H 	0.7639	0.8721	0.5074	-0.001
Mof_C 	C 	0.6599	0.5542	0.4922	-0.013
Mof_H 	H 	0.643	0.4621	0.4783	0.047
Mof_C 	C 	0.6266	0.5959	0.5288	0.025
Mof_H 	H 	0.5818	0.5366	0.5448	0.015
Mof_C 	C 	0.0028	0.37	0.7578	-0.065
Mof_H 	H 	0.0442	0.4311	0.7412	0.045
Mof_C 	C 	0.9325	0.1817	0.785	-0.001
Mof_H 	H 	0.9155	0.0836	0.7908	0.013
Mof_C 	C 	0.8968	0.2999	0.8054	0.008
Mof_H 	H 	0.8503	0.3001	0.8273	0.037
Mof_C 	C 	0.9387	0.5674	0.8021	-0.061
Mof_H 	H 	0.918	0.6328	0.7762	0.076
Mof_H 	H 	0.8637	0.5783	0.816	0.065
Mof_C 	C 	0.0747	0.6104	0.8346	0.037
Mof_C 	C 	0.1092	0.5704	0.8779	-0.147
Mof_H 	H 	0.0449	0.5151	0.8878	0.056
Mof_C 	C 	0.1686	0.689	0.8201	-0.13
Mof_H 	H 	0.146	0.7171	0.79	0.059
Mof_C 	C 	0.2955	0.7269	0.8492	0.041
Mof_H 	H 	0.3598	0.7809	0.839	0.014
Mof_C 	C 	0.3297	0.6871	0.8929	-0.148
Mof_H 	H 	0.4173	0.7138	0.9126	0.077
Mof_C 	C 	0.2375	0.6087	0.9084	0.098
Mof_C 	C 	0.2759	0.5698	0.9565	-0.138
Mof_H 	H 	0.2123	0.6208	0.9699	0.07
Mof_H 	H 	0.3711	0.6052	0.9712	0.076
Mof_C 	C 	0.2134	0.3534	0.994	0.075
Mof_H 	H 	0.1665	0.4056	0.011	0.002
Mof_C 	C 	0.3297	0.3044	0.9483	-0.015
Mof_H 	H 	0.38	0.3124	0.9275	0.037
Mof_C 	C 	0.3027	0.1825	0.9668	-0.002
Mof_H 	H 	0.3301	0.0884	0.9606	-0.001
Mof_N 	N 	0.5623	0.692	0.2089	-0.254
Mof_N 	N 	0.517	0.5737	0.2623	-0.101
Mof_N 	N 	0.6668	0.7343	0.539	-0.25
Mof_N 	N 	0.7223	0.6701	0.4792	-0.092
Mof_N 	N 	0.9972	0.2277	0.7546	-0.175
Mof_N 	N 	0.9421	0.4174	0.7875	-0.058
Mof_N 	N 	0.2301	0.2116	0.9959	-0.246
Mof_N 	N 	0.2706	0.4162	0.965	-0.102
Mof_O 	O 	0.7569	0.9637	0.0883	-0.431
Mof_O 	O 	0.7395	0.8389	0.15723	-0.459
Mof_O 	O 	0.9685	0.9301	0.15512	-0.484
Mof_O 	O 	0.0149	0.9116	0.0604	-0.575
Mof_O 	O 	0.9029	0.7798	0.0017	-0.296
Mof_O 	O 	0.0406	0.2539	0.0462	-0.453
Mof_O 	O 	0.0135	0.1823	0.11081	-0.458
Mof_O 	O 	0.7841	0.2486	0.1487	-0.433
Mof_O 	O 	0.9813	0.3309	0.1957	-0.238
Mof_O 	O 	0.4888	0.137	0.0919	-0.464
Mof_O 	O 	0.4724	0.0121	0.16119	-0.438
Mof_O 	O 	0.2595	0.0438	0.0943	-0.522
Mof_O 	O 	0.2164	0.0611	0.1895	-0.516
Mof_O 	O 	0.3349	0.1912	0.2471	-0.307
Mof_O 	O 	0.1803	0.7152	0.20224	-0.464
Mof_O 	O 	0.2176	0.7933	0.1406	-0.47
Mof_O 	O 	0.4441	0.725	0.1017	-0.443
Mof_O 	O 	0.2474	0.6497	0.055	-0.29
_end
