data_functionalizedCrystal
_audit_creation_method	'EQeq! by Chris Wilmer'
_symmetry_space_group_name_H-M	'P1'
_symmetry_Int_Tables_number	1
_symmetry_cell_setting	triclinic
loop_
_symmetry_equiv_pos_as_xyz
  x,y,z
_cell_length_a	31.065
_cell_length_b	31.065
_cell_length_c	8.0003
_cell_angle_alpha	90
_cell_angle_beta	90
_cell_angle_gamma	90
loop_
_atom_site_label
_atom_site_type_symbol
_atom_site_fract_x
_atom_site_fract_y
_atom_site_fract_z
_atom_site_charge
Mof_Ag	Ag	0.1863	0.30562	0.08931	0.537
Mof_N 	N 	0.98963	0.38574	0.0601	-0.198
Mof_N 	N 	0.06745	0.25558	0.8346	-0.095
Mof_N 	N 	0.10268	0.23472	0.7679	-0.097
Mof_N 	N 	0.11614	0.30411	0.7705	-0.167
Mof_N 	N 	0.25021	0.22621	0.5128	-0.193
Mof_N 	N 	0.17085	0.35119	0.8495	-0.208
Mof_C 	C 	0.06168	0.36492	0.995	-0.1
Mof_H 	H 	0.091	0.3705	0.0034	0.048
Mof_C 	C 	0.03202	0.39243	0.0673	0.061
Mof_H 	H 	0.0421	0.4166	0.1235	-0.01
Mof_C 	C 	0.97605	0.35063	0.9781	0.099
Mof_H 	H 	0.9466	0.3456	0.972	-0.01
Mof_C 	C 	0.00299	0.32187	0.9034	-0.133
Mof_H 	H 	0.992	0.2978	0.8488	0.1
Mof_C 	C 	0.04714	0.32899	0.9101	0.049
Mof_C 	C 	0.0761	0.29673	0.8368	0.094
Mof_C 	C 	0.13146	0.26412	0.7305	0.081
Mof_C 	C 	0.17311	0.25339	0.656	0.051
Mof_C 	C 	0.1925	0.21533	0.7043	-0.137
Mof_H 	H 	0.1799	0.1982	0.7862	0.074
Mof_C 	C 	0.23019	0.2031	0.6312	0.078
Mof_H 	H 	0.2427	0.1773	0.6652	-0.011
Mof_C 	C 	0.23188	0.26336	0.4686	0.077
Mof_H 	H 	0.2455	0.2801	0.3882	-0.03
Mof_C 	C 	0.1936	0.27819	0.5366	-0.139
Mof_H 	H 	0.1819	0.3043	0.5024	0.06
Mof_C 	C 	0.13774	0.34479	0.75	0.179
Mof_C 	C 	0.19088	0.38904	0.8348	0.106
Mof_H 	H 	0.2142	0.3946	0.9041	-0.029
Mof_C 	C 	0.17865	0.42007	0.7223	-0.203
Mof_H 	H 	0.1935	0.446	0.7157	0.086
Mof_C 	C 	0.14435	0.41228	0.6202	0.12
Mof_H 	H 	0.1356	0.4328	0.5428	-0.026
Mof_C 	C 	0.12285	0.37358	0.6333	-0.233
Mof_H 	H 	0.0993	0.3673	0.5659	0.117
Mof_Ag	Ag	0.6863	0.80562	0.58931	0.552
Mof_N 	N 	0.48963	0.88574	0.5601	-0.198
Mof_N 	N 	0.56745	0.75558	0.3346	-0.094
Mof_N 	N 	0.60268	0.73472	0.2679	-0.097
Mof_N 	N 	0.61614	0.80411	0.2705	-0.165
Mof_N 	N 	0.75021	0.72621	0.0128	-0.19
Mof_N 	N 	0.67085	0.85119	0.3495	-0.211
Mof_C 	C 	0.56168	0.86492	0.495	-0.137
Mof_H 	H 	0.591	0.8705	0.5034	0.067
Mof_C 	C 	0.53202	0.89243	0.5673	0.087
Mof_H 	H 	0.5421	0.9166	0.6235	-0.018
Mof_C 	C 	0.47605	0.85063	0.4781	0.096
Mof_H 	H 	0.4466	0.8456	0.472	-0.011
Mof_C 	C 	0.50299	0.82187	0.4034	-0.141
Mof_H 	H 	0.492	0.7978	0.3488	0.102
Mof_C 	C 	0.54714	0.82899	0.4101	0.063
Mof_C 	C 	0.5761	0.79673	0.3368	0.087
Mof_C 	C 	0.63146	0.76412	0.2305	0.08
Mof_C 	C 	0.67311	0.75339	0.156	0.048
Mof_C 	C 	0.6925	0.71533	0.2043	-0.136
Mof_H 	H 	0.6799	0.6982	0.2862	0.072
Mof_C 	C 	0.73019	0.7031	0.1312	0.076
Mof_H 	H 	0.7427	0.6773	0.1652	-0.011
Mof_C 	C 	0.73188	0.76336	0.9686	0.074
Mof_H 	H 	0.7455	0.7801	0.8882	-0.029
Mof_C 	C 	0.6936	0.77819	0.0366	-0.135
Mof_H 	H 	0.6819	0.8043	0.0024	0.059
Mof_C 	C 	0.63774	0.84479	0.25	0.177
Mof_C 	C 	0.69088	0.88904	0.3348	0.105
Mof_H 	H 	0.7142	0.8946	0.4041	-0.03
Mof_C 	C 	0.67865	0.92007	0.2223	-0.204
Mof_H 	H 	0.6935	0.946	0.2157	0.086
Mof_C 	C 	0.64435	0.91228	0.1202	0.12
Mof_H 	H 	0.6356	0.9328	0.0428	-0.026
Mof_C 	C 	0.62285	0.87358	0.1333	-0.233
Mof_H 	H 	0.5993	0.8673	0.0659	0.116
Mof_Ag	Ag	0.3137	0.69438	0.58931	0.552
Mof_N 	N 	0.51037	0.61426	0.5601	-0.198
Mof_N 	N 	0.43255	0.74442	0.3346	-0.094
Mof_N 	N 	0.39732	0.76528	0.2679	-0.097
Mof_N 	N 	0.38386	0.69589	0.2705	-0.165
Mof_N 	N 	0.24979	0.77379	0.0128	-0.19
Mof_N 	N 	0.32915	0.64881	0.3495	-0.211
Mof_C 	C 	0.43832	0.63508	0.495	-0.137
Mof_H 	H 	0.409	0.6295	0.5034	0.067
Mof_C 	C 	0.46798	0.60757	0.5673	0.087
Mof_H 	H 	0.4579	0.5834	0.6235	-0.018
Mof_C 	C 	0.52395	0.64937	0.4781	0.096
Mof_H 	H 	0.5534	0.6544	0.472	-0.011
Mof_C 	C 	0.49701	0.67813	0.4034	-0.141
Mof_H 	H 	0.508	0.7022	0.3488	0.102
Mof_C 	C 	0.45286	0.67101	0.4101	0.063
Mof_C 	C 	0.4239	0.70327	0.3368	0.087
Mof_C 	C 	0.36854	0.73588	0.2305	0.08
Mof_C 	C 	0.32689	0.74661	0.156	0.048
Mof_C 	C 	0.3075	0.78467	0.2043	-0.136
Mof_H 	H 	0.3201	0.8018	0.2862	0.072
Mof_C 	C 	0.26981	0.7969	0.1312	0.077
Mof_H 	H 	0.2573	0.8227	0.1652	-0.011
Mof_C 	C 	0.26812	0.73664	0.9686	0.074
Mof_H 	H 	0.2545	0.7199	0.8882	-0.029
Mof_C 	C 	0.3064	0.72181	0.0366	-0.135
Mof_H 	H 	0.3181	0.6957	0.0024	0.059
Mof_C 	C 	0.36226	0.65521	0.25	0.177
Mof_C 	C 	0.30912	0.61096	0.3348	0.105
Mof_H 	H 	0.2858	0.6054	0.4041	-0.03
Mof_C 	C 	0.32135	0.57993	0.2223	-0.204
Mof_H 	H 	0.3065	0.554	0.2157	0.086
Mof_C 	C 	0.35565	0.58772	0.1202	0.12
Mof_H 	H 	0.3644	0.5672	0.0428	-0.026
Mof_C 	C 	0.37715	0.62642	0.1333	-0.233
Mof_H 	H 	0.4007	0.6327	0.0659	0.116
Mof_Ag	Ag	0.8137	0.19438	0.08931	0.538
Mof_N 	N 	0.01037	0.11426	0.0601	-0.197
Mof_N 	N 	0.93255	0.24442	0.8346	-0.094
Mof_N 	N 	0.89732	0.26528	0.7679	-0.096
Mof_N 	N 	0.88386	0.19589	0.7705	-0.166
Mof_N 	N 	0.74979	0.27379	0.5128	-0.192
Mof_N 	N 	0.82915	0.14881	0.8495	-0.208
Mof_C 	C 	0.93832	0.13508	0.995	-0.099
Mof_H 	H 	0.909	0.1295	0.0034	0.048
Mof_C 	C 	0.96798	0.10757	0.0673	0.061
Mof_H 	H 	0.9579	0.0834	0.1235	-0.01
Mof_C 	C 	0.02395	0.14937	0.9781	0.099
Mof_H 	H 	0.0534	0.1544	0.972	-0.01
Mof_C 	C 	0.99701	0.17813	0.9034	-0.133
Mof_H 	H 	0.008	0.2022	0.8488	0.1
Mof_C 	C 	0.95286	0.17101	0.9101	0.049
Mof_C 	C 	0.9239	0.20327	0.8368	0.094
Mof_C 	C 	0.86854	0.23588	0.7305	0.081
Mof_C 	C 	0.82689	0.24661	0.656	0.051
Mof_C 	C 	0.8075	0.28467	0.7043	-0.137
Mof_H 	H 	0.8201	0.3018	0.7862	0.074
Mof_C 	C 	0.76981	0.2969	0.6312	0.078
Mof_H 	H 	0.7573	0.3227	0.6652	-0.011
Mof_C 	C 	0.76812	0.23664	0.4686	0.077
Mof_H 	H 	0.7545	0.2199	0.3882	-0.03
Mof_C 	C 	0.8064	0.22181	0.5366	-0.139
Mof_H 	H 	0.8181	0.1957	0.5024	0.06
Mof_C 	C 	0.86226	0.15521	0.75	0.179
Mof_C 	C 	0.80912	0.11096	0.8348	0.106
Mof_H 	H 	0.7858	0.1054	0.9041	-0.029
Mof_C 	C 	0.82135	0.07993	0.7223	-0.203
Mof_H 	H 	0.8065	0.054	0.7157	0.086
Mof_C 	C 	0.85565	0.08772	0.6202	0.12
Mof_H 	H 	0.8644	0.0672	0.5428	-0.026
Mof_C 	C 	0.87715	0.12642	0.6333	-0.233
Mof_H 	H 	0.9007	0.1327	0.5659	0.117
Mof_Ag	Ag	0.44438	0.4363	0.33931	0.55
Mof_N 	N 	0.36426	0.23963	0.3101	-0.198
Mof_N 	N 	0.49442	0.31745	0.0846	-0.094
Mof_N 	N 	0.51528	0.35268	0.0179	-0.104
Mof_N 	N 	0.44589	0.36614	0.0205	-0.169
Mof_N 	N 	0.52379	0.50021	0.7628	-0.189
Mof_N 	N 	0.39881	0.42085	0.0995	-0.205
Mof_C 	C 	0.38508	0.31168	0.245	-0.138
Mof_H 	H 	0.3795	0.341	0.2534	0.067
Mof_C 	C 	0.35757	0.28202	0.3173	0.087
Mof_H 	H 	0.3334	0.2921	0.3735	-0.019
Mof_C 	C 	0.39937	0.22605	0.2281	0.095
Mof_H 	H 	0.4044	0.1966	0.222	-0.012
Mof_C 	C 	0.42813	0.25299	0.1534	-0.142
Mof_H 	H 	0.4522	0.242	0.0988	0.1
Mof_C 	C 	0.42101	0.29714	0.1601	0.062
Mof_C 	C 	0.45327	0.3261	0.0868	0.085
Mof_C 	C 	0.48588	0.38146	0.9805	0.096
Mof_C 	C 	0.49661	0.42311	0.906	0.038
Mof_C 	C 	0.53467	0.4425	0.9543	-0.115
Mof_H 	H 	0.5518	0.4299	0.0362	0.06
Mof_C 	C 	0.5469	0.48019	0.8812	0.067
Mof_H 	H 	0.5727	0.4927	0.9152	-0.007
Mof_C 	C 	0.48664	0.48188	0.7186	0.073
Mof_H 	H 	0.4699	0.4955	0.6382	-0.028
Mof_C 	C 	0.47181	0.4436	0.7866	-0.13
Mof_H 	H 	0.4457	0.4319	0.7524	0.058
Mof_C 	C 	0.40521	0.38774	-0	0.161
Mof_C 	C 	0.36096	0.44088	0.0848	0.084
Mof_H 	H 	0.3554	0.4642	0.1541	-0.024
Mof_C 	C 	0.32993	0.42865	0.9723	-0.176
Mof_H 	H 	0.304	0.4435	0.9657	0.078
Mof_C 	C 	0.33772	0.39435	0.8702	0.098
Mof_H 	H 	0.3172	0.3856	0.7928	-0.017
Mof_C 	C 	0.37642	0.37285	0.8833	-0.207
Mof_H 	H 	0.3827	0.3493	0.8159	0.109
Mof_Ag	Ag	0.94438	0.9363	0.83931	0.552
Mof_N 	N 	0.86426	0.73963	0.8101	-0.198
Mof_N 	N 	0.99442	0.81745	0.5846	-0.094
Mof_N 	N 	0.01528	0.85268	0.5179	-0.097
Mof_N 	N 	0.94589	0.86614	0.5205	-0.165
Mof_N 	N 	0.02379	0.00021	0.2628	-0.192
Mof_N 	N 	0.89881	0.92085	0.5995	-0.211
Mof_C 	C 	0.88508	0.81168	0.745	-0.138
Mof_H 	H 	0.8795	0.841	0.7534	0.067
Mof_C 	C 	0.85757	0.78202	0.8173	0.087
Mof_H 	H 	0.8334	0.7921	0.8735	-0.019
Mof_C 	C 	0.89937	0.72605	0.7281	0.096
Mof_H 	H 	0.9044	0.6966	0.722	-0.011
Mof_C 	C 	0.92813	0.75299	0.6534	-0.141
Mof_H 	H 	0.9522	0.742	0.5988	0.101
Mof_C 	C 	0.92101	0.79714	0.6601	0.063
Mof_C 	C 	0.95327	0.8261	0.5868	0.087
Mof_C 	C 	0.98588	0.88146	0.4805	0.079
Mof_C 	C 	0.99661	0.92311	0.406	0.05
Mof_C 	C 	0.03467	0.9425	0.4543	-0.137
Mof_H 	H 	0.0518	0.9299	0.5362	0.072
Mof_C 	C 	0.0469	0.98019	0.3812	0.077
Mof_H 	H 	0.0727	0.9927	0.4152	-0.011
Mof_C 	C 	0.98664	0.98188	0.2186	0.077
Mof_H 	H 	0.9699	0.9955	0.1382	-0.031
Mof_C 	C 	0.97181	0.9436	0.2866	-0.139
Mof_H 	H 	0.9457	0.9319	0.2524	0.06
Mof_C 	C 	0.90521	0.88774	0.5	0.177
Mof_C 	C 	0.86096	0.94088	0.5848	0.105
Mof_H 	H 	0.8554	0.9642	0.6541	-0.03
Mof_C 	C 	0.82993	0.92865	0.4723	-0.203
Mof_H 	H 	0.804	0.9435	0.4657	0.086
Mof_C 	C 	0.83772	0.89435	0.3702	0.119
Mof_H 	H 	0.8172	0.8856	0.2928	-0.025
Mof_C 	C 	0.87642	0.87285	0.3833	-0.233
Mof_H 	H 	0.8827	0.8493	0.3159	0.117
Mof_Ag	Ag	0.05562	0.5637	0.83931	0.553
Mof_N 	N 	0.13574	0.76037	0.8101	-0.198
Mof_N 	N 	0.00558	0.68255	0.5846	-0.094
Mof_N 	N 	0.98472	0.64732	0.5179	-0.097
Mof_N 	N 	0.05411	0.63386	0.5205	-0.165
Mof_N 	N 	0.97621	0.49979	0.2628	-0.192
Mof_N 	N 	0.10119	0.57915	0.5995	-0.211
Mof_C 	C 	0.11492	0.68832	0.745	-0.138
Mof_H 	H 	0.1205	0.659	0.7534	0.067
Mof_C 	C 	0.14243	0.71798	0.8173	0.087
Mof_H 	H 	0.1666	0.7079	0.8735	-0.019
Mof_C 	C 	0.10063	0.77395	0.7281	0.096
Mof_H 	H 	0.0956	0.8034	0.722	-0.011
Mof_C 	C 	0.07187	0.74701	0.6534	-0.141
Mof_H 	H 	0.0478	0.758	0.5988	0.101
Mof_C 	C 	0.07899	0.70286	0.6601	0.063
Mof_C 	C 	0.04673	0.6739	0.5868	0.087
Mof_C 	C 	0.01412	0.61854	0.4805	0.08
Mof_C 	C 	0.00339	0.57689	0.406	0.05
Mof_C 	C 	0.96533	0.5575	0.4543	-0.137
Mof_H 	H 	0.9482	0.5701	0.5362	0.072
Mof_C 	C 	0.9531	0.51981	0.3812	0.077
Mof_H 	H 	0.9273	0.5073	0.4152	-0.011
Mof_C 	C 	0.01336	0.51812	0.2186	0.077
Mof_H 	H 	0.0301	0.5045	0.1382	-0.031
Mof_C 	C 	0.02819	0.5564	0.2866	-0.139
Mof_H 	H 	0.0543	0.5681	0.2524	0.06
Mof_C 	C 	0.09479	0.61226	0.5	0.177
Mof_C 	C 	0.13904	0.55912	0.5848	0.105
Mof_H 	H 	0.1446	0.5358	0.6541	-0.03
Mof_C 	C 	0.17007	0.57135	0.4723	-0.203
Mof_H 	H 	0.196	0.5565	0.4657	0.086
Mof_C 	C 	0.16228	0.60565	0.3702	0.119
Mof_H 	H 	0.1828	0.6144	0.2928	-0.025
Mof_C 	C 	0.12358	0.62715	0.3833	-0.233
Mof_H 	H 	0.1173	0.6507	0.3159	0.117
Mof_Ag	Ag	0.55562	0.0637	0.33931	0.55
Mof_N 	N 	0.63574	0.26037	0.3101	-0.198
Mof_N 	N 	0.50558	0.18255	0.0846	-0.094
Mof_N 	N 	0.48472	0.14732	0.0179	-0.104
Mof_N 	N 	0.55411	0.13386	0.0205	-0.169
Mof_N 	N 	0.47621	0.99979	0.7628	-0.189
Mof_N 	N 	0.60119	0.07915	0.0995	-0.205
Mof_C 	C 	0.61492	0.18832	0.245	-0.138
Mof_H 	H 	0.6205	0.159	0.2534	0.067
Mof_C 	C 	0.64243	0.21798	0.3173	0.087
Mof_H 	H 	0.6666	0.2079	0.3735	-0.019
Mof_C 	C 	0.60063	0.27395	0.2281	0.095
Mof_H 	H 	0.5956	0.3034	0.222	-0.012
Mof_C 	C 	0.57187	0.24701	0.1534	-0.142
Mof_H 	H 	0.5478	0.258	0.0988	0.1
Mof_C 	C 	0.57899	0.20286	0.1601	0.062
Mof_C 	C 	0.54673	0.1739	0.0868	0.085
Mof_C 	C 	0.51412	0.11854	0.9805	0.096
Mof_C 	C 	0.50339	0.07689	0.906	0.038
Mof_C 	C 	0.46533	0.0575	0.9543	-0.114
Mof_H 	H 	0.4482	0.0701	0.0362	0.059
Mof_C 	C 	0.4531	0.01981	0.8812	0.066
Mof_H 	H 	0.4273	0.0073	0.9152	-0.007
Mof_C 	C 	0.51336	0.01812	0.7186	0.073
Mof_H 	H 	0.5301	0.0045	0.6382	-0.028
Mof_C 	C 	0.52819	0.0564	0.7866	-0.13
Mof_H 	H 	0.5543	0.0681	0.7524	0.058
Mof_C 	C 	0.59479	0.11226	-0	0.161
Mof_C 	C 	0.63904	0.05912	0.0848	0.084
Mof_H 	H 	0.6446	0.0358	0.1541	-0.024
Mof_C 	C 	0.67007	0.07135	0.9723	-0.175
Mof_H 	H 	0.696	0.0565	0.9657	0.078
Mof_C 	C 	0.66228	0.10565	0.8702	0.097
Mof_H 	H 	0.6828	0.1144	0.7928	-0.017
Mof_C 	C 	0.62358	0.12715	0.8833	-0.207
Mof_H 	H 	0.6173	0.1507	0.8159	0.109
Mof_Ag	Ag	0.8137	0.69438	0.91069	0.549
Mof_N 	N 	0.01037	0.61426	0.9399	-0.198
Mof_N 	N 	0.93255	0.74442	0.1654	-0.094
Mof_N 	N 	0.89732	0.76528	0.2321	-0.097
Mof_N 	N 	0.88386	0.69589	0.2295	-0.165
Mof_N 	N 	0.74979	0.77379	0.4872	-0.192
Mof_N 	N 	0.82915	0.64881	0.1505	-0.21
Mof_C 	C 	0.93832	0.63508	0.005	-0.132
Mof_H 	H 	0.909	0.6295	0.9966	0.064
Mof_C 	C 	0.96798	0.60757	0.9327	0.083
Mof_H 	H 	0.9579	0.5834	0.8765	-0.017
Mof_C 	C 	0.02395	0.64937	0.0219	0.097
Mof_H 	H 	0.0534	0.6544	0.028	-0.011
Mof_C 	C 	0.99701	0.67813	0.0966	-0.14
Mof_H 	H 	0.008	0.7022	0.1512	0.101
Mof_C 	C 	0.95286	0.67101	0.0899	0.061
Mof_C 	C 	0.9239	0.70327	0.1632	0.088
Mof_C 	C 	0.86854	0.73588	0.2695	0.08
Mof_C 	C 	0.82689	0.74661	0.344	0.05
Mof_C 	C 	0.8075	0.78467	0.2957	-0.137
Mof_H 	H 	0.8201	0.8018	0.2138	0.073
Mof_C 	C 	0.76981	0.7969	0.3688	0.077
Mof_H 	H 	0.7573	0.8227	0.3348	-0.012
Mof_C 	C 	0.76812	0.73664	0.5314	0.077
Mof_H 	H 	0.7545	0.7199	0.6118	-0.03
Mof_C 	C 	0.8064	0.72181	0.4634	-0.139
Mof_H 	H 	0.8181	0.6957	0.4976	0.06
Mof_C 	C 	0.86226	0.65521	0.25	0.178
Mof_C 	C 	0.80912	0.61096	0.1652	0.105
Mof_H 	H 	0.7858	0.6054	0.0959	-0.03
Mof_C 	C 	0.82135	0.57993	0.2777	-0.203
Mof_H 	H 	0.8065	0.554	0.2843	0.086
Mof_C 	C 	0.85565	0.58772	0.3798	0.12
Mof_H 	H 	0.8644	0.5672	0.4572	-0.025
Mof_C 	C 	0.87715	0.62642	0.3667	-0.233
Mof_H 	H 	0.9007	0.6327	0.4341	0.116
Mof_Ag	Ag	0.3137	0.19438	0.41069	0.548
Mof_N 	N 	0.51037	0.11426	0.4399	-0.198
Mof_N 	N 	0.43255	0.24442	0.6654	-0.093
Mof_N 	N 	0.39732	0.26528	0.7321	-0.097
Mof_N 	N 	0.38386	0.19589	0.7295	-0.166
Mof_N 	N 	0.24979	0.27379	0.9872	-0.179
Mof_N 	N 	0.32915	0.14881	0.6505	-0.211
Mof_C 	C 	0.43832	0.13508	0.505	-0.138
Mof_H 	H 	0.409	0.1295	0.4966	0.067
Mof_C 	C 	0.46798	0.10757	0.4327	0.087
Mof_H 	H 	0.4579	0.0834	0.3765	-0.019
Mof_C 	C 	0.52395	0.14937	0.5219	0.097
Mof_H 	H 	0.5534	0.1544	0.528	-0.011
Mof_C 	C 	0.49701	0.17813	0.5966	-0.141
Mof_H 	H 	0.508	0.2022	0.6512	0.103
Mof_C 	C 	0.45286	0.17101	0.5899	0.063
Mof_C 	C 	0.4239	0.20327	0.6632	0.088
Mof_C 	C 	0.36854	0.23588	0.7695	0.085
Mof_C 	C 	0.32689	0.24661	0.844	0.038
Mof_C 	C 	0.3075	0.28467	0.7957	-0.126
Mof_H 	H 	0.3201	0.3018	0.7138	0.069
Mof_C 	C 	0.26981	0.2969	0.8688	0.072
Mof_H 	H 	0.2573	0.3227	0.8348	-0.009
Mof_C 	C 	0.26812	0.23664	0.0314	0.046
Mof_H 	H 	0.2545	0.2199	0.1118	-0.021
Mof_C 	C 	0.3064	0.22181	0.9634	-0.111
Mof_H 	H 	0.3181	0.1957	0.9976	0.054
Mof_C 	C 	0.36226	0.15521	0.75	0.179
Mof_C 	C 	0.30912	0.11096	0.6652	0.106
Mof_H 	H 	0.2858	0.1054	0.5959	-0.031
Mof_C 	C 	0.32135	0.07993	0.7777	-0.204
Mof_H 	H 	0.3065	0.054	0.7843	0.087
Mof_C 	C 	0.35565	0.08772	0.8798	0.121
Mof_H 	H 	0.3644	0.0672	0.9572	-0.024
Mof_C 	C 	0.37715	0.12642	0.8667	-0.233
Mof_H 	H 	0.4007	0.1327	0.9341	0.119
Mof_Ag	Ag	0.6863	0.30562	0.41069	0.549
Mof_N 	N 	0.48963	0.38574	0.4399	-0.198
Mof_N 	N 	0.56745	0.25558	0.6654	-0.093
Mof_N 	N 	0.60268	0.23472	0.7321	-0.097
Mof_N 	N 	0.61614	0.30411	0.7295	-0.166
Mof_N 	N 	0.75021	0.22621	0.9872	-0.179
Mof_N 	N 	0.67085	0.35119	0.6505	-0.211
Mof_C 	C 	0.56168	0.36492	0.505	-0.138
Mof_H 	H 	0.591	0.3705	0.4966	0.067
Mof_C 	C 	0.53202	0.39243	0.4327	0.087
Mof_H 	H 	0.5421	0.4166	0.3765	-0.019
Mof_C 	C 	0.47605	0.35063	0.5219	0.097
Mof_H 	H 	0.4466	0.3456	0.528	-0.011
Mof_C 	C 	0.50299	0.32187	0.5966	-0.141
Mof_H 	H 	0.492	0.2978	0.6512	0.103
Mof_C 	C 	0.54714	0.32899	0.5899	0.063
Mof_C 	C 	0.5761	0.29673	0.6632	0.088
Mof_C 	C 	0.63146	0.26412	0.7695	0.085
Mof_C 	C 	0.67311	0.25339	0.844	0.038
Mof_C 	C 	0.6925	0.21533	0.7957	-0.126
Mof_H 	H 	0.6799	0.1982	0.7138	0.069
Mof_C 	C 	0.73019	0.2031	0.8688	0.072
Mof_H 	H 	0.7427	0.1773	0.8348	-0.009
Mof_C 	C 	0.73188	0.26336	0.0314	0.046
Mof_H 	H 	0.7455	0.2801	0.1118	-0.021
Mof_C 	C 	0.6936	0.27819	0.9634	-0.111
Mof_H 	H 	0.6819	0.3043	0.9976	0.054
Mof_C 	C 	0.63774	0.34479	0.75	0.179
Mof_C 	C 	0.69088	0.38904	0.6652	0.106
Mof_H 	H 	0.7142	0.3946	0.5959	-0.031
Mof_C 	C 	0.67865	0.42007	0.7777	-0.204
Mof_H 	H 	0.6935	0.446	0.7843	0.087
Mof_C 	C 	0.64435	0.41228	0.8798	0.121
Mof_H 	H 	0.6356	0.4328	0.9572	-0.024
Mof_C 	C 	0.62285	0.37358	0.8667	-0.233
Mof_H 	H 	0.5993	0.3673	0.9341	0.119
Mof_Ag	Ag	0.1863	0.80562	0.91069	0.549
Mof_N 	N 	0.98963	0.88574	0.9399	-0.198
Mof_N 	N 	0.06745	0.75558	0.1654	-0.094
Mof_N 	N 	0.10268	0.73472	0.2321	-0.097
Mof_N 	N 	0.11614	0.80411	0.2295	-0.165
Mof_N 	N 	0.25021	0.72621	0.4872	-0.192
Mof_N 	N 	0.17085	0.85119	0.1505	-0.21
Mof_C 	C 	0.06168	0.86492	0.005	-0.131
Mof_H 	H 	0.091	0.8705	0.9966	0.064
Mof_C 	C 	0.03202	0.89243	0.9327	0.083
Mof_H 	H 	0.0421	0.9166	0.8765	-0.017
Mof_C 	C 	0.97605	0.85063	0.0219	0.097
Mof_H 	H 	0.9466	0.8456	0.028	-0.011
Mof_C 	C 	0.00299	0.82187	0.0966	-0.14
Mof_H 	H 	0.992	0.7978	0.1512	0.101
Mof_C 	C 	0.04714	0.82899	0.0899	0.061
Mof_C 	C 	0.0761	0.79673	0.1632	0.088
Mof_C 	C 	0.13146	0.76412	0.2695	0.08
Mof_C 	C 	0.17311	0.75339	0.344	0.05
Mof_C 	C 	0.1925	0.71533	0.2957	-0.137
Mof_H 	H 	0.1799	0.6982	0.2138	0.073
Mof_C 	C 	0.23019	0.7031	0.3688	0.077
Mof_H 	H 	0.2427	0.6773	0.3348	-0.012
Mof_C 	C 	0.23188	0.76336	0.5314	0.077
Mof_H 	H 	0.2455	0.7801	0.6118	-0.03
Mof_C 	C 	0.1936	0.77819	0.4634	-0.139
Mof_H 	H 	0.1819	0.8043	0.4976	0.06
Mof_C 	C 	0.13774	0.84479	0.25	0.178
Mof_C 	C 	0.19088	0.88904	0.1652	0.105
Mof_H 	H 	0.2142	0.8946	0.0959	-0.03
Mof_C 	C 	0.17865	0.92007	0.2777	-0.203
Mof_H 	H 	0.1935	0.946	0.2843	0.086
Mof_C 	C 	0.14435	0.91228	0.3798	0.12
Mof_H 	H 	0.1356	0.9328	0.4572	-0.025
Mof_C 	C 	0.12285	0.87358	0.3667	-0.233
Mof_H 	H 	0.0993	0.8673	0.4341	0.116
Mof_Ag	Ag	0.55562	0.5637	0.66069	0.552
Mof_N 	N 	0.63574	0.76037	0.6899	-0.198
Mof_N 	N 	0.50558	0.68255	0.9154	-0.094
Mof_N 	N 	0.48472	0.64732	0.9821	-0.095
Mof_N 	N 	0.55411	0.63386	0.9795	-0.163
Mof_N 	N 	0.47621	0.49979	0.2372	-0.193
Mof_N 	N 	0.60119	0.57915	0.9005	-0.21
Mof_C 	C 	0.61492	0.68832	0.755	-0.138
Mof_H 	H 	0.6205	0.659	0.7466	0.067
Mof_C 	C 	0.64243	0.71798	0.6827	0.087
Mof_H 	H 	0.6666	0.7079	0.6265	-0.018
Mof_C 	C 	0.60063	0.77395	0.7719	0.096
Mof_H 	H 	0.5956	0.8034	0.778	-0.011
Mof_C 	C 	0.57187	0.74701	0.8466	-0.141
Mof_H 	H 	0.5478	0.758	0.9012	0.102
Mof_C 	C 	0.57899	0.70286	0.8399	0.063
Mof_C 	C 	0.54673	0.6739	0.9132	0.087
Mof_C 	C 	0.51412	0.61854	0.0195	0.075
Mof_C 	C 	0.50339	0.57689	0.094	0.054
Mof_C 	C 	0.46533	0.5575	0.0457	-0.147
Mof_H 	H 	0.4482	0.5701	0.9638	0.078
Mof_C 	C 	0.4531	0.51981	0.1188	0.081
Mof_H 	H 	0.4273	0.5073	0.0848	-0.014
Mof_C 	C 	0.51336	0.51812	0.2814	0.079
Mof_H 	H 	0.5301	0.5045	0.3618	-0.031
Mof_C 	C 	0.52819	0.5564	0.2134	-0.142
Mof_H 	H 	0.5543	0.5681	0.2476	0.061
Mof_C 	C 	0.59479	0.61226	-0	0.175
Mof_C 	C 	0.63904	0.55912	0.9152	0.109
Mof_H 	H 	0.6446	0.5358	0.8459	-0.032
Mof_C 	C 	0.67007	0.57135	0.0277	-0.209
Mof_H 	H 	0.696	0.5565	0.0343	0.087
Mof_C 	C 	0.66228	0.60565	0.1298	0.122
Mof_H 	H 	0.6828	0.6144	0.2072	-0.026
Mof_C 	C 	0.62358	0.62715	0.1167	-0.233
Mof_H 	H 	0.6173	0.6507	0.1841	0.117
Mof_Ag	Ag	0.05562	0.0637	0.16069	0.547
Mof_N 	N 	0.13574	0.26037	0.1899	-0.198
Mof_N 	N 	0.00558	0.18255	0.4154	-0.094
Mof_N 	N 	0.98472	0.14732	0.4821	-0.097
Mof_N 	N 	0.05411	0.13386	0.4795	-0.165
Mof_N 	N 	0.97621	0.99979	0.7372	-0.192
Mof_N 	N 	0.10119	0.07915	0.4005	-0.211
Mof_C 	C 	0.11492	0.18832	0.255	-0.138
Mof_H 	H 	0.1205	0.159	0.2466	0.066
Mof_C 	C 	0.14243	0.21798	0.1827	0.086
Mof_H 	H 	0.1666	0.2079	0.1265	-0.02
Mof_C 	C 	0.10063	0.27395	0.2719	0.095
Mof_H 	H 	0.0956	0.3034	0.278	-0.012
Mof_C 	C 	0.07187	0.24701	0.3466	-0.142
Mof_H 	H 	0.0478	0.258	0.4012	0.101
Mof_C 	C 	0.07899	0.20286	0.3399	0.062
Mof_C 	C 	0.04673	0.1739	0.4132	0.087
Mof_C 	C 	0.01412	0.11854	0.5195	0.08
Mof_C 	C 	0.00339	0.07689	0.594	0.05
Mof_C 	C 	0.96533	0.0575	0.5457	-0.137
Mof_H 	H 	0.9482	0.0701	0.4638	0.072
Mof_C 	C 	0.9531	0.01981	0.6188	0.078
Mof_H 	H 	0.9273	0.0073	0.5848	-0.012
Mof_C 	C 	0.01336	0.01812	0.7814	0.078
Mof_H 	H 	0.0301	0.0045	0.8618	-0.029
Mof_C 	C 	0.02819	0.0564	0.7134	-0.138
Mof_H 	H 	0.0543	0.0681	0.7476	0.061
Mof_C 	C 	0.09479	0.11226	0.5	0.177
Mof_C 	C 	0.13904	0.05912	0.4152	0.105
Mof_H 	H 	0.1446	0.0358	0.3459	-0.031
Mof_C 	C 	0.17007	0.07135	0.5277	-0.203
Mof_H 	H 	0.196	0.0565	0.5343	0.086
Mof_C 	C 	0.16228	0.10565	0.6298	0.119
Mof_H 	H 	0.1828	0.1144	0.7072	-0.025
Mof_C 	C 	0.12358	0.12715	0.6167	-0.232
Mof_H 	H 	0.1173	0.1507	0.6841	0.117
Mof_Ag	Ag	0.94438	0.4363	0.16069	0.547
Mof_N 	N 	0.86426	0.23963	0.1899	-0.198
Mof_N 	N 	0.99442	0.31745	0.4154	-0.094
Mof_N 	N 	0.01528	0.35268	0.4821	-0.097
Mof_N 	N 	0.94589	0.36614	0.4795	-0.165
Mof_N 	N 	0.02379	0.50021	0.7372	-0.192
Mof_N 	N 	0.89881	0.42085	0.4005	-0.211
Mof_C 	C 	0.88508	0.31168	0.255	-0.138
Mof_H 	H 	0.8795	0.341	0.2466	0.066
Mof_C 	C 	0.85757	0.28202	0.1827	0.086
Mof_H 	H 	0.8334	0.2921	0.1265	-0.02
Mof_C 	C 	0.89937	0.22605	0.2719	0.095
Mof_H 	H 	0.9044	0.1966	0.278	-0.012
Mof_C 	C 	0.92813	0.25299	0.3466	-0.142
Mof_H 	H 	0.9522	0.242	0.4012	0.101
Mof_C 	C 	0.92101	0.29714	0.3399	0.062
Mof_C 	C 	0.95327	0.3261	0.4132	0.087
Mof_C 	C 	0.98588	0.38146	0.5195	0.08
Mof_C 	C 	0.99661	0.42311	0.594	0.05
Mof_C 	C 	0.03467	0.4425	0.5457	-0.137
Mof_H 	H 	0.0518	0.4299	0.4638	0.072
Mof_C 	C 	0.0469	0.48019	0.6188	0.078
Mof_H 	H 	0.0727	0.4927	0.5848	-0.012
Mof_C 	C 	0.98664	0.48188	0.7814	0.078
Mof_H 	H 	0.9699	0.4955	0.8618	-0.029
Mof_C 	C 	0.97181	0.4436	0.7134	-0.138
Mof_H 	H 	0.9457	0.4319	0.7476	0.061
Mof_C 	C 	0.90521	0.38774	0.5	0.177
Mof_C 	C 	0.86096	0.44088	0.4152	0.105
Mof_H 	H 	0.8554	0.4642	0.3459	-0.031
Mof_C 	C 	0.82993	0.42865	0.5277	-0.203
Mof_H 	H 	0.804	0.4435	0.5343	0.086
Mof_C 	C 	0.83772	0.39435	0.6298	0.119
Mof_H 	H 	0.8172	0.3856	0.7072	-0.025
Mof_C 	C 	0.87642	0.37285	0.6167	-0.232
Mof_H 	H 	0.8827	0.3493	0.6841	0.117
Mof_Ag	Ag	0.44438	0.9363	0.66069	0.552
Mof_N 	N 	0.36426	0.73963	0.6899	-0.198
Mof_N 	N 	0.49442	0.81745	0.9154	-0.094
Mof_N 	N 	0.51528	0.85268	0.9821	-0.096
Mof_N 	N 	0.44589	0.86614	0.9795	-0.163
Mof_N 	N 	0.52379	0.00021	0.2372	-0.194
Mof_N 	N 	0.39881	0.92085	0.9005	-0.21
Mof_C 	C 	0.38508	0.81168	0.755	-0.138
Mof_H 	H 	0.3795	0.841	0.7466	0.067
Mof_C 	C 	0.35757	0.78202	0.6827	0.087
Mof_H 	H 	0.3334	0.7921	0.6265	-0.018
Mof_C 	C 	0.39937	0.72605	0.7719	0.096
Mof_H 	H 	0.4044	0.6966	0.778	-0.011
Mof_C 	C 	0.42813	0.75299	0.8466	-0.141
Mof_H 	H 	0.4522	0.742	0.9012	0.102
Mof_C 	C 	0.42101	0.79714	0.8399	0.063
Mof_C 	C 	0.45327	0.8261	0.9132	0.087
Mof_C 	C 	0.48588	0.88146	0.0195	0.076
Mof_C 	C 	0.49661	0.92311	0.094	0.054
Mof_C 	C 	0.53467	0.9425	0.0457	-0.147
Mof_H 	H 	0.5518	0.9299	0.9638	0.078
Mof_C 	C 	0.5469	0.98019	0.1188	0.081
Mof_H 	H 	0.5727	0.9927	0.0848	-0.014
Mof_C 	C 	0.48664	0.98188	0.2814	0.079
Mof_H 	H 	0.4699	0.9955	0.3618	-0.031
Mof_C 	C 	0.47181	0.9436	0.2134	-0.142
Mof_H 	H 	0.4457	0.9319	0.2476	0.061
Mof_C 	C 	0.40521	0.88774	-0	0.175
Mof_C 	C 	0.36096	0.94088	0.9152	0.109
Mof_H 	H 	0.3554	0.9642	0.8459	-0.032
Mof_C 	C 	0.32993	0.92865	0.0277	-0.208
Mof_H 	H 	0.304	0.9435	0.0343	0.087
Mof_C 	C 	0.33772	0.89435	0.1298	0.121
Mof_H 	H 	0.3172	0.8856	0.2072	-0.026
Mof_C 	C 	0.37642	0.87285	0.1167	-0.233
Mof_H 	H 	0.3827	0.8493	0.1841	0.117
_end
