# CIF file generated by openbabel 3.1.0, see https://openbabel.org
data_I
_chemical_name_common 'image0'
_cell_length_a 18.927
_cell_length_b 18.927
_cell_length_c 24.693
_cell_angle_alpha 90
_cell_angle_beta 90
_cell_angle_gamma 120
_space_group_name_H-M_alt 'P 1'
_space_group_name_Hall 'P 1'
loop_
    _symmetry_equiv_pos_as_xyz
    x,y,z
loop_
    _atom_site_label
    _atom_site_type_symbol
    _atom_site_fract_x
    _atom_site_fract_y
    _atom_site_fract_z
    _atom_site_occupancy
    Fe1      Fe       0.31929    0.53847    0.70848    1.000
    O1       O        0.35430    0.50640    0.64501    1.000
    O2       O        0.37640    0.50380    0.76210    1.000
    O3       O        0.21450    0.42880    0.71260    1.000
    O4       O        0.25640    0.58580    0.67002    1.000
    O5       O        0.42010    0.65150    0.70970    1.000
    O6       O        0.27960    0.57380    0.77270    1.000
    Fe2      Fe       0.36354    0.41098    0.64721    1.000
    Fe3      Fe       0.37943    0.57017    0.58114    1.000
    C1       C        0.42640    0.47930    0.75700    1.000
    C2       C        0.20740    0.36030    0.70830    1.000
    C3       C        0.24420    0.59370    0.62070    1.000
    C4       C        0.45700    0.69670    0.66920    1.000
    C5       C        0.24630    0.55130    0.81830    1.000
    O7       O        0.38000    0.31410    0.64560    1.000
    O8       O        0.43510    0.44670    0.71440    1.000
    O9       O        0.26290    0.34640    0.69250    1.000
    O10      O        0.29460    0.36330    0.57950    1.000
    O11      O        0.47010    0.45890    0.60440    1.000
    O12      O        0.27510    0.57640    0.58111    1.000
    O13      O        0.43700    0.67700    0.62080    1.000
    O14      O        0.32110    0.47280    0.53080    1.000
    O15      O        0.48940    0.57780    0.57110    1.000
    O16      O        0.22840    0.59820    0.84390    1.000
    C6       C        0.47680    0.48690    0.80530    1.000
    C7       C        0.12980    0.28730    0.72510    1.000
    C8       C        0.18930    0.62840    0.60910    1.000
    C9       C        0.52770    0.77880    0.68060    1.000
    C10      C        0.22410    0.46990    0.84150    1.000
    C11      C        0.34930    0.23930    0.65250    1.000
    C12      C        0.28480    0.39620    0.53870    1.000
    C13      C        0.51370    0.52780    0.58250    1.000
    H1       H        0.51270    0.46640    0.79680    1.000
    H2       H        0.50840    0.54320    0.81570    1.000
    H3       H        0.44170    0.45600    0.83470    1.000
    H4       H        0.13360    0.23910    0.71940    1.000
    H5       H        0.12000    0.29170    0.76280    1.000
    H6       H        0.08560    0.28390    0.70400    1.000
    H7       H        0.17030    0.63860    0.64260    1.000
    H8       H        0.21910    0.67850    0.58930    1.000
    H9       H        0.14350    0.59000    0.58800    1.000
    H10      H        0.53630    0.78580    0.71900    1.000
    H11      H        0.57570    0.78380    0.66360    1.000
    H12      H        0.51700    0.81980    0.66650    1.000
    H13      H        0.19940    0.46400    0.87640    1.000
    H14      H        0.18630    0.42760    0.81780    1.000
    H15      H        0.27240    0.46570    0.84520    1.000
    O17      O        0.39220    0.20730    0.65450    1.000
    C14      C        0.25500    0.18670    0.65000    1.000
    C15      C        0.22790    0.34200    0.49480    1.000
    C16      C        0.60030    0.55300    0.56930    1.000
    Fe4      Fe       0.39020    0.09962    0.66128    1.000
    H16      H        0.23200    0.22180    0.64860    1.000
    H17      H        0.23930    0.15300    0.61820    1.000
    H18      H        0.23540    0.15280    0.68160    1.000
    H19      H        0.22610    0.37520    0.46600    1.000
    H20      H        0.24730    0.30740    0.48100    1.000
    H21      H        0.17420    0.30910    0.50960    1.000
    H22      H        0.62640    0.60610    0.55300    1.000
    H23      H        0.62860    0.55450    0.60190    1.000
    H24      H        0.60130    0.51440    0.54450    1.000
    O18      O        0.29680    0.06650    0.71380    1.000
    O19      O        0.48680    0.15860    0.60850    1.000
    O20      O        0.46740    0.15160    0.72410    1.000
    O21      O        0.25190    0.93650    0.73730    1.000
    C17      C        0.25750    0.00520    0.74460    1.000
    C18      C        0.53610    0.13970    0.58890    1.000
    C19      C        0.52520    0.14210    0.74010    1.000
    O22      O        0.54100    0.07800    0.60360    1.000
    O23      O        0.54510    0.09360    0.72040    1.000
    C20      C        0.21090    0.01420    0.79070    1.000
    C21      C        0.59480    0.19550    0.54680    1.000
    C22      C        0.57390    0.19670    0.78630    1.000
    H25      H        0.22070    0.06910    0.79150    1.000
    H26      H        0.15370    0.97690    0.78580    1.000
    H27      H        0.22870    0.00240    0.82420    1.000
    H28      H        0.62900    0.17440    0.53510    1.000
    H29      H        0.56490    0.19880    0.51650    1.000
    H30      H        0.62790    0.24880    0.56210    1.000
    H31      H        0.55110    0.23000    0.79670    1.000
    H32      H        0.57210    0.16390    0.81650    1.000
    H33      H        0.62950    0.23100    0.77510    1.000
    O24      O        0.59930    0.99790    0.65290    1.000
    H34      H        0.63760    0.99970    0.67200    1.000
    H35      H        0.61000    0.99500    0.61980    1.000
    Fe5      Fe       0.46153    0.78082    0.37515    1.000
    O25      O        0.49360    0.84790    0.31168    1.000
    O26      O        0.49620    0.87260    0.42877    1.000
    O27      O        0.57120    0.78570    0.37927    1.000
    O28      O        0.41420    0.67060    0.33669    1.000
    O29      O        0.34850    0.76860    0.37637    1.000
    O30      O        0.42620    0.70580    0.43937    1.000
    Fe6      Fe       0.58902    0.95256    0.31388    1.000
    Fe7      Fe       0.42983    0.80926    0.24781    1.000
    C23      C        0.52070    0.94710    0.42367    1.000
    C24      C        0.63970    0.84710    0.37497    1.000
    C25      C        0.40630    0.65050    0.28737    1.000
    C26      C        0.30330    0.76030    0.33587    1.000
    C27      C        0.44870    0.69500    0.48497    1.000
    O31      O        0.68590    0.06590    0.31227    1.000
    O32      O        0.55330    0.98840    0.38107    1.000
    O33      O        0.65360    0.91650    0.35917    1.000
    O34      O        0.63670    0.93130    0.24617    1.000
    O35      O        0.54110    0.01120    0.27107    1.000
    O36      O        0.42360    0.69870    0.24778    1.000
    O37      O        0.32300    0.76000    0.28747    1.000
    O38      O        0.52720    0.84830    0.19747    1.000
    O39      O        0.42220    0.91160    0.23777    1.000
    O40      O        0.40180    0.63020    0.51057    1.000
    C28      C        0.51310    0.98990    0.47197    1.000
    C29      C        0.71270    0.84250    0.39177    1.000
    C30      C        0.37160    0.56090    0.27577    1.000
    C31      C        0.22120    0.74890    0.34727    1.000
    C32      C        0.53010    0.75420    0.50817    1.000
    C33      C        0.76070    0.11000    0.31917    1.000
    C34      C        0.60380    0.88860    0.20537    1.000
    C35      C        0.47220    0.98590    0.24917    1.000
    H36      H        0.53360    0.04630    0.46347    1.000
    H37      H        0.45680    0.96520    0.48237    1.000
    H38      H        0.54400    0.98570    0.50137    1.000
    H39      H        0.76090    0.89450    0.38607    1.000
    H40      H        0.70830    0.82830    0.42947    1.000
    H41      H        0.71610    0.80170    0.37067    1.000
    H42      H        0.36140    0.53170    0.30927    1.000
    H43      H        0.32150    0.54060    0.25597    1.000
    H44      H        0.41000    0.55350    0.25467    1.000
    H45      H        0.21420    0.75050    0.38567    1.000
    H46      H        0.21620    0.79190    0.33027    1.000
    H47      H        0.18020    0.69720    0.33317    1.000
    H48      H        0.53600    0.73540    0.54307    1.000
    H49      H        0.57240    0.75870    0.48447    1.000
    H50      H        0.53430    0.80670    0.51187    1.000
    O41      O        0.79270    0.18490    0.32117    1.000
    C36      C        0.81330    0.06830    0.31667    1.000
    C37      C        0.65800    0.88590    0.16147    1.000
    C38      C        0.44700    0.04730    0.23597    1.000
    Fe8      Fe       0.90038    0.29058    0.32795    1.000
    H51      H        0.77820    0.01020    0.31527    1.000
    H52      H        0.84700    0.08630    0.28487    1.000
    H53      H        0.84720    0.08260    0.34827    1.000
    H54      H        0.62480    0.85090    0.13267    1.000
    H55      H        0.69260    0.93990    0.14767    1.000
    H56      H        0.69090    0.86510    0.17627    1.000
    H57      H        0.39390    0.02030    0.21967    1.000
    H58      H        0.44550    0.07410    0.26857    1.000
    H59      H        0.48560    0.08690    0.21117    1.000
    O42      O        0.93350    0.23030    0.38047    1.000
    O43      O        0.84140    0.32820    0.27517    1.000
    O44      O        0.84840    0.31580    0.39077    1.000
    O45      O        0.06350    0.31540    0.40397    1.000
    C39      C        0.99480    0.25230    0.41127    1.000
    C40      C        0.86030    0.39640    0.25557    1.000
    C41      C        0.85790    0.38310    0.40677    1.000
    O46      O        0.92200    0.46300    0.27027    1.000
    O47      O        0.90640    0.45150    0.38707    1.000
    C42      C        0.98580    0.19670    0.45737    1.000
    C43      C        0.80450    0.39930    0.21347    1.000
    C44      C        0.80330    0.37720    0.45297    1.000
    H60      H        0.93090    0.15160    0.45817    1.000
    H61      H        0.02310    0.17680    0.45247    1.000
    H62      H        0.99760    0.22630    0.49087    1.000
    H63      H        0.82560    0.45460    0.20177    1.000
    H64      H        0.80120    0.36610    0.18317    1.000
    H65      H        0.75120    0.37910    0.22877    1.000
    H66      H        0.77000    0.32110    0.46337    1.000
    H67      H        0.83610    0.40820    0.48317    1.000
    H68      H        0.76900    0.39850    0.44177    1.000
    O48      O        0.00210    0.60140    0.31957    1.000
    H69      H        0.00030    0.63790    0.33867    1.000
    H70      H        0.00500    0.61500    0.28647    1.000
    Fe9      Fe       0.21918    0.68071    0.04181    1.000
    O49      O        0.15210    0.64570    0.97834    1.000
    O50      O        0.12740    0.62360    0.09543    1.000
    O51      O        0.21430    0.78550    0.04593    1.000
    O52      O        0.32940    0.74360    0.00335    1.000
    O53      O        0.23140    0.57990    0.04303    1.000
    O54      O        0.29420    0.72040    0.10603    1.000
    Fe10     Fe       0.04744    0.63646    0.98054    1.000
    Fe11     Fe       0.19074    0.62057    0.91447    1.000
    C45      C        0.05290    0.57360    0.09033    1.000
    C46      C        0.15290    0.79260    0.04163    1.000
    C47      C        0.34950    0.75580    0.95403    1.000
    C48      C        0.23970    0.54300    0.00253    1.000
    C49      C        0.30500    0.75370    0.15163    1.000
    O55      O        0.93410    0.62000    0.97893    1.000
    O56      O        0.01160    0.56490    0.04773    1.000
    O57      O        0.08350    0.73710    0.02583    1.000
    O58      O        0.06870    0.70540    0.91283    1.000
    O59      O        0.98880    0.52990    0.93773    1.000
    O60      O        0.30130    0.72490    0.91444    1.000
    O61      O        0.24000    0.56300    0.95413    1.000
    O62      O        0.15170    0.67890    0.86413    1.000
    O63      O        0.08840    0.51060    0.90443    1.000
    O64      O        0.36980    0.77160    0.17723    1.000
    C50      C        0.01010    0.52320    0.13863    1.000
    C51      C        0.15750    0.87020    0.05843    1.000
    C52      C        0.43910    0.81070    0.94243    1.000
    C53      C        0.25110    0.47230    0.01393    1.000
    C54      C        0.24580    0.77590    0.17483    1.000
    C55      C        0.89000    0.65070    0.98583    1.000
    C56      C        0.11140    0.71520    0.87203    1.000
    C57      C        0.01410    0.48630    0.91583    1.000
    H71      H        0.95370    0.48730    0.13013    1.000
    H72      H        0.03480    0.49160    0.14903    1.000
    H73      H        0.01430    0.55830    0.16803    1.000
    H74      H        0.10550    0.86640    0.05273    1.000
    H75      H        0.17170    0.88000    0.09613    1.000
    H76      H        0.19830    0.91440    0.03733    1.000
    H77      H        0.46830    0.82970    0.97593    1.000
    H78      H        0.45940    0.78090    0.92263    1.000
    H79      H        0.44650    0.85650    0.92133    1.000
    H80      H        0.24950    0.46370    0.05233    1.000
    H81      H        0.20810    0.42430    0.99693    1.000
    H82      H        0.30280    0.48300    0.99983    1.000
    H83      H        0.26460    0.80060    0.20973    1.000
    H84      H        0.24130    0.81370    0.15113    1.000
    H85      H        0.19330    0.72760    0.17853    1.000
    O65      O        0.81510    0.60780    0.98783    1.000
    C58      C        0.93170    0.74500    0.98333    1.000
    C59      C        0.11410    0.77210    0.82813    1.000
    C60      C        0.95270    0.39970    0.90263    1.000
    Fe12     Fe       0.70942    0.60980    0.99461    1.000
    H86      H        0.98980    0.76800    0.98193    1.000
    H87      H        0.91370    0.76070    0.95153    1.000
    H88      H        0.91740    0.76460    0.01493    1.000
    H89      H        0.14910    0.77390    0.79933    1.000
    H90      H        0.06010    0.75270    0.81433    1.000
    H91      H        0.13490    0.82580    0.84293    1.000
    H92      H        0.97970    0.37360    0.88633    1.000
    H93      H        0.92590    0.37140    0.93523    1.000
    H94      H        0.91310    0.39870    0.87783    1.000
    O66      O        0.76970    0.70320    0.04713    1.000
    O67      O        0.67180    0.51320    0.94183    1.000
    O68      O        0.68420    0.53260    0.05743    1.000
    O69      O        0.68460    0.74810    0.07063    1.000
    C61      C        0.74770    0.74250    0.07793    1.000
    C62      C        0.60360    0.46390    0.92223    1.000
    C63      C        0.61690    0.47480    0.07343    1.000
    O70      O        0.53700    0.45900    0.93693    1.000
    O71      O        0.54850    0.45490    0.05373    1.000
    C64      C        0.80330    0.78910    0.12403    1.000
    C65      C        0.60070    0.40520    0.88013    1.000
    C66      C        0.62280    0.42610    0.11963    1.000
    H95      H        0.84840    0.77930    0.12483    1.000
    H96      H        0.82320    0.84630    0.11913    1.000
    H97      H        0.77370    0.77130    0.15753    1.000
    H98      H        0.54540    0.37100    0.86843    1.000
    H99      H        0.63390    0.43510    0.84983    1.000
    H100     H        0.62090    0.37210    0.89543    1.000
    H101     H        0.67890    0.44890    0.13003    1.000
    H102     H        0.59180    0.42790    0.14983    1.000
    H103     H        0.60150    0.37050    0.10843    1.000
    O72      O        0.39860    0.40070    0.98623    1.000
    H104     H        0.36210    0.36240    0.00533    1.000
    H105     H        0.38500    0.39000    0.95313    1.000
    Fe13     Fe       0.53847    0.31929    0.29152    1.000
    O73      O        0.50640    0.35430    0.35499    1.000
    O74      O        0.50380    0.37640    0.23790    1.000
    O75      O        0.42880    0.21450    0.28740    1.000
    O76      O        0.58580    0.25640    0.32998    1.000
    O77      O        0.65150    0.42010    0.29030    1.000
    O78      O        0.57380    0.27960    0.22730    1.000
    Fe14     Fe       0.41098    0.36354    0.35279    1.000
    Fe15     Fe       0.57017    0.37943    0.41886    1.000
    C67      C        0.47930    0.42640    0.24300    1.000
    C68      C        0.36030    0.20740    0.29170    1.000
    C69      C        0.59370    0.24420    0.37930    1.000
    C70      C        0.69670    0.45700    0.33080    1.000
    C71      C        0.55130    0.24630    0.18170    1.000
    O79      O        0.31410    0.38000    0.35440    1.000
    O80      O        0.44670    0.43510    0.28560    1.000
    O81      O        0.34640    0.26290    0.30750    1.000
    O82      O        0.36330    0.29460    0.42050    1.000
    O83      O        0.45890    0.47010    0.39560    1.000
    O84      O        0.57640    0.27510    0.41889    1.000
    O85      O        0.67700    0.43700    0.37920    1.000
    O86      O        0.47280    0.32110    0.46920    1.000
    O87      O        0.57780    0.48940    0.42890    1.000
    O88      O        0.59820    0.22840    0.15610    1.000
    C72      C        0.48690    0.47680    0.19470    1.000
    C73      C        0.28730    0.12980    0.27490    1.000
    C74      C        0.62840    0.18930    0.39090    1.000
    C75      C        0.77880    0.52770    0.31940    1.000
    C76      C        0.46990    0.22410    0.15850    1.000
    C77      C        0.23930    0.34930    0.34750    1.000
    C78      C        0.39620    0.28480    0.46130    1.000
    C79      C        0.52780    0.51370    0.41750    1.000
    H106     H        0.46640    0.51270    0.20320    1.000
    H107     H        0.54320    0.50840    0.18430    1.000
    H108     H        0.45600    0.44170    0.16530    1.000
    H109     H        0.23910    0.13360    0.28060    1.000
    H110     H        0.29170    0.12000    0.23720    1.000
    H111     H        0.28390    0.08560    0.29600    1.000
    H112     H        0.63860    0.17030    0.35740    1.000
    H113     H        0.67850    0.21910    0.41070    1.000
    H114     H        0.59000    0.14350    0.41200    1.000
    H115     H        0.78580    0.53630    0.28100    1.000
    H116     H        0.78380    0.57570    0.33640    1.000
    H117     H        0.81980    0.51700    0.33350    1.000
    H118     H        0.46400    0.19940    0.12360    1.000
    H119     H        0.42760    0.18630    0.18220    1.000
    H120     H        0.46570    0.27240    0.15480    1.000
    O89      O        0.20730    0.39220    0.34550    1.000
    C80      C        0.18670    0.25500    0.35000    1.000
    C81      C        0.34200    0.22790    0.50520    1.000
    C82      C        0.55300    0.60030    0.43070    1.000
    Fe16     Fe       0.09962    0.39020    0.33872    1.000
    H121     H        0.22180    0.23200    0.35140    1.000
    H122     H        0.15300    0.23930    0.38180    1.000
    H123     H        0.15280    0.23540    0.31840    1.000
    H124     H        0.37520    0.22610    0.53400    1.000
    H125     H        0.30740    0.24730    0.51900    1.000
    H126     H        0.30910    0.17420    0.49040    1.000
    H127     H        0.60610    0.62640    0.44700    1.000
    H128     H        0.55450    0.62860    0.39810    1.000
    H129     H        0.51440    0.60130    0.45550    1.000
    O90      O        0.06650    0.29680    0.28620    1.000
    O91      O        0.15860    0.48680    0.39150    1.000
    O92      O        0.15160    0.46740    0.27590    1.000
    O93      O        0.93650    0.25190    0.26270    1.000
    C83      C        0.00520    0.25750    0.25540    1.000
    C84      C        0.13970    0.53610    0.41110    1.000
    C85      C        0.14210    0.52520    0.25990    1.000
    O94      O        0.07800    0.54100    0.39640    1.000
    O95      O        0.09360    0.54510    0.27960    1.000
    C86      C        0.01420    0.21090    0.20930    1.000
    C87      C        0.19550    0.59480    0.45320    1.000
    C88      C        0.19670    0.57390    0.21370    1.000
    H130     H        0.06910    0.22070    0.20850    1.000
    H131     H        0.97690    0.15370    0.21420    1.000
    H132     H        0.00240    0.22870    0.17580    1.000
    H133     H        0.17440    0.62900    0.46490    1.000
    H134     H        0.19880    0.56490    0.48350    1.000
    H135     H        0.24880    0.62790    0.43790    1.000
    H136     H        0.23000    0.55110    0.20330    1.000
    H137     H        0.16390    0.57210    0.18350    1.000
    H138     H        0.23100    0.62950    0.22490    1.000
    O96      O        0.99790    0.59930    0.34710    1.000
    H139     H        0.99970    0.63760    0.32800    1.000
    H140     H        0.99500    0.61000    0.38020    1.000
    Fe17     Fe       0.78082    0.46153    0.62485    1.000
    O97      O        0.84790    0.49360    0.68832    1.000
    O98      O        0.87260    0.49620    0.57123    1.000
    O99      O        0.78570    0.57120    0.62073    1.000
    O100     O        0.67060    0.41420    0.66331    1.000
    O101     O        0.76860    0.34850    0.62363    1.000
    O102     O        0.70580    0.42620    0.56063    1.000
    Fe18     Fe       0.95256    0.58902    0.68612    1.000
    Fe19     Fe       0.80926    0.42983    0.75219    1.000
    C89      C        0.94710    0.52070    0.57633    1.000
    C90      C        0.84710    0.63970    0.62503    1.000
    C91      C        0.65050    0.40630    0.71263    1.000
    C92      C        0.76030    0.30330    0.66413    1.000
    C93      C        0.69500    0.44870    0.51503    1.000
    O103     O        0.06590    0.68590    0.68773    1.000
    O104     O        0.98840    0.55330    0.61893    1.000
    O105     O        0.91650    0.65360    0.64083    1.000
    O106     O        0.93130    0.63670    0.75383    1.000
    O107     O        0.01120    0.54110    0.72893    1.000
    O108     O        0.69870    0.42360    0.75222    1.000
    O109     O        0.76000    0.32300    0.71253    1.000
    O110     O        0.84830    0.52720    0.80253    1.000
    O111     O        0.91160    0.42220    0.76223    1.000
    O112     O        0.63020    0.40180    0.48943    1.000
    C94      C        0.98990    0.51310    0.52803    1.000
    C95      C        0.84250    0.71270    0.60823    1.000
    C96      C        0.56090    0.37160    0.72423    1.000
    C97      C        0.74890    0.22120    0.65273    1.000
    C98      C        0.75420    0.53010    0.49183    1.000
    C99      C        0.11000    0.76070    0.68083    1.000
    C100     C        0.88860    0.60380    0.79463    1.000
    C101     C        0.98590    0.47220    0.75083    1.000
    H141     H        0.04630    0.53360    0.53653    1.000
    H142     H        0.96520    0.45680    0.51763    1.000
    H143     H        0.98570    0.54400    0.49863    1.000
    H144     H        0.89450    0.76090    0.61393    1.000
    H145     H        0.82830    0.70830    0.57053    1.000
    H146     H        0.80170    0.71610    0.62933    1.000
    H147     H        0.53170    0.36140    0.69073    1.000
    H148     H        0.54060    0.32150    0.74403    1.000
    H149     H        0.55350    0.41000    0.74533    1.000
    H150     H        0.75050    0.21420    0.61433    1.000
    H151     H        0.79190    0.21620    0.66973    1.000
    H152     H        0.69720    0.18020    0.66683    1.000
    H153     H        0.73540    0.53600    0.45693    1.000
    H154     H        0.75870    0.57240    0.51553    1.000
    H155     H        0.80670    0.53430    0.48813    1.000
    O113     O        0.18490    0.79270    0.67883    1.000
    C102     C        0.06830    0.81330    0.68333    1.000
    C103     C        0.88590    0.65800    0.83853    1.000
    C104     C        0.04730    0.44700    0.76403    1.000
    Fe20     Fe       0.29058    0.90038    0.67205    1.000
    H156     H        0.01020    0.77820    0.68473    1.000
    H157     H        0.08630    0.84700    0.71513    1.000
    H158     H        0.08260    0.84720    0.65173    1.000
    H159     H        0.85090    0.62480    0.86733    1.000
    H160     H        0.93990    0.69260    0.85233    1.000
    H161     H        0.86510    0.69090    0.82373    1.000
    H162     H        0.02030    0.39390    0.78033    1.000
    H163     H        0.07410    0.44550    0.73143    1.000
    H164     H        0.08690    0.48560    0.78883    1.000
    O114     O        0.23030    0.93350    0.61953    1.000
    O115     O        0.32820    0.84140    0.72483    1.000
    O116     O        0.31580    0.84840    0.60923    1.000
    O117     O        0.31540    0.06350    0.59603    1.000
    C105     C        0.25230    0.99480    0.58873    1.000
    C106     C        0.39640    0.86030    0.74443    1.000
    C107     C        0.38310    0.85790    0.59323    1.000
    O118     O        0.46300    0.92200    0.72973    1.000
    O119     O        0.45150    0.90640    0.61293    1.000
    C108     C        0.19670    0.98580    0.54263    1.000
    C109     C        0.39930    0.80450    0.78653    1.000
    C110     C        0.37720    0.80330    0.54703    1.000
    H165     H        0.15160    0.93090    0.54183    1.000
    H166     H        0.17680    0.02310    0.54753    1.000
    H167     H        0.22630    0.99760    0.50913    1.000
    H168     H        0.45460    0.82560    0.79823    1.000
    H169     H        0.36610    0.80120    0.81683    1.000
    H170     H        0.37910    0.75120    0.77123    1.000
    H171     H        0.32110    0.77000    0.53663    1.000
    H172     H        0.40820    0.83610    0.51683    1.000
    H173     H        0.39850    0.76900    0.55823    1.000
    O120     O        0.60140    0.00210    0.68043    1.000
    H174     H        0.63790    0.00030    0.66133    1.000
    H175     H        0.61500    0.00500    0.71353    1.000
    Fe21     Fe       0.68071    0.21918    0.95819    1.000
    O121     O        0.64570    0.15210    0.02166    1.000
    O122     O        0.62360    0.12740    0.90457    1.000
    O123     O        0.78550    0.21430    0.95407    1.000
    O124     O        0.74360    0.32940    0.99665    1.000
    O125     O        0.57990    0.23140    0.95697    1.000
    O126     O        0.72040    0.29420    0.89397    1.000
    Fe22     Fe       0.63646    0.04744    0.01946    1.000
    Fe23     Fe       0.62057    0.19074    0.08553    1.000
    C111     C        0.57360    0.05290    0.90967    1.000
    C112     C        0.79260    0.15290    0.95837    1.000
    C113     C        0.75580    0.34950    0.04597    1.000
    C114     C        0.54300    0.23970    0.99747    1.000
    C115     C        0.75370    0.30500    0.84837    1.000
    O127     O        0.62000    0.93410    0.02107    1.000
    O128     O        0.56490    0.01160    0.95227    1.000
    O129     O        0.73710    0.08350    0.97417    1.000
    O130     O        0.70540    0.06870    0.08717    1.000
    O131     O        0.52990    0.98880    0.06227    1.000
    O132     O        0.72490    0.30130    0.08556    1.000
    O133     O        0.56300    0.24000    0.04587    1.000
    O134     O        0.67890    0.15170    0.13587    1.000
    O135     O        0.51060    0.08840    0.09557    1.000
    O136     O        0.77160    0.36980    0.82277    1.000
    C116     C        0.52320    0.01010    0.86137    1.000
    C117     C        0.87020    0.15750    0.94157    1.000
    C118     C        0.81070    0.43910    0.05757    1.000
    C119     C        0.47230    0.25110    0.98607    1.000
    C120     C        0.77590    0.24580    0.82517    1.000
    C121     C        0.65070    0.89000    0.01417    1.000
    C122     C        0.71520    0.11140    0.12797    1.000
    C123     C        0.48630    0.01410    0.08417    1.000
    H176     H        0.48730    0.95370    0.86987    1.000
    H177     H        0.49160    0.03480    0.85097    1.000
    H178     H        0.55830    0.01430    0.83197    1.000
    H179     H        0.86640    0.10550    0.94727    1.000
    H180     H        0.88000    0.17170    0.90387    1.000
    H181     H        0.91440    0.19830    0.96267    1.000
    H182     H        0.82970    0.46830    0.02407    1.000
    H183     H        0.78090    0.45940    0.07737    1.000
    H184     H        0.85650    0.44650    0.07867    1.000
    H185     H        0.46370    0.24950    0.94767    1.000
    H186     H        0.42430    0.20810    0.00307    1.000
    H187     H        0.48300    0.30280    0.00017    1.000
    H188     H        0.80060    0.26460    0.79027    1.000
    H189     H        0.81370    0.24130    0.84887    1.000
    H190     H        0.72760    0.19330    0.82147    1.000
    O137     O        0.60780    0.81510    0.01217    1.000
    C124     C        0.74500    0.93170    0.01667    1.000
    C125     C        0.77210    0.11410    0.17187    1.000
    C126     C        0.39970    0.95270    0.09737    1.000
    Fe24     Fe       0.60980    0.70942    0.00539    1.000
    H191     H        0.76800    0.98980    0.01807    1.000
    H192     H        0.76070    0.91370    0.04847    1.000
    H193     H        0.76460    0.91740    0.98507    1.000
    H194     H        0.77390    0.14910    0.20067    1.000
    H195     H        0.75270    0.06010    0.18567    1.000
    H196     H        0.82580    0.13490    0.15707    1.000
    H197     H        0.37360    0.97970    0.11367    1.000
    H198     H        0.37140    0.92590    0.06477    1.000
    H199     H        0.39870    0.91310    0.12217    1.000
    O138     O        0.70320    0.76970    0.95287    1.000
    O139     O        0.51320    0.67180    0.05817    1.000
    O140     O        0.53260    0.68420    0.94257    1.000
    O141     O        0.74810    0.68460    0.92937    1.000
    C127     C        0.74250    0.74770    0.92207    1.000
    C128     C        0.46390    0.60360    0.07777    1.000
    C129     C        0.47480    0.61690    0.92657    1.000
    O142     O        0.45900    0.53700    0.06307    1.000
    O143     O        0.45490    0.54850    0.94627    1.000
    C130     C        0.78910    0.80330    0.87597    1.000
    C131     C        0.40520    0.60070    0.11987    1.000
    C132     C        0.42610    0.62280    0.88037    1.000
    H200     H        0.77930    0.84840    0.87517    1.000
    H201     H        0.84630    0.82320    0.88087    1.000
    H202     H        0.77130    0.77370    0.84247    1.000
    H203     H        0.37100    0.54540    0.13157    1.000
    H204     H        0.43510    0.63390    0.15017    1.000
    H205     H        0.37210    0.62090    0.10457    1.000
    H206     H        0.44890    0.67890    0.86997    1.000
    H207     H        0.42790    0.59180    0.85017    1.000
    H208     H        0.37050    0.60150    0.89157    1.000
    O144     O        0.40070    0.39860    0.01377    1.000
    H209     H        0.36240    0.36210    0.99467    1.000
    H210     H        0.39000    0.38500    0.04687    1.000
    O145     O        0.39150    0.00000    0.66667    1.000
    Fe25     Fe       0.49240    0.00000    0.66667    1.000
    O146     O        0.00000    0.39150    0.33333    1.000
    Fe26     Fe       0.00000    0.49240    0.33333    1.000
    O147     O        0.60850    0.60850    0.00000    1.000
    Fe27     Fe       0.50760    0.50760    0.00000    1.000
