data_functionalizedCrystal
_audit_creation_method	'EQeq! by Chris Wilmer'
_symmetry_space_group_name_H-M	'P1'
_symmetry_Int_Tables_number	1
_symmetry_cell_setting	triclinic
loop_
_symmetry_equiv_pos_as_xyz
  x,y,z
_cell_length_a	31.81
_cell_length_b	14.993
_cell_length_c	13.22
_cell_angle_alpha	90
_cell_angle_beta	96.01
_cell_angle_gamma	90
loop_
_atom_site_label
_atom_site_type_symbol
_atom_site_fract_x
_atom_site_fract_y
_atom_site_fract_z
_atom_site_charge
Mof_C 	C 	0.21056	0.39914	0.74211	-0.18
Mof_C 	C 	0.23587	0.46434	0.7923	0.107
Mof_C 	C 	0.2182	0.52663	0.85325	-0.179
Mof_C 	C 	0.17523	0.52372	0.86401	0.054
Mof_C 	C 	0.14991	0.45853	0.81382	0.012
Mof_C 	C 	0.16758	0.39624	0.75288	0.064
Mof_C 	C 	0.99753	0.29039	0.87921	-0.023
Mof_C 	C 	0.00263	0.38405	0.87957	-0
Mof_C 	C 	0.96995	0.43856	0.9057	0.001
Mof_C 	C 	0.93275	0.3997	0.93229	0.058
Mof_C 	C 	0.9281	0.3086	0.9324	-0.105
Mof_C 	C 	0.95994	0.25451	0.90583	0.036
Mof_C 	C 	0.04073	0.4226	0.85542	0.046
Mof_C 	C 	0.08123	0.38602	0.84502	0.033
Mof_N 	N 	0.10834	0.45683	0.82223	-0.085
Mof_N 	N 	0.0846	0.53719	0.81854	-0.052
Mof_N 	N 	0.04282	0.51603	0.83905	-0.072
Mof_C 	C 	0.22905	0.335	0.6698	0.495
Mof_C 	C 	0.24623	0.5963	0.9102	0.468
Mof_C 	C 	0.88841	0.2696	0.9666	0.338
Mof_Eu	Eu	0.18936	0.20674	0.47045	2.07
Mof_O 	O 	0.22986	0.6635	0.9441	-0.619
Mof_O 	O 	0.28539	0.58232	0.9211	-0.505
Mof_O 	O 	0.87931	0.1886	0.9534	-0.444
Mof_O 	O 	0.86357	0.3211	0.0069	-0.445
Mof_O 	O 	0.2053	0.27185	0.6364	-0.503
Mof_O 	O 	0.26569	0.34992	0.6493	-0.565
Mof_C 	C 	0.71056	0.89914	0.74211	-0.18
Mof_C 	C 	0.73587	0.96434	0.7923	0.103
Mof_C 	C 	0.7182	0.02663	0.85325	-0.179
Mof_C 	C 	0.67523	0.02372	0.86401	0.054
Mof_C 	C 	0.64991	0.95853	0.81382	0.01
Mof_C 	C 	0.66758	0.89624	0.75288	0.064
Mof_C 	C 	0.49753	0.79039	0.87921	-0.024
Mof_C 	C 	0.50263	0.88405	0.87957	0.001
Mof_C 	C 	0.46995	0.93856	0.9057	-0
Mof_C 	C 	0.43275	0.8997	0.93229	0.057
Mof_C 	C 	0.4281	0.8086	0.9324	-0.105
Mof_C 	C 	0.45994	0.75451	0.90583	0.036
Mof_C 	C 	0.54073	0.9226	0.85542	0.044
Mof_C 	C 	0.58123	0.88602	0.84502	0.033
Mof_N 	N 	0.60834	0.95683	0.82223	-0.085
Mof_N 	N 	0.5846	0.03719	0.81854	-0.051
Mof_N 	N 	0.54282	0.01603	0.83905	-0.071
Mof_C 	C 	0.72905	0.835	0.6698	0.494
Mof_C 	C 	0.74623	0.0963	0.9102	0.468
Mof_C 	C 	0.38841	0.7696	0.9666	0.334
Mof_Eu	Eu	0.68936	0.70674	0.47045	2.071
Mof_O 	O 	0.72986	0.1635	0.9441	-0.618
Mof_O 	O 	0.78539	0.08232	0.9211	-0.503
Mof_O 	O 	0.37931	0.6886	0.9534	-0.444
Mof_O 	O 	0.36357	0.8211	0.0069	-0.442
Mof_O 	O 	0.7053	0.77185	0.6364	-0.503
Mof_O 	O 	0.76569	0.84992	0.6493	-0.565
Mof_C 	C 	0.78944	0.39914	0.75789	-0.181
Mof_C 	C 	0.76413	0.46434	0.7077	0.106
Mof_C 	C 	0.7818	0.52663	0.64675	-0.18
Mof_C 	C 	0.82477	0.52372	0.63599	0.053
Mof_C 	C 	0.85009	0.45853	0.68618	0.012
Mof_C 	C 	0.83242	0.39624	0.74712	0.064
Mof_C 	C 	0.00247	0.29039	0.62079	-0.024
Mof_C 	C 	0.99737	0.38405	0.62043	0
Mof_C 	C 	0.03005	0.43856	0.5943	0
Mof_C 	C 	0.06725	0.3997	0.56771	0.058
Mof_C 	C 	0.0719	0.3086	0.5676	-0.105
Mof_C 	C 	0.04006	0.25451	0.59417	0.036
Mof_C 	C 	0.95927	0.4226	0.64458	0.046
Mof_C 	C 	0.91877	0.38602	0.65498	0.033
Mof_N 	N 	0.89166	0.45683	0.67777	-0.085
Mof_N 	N 	0.9154	0.53719	0.68146	-0.052
Mof_N 	N 	0.95718	0.51603	0.66095	-0.072
Mof_C 	C 	0.77095	0.335	0.8302	0.495
Mof_C 	C 	0.75377	0.5963	0.5898	0.468
Mof_C 	C 	0.11159	0.2696	0.5334	0.337
Mof_Eu	Eu	0.81064	0.20674	0.02955	2.066
Mof_O 	O 	0.77014	0.6635	0.5559	-0.619
Mof_O 	O 	0.71461	0.58232	0.5789	-0.504
Mof_O 	O 	0.12069	0.1886	0.5466	-0.445
Mof_O 	O 	0.13643	0.3211	0.4931	-0.444
Mof_O 	O 	0.7947	0.27185	0.8636	-0.502
Mof_O 	O 	0.73431	0.34992	0.8507	-0.565
Mof_C 	C 	0.28944	0.89914	0.75789	-0.18
Mof_C 	C 	0.26413	0.96434	0.7077	0.105
Mof_C 	C 	0.2818	0.02663	0.64675	-0.179
Mof_C 	C 	0.32477	0.02372	0.63599	0.053
Mof_C 	C 	0.35009	0.95853	0.68618	0.011
Mof_C 	C 	0.33242	0.89624	0.74712	0.064
Mof_C 	C 	0.50247	0.79039	0.62079	-0.024
Mof_C 	C 	0.49737	0.88405	0.62043	0.001
Mof_C 	C 	0.53005	0.93856	0.5943	-0
Mof_C 	C 	0.56725	0.8997	0.56771	0.058
Mof_C 	C 	0.5719	0.8086	0.5676	-0.105
Mof_C 	C 	0.54006	0.75451	0.59417	0.036
Mof_C 	C 	0.45927	0.9226	0.64458	0.045
Mof_C 	C 	0.41877	0.88602	0.65498	0.033
Mof_N 	N 	0.39166	0.95683	0.67777	-0.085
Mof_N 	N 	0.4154	0.03719	0.68146	-0.052
Mof_N 	N 	0.45718	0.01603	0.66095	-0.072
Mof_C 	C 	0.27095	0.835	0.8302	0.494
Mof_C 	C 	0.25377	0.0963	0.5898	0.468
Mof_C 	C 	0.61159	0.7696	0.5334	0.337
Mof_Eu	Eu	0.31064	0.70674	0.02955	2.074
Mof_O 	O 	0.27014	0.1635	0.5559	-0.619
Mof_O 	O 	0.21461	0.08232	0.5789	-0.504
Mof_O 	O 	0.62069	0.6886	0.5466	-0.445
Mof_O 	O 	0.63643	0.8211	0.4931	-0.444
Mof_O 	O 	0.2947	0.77185	0.8636	-0.503
Mof_O 	O 	0.23431	0.84992	0.8507	-0.565
Mof_C 	C 	0.78944	0.60086	0.25789	-0.181
Mof_C 	C 	0.76413	0.53566	0.2077	0.106
Mof_C 	C 	0.7818	0.47337	0.14675	-0.18
Mof_C 	C 	0.82477	0.47628	0.13599	0.053
Mof_C 	C 	0.85009	0.54147	0.18618	0.012
Mof_C 	C 	0.83242	0.60376	0.24712	0.064
Mof_C 	C 	0.00247	0.70961	0.12079	-0.023
Mof_C 	C 	0.99737	0.61595	0.12043	-0
Mof_C 	C 	0.03005	0.56144	0.0943	0.001
Mof_C 	C 	0.06725	0.6003	0.06771	0.058
Mof_C 	C 	0.0719	0.6914	0.0676	-0.105
Mof_C 	C 	0.04006	0.74549	0.09417	0.036
Mof_C 	C 	0.95927	0.5774	0.14458	0.046
Mof_C 	C 	0.91877	0.61398	0.15498	0.033
Mof_N 	N 	0.89166	0.54317	0.17777	-0.085
Mof_N 	N 	0.9154	0.46281	0.18146	-0.052
Mof_N 	N 	0.95718	0.48397	0.16095	-0.072
Mof_C 	C 	0.77095	0.665	0.3302	0.495
Mof_C 	C 	0.75377	0.4037	0.0898	0.468
Mof_C 	C 	0.11159	0.7304	0.0334	0.338
Mof_Eu	Eu	0.81064	0.79326	0.52955	2.07
Mof_O 	O 	0.77014	0.3365	0.0559	-0.619
Mof_O 	O 	0.71461	0.41768	0.0789	-0.505
Mof_O 	O 	0.12069	0.8114	0.0466	-0.444
Mof_O 	O 	0.13643	0.6789	0.9931	-0.445
Mof_O 	O 	0.7947	0.72815	0.3636	-0.503
Mof_O 	O 	0.73431	0.65008	0.3507	-0.565
Mof_C 	C 	0.28944	0.10086	0.25789	-0.18
Mof_C 	C 	0.26413	0.03566	0.2077	0.103
Mof_C 	C 	0.2818	0.97337	0.14675	-0.179
Mof_C 	C 	0.32477	0.97628	0.13599	0.054
Mof_C 	C 	0.35009	0.04147	0.18618	0.01
Mof_C 	C 	0.33242	0.10376	0.24712	0.064
Mof_C 	C 	0.50247	0.20961	0.12079	-0.024
Mof_C 	C 	0.49737	0.11595	0.12043	0.001
Mof_C 	C 	0.53005	0.06144	0.0943	-0
Mof_C 	C 	0.56725	0.1003	0.06771	0.057
Mof_C 	C 	0.5719	0.1914	0.0676	-0.105
Mof_C 	C 	0.54006	0.24549	0.09417	0.036
Mof_C 	C 	0.45927	0.0774	0.14458	0.044
Mof_C 	C 	0.41877	0.11398	0.15498	0.033
Mof_N 	N 	0.39166	0.04317	0.17777	-0.085
Mof_N 	N 	0.4154	0.96281	0.18146	-0.051
Mof_N 	N 	0.45718	0.98397	0.16095	-0.071
Mof_C 	C 	0.27095	0.165	0.3302	0.494
Mof_C 	C 	0.25377	0.9037	0.0898	0.468
Mof_C 	C 	0.61159	0.2304	0.0334	0.334
Mof_Eu	Eu	0.31064	0.29326	0.52955	2.071
Mof_O 	O 	0.27014	0.8365	0.0559	-0.618
Mof_O 	O 	0.21461	0.91768	0.0789	-0.503
Mof_O 	O 	0.62069	0.3114	0.0466	-0.444
Mof_O 	O 	0.63643	0.1789	0.9931	-0.442
Mof_O 	O 	0.2947	0.22815	0.3636	-0.503
Mof_O 	O 	0.23431	0.15008	0.3507	-0.565
Mof_C 	C 	0.21056	0.60086	0.24211	-0.181
Mof_C 	C 	0.23587	0.53566	0.2923	0.106
Mof_C 	C 	0.2182	0.47337	0.35325	-0.18
Mof_C 	C 	0.17523	0.47628	0.36401	0.053
Mof_C 	C 	0.14991	0.54147	0.31382	0.012
Mof_C 	C 	0.16758	0.60376	0.25288	0.064
Mof_C 	C 	0.99753	0.70961	0.37921	-0.024
Mof_C 	C 	0.00263	0.61595	0.37957	0
Mof_C 	C 	0.96995	0.56144	0.4057	0
Mof_C 	C 	0.93275	0.6003	0.43229	0.058
Mof_C 	C 	0.9281	0.6914	0.4324	-0.105
Mof_C 	C 	0.95994	0.74549	0.40583	0.036
Mof_C 	C 	0.04073	0.5774	0.35542	0.046
Mof_C 	C 	0.08123	0.61398	0.34502	0.033
Mof_N 	N 	0.10834	0.54317	0.32223	-0.085
Mof_N 	N 	0.0846	0.46281	0.31854	-0.052
Mof_N 	N 	0.04282	0.48397	0.33905	-0.072
Mof_C 	C 	0.22905	0.665	0.1698	0.495
Mof_C 	C 	0.24623	0.4037	0.4102	0.468
Mof_C 	C 	0.88841	0.7304	0.4666	0.337
Mof_Eu	Eu	0.18936	0.79326	0.97045	2.066
Mof_O 	O 	0.22986	0.3365	0.4441	-0.619
Mof_O 	O 	0.28539	0.41768	0.4211	-0.504
Mof_O 	O 	0.87931	0.8114	0.4534	-0.445
Mof_O 	O 	0.86357	0.6789	0.5069	-0.444
Mof_O 	O 	0.2053	0.72815	0.1364	-0.502
Mof_O 	O 	0.26569	0.65008	0.1493	-0.565
Mof_C 	C 	0.71056	0.10086	0.24211	-0.18
Mof_C 	C 	0.73587	0.03566	0.2923	0.105
Mof_C 	C 	0.7182	0.97337	0.35325	-0.179
Mof_C 	C 	0.67523	0.97628	0.36401	0.053
Mof_C 	C 	0.64991	0.04147	0.31382	0.011
Mof_C 	C 	0.66758	0.10376	0.25288	0.064
Mof_C 	C 	0.49753	0.20961	0.37921	-0.024
Mof_C 	C 	0.50263	0.11595	0.37957	0.001
Mof_C 	C 	0.46995	0.06144	0.4057	-0
Mof_C 	C 	0.43275	0.1003	0.43229	0.058
Mof_C 	C 	0.4281	0.1914	0.4324	-0.105
Mof_C 	C 	0.45994	0.24549	0.40583	0.036
Mof_C 	C 	0.54073	0.0774	0.35542	0.045
Mof_C 	C 	0.58123	0.11398	0.34502	0.033
Mof_N 	N 	0.60834	0.04317	0.32223	-0.085
Mof_N 	N 	0.5846	0.96281	0.31854	-0.052
Mof_N 	N 	0.54282	0.98397	0.33905	-0.072
Mof_C 	C 	0.72905	0.165	0.1698	0.494
Mof_C 	C 	0.74623	0.9037	0.4102	0.468
Mof_C 	C 	0.38841	0.2304	0.4666	0.337
Mof_Eu	Eu	0.68936	0.29326	0.97045	2.074
Mof_O 	O 	0.72986	0.8365	0.4441	-0.619
Mof_O 	O 	0.78539	0.91768	0.4211	-0.504
Mof_O 	O 	0.37931	0.3114	0.4534	-0.445
Mof_O 	O 	0.36357	0.1789	0.5069	-0.444
Mof_O 	O 	0.7053	0.22815	0.1364	-0.503
Mof_O 	O 	0.76569	0.15008	0.1493	-0.565
_end
