data_functionalizedCrystal
_audit_creation_method	'EQeq! by Chris Wilmer'
_symmetry_space_group_name_H-M	'P1'
_symmetry_Int_Tables_number	1
_symmetry_cell_setting	triclinic
loop_
_symmetry_equiv_pos_as_xyz
  x,y,z
_cell_length_a	19.0994
_cell_length_b	14.418
_cell_length_c	30.593
_cell_angle_alpha	90
_cell_angle_beta	90
_cell_angle_gamma	90
loop_
_atom_site_label
_atom_site_type_symbol
_atom_site_fract_x
_atom_site_fract_y
_atom_site_fract_z
_atom_site_charge
Mof_Ho	Ho	0.31145	0.02725	0.3708	1.819
Mof_Ho	Ho	0.35751	0.9648	0.24681	1.779
Mof_O 	O 	0.37794	0.84146	0.29536	-0.527
Mof_O 	O 	0.33428	0.8709	0.36247	-0.491
Mof_O 	O 	0.40855	0.6714	0.27474	-0.433
Mof_H 	H 	0.4028	0.7272	0.2707	0.253
Mof_O 	O 	0.69554	0.5184	0.3514	-0.503
Mof_O 	O 	0.76124	0.52758	0.2933	-0.577
Mof_O 	O 	0.56104	0.5058	0.34517	-0.445
Mof_H 	H 	0.5996	0.5049	0.3569	0.284
Mof_O 	O 	0.1095	0.5746	0.98081	-0.332
Mof_O 	O 	0.1606	0.4705	0.93828	-0.517
Mof_O 	O 	0.2067	0.3184	0.97004	-0.437
Mof_H 	H 	0.2011	0.3596	0.9519	0.28
Mof_O 	O 	0.41622	0.0553	0.19032	-0.413
Mof_O 	O 	0.30847	0.0118	0.17735	-0.462
Mof_O 	O 	0.24481	0.066	0.10856	-0.448
Mof_H 	H 	0.2544	0.0318	0.1291	0.284
Mof_O 	O 	0.83027	0.3794	0.25981	-0.487
Mof_O 	O 	0.79021	0.3467	0.32651	-0.536
Mof_O 	O 	0.75892	0.1746	0.34478	-0.435
Mof_H 	H 	0.7398	0.2249	0.3483	0.254
Mof_O 	O 	0.41057	0.023	0.33083	-0.578
Mof_O 	O 	0.47297	0.9995	0.27189	-0.487
Mof_O 	O 	0.60775	0.0058	0.27579	-0.449
Mof_H 	H 	0.5689	0.0017	0.2646	0.289
Mof_C 	C 	0.3636	0.8184	0.33488	0.485
Mof_C 	C 	0.3823	0.7226	0.34869	-0.234
Mof_C 	C 	0.3793	0.7003	0.39183	0.06
Mof_H 	H 	0.3666	0.746	0.4117	0.035
Mof_C 	C 	0.3946	0.6113	0.40763	-0.04
Mof_C 	C 	0.391	0.5896	0.45284	-0.024
Mof_H 	H 	0.3819	0.6368	0.4728	0.045
Mof_C 	C 	0.4003	0.5025	0.4676	-0.07
Mof_H 	H 	0.3971	0.4894	0.4973	0.051
Mof_C 	C 	0.4152	0.4313	0.4372	0.005
Mof_H 	H 	0.4203	0.3709	0.4473	0.026
Mof_C 	C 	0.422	0.4478	0.3942	-0.094
Mof_H 	H 	0.4329	0.3992	0.3754	0.073
Mof_C 	C 	0.41276	0.5404	0.37682	0.072
Mof_C 	C 	0.41898	0.5639	0.33204	-0.08
Mof_C 	C 	0.40324	0.6525	0.31831	0.254
Mof_C 	C 	0.4385	0.4904	0.29748	-0.033
Mof_H 	H 	0.4368	0.4298	0.3112	0.051
Mof_H 	H 	0.403	0.4913	0.2748	0.055
Mof_C 	C 	0.5096	0.5018	0.27602	-0.096
Mof_C 	C 	0.5167	0.4963	0.22922	0.086
Mof_C 	C 	0.4607	0.4856	0.20067	-0.12
Mof_H 	H 	0.4152	0.4845	0.2116	0.082
Mof_C 	C 	0.4719	0.4765	0.1563	0.02
Mof_H 	H 	0.4336	0.4679	0.138	0.024
Mof_C 	C 	0.5391	0.48	0.1379	-0.086
Mof_H 	H 	0.5455	0.4736	0.108	0.059
Mof_C 	C 	0.5938	0.4925	0.16436	-0.004
Mof_H 	H 	0.6383	0.4964	0.1522	0.036
Mof_C 	C 	0.5864	0.5003	0.21097	-0.07
Mof_C 	C 	0.6443	0.5104	0.23788	0.093
Mof_H 	H 	0.6887	0.5137	0.2255	-0.021
Mof_C 	C 	0.6374	0.5157	0.28273	-0.261
Mof_C 	C 	0.5691	0.5083	0.30148	0.277
Mof_C 	C 	0.7011	0.5228	0.31024	0.469
Mof_C 	C 	0.4692	0.011	0.31272	0.49
Mof_C 	C 	0.5342	0.0098	0.3395	-0.265
Mof_C 	C 	0.5292	0.0055	0.38457	0.094
Mof_H 	H 	0.4851	0.0062	0.3975	-0.014
Mof_C 	C 	0.5882	0.0001	0.4111	-0.068
Mof_C 	C 	0.583	0.9885	0.4565	0.002
Mof_H 	H 	0.5388	0.9859	0.4692	0.038
Mof_C 	C 	0.6402	0.981	0.4825	-0.087
Mof_H 	H 	0.6354	0.9728	0.5125	0.065
Mof_C 	C 	0.7067	0.9858	0.4632	0.027
Mof_H 	H 	0.7462	0.9809	0.4808	0.024
Mof_C 	C 	0.7147	0.9972	0.4199	-0.116
Mof_H 	H 	0.7598	0.0019	0.4086	0.083
Mof_C 	C 	0.6561	0.0025	0.3904	0.082
Mof_C 	C 	0.6628	0.0052	0.34423	-0.098
Mof_C 	C 	0.6012	0.0063	0.31968	0.279
Mof_C 	C 	0.7325	0.997	0.32113	-0.027
Mof_H 	H 	0.7341	0.9366	0.3072	0.05
Mof_H 	H 	0.7689	0.9978	0.3433	0.054
Mof_C 	C 	0.7512	0.0687	0.28706	-0.087
Mof_C 	C 	0.7607	0.0475	0.24187	0.076
Mof_C 	C 	0.7516	0.957	0.2238	-0.102
Mof_H 	H 	0.7378	0.9085	0.2419	0.073
Mof_C 	C 	0.7628	0.9404	0.1807	0.01
Mof_H 	H 	0.7586	0.88	0.1703	0.017
Mof_C 	C 	0.7801	0.0105	0.1519	-0.069
Mof_H 	H 	0.785	0.998	0.1222	0.053
Mof_C 	C 	0.7901	0.0987	0.16753	-0.021
Mof_H 	H 	0.803	0.146	0.1485	0.044
Mof_C 	C 	0.7809	0.1177	0.21223	-0.045
Mof_C 	C 	0.794	0.2083	0.22826	0.061
Mof_H 	H 	0.8082	0.2548	0.2091	0.025
Mof_C 	C 	0.786	0.2276	0.27157	-0.232
Mof_C 	C 	0.7655	0.1575	0.30157	0.259
Mof_C 	C 	0.8036	0.3256	0.28667	0.497
Mof_C 	C 	0.3629	0.0595	0.16735	0.355
Mof_C 	C 	0.3598	0.1203	0.12822	-0.176
Mof_C 	C 	0.4161	0.1746	0.11829	0.016
Mof_H 	H 	0.4556	0.1713	0.136	0.043
Mof_C 	C 	0.4171	0.2352	0.0825	-0.017
Mof_C 	C 	0.476	0.2868	0.0713	-0.048
Mof_H 	H 	0.516	0.2823	0.0885	0.052
Mof_C 	C 	0.4765	0.3434	0.0362	-0.044
Mof_H 	H 	0.5159	0.3789	0.0301	0.042
Mof_C 	C 	0.4189	0.3485	0.0095	-0.02
Mof_H 	H 	0.4208	0.3854	0.9846	0.042
Mof_C 	C 	0.3575	0.2998	0.01888	-0.092
Mof_H 	H 	0.3188	0.3049	0.0006	0.082
Mof_C 	C 	0.3546	0.2428	0.05638	0.048
Mof_C 	C 	0.2943	0.1876	0.06657	-0.071
Mof_C 	C 	0.2998	0.1237	0.10054	0.226
Mof_C 	C 	0.2262	0.1976	0.04035	-0.086
Mof_H 	H 	0.237	0.1895	0.0096	0.077
Mof_H 	H 	0.1949	0.1478	0.0488	0.074
Mof_C 	C 	0.188	0.2879	0.04566	-0.079
Mof_C 	C 	0.1583	0.3155	0.08638	0.071
Mof_C 	C 	0.1592	0.257	0.12366	-0.13
Mof_H 	H 	0.1795	0.1985	0.1219	0.098
Mof_C 	C 	0.1306	0.2862	0.16185	0.033
Mof_H 	H 	0.1317	0.247	0.186	0.026
Mof_C 	C 	0.0995	0.3731	0.16596	-0.084
Mof_H 	H 	0.0819	0.392	0.1929	0.076
Mof_C 	C 	0.0947	0.4304	0.1309	-0.007
Mof_H 	H 	0.0722	0.4873	0.1335	0.034
Mof_C 	C 	0.1241	0.403	0.09004	-0.047
Mof_C 	C 	0.1201	0.4604	0.05303	0.045
Mof_H 	H 	0.099	0.5183	0.0557	0.025
Mof_C 	C 	0.1461	0.4342	0.01337	-0.21
Mof_C 	C 	0.1801	0.3469	0.00965	0.23
Mof_C 	C 	0.1368	0.5002	0.97579	0.42
Mof_Ho	Ho	0.68855	0.97275	0.8708	1.82
Mof_Ho	Ho	0.64249	0.0352	0.74681	1.779
Mof_O 	O 	0.62206	0.15854	0.79536	-0.526
Mof_O 	O 	0.66572	0.1291	0.86247	-0.49
Mof_O 	O 	0.59145	0.3286	0.77474	-0.432
Mof_H 	H 	0.5972	0.2728	0.7707	0.254
Mof_O 	O 	0.30446	0.4816	0.8514	-0.503
Mof_O 	O 	0.23876	0.47242	0.7933	-0.577
Mof_O 	O 	0.43896	0.4942	0.84517	-0.445
Mof_H 	H 	0.4004	0.4951	0.8569	0.284
Mof_O 	O 	0.8905	0.4254	0.48081	-0.333
Mof_O 	O 	0.8394	0.5295	0.43828	-0.517
Mof_O 	O 	0.7933	0.6816	0.47004	-0.442
Mof_H 	H 	0.7989	0.6404	0.4519	0.281
Mof_O 	O 	0.58378	0.9447	0.69032	-0.413
Mof_O 	O 	0.69153	0.9882	0.67735	-0.462
Mof_O 	O 	0.75519	0.934	0.60856	-0.448
Mof_H 	H 	0.7456	0.9682	0.6291	0.284
Mof_O 	O 	0.16973	0.6206	0.75981	-0.487
Mof_O 	O 	0.20979	0.6533	0.82651	-0.536
Mof_O 	O 	0.24108	0.8254	0.84478	-0.435
Mof_H 	H 	0.2602	0.7751	0.8483	0.254
Mof_O 	O 	0.58943	0.977	0.83083	-0.578
Mof_O 	O 	0.52703	0.0005	0.77189	-0.487
Mof_O 	O 	0.39225	0.9942	0.77579	-0.448
Mof_H 	H 	0.4311	0.9983	0.7646	0.289
Mof_C 	C 	0.6364	0.1816	0.83488	0.485
Mof_C 	C 	0.6177	0.2774	0.84869	-0.234
Mof_C 	C 	0.6207	0.2997	0.89183	0.06
Mof_H 	H 	0.6334	0.254	0.9117	0.035
Mof_C 	C 	0.6054	0.3887	0.90763	-0.039
Mof_C 	C 	0.609	0.4104	0.95284	-0.024
Mof_H 	H 	0.6181	0.3632	0.9728	0.046
Mof_C 	C 	0.5997	0.4975	0.9676	-0.07
Mof_H 	H 	0.6029	0.5106	0.9973	0.053
Mof_C 	C 	0.5848	0.5687	0.9372	0.005
Mof_H 	H 	0.5797	0.6291	0.9473	0.027
Mof_C 	C 	0.578	0.5522	0.8942	-0.094
Mof_H 	H 	0.5671	0.6008	0.8754	0.073
Mof_C 	C 	0.58724	0.4596	0.87682	0.071
Mof_C 	C 	0.58102	0.4361	0.83204	-0.08
Mof_C 	C 	0.59676	0.3475	0.81831	0.254
Mof_C 	C 	0.5615	0.5096	0.79748	-0.033
Mof_H 	H 	0.5632	0.5702	0.8112	0.051
Mof_H 	H 	0.597	0.5087	0.7748	0.055
Mof_C 	C 	0.4904	0.4982	0.77602	-0.096
Mof_C 	C 	0.4833	0.5037	0.72922	0.086
Mof_C 	C 	0.5393	0.5144	0.70067	-0.12
Mof_H 	H 	0.5848	0.5155	0.7116	0.082
Mof_C 	C 	0.5281	0.5235	0.6563	0.021
Mof_H 	H 	0.5664	0.5321	0.638	0.024
Mof_C 	C 	0.4609	0.52	0.6379	-0.086
Mof_H 	H 	0.4545	0.5264	0.608	0.06
Mof_C 	C 	0.4062	0.5075	0.66436	-0.004
Mof_H 	H 	0.3617	0.5036	0.6522	0.036
Mof_C 	C 	0.4136	0.4997	0.71097	-0.07
Mof_C 	C 	0.3557	0.4896	0.73788	0.093
Mof_H 	H 	0.3113	0.4863	0.7255	-0.021
Mof_C 	C 	0.3626	0.4843	0.78273	-0.261
Mof_C 	C 	0.4309	0.4917	0.80148	0.277
Mof_C 	C 	0.2989	0.4772	0.81024	0.469
Mof_C 	C 	0.5308	0.989	0.81272	0.489
Mof_C 	C 	0.4658	0.9902	0.8395	-0.262
Mof_C 	C 	0.4708	0.9945	0.88457	0.088
Mof_H 	H 	0.5149	0.9938	0.8975	-0.011
Mof_C 	C 	0.4118	0.9999	0.9111	-0.058
Mof_C 	C 	0.417	0.0115	0.9565	-0.015
Mof_H 	H 	0.4612	0.0141	0.9692	0.045
Mof_C 	C 	0.3598	0.019	0.9825	-0.061
Mof_H 	H 	0.3646	0.0272	0.0125	0.052
Mof_C 	C 	0.2933	0.0142	0.9632	0.009
Mof_H 	H 	0.2538	0.0191	0.9808	0.032
Mof_C 	C 	0.2853	0.0028	0.9199	-0.102
Mof_H 	H 	0.2402	0.9981	0.9086	0.078
Mof_C 	C 	0.3439	0.9975	0.8904	0.073
Mof_C 	C 	0.3372	0.9948	0.84423	-0.094
Mof_C 	C 	0.3988	0.9937	0.81968	0.276
Mof_C 	C 	0.2675	0.003	0.82113	-0.03
Mof_H 	H 	0.2659	0.0634	0.8072	0.051
Mof_H 	H 	0.2311	0.0022	0.8433	0.055
Mof_C 	C 	0.2488	0.9313	0.78706	-0.086
Mof_C 	C 	0.2393	0.9525	0.74187	0.075
Mof_C 	C 	0.2484	0.043	0.7238	-0.101
Mof_H 	H 	0.2622	0.0915	0.7419	0.072
Mof_C 	C 	0.2372	0.0596	0.6807	0.007
Mof_H 	H 	0.2414	0.12	0.6703	0.018
Mof_C 	C 	0.2199	0.9895	0.6519	-0.066
Mof_H 	H 	0.215	0.002	0.6222	0.051
Mof_C 	C 	0.2099	0.9013	0.66753	-0.023
Mof_H 	H 	0.197	0.854	0.6485	0.045
Mof_C 	C 	0.2191	0.8823	0.71223	-0.044
Mof_C 	C 	0.206	0.7917	0.72826	0.06
Mof_H 	H 	0.1918	0.7452	0.7091	0.025
Mof_C 	C 	0.214	0.7724	0.77157	-0.231
Mof_C 	C 	0.2345	0.8425	0.80157	0.259
Mof_C 	C 	0.1964	0.6744	0.78667	0.497
Mof_C 	C 	0.6371	0.9405	0.66735	0.356
Mof_C 	C 	0.6402	0.8797	0.62822	-0.178
Mof_C 	C 	0.5839	0.8254	0.61829	0.021
Mof_H 	H 	0.5444	0.8287	0.636	0.041
Mof_C 	C 	0.5829	0.7648	0.5825	-0.025
Mof_C 	C 	0.524	0.7132	0.5713	-0.035
Mof_H 	H 	0.484	0.7177	0.5885	0.048
Mof_C 	C 	0.5235	0.6566	0.5362	-0.061
Mof_H 	H 	0.4841	0.6211	0.5301	0.05
Mof_C 	C 	0.5811	0.6515	0.5095	0.003
Mof_H 	H 	0.5792	0.6146	0.4846	0.03
Mof_C 	C 	0.6425	0.7002	0.51888	-0.106
Mof_H 	H 	0.6812	0.6951	0.5006	0.088
Mof_C 	C 	0.6454	0.7572	0.55638	0.056
Mof_C 	C 	0.7057	0.8124	0.56657	-0.074
Mof_C 	C 	0.7002	0.8763	0.60054	0.227
Mof_C 	C 	0.7738	0.8024	0.54035	-0.086
Mof_H 	H 	0.763	0.8105	0.5096	0.079
Mof_H 	H 	0.8051	0.8522	0.5488	0.075
Mof_C 	C 	0.812	0.7121	0.54566	-0.079
Mof_C 	C 	0.8417	0.6845	0.58638	0.071
Mof_C 	C 	0.8408	0.743	0.62366	-0.129
Mof_H 	H 	0.8205	0.8015	0.6219	0.098
Mof_C 	C 	0.8694	0.7138	0.66185	0.032
Mof_H 	H 	0.8683	0.753	0.686	0.026
Mof_C 	C 	0.9005	0.6269	0.66596	-0.084
Mof_H 	H 	0.9181	0.608	0.6929	0.075
Mof_C 	C 	0.9053	0.5696	0.6309	-0.008
Mof_H 	H 	0.9278	0.5127	0.6335	0.035
Mof_C 	C 	0.8759	0.597	0.59004	-0.046
Mof_C 	C 	0.8799	0.5396	0.55303	0.043
Mof_H 	H 	0.901	0.4817	0.5557	0.027
Mof_C 	C 	0.8539	0.5658	0.51337	-0.206
Mof_C 	C 	0.8199	0.6531	0.50965	0.234
Mof_C 	C 	0.8632	0.4998	0.47579	0.415
Mof_Ho	Ho	0.81145	0.47275	0.3708	1.824
Mof_Ho	Ho	0.85751	0.5352	0.24681	1.778
Mof_O 	O 	0.87794	0.65854	0.29536	-0.526
Mof_O 	O 	0.83428	0.6291	0.36247	-0.491
Mof_O 	O 	0.90855	0.8286	0.27474	-0.433
Mof_H 	H 	0.9028	0.7728	0.2707	0.254
Mof_O 	O 	0.19554	0.9816	0.3514	-0.502
Mof_O 	O 	0.26124	0.97242	0.2933	-0.576
Mof_O 	O 	0.06104	0.9942	0.34517	-0.444
Mof_H 	H 	0.0996	0.9951	0.3569	0.284
Mof_O 	O 	0.6095	0.9254	0.98081	-0.332
Mof_O 	O 	0.6606	0.0295	0.93828	-0.514
Mof_O 	O 	0.7067	0.1816	0.97004	-0.436
Mof_H 	H 	0.7011	0.1404	0.9519	0.28
Mof_O 	O 	0.91622	0.4447	0.19032	-0.413
Mof_O 	O 	0.80847	0.4882	0.17735	-0.461
Mof_O 	O 	0.74481	0.434	0.10856	-0.448
Mof_H 	H 	0.7544	0.4682	0.1291	0.284
Mof_O 	O 	0.33027	0.1206	0.25981	-0.487
Mof_O 	O 	0.29021	0.1533	0.32651	-0.536
Mof_O 	O 	0.25892	0.3254	0.34478	-0.435
Mof_H 	H 	0.2398	0.2751	0.3483	0.254
Mof_O 	O 	0.91057	0.477	0.33083	-0.578
Mof_O 	O 	0.97297	0.5005	0.27189	-0.488
Mof_O 	O 	0.10775	0.4942	0.27579	-0.449
Mof_H 	H 	0.0689	0.4983	0.2646	0.289
Mof_C 	C 	0.8636	0.6816	0.33488	0.485
Mof_C 	C 	0.8823	0.7774	0.34869	-0.234
Mof_C 	C 	0.8793	0.7997	0.39183	0.06
Mof_H 	H 	0.8666	0.754	0.4117	0.034
Mof_C 	C 	0.8946	0.8887	0.40763	-0.04
Mof_C 	C 	0.891	0.9104	0.45284	-0.024
Mof_H 	H 	0.8819	0.8632	0.4728	0.045
Mof_C 	C 	0.9003	0.9975	0.4676	-0.071
Mof_H 	H 	0.8971	0.0106	0.4973	0.052
Mof_C 	C 	0.9152	0.0687	0.4372	0.005
Mof_H 	H 	0.9203	0.1291	0.4473	0.026
Mof_C 	C 	0.922	0.0522	0.3942	-0.094
Mof_H 	H 	0.9329	0.1008	0.3754	0.073
Mof_C 	C 	0.91276	0.9596	0.37682	0.071
Mof_C 	C 	0.91898	0.9361	0.33204	-0.08
Mof_C 	C 	0.90324	0.8475	0.31831	0.253
Mof_C 	C 	0.9385	0.0096	0.29748	-0.037
Mof_H 	H 	0.9368	0.0702	0.3112	0.052
Mof_H 	H 	0.903	0.0087	0.2748	0.056
Mof_C 	C 	0.0096	0.9982	0.27602	-0.089
Mof_C 	C 	0.0167	0.0037	0.22922	0.075
Mof_C 	C 	0.9607	0.0144	0.20067	-0.111
Mof_H 	H 	0.9152	0.0155	0.2116	0.079
Mof_C 	C 	0.9719	0.0235	0.1563	0.015
Mof_H 	H 	0.9336	0.0321	0.138	0.026
Mof_C 	C 	0.0391	0.02	0.1379	-0.08
Mof_H 	H 	0.0455	0.0264	0.108	0.057
Mof_C 	C 	0.0938	0.0075	0.16436	-0.013
Mof_H 	H 	0.1383	0.0036	0.1522	0.039
Mof_C 	C 	0.0864	0.9997	0.21097	-0.061
Mof_C 	C 	0.1443	0.9896	0.23788	0.087
Mof_H 	H 	0.1887	0.9863	0.2255	-0.018
Mof_C 	C 	0.1374	0.9843	0.28273	-0.257
Mof_C 	C 	0.0691	0.9917	0.30148	0.274
Mof_C 	C 	0.2011	0.9772	0.31024	0.468
Mof_C 	C 	0.9692	0.489	0.31272	0.491
Mof_C 	C 	0.0342	0.4902	0.3395	-0.266
Mof_C 	C 	0.0292	0.4945	0.38457	0.094
Mof_H 	H 	0.9851	0.4938	0.3975	-0.013
Mof_C 	C 	0.0882	0.4999	0.4111	-0.067
Mof_C 	C 	0.083	0.5115	0.4565	0.001
Mof_H 	H 	0.0388	0.5141	0.4692	0.038
Mof_C 	C 	0.1402	0.519	0.4825	-0.087
Mof_H 	H 	0.1354	0.5272	0.5125	0.065
Mof_C 	C 	0.2067	0.5142	0.4632	0.027
Mof_H 	H 	0.2462	0.5191	0.4808	0.023
Mof_C 	C 	0.2147	0.5028	0.4199	-0.118
Mof_H 	H 	0.2598	0.4981	0.4086	0.083
Mof_C 	C 	0.1561	0.4975	0.3904	0.082
Mof_C 	C 	0.1628	0.4948	0.34423	-0.098
Mof_C 	C 	0.1012	0.4937	0.31968	0.279
Mof_C 	C 	0.2325	0.503	0.32113	-0.027
Mof_H 	H 	0.2341	0.5634	0.3072	0.05
Mof_H 	H 	0.2689	0.5022	0.3433	0.054
Mof_C 	C 	0.2512	0.4313	0.28706	-0.088
Mof_C 	C 	0.2607	0.4525	0.24187	0.077
Mof_C 	C 	0.2516	0.543	0.2238	-0.105
Mof_H 	H 	0.2378	0.5915	0.2419	0.074
Mof_C 	C 	0.2628	0.5596	0.1807	0.015
Mof_H 	H 	0.2586	0.62	0.1703	0.016
Mof_C 	C 	0.2801	0.4895	0.1519	-0.076
Mof_H 	H 	0.285	0.502	0.1222	0.055
Mof_C 	C 	0.2901	0.4013	0.16753	-0.017
Mof_H 	H 	0.303	0.354	0.1485	0.042
Mof_C 	C 	0.2809	0.3823	0.21223	-0.048
Mof_C 	C 	0.294	0.2917	0.22826	0.063
Mof_H 	H 	0.3082	0.2452	0.2091	0.025
Mof_C 	C 	0.286	0.2724	0.27157	-0.232
Mof_C 	C 	0.2655	0.3425	0.30157	0.26
Mof_C 	C 	0.3036	0.1744	0.28667	0.497
Mof_C 	C 	0.8629	0.4405	0.16735	0.355
Mof_C 	C 	0.8598	0.3797	0.12822	-0.176
Mof_C 	C 	0.9161	0.3254	0.11829	0.015
Mof_H 	H 	0.9556	0.3287	0.136	0.043
Mof_C 	C 	0.9171	0.2648	0.0825	-0.016
Mof_C 	C 	0.976	0.2132	0.0713	-0.048
Mof_H 	H 	0.016	0.2177	0.0885	0.052
Mof_C 	C 	0.9765	0.1566	0.0362	-0.04
Mof_H 	H 	0.0159	0.1211	0.0301	0.04
Mof_C 	C 	0.9189	0.1515	0.0095	-0.023
Mof_H 	H 	0.9208	0.1146	0.9846	0.044
Mof_C 	C 	0.8575	0.2002	0.01888	-0.09
Mof_H 	H 	0.8188	0.1951	0.0006	0.081
Mof_C 	C 	0.8546	0.2572	0.05638	0.047
Mof_C 	C 	0.7943	0.3124	0.06657	-0.071
Mof_C 	C 	0.7998	0.3763	0.10054	0.225
Mof_C 	C 	0.7262	0.3024	0.04035	-0.087
Mof_H 	H 	0.737	0.3105	0.0096	0.078
Mof_H 	H 	0.6949	0.3522	0.0488	0.074
Mof_C 	C 	0.688	0.2121	0.04566	-0.078
Mof_C 	C 	0.6583	0.1845	0.08638	0.071
Mof_C 	C 	0.6592	0.243	0.12366	-0.129
Mof_H 	H 	0.6795	0.3015	0.1219	0.098
Mof_C 	C 	0.6306	0.2138	0.16185	0.032
Mof_H 	H 	0.6317	0.253	0.186	0.026
Mof_C 	C 	0.5995	0.1269	0.16596	-0.084
Mof_H 	H 	0.5819	0.108	0.1929	0.076
Mof_C 	C 	0.5947	0.0696	0.1309	-0.007
Mof_H 	H 	0.5722	0.0127	0.1335	0.035
Mof_C 	C 	0.6241	0.097	0.09004	-0.047
Mof_C 	C 	0.6201	0.0396	0.05303	0.045
Mof_H 	H 	0.599	0.9817	0.0557	0.025
Mof_C 	C 	0.6461	0.0658	0.01337	-0.208
Mof_C 	C 	0.6801	0.1531	0.00965	0.229
Mof_C 	C 	0.6368	0.9998	0.97579	0.416
Mof_Ho	Ho	0.18855	0.52725	0.8708	1.825
Mof_Ho	Ho	0.14249	0.4648	0.74681	1.778
Mof_O 	O 	0.12206	0.34146	0.79536	-0.526
Mof_O 	O 	0.16572	0.3709	0.86247	-0.491
Mof_O 	O 	0.09145	0.1714	0.77474	-0.432
Mof_H 	H 	0.0972	0.2272	0.7707	0.254
Mof_O 	O 	0.80446	0.0184	0.8514	-0.501
Mof_O 	O 	0.73876	0.02758	0.7933	-0.576
Mof_O 	O 	0.93896	0.0058	0.84517	-0.444
Mof_H 	H 	0.9004	0.0049	0.8569	0.284
Mof_O 	O 	0.3905	0.0746	0.48081	-0.332
Mof_O 	O 	0.3394	0.9705	0.43828	-0.514
Mof_O 	O 	0.2933	0.8184	0.47004	-0.442
Mof_H 	H 	0.2989	0.8596	0.4519	0.281
Mof_O 	O 	0.08378	0.5553	0.69032	-0.413
Mof_O 	O 	0.19153	0.5118	0.67735	-0.461
Mof_O 	O 	0.25519	0.566	0.60856	-0.448
Mof_H 	H 	0.2456	0.5318	0.6291	0.284
Mof_O 	O 	0.66973	0.8794	0.75981	-0.487
Mof_O 	O 	0.70979	0.8467	0.82651	-0.536
Mof_O 	O 	0.74108	0.6746	0.84478	-0.435
Mof_H 	H 	0.7602	0.7249	0.8483	0.254
Mof_O 	O 	0.08943	0.523	0.83083	-0.578
Mof_O 	O 	0.02703	0.4995	0.77189	-0.488
Mof_O 	O 	0.89225	0.5058	0.77579	-0.449
Mof_H 	H 	0.9311	0.5017	0.7646	0.289
Mof_C 	C 	0.1364	0.3184	0.83488	0.485
Mof_C 	C 	0.1177	0.2226	0.84869	-0.233
Mof_C 	C 	0.1207	0.2003	0.89183	0.059
Mof_H 	H 	0.1334	0.246	0.9117	0.035
Mof_C 	C 	0.1054	0.1113	0.90763	-0.038
Mof_C 	C 	0.109	0.0896	0.95284	-0.026
Mof_H 	H 	0.1181	0.1368	0.9728	0.047
Mof_C 	C 	0.0997	0.0025	0.9676	-0.067
Mof_H 	H 	0.1029	0.9894	0.9973	0.052
Mof_C 	C 	0.0848	0.9313	0.9372	0.003
Mof_H 	H 	0.0797	0.8709	0.9473	0.027
Mof_C 	C 	0.078	0.9478	0.8942	-0.092
Mof_H 	H 	0.0671	0.8992	0.8754	0.072
Mof_C 	C 	0.08724	0.0404	0.87682	0.07
Mof_C 	C 	0.08102	0.0639	0.83204	-0.079
Mof_C 	C 	0.09676	0.1525	0.81831	0.253
Mof_C 	C 	0.0615	0.9904	0.79748	-0.037
Mof_H 	H 	0.0632	0.9298	0.8112	0.052
Mof_H 	H 	0.097	0.9913	0.7748	0.056
Mof_C 	C 	0.9904	0.0018	0.77602	-0.089
Mof_C 	C 	0.9833	0.9963	0.72922	0.075
Mof_C 	C 	0.0393	0.9856	0.70067	-0.111
Mof_H 	H 	0.0848	0.9845	0.7116	0.079
Mof_C 	C 	0.0281	0.9765	0.6563	0.016
Mof_H 	H 	0.0664	0.9679	0.638	0.026
Mof_C 	C 	0.9609	0.98	0.6379	-0.081
Mof_H 	H 	0.9545	0.9736	0.608	0.058
Mof_C 	C 	0.9062	0.9925	0.66436	-0.011
Mof_H 	H 	0.8617	0.9964	0.6522	0.039
Mof_C 	C 	0.9136	0.0003	0.71097	-0.062
Mof_C 	C 	0.8557	0.0104	0.73788	0.088
Mof_H 	H 	0.8113	0.0137	0.7255	-0.019
Mof_C 	C 	0.8626	0.0157	0.78273	-0.258
Mof_C 	C 	0.9309	0.0083	0.80148	0.274
Mof_C 	C 	0.7989	0.0228	0.81024	0.468
Mof_C 	C 	0.0308	0.511	0.81272	0.491
Mof_C 	C 	0.9658	0.5098	0.8395	-0.263
Mof_C 	C 	0.9708	0.5055	0.88457	0.088
Mof_H 	H 	0.0149	0.5062	0.8975	-0.011
Mof_C 	C 	0.9118	0.5001	0.9111	-0.058
Mof_C 	C 	0.917	0.4885	0.9565	-0.014
Mof_H 	H 	0.9612	0.4859	0.9692	0.044
Mof_C 	C 	0.8598	0.481	0.9825	-0.064
Mof_H 	H 	0.8646	0.4728	0.0125	0.054
Mof_C 	C 	0.7933	0.4858	0.9632	0.012
Mof_H 	H 	0.7538	0.4809	0.9808	0.03
Mof_C 	C 	0.7853	0.4972	0.9199	-0.107
Mof_H 	H 	0.7402	0.5019	0.9086	0.08
Mof_C 	C 	0.8439	0.5025	0.8904	0.075
Mof_C 	C 	0.8372	0.5052	0.84423	-0.094
Mof_C 	C 	0.8988	0.5063	0.81968	0.277
Mof_C 	C 	0.7675	0.497	0.82113	-0.03
Mof_H 	H 	0.7659	0.4366	0.8072	0.05
Mof_H 	H 	0.7311	0.4978	0.8433	0.055
Mof_C 	C 	0.7488	0.5687	0.78706	-0.087
Mof_C 	C 	0.7393	0.5475	0.74187	0.077
Mof_C 	C 	0.7484	0.457	0.7238	-0.105
Mof_H 	H 	0.7622	0.4085	0.7419	0.074
Mof_C 	C 	0.7372	0.4404	0.6807	0.015
Mof_H 	H 	0.7414	0.38	0.6703	0.016
Mof_C 	C 	0.7199	0.5105	0.6519	-0.075
Mof_H 	H 	0.715	0.498	0.6222	0.056
Mof_C 	C 	0.7099	0.5987	0.66753	-0.017
Mof_H 	H 	0.697	0.646	0.6485	0.042
Mof_C 	C 	0.7191	0.6177	0.71223	-0.047
Mof_C 	C 	0.706	0.7083	0.72826	0.062
Mof_H 	H 	0.6918	0.7548	0.7091	0.025
Mof_C 	C 	0.714	0.7276	0.77157	-0.232
Mof_C 	C 	0.7345	0.6575	0.80157	0.259
Mof_C 	C 	0.6964	0.8256	0.78667	0.497
Mof_C 	C 	0.1371	0.5595	0.66735	0.356
Mof_C 	C 	0.1402	0.6203	0.62822	-0.178
Mof_C 	C 	0.0839	0.6746	0.61829	0.021
Mof_H 	H 	0.0444	0.6713	0.636	0.042
Mof_C 	C 	0.0829	0.7352	0.5825	-0.025
Mof_C 	C 	0.024	0.7868	0.5713	-0.035
Mof_H 	H 	0.984	0.7823	0.5885	0.047
Mof_C 	C 	0.0235	0.8434	0.5362	-0.058
Mof_H 	H 	0.9841	0.8789	0.5301	0.048
Mof_C 	C 	0.0811	0.8485	0.5095	0.002
Mof_H 	H 	0.0792	0.8854	0.4846	0.032
Mof_C 	C 	0.1425	0.7998	0.51888	-0.105
Mof_H 	H 	0.1812	0.8049	0.5006	0.088
Mof_C 	C 	0.1454	0.7428	0.55638	0.055
Mof_C 	C 	0.2057	0.6876	0.56657	-0.074
Mof_C 	C 	0.2002	0.6237	0.60054	0.227
Mof_C 	C 	0.2738	0.6976	0.54035	-0.086
Mof_H 	H 	0.263	0.6895	0.5096	0.079
Mof_H 	H 	0.3051	0.6478	0.5488	0.075
Mof_C 	C 	0.312	0.7879	0.54566	-0.079
Mof_C 	C 	0.3417	0.8155	0.58638	0.071
Mof_C 	C 	0.3408	0.757	0.62366	-0.129
Mof_H 	H 	0.3205	0.6985	0.6219	0.098
Mof_C 	C 	0.3694	0.7862	0.66185	0.032
Mof_H 	H 	0.3683	0.747	0.686	0.026
Mof_C 	C 	0.4005	0.8731	0.66596	-0.084
Mof_H 	H 	0.4181	0.892	0.6929	0.076
Mof_C 	C 	0.4053	0.9304	0.6309	-0.007
Mof_H 	H 	0.4278	0.9873	0.6335	0.035
Mof_C 	C 	0.3759	0.903	0.59004	-0.047
Mof_C 	C 	0.3799	0.9604	0.55303	0.045
Mof_H 	H 	0.401	0.0183	0.5557	0.026
Mof_C 	C 	0.3539	0.9342	0.51337	-0.204
Mof_C 	C 	0.3199	0.8469	0.50965	0.234
Mof_C 	C 	0.3632	0.0002	0.47579	0.412
_end
