data_functionalizedCrystal
_audit_creation_method	'EQeq! by Chris Wilmer'
_symmetry_space_group_name_H-M	'P1'
_symmetry_Int_Tables_number	1
_symmetry_cell_setting	triclinic
loop_
_symmetry_equiv_pos_as_xyz
  x,y,z
_cell_length_a	26.9829
_cell_length_b	37.6059
_cell_length_c	19.3314
_cell_angle_alpha	90
_cell_angle_beta	90
_cell_angle_gamma	90
loop_
_atom_site_label
_atom_site_type_symbol
_atom_site_fract_x
_atom_site_fract_y
_atom_site_fract_z
_atom_site_charge
Mof_C 	C 	0.3114	0.29916	0.5829	-0.054
Mof_H 	H 	0.283	0.2998	0.6102	0.039
Mof_N 	N 	0.3124	0.27791	0.5273	-0.195
Mof_O 	O 	0.6664	0.62715	0.9011	-0.239
Mof_C 	C 	0.3527	0.27782	0.4886	0.021
Mof_H 	H 	0.3535	0.2631	0.45	0.016
Mof_N 	N 	0.5552	0.52302	0.8067	-0.202
Mof_O 	O 	0.4071	0.38188	0.6489	-0.238
Mof_C 	C 	0.3938	0.2987	0.5031	-0.022
Mof_H 	H 	0.4215	0.298	0.4744	0.042
Mof_N 	N 	0.4479	0.44699	0.803	-0.193
Mof_C 	C 	0.3932	0.3207	0.5606	-0.118
Mof_H 	H 	0.42	0.3352	0.5713	0.099
Mof_N 	N 	0.3454	0.34075	0.662	-0.249
Mof_H 	H 	0.3218	0.3344	0.6892	0.129
Mof_N 	N 	0.3925	0.40752	0.7811	-0.061
Mof_C 	C 	0.3517	0.32038	0.6009	0.128
Mof_C 	C 	0.373	0.36943	0.6821	0.271
Mof_N 	N 	0.4101	0.40051	0.8449	-0.052
Mof_N 	N 	0.4438	0.42391	0.8576	-0.059
Mof_C 	C 	0.3535	0.3854	0.7493	-0.216
Mof_H 	H 	0.3244	0.3998	0.7399	0.1
Mof_H 	H 	0.344	0.3665	0.7809	0.101
Mof_N 	N 	0.6016	0.59027	0.9257	-0.259
Mof_H 	H 	0.5806	0.5853	0.9577	0.135
Mof_C 	C 	0.416	0.43647	0.7563	0.101
Mof_H 	H 	0.4104	0.4471	0.7136	0.001
Mof_N 	N 	0.6524	0.66588	0.0201	-0.056
Mof_C 	C 	0.563	0.5442	0.862	-0.051
Mof_H 	H 	0.541	0.5424	0.8989	0.025
Mof_N 	N 	0.6769	0.68938	0.9823	-0.038
Mof_C 	C 	0.5892	0.5249	0.7555	0.016
Mof_H 	H 	0.5847	0.5107	0.7165	0.006
Mof_N 	N 	0.7054	0.70855	0.0243	-0.162
Mof_C 	C 	0.63	0.5467	0.7585	-0.023
Mof_H 	H 	0.6533	0.5465	0.723	0.044
Mof_N 	N 	0.6952	0.69639	0.0903	-0.109
Mof_C 	C 	0.6363	0.5691	0.8145	-0.115
Mof_H 	H 	0.6634	0.5844	0.8168	0.098
Mof_C 	C 	0.6152	0.6401	0.0008	-0.269
Mof_H 	H 	0.5843	0.6523	0.9906	0.13
Mof_H 	H 	0.6093	0.6241	0.0393	0.119
Mof_C 	C 	0.6637	0.67121	0.0873	0.085
Mof_H 	H 	0.6508	0.6587	0.1247	0.009
Mof_C 	C 	0.6316	0.61856	0.937	0.299
Mof_C 	C 	0.6015	0.56836	0.8674	0.126
Mof_C 	C 	0.1886	0.70084	0.0829	-0.038
Mof_H 	H 	0.217	0.7002	0.1102	0.034
Mof_N 	N 	0.1876	0.72209	0.0273	-0.218
Mof_O 	O 	0.8336	0.37285	0.4011	-0.237
Mof_C 	C 	0.1473	0.72218	0.9886	0.095
Mof_H 	H 	0.1465	0.7369	0.95	-0.008
Mof_N 	N 	0.9448	0.47698	0.3067	-0.196
Mof_O 	O 	0.0929	0.61812	0.1489	-0.244
Mof_C 	C 	0.1062	0.7013	0.0031	-0.118
Mof_H 	H 	0.0785	0.702	0.9744	0.08
Mof_N 	N 	0.0521	0.55301	0.303	-0.197
Mof_C 	C 	0.1068	0.6793	0.0606	-0.066
Mof_H 	H 	0.08	0.6648	0.0713	0.073
Mof_N 	N 	0.1546	0.65925	0.162	-0.245
Mof_H 	H 	0.1782	0.6656	0.1892	0.126
Mof_N 	N 	0.1075	0.59248	0.2811	-0.062
Mof_C 	C 	0.1483	0.67962	0.1009	0.1
Mof_C 	C 	0.127	0.63057	0.1821	0.268
Mof_N 	N 	0.0899	0.59949	0.3449	-0.055
Mof_N 	N 	0.0562	0.57609	0.3576	-0.066
Mof_C 	C 	0.1465	0.6146	0.2493	-0.216
Mof_H 	H 	0.1756	0.6002	0.2399	0.099
Mof_H 	H 	0.156	0.6335	0.2809	0.1
Mof_N 	N 	0.8984	0.40973	0.4257	-0.255
Mof_H 	H 	0.9194	0.4147	0.4577	0.134
Mof_C 	C 	0.084	0.56353	0.2563	0.099
Mof_H 	H 	0.0896	0.5529	0.2136	-0.002
Mof_N 	N 	0.8476	0.33412	0.5201	-0.054
Mof_C 	C 	0.937	0.4558	0.362	-0.05
Mof_H 	H 	0.959	0.4576	0.3989	0.031
Mof_N 	N 	0.8231	0.31062	0.4823	-0.049
Mof_C 	C 	0.9108	0.4751	0.2555	0.016
Mof_H 	H 	0.9153	0.4893	0.2165	0.009
Mof_N 	N 	0.7946	0.29145	0.5243	-0.155
Mof_C 	C 	0.87	0.4533	0.2585	-0.023
Mof_H 	H 	0.8467	0.4535	0.223	0.043
Mof_N 	N 	0.8048	0.30361	0.5903	-0.108
Mof_C 	C 	0.8637	0.4309	0.3145	-0.114
Mof_H 	H 	0.8366	0.4156	0.3168	0.097
Mof_C 	C 	0.8848	0.3599	0.5008	-0.222
Mof_H 	H 	0.9157	0.3477	0.4906	0.112
Mof_H 	H 	0.8907	0.3759	0.5393	0.111
Mof_C 	C 	0.8363	0.32879	0.5873	0.09
Mof_H 	H 	0.8492	0.3413	0.6247	0.009
Mof_C 	C 	0.8684	0.38144	0.437	0.279
Mof_C 	C 	0.8985	0.43164	0.3674	0.127
Mof_C 	C 	0.6886	0.79916	0.9171	-0.068
Mof_H 	H 	0.717	0.7998	0.8898	0.047
Mof_N 	N 	0.6876	0.77791	0.9727	-0.17
Mof_O 	O 	0.3336	0.12715	0.5989	-0.236
Mof_C 	C 	0.6473	0.77782	0.0114	-0.056
Mof_H 	H 	0.6465	0.7631	0.05	0.04
Mof_N 	N 	0.4448	0.02302	0.6933	-0.203
Mof_O 	O 	0.5929	0.88188	0.8511	-0.237
Mof_C 	C 	0.6062	0.7987	0.9969	0.074
Mof_H 	H 	0.5785	0.798	0.0256	-0.001
Mof_N 	N 	0.5521	0.94699	0.697	-0.193
Mof_C 	C 	0.6068	0.8207	0.9394	-0.172
Mof_H 	H 	0.58	0.8352	0.9287	0.12
Mof_N 	N 	0.6546	0.84075	0.838	-0.254
Mof_H 	H 	0.6782	0.8344	0.8108	0.13
Mof_N 	N 	0.6075	0.90752	0.7189	-0.061
Mof_C 	C 	0.6483	0.82038	0.8991	0.155
Mof_C 	C 	0.627	0.86943	0.8179	0.272
Mof_N 	N 	0.5899	0.90051	0.6551	-0.053
Mof_N 	N 	0.5562	0.92391	0.6424	-0.061
Mof_C 	C 	0.6465	0.8854	0.7507	-0.217
Mof_H 	H 	0.6756	0.8998	0.7601	0.101
Mof_H 	H 	0.656	0.8665	0.7191	0.101
Mof_N 	N 	0.3984	0.09027	0.5743	-0.254
Mof_H 	H 	0.4194	0.0853	0.5423	0.13
Mof_C 	C 	0.584	0.93647	0.7437	0.101
Mof_H 	H 	0.5896	0.9471	0.7864	0.002
Mof_N 	N 	0.3476	0.16588	0.4799	-0.056
Mof_C 	C 	0.437	0.0442	0.638	-0.049
Mof_H 	H 	0.459	0.0424	0.6011	0.022
Mof_N 	N 	0.3231	0.18938	0.5177	-0.049
Mof_C 	C 	0.4108	0.0249	0.7445	0.017
Mof_H 	H 	0.4153	0.0107	0.7835	0.007
Mof_N 	N 	0.2946	0.20855	0.4757	-0.155
Mof_C 	C 	0.37	0.0467	0.7415	-0.025
Mof_H 	H 	0.3467	0.0465	0.777	0.045
Mof_N 	N 	0.3048	0.19639	0.4097	-0.109
Mof_C 	C 	0.3637	0.0691	0.6855	-0.113
Mof_H 	H 	0.3366	0.0844	0.6832	0.096
Mof_C 	C 	0.3848	0.1401	0.4992	-0.219
Mof_H 	H 	0.4157	0.1523	0.5094	0.106
Mof_H 	H 	0.3907	0.1241	0.4607	0.108
Mof_C 	C 	0.3363	0.17121	0.4127	0.089
Mof_H 	H 	0.3492	0.1587	0.3753	0.008
Mof_C 	C 	0.3684	0.11856	0.563	0.276
Mof_C 	C 	0.3985	0.06836	0.6326	0.123
Mof_C 	C 	0.8114	0.20084	0.4171	-0.052
Mof_H 	H 	0.783	0.2002	0.3898	0.04
Mof_N 	N 	0.8124	0.22209	0.4727	-0.195
Mof_O 	O 	0.1664	0.87285	0.0989	-0.234
Mof_C 	C 	0.8527	0.22218	0.5114	0.022
Mof_H 	H 	0.8535	0.2369	0.55	0.018
Mof_N 	N 	0.0552	0.97698	0.1933	-0.208
Mof_O 	O 	0.9071	0.11812	0.3511	-0.232
Mof_C 	C 	0.8938	0.2013	0.4969	-0.02
Mof_H 	H 	0.9215	0.202	0.5256	0.047
Mof_N 	N 	0.9479	0.05301	0.197	-0.186
Mof_C 	C 	0.8932	0.1793	0.4394	-0.117
Mof_H 	H 	0.92	0.1648	0.4287	0.103
Mof_N 	N 	0.8454	0.15925	0.338	-0.249
Mof_H 	H 	0.8218	0.1656	0.3108	0.129
Mof_N 	N 	0.8925	0.09248	0.2189	-0.061
Mof_C 	C 	0.8517	0.17962	0.3991	0.129
Mof_C 	C 	0.873	0.13057	0.3179	0.27
Mof_N 	N 	0.9101	0.09949	0.1551	-0.053
Mof_N 	N 	0.9438	0.07609	0.1424	-0.058
Mof_C 	C 	0.8535	0.1146	0.2507	-0.214
Mof_H 	H 	0.8244	0.1002	0.2601	0.099
Mof_H 	H 	0.844	0.1335	0.2191	0.101
Mof_N 	N 	0.1016	0.90973	0.0743	-0.248
Mof_H 	H 	0.0806	0.9147	0.0423	0.122
Mof_C 	C 	0.916	0.06353	0.2437	0.102
Mof_H 	H 	0.9104	0.0529	0.2864	0.003
Mof_N 	N 	0.1524	0.83412	0.9799	-0.056
Mof_C 	C 	0.063	0.9558	0.138	-0.049
Mof_H 	H 	0.041	0.9576	0.1011	0.013
Mof_N 	N 	0.1769	0.81062	0.0177	-0.061
Mof_C 	C 	0.0892	0.9751	0.2445	0.016
Mof_H 	H 	0.0847	0.9893	0.2835	0.002
Mof_N 	N 	0.2054	0.79145	0.9757	-0.147
Mof_C 	C 	0.13	0.9533	0.2415	-0.029
Mof_H 	H 	0.1533	0.9535	0.277	0.043
Mof_N 	N 	0.1952	0.80361	0.9097	-0.109
Mof_C 	C 	0.1363	0.9309	0.1855	-0.111
Mof_H 	H 	0.1634	0.9156	0.1832	0.094
Mof_C 	C 	0.1152	0.8599	0.9992	-0.165
Mof_H 	H 	0.0843	0.8477	0.0094	0.076
Mof_H 	H 	0.1093	0.8759	0.9607	0.094
Mof_C 	C 	0.1637	0.82879	0.9127	0.093
Mof_H 	H 	0.1508	0.8413	0.8753	0.007
Mof_C 	C 	0.1316	0.88144	0.063	0.25
Mof_C 	C 	0.1015	0.93164	0.1326	0.116
Mof_C 	C 	0.1886	0.20084	0.4171	-0.053
Mof_H 	H 	0.217	0.2002	0.3898	0.04
Mof_N 	N 	0.1876	0.22209	0.4727	-0.196
Mof_O 	O 	0.8336	0.87285	0.0989	-0.233
Mof_C 	C 	0.1473	0.22218	0.5114	0.019
Mof_H 	H 	0.1465	0.2369	0.55	0.015
Mof_N 	N 	0.9448	0.97698	0.1933	-0.196
Mof_O 	O 	0.0929	0.11812	0.3511	-0.243
Mof_C 	C 	0.1062	0.2013	0.4969	-0.023
Mof_H 	H 	0.0785	0.202	0.5256	0.037
Mof_N 	N 	0.0521	0.05301	0.197	-0.197
Mof_C 	C 	0.1068	0.1793	0.4394	-0.119
Mof_H 	H 	0.08	0.1648	0.4287	0.095
Mof_N 	N 	0.1546	0.15925	0.338	-0.25
Mof_H 	H 	0.1782	0.1656	0.3108	0.128
Mof_N 	N 	0.1075	0.09248	0.2189	-0.062
Mof_C 	C 	0.1483	0.17962	0.3991	0.126
Mof_C 	C 	0.127	0.13057	0.3179	0.27
Mof_N 	N 	0.0899	0.09949	0.1551	-0.057
Mof_N 	N 	0.0562	0.07609	0.1424	-0.068
Mof_C 	C 	0.1465	0.1146	0.2507	-0.217
Mof_H 	H 	0.1756	0.1002	0.2601	0.1
Mof_H 	H 	0.156	0.1335	0.2191	0.1
Mof_N 	N 	0.8984	0.90973	0.0743	-0.25
Mof_H 	H 	0.9194	0.9147	0.0423	0.13
Mof_C 	C 	0.084	0.06353	0.2437	0.098
Mof_H 	H 	0.0896	0.0529	0.2864	-0.001
Mof_N 	N 	0.8476	0.83412	0.9799	-0.054
Mof_C 	C 	0.937	0.9558	0.138	-0.048
Mof_H 	H 	0.959	0.9576	0.1011	0.029
Mof_N 	N 	0.8231	0.81062	0.0177	-0.059
Mof_C 	C 	0.9108	0.9751	0.2445	0.017
Mof_H 	H 	0.9153	0.9893	0.2835	0.01
Mof_N 	N 	0.7946	0.79145	0.9757	-0.147
Mof_C 	C 	0.87	0.9533	0.2415	-0.024
Mof_H 	H 	0.8467	0.9535	0.277	0.044
Mof_N 	N 	0.8048	0.80361	0.9097	-0.108
Mof_C 	C 	0.8637	0.9309	0.1855	-0.112
Mof_H 	H 	0.8366	0.9156	0.1832	0.096
Mof_C 	C 	0.8848	0.8599	0.9992	-0.172
Mof_H 	H 	0.9157	0.8477	0.0094	0.088
Mof_H 	H 	0.8907	0.8759	0.9607	0.1
Mof_C 	C 	0.8363	0.82879	0.9127	0.094
Mof_H 	H 	0.8492	0.8413	0.8753	0.009
Mof_C 	C 	0.8684	0.88144	0.063	0.256
Mof_C 	C 	0.8985	0.93164	0.1326	0.124
Mof_C 	C 	0.3114	0.79916	0.9171	-0.068
Mof_H 	H 	0.283	0.7998	0.8898	0.046
Mof_N 	N 	0.3124	0.77791	0.9727	-0.171
Mof_O 	O 	0.6664	0.12715	0.5989	-0.236
Mof_C 	C 	0.3527	0.77782	0.0114	-0.055
Mof_H 	H 	0.3535	0.7631	0.05	0.04
Mof_N 	N 	0.5552	0.02302	0.6933	-0.203
Mof_O 	O 	0.4071	0.88188	0.8511	-0.237
Mof_C 	C 	0.3938	0.7987	0.9969	0.074
Mof_H 	H 	0.4215	0.798	0.0256	-0.001
Mof_N 	N 	0.4479	0.94699	0.697	-0.193
Mof_C 	C 	0.3932	0.8207	0.9394	-0.172
Mof_H 	H 	0.42	0.8352	0.9287	0.12
Mof_N 	N 	0.3454	0.84075	0.838	-0.254
Mof_H 	H 	0.3218	0.8344	0.8108	0.13
Mof_N 	N 	0.3925	0.90752	0.7189	-0.061
Mof_C 	C 	0.3517	0.82038	0.8991	0.154
Mof_C 	C 	0.373	0.86943	0.8179	0.272
Mof_N 	N 	0.4101	0.90051	0.6551	-0.053
Mof_N 	N 	0.4438	0.92391	0.6424	-0.061
Mof_C 	C 	0.3535	0.8854	0.7507	-0.216
Mof_H 	H 	0.3244	0.8998	0.7601	0.101
Mof_H 	H 	0.344	0.8665	0.7191	0.101
Mof_N 	N 	0.6016	0.09027	0.5743	-0.254
Mof_H 	H 	0.5806	0.0853	0.5423	0.131
Mof_C 	C 	0.416	0.93647	0.7437	0.101
Mof_H 	H 	0.4104	0.9471	0.7864	0.002
Mof_N 	N 	0.6524	0.16588	0.4799	-0.056
Mof_C 	C 	0.563	0.0442	0.638	-0.049
Mof_H 	H 	0.541	0.0424	0.6011	0.023
Mof_N 	N 	0.6769	0.18938	0.5177	-0.049
Mof_C 	C 	0.5892	0.0249	0.7445	0.017
Mof_H 	H 	0.5847	0.0107	0.7835	0.007
Mof_N 	N 	0.7054	0.20855	0.4757	-0.155
Mof_C 	C 	0.63	0.0467	0.7415	-0.025
Mof_H 	H 	0.6533	0.0465	0.777	0.045
Mof_N 	N 	0.6952	0.19639	0.4097	-0.109
Mof_C 	C 	0.6363	0.0691	0.6855	-0.113
Mof_H 	H 	0.6634	0.0844	0.6832	0.097
Mof_C 	C 	0.6152	0.1401	0.4992	-0.219
Mof_H 	H 	0.5843	0.1523	0.5094	0.106
Mof_H 	H 	0.6093	0.1241	0.4607	0.108
Mof_C 	C 	0.6637	0.17121	0.4127	0.089
Mof_H 	H 	0.6508	0.1587	0.3753	0.008
Mof_C 	C 	0.6316	0.11856	0.563	0.276
Mof_C 	C 	0.6015	0.06836	0.6326	0.123
Mof_C 	C 	0.8114	0.70084	0.0829	-0.037
Mof_H 	H 	0.783	0.7002	0.1102	0.035
Mof_N 	N 	0.8124	0.72209	0.0273	-0.218
Mof_O 	O 	0.1664	0.37285	0.4011	-0.237
Mof_C 	C 	0.8527	0.72218	0.9886	0.098
Mof_H 	H 	0.8535	0.7369	0.95	-0.005
Mof_N 	N 	0.0552	0.47698	0.3067	-0.207
Mof_O 	O 	0.9071	0.61812	0.1489	-0.233
Mof_C 	C 	0.8938	0.7013	0.0031	-0.116
Mof_H 	H 	0.9215	0.702	0.9744	0.09
Mof_N 	N 	0.9479	0.55301	0.303	-0.186
Mof_C 	C 	0.8932	0.6793	0.0606	-0.064
Mof_H 	H 	0.92	0.6648	0.0713	0.082
Mof_N 	N 	0.8454	0.65925	0.162	-0.244
Mof_H 	H 	0.8218	0.6656	0.1892	0.128
Mof_N 	N 	0.8925	0.59248	0.2811	-0.061
Mof_C 	C 	0.8517	0.67962	0.1009	0.103
Mof_C 	C 	0.873	0.63057	0.1821	0.269
Mof_N 	N 	0.9101	0.59949	0.3449	-0.051
Mof_N 	N 	0.9438	0.57609	0.3576	-0.055
Mof_C 	C 	0.8535	0.6146	0.2493	-0.214
Mof_H 	H 	0.8244	0.6002	0.2399	0.099
Mof_H 	H 	0.844	0.6335	0.2809	0.101
Mof_N 	N 	0.1016	0.40973	0.4257	-0.253
Mof_H 	H 	0.0806	0.4147	0.4577	0.127
Mof_C 	C 	0.916	0.56353	0.2563	0.103
Mof_H 	H 	0.9104	0.5529	0.2136	0.002
Mof_N 	N 	0.1524	0.33412	0.5201	-0.057
Mof_C 	C 	0.063	0.4558	0.362	-0.05
Mof_H 	H 	0.041	0.4576	0.3989	0.015
Mof_N 	N 	0.1769	0.31062	0.4823	-0.05
Mof_C 	C 	0.0892	0.4751	0.2555	0.015
Mof_H 	H 	0.0847	0.4893	0.2165	0.001
Mof_N 	N 	0.2054	0.29145	0.5243	-0.156
Mof_C 	C 	0.13	0.4533	0.2585	-0.028
Mof_H 	H 	0.1533	0.4535	0.223	0.042
Mof_N 	N 	0.1952	0.30361	0.5903	-0.11
Mof_C 	C 	0.1363	0.4309	0.3145	-0.113
Mof_H 	H 	0.1634	0.4156	0.3168	0.095
Mof_C 	C 	0.1152	0.3599	0.5008	-0.216
Mof_H 	H 	0.0843	0.3477	0.4906	0.1
Mof_H 	H 	0.1093	0.3759	0.5393	0.105
Mof_C 	C 	0.1637	0.32879	0.5873	0.088
Mof_H 	H 	0.1508	0.3413	0.6247	0.007
Mof_C 	C 	0.1316	0.38144	0.437	0.273
Mof_C 	C 	0.1015	0.43164	0.3674	0.119
Mof_C 	C 	0.6886	0.29916	0.5829	-0.053
Mof_H 	H 	0.717	0.2998	0.6102	0.041
Mof_N 	N 	0.6876	0.27791	0.5273	-0.195
Mof_O 	O 	0.3336	0.62715	0.9011	-0.24
Mof_C 	C 	0.6473	0.27782	0.4886	0.021
Mof_H 	H 	0.6465	0.2631	0.45	0.017
Mof_N 	N 	0.4448	0.52302	0.8067	-0.202
Mof_O 	O 	0.5929	0.38188	0.6489	-0.238
Mof_C 	C 	0.6062	0.2987	0.5031	-0.022
Mof_H 	H 	0.5785	0.298	0.4744	0.042
Mof_N 	N 	0.5521	0.44699	0.803	-0.193
Mof_C 	C 	0.6068	0.3207	0.5606	-0.118
Mof_H 	H 	0.58	0.3352	0.5713	0.099
Mof_N 	N 	0.6546	0.34075	0.662	-0.249
Mof_H 	H 	0.6782	0.3344	0.6892	0.129
Mof_N 	N 	0.6075	0.40752	0.7811	-0.061
Mof_C 	C 	0.6483	0.32038	0.6009	0.128
Mof_C 	C 	0.627	0.36943	0.6821	0.271
Mof_N 	N 	0.5899	0.40051	0.8449	-0.052
Mof_N 	N 	0.5562	0.42391	0.8576	-0.059
Mof_C 	C 	0.6465	0.3854	0.7493	-0.216
Mof_H 	H 	0.6756	0.3998	0.7399	0.101
Mof_H 	H 	0.656	0.3665	0.7809	0.102
Mof_N 	N 	0.3984	0.59027	0.9257	-0.259
Mof_H 	H 	0.4194	0.5853	0.9577	0.135
Mof_C 	C 	0.584	0.43647	0.7563	0.101
Mof_H 	H 	0.5896	0.4471	0.7136	0.001
Mof_N 	N 	0.3476	0.66588	0.0201	-0.056
Mof_C 	C 	0.437	0.5442	0.862	-0.051
Mof_H 	H 	0.459	0.5424	0.8989	0.025
Mof_N 	N 	0.3231	0.68938	0.9823	-0.038
Mof_C 	C 	0.4108	0.5249	0.7555	0.016
Mof_H 	H 	0.4153	0.5107	0.7165	0.006
Mof_N 	N 	0.2946	0.70855	0.0243	-0.162
Mof_C 	C 	0.37	0.5467	0.7585	-0.024
Mof_H 	H 	0.3467	0.5465	0.723	0.043
Mof_N 	N 	0.3048	0.69639	0.0903	-0.11
Mof_C 	C 	0.3637	0.5691	0.8145	-0.115
Mof_H 	H 	0.3366	0.5844	0.8168	0.097
Mof_C 	C 	0.3848	0.6401	0.0008	-0.27
Mof_H 	H 	0.4157	0.6523	0.9906	0.13
Mof_H 	H 	0.3907	0.6241	0.0393	0.119
Mof_C 	C 	0.3363	0.67121	0.0873	0.085
Mof_H 	H 	0.3492	0.6587	0.1247	0.009
Mof_C 	C 	0.3684	0.61856	0.937	0.299
Mof_C 	C 	0.3985	0.56836	0.8674	0.126
Mof_Cu	Cu	0.5	0.48616	0.80491	0.855
Mof_Cu	Cu	-4.32853e-33	0.51384	0.30491	0.842
Mof_Cu	Cu	0.5	0.98616	0.69509	0.854
Mof_Cu	Cu	-2.04974e-33	0.01384	0.19509	0.842
Mof_Cu	Cu	0.25	0.25	0.5	0.857
Mof_Cu	Cu	0.75	0.75	-0	0.851
Mof_Cu	Cu	0.25	0.75	-0	0.851
Mof_Cu	Cu	0.75	0.25	0.5	0.857
Mof_C 	C 	0.8114	0.79916	0.5829	-0.052
Mof_H 	H 	0.783	0.7998	0.6102	0.041
Mof_N 	N 	0.8124	0.77791	0.5273	-0.195
Mof_O 	O 	0.1664	0.12715	0.9011	-0.24
Mof_C 	C 	0.8527	0.77782	0.4886	0.022
Mof_H 	H 	0.8535	0.7631	0.45	0.018
Mof_N 	N 	0.0552	0.02302	0.8067	-0.206
Mof_O 	O 	0.9071	0.88188	0.6489	-0.232
Mof_C 	C 	0.8938	0.7987	0.5031	-0.02
Mof_H 	H 	0.9215	0.798	0.4744	0.047
Mof_N 	N 	0.9479	0.94699	0.803	-0.185
Mof_C 	C 	0.8932	0.8207	0.5606	-0.117
Mof_H 	H 	0.92	0.8352	0.5713	0.104
Mof_N 	N 	0.8454	0.84075	0.662	-0.249
Mof_H 	H 	0.8218	0.8344	0.6892	0.129
Mof_N 	N 	0.8925	0.90752	0.7811	-0.06
Mof_C 	C 	0.8517	0.82038	0.6009	0.13
Mof_C 	C 	0.873	0.86943	0.6821	0.271
Mof_N 	N 	0.9101	0.90051	0.8449	-0.05
Mof_N 	N 	0.9438	0.92391	0.8576	-0.053
Mof_C 	C 	0.8535	0.8854	0.7493	-0.215
Mof_H 	H 	0.8244	0.8998	0.7399	0.1
Mof_H 	H 	0.844	0.8665	0.7809	0.102
Mof_N 	N 	0.1016	0.09027	0.9257	-0.258
Mof_H 	H 	0.0806	0.0853	0.9577	0.132
Mof_C 	C 	0.916	0.93647	0.7563	0.103
Mof_H 	H 	0.9104	0.9471	0.7136	0.003
Mof_N 	N 	0.1524	0.16588	0.0201	-0.057
Mof_C 	C 	0.063	0.0442	0.862	-0.051
Mof_H 	H 	0.041	0.0424	0.8989	0.018
Mof_N 	N 	0.1769	0.18938	0.9823	-0.039
Mof_C 	C 	0.0892	0.0249	0.7555	0.015
Mof_H 	H 	0.0847	0.0107	0.7165	0.003
Mof_N 	N 	0.2054	0.20855	0.0243	-0.162
Mof_C 	C 	0.13	0.0467	0.7585	-0.026
Mof_H 	H 	0.1533	0.0465	0.723	0.043
Mof_N 	N 	0.1952	0.19639	0.0903	-0.11
Mof_C 	C 	0.1363	0.0691	0.8145	-0.114
Mof_H 	H 	0.1634	0.0844	0.8168	0.097
Mof_C 	C 	0.1152	0.1401	0.0008	-0.266
Mof_H 	H 	0.0843	0.1523	0.9906	0.125
Mof_H 	H 	0.1093	0.1241	0.0393	0.116
Mof_C 	C 	0.1637	0.17121	0.0873	0.084
Mof_H 	H 	0.1508	0.1587	0.1247	0.008
Mof_C 	C 	0.1316	0.11856	0.937	0.296
Mof_C 	C 	0.1015	0.06836	0.8674	0.123
Mof_C 	C 	0.6886	0.20084	0.0829	-0.038
Mof_H 	H 	0.717	0.2002	0.1102	0.035
Mof_N 	N 	0.6876	0.22209	0.0273	-0.218
Mof_O 	O 	0.3336	0.87285	0.4011	-0.237
Mof_C 	C 	0.6473	0.22218	0.9886	0.097
Mof_H 	H 	0.6465	0.2369	0.95	-0.006
Mof_N 	N 	0.4448	0.97698	0.3067	-0.203
Mof_O 	O 	0.5929	0.11812	0.1489	-0.238
Mof_C 	C 	0.6062	0.2013	0.0031	-0.118
Mof_H 	H 	0.5785	0.202	0.9744	0.086
Mof_N 	N 	0.5521	0.05301	0.303	-0.193
Mof_C 	C 	0.6068	0.1793	0.0606	-0.064
Mof_H 	H 	0.58	0.1648	0.0713	0.077
Mof_N 	N 	0.6546	0.15925	0.162	-0.244
Mof_H 	H 	0.6782	0.1656	0.1892	0.127
Mof_N 	N 	0.6075	0.09248	0.2811	-0.061
Mof_C 	C 	0.6483	0.17962	0.1009	0.101
Mof_C 	C 	0.627	0.13057	0.1821	0.269
Mof_N 	N 	0.5899	0.09949	0.3449	-0.053
Mof_N 	N 	0.5562	0.07609	0.3576	-0.061
Mof_C 	C 	0.6465	0.1146	0.2493	-0.215
Mof_H 	H 	0.6756	0.1002	0.2399	0.099
Mof_H 	H 	0.656	0.1335	0.2809	0.101
Mof_N 	N 	0.3984	0.90973	0.4257	-0.254
Mof_H 	H 	0.4194	0.9147	0.4577	0.13
Mof_C 	C 	0.584	0.06353	0.2563	0.101
Mof_H 	H 	0.5896	0.0529	0.2136	-0
Mof_N 	N 	0.3476	0.83412	0.5201	-0.056
Mof_C 	C 	0.437	0.9558	0.362	-0.05
Mof_H 	H 	0.459	0.9576	0.3989	0.022
Mof_N 	N 	0.3231	0.81062	0.4823	-0.05
Mof_C 	C 	0.4108	0.9751	0.2555	0.016
Mof_H 	H 	0.4153	0.9893	0.2165	0.005
Mof_N 	N 	0.2946	0.79145	0.5243	-0.156
Mof_C 	C 	0.37	0.9533	0.2585	-0.025
Mof_H 	H 	0.3467	0.9535	0.223	0.042
Mof_N 	N 	0.3048	0.80361	0.5903	-0.109
Mof_C 	C 	0.3637	0.9309	0.3145	-0.113
Mof_H 	H 	0.3366	0.9156	0.3168	0.096
Mof_C 	C 	0.3848	0.8599	0.5008	-0.219
Mof_H 	H 	0.4157	0.8477	0.4906	0.106
Mof_H 	H 	0.3907	0.8759	0.5393	0.108
Mof_C 	C 	0.3363	0.82879	0.5873	0.089
Mof_H 	H 	0.3492	0.8413	0.6247	0.008
Mof_C 	C 	0.3684	0.88144	0.437	0.276
Mof_C 	C 	0.3985	0.93164	0.3674	0.123
Mof_C 	C 	0.1886	0.29916	0.9171	-0.069
Mof_H 	H 	0.217	0.2998	0.8898	0.046
Mof_N 	N 	0.1876	0.27791	0.9727	-0.171
Mof_O 	O 	0.8336	0.62715	0.5989	-0.236
Mof_C 	C 	0.1473	0.27782	0.0114	-0.057
Mof_H 	H 	0.1465	0.2631	0.05	0.039
Mof_N 	N 	0.9448	0.52302	0.6933	-0.195
Mof_O 	O 	0.0929	0.38188	0.8511	-0.242
Mof_C 	C 	0.1062	0.2987	0.9969	0.073
Mof_H 	H 	0.0785	0.298	0.0256	-0.006
Mof_N 	N 	0.0521	0.44699	0.697	-0.197
Mof_C 	C 	0.1068	0.3207	0.9394	-0.173
Mof_H 	H 	0.08	0.3352	0.9287	0.116
Mof_N 	N 	0.1546	0.34075	0.838	-0.254
Mof_H 	H 	0.1782	0.3344	0.8108	0.129
Mof_N 	N 	0.1075	0.40752	0.7189	-0.061
Mof_C 	C 	0.1483	0.32038	0.8991	0.153
Mof_C 	C 	0.127	0.36943	0.8179	0.272
Mof_N 	N 	0.0899	0.40051	0.6551	-0.055
Mof_N 	N 	0.0562	0.42391	0.6424	-0.066
Mof_C 	C 	0.1465	0.3854	0.7507	-0.218
Mof_H 	H 	0.1756	0.3998	0.7601	0.101
Mof_H 	H 	0.156	0.3665	0.7191	0.101
Mof_N 	N 	0.8984	0.59027	0.5743	-0.255
Mof_H 	H 	0.9194	0.5853	0.5423	0.135
Mof_C 	C 	0.084	0.43647	0.7437	0.099
Mof_H 	H 	0.0896	0.4471	0.7864	-0
Mof_N 	N 	0.8476	0.66588	0.4799	-0.054
Mof_C 	C 	0.937	0.5442	0.638	-0.049
Mof_H 	H 	0.959	0.5424	0.6011	0.031
Mof_N 	N 	0.8231	0.68938	0.5177	-0.048
Mof_C 	C 	0.9108	0.5249	0.7445	0.017
Mof_H 	H 	0.9153	0.5107	0.7835	0.011
Mof_N 	N 	0.7946	0.70855	0.4757	-0.155
Mof_C 	C 	0.87	0.5467	0.7415	-0.022
Mof_H 	H 	0.8467	0.5465	0.777	0.045
Mof_N 	N 	0.8048	0.69639	0.4097	-0.109
Mof_C 	C 	0.8637	0.5691	0.6855	-0.114
Mof_H 	H 	0.8366	0.5844	0.6832	0.098
Mof_C 	C 	0.8848	0.6401	0.4992	-0.222
Mof_H 	H 	0.9157	0.6523	0.5094	0.112
Mof_H 	H 	0.8907	0.6241	0.4607	0.111
Mof_C 	C 	0.8363	0.67121	0.4127	0.09
Mof_H 	H 	0.8492	0.6587	0.3753	0.009
Mof_C 	C 	0.8684	0.61856	0.563	0.279
Mof_C 	C 	0.8985	0.56836	0.6326	0.127
Mof_C 	C 	0.3114	0.70084	0.4171	-0.053
Mof_H 	H 	0.283	0.7002	0.3898	0.04
Mof_N 	N 	0.3124	0.72209	0.4727	-0.195
Mof_O 	O 	0.6664	0.37285	0.0989	-0.233
Mof_C 	C 	0.3527	0.72218	0.5114	0.021
Mof_H 	H 	0.3535	0.7369	0.55	0.017
Mof_N 	N 	0.5552	0.47698	0.1933	-0.204
Mof_O 	O 	0.4071	0.61812	0.3511	-0.238
Mof_C 	C 	0.3938	0.7013	0.4969	-0.022
Mof_H 	H 	0.4215	0.702	0.5256	0.042
Mof_N 	N 	0.4479	0.55301	0.197	-0.193
Mof_C 	C 	0.3932	0.6793	0.4394	-0.118
Mof_H 	H 	0.42	0.6648	0.4287	0.099
Mof_N 	N 	0.3454	0.65925	0.338	-0.249
Mof_H 	H 	0.3218	0.6656	0.3108	0.128
Mof_N 	N 	0.3925	0.59248	0.2189	-0.061
Mof_C 	C 	0.3517	0.67962	0.3991	0.127
Mof_C 	C 	0.373	0.63057	0.3179	0.27
Mof_N 	N 	0.4101	0.59949	0.1551	-0.055
Mof_N 	N 	0.4438	0.57609	0.1424	-0.063
Mof_C 	C 	0.3535	0.6146	0.2507	-0.216
Mof_H 	H 	0.3244	0.6002	0.2601	0.099
Mof_H 	H 	0.344	0.6335	0.2191	0.1
Mof_N 	N 	0.6016	0.40973	0.0743	-0.249
Mof_H 	H 	0.5806	0.4147	0.0423	0.126
Mof_C 	C 	0.416	0.56353	0.2437	0.1
Mof_H 	H 	0.4104	0.5529	0.2864	0.001
Mof_N 	N 	0.6524	0.33412	0.9799	-0.055
Mof_C 	C 	0.563	0.4558	0.138	-0.049
Mof_H 	H 	0.541	0.4576	0.1011	0.02
Mof_N 	N 	0.6769	0.31062	0.0177	-0.06
Mof_C 	C 	0.5892	0.4751	0.2445	0.017
Mof_H 	H 	0.5847	0.4893	0.2835	0.005
Mof_N 	N 	0.7054	0.29145	0.9757	-0.147
Mof_C 	C 	0.63	0.4533	0.2415	-0.027
Mof_H 	H 	0.6533	0.4535	0.277	0.044
Mof_N 	N 	0.6952	0.30361	0.9097	-0.108
Mof_C 	C 	0.6363	0.4309	0.1855	-0.111
Mof_H 	H 	0.6634	0.4156	0.1832	0.095
Mof_C 	C 	0.6152	0.3599	0.9992	-0.168
Mof_H 	H 	0.5843	0.3477	0.0094	0.081
Mof_H 	H 	0.6093	0.3759	0.9607	0.097
Mof_C 	C 	0.6637	0.32879	0.9127	0.093
Mof_H 	H 	0.6508	0.3413	0.8753	0.008
Mof_C 	C 	0.6316	0.38144	0.063	0.253
Mof_C 	C 	0.6015	0.43164	0.1326	0.12
Mof_C 	C 	0.6886	0.70084	0.4171	-0.053
Mof_H 	H 	0.717	0.7002	0.3898	0.04
Mof_N 	N 	0.6876	0.72209	0.4727	-0.195
Mof_O 	O 	0.3336	0.37285	0.0989	-0.234
Mof_C 	C 	0.6473	0.72218	0.5114	0.021
Mof_H 	H 	0.6465	0.7369	0.55	0.017
Mof_N 	N 	0.4448	0.47698	0.1933	-0.204
Mof_O 	O 	0.5929	0.61812	0.3511	-0.238
Mof_C 	C 	0.6062	0.7013	0.4969	-0.022
Mof_H 	H 	0.5785	0.702	0.5256	0.042
Mof_N 	N 	0.5521	0.55301	0.197	-0.193
Mof_C 	C 	0.6068	0.6793	0.4394	-0.118
Mof_H 	H 	0.58	0.6648	0.4287	0.099
Mof_N 	N 	0.6546	0.65925	0.338	-0.249
Mof_H 	H 	0.6782	0.6656	0.3108	0.128
Mof_N 	N 	0.6075	0.59248	0.2189	-0.061
Mof_C 	C 	0.6483	0.67962	0.3991	0.128
Mof_C 	C 	0.627	0.63057	0.3179	0.27
Mof_N 	N 	0.5899	0.59949	0.1551	-0.055
Mof_N 	N 	0.5562	0.57609	0.1424	-0.063
Mof_C 	C 	0.6465	0.6146	0.2507	-0.216
Mof_H 	H 	0.6756	0.6002	0.2601	0.1
Mof_H 	H 	0.656	0.6335	0.2191	0.1
Mof_N 	N 	0.3984	0.40973	0.0743	-0.249
Mof_H 	H 	0.4194	0.4147	0.0423	0.126
Mof_C 	C 	0.584	0.56353	0.2437	0.101
Mof_H 	H 	0.5896	0.5529	0.2864	0.001
Mof_N 	N 	0.3476	0.33412	0.9799	-0.055
Mof_C 	C 	0.437	0.4558	0.138	-0.049
Mof_H 	H 	0.459	0.4576	0.1011	0.02
Mof_N 	N 	0.3231	0.31062	0.0177	-0.061
Mof_C 	C 	0.4108	0.4751	0.2445	0.017
Mof_H 	H 	0.4153	0.4893	0.2835	0.005
Mof_N 	N 	0.2946	0.29145	0.9757	-0.147
Mof_C 	C 	0.37	0.4533	0.2415	-0.027
Mof_H 	H 	0.3467	0.4535	0.277	0.044
Mof_N 	N 	0.3048	0.30361	0.9097	-0.109
Mof_C 	C 	0.3637	0.4309	0.1855	-0.111
Mof_H 	H 	0.3366	0.4156	0.1832	0.095
Mof_C 	C 	0.3848	0.3599	0.9992	-0.168
Mof_H 	H 	0.4157	0.3477	0.0094	0.081
Mof_H 	H 	0.3907	0.3759	0.9607	0.097
Mof_C 	C 	0.3363	0.32879	0.9127	0.093
Mof_H 	H 	0.3492	0.3413	0.8753	0.008
Mof_C 	C 	0.3684	0.38144	0.063	0.253
Mof_C 	C 	0.3985	0.43164	0.1326	0.12
Mof_C 	C 	0.8114	0.29916	0.9171	-0.068
Mof_H 	H 	0.783	0.2998	0.8898	0.047
Mof_N 	N 	0.8124	0.27791	0.9727	-0.17
Mof_O 	O 	0.1664	0.62715	0.5989	-0.236
Mof_C 	C 	0.8527	0.27782	0.0114	-0.054
Mof_H 	H 	0.8535	0.2631	0.05	0.042
Mof_N 	N 	0.0552	0.52302	0.6933	-0.207
Mof_O 	O 	0.9071	0.38188	0.8511	-0.231
Mof_C 	C 	0.8938	0.2987	0.9969	0.076
Mof_H 	H 	0.9215	0.298	0.0256	0.004
Mof_N 	N 	0.9479	0.44699	0.697	-0.186
Mof_C 	C 	0.8932	0.3207	0.9394	-0.171
Mof_H 	H 	0.92	0.3352	0.9287	0.125
Mof_N 	N 	0.8454	0.34075	0.838	-0.254
Mof_H 	H 	0.8218	0.3344	0.8108	0.13
Mof_N 	N 	0.8925	0.40752	0.7189	-0.06
Mof_C 	C 	0.8517	0.32038	0.8991	0.156
Mof_C 	C 	0.873	0.36943	0.8179	0.273
Mof_N 	N 	0.9101	0.40051	0.6551	-0.051
Mof_N 	N 	0.9438	0.42391	0.6424	-0.055
Mof_C 	C 	0.8535	0.3854	0.7507	-0.215
Mof_H 	H 	0.8244	0.3998	0.7601	0.101
Mof_H 	H 	0.844	0.3665	0.7191	0.102
Mof_N 	N 	0.1016	0.59027	0.5743	-0.253
Mof_H 	H 	0.0806	0.5853	0.5423	0.127
Mof_C 	C 	0.916	0.43647	0.7437	0.103
Mof_H 	H 	0.9104	0.4471	0.7864	0.004
Mof_N 	N 	0.1524	0.66588	0.4799	-0.057
Mof_C 	C 	0.063	0.5442	0.638	-0.05
Mof_H 	H 	0.041	0.5424	0.6011	0.015
Mof_N 	N 	0.1769	0.68938	0.5177	-0.05
Mof_C 	C 	0.0892	0.5249	0.7445	0.016
Mof_H 	H 	0.0847	0.5107	0.7835	0.004
Mof_N 	N 	0.2054	0.70855	0.4757	-0.156
Mof_C 	C 	0.13	0.5467	0.7415	-0.027
Mof_H 	H 	0.1533	0.5465	0.777	0.044
Mof_N 	N 	0.1952	0.69639	0.4097	-0.11
Mof_C 	C 	0.1363	0.5691	0.6855	-0.112
Mof_H 	H 	0.1634	0.5844	0.6832	0.096
Mof_C 	C 	0.1152	0.6401	0.4992	-0.215
Mof_H 	H 	0.0843	0.6523	0.5094	0.1
Mof_H 	H 	0.1093	0.6241	0.4607	0.105
Mof_C 	C 	0.1637	0.67121	0.4127	0.088
Mof_H 	H 	0.1508	0.6587	0.3753	0.007
Mof_C 	C 	0.1316	0.61856	0.563	0.273
Mof_C 	C 	0.1015	0.56836	0.6326	0.12
Mof_C 	C 	0.3114	0.20084	0.0829	-0.038
Mof_H 	H 	0.283	0.2002	0.1102	0.034
Mof_N 	N 	0.3124	0.22209	0.0273	-0.218
Mof_O 	O 	0.6664	0.87285	0.4011	-0.236
Mof_C 	C 	0.3527	0.22218	0.9886	0.097
Mof_H 	H 	0.3535	0.2369	0.95	-0.007
Mof_N 	N 	0.5552	0.97698	0.3067	-0.203
Mof_O 	O 	0.4071	0.11812	0.1489	-0.238
Mof_C 	C 	0.3938	0.2013	0.0031	-0.118
Mof_H 	H 	0.4215	0.202	0.9744	0.086
Mof_N 	N 	0.4479	0.05301	0.303	-0.193
Mof_C 	C 	0.3932	0.1793	0.0606	-0.064
Mof_H 	H 	0.42	0.1648	0.0713	0.077
Mof_N 	N 	0.3454	0.15925	0.162	-0.244
Mof_H 	H 	0.3218	0.1656	0.1892	0.127
Mof_N 	N 	0.3925	0.09248	0.2811	-0.061
Mof_C 	C 	0.3517	0.17962	0.1009	0.101
Mof_C 	C 	0.373	0.13057	0.1821	0.268
Mof_N 	N 	0.4101	0.09949	0.3449	-0.053
Mof_N 	N 	0.4438	0.07609	0.3576	-0.061
Mof_C 	C 	0.3535	0.1146	0.2493	-0.215
Mof_H 	H 	0.3244	0.1002	0.2399	0.099
Mof_H 	H 	0.344	0.1335	0.2809	0.101
Mof_N 	N 	0.6016	0.90973	0.4257	-0.254
Mof_H 	H 	0.5806	0.9147	0.4577	0.13
Mof_C 	C 	0.416	0.06353	0.2563	0.101
Mof_H 	H 	0.4104	0.0529	0.2136	-0
Mof_N 	N 	0.6524	0.83412	0.5201	-0.056
Mof_C 	C 	0.563	0.9558	0.362	-0.05
Mof_H 	H 	0.541	0.9576	0.3989	0.023
Mof_N 	N 	0.6769	0.81062	0.4823	-0.049
Mof_C 	C 	0.5892	0.9751	0.2555	0.016
Mof_H 	H 	0.5847	0.9893	0.2165	0.005
Mof_N 	N 	0.7054	0.79145	0.5243	-0.155
Mof_C 	C 	0.63	0.9533	0.2585	-0.025
Mof_H 	H 	0.6533	0.9535	0.223	0.042
Mof_N 	N 	0.6952	0.80361	0.5903	-0.109
Mof_C 	C 	0.6363	0.9309	0.3145	-0.113
Mof_H 	H 	0.6634	0.9156	0.3168	0.096
Mof_C 	C 	0.6152	0.8599	0.5008	-0.219
Mof_H 	H 	0.5843	0.8477	0.4906	0.106
Mof_H 	H 	0.6093	0.8759	0.5393	0.108
Mof_C 	C 	0.6637	0.82879	0.5873	0.089
Mof_H 	H 	0.6508	0.8413	0.6247	0.008
Mof_C 	C 	0.6316	0.88144	0.437	0.276
Mof_C 	C 	0.6015	0.93164	0.3674	0.123
Mof_C 	C 	0.1886	0.79916	0.5829	-0.053
Mof_H 	H 	0.217	0.7998	0.6102	0.04
Mof_N 	N 	0.1876	0.77791	0.5273	-0.195
Mof_O 	O 	0.8336	0.12715	0.9011	-0.239
Mof_C 	C 	0.1473	0.77782	0.4886	0.019
Mof_H 	H 	0.1465	0.7631	0.45	0.015
Mof_N 	N 	0.9448	0.02302	0.8067	-0.195
Mof_O 	O 	0.0929	0.88188	0.6489	-0.243
Mof_C 	C 	0.1062	0.7987	0.5031	-0.023
Mof_H 	H 	0.0785	0.798	0.4744	0.037
Mof_N 	N 	0.0521	0.94699	0.803	-0.196
Mof_C 	C 	0.1068	0.8207	0.5606	-0.119
Mof_H 	H 	0.08	0.8352	0.5713	0.095
Mof_N 	N 	0.1546	0.84075	0.662	-0.25
Mof_H 	H 	0.1782	0.8344	0.6892	0.128
Mof_N 	N 	0.1075	0.90752	0.7811	-0.061
Mof_C 	C 	0.1483	0.82038	0.6009	0.126
Mof_C 	C 	0.127	0.86943	0.6821	0.27
Mof_N 	N 	0.0899	0.90051	0.8449	-0.053
Mof_N 	N 	0.0562	0.92391	0.8576	-0.064
Mof_C 	C 	0.1465	0.8854	0.7493	-0.217
Mof_H 	H 	0.1756	0.8998	0.7399	0.101
Mof_H 	H 	0.156	0.8665	0.7809	0.101
Mof_N 	N 	0.8984	0.09027	0.9257	-0.26
Mof_H 	H 	0.9194	0.0853	0.9577	0.139
Mof_C 	C 	0.084	0.93647	0.7563	0.099
Mof_H 	H 	0.0896	0.9471	0.7136	-0.001
Mof_N 	N 	0.8476	0.16588	0.0201	-0.055
Mof_C 	C 	0.937	0.0442	0.862	-0.05
Mof_H 	H 	0.959	0.0424	0.8989	0.033
Mof_N 	N 	0.8231	0.18938	0.9823	-0.037
Mof_C 	C 	0.9108	0.0249	0.7555	0.016
Mof_H 	H 	0.9153	0.0107	0.7165	0.01
Mof_N 	N 	0.7946	0.20855	0.0243	-0.162
Mof_C 	C 	0.87	0.0467	0.7585	-0.021
Mof_H 	H 	0.8467	0.0465	0.723	0.044
Mof_N 	N 	0.8048	0.19639	0.0903	-0.109
Mof_C 	C 	0.8637	0.0691	0.8145	-0.115
Mof_H 	H 	0.8366	0.0844	0.8168	0.099
Mof_C 	C 	0.8848	0.1401	0.0008	-0.273
Mof_H 	H 	0.9157	0.1523	0.9906	0.136
Mof_H 	H 	0.8907	0.1241	0.0393	0.121
Mof_C 	C 	0.8363	0.17121	0.0873	0.086
Mof_H 	H 	0.8492	0.1587	0.1247	0.01
Mof_C 	C 	0.8684	0.11856	0.937	0.302
Mof_C 	C 	0.8985	0.06836	0.8674	0.13
Mof_Cu	Cu	-8.13301e-33	0.98616	0.80491	0.843
Mof_Cu	Cu	0.5	0.01384	0.30491	0.854
Mof_Cu	Cu	-8.428e-33	0.48616	0.69509	0.843
Mof_Cu	Cu	0.5	0.51384	0.19509	0.854
Mof_Cu	Cu	0.75	0.25	-0	0.851
Mof_Cu	Cu	0.25	0.75	0.5	0.857
Mof_Cu	Cu	0.75	0.75	0.5	0.857
Mof_Cu	Cu	0.25	0.25	-0	0.851
_end
