data_functionalizedCrystal
_audit_creation_method	'EQeq! by Chris Wilmer'
_symmetry_space_group_name_H-M	'P1'
_symmetry_Int_Tables_number	1
_symmetry_cell_setting	triclinic
loop_
_symmetry_equiv_pos_as_xyz
  x,y,z
_cell_length_a	13.559
_cell_length_b	13.559
_cell_length_c	15.6782
_cell_angle_alpha	90
_cell_angle_beta	90
_cell_angle_gamma	90
loop_
_atom_site_label
_atom_site_type_symbol
_atom_site_fract_x
_atom_site_fract_y
_atom_site_fract_z
_atom_site_charge
Mof_S 	S 	0.27708	0.78504	0.10828	0.074
Mof_O 	O 	0.3791	0.9527	0.016	-0.47
Mof_O 	O 	0.4733	0.9979	0.1219	-0.506
Mof_O 	O 	0.148	0.6156	0.1575	-0.467
Mof_O 	O 	0.1943	0.606	0.2908	-0.523
Mof_C 	C 	0.3848	0.8491	0.2286	-0.004
Mof_H 	H 	0.4285	0.8875	0.2601	0.061
Mof_C 	C 	0.2701	0.7276	0.2038	-0.074
Mof_C 	C 	0.3635	0.866	0.1459	-0.083
Mof_C 	C 	0.334	0.7669	0.2626	-0.022
Mof_H 	H 	0.3426	0.7427	0.3176	0.067
Mof_C 	C 	0.4069	0.9429	0.0912	0.33
Mof_C 	C 	0.2004	0.645	0.2177	0.327
Mof_S 	S 	0.72292	0.21496	0.60828	0.097
Mof_O 	O 	0.6209	0.0473	0.516	-0.454
Mof_O 	O 	0.5267	0.0021	0.6219	-0.503
Mof_O 	O 	0.852	0.3844	0.6575	-0.458
Mof_O 	O 	0.8057	0.394	0.7908	-0.516
Mof_C 	C 	0.6152	0.1509	0.7286	-0.004
Mof_H 	H 	0.5715	0.1125	0.7601	0.069
Mof_C 	C 	0.7299	0.2724	0.7038	-0.072
Mof_C 	C 	0.6365	0.134	0.6459	-0.077
Mof_C 	C 	0.666	0.2331	0.7626	-0.017
Mof_H 	H 	0.6574	0.2573	0.8176	0.072
Mof_C 	C 	0.5931	0.0571	0.5912	0.331
Mof_C 	C 	0.7996	0.355	0.7177	0.329
Mof_S 	S 	0.21496	0.27708	0.85828	0.107
Mof_O 	O 	0.0473	0.3791	0.766	-0.466
Mof_O 	O 	0.0021	0.4733	0.8719	-0.514
Mof_O 	O 	0.3844	0.148	0.9075	-0.433
Mof_O 	O 	0.394	0.1943	0.0408	-0.545
Mof_C 	C 	0.1509	0.3848	0.9786	0.321
Mof_H 	H 	0.1125	0.4285	0.0101	-0.088
Mof_C 	C 	0.2724	0.2701	0.9538	0.053
Mof_C 	C 	0.134	0.3635	0.8959	-0.186
Mof_C 	C 	0.2331	0.334	0.0126	-0.313
Mof_H 	H 	0.2573	0.3426	0.0676	0.16
Mof_C 	C 	0.0571	0.4069	0.8412	0.381
Mof_C 	C 	0.355	0.2004	0.9677	0.351
Mof_S 	S 	0.78504	0.72292	0.35828	0.089
Mof_O 	O 	0.9527	0.6209	0.266	-0.462
Mof_O 	O 	0.9979	0.5267	0.3719	-0.512
Mof_O 	O 	0.6156	0.852	0.4075	-0.461
Mof_O 	O 	0.606	0.8057	0.5408	-0.521
Mof_C 	C 	0.8491	0.6152	0.4786	-0.004
Mof_H 	H 	0.8875	0.5715	0.5101	0.063
Mof_C 	C 	0.7276	0.7299	0.4538	-0.075
Mof_C 	C 	0.866	0.6365	0.3959	-0.08
Mof_C 	C 	0.7669	0.666	0.5126	-0.019
Mof_H 	H 	0.7427	0.6574	0.5676	0.067
Mof_C 	C 	0.9429	0.5931	0.3412	0.332
Mof_C 	C 	0.645	0.7996	0.4677	0.328
Mof_S 	S 	0.72292	0.78504	0.89172	0.115
Mof_O 	O 	0.6209	0.9527	0.984	-0.422
Mof_O 	O 	0.5267	0.9979	0.8781	-0.487
Mof_O 	O 	0.852	0.6156	0.8425	-0.453
Mof_O 	O 	0.8057	0.606	0.7092	-0.522
Mof_C 	C 	0.6152	0.8491	0.7714	-0.004
Mof_H 	H 	0.5715	0.8875	0.7399	0.063
Mof_C 	C 	0.7299	0.7276	0.7962	-0.077
Mof_C 	C 	0.6365	0.866	0.8541	-0.078
Mof_C 	C 	0.666	0.7669	0.7374	-0.016
Mof_H 	H 	0.6574	0.7427	0.6824	0.066
Mof_C 	C 	0.5931	0.9429	0.9088	0.33
Mof_C 	C 	0.7996	0.645	0.7823	0.331
Mof_S 	S 	0.27708	0.21496	0.39172	0.098
Mof_O 	O 	0.3791	0.0473	0.484	-0.453
Mof_O 	O 	0.4733	0.0021	0.3781	-0.506
Mof_O 	O 	0.148	0.3844	0.3425	-0.46
Mof_O 	O 	0.1943	0.394	0.2092	-0.529
Mof_C 	C 	0.3848	0.1509	0.2714	-0.008
Mof_H 	H 	0.4285	0.1125	0.2399	0.066
Mof_C 	C 	0.2701	0.2724	0.2962	-0.079
Mof_C 	C 	0.3635	0.134	0.3541	-0.078
Mof_C 	C 	0.334	0.2331	0.2374	-0.015
Mof_H 	H 	0.3426	0.2573	0.1824	0.061
Mof_C 	C 	0.4069	0.0571	0.4088	0.33
Mof_C 	C 	0.2004	0.355	0.2823	0.33
Mof_S 	S 	0.78504	0.27708	0.14172	0.09
Mof_O 	O 	0.9527	0.3791	0.234	-0.45
Mof_O 	O 	0.9979	0.4733	0.1281	-0.505
Mof_O 	O 	0.6156	0.148	0.0925	-0.445
Mof_O 	O 	0.606	0.1943	0.9592	-0.459
Mof_C 	C 	0.8491	0.3848	0.0214	-0.283
Mof_H 	H 	0.8875	0.4285	0.9899	0.194
Mof_C 	C 	0.7276	0.2701	0.0462	-0.185
Mof_C 	C 	0.866	0.3635	0.1041	0.013
Mof_C 	C 	0.7669	0.334	0.9874	0.238
Mof_H 	H 	0.7427	0.3426	0.9324	-0.014
Mof_C 	C 	0.9429	0.4069	0.1588	0.289
Mof_C 	C 	0.645	0.2004	0.0323	0.301
Mof_S 	S 	0.21496	0.72292	0.64172	0.103
Mof_O 	O 	0.0473	0.6209	0.734	-0.452
Mof_O 	O 	0.0021	0.5267	0.6281	-0.509
Mof_O 	O 	0.3844	0.852	0.5925	-0.458
Mof_O 	O 	0.394	0.8057	0.4592	-0.522
Mof_C 	C 	0.1509	0.6152	0.5214	-0.005
Mof_H 	H 	0.1125	0.5715	0.4899	0.064
Mof_C 	C 	0.2724	0.7299	0.5462	-0.077
Mof_C 	C 	0.134	0.6365	0.6041	-0.079
Mof_C 	C 	0.2331	0.666	0.4874	-0.017
Mof_H 	H 	0.2573	0.6574	0.4324	0.066
Mof_C 	C 	0.0571	0.5931	0.6588	0.331
Mof_C 	C 	0.355	0.7996	0.5323	0.33
Mof_In	In	0.5	0.07701	-0	2.339
Mof_In	In	0.5	0.92299	0.5	2.463
Mof_In	In	0.92299	0.5	0.75	2.477
Mof_In	In	0.07701	0.5	0.25	2.479
_end
