# CIF file generated by openbabel 3.1.0, see https://openbabel.org
data_I
_chemical_name_common 'image0'
_cell_length_a 9.399
_cell_length_b 9.848
_cell_length_c 21.834
_cell_angle_alpha 90
_cell_angle_beta 102.09
_cell_angle_gamma 90
_space_group_name_H-M_alt 'P 1'
_space_group_name_Hall 'P 1'
loop_
    _symmetry_equiv_pos_as_xyz
    x,y,z
loop_
    _atom_site_label
    _atom_site_type_symbol
    _atom_site_fract_x
    _atom_site_fract_y
    _atom_site_fract_z
    _atom_site_occupancy
    Cu1      Cu       0.21073    0.13988    0.33778    1.000
    N1       N        0.36280    0.26860    0.37740    1.000
    N2       N        0.10170    0.01810    0.39110    1.000
    N3       N        0.11830    0.40890    0.74930    1.000
    N4       N        0.78240    0.48330    0.53500    1.000
    C1       C        0.43220    0.24320    0.43740    1.000
    H1       H        0.40370    0.16800    0.45760    1.000
    C2       C        0.54370    0.32410    0.46980    1.000
    H2       H        0.58550    0.30420    0.51130    1.000
    C3       C        0.59370    0.43560    0.44050    1.000
    C4       C        0.52180    0.46060    0.37850    1.000
    H3       H        0.54900    0.53400    0.35680    1.000
    C5       C        0.40940    0.37530    0.34960    1.000
    H4       H        0.36410    0.39390    0.30830    1.000
    C6       C        0.71970    0.52090    0.47470    1.000
    C7       C        0.89970    0.55770    0.56680    1.000
    C8       C        0.95400    0.66640    0.54060    1.000
    H5       H        0.03270    0.71400    0.56370    1.000
    C9       C        0.89290    0.70650    0.48000    1.000
    C10      C        0.77120    0.63430    0.44700    1.000
    H6       H        0.72520    0.66170    0.40700    1.000
    C11      C        0.95910    0.81930    0.45080    1.000
    C12      C        0.10580    0.85230    0.47190    1.000
    H7       H        0.16050    0.80830    0.50660    1.000
    C13      C        0.17060    0.95110    0.44080    1.000
    H8       H        0.26840    0.97090    0.45610    1.000
    C14      C        0.96060    0.99190    0.37160    1.000
    H9       H        0.90860    0.04160    0.33800    1.000
    C15      C        0.88660    0.89360    0.39880    1.000
    H10      H        0.78860    0.87720    0.38230    1.000
    C16      C        0.97340    0.50820    0.63080    1.000
    C17      C        0.91660    0.40230    0.66040    1.000
    H11      H        0.82910    0.36200    0.64130    1.000
    C18      C        0.99090    0.35670    0.71870    1.000
    H12      H        0.95020    0.28610    0.73750    1.000
    C19      C        0.17230    0.51410    0.72100    1.000
    H13      H        0.25970    0.55320    0.74120    1.000
    C20      C        0.10330    0.56560    0.66370    1.000
    H14      H        0.14350    0.63930    0.64680    1.000
    Cu2      Cu       0.21073    0.36012    0.83778    1.000
    N5       N        0.36280    0.23140    0.87740    1.000
    N6       N        0.10170    0.48190    0.89110    1.000
    N7       N        0.11830    0.09110    0.24930    1.000
    N8       N        0.78240    0.01670    0.03500    1.000
    C21      C        0.43220    0.25680    0.93740    1.000
    H15      H        0.40370    0.33200    0.95760    1.000
    C22      C        0.54370    0.17590    0.96980    1.000
    H16      H        0.58550    0.19580    0.01130    1.000
    C23      C        0.59370    0.06440    0.94050    1.000
    C24      C        0.52180    0.03940    0.87850    1.000
    H17      H        0.54900    0.96600    0.85680    1.000
    C25      C        0.40940    0.12470    0.84960    1.000
    H18      H        0.36410    0.10610    0.80830    1.000
    C26      C        0.71970    0.97910    0.97470    1.000
    C27      C        0.89970    0.94230    0.06680    1.000
    C28      C        0.95400    0.83360    0.04060    1.000
    H19      H        0.03270    0.78600    0.06370    1.000
    C29      C        0.89290    0.79350    0.98000    1.000
    C30      C        0.77120    0.86570    0.94700    1.000
    H20      H        0.72520    0.83830    0.90700    1.000
    C31      C        0.95910    0.68070    0.95080    1.000
    C32      C        0.10580    0.64770    0.97190    1.000
    H21      H        0.16050    0.69170    0.00660    1.000
    C33      C        0.17060    0.54890    0.94080    1.000
    H22      H        0.26840    0.52910    0.95610    1.000
    C34      C        0.96060    0.50810    0.87160    1.000
    H23      H        0.90860    0.45840    0.83800    1.000
    C35      C        0.88660    0.60640    0.89880    1.000
    H24      H        0.78860    0.62280    0.88230    1.000
    C36      C        0.97340    0.99180    0.13080    1.000
    C37      C        0.91660    0.09770    0.16040    1.000
    H25      H        0.82910    0.13800    0.14130    1.000
    C38      C        0.99090    0.14330    0.21870    1.000
    H26      H        0.95020    0.21390    0.23750    1.000
    C39      C        0.17230    0.98590    0.22100    1.000
    H27      H        0.25970    0.94680    0.24120    1.000
    C40      C        0.10330    0.93440    0.16370    1.000
    H28      H        0.14350    0.86070    0.14680    1.000
    Cu3      Cu       0.78927    0.63988    0.16222    1.000
    N9       N        0.63720    0.76860    0.12260    1.000
    N10      N        0.89830    0.51810    0.10890    1.000
    N11      N        0.88170    0.90890    0.75070    1.000
    N12      N        0.21760    0.98330    0.96500    1.000
    C41      C        0.56780    0.74320    0.06260    1.000
    H29      H        0.59630    0.66800    0.04240    1.000
    C42      C        0.45630    0.82410    0.03020    1.000
    H30      H        0.41450    0.80420    0.98870    1.000
    C43      C        0.40630    0.93560    0.05950    1.000
    C44      C        0.47820    0.96060    0.12150    1.000
    H31      H        0.45100    0.03400    0.14320    1.000
    C45      C        0.59060    0.87530    0.15040    1.000
    H32      H        0.63590    0.89390    0.19170    1.000
    C46      C        0.28030    0.02090    0.02530    1.000
    C47      C        0.10030    0.05770    0.93320    1.000
    C48      C        0.04600    0.16640    0.95940    1.000
    H33      H        0.96730    0.21400    0.93630    1.000
    C49      C        0.10710    0.20650    0.02000    1.000
    C50      C        0.22880    0.13430    0.05300    1.000
    H34      H        0.27480    0.16170    0.09300    1.000
    C51      C        0.04090    0.31930    0.04920    1.000
    C52      C        0.89420    0.35230    0.02810    1.000
    H35      H        0.83950    0.30830    0.99340    1.000
    C53      C        0.82940    0.45110    0.05920    1.000
    H36      H        0.73160    0.47090    0.04390    1.000
    C54      C        0.03940    0.49190    0.12840    1.000
    H37      H        0.09140    0.54160    0.16200    1.000
    C55      C        0.11340    0.39360    0.10120    1.000
    H38      H        0.21140    0.37720    0.11770    1.000
    C56      C        0.02660    0.00820    0.86920    1.000
    C57      C        0.08340    0.90230    0.83960    1.000
    H39      H        0.17090    0.86200    0.85870    1.000
    C58      C        0.00910    0.85670    0.78130    1.000
    H40      H        0.04980    0.78610    0.76250    1.000
    C59      C        0.82770    0.01410    0.77900    1.000
    H41      H        0.74030    0.05320    0.75880    1.000
    C60      C        0.89670    0.06560    0.83630    1.000
    H42      H        0.85650    0.13930    0.85320    1.000
    Cu4      Cu       0.78927    0.86012    0.66222    1.000
    N13      N        0.63720    0.73140    0.62260    1.000
    N14      N        0.89830    0.98190    0.60890    1.000
    N15      N        0.88170    0.59110    0.25070    1.000
    N16      N        0.21760    0.51670    0.46500    1.000
    C61      C        0.56780    0.75680    0.56260    1.000
    H43      H        0.59630    0.83200    0.54240    1.000
    C62      C        0.45630    0.67590    0.53020    1.000
    H44      H        0.41450    0.69580    0.48870    1.000
    C63      C        0.40630    0.56440    0.55950    1.000
    C64      C        0.47820    0.53940    0.62150    1.000
    H45      H        0.45100    0.46600    0.64320    1.000
    C65      C        0.59060    0.62470    0.65040    1.000
    H46      H        0.63590    0.60610    0.69170    1.000
    C66      C        0.28030    0.47910    0.52530    1.000
    C67      C        0.10030    0.44230    0.43320    1.000
    C68      C        0.04600    0.33360    0.45940    1.000
    H47      H        0.96730    0.28600    0.43630    1.000
    C69      C        0.10710    0.29350    0.52000    1.000
    C70      C        0.22880    0.36570    0.55300    1.000
    H48      H        0.27480    0.33830    0.59300    1.000
    C71      C        0.04090    0.18070    0.54920    1.000
    C72      C        0.89420    0.14770    0.52810    1.000
    H49      H        0.83950    0.19170    0.49340    1.000
    C73      C        0.82940    0.04890    0.55920    1.000
    H50      H        0.73160    0.02910    0.54390    1.000
    C74      C        0.03940    0.00810    0.62840    1.000
    H51      H        0.09140    0.95840    0.66200    1.000
    C75      C        0.11340    0.10640    0.60120    1.000
    H52      H        0.21140    0.12280    0.61770    1.000
    C76      C        0.02660    0.49180    0.36920    1.000
    C77      C        0.08340    0.59770    0.33960    1.000
    H53      H        0.17090    0.63800    0.35870    1.000
    C78      C        0.00910    0.64330    0.28130    1.000
    H54      H        0.04980    0.71390    0.26250    1.000
    C79      C        0.82770    0.48590    0.27900    1.000
    H55      H        0.74030    0.44680    0.25880    1.000
    C80      C        0.89670    0.43440    0.33630    1.000
    H56      H        0.85650    0.36070    0.35320    1.000
