# CIF file generated by openbabel 3.1.0, see https://openbabel.org
data_I
_chemical_name_common 'image0'
_cell_length_a 17.1694
_cell_length_b 32.1903
_cell_length_c 32.925
_cell_angle_alpha 90
_cell_angle_beta 90
_cell_angle_gamma 90
_space_group_name_H-M_alt 'P 1'
_space_group_name_Hall 'P 1'
loop_
    _symmetry_equiv_pos_as_xyz
    x,y,z
loop_
    _atom_site_label
    _atom_site_type_symbol
    _atom_site_fract_x
    _atom_site_fract_y
    _atom_site_fract_z
    _atom_site_occupancy
    C1       C        0.64400    0.98710    0.26030    1.000
    C2       C        0.55310    0.98820    0.26010    1.000
    C3       C        0.51430    0.95100    0.26820    1.000
    H1       H        0.54150    0.92680    0.27400    1.000
    C4       C        0.39160    0.98760    0.26140    1.000
    C5       C        0.43200    0.02560    0.25680    1.000
    H2       H        0.40460    0.05040    0.25450    1.000
    C6       C        0.51320    0.02560    0.25560    1.000
    H3       H        0.54040    0.05030    0.25190    1.000
    C7       C        0.29990    0.98890    0.26240    1.000
    C8       C        0.25580    0.96760    0.23430    1.000
    C9       C        0.17980    0.97260    0.23350    1.000
    H4       H        0.15090    0.96120    0.21240    1.000
    C10      C        0.14120    0.99530    0.26470    1.000
    C11      C        0.18760    0.01560    0.29340    1.000
    H5       H        0.16410    0.03230    0.31290    1.000
    C12      C        0.26500    0.01140    0.29340    1.000
    H6       H        0.29500    0.02340    0.31370    1.000
    C13      C        0.05440    0.00060    0.26320    1.000
    C14      C        0.43310    0.95170    0.26740    1.000
    N1       N        0.39580    0.91330    0.27660    1.000
    C15      C        0.34550    0.89640    0.25100    1.000
    C16      C        0.30160    0.85810    0.26170    1.000
    C17      C        0.32260    0.83560    0.29600    1.000
    H7       H        0.36520    0.84380    0.31150    1.000
    C18      C        0.28000    0.80070    0.30710    1.000
    H8       H        0.29400    0.78560    0.33000    1.000
    C19      C        0.21640    0.78830    0.28390    1.000
    H9       H        0.18780    0.76500    0.29140    1.000
    C20      C        0.19540    0.81090    0.24970    1.000
    H10      H        0.15280    0.80270    0.23420    1.000
    C21      C        0.23800    0.84580    0.23850    1.000
    H11      H        0.22400    0.86090    0.21560    1.000
    C22      C        0.33250    0.91550    0.20830    1.000
    C23      C        0.37090    0.89020    0.17390    1.000
    C24      C        0.42810    0.86060    0.18130    1.000
    H12      H        0.44340    0.85490    0.20780    1.000
    C25      C        0.46260    0.83970    0.14900    1.000
    H13      H        0.50090    0.81990    0.15400    1.000
    C26      C        0.43980    0.84830    0.10940    1.000
    H14      H        0.46280    0.83430    0.08780    1.000
    C27      C        0.38250    0.87790    0.10200    1.000
    H15      H        0.36720    0.88360    0.07550    1.000
    C28      C        0.34800    0.89880    0.13430    1.000
    H16      H        0.30970    0.91860    0.12930    1.000
    C29      C        0.90700    0.10670    0.27990    1.000
    C30      C        0.93510    0.15270    0.28190    1.000
    C31      C        0.92410    0.17880    0.24660    1.000
    H17      H        0.89700    0.16880    0.22420    1.000
    C32      C        0.95330    0.21770    0.24650    1.000
    H18      H        0.94560    0.23420    0.22370    1.000
    C33      C        0.99560    0.23420    0.28020    1.000
    C34      C        0.00430    0.20690    0.31440    1.000
    C35      C        0.97510    0.16890    0.31420    1.000
    H19      H        0.98210    0.15240    0.33710    1.000
    C36      C        0.02890    0.27570    0.27850    1.000
    C37      C        0.08370    0.28620    0.24880    1.000
    H20      H        0.10080    0.26540    0.23120    1.000
    C38      C        0.11310    0.32480    0.24410    1.000
    H21      H        0.14870    0.33020    0.22340    1.000
    C39      C        0.09050    0.35610    0.26980    1.000
    C40      C        0.03670    0.34780    0.29860    1.000
    H22      H        0.02060    0.36890    0.31610    1.000
    C41      C        0.00530    0.30870    0.30250    1.000
    C42      C        0.02720    0.25310    0.36860    1.000
    C43      C        0.07840    0.27110    0.40110    1.000
    C44      C        0.06660    0.31040    0.41730    1.000
    H23      H        0.02490    0.32650    0.40850    1.000
    C45      C        0.11700    0.32570    0.44680    1.000
    H24      H        0.10910    0.35200    0.45760    1.000
    C46      C        0.17930    0.30160    0.46000    1.000
    H25      H        0.21310    0.31190    0.47970    1.000
    C47      C        0.19110    0.26230    0.44370    1.000
    H26      H        0.23280    0.24620    0.45250    1.000
    C48      C        0.14070    0.24700    0.41430    1.000
    H27      H        0.14860    0.22070    0.40340    1.000
    C49      C        0.95500    0.27420    0.36040    1.000
    C50      C        0.88720    0.26730    0.38950    1.000
    C51      C        0.82240    0.29310    0.39070    1.000
    H28      H        0.81910    0.31570    0.37320    1.000
    C52      C        0.76260    0.28520    0.41800    1.000
    H29      H        0.71920    0.30250    0.41880    1.000
    C53      C        0.76760    0.25140    0.44420    1.000
    H30      H        0.72750    0.24610    0.46250    1.000
    C54      C        0.83240    0.22550    0.44300    1.000
    H31      H        0.83570    0.20290    0.46050    1.000
    C55      C        0.89220    0.23350    0.41560    1.000
    H32      H        0.93560    0.21620    0.41480    1.000
    C56      C        0.12350    0.40150    0.26500    1.000
    C57      C        0.83690    0.97410    0.36500    1.000
    C58      C        0.81500    0.96760    0.41130    1.000
    C59      C        0.85760    0.98650    0.44020    1.000
    H33      H        0.90140    0.00210    0.43340    1.000
    C60      C        0.83490    0.98230    0.47990    1.000
    H34      H        0.86550    0.99390    0.50030    1.000
    C61      C        0.76480    0.96020    0.49100    1.000
    C62      C        0.75020    0.94220    0.42090    1.000
    H35      H        0.72480    0.92740    0.40060    1.000
    C63      C        0.74230    0.95990    0.53250    1.000
    C64      C        0.78250    0.94260    0.56340    1.000
    H36      H        0.82880    0.92920    0.55680    1.000
    C65      C        0.67350    0.97670    0.54400    1.000
    C66      C        0.76120    0.94290    0.60330    1.000
    H37      H        0.79180    0.92990    0.62290    1.000
    C67      C        0.64810    0.98000    0.58410    1.000
    H38      H        0.60170    0.99350    0.59020    1.000
    C68      C        0.69240    0.96330    0.61420    1.000
    C69      C        0.67270    0.96730    0.65970    1.000
    C70      C        0.59500    0.95700    0.48370    1.000
    C71      C        0.50300    0.01810    0.45530    1.000
    H39      H        0.50350    0.03200    0.48000    1.000
    C72      C        0.54100    0.98020    0.45120    1.000
    C73      C        0.53900    0.95940    0.41420    1.000
    H40      H        0.56460    0.93400    0.41150    1.000
    C74      C        0.50000    0.97660    0.38130    1.000
    H41      H        0.49940    0.96270    0.35650    1.000
    C75      C        0.46200    0.01450    0.38530    1.000
    H42      H        0.43620    0.02600    0.36330    1.000
    C76      C        0.46400    0.03530    0.42230    1.000
    H43      H        0.43830    0.06070    0.42510    1.000
    C77      C        0.72600    0.93970    0.45940    1.000
    N2       N        0.67000    0.90920    0.46940    1.000
    C78      C        0.59600    0.92060    0.47500    1.000
    C79      C        0.54300    0.88810    0.49120    1.000
    C80      C        0.55100    0.84600    0.48170    1.000
    H44      H        0.58860    0.83710    0.46330    1.000
    C81      C        0.50200    0.81780    0.50040    1.000
    H45      H        0.50620    0.78980    0.49400    1.000
    C82      C        0.44500    0.83030    0.52900    1.000
    H46      H        0.41430    0.81060    0.54170    1.000
    C83      C        0.43600    0.87230    0.53800    1.000
    H47      H        0.39730    0.88180    0.55490    1.000
    C84      C        0.48900    0.89990    0.51890    1.000
    H48      H        0.48730    0.92780    0.52610    1.000
    N3       N        0.29100    0.94650    0.20020    1.000
    N4       N        0.04830    0.22140    0.34920    1.000
    N5       N        0.94570    0.30250    0.33070    1.000
    N6       N        0.61600    0.98690    0.51340    1.000
    O1       O        0.84720    0.00600    0.26230    1.000
    O2       O        0.67230    0.02130    0.24810    1.000
    O3       O        0.02060    0.99380    0.22880    1.000
    O4       O        0.67830    0.95630    0.27290    1.000
    O5       O        0.02080    0.00880    0.29560    1.000
    O6       O        0.86610    0.09650    0.25160    1.000
    O7       O        0.92880    0.08520    0.31030    1.000
    O8       O        0.17200    0.40620    0.23580    1.000
    O9       O        0.09480    0.42820    0.28770    1.000
    O10      O        0.88860    0.00110    0.35700    1.000
    O11      O        0.79430    0.95440    0.33980    1.000
    O12      O        0.61120    0.99060    0.66590    1.000
    O13      O        0.71330    0.95110    0.68480    1.000
    Zn1      Zn       0.77674    0.05277    0.24652    1.000
    Zn2      Zn       0.78630    0.95868    0.28132    1.000
    Zn3      Zn       0.91159    0.02636    0.30591    1.000
    Zn4      Zn       0.91144    0.98753    0.21826    1.000
    C85      C        0.85600    0.01290    0.76030    1.000
    C86      C        0.94690    0.01180    0.76010    1.000
    C87      C        0.98570    0.04900    0.76820    1.000
    H49      H        0.95850    0.07320    0.77400    1.000
    C88      C        0.10840    0.01240    0.76140    1.000
    C89      C        0.06800    0.97440    0.75680    1.000
    H50      H        0.09540    0.94960    0.75450    1.000
    C90      C        0.98680    0.97440    0.75560    1.000
    H51      H        0.95960    0.94970    0.75190    1.000
    C91      C        0.20010    0.01110    0.76240    1.000
    C92      C        0.24420    0.03240    0.73430    1.000
    C93      C        0.32020    0.02740    0.73350    1.000
    H52      H        0.34910    0.03880    0.71240    1.000
    C94      C        0.35880    0.00470    0.76470    1.000
    C95      C        0.31240    0.98440    0.79340    1.000
    H53      H        0.33590    0.96770    0.81290    1.000
    C96      C        0.23500    0.98860    0.79340    1.000
    H54      H        0.20500    0.97660    0.81370    1.000
    C97      C        0.44560    0.99940    0.76320    1.000
    C98      C        0.06690    0.04830    0.76740    1.000
    N7       N        0.10420    0.08670    0.77660    1.000
    C99      C        0.15450    0.10360    0.75100    1.000
    C100     C        0.19840    0.14190    0.76170    1.000
    C101     C        0.17740    0.16440    0.79600    1.000
    H55      H        0.13480    0.15620    0.81150    1.000
    C102     C        0.22000    0.19930    0.80710    1.000
    H56      H        0.20600    0.21440    0.83000    1.000
    C103     C        0.28360    0.21170    0.78390    1.000
    H57      H        0.31220    0.23500    0.79140    1.000
    C104     C        0.30460    0.18910    0.74970    1.000
    H58      H        0.34720    0.19730    0.73420    1.000
    C105     C        0.26200    0.15420    0.73850    1.000
    H59      H        0.27600    0.13910    0.71560    1.000
    C106     C        0.16750    0.08450    0.70830    1.000
    C107     C        0.12910    0.10980    0.67390    1.000
    C108     C        0.07190    0.13940    0.68130    1.000
    H60      H        0.05660    0.14510    0.70780    1.000
    C109     C        0.03740    0.16030    0.64900    1.000
    H61      H        0.99910    0.18010    0.65400    1.000
    C110     C        0.06020    0.15170    0.60940    1.000
    H62      H        0.03720    0.16570    0.58780    1.000
    C111     C        0.11750    0.12210    0.60200    1.000
    H63      H        0.13280    0.11640    0.57550    1.000
    C112     C        0.15200    0.10120    0.63430    1.000
    H64      H        0.19030    0.08140    0.62930    1.000
    C113     C        0.59300    0.89330    0.77990    1.000
    C114     C        0.56490    0.84730    0.78190    1.000
    C115     C        0.57590    0.82120    0.74660    1.000
    H65      H        0.60300    0.83120    0.72420    1.000
    C116     C        0.54670    0.78230    0.74650    1.000
    H66      H        0.55440    0.76580    0.72370    1.000
    C117     C        0.50440    0.76580    0.78020    1.000
    C118     C        0.49570    0.79310    0.81440    1.000
    C119     C        0.52490    0.83110    0.81420    1.000
    H67      H        0.51790    0.84760    0.83710    1.000
    C120     C        0.47110    0.72430    0.77850    1.000
    C121     C        0.41630    0.71380    0.74880    1.000
    H68      H        0.39920    0.73460    0.73120    1.000
    C122     C        0.38690    0.67520    0.74410    1.000
    H69      H        0.35130    0.66980    0.72340    1.000
    C123     C        0.40950    0.64390    0.76980    1.000
    C124     C        0.46330    0.65220    0.79860    1.000
    H70      H        0.47940    0.63110    0.81610    1.000
    C125     C        0.49470    0.69130    0.80250    1.000
    C126     C        0.47280    0.74690    0.86860    1.000
    C127     C        0.42160    0.72890    0.90110    1.000
    C128     C        0.43340    0.68960    0.91730    1.000
    H71      H        0.47510    0.67350    0.90850    1.000
    C129     C        0.38300    0.67430    0.94680    1.000
    H72      H        0.39090    0.64800    0.95760    1.000
    C130     C        0.32070    0.69840    0.96000    1.000
    H73      H        0.28690    0.68810    0.97970    1.000
    C131     C        0.30890    0.73770    0.94370    1.000
    H74      H        0.26720    0.75380    0.95250    1.000
    C132     C        0.35930    0.75300    0.91430    1.000
    H75      H        0.35140    0.77930    0.90340    1.000
    C133     C        0.54500    0.72580    0.86040    1.000
    C134     C        0.61280    0.73270    0.88950    1.000
    C135     C        0.67760    0.70690    0.89070    1.000
    H76      H        0.68090    0.68430    0.87320    1.000
    C136     C        0.73740    0.71480    0.91800    1.000
    H77      H        0.78080    0.69750    0.91880    1.000
    C137     C        0.73240    0.74860    0.94420    1.000
    H78      H        0.77250    0.75390    0.96250    1.000
    C138     C        0.66760    0.77450    0.94300    1.000
    H79      H        0.66430    0.79710    0.96050    1.000
    C139     C        0.60780    0.76650    0.91560    1.000
    H80      H        0.56440    0.78380    0.91480    1.000
    C140     C        0.37650    0.59850    0.76500    1.000
    C141     C        0.66310    0.02590    0.86500    1.000
    C142     C        0.68500    0.03240    0.91130    1.000
    C143     C        0.64240    0.01350    0.94020    1.000
    H81      H        0.59860    0.99790    0.93340    1.000
    C144     C        0.66510    0.01770    0.97990    1.000
    H82      H        0.63450    0.00610    0.00030    1.000
    C145     C        0.73520    0.03980    0.99100    1.000
    C146     C        0.74980    0.05780    0.92090    1.000
    H83      H        0.77520    0.07260    0.90060    1.000
    C147     C        0.75770    0.04010    0.03250    1.000
    C148     C        0.71750    0.05740    0.06340    1.000
    H84      H        0.67120    0.07080    0.05680    1.000
    C149     C        0.82650    0.02330    0.04400    1.000
    C150     C        0.73880    0.05710    0.10330    1.000
    H85      H        0.70820    0.07010    0.12290    1.000
    C151     C        0.85190    0.02000    0.08410    1.000
    H86      H        0.89830    0.00650    0.09020    1.000
    C152     C        0.80760    0.03670    0.11420    1.000
    C153     C        0.82730    0.03270    0.15970    1.000
    C154     C        0.90500    0.04300    0.98370    1.000
    C155     C        0.99700    0.98190    0.95530    1.000
    H87      H        0.99650    0.96800    0.98000    1.000
    C156     C        0.95900    0.01980    0.95120    1.000
    C157     C        0.96100    0.04060    0.91420    1.000
    H88      H        0.93540    0.06600    0.91150    1.000
    C158     C        0.00000    0.02340    0.88130    1.000
    H89      H        0.00060    0.03730    0.85650    1.000
    C159     C        0.03800    0.98550    0.88530    1.000
    H90      H        0.06380    0.97400    0.86330    1.000
    C160     C        0.03600    0.96470    0.92230    1.000
    H91      H        0.06170    0.93930    0.92510    1.000
    C161     C        0.77400    0.06030    0.95940    1.000
    N8       N        0.83000    0.09080    0.96940    1.000
    C162     C        0.90400    0.07940    0.97500    1.000
    C163     C        0.95700    0.11190    0.99120    1.000
    C164     C        0.94900    0.15400    0.98170    1.000
    H92      H        0.91140    0.16290    0.96330    1.000
    C165     C        0.99800    0.18220    0.00040    1.000
    H93      H        0.99380    0.21020    0.99400    1.000
    C166     C        0.05500    0.16970    0.02900    1.000
    H94      H        0.08570    0.18940    0.04170    1.000
    C167     C        0.06400    0.12770    0.03800    1.000
    H95      H        0.10270    0.11820    0.05490    1.000
    C168     C        0.01100    0.10010    0.01890    1.000
    H96      H        0.01270    0.07220    0.02610    1.000
    N9       N        0.20900    0.05350    0.70020    1.000
    N10      N        0.45170    0.77860    0.84920    1.000
    N11      N        0.55430    0.69750    0.83070    1.000
    N12      N        0.88400    0.01310    0.01340    1.000
    O14      O        0.65280    0.99400    0.76230    1.000
    O15      O        0.82770    0.97870    0.74810    1.000
    O16      O        0.47940    0.00620    0.72880    1.000
    O17      O        0.82170    0.04370    0.77290    1.000
    O18      O        0.47920    0.99120    0.79560    1.000
    O19      O        0.63390    0.90350    0.75160    1.000
    O20      O        0.57120    0.91480    0.81030    1.000
    O21      O        0.32800    0.59380    0.73580    1.000
    O22      O        0.40520    0.57180    0.78770    1.000
    O23      O        0.61140    0.99890    0.85700    1.000
    O24      O        0.70570    0.04560    0.83980    1.000
    O25      O        0.88880    0.00940    0.16590    1.000
    O26      O        0.78670    0.04890    0.18480    1.000
    Zn5      Zn       0.72326    0.94723    0.74652    1.000
    Zn6      Zn       0.71370    0.04132    0.78132    1.000
    Zn7      Zn       0.58841    0.97364    0.80591    1.000
    Zn8      Zn       0.58856    0.01247    0.71826    1.000
    C169     C        0.35600    0.48710    0.23970    1.000
    C170     C        0.44690    0.48820    0.23990    1.000
    C171     C        0.48570    0.45100    0.23180    1.000
    H97      H        0.45850    0.42680    0.22600    1.000
    C172     C        0.60840    0.48760    0.23860    1.000
    C173     C        0.56800    0.52560    0.24320    1.000
    H98      H        0.59540    0.55040    0.24550    1.000
    C174     C        0.48680    0.52560    0.24440    1.000
    H99      H        0.45960    0.55030    0.24810    1.000
    C175     C        0.70010    0.48890    0.23760    1.000
    C176     C        0.74420    0.46760    0.26570    1.000
    C177     C        0.82020    0.47260    0.26650    1.000
    H100     H        0.84910    0.46120    0.28760    1.000
    C178     C        0.85880    0.49530    0.23530    1.000
    C179     C        0.81240    0.51560    0.20660    1.000
    H101     H        0.83590    0.53230    0.18710    1.000
    C180     C        0.73500    0.51140    0.20660    1.000
    H102     H        0.70500    0.52340    0.18630    1.000
    C181     C        0.94560    0.50060    0.23680    1.000
    C182     C        0.56690    0.45170    0.23260    1.000
    N13      N        0.60420    0.41330    0.22340    1.000
    C183     C        0.65450    0.39640    0.24900    1.000
    C184     C        0.69840    0.35810    0.23830    1.000
    C185     C        0.67740    0.33560    0.20400    1.000
    H103     H        0.63480    0.34380    0.18850    1.000
    C186     C        0.72000    0.30070    0.19290    1.000
    H104     H        0.70600    0.28560    0.17000    1.000
    C187     C        0.78360    0.28830    0.21610    1.000
    H105     H        0.81220    0.26500    0.20860    1.000
    C188     C        0.80460    0.31090    0.25030    1.000
    H106     H        0.84720    0.30270    0.26580    1.000
    C189     C        0.76200    0.34580    0.26150    1.000
    H107     H        0.77600    0.36090    0.28440    1.000
    C190     C        0.66750    0.41550    0.29170    1.000
    C191     C        0.62910    0.39020    0.32610    1.000
    C192     C        0.57190    0.36060    0.31870    1.000
    H108     H        0.55660    0.35490    0.29220    1.000
    C193     C        0.53740    0.33970    0.35100    1.000
    H109     H        0.49910    0.31990    0.34600    1.000
    C194     C        0.56020    0.34830    0.39060    1.000
    H110     H        0.53720    0.33430    0.41220    1.000
    C195     C        0.61750    0.37790    0.39800    1.000
    H111     H        0.63280    0.38360    0.42450    1.000
    C196     C        0.65200    0.39880    0.36570    1.000
    H112     H        0.69030    0.41860    0.37070    1.000
    C197     C        0.09300    0.60670    0.22010    1.000
    C198     C        0.06490    0.65270    0.21810    1.000
    C199     C        0.07590    0.67880    0.25340    1.000
    H113     H        0.10300    0.66880    0.27580    1.000
    C200     C        0.04670    0.71770    0.25350    1.000
    H114     H        0.05440    0.73420    0.27630    1.000
    C201     C        0.00440    0.73420    0.21980    1.000
    C202     C        0.99570    0.70690    0.18560    1.000
    C203     C        0.02490    0.66890    0.18580    1.000
    H115     H        0.01790    0.65240    0.16290    1.000
    C204     C        0.97110    0.77570    0.22150    1.000
    C205     C        0.91630    0.78620    0.25120    1.000
    H116     H        0.89920    0.76540    0.26880    1.000
    C206     C        0.88690    0.82480    0.25590    1.000
    H117     H        0.85130    0.83020    0.27660    1.000
    C207     C        0.90950    0.85610    0.23020    1.000
    C208     C        0.96330    0.84780    0.20140    1.000
    H118     H        0.97940    0.86890    0.18390    1.000
    C209     C        0.99470    0.80870    0.19750    1.000
    C210     C        0.97280    0.75310    0.13140    1.000
    C211     C        0.92160    0.77110    0.09890    1.000
    C212     C        0.93340    0.81040    0.08270    1.000
    H119     H        0.97510    0.82650    0.09150    1.000
    C213     C        0.88300    0.82570    0.05320    1.000
    H120     H        0.89090    0.85200    0.04240    1.000
    C214     C        0.82070    0.80160    0.04000    1.000
    H121     H        0.78690    0.81190    0.02030    1.000
    C215     C        0.80890    0.76230    0.05630    1.000
    H122     H        0.76720    0.74620    0.04750    1.000
    C216     C        0.85930    0.74700    0.08570    1.000
    H123     H        0.85140    0.72070    0.09660    1.000
    C217     C        0.04500    0.77420    0.13960    1.000
    C218     C        0.11280    0.76730    0.11050    1.000
    C219     C        0.17760    0.79310    0.10930    1.000
    H124     H        0.18090    0.81570    0.12680    1.000
    C220     C        0.23740    0.78520    0.08200    1.000
    H125     H        0.28080    0.80250    0.08120    1.000
    C221     C        0.23240    0.75140    0.05580    1.000
    H126     H        0.27250    0.74610    0.03750    1.000
    C222     C        0.16760    0.72550    0.05700    1.000
    H127     H        0.16430    0.70290    0.03950    1.000
    C223     C        0.10780    0.73350    0.08440    1.000
    H128     H        0.06440    0.71620    0.08520    1.000
    C224     C        0.87650    0.90150    0.23500    1.000
    C225     C        0.16310    0.47410    0.13500    1.000
    C226     C        0.18500    0.46760    0.08870    1.000
    C227     C        0.14240    0.48650    0.05980    1.000
    H129     H        0.09860    0.50210    0.06660    1.000
    C228     C        0.16510    0.48230    0.02010    1.000
    H130     H        0.13450    0.49390    0.99970    1.000
    C229     C        0.23520    0.46020    0.00900    1.000
    C230     C        0.24980    0.44220    0.07910    1.000
    H131     H        0.27520    0.42740    0.09940    1.000
    C231     C        0.25770    0.45990    0.96750    1.000
    C232     C        0.21750    0.44260    0.93660    1.000
    H132     H        0.17120    0.42920    0.94320    1.000
    C233     C        0.32650    0.47670    0.95600    1.000
    C234     C        0.23880    0.44290    0.89670    1.000
    H133     H        0.20820    0.42990    0.87710    1.000
    C235     C        0.35190    0.48000    0.91590    1.000
    H134     H        0.39830    0.49350    0.90980    1.000
    C236     C        0.30760    0.46330    0.88580    1.000
    C237     C        0.32730    0.46730    0.84030    1.000
    C238     C        0.40500    0.45700    0.01630    1.000
    C239     C        0.49700    0.51810    0.04470    1.000
    H135     H        0.49650    0.53200    0.02000    1.000
    C240     C        0.45900    0.48020    0.04880    1.000
    C241     C        0.46100    0.45940    0.08580    1.000
    H136     H        0.43540    0.43400    0.08850    1.000
    C242     C        0.50000    0.47660    0.11870    1.000
    H137     H        0.50060    0.46270    0.14350    1.000
    C243     C        0.53800    0.51450    0.11470    1.000
    H138     H        0.56380    0.52600    0.13670    1.000
    C244     C        0.53600    0.53530    0.07770    1.000
    H139     H        0.56170    0.56070    0.07490    1.000
    C245     C        0.27400    0.43970    0.04060    1.000
    N14      N        0.33000    0.40920    0.03060    1.000
    C246     C        0.40400    0.42060    0.02500    1.000
    C247     C        0.45700    0.38810    0.00880    1.000
    C248     C        0.44900    0.34600    0.01830    1.000
    H140     H        0.41140    0.33710    0.03670    1.000
    C249     C        0.49800    0.31780    0.99960    1.000
    H141     H        0.49380    0.28980    0.00600    1.000
    C250     C        0.55500    0.33030    0.97100    1.000
    H142     H        0.58570    0.31060    0.95830    1.000
    C251     C        0.56400    0.37230    0.96200    1.000
    H143     H        0.60270    0.38180    0.94510    1.000
    C252     C        0.51100    0.39990    0.98110    1.000
    H144     H        0.51270    0.42780    0.97390    1.000
    N15      N        0.70900    0.44650    0.29980    1.000
    N16      N        0.95170    0.72140    0.15080    1.000
    N17      N        0.05430    0.80250    0.16930    1.000
    N18      N        0.38400    0.48690    0.98660    1.000
    O27      O        0.15280    0.50600    0.23770    1.000
    O28      O        0.32770    0.52130    0.25190    1.000
    O29      O        0.97940    0.49380    0.27120    1.000
    O30      O        0.32170    0.45630    0.22710    1.000
    O31      O        0.97920    0.50880    0.20440    1.000
    O32      O        0.13390    0.59650    0.24840    1.000
    O33      O        0.07120    0.58520    0.18970    1.000
    O34      O        0.82800    0.90620    0.26420    1.000
    O35      O        0.90520    0.92820    0.21230    1.000
    O36      O        0.11140    0.50110    0.14300    1.000
    O37      O        0.20570    0.45440    0.16020    1.000
    O38      O        0.38880    0.49060    0.83410    1.000
    O39      O        0.28670    0.45110    0.81520    1.000
    Zn9      Zn       0.22326    0.55277    0.25348    1.000
    Zn10     Zn       0.21370    0.45868    0.21868    1.000
    Zn11     Zn       0.08841    0.52636    0.19409    1.000
    Zn12     Zn       0.08856    0.48753    0.28174    1.000
    C253     C        0.14400    0.51290    0.73970    1.000
    C254     C        0.05310    0.51180    0.73990    1.000
    C255     C        0.01430    0.54900    0.73180    1.000
    H145     H        0.04150    0.57320    0.72600    1.000
    C256     C        0.89160    0.51240    0.73860    1.000
    C257     C        0.93200    0.47440    0.74320    1.000
    H146     H        0.90460    0.44960    0.74550    1.000
    C258     C        0.01320    0.47440    0.74440    1.000
    H147     H        0.04040    0.44970    0.74810    1.000
    C259     C        0.79990    0.51110    0.73760    1.000
    C260     C        0.75580    0.53240    0.76570    1.000
    C261     C        0.67980    0.52740    0.76650    1.000
    H148     H        0.65090    0.53880    0.78760    1.000
    C262     C        0.64120    0.50470    0.73530    1.000
    C263     C        0.68760    0.48440    0.70660    1.000
    H149     H        0.66410    0.46770    0.68710    1.000
    C264     C        0.76500    0.48860    0.70660    1.000
    H150     H        0.79500    0.47660    0.68630    1.000
    C265     C        0.55440    0.49940    0.73680    1.000
    C266     C        0.93310    0.54830    0.73260    1.000
    N19      N        0.89580    0.58670    0.72340    1.000
    C267     C        0.84550    0.60360    0.74900    1.000
    C268     C        0.80160    0.64190    0.73830    1.000
    C269     C        0.82260    0.66440    0.70400    1.000
    H151     H        0.86520    0.65620    0.68850    1.000
    C270     C        0.78000    0.69930    0.69290    1.000
    H152     H        0.79400    0.71440    0.67000    1.000
    C271     C        0.71640    0.71170    0.71610    1.000
    H153     H        0.68780    0.73500    0.70860    1.000
    C272     C        0.69540    0.68910    0.75030    1.000
    H154     H        0.65280    0.69730    0.76580    1.000
    C273     C        0.73800    0.65420    0.76150    1.000
    H155     H        0.72400    0.63910    0.78440    1.000
    C274     C        0.83250    0.58450    0.79170    1.000
    C275     C        0.87090    0.60980    0.82610    1.000
    C276     C        0.92810    0.63940    0.81870    1.000
    H156     H        0.94340    0.64510    0.79220    1.000
    C277     C        0.96260    0.66030    0.85100    1.000
    H157     H        0.00090    0.68010    0.84600    1.000
    C278     C        0.93980    0.65170    0.89060    1.000
    H158     H        0.96280    0.66570    0.91220    1.000
    C279     C        0.88250    0.62210    0.89800    1.000
    H159     H        0.86720    0.61640    0.92450    1.000
    C280     C        0.84800    0.60120    0.86570    1.000
    H160     H        0.80970    0.58140    0.87070    1.000
    C281     C        0.40700    0.39330    0.72010    1.000
    C282     C        0.43510    0.34730    0.71810    1.000
    C283     C        0.42410    0.32120    0.75340    1.000
    H161     H        0.39700    0.33120    0.77580    1.000
    C284     C        0.45330    0.28230    0.75350    1.000
    H162     H        0.44560    0.26580    0.77630    1.000
    C285     C        0.49560    0.26580    0.71980    1.000
    C286     C        0.50430    0.29310    0.68560    1.000
    C287     C        0.47510    0.33110    0.68580    1.000
    H163     H        0.48210    0.34760    0.66290    1.000
    C288     C        0.52890    0.22430    0.72150    1.000
    C289     C        0.58370    0.21380    0.75120    1.000
    H164     H        0.60080    0.23460    0.76880    1.000
    C290     C        0.61310    0.17520    0.75590    1.000
    H165     H        0.64870    0.16980    0.77660    1.000
    C291     C        0.59050    0.14390    0.73020    1.000
    C292     C        0.53670    0.15220    0.70140    1.000
    H166     H        0.52060    0.13110    0.68390    1.000
    C293     C        0.50530    0.19130    0.69750    1.000
    C294     C        0.52720    0.24690    0.63140    1.000
    C295     C        0.57840    0.22890    0.59890    1.000
    C296     C        0.56660    0.18960    0.58270    1.000
    H167     H        0.52490    0.17350    0.59150    1.000
    C297     C        0.61700    0.17430    0.55320    1.000
    H168     H        0.60910    0.14800    0.54240    1.000
    C298     C        0.67930    0.19840    0.54000    1.000
    H169     H        0.71310    0.18810    0.52030    1.000
    C299     C        0.69110    0.23770    0.55630    1.000
    H170     H        0.73280    0.25380    0.54750    1.000
    C300     C        0.64070    0.25300    0.58570    1.000
    H171     H        0.64860    0.27930    0.59660    1.000
    C301     C        0.45500    0.22580    0.63960    1.000
    C302     C        0.38720    0.23270    0.61050    1.000
    C303     C        0.32240    0.20690    0.60930    1.000
    H172     H        0.31910    0.18430    0.62680    1.000
    C304     C        0.26260    0.21480    0.58200    1.000
    H173     H        0.21920    0.19750    0.58120    1.000
    C305     C        0.26760    0.24860    0.55580    1.000
    H174     H        0.22750    0.25390    0.53750    1.000
    C306     C        0.33240    0.27450    0.55700    1.000
    H175     H        0.33570    0.29710    0.53950    1.000
    C307     C        0.39220    0.26650    0.58440    1.000
    H176     H        0.43560    0.28380    0.58520    1.000
    C308     C        0.62350    0.09850    0.73500    1.000
    C309     C        0.33690    0.52590    0.63500    1.000
    C310     C        0.31500    0.53240    0.58870    1.000
    C311     C        0.35760    0.51350    0.55980    1.000
    H177     H        0.40140    0.49790    0.56660    1.000
    C312     C        0.33490    0.51770    0.52010    1.000
    H178     H        0.36550    0.50610    0.49970    1.000
    C313     C        0.26480    0.53980    0.50900    1.000
    C314     C        0.25020    0.55780    0.57910    1.000
    H179     H        0.22480    0.57260    0.59940    1.000
    C315     C        0.24230    0.54010    0.46750    1.000
    C316     C        0.28250    0.55740    0.43660    1.000
    H180     H        0.32880    0.57080    0.44320    1.000
    C317     C        0.17350    0.52330    0.45600    1.000
    C318     C        0.26120    0.55710    0.39670    1.000
    H181     H        0.29180    0.57010    0.37710    1.000
    C319     C        0.14810    0.52000    0.41590    1.000
    H182     H        0.10170    0.50650    0.40980    1.000
    C320     C        0.19240    0.53670    0.38580    1.000
    C321     C        0.17270    0.53270    0.34030    1.000
    C322     C        0.09500    0.54300    0.51630    1.000
    C323     C        0.00300    0.48190    0.54470    1.000
    H183     H        0.00350    0.46800    0.52000    1.000
    C324     C        0.04100    0.51980    0.54880    1.000
    C325     C        0.03900    0.54060    0.58580    1.000
    H184     H        0.06460    0.56600    0.58850    1.000
    C326     C        0.00000    0.52340    0.61870    1.000
    H185     H        0.99940    0.53730    0.64350    1.000
    C327     C        0.96200    0.48550    0.61470    1.000
    H186     H        0.93620    0.47400    0.63670    1.000
    C328     C        0.96400    0.46470    0.57770    1.000
    H187     H        0.93830    0.43930    0.57490    1.000
    C329     C        0.22600    0.56030    0.54060    1.000
    N20      N        0.17000    0.59080    0.53060    1.000
    C330     C        0.09600    0.57940    0.52500    1.000
    C331     C        0.04300    0.61190    0.50880    1.000
    C332     C        0.05100    0.65400    0.51830    1.000
    H188     H        0.08860    0.66290    0.53670    1.000
    C333     C        0.00200    0.68220    0.49960    1.000
    H189     H        0.00620    0.71020    0.50600    1.000
    C334     C        0.94500    0.66970    0.47100    1.000
    H190     H        0.91430    0.68940    0.45830    1.000
    C335     C        0.93600    0.62770    0.46200    1.000
    H191     H        0.89730    0.61820    0.44510    1.000
    C336     C        0.98900    0.60010    0.48110    1.000
    H192     H        0.98730    0.57220    0.47390    1.000
    N21      N        0.79100    0.55350    0.79980    1.000
    N22      N        0.54830    0.27860    0.65080    1.000
    N23      N        0.44570    0.19750    0.66930    1.000
    N24      N        0.11600    0.51310    0.48660    1.000
    O40      O        0.34720    0.49400    0.73770    1.000
    O41      O        0.17230    0.47870    0.75190    1.000
    O42      O        0.52060    0.50620    0.77120    1.000
    O43      O        0.17830    0.54370    0.72710    1.000
    O44      O        0.52080    0.49120    0.70440    1.000
    O45      O        0.36610    0.40350    0.74840    1.000
    O46      O        0.42880    0.41480    0.68970    1.000
    O47      O        0.67200    0.09380    0.76420    1.000
    O48      O        0.59480    0.07180    0.71230    1.000
    O49      O        0.38860    0.49890    0.64300    1.000
    O50      O        0.29430    0.54560    0.66020    1.000
    O51      O        0.11120    0.50940    0.33410    1.000
    O52      O        0.21330    0.54890    0.31520    1.000
    Zn13     Zn       0.27674    0.44723    0.75348    1.000
    Zn14     Zn       0.28630    0.54132    0.71868    1.000
    Zn15     Zn       0.41159    0.47364    0.69409    1.000
    Zn16     Zn       0.41144    0.51247    0.78174    1.000
