data_functionalizedCrystal
_audit_creation_method	'EQeq! by Chris Wilmer'
_symmetry_space_group_name_H-M	'P1'
_symmetry_Int_Tables_number	1
_symmetry_cell_setting	triclinic
loop_
_symmetry_equiv_pos_as_xyz
  x,y,z
_cell_length_a	64.235
_cell_length_b	64.235
_cell_length_c	64.235
_cell_angle_alpha	90
_cell_angle_beta	90
_cell_angle_gamma	90
loop_
_atom_site_label
_atom_site_type_symbol
_atom_site_fract_x
_atom_site_fract_y
_atom_site_fract_z
_atom_site_charge
Mof_C 	C 	0.53178	0.3399	0.10166	0.036
Mof_H 	H 	0.5349	0.3524	0.0943	0.012
Mof_C 	C 	0.54417	0.32273	0.09811	-0.053
Mof_C 	C 	0.53951	0.30437	0.10817	0.009
Mof_H 	H 	0.5481	0.2924	0.1066	0.036
Mof_C 	C 	0.52202	0.30383	0.12062	-0.101
Mof_H 	H 	0.5176	0.2911	0.1267	0.065
Mof_C 	C 	0.51099	0.32171	0.12422	0.057
Mof_H 	H 	0.4996	0.3212	0.1337	0
Mof_C 	C 	0.60151	0.40658	0.969	0.097
Mof_C 	C 	0.58516	0.39067	0.01673	0.064
Mof_H 	H 	0.586	0.4012	0.0064	-0.004
Mof_C 	C 	0.5683	0.39077	0.02959	-0.108
Mof_H 	H 	0.5582	0.4015	0.0287	0.067
Mof_C 	C 	0.56624	0.37495	0.04389	0.013
Mof_H 	H 	0.5547	0.3745	0.0531	0.034
Mof_C 	C 	0.58154	0.35954	0.04454	-0.056
Mof_C 	C 	0.59801	0.36115	0.03115	0.042
Mof_H 	H 	0.6082	0.3505	0.0315	0.012
Mof_C 	C 	0.58004	0.34207	0.05983	0.141
Mof_C 	C 	0.59503	0.31478	0.0757	0.135
Mof_C 	C 	0.56253	0.32474	0.08463	0.138
Mof_C 	C 	0.61283	0.28764	0.09659	0.047
Mof_H 	H 	0.601	0.2874	0.1054	0.008
Mof_C 	C 	0.61298	0.30177	0.07962	-0.059
Mof_C 	C 	0.63086	0.30276	0.06788	0.017
Mof_H 	H 	0.6319	0.3123	0.0567	0.034
Mof_C 	C 	0.64724	0.28981	0.07249	-0.111
Mof_H 	H 	0.6598	0.2904	0.0648	0.07
Mof_C 	C 	0.64493	0.27587	0.08862	0.068
Mof_H 	H 	0.656	0.2664	0.0912	-0.003
Mof_C 	C 	0.57552	0.2489	0.1219	0.107
Mof_C 	C 	0.6378	0.23247	0.16748	0.051
Mof_H 	H 	0.6479	0.2432	0.1665	0.002
Mof_C 	C 	0.63726	0.22106	0.18479	-0.097
Mof_H 	H 	0.6472	0.2233	0.1955	0.065
Mof_C 	C 	0.62179	0.20561	0.18705	0.004
Mof_H 	H 	0.6207	0.1976	0.1994	0.038
Mof_C 	C 	0.60827	0.20256	0.17042	-0.054
Mof_C 	C 	0.61005	0.21521	0.15304	0.045
Mof_H 	H 	0.6003	0.2134	0.1421	0.01
Mof_C 	C 	0.59207	0.18677	0.17139	0.132
Mof_N 	N 	0.51561	0.34003	0.1149	-0.225
Mof_N 	N 	0.61325	0.39535	0.97691	-0.261
Mof_N 	N 	0.60068	0.37672	0.01757	-0.23
Mof_N 	N 	0.56309	0.34057	0.07092	-0.156
Mof_N 	N 	0.59658	0.32977	0.06142	-0.154
Mof_N 	N 	0.57774	0.31151	0.08754	-0.153
Mof_N 	N 	0.62827	0.27488	0.10074	-0.235
Mof_N 	N 	0.62452	0.22967	0.15084	-0.227
Mof_N 	N 	0.59297	0.25102	0.12293	-0.268
Mof_N 	N 	0.57751	0.18687	0.15657	-0.151
Mof_S 	S 	0.58435	0.42257	0.95983	-0.064
Mof_S 	S 	0.54975	0.24641	0.12079	-0.062
Mof_C 	C 	0.53178	0.8399	0.60166	0.037
Mof_H 	H 	0.5349	0.8524	0.5943	0.013
Mof_C 	C 	0.54417	0.82273	0.59811	-0.052
Mof_C 	C 	0.53951	0.80437	0.60817	0.01
Mof_H 	H 	0.5481	0.7924	0.6066	0.037
Mof_C 	C 	0.52202	0.80383	0.62062	-0.1
Mof_H 	H 	0.5176	0.7911	0.6267	0.066
Mof_C 	C 	0.51099	0.82171	0.62422	0.058
Mof_H 	H 	0.4996	0.8212	0.6337	0.001
Mof_C 	C 	0.60151	0.90658	0.469	0.098
Mof_C 	C 	0.58516	0.89067	0.51673	0.065
Mof_H 	H 	0.586	0.9012	0.5064	-0.003
Mof_C 	C 	0.5683	0.89077	0.52959	-0.107
Mof_H 	H 	0.5582	0.9015	0.5287	0.068
Mof_C 	C 	0.56624	0.87495	0.54389	0.014
Mof_H 	H 	0.5547	0.8745	0.5531	0.035
Mof_C 	C 	0.58154	0.85954	0.54454	-0.055
Mof_C 	C 	0.59801	0.86115	0.53115	0.043
Mof_H 	H 	0.6082	0.8505	0.5315	0.013
Mof_C 	C 	0.58004	0.84207	0.55983	0.142
Mof_C 	C 	0.59503	0.81478	0.5757	0.136
Mof_C 	C 	0.56253	0.82474	0.58463	0.139
Mof_C 	C 	0.61283	0.78764	0.59659	0.048
Mof_H 	H 	0.601	0.7874	0.6054	0.009
Mof_C 	C 	0.61298	0.80177	0.57962	-0.058
Mof_C 	C 	0.63086	0.80276	0.56788	0.018
Mof_H 	H 	0.6319	0.8123	0.5567	0.035
Mof_C 	C 	0.64724	0.78981	0.57249	-0.11
Mof_H 	H 	0.6598	0.7904	0.5648	0.071
Mof_C 	C 	0.64493	0.77587	0.58862	0.069
Mof_H 	H 	0.656	0.7664	0.5912	-0.002
Mof_C 	C 	0.57552	0.7489	0.6219	0.108
Mof_C 	C 	0.6378	0.73247	0.66748	0.052
Mof_H 	H 	0.6479	0.7432	0.6665	0.003
Mof_C 	C 	0.63726	0.72106	0.68479	-0.096
Mof_H 	H 	0.6472	0.7233	0.6955	0.066
Mof_C 	C 	0.62179	0.70561	0.68705	0.005
Mof_H 	H 	0.6207	0.6976	0.6994	0.039
Mof_C 	C 	0.60827	0.70256	0.67042	-0.053
Mof_C 	C 	0.61005	0.71521	0.65304	0.046
Mof_H 	H 	0.6003	0.7134	0.6421	0.011
Mof_C 	C 	0.59207	0.68677	0.67139	0.133
Mof_N 	N 	0.51561	0.84003	0.6149	-0.224
Mof_N 	N 	0.61325	0.89535	0.47691	-0.26
Mof_N 	N 	0.60068	0.87672	0.51757	-0.229
Mof_N 	N 	0.56309	0.84057	0.57092	-0.155
Mof_N 	N 	0.59658	0.82977	0.56142	-0.153
Mof_N 	N 	0.57774	0.81151	0.58754	-0.152
Mof_N 	N 	0.62827	0.77488	0.60074	-0.234
Mof_N 	N 	0.62452	0.72967	0.65084	-0.226
Mof_N 	N 	0.59297	0.75102	0.62293	-0.267
Mof_N 	N 	0.57751	0.68687	0.65657	-0.15
Mof_S 	S 	0.58435	0.92257	0.45983	-0.063
Mof_S 	S 	0.54975	0.74641	0.62079	-0.061
Mof_C 	C 	0.03178	0.3399	0.60166	0.037
Mof_H 	H 	0.0349	0.3524	0.5943	0.013
Mof_C 	C 	0.04417	0.32273	0.59811	-0.052
Mof_C 	C 	0.03951	0.30437	0.60817	0.01
Mof_H 	H 	0.0481	0.2924	0.6066	0.037
Mof_C 	C 	0.02202	0.30383	0.62062	-0.1
Mof_H 	H 	0.0176	0.2911	0.6267	0.066
Mof_C 	C 	0.01099	0.32171	0.62422	0.058
Mof_H 	H 	0.9996	0.3212	0.6337	0.001
Mof_C 	C 	0.10151	0.40658	0.469	0.098
Mof_C 	C 	0.08516	0.39067	0.51673	0.065
Mof_H 	H 	0.086	0.4012	0.5064	-0.003
Mof_C 	C 	0.0683	0.39077	0.52959	-0.107
Mof_H 	H 	0.0582	0.4015	0.5287	0.068
Mof_C 	C 	0.06624	0.37495	0.54389	0.014
Mof_H 	H 	0.0547	0.3745	0.5531	0.035
Mof_C 	C 	0.08154	0.35954	0.54454	-0.055
Mof_C 	C 	0.09801	0.36115	0.53115	0.043
Mof_H 	H 	0.1082	0.3505	0.5315	0.013
Mof_C 	C 	0.08004	0.34207	0.55983	0.142
Mof_C 	C 	0.09503	0.31478	0.5757	0.136
Mof_C 	C 	0.06253	0.32474	0.58463	0.139
Mof_C 	C 	0.11283	0.28764	0.59659	0.048
Mof_H 	H 	0.101	0.2874	0.6054	0.009
Mof_C 	C 	0.11298	0.30177	0.57962	-0.058
Mof_C 	C 	0.13086	0.30276	0.56788	0.018
Mof_H 	H 	0.1319	0.3123	0.5567	0.035
Mof_C 	C 	0.14724	0.28981	0.57249	-0.11
Mof_H 	H 	0.1598	0.2904	0.5648	0.071
Mof_C 	C 	0.14493	0.27587	0.58862	0.069
Mof_H 	H 	0.156	0.2664	0.5912	-0.002
Mof_C 	C 	0.07552	0.2489	0.6219	0.108
Mof_C 	C 	0.1378	0.23247	0.66748	0.052
Mof_H 	H 	0.1479	0.2432	0.6665	0.003
Mof_C 	C 	0.13726	0.22106	0.68479	-0.096
Mof_H 	H 	0.1472	0.2233	0.6955	0.066
Mof_C 	C 	0.12179	0.20561	0.68705	0.005
Mof_H 	H 	0.1207	0.1976	0.6994	0.039
Mof_C 	C 	0.10827	0.20256	0.67042	-0.053
Mof_C 	C 	0.11005	0.21521	0.65304	0.046
Mof_H 	H 	0.1003	0.2134	0.6421	0.011
Mof_C 	C 	0.09207	0.18677	0.67139	0.133
Mof_N 	N 	0.01561	0.34003	0.6149	-0.224
Mof_N 	N 	0.11325	0.39535	0.47691	-0.26
Mof_N 	N 	0.10068	0.37672	0.51757	-0.229
Mof_N 	N 	0.06309	0.34057	0.57092	-0.155
Mof_N 	N 	0.09658	0.32977	0.56142	-0.153
Mof_N 	N 	0.07774	0.31151	0.58754	-0.152
Mof_N 	N 	0.12827	0.27488	0.60074	-0.234
Mof_N 	N 	0.12452	0.22967	0.65084	-0.226
Mof_N 	N 	0.09297	0.25102	0.62293	-0.267
Mof_N 	N 	0.07751	0.18687	0.65657	-0.15
Mof_S 	S 	0.08435	0.42257	0.45983	-0.063
Mof_S 	S 	0.04975	0.24641	0.62079	-0.061
Mof_C 	C 	0.03178	0.8399	0.10166	0.037
Mof_H 	H 	0.0349	0.8524	0.0943	0.013
Mof_C 	C 	0.04417	0.82273	0.09811	-0.052
Mof_C 	C 	0.03951	0.80437	0.10817	0.01
Mof_H 	H 	0.0481	0.7924	0.1066	0.037
Mof_C 	C 	0.02202	0.80383	0.12062	-0.1
Mof_H 	H 	0.0176	0.7911	0.1267	0.066
Mof_C 	C 	0.01099	0.82171	0.12422	0.058
Mof_H 	H 	0.9996	0.8212	0.1337	0.001
Mof_C 	C 	0.10151	0.90658	0.969	0.098
Mof_C 	C 	0.08516	0.89067	0.01673	0.065
Mof_H 	H 	0.086	0.9012	0.0064	-0.003
Mof_C 	C 	0.0683	0.89077	0.02959	-0.107
Mof_H 	H 	0.0582	0.9015	0.0287	0.068
Mof_C 	C 	0.06624	0.87495	0.04389	0.014
Mof_H 	H 	0.0547	0.8745	0.0531	0.035
Mof_C 	C 	0.08154	0.85954	0.04454	-0.055
Mof_C 	C 	0.09801	0.86115	0.03115	0.043
Mof_H 	H 	0.1082	0.8505	0.0315	0.013
Mof_C 	C 	0.08004	0.84207	0.05983	0.142
Mof_C 	C 	0.09503	0.81478	0.0757	0.136
Mof_C 	C 	0.06253	0.82474	0.08463	0.139
Mof_C 	C 	0.11283	0.78764	0.09659	0.048
Mof_H 	H 	0.101	0.7874	0.1054	0.009
Mof_C 	C 	0.11298	0.80177	0.07962	-0.058
Mof_C 	C 	0.13086	0.80276	0.06788	0.018
Mof_H 	H 	0.1319	0.8123	0.0567	0.035
Mof_C 	C 	0.14724	0.78981	0.07249	-0.11
Mof_H 	H 	0.1598	0.7904	0.0648	0.071
Mof_C 	C 	0.14493	0.77587	0.08862	0.069
Mof_H 	H 	0.156	0.7664	0.0912	-0.002
Mof_C 	C 	0.07552	0.7489	0.1219	0.108
Mof_C 	C 	0.1378	0.73247	0.16748	0.052
Mof_H 	H 	0.1479	0.7432	0.1665	0.003
Mof_C 	C 	0.13726	0.72106	0.18479	-0.096
Mof_H 	H 	0.1472	0.7233	0.1955	0.066
Mof_C 	C 	0.12179	0.70561	0.18705	0.005
Mof_H 	H 	0.1207	0.6976	0.1994	0.039
Mof_C 	C 	0.10827	0.70256	0.17042	-0.053
Mof_C 	C 	0.11005	0.71521	0.15304	0.046
Mof_H 	H 	0.1003	0.7134	0.1421	0.011
Mof_C 	C 	0.09207	0.68677	0.17139	0.133
Mof_N 	N 	0.01561	0.84003	0.1149	-0.224
Mof_N 	N 	0.11325	0.89535	0.97691	-0.26
Mof_N 	N 	0.10068	0.87672	0.01757	-0.229
Mof_N 	N 	0.06309	0.84057	0.07092	-0.155
Mof_N 	N 	0.09658	0.82977	0.06142	-0.153
Mof_N 	N 	0.07774	0.81151	0.08754	-0.152
Mof_N 	N 	0.12827	0.77488	0.10074	-0.234
Mof_N 	N 	0.12452	0.72967	0.15084	-0.226
Mof_N 	N 	0.09297	0.75102	0.12293	-0.267
Mof_N 	N 	0.07751	0.68687	0.15657	-0.15
Mof_S 	S 	0.08435	0.92257	0.95983	-0.063
Mof_S 	S 	0.04975	0.74641	0.12079	-0.061
Mof_C 	C 	0.71822	0.4101	0.60166	0.037
Mof_H 	H 	0.7151	0.3976	0.5943	0.013
Mof_C 	C 	0.70583	0.42727	0.59811	-0.052
Mof_C 	C 	0.71049	0.44563	0.60817	0.01
Mof_H 	H 	0.7019	0.4576	0.6066	0.037
Mof_C 	C 	0.72798	0.44617	0.62062	-0.1
Mof_H 	H 	0.7324	0.4589	0.6267	0.066
Mof_C 	C 	0.73901	0.42829	0.62422	0.058
Mof_H 	H 	0.7504	0.4288	0.6337	0.001
Mof_C 	C 	0.64849	0.34342	0.469	0.098
Mof_C 	C 	0.66484	0.35933	0.51673	0.065
Mof_H 	H 	0.664	0.3488	0.5064	-0.003
Mof_C 	C 	0.6817	0.35923	0.52959	-0.107
Mof_H 	H 	0.6918	0.3485	0.5287	0.068
Mof_C 	C 	0.68376	0.37505	0.54389	0.014
Mof_H 	H 	0.6953	0.3755	0.5531	0.035
Mof_C 	C 	0.66846	0.39046	0.54454	-0.055
Mof_C 	C 	0.65199	0.38885	0.53115	0.043
Mof_H 	H 	0.6418	0.3995	0.5315	0.013
Mof_C 	C 	0.66996	0.40793	0.55983	0.142
Mof_C 	C 	0.65497	0.43522	0.5757	0.136
Mof_C 	C 	0.68747	0.42526	0.58463	0.139
Mof_C 	C 	0.63717	0.46236	0.59659	0.048
Mof_H 	H 	0.649	0.4626	0.6054	0.009
Mof_C 	C 	0.63702	0.44823	0.57962	-0.058
Mof_C 	C 	0.61914	0.44724	0.56788	0.018
Mof_H 	H 	0.6181	0.4377	0.5567	0.035
Mof_C 	C 	0.60276	0.46019	0.57249	-0.11
Mof_H 	H 	0.5902	0.4596	0.5648	0.071
Mof_C 	C 	0.60507	0.47413	0.58862	0.069
Mof_H 	H 	0.594	0.4836	0.5912	-0.002
Mof_C 	C 	0.67448	0.5011	0.6219	0.108
Mof_C 	C 	0.6122	0.51753	0.66748	0.052
Mof_H 	H 	0.6021	0.5068	0.6665	0.003
Mof_C 	C 	0.61274	0.52894	0.68479	-0.096
Mof_H 	H 	0.6028	0.5267	0.6955	0.066
Mof_C 	C 	0.62821	0.54439	0.68705	0.005
Mof_H 	H 	0.6293	0.5524	0.6994	0.039
Mof_C 	C 	0.64173	0.54744	0.67042	-0.053
Mof_C 	C 	0.63995	0.53479	0.65304	0.046
Mof_H 	H 	0.6497	0.5366	0.6421	0.011
Mof_C 	C 	0.65793	0.56323	0.67139	0.133
Mof_N 	N 	0.73439	0.40997	0.6149	-0.224
Mof_N 	N 	0.63675	0.35465	0.47691	-0.26
Mof_N 	N 	0.64932	0.37328	0.51757	-0.229
Mof_N 	N 	0.68691	0.40943	0.57092	-0.155
Mof_N 	N 	0.65342	0.42023	0.56142	-0.153
Mof_N 	N 	0.67226	0.43849	0.58754	-0.152
Mof_N 	N 	0.62173	0.47512	0.60074	-0.234
Mof_N 	N 	0.62548	0.52033	0.65084	-0.226
Mof_N 	N 	0.65703	0.49898	0.62293	-0.267
Mof_N 	N 	0.67249	0.56313	0.65657	-0.15
Mof_S 	S 	0.66565	0.32743	0.45983	-0.063
Mof_S 	S 	0.70025	0.50359	0.62079	-0.061
Mof_C 	C 	0.71822	0.9101	0.10166	0.037
Mof_H 	H 	0.7151	0.8976	0.0943	0.013
Mof_C 	C 	0.70583	0.92727	0.09811	-0.052
Mof_C 	C 	0.71049	0.94563	0.10817	0.01
Mof_H 	H 	0.7019	0.9576	0.1066	0.037
Mof_C 	C 	0.72798	0.94617	0.12062	-0.1
Mof_H 	H 	0.7324	0.9589	0.1267	0.066
Mof_C 	C 	0.73901	0.92829	0.12422	0.058
Mof_H 	H 	0.7504	0.9288	0.1337	0.001
Mof_C 	C 	0.64849	0.84342	0.969	0.098
Mof_C 	C 	0.66484	0.85933	0.01673	0.065
Mof_H 	H 	0.664	0.8488	0.0064	-0.003
Mof_C 	C 	0.6817	0.85923	0.02959	-0.107
Mof_H 	H 	0.6918	0.8485	0.0287	0.068
Mof_C 	C 	0.68376	0.87505	0.04389	0.014
Mof_H 	H 	0.6953	0.8755	0.0531	0.035
Mof_C 	C 	0.66846	0.89046	0.04454	-0.055
Mof_C 	C 	0.65199	0.88885	0.03115	0.043
Mof_H 	H 	0.6418	0.8995	0.0315	0.013
Mof_C 	C 	0.66996	0.90793	0.05983	0.142
Mof_C 	C 	0.65497	0.93522	0.0757	0.136
Mof_C 	C 	0.68747	0.92526	0.08463	0.139
Mof_C 	C 	0.63717	0.96236	0.09659	0.048
Mof_H 	H 	0.649	0.9626	0.1054	0.009
Mof_C 	C 	0.63702	0.94823	0.07962	-0.058
Mof_C 	C 	0.61914	0.94724	0.06788	0.018
Mof_H 	H 	0.6181	0.9377	0.0567	0.035
Mof_C 	C 	0.60276	0.96019	0.07249	-0.11
Mof_H 	H 	0.5902	0.9596	0.0648	0.071
Mof_C 	C 	0.60507	0.97413	0.08862	0.069
Mof_H 	H 	0.594	0.9836	0.0912	-0.002
Mof_C 	C 	0.67448	0.0011	0.1219	0.108
Mof_C 	C 	0.6122	0.01753	0.16748	0.052
Mof_H 	H 	0.6021	0.0068	0.1665	0.003
Mof_C 	C 	0.61274	0.02894	0.18479	-0.096
Mof_H 	H 	0.6028	0.0267	0.1955	0.066
Mof_C 	C 	0.62821	0.04439	0.18705	0.005
Mof_H 	H 	0.6293	0.0524	0.1994	0.039
Mof_C 	C 	0.64173	0.04744	0.17042	-0.053
Mof_C 	C 	0.63995	0.03479	0.15304	0.046
Mof_H 	H 	0.6497	0.0366	0.1421	0.011
Mof_C 	C 	0.65793	0.06323	0.17139	0.133
Mof_N 	N 	0.73439	0.90997	0.1149	-0.224
Mof_N 	N 	0.63675	0.85465	0.97691	-0.26
Mof_N 	N 	0.64932	0.87328	0.01757	-0.229
Mof_N 	N 	0.68691	0.90943	0.07092	-0.155
Mof_N 	N 	0.65342	0.92023	0.06142	-0.153
Mof_N 	N 	0.67226	0.93849	0.08754	-0.152
Mof_N 	N 	0.62173	0.97512	0.10074	-0.234
Mof_N 	N 	0.62548	0.02033	0.15084	-0.226
Mof_N 	N 	0.65703	0.99898	0.12293	-0.267
Mof_N 	N 	0.67249	0.06313	0.15657	-0.15
Mof_S 	S 	0.66565	0.82743	0.95983	-0.063
Mof_S 	S 	0.70025	0.00359	0.12079	-0.061
Mof_C 	C 	0.21822	0.4101	0.10166	0.037
Mof_H 	H 	0.2151	0.3976	0.0943	0.013
Mof_C 	C 	0.20583	0.42727	0.09811	-0.052
Mof_C 	C 	0.21049	0.44563	0.10817	0.01
Mof_H 	H 	0.2019	0.4576	0.1066	0.037
Mof_C 	C 	0.22798	0.44617	0.12062	-0.1
Mof_H 	H 	0.2324	0.4589	0.1267	0.066
Mof_C 	C 	0.23901	0.42829	0.12422	0.058
Mof_H 	H 	0.2504	0.4288	0.1337	0.001
Mof_C 	C 	0.14849	0.34342	0.969	0.098
Mof_C 	C 	0.16484	0.35933	0.01673	0.065
Mof_H 	H 	0.164	0.3488	0.0064	-0.003
Mof_C 	C 	0.1817	0.35923	0.02959	-0.107
Mof_H 	H 	0.1918	0.3485	0.0287	0.068
Mof_C 	C 	0.18376	0.37505	0.04389	0.014
Mof_H 	H 	0.1953	0.3755	0.0531	0.035
Mof_C 	C 	0.16846	0.39046	0.04454	-0.055
Mof_C 	C 	0.15199	0.38885	0.03115	0.043
Mof_H 	H 	0.1418	0.3995	0.0315	0.013
Mof_C 	C 	0.16996	0.40793	0.05983	0.142
Mof_C 	C 	0.15497	0.43522	0.0757	0.136
Mof_C 	C 	0.18747	0.42526	0.08463	0.139
Mof_C 	C 	0.13717	0.46236	0.09659	0.048
Mof_H 	H 	0.149	0.4626	0.1054	0.009
Mof_C 	C 	0.13702	0.44823	0.07962	-0.058
Mof_C 	C 	0.11914	0.44724	0.06788	0.018
Mof_H 	H 	0.1181	0.4377	0.0567	0.035
Mof_C 	C 	0.10276	0.46019	0.07249	-0.11
Mof_H 	H 	0.0902	0.4596	0.0648	0.071
Mof_C 	C 	0.10507	0.47413	0.08862	0.069
Mof_H 	H 	0.094	0.4836	0.0912	-0.002
Mof_C 	C 	0.17448	0.5011	0.1219	0.108
Mof_C 	C 	0.1122	0.51753	0.16748	0.052
Mof_H 	H 	0.1021	0.5068	0.1665	0.003
Mof_C 	C 	0.11274	0.52894	0.18479	-0.096
Mof_H 	H 	0.1028	0.5267	0.1955	0.066
Mof_C 	C 	0.12821	0.54439	0.18705	0.005
Mof_H 	H 	0.1293	0.5524	0.1994	0.039
Mof_C 	C 	0.14173	0.54744	0.17042	-0.053
Mof_C 	C 	0.13995	0.53479	0.15304	0.046
Mof_H 	H 	0.1497	0.5366	0.1421	0.011
Mof_C 	C 	0.15793	0.56323	0.17139	0.133
Mof_N 	N 	0.23439	0.40997	0.1149	-0.224
Mof_N 	N 	0.13675	0.35465	0.97691	-0.26
Mof_N 	N 	0.14932	0.37328	0.01757	-0.229
Mof_N 	N 	0.18691	0.40943	0.07092	-0.155
Mof_N 	N 	0.15342	0.42023	0.06142	-0.153
Mof_N 	N 	0.17226	0.43849	0.08754	-0.152
Mof_N 	N 	0.12173	0.47512	0.10074	-0.234
Mof_N 	N 	0.12548	0.52033	0.15084	-0.226
Mof_N 	N 	0.15703	0.49898	0.12293	-0.267
Mof_N 	N 	0.17249	0.56313	0.15657	-0.15
Mof_S 	S 	0.16565	0.32743	0.95983	-0.063
Mof_S 	S 	0.20025	0.50359	0.12079	-0.061
Mof_C 	C 	0.21822	0.9101	0.60166	0.037
Mof_H 	H 	0.2151	0.8976	0.5943	0.013
Mof_C 	C 	0.20583	0.92727	0.59811	-0.052
Mof_C 	C 	0.21049	0.94563	0.60817	0.01
Mof_H 	H 	0.2019	0.9576	0.6066	0.037
Mof_C 	C 	0.22798	0.94617	0.62062	-0.1
Mof_H 	H 	0.2324	0.9589	0.6267	0.066
Mof_C 	C 	0.23901	0.92829	0.62422	0.058
Mof_H 	H 	0.2504	0.9288	0.6337	0.001
Mof_C 	C 	0.14849	0.84342	0.469	0.098
Mof_C 	C 	0.16484	0.85933	0.51673	0.065
Mof_H 	H 	0.164	0.8488	0.5064	-0.003
Mof_C 	C 	0.1817	0.85923	0.52959	-0.107
Mof_H 	H 	0.1918	0.8485	0.5287	0.068
Mof_C 	C 	0.18376	0.87505	0.54389	0.014
Mof_H 	H 	0.1953	0.8755	0.5531	0.035
Mof_C 	C 	0.16846	0.89046	0.54454	-0.055
Mof_C 	C 	0.15199	0.88885	0.53115	0.043
Mof_H 	H 	0.1418	0.8995	0.5315	0.013
Mof_C 	C 	0.16996	0.90793	0.55983	0.142
Mof_C 	C 	0.15497	0.93522	0.5757	0.136
Mof_C 	C 	0.18747	0.92526	0.58463	0.139
Mof_C 	C 	0.13717	0.96236	0.59659	0.048
Mof_H 	H 	0.149	0.9626	0.6054	0.009
Mof_C 	C 	0.13702	0.94823	0.57962	-0.058
Mof_C 	C 	0.11914	0.94724	0.56788	0.018
Mof_H 	H 	0.1181	0.9377	0.5567	0.035
Mof_C 	C 	0.10276	0.96019	0.57249	-0.11
Mof_H 	H 	0.0902	0.9596	0.5648	0.071
Mof_C 	C 	0.10507	0.97413	0.58862	0.069
Mof_H 	H 	0.094	0.9836	0.5912	-0.002
Mof_C 	C 	0.17448	0.0011	0.6219	0.108
Mof_C 	C 	0.1122	0.01753	0.66748	0.052
Mof_H 	H 	0.1021	0.0068	0.6665	0.003
Mof_C 	C 	0.11274	0.02894	0.68479	-0.096
Mof_H 	H 	0.1028	0.0267	0.6955	0.066
Mof_C 	C 	0.12821	0.04439	0.68705	0.005
Mof_H 	H 	0.1293	0.0524	0.6994	0.039
Mof_C 	C 	0.14173	0.04744	0.67042	-0.053
Mof_C 	C 	0.13995	0.03479	0.65304	0.046
Mof_H 	H 	0.1497	0.0366	0.6421	0.011
Mof_C 	C 	0.15793	0.06323	0.67139	0.133
Mof_N 	N 	0.23439	0.90997	0.6149	-0.224
Mof_N 	N 	0.13675	0.85465	0.47691	-0.26
Mof_N 	N 	0.14932	0.87328	0.51757	-0.229
Mof_N 	N 	0.18691	0.90943	0.57092	-0.155
Mof_N 	N 	0.15342	0.92023	0.56142	-0.153
Mof_N 	N 	0.17226	0.93849	0.58754	-0.152
Mof_N 	N 	0.12173	0.97512	0.60074	-0.234
Mof_N 	N 	0.12548	0.02033	0.65084	-0.226
Mof_N 	N 	0.15703	0.99898	0.62293	-0.267
Mof_N 	N 	0.17249	0.06313	0.65657	-0.15
Mof_S 	S 	0.16565	0.82743	0.45983	-0.063
Mof_S 	S 	0.20025	0.00359	0.62079	-0.061
Mof_C 	C 	0.21822	0.8399	0.14834	0.037
Mof_H 	H 	0.2151	0.8524	0.1557	0.013
Mof_C 	C 	0.20583	0.82273	0.15189	-0.052
Mof_C 	C 	0.21049	0.80437	0.14183	0.01
Mof_H 	H 	0.2019	0.7924	0.1434	0.037
Mof_C 	C 	0.22798	0.80383	0.12938	-0.1
Mof_H 	H 	0.2324	0.7911	0.1233	0.066
Mof_C 	C 	0.23901	0.82171	0.12578	0.058
Mof_H 	H 	0.2504	0.8212	0.1163	0.001
Mof_C 	C 	0.14849	0.90658	0.281	0.098
Mof_C 	C 	0.16484	0.89067	0.23327	0.065
Mof_H 	H 	0.164	0.9012	0.2436	-0.003
Mof_C 	C 	0.1817	0.89077	0.22041	-0.107
Mof_H 	H 	0.1918	0.9015	0.2213	0.068
Mof_C 	C 	0.18376	0.87495	0.20611	0.014
Mof_H 	H 	0.1953	0.8745	0.1969	0.035
Mof_C 	C 	0.16846	0.85954	0.20546	-0.055
Mof_C 	C 	0.15199	0.86115	0.21885	0.043
Mof_H 	H 	0.1418	0.8505	0.2185	0.013
Mof_C 	C 	0.16996	0.84207	0.19017	0.142
Mof_C 	C 	0.15497	0.81478	0.1743	0.136
Mof_C 	C 	0.18747	0.82474	0.16537	0.139
Mof_C 	C 	0.13717	0.78764	0.15341	0.048
Mof_H 	H 	0.149	0.7874	0.1446	0.009
Mof_C 	C 	0.13702	0.80177	0.17038	-0.058
Mof_C 	C 	0.11914	0.80276	0.18212	0.018
Mof_H 	H 	0.1181	0.8123	0.1933	0.035
Mof_C 	C 	0.10276	0.78981	0.17751	-0.11
Mof_H 	H 	0.0902	0.7904	0.1852	0.071
Mof_C 	C 	0.10507	0.77587	0.16138	0.069
Mof_H 	H 	0.094	0.7664	0.1588	-0.002
Mof_C 	C 	0.17448	0.7489	0.1281	0.108
Mof_C 	C 	0.1122	0.73247	0.08252	0.052
Mof_H 	H 	0.1021	0.7432	0.0835	0.003
Mof_C 	C 	0.11274	0.72106	0.06521	-0.096
Mof_H 	H 	0.1028	0.7233	0.0545	0.066
Mof_C 	C 	0.12821	0.70561	0.06295	0.005
Mof_H 	H 	0.1293	0.6976	0.0506	0.039
Mof_C 	C 	0.14173	0.70256	0.07958	-0.053
Mof_C 	C 	0.13995	0.71521	0.09696	0.046
Mof_H 	H 	0.1497	0.7134	0.1079	0.011
Mof_C 	C 	0.15793	0.68677	0.07861	0.133
Mof_N 	N 	0.23439	0.84003	0.1351	-0.224
Mof_N 	N 	0.13675	0.89535	0.27309	-0.26
Mof_N 	N 	0.14932	0.87672	0.23243	-0.229
Mof_N 	N 	0.18691	0.84057	0.17908	-0.155
Mof_N 	N 	0.15342	0.82977	0.18858	-0.153
Mof_N 	N 	0.17226	0.81151	0.16246	-0.152
Mof_N 	N 	0.12173	0.77488	0.14926	-0.234
Mof_N 	N 	0.12548	0.72967	0.09916	-0.226
Mof_N 	N 	0.15703	0.75102	0.12707	-0.267
Mof_N 	N 	0.17249	0.68687	0.09343	-0.15
Mof_S 	S 	0.16565	0.92257	0.29017	-0.063
Mof_S 	S 	0.20025	0.74641	0.12921	-0.061
Mof_C 	C 	0.21822	0.3399	0.64834	0.037
Mof_H 	H 	0.2151	0.3524	0.6557	0.013
Mof_C 	C 	0.20583	0.32273	0.65189	-0.052
Mof_C 	C 	0.21049	0.30437	0.64183	0.01
Mof_H 	H 	0.2019	0.2924	0.6434	0.037
Mof_C 	C 	0.22798	0.30383	0.62938	-0.1
Mof_H 	H 	0.2324	0.2911	0.6233	0.066
Mof_C 	C 	0.23901	0.32171	0.62578	0.058
Mof_H 	H 	0.2504	0.3212	0.6163	0.001
Mof_C 	C 	0.14849	0.40658	0.781	0.098
Mof_C 	C 	0.16484	0.39067	0.73327	0.065
Mof_H 	H 	0.164	0.4012	0.7436	-0.003
Mof_C 	C 	0.1817	0.39077	0.72041	-0.107
Mof_H 	H 	0.1918	0.4015	0.7213	0.068
Mof_C 	C 	0.18376	0.37495	0.70611	0.014
Mof_H 	H 	0.1953	0.3745	0.6969	0.035
Mof_C 	C 	0.16846	0.35954	0.70546	-0.055
Mof_C 	C 	0.15199	0.36115	0.71885	0.043
Mof_H 	H 	0.1418	0.3505	0.7185	0.013
Mof_C 	C 	0.16996	0.34207	0.69017	0.142
Mof_C 	C 	0.15497	0.31478	0.6743	0.136
Mof_C 	C 	0.18747	0.32474	0.66537	0.139
Mof_C 	C 	0.13717	0.28764	0.65341	0.048
Mof_H 	H 	0.149	0.2874	0.6446	0.009
Mof_C 	C 	0.13702	0.30177	0.67038	-0.058
Mof_C 	C 	0.11914	0.30276	0.68212	0.018
Mof_H 	H 	0.1181	0.3123	0.6933	0.035
Mof_C 	C 	0.10276	0.28981	0.67751	-0.11
Mof_H 	H 	0.0902	0.2904	0.6852	0.071
Mof_C 	C 	0.10507	0.27587	0.66138	0.069
Mof_H 	H 	0.094	0.2664	0.6588	-0.002
Mof_C 	C 	0.17448	0.2489	0.6281	0.108
Mof_C 	C 	0.1122	0.23247	0.58252	0.052
Mof_H 	H 	0.1021	0.2432	0.5835	0.003
Mof_C 	C 	0.11274	0.22106	0.56521	-0.096
Mof_H 	H 	0.1028	0.2233	0.5545	0.066
Mof_C 	C 	0.12821	0.20561	0.56295	0.005
Mof_H 	H 	0.1293	0.1976	0.5506	0.039
Mof_C 	C 	0.14173	0.20256	0.57958	-0.053
Mof_C 	C 	0.13995	0.21521	0.59696	0.046
Mof_H 	H 	0.1497	0.2134	0.6079	0.011
Mof_C 	C 	0.15793	0.18677	0.57861	0.133
Mof_N 	N 	0.23439	0.34003	0.6351	-0.224
Mof_N 	N 	0.13675	0.39535	0.77309	-0.26
Mof_N 	N 	0.14932	0.37672	0.73243	-0.229
Mof_N 	N 	0.18691	0.34057	0.67908	-0.155
Mof_N 	N 	0.15342	0.32977	0.68858	-0.153
Mof_N 	N 	0.17226	0.31151	0.66246	-0.152
Mof_N 	N 	0.12173	0.27488	0.64926	-0.234
Mof_N 	N 	0.12548	0.22967	0.59916	-0.226
Mof_N 	N 	0.15703	0.25102	0.62707	-0.267
Mof_N 	N 	0.17249	0.18687	0.59343	-0.15
Mof_S 	S 	0.16565	0.42257	0.79017	-0.063
Mof_S 	S 	0.20025	0.24641	0.62921	-0.061
Mof_C 	C 	0.71822	0.8399	0.64834	0.037
Mof_H 	H 	0.7151	0.8524	0.6557	0.013
Mof_C 	C 	0.70583	0.82273	0.65189	-0.052
Mof_C 	C 	0.71049	0.80437	0.64183	0.01
Mof_H 	H 	0.7019	0.7924	0.6434	0.037
Mof_C 	C 	0.72798	0.80383	0.62938	-0.1
Mof_H 	H 	0.7324	0.7911	0.6233	0.066
Mof_C 	C 	0.73901	0.82171	0.62578	0.058
Mof_H 	H 	0.7504	0.8212	0.6163	0.001
Mof_C 	C 	0.64849	0.90658	0.781	0.098
Mof_C 	C 	0.66484	0.89067	0.73327	0.065
Mof_H 	H 	0.664	0.9012	0.7436	-0.003
Mof_C 	C 	0.6817	0.89077	0.72041	-0.107
Mof_H 	H 	0.6918	0.9015	0.7213	0.068
Mof_C 	C 	0.68376	0.87495	0.70611	0.014
Mof_H 	H 	0.6953	0.8745	0.6969	0.035
Mof_C 	C 	0.66846	0.85954	0.70546	-0.055
Mof_C 	C 	0.65199	0.86115	0.71885	0.043
Mof_H 	H 	0.6418	0.8505	0.7185	0.013
Mof_C 	C 	0.66996	0.84207	0.69017	0.142
Mof_C 	C 	0.65497	0.81478	0.6743	0.136
Mof_C 	C 	0.68747	0.82474	0.66537	0.139
Mof_C 	C 	0.63717	0.78764	0.65341	0.048
Mof_H 	H 	0.649	0.7874	0.6446	0.009
Mof_C 	C 	0.63702	0.80177	0.67038	-0.058
Mof_C 	C 	0.61914	0.80276	0.68212	0.018
Mof_H 	H 	0.6181	0.8123	0.6933	0.035
Mof_C 	C 	0.60276	0.78981	0.67751	-0.11
Mof_H 	H 	0.5902	0.7904	0.6852	0.071
Mof_C 	C 	0.60507	0.77587	0.66138	0.069
Mof_H 	H 	0.594	0.7664	0.6588	-0.002
Mof_C 	C 	0.67448	0.7489	0.6281	0.108
Mof_C 	C 	0.6122	0.73247	0.58252	0.052
Mof_H 	H 	0.6021	0.7432	0.5835	0.003
Mof_C 	C 	0.61274	0.72106	0.56521	-0.096
Mof_H 	H 	0.6028	0.7233	0.5545	0.066
Mof_C 	C 	0.62821	0.70561	0.56295	0.005
Mof_H 	H 	0.6293	0.6976	0.5506	0.039
Mof_C 	C 	0.64173	0.70256	0.57958	-0.053
Mof_C 	C 	0.63995	0.71521	0.59696	0.046
Mof_H 	H 	0.6497	0.7134	0.6079	0.011
Mof_C 	C 	0.65793	0.68677	0.57861	0.133
Mof_N 	N 	0.73439	0.84003	0.6351	-0.224
Mof_N 	N 	0.63675	0.89535	0.77309	-0.26
Mof_N 	N 	0.64932	0.87672	0.73243	-0.229
Mof_N 	N 	0.68691	0.84057	0.67908	-0.155
Mof_N 	N 	0.65342	0.82977	0.68858	-0.153
Mof_N 	N 	0.67226	0.81151	0.66246	-0.152
Mof_N 	N 	0.62173	0.77488	0.64926	-0.234
Mof_N 	N 	0.62548	0.72967	0.59916	-0.226
Mof_N 	N 	0.65703	0.75102	0.62707	-0.267
Mof_N 	N 	0.67249	0.68687	0.59343	-0.15
Mof_S 	S 	0.66565	0.92257	0.79017	-0.063
Mof_S 	S 	0.70025	0.74641	0.62921	-0.061
Mof_C 	C 	0.71822	0.3399	0.14834	0.037
Mof_H 	H 	0.7151	0.3524	0.1557	0.013
Mof_C 	C 	0.70583	0.32273	0.15189	-0.052
Mof_C 	C 	0.71049	0.30437	0.14183	0.01
Mof_H 	H 	0.7019	0.2924	0.1434	0.037
Mof_C 	C 	0.72798	0.30383	0.12938	-0.1
Mof_H 	H 	0.7324	0.2911	0.1233	0.066
Mof_C 	C 	0.73901	0.32171	0.12578	0.058
Mof_H 	H 	0.7504	0.3212	0.1163	0.001
Mof_C 	C 	0.64849	0.40658	0.281	0.098
Mof_C 	C 	0.66484	0.39067	0.23327	0.065
Mof_H 	H 	0.664	0.4012	0.2436	-0.003
Mof_C 	C 	0.6817	0.39077	0.22041	-0.107
Mof_H 	H 	0.6918	0.4015	0.2213	0.068
Mof_C 	C 	0.68376	0.37495	0.20611	0.014
Mof_H 	H 	0.6953	0.3745	0.1969	0.035
Mof_C 	C 	0.66846	0.35954	0.20546	-0.055
Mof_C 	C 	0.65199	0.36115	0.21885	0.043
Mof_H 	H 	0.6418	0.3505	0.2185	0.013
Mof_C 	C 	0.66996	0.34207	0.19017	0.142
Mof_C 	C 	0.65497	0.31478	0.1743	0.136
Mof_C 	C 	0.68747	0.32474	0.16537	0.139
Mof_C 	C 	0.63717	0.28764	0.15341	0.048
Mof_H 	H 	0.649	0.2874	0.1446	0.009
Mof_C 	C 	0.63702	0.30177	0.17038	-0.058
Mof_C 	C 	0.61914	0.30276	0.18212	0.018
Mof_H 	H 	0.6181	0.3123	0.1933	0.035
Mof_C 	C 	0.60276	0.28981	0.17751	-0.11
Mof_H 	H 	0.5902	0.2904	0.1852	0.071
Mof_C 	C 	0.60507	0.27587	0.16138	0.069
Mof_H 	H 	0.594	0.2664	0.1588	-0.002
Mof_C 	C 	0.67448	0.2489	0.1281	0.108
Mof_C 	C 	0.6122	0.23247	0.08252	0.052
Mof_H 	H 	0.6021	0.2432	0.0835	0.003
Mof_C 	C 	0.61274	0.22106	0.06521	-0.096
Mof_H 	H 	0.6028	0.2233	0.0545	0.066
Mof_C 	C 	0.62821	0.20561	0.06295	0.005
Mof_H 	H 	0.6293	0.1976	0.0506	0.039
Mof_C 	C 	0.64173	0.20256	0.07958	-0.053
Mof_C 	C 	0.63995	0.21521	0.09696	0.046
Mof_H 	H 	0.6497	0.2134	0.1079	0.011
Mof_C 	C 	0.65793	0.18677	0.07861	0.133
Mof_N 	N 	0.73439	0.34003	0.1351	-0.224
Mof_N 	N 	0.63675	0.39535	0.27309	-0.26
Mof_N 	N 	0.64932	0.37672	0.23243	-0.229
Mof_N 	N 	0.68691	0.34057	0.17908	-0.155
Mof_N 	N 	0.65342	0.32977	0.18858	-0.153
Mof_N 	N 	0.67226	0.31151	0.16246	-0.152
Mof_N 	N 	0.62173	0.27488	0.14926	-0.234
Mof_N 	N 	0.62548	0.22967	0.09916	-0.226
Mof_N 	N 	0.65703	0.25102	0.12707	-0.267
Mof_N 	N 	0.67249	0.18687	0.09343	-0.15
Mof_S 	S 	0.66565	0.42257	0.29017	-0.063
Mof_S 	S 	0.70025	0.24641	0.12921	-0.061
Mof_C 	C 	0.03178	0.9101	0.64834	0.037
Mof_H 	H 	0.0349	0.8976	0.6557	0.013
Mof_C 	C 	0.04417	0.92727	0.65189	-0.052
Mof_C 	C 	0.03951	0.94563	0.64183	0.01
Mof_H 	H 	0.0481	0.9576	0.6434	0.037
Mof_C 	C 	0.02202	0.94617	0.62938	-0.1
Mof_H 	H 	0.0176	0.9589	0.6233	0.066
Mof_C 	C 	0.01099	0.92829	0.62578	0.058
Mof_H 	H 	0.9996	0.9288	0.6163	0.001
Mof_C 	C 	0.10151	0.84342	0.781	0.098
Mof_C 	C 	0.08516	0.85933	0.73327	0.065
Mof_H 	H 	0.086	0.8488	0.7436	-0.003
Mof_C 	C 	0.0683	0.85923	0.72041	-0.107
Mof_H 	H 	0.0582	0.8485	0.7213	0.068
Mof_C 	C 	0.06624	0.87505	0.70611	0.014
Mof_H 	H 	0.0547	0.8755	0.6969	0.035
Mof_C 	C 	0.08154	0.89046	0.70546	-0.055
Mof_C 	C 	0.09801	0.88885	0.71885	0.043
Mof_H 	H 	0.1082	0.8995	0.7185	0.013
Mof_C 	C 	0.08004	0.90793	0.69017	0.142
Mof_C 	C 	0.09503	0.93522	0.6743	0.136
Mof_C 	C 	0.06253	0.92526	0.66537	0.139
Mof_C 	C 	0.11283	0.96236	0.65341	0.048
Mof_H 	H 	0.101	0.9626	0.6446	0.009
Mof_C 	C 	0.11298	0.94823	0.67038	-0.058
Mof_C 	C 	0.13086	0.94724	0.68212	0.018
Mof_H 	H 	0.1319	0.9377	0.6933	0.035
Mof_C 	C 	0.14724	0.96019	0.67751	-0.11
Mof_H 	H 	0.1598	0.9596	0.6852	0.071
Mof_C 	C 	0.14493	0.97413	0.66138	0.069
Mof_H 	H 	0.156	0.9836	0.6588	-0.002
Mof_C 	C 	0.07552	0.0011	0.6281	0.108
Mof_C 	C 	0.1378	0.01753	0.58252	0.052
Mof_H 	H 	0.1479	0.0068	0.5835	0.003
Mof_C 	C 	0.13726	0.02894	0.56521	-0.096
Mof_H 	H 	0.1472	0.0267	0.5545	0.066
Mof_C 	C 	0.12179	0.04439	0.56295	0.005
Mof_H 	H 	0.1207	0.0524	0.5506	0.039
Mof_C 	C 	0.10827	0.04744	0.57958	-0.053
Mof_C 	C 	0.11005	0.03479	0.59696	0.046
Mof_H 	H 	0.1003	0.0366	0.6079	0.011
Mof_C 	C 	0.09207	0.06323	0.57861	0.133
Mof_N 	N 	0.01561	0.90997	0.6351	-0.224
Mof_N 	N 	0.11325	0.85465	0.77309	-0.26
Mof_N 	N 	0.10068	0.87328	0.73243	-0.229
Mof_N 	N 	0.06309	0.90943	0.67908	-0.155
Mof_N 	N 	0.09658	0.92023	0.68858	-0.153
Mof_N 	N 	0.07774	0.93849	0.66246	-0.152
Mof_N 	N 	0.12827	0.97512	0.64926	-0.234
Mof_N 	N 	0.12452	0.02033	0.59916	-0.226
Mof_N 	N 	0.09297	0.99898	0.62707	-0.267
Mof_N 	N 	0.07751	0.06313	0.59343	-0.15
Mof_S 	S 	0.08435	0.82743	0.79017	-0.063
Mof_S 	S 	0.04975	0.00359	0.62921	-0.061
Mof_C 	C 	0.03178	0.4101	0.14834	0.037
Mof_H 	H 	0.0349	0.3976	0.1557	0.013
Mof_C 	C 	0.04417	0.42727	0.15189	-0.052
Mof_C 	C 	0.03951	0.44563	0.14183	0.01
Mof_H 	H 	0.0481	0.4576	0.1434	0.037
Mof_C 	C 	0.02202	0.44617	0.12938	-0.1
Mof_H 	H 	0.0176	0.4589	0.1233	0.066
Mof_C 	C 	0.01099	0.42829	0.12578	0.058
Mof_H 	H 	0.9996	0.4288	0.1163	0.001
Mof_C 	C 	0.10151	0.34342	0.281	0.098
Mof_C 	C 	0.08516	0.35933	0.23327	0.065
Mof_H 	H 	0.086	0.3488	0.2436	-0.003
Mof_C 	C 	0.0683	0.35923	0.22041	-0.107
Mof_H 	H 	0.0582	0.3485	0.2213	0.068
Mof_C 	C 	0.06624	0.37505	0.20611	0.014
Mof_H 	H 	0.0547	0.3755	0.1969	0.035
Mof_C 	C 	0.08154	0.39046	0.20546	-0.055
Mof_C 	C 	0.09801	0.38885	0.21885	0.043
Mof_H 	H 	0.1082	0.3995	0.2185	0.013
Mof_C 	C 	0.08004	0.40793	0.19017	0.142
Mof_C 	C 	0.09503	0.43522	0.1743	0.136
Mof_C 	C 	0.06253	0.42526	0.16537	0.139
Mof_C 	C 	0.11283	0.46236	0.15341	0.048
Mof_H 	H 	0.101	0.4626	0.1446	0.009
Mof_C 	C 	0.11298	0.44823	0.17038	-0.058
Mof_C 	C 	0.13086	0.44724	0.18212	0.018
Mof_H 	H 	0.1319	0.4377	0.1933	0.035
Mof_C 	C 	0.14724	0.46019	0.17751	-0.11
Mof_H 	H 	0.1598	0.4596	0.1852	0.071
Mof_C 	C 	0.14493	0.47413	0.16138	0.069
Mof_H 	H 	0.156	0.4836	0.1588	-0.002
Mof_C 	C 	0.07552	0.5011	0.1281	0.108
Mof_C 	C 	0.1378	0.51753	0.08252	0.052
Mof_H 	H 	0.1479	0.5068	0.0835	0.003
Mof_C 	C 	0.13726	0.52894	0.06521	-0.096
Mof_H 	H 	0.1472	0.5267	0.0545	0.066
Mof_C 	C 	0.12179	0.54439	0.06295	0.005
Mof_H 	H 	0.1207	0.5524	0.0506	0.039
Mof_C 	C 	0.10827	0.54744	0.07958	-0.053
Mof_C 	C 	0.11005	0.53479	0.09696	0.046
Mof_H 	H 	0.1003	0.5366	0.1079	0.011
Mof_C 	C 	0.09207	0.56323	0.07861	0.133
Mof_N 	N 	0.01561	0.40997	0.1351	-0.224
Mof_N 	N 	0.11325	0.35465	0.27309	-0.26
Mof_N 	N 	0.10068	0.37328	0.23243	-0.229
Mof_N 	N 	0.06309	0.40943	0.17908	-0.155
Mof_N 	N 	0.09658	0.42023	0.18858	-0.153
Mof_N 	N 	0.07774	0.43849	0.16246	-0.152
Mof_N 	N 	0.12827	0.47512	0.14926	-0.234
Mof_N 	N 	0.12452	0.52033	0.09916	-0.226
Mof_N 	N 	0.09297	0.49898	0.12707	-0.267
Mof_N 	N 	0.07751	0.56313	0.09343	-0.15
Mof_S 	S 	0.08435	0.32743	0.29017	-0.063
Mof_S 	S 	0.04975	0.50359	0.12921	-0.061
Mof_C 	C 	0.53178	0.9101	0.14834	0.037
Mof_H 	H 	0.5349	0.8976	0.1557	0.013
Mof_C 	C 	0.54417	0.92727	0.15189	-0.052
Mof_C 	C 	0.53951	0.94563	0.14183	0.01
Mof_H 	H 	0.5481	0.9576	0.1434	0.037
Mof_C 	C 	0.52202	0.94617	0.12938	-0.1
Mof_H 	H 	0.5176	0.9589	0.1233	0.066
Mof_C 	C 	0.51099	0.92829	0.12578	0.058
Mof_H 	H 	0.4996	0.9288	0.1163	0.001
Mof_C 	C 	0.60151	0.84342	0.281	0.098
Mof_C 	C 	0.58516	0.85933	0.23327	0.065
Mof_H 	H 	0.586	0.8488	0.2436	-0.003
Mof_C 	C 	0.5683	0.85923	0.22041	-0.107
Mof_H 	H 	0.5582	0.8485	0.2213	0.068
Mof_C 	C 	0.56624	0.87505	0.20611	0.014
Mof_H 	H 	0.5547	0.8755	0.1969	0.035
Mof_C 	C 	0.58154	0.89046	0.20546	-0.055
Mof_C 	C 	0.59801	0.88885	0.21885	0.043
Mof_H 	H 	0.6082	0.8995	0.2185	0.013
Mof_C 	C 	0.58004	0.90793	0.19017	0.142
Mof_C 	C 	0.59503	0.93522	0.1743	0.136
Mof_C 	C 	0.56253	0.92526	0.16537	0.139
Mof_C 	C 	0.61283	0.96236	0.15341	0.048
Mof_H 	H 	0.601	0.9626	0.1446	0.009
Mof_C 	C 	0.61298	0.94823	0.17038	-0.058
Mof_C 	C 	0.63086	0.94724	0.18212	0.018
Mof_H 	H 	0.6319	0.9377	0.1933	0.035
Mof_C 	C 	0.64724	0.96019	0.17751	-0.11
Mof_H 	H 	0.6598	0.9596	0.1852	0.071
Mof_C 	C 	0.64493	0.97413	0.16138	0.069
Mof_H 	H 	0.656	0.9836	0.1588	-0.002
Mof_C 	C 	0.57552	0.0011	0.1281	0.108
Mof_C 	C 	0.6378	0.01753	0.08252	0.052
Mof_H 	H 	0.6479	0.0068	0.0835	0.003
Mof_C 	C 	0.63726	0.02894	0.06521	-0.096
Mof_H 	H 	0.6472	0.0267	0.0545	0.066
Mof_C 	C 	0.62179	0.04439	0.06295	0.005
Mof_H 	H 	0.6207	0.0524	0.0506	0.039
Mof_C 	C 	0.60827	0.04744	0.07958	-0.053
Mof_C 	C 	0.61005	0.03479	0.09696	0.046
Mof_H 	H 	0.6003	0.0366	0.1079	0.011
Mof_C 	C 	0.59207	0.06323	0.07861	0.133
Mof_N 	N 	0.51561	0.90997	0.1351	-0.224
Mof_N 	N 	0.61325	0.85465	0.27309	-0.26
Mof_N 	N 	0.60068	0.87328	0.23243	-0.229
Mof_N 	N 	0.56309	0.90943	0.17908	-0.155
Mof_N 	N 	0.59658	0.92023	0.18858	-0.153
Mof_N 	N 	0.57774	0.93849	0.16246	-0.152
Mof_N 	N 	0.62827	0.97512	0.14926	-0.234
Mof_N 	N 	0.62452	0.02033	0.09916	-0.226
Mof_N 	N 	0.59297	0.99898	0.12707	-0.267
Mof_N 	N 	0.57751	0.06313	0.09343	-0.15
Mof_S 	S 	0.58435	0.82743	0.29017	-0.063
Mof_S 	S 	0.54975	0.00359	0.12921	-0.061
Mof_C 	C 	0.53178	0.4101	0.64834	0.037
Mof_H 	H 	0.5349	0.3976	0.6557	0.013
Mof_C 	C 	0.54417	0.42727	0.65189	-0.052
Mof_C 	C 	0.53951	0.44563	0.64183	0.01
Mof_H 	H 	0.5481	0.4576	0.6434	0.037
Mof_C 	C 	0.52202	0.44617	0.62938	-0.1
Mof_H 	H 	0.5176	0.4589	0.6233	0.066
Mof_C 	C 	0.51099	0.42829	0.62578	0.058
Mof_H 	H 	0.4996	0.4288	0.6163	0.001
Mof_C 	C 	0.60151	0.34342	0.781	0.098
Mof_C 	C 	0.58516	0.35933	0.73327	0.065
Mof_H 	H 	0.586	0.3488	0.7436	-0.003
Mof_C 	C 	0.5683	0.35923	0.72041	-0.107
Mof_H 	H 	0.5582	0.3485	0.7213	0.068
Mof_C 	C 	0.56624	0.37505	0.70611	0.014
Mof_H 	H 	0.5547	0.3755	0.6969	0.035
Mof_C 	C 	0.58154	0.39046	0.70546	-0.055
Mof_C 	C 	0.59801	0.38885	0.71885	0.043
Mof_H 	H 	0.6082	0.3995	0.7185	0.013
Mof_C 	C 	0.58004	0.40793	0.69017	0.142
Mof_C 	C 	0.59503	0.43522	0.6743	0.136
Mof_C 	C 	0.56253	0.42526	0.66537	0.139
Mof_C 	C 	0.61283	0.46236	0.65341	0.048
Mof_H 	H 	0.601	0.4626	0.6446	0.009
Mof_C 	C 	0.61298	0.44823	0.67038	-0.058
Mof_C 	C 	0.63086	0.44724	0.68212	0.018
Mof_H 	H 	0.6319	0.4377	0.6933	0.035
Mof_C 	C 	0.64724	0.46019	0.67751	-0.11
Mof_H 	H 	0.6598	0.4596	0.6852	0.071
Mof_C 	C 	0.64493	0.47413	0.66138	0.069
Mof_H 	H 	0.656	0.4836	0.6588	-0.002
Mof_C 	C 	0.57552	0.5011	0.6281	0.108
Mof_C 	C 	0.6378	0.51753	0.58252	0.052
Mof_H 	H 	0.6479	0.5068	0.5835	0.003
Mof_C 	C 	0.63726	0.52894	0.56521	-0.096
Mof_H 	H 	0.6472	0.5267	0.5545	0.066
Mof_C 	C 	0.62179	0.54439	0.56295	0.005
Mof_H 	H 	0.6207	0.5524	0.5506	0.039
Mof_C 	C 	0.60827	0.54744	0.57958	-0.053
Mof_C 	C 	0.61005	0.53479	0.59696	0.046
Mof_H 	H 	0.6003	0.5366	0.6079	0.011
Mof_C 	C 	0.59207	0.56323	0.57861	0.133
Mof_N 	N 	0.51561	0.40997	0.6351	-0.224
Mof_N 	N 	0.61325	0.35465	0.77309	-0.26
Mof_N 	N 	0.60068	0.37328	0.73243	-0.229
Mof_N 	N 	0.56309	0.40943	0.67908	-0.155
Mof_N 	N 	0.59658	0.42023	0.68858	-0.153
Mof_N 	N 	0.57774	0.43849	0.66246	-0.152
Mof_N 	N 	0.62827	0.47512	0.64926	-0.234
Mof_N 	N 	0.62452	0.52033	0.59916	-0.226
Mof_N 	N 	0.59297	0.49898	0.62707	-0.267
Mof_N 	N 	0.57751	0.56313	0.59343	-0.15
Mof_S 	S 	0.58435	0.32743	0.79017	-0.063
Mof_S 	S 	0.54975	0.50359	0.62921	-0.061
Mof_C 	C 	0.10166	0.53178	0.3399	0.037
Mof_H 	H 	0.0943	0.5349	0.3524	0.013
Mof_C 	C 	0.09811	0.54417	0.32273	-0.052
Mof_C 	C 	0.10817	0.53951	0.30437	0.01
Mof_H 	H 	0.1066	0.5481	0.2924	0.037
Mof_C 	C 	0.12062	0.52202	0.30383	-0.1
Mof_H 	H 	0.1267	0.5176	0.2911	0.066
Mof_C 	C 	0.12422	0.51099	0.32171	0.058
Mof_H 	H 	0.1337	0.4996	0.3212	0.001
Mof_C 	C 	0.969	0.60151	0.40658	0.098
Mof_C 	C 	0.01673	0.58516	0.39067	0.065
Mof_H 	H 	0.0064	0.586	0.4012	-0.003
Mof_C 	C 	0.02959	0.5683	0.39077	-0.107
Mof_H 	H 	0.0287	0.5582	0.4015	0.068
Mof_C 	C 	0.04389	0.56624	0.37495	0.014
Mof_H 	H 	0.0531	0.5547	0.3745	0.035
Mof_C 	C 	0.04454	0.58154	0.35954	-0.055
Mof_C 	C 	0.03115	0.59801	0.36115	0.043
Mof_H 	H 	0.0315	0.6082	0.3505	0.013
Mof_C 	C 	0.05983	0.58004	0.34207	0.142
Mof_C 	C 	0.0757	0.59503	0.31478	0.136
Mof_C 	C 	0.08463	0.56253	0.32474	0.139
Mof_C 	C 	0.09659	0.61283	0.28764	0.048
Mof_H 	H 	0.1054	0.601	0.2874	0.009
Mof_C 	C 	0.07962	0.61298	0.30177	-0.058
Mof_C 	C 	0.06788	0.63086	0.30276	0.018
Mof_H 	H 	0.0567	0.6319	0.3123	0.035
Mof_C 	C 	0.07249	0.64724	0.28981	-0.11
Mof_H 	H 	0.0648	0.6598	0.2904	0.071
Mof_C 	C 	0.08862	0.64493	0.27587	0.069
Mof_H 	H 	0.0912	0.656	0.2664	-0.002
Mof_C 	C 	0.1219	0.57552	0.2489	0.108
Mof_C 	C 	0.16748	0.6378	0.23247	0.052
Mof_H 	H 	0.1665	0.6479	0.2432	0.003
Mof_C 	C 	0.18479	0.63726	0.22106	-0.096
Mof_H 	H 	0.1955	0.6472	0.2233	0.066
Mof_C 	C 	0.18705	0.62179	0.20561	0.005
Mof_H 	H 	0.1994	0.6207	0.1976	0.039
Mof_C 	C 	0.17042	0.60827	0.20256	-0.053
Mof_C 	C 	0.15304	0.61005	0.21521	0.046
Mof_H 	H 	0.1421	0.6003	0.2134	0.011
Mof_C 	C 	0.17139	0.59207	0.18677	0.133
Mof_N 	N 	0.1149	0.51561	0.34003	-0.224
Mof_N 	N 	0.97691	0.61325	0.39535	-0.26
Mof_N 	N 	0.01757	0.60068	0.37672	-0.229
Mof_N 	N 	0.07092	0.56309	0.34057	-0.155
Mof_N 	N 	0.06142	0.59658	0.32977	-0.153
Mof_N 	N 	0.08754	0.57774	0.31151	-0.152
Mof_N 	N 	0.10074	0.62827	0.27488	-0.234
Mof_N 	N 	0.15084	0.62452	0.22967	-0.226
Mof_N 	N 	0.12293	0.59297	0.25102	-0.267
Mof_N 	N 	0.15657	0.57751	0.18687	-0.15
Mof_S 	S 	0.95983	0.58435	0.42257	-0.063
Mof_S 	S 	0.12079	0.54975	0.24641	-0.061
Mof_C 	C 	0.10166	0.03178	0.8399	0.037
Mof_H 	H 	0.0943	0.0349	0.8524	0.013
Mof_C 	C 	0.09811	0.04417	0.82273	-0.052
Mof_C 	C 	0.10817	0.03951	0.80437	0.01
Mof_H 	H 	0.1066	0.0481	0.7924	0.037
Mof_C 	C 	0.12062	0.02202	0.80383	-0.1
Mof_H 	H 	0.1267	0.0176	0.7911	0.066
Mof_C 	C 	0.12422	0.01099	0.82171	0.058
Mof_H 	H 	0.1337	0.9996	0.8212	0.001
Mof_C 	C 	0.969	0.10151	0.90658	0.098
Mof_C 	C 	0.01673	0.08516	0.89067	0.065
Mof_H 	H 	0.0064	0.086	0.9012	-0.003
Mof_C 	C 	0.02959	0.0683	0.89077	-0.107
Mof_H 	H 	0.0287	0.0582	0.9015	0.068
Mof_C 	C 	0.04389	0.06624	0.87495	0.014
Mof_H 	H 	0.0531	0.0547	0.8745	0.035
Mof_C 	C 	0.04454	0.08154	0.85954	-0.055
Mof_C 	C 	0.03115	0.09801	0.86115	0.043
Mof_H 	H 	0.0315	0.1082	0.8505	0.013
Mof_C 	C 	0.05983	0.08004	0.84207	0.142
Mof_C 	C 	0.0757	0.09503	0.81478	0.136
Mof_C 	C 	0.08463	0.06253	0.82474	0.139
Mof_C 	C 	0.09659	0.11283	0.78764	0.048
Mof_H 	H 	0.1054	0.101	0.7874	0.009
Mof_C 	C 	0.07962	0.11298	0.80177	-0.058
Mof_C 	C 	0.06788	0.13086	0.80276	0.018
Mof_H 	H 	0.0567	0.1319	0.8123	0.035
Mof_C 	C 	0.07249	0.14724	0.78981	-0.11
Mof_H 	H 	0.0648	0.1598	0.7904	0.071
Mof_C 	C 	0.08862	0.14493	0.77587	0.069
Mof_H 	H 	0.0912	0.156	0.7664	-0.002
Mof_C 	C 	0.1219	0.07552	0.7489	0.108
Mof_C 	C 	0.16748	0.1378	0.73247	0.052
Mof_H 	H 	0.1665	0.1479	0.7432	0.003
Mof_C 	C 	0.18479	0.13726	0.72106	-0.096
Mof_H 	H 	0.1955	0.1472	0.7233	0.066
Mof_C 	C 	0.18705	0.12179	0.70561	0.005
Mof_H 	H 	0.1994	0.1207	0.6976	0.039
Mof_C 	C 	0.17042	0.10827	0.70256	-0.053
Mof_C 	C 	0.15304	0.11005	0.71521	0.046
Mof_H 	H 	0.1421	0.1003	0.7134	0.011
Mof_C 	C 	0.17139	0.09207	0.68677	0.133
Mof_N 	N 	0.1149	0.01561	0.84003	-0.224
Mof_N 	N 	0.97691	0.11325	0.89535	-0.26
Mof_N 	N 	0.01757	0.10068	0.87672	-0.229
Mof_N 	N 	0.07092	0.06309	0.84057	-0.155
Mof_N 	N 	0.06142	0.09658	0.82977	-0.153
Mof_N 	N 	0.08754	0.07774	0.81151	-0.152
Mof_N 	N 	0.10074	0.12827	0.77488	-0.234
Mof_N 	N 	0.15084	0.12452	0.72967	-0.226
Mof_N 	N 	0.12293	0.09297	0.75102	-0.267
Mof_N 	N 	0.15657	0.07751	0.68687	-0.15
Mof_S 	S 	0.95983	0.08435	0.92257	-0.063
Mof_S 	S 	0.12079	0.04975	0.74641	-0.061
Mof_C 	C 	0.60166	0.53178	0.8399	0.037
Mof_H 	H 	0.5943	0.5349	0.8524	0.013
Mof_C 	C 	0.59811	0.54417	0.82273	-0.052
Mof_C 	C 	0.60817	0.53951	0.80437	0.01
Mof_H 	H 	0.6066	0.5481	0.7924	0.037
Mof_C 	C 	0.62062	0.52202	0.80383	-0.1
Mof_H 	H 	0.6267	0.5176	0.7911	0.066
Mof_C 	C 	0.62422	0.51099	0.82171	0.058
Mof_H 	H 	0.6337	0.4996	0.8212	0.001
Mof_C 	C 	0.469	0.60151	0.90658	0.098
Mof_C 	C 	0.51673	0.58516	0.89067	0.065
Mof_H 	H 	0.5064	0.586	0.9012	-0.003
Mof_C 	C 	0.52959	0.5683	0.89077	-0.107
Mof_H 	H 	0.5287	0.5582	0.9015	0.068
Mof_C 	C 	0.54389	0.56624	0.87495	0.014
Mof_H 	H 	0.5531	0.5547	0.8745	0.035
Mof_C 	C 	0.54454	0.58154	0.85954	-0.055
Mof_C 	C 	0.53115	0.59801	0.86115	0.043
Mof_H 	H 	0.5315	0.6082	0.8505	0.013
Mof_C 	C 	0.55983	0.58004	0.84207	0.142
Mof_C 	C 	0.5757	0.59503	0.81478	0.136
Mof_C 	C 	0.58463	0.56253	0.82474	0.139
Mof_C 	C 	0.59659	0.61283	0.78764	0.048
Mof_H 	H 	0.6054	0.601	0.7874	0.009
Mof_C 	C 	0.57962	0.61298	0.80177	-0.058
Mof_C 	C 	0.56788	0.63086	0.80276	0.018
Mof_H 	H 	0.5567	0.6319	0.8123	0.035
Mof_C 	C 	0.57249	0.64724	0.78981	-0.11
Mof_H 	H 	0.5648	0.6598	0.7904	0.071
Mof_C 	C 	0.58862	0.64493	0.77587	0.069
Mof_H 	H 	0.5912	0.656	0.7664	-0.002
Mof_C 	C 	0.6219	0.57552	0.7489	0.108
Mof_C 	C 	0.66748	0.6378	0.73247	0.052
Mof_H 	H 	0.6665	0.6479	0.7432	0.003
Mof_C 	C 	0.68479	0.63726	0.72106	-0.096
Mof_H 	H 	0.6955	0.6472	0.7233	0.066
Mof_C 	C 	0.68705	0.62179	0.70561	0.005
Mof_H 	H 	0.6994	0.6207	0.6976	0.039
Mof_C 	C 	0.67042	0.60827	0.70256	-0.053
Mof_C 	C 	0.65304	0.61005	0.71521	0.046
Mof_H 	H 	0.6421	0.6003	0.7134	0.011
Mof_C 	C 	0.67139	0.59207	0.68677	0.133
Mof_N 	N 	0.6149	0.51561	0.84003	-0.224
Mof_N 	N 	0.47691	0.61325	0.89535	-0.26
Mof_N 	N 	0.51757	0.60068	0.87672	-0.229
Mof_N 	N 	0.57092	0.56309	0.84057	-0.155
Mof_N 	N 	0.56142	0.59658	0.82977	-0.153
Mof_N 	N 	0.58754	0.57774	0.81151	-0.152
Mof_N 	N 	0.60074	0.62827	0.77488	-0.234
Mof_N 	N 	0.65084	0.62452	0.72967	-0.226
Mof_N 	N 	0.62293	0.59297	0.75102	-0.267
Mof_N 	N 	0.65657	0.57751	0.68687	-0.15
Mof_S 	S 	0.45983	0.58435	0.92257	-0.063
Mof_S 	S 	0.62079	0.54975	0.74641	-0.061
Mof_C 	C 	0.60166	0.03178	0.3399	0.037
Mof_H 	H 	0.5943	0.0349	0.3524	0.013
Mof_C 	C 	0.59811	0.04417	0.32273	-0.052
Mof_C 	C 	0.60817	0.03951	0.30437	0.01
Mof_H 	H 	0.6066	0.0481	0.2924	0.037
Mof_C 	C 	0.62062	0.02202	0.30383	-0.1
Mof_H 	H 	0.6267	0.0176	0.2911	0.066
Mof_C 	C 	0.62422	0.01099	0.32171	0.058
Mof_H 	H 	0.6337	0.9996	0.3212	0.001
Mof_C 	C 	0.469	0.10151	0.40658	0.098
Mof_C 	C 	0.51673	0.08516	0.39067	0.065
Mof_H 	H 	0.5064	0.086	0.4012	-0.003
Mof_C 	C 	0.52959	0.0683	0.39077	-0.107
Mof_H 	H 	0.5287	0.0582	0.4015	0.068
Mof_C 	C 	0.54389	0.06624	0.37495	0.014
Mof_H 	H 	0.5531	0.0547	0.3745	0.035
Mof_C 	C 	0.54454	0.08154	0.35954	-0.055
Mof_C 	C 	0.53115	0.09801	0.36115	0.043
Mof_H 	H 	0.5315	0.1082	0.3505	0.013
Mof_C 	C 	0.55983	0.08004	0.34207	0.142
Mof_C 	C 	0.5757	0.09503	0.31478	0.136
Mof_C 	C 	0.58463	0.06253	0.32474	0.139
Mof_C 	C 	0.59659	0.11283	0.28764	0.048
Mof_H 	H 	0.6054	0.101	0.2874	0.009
Mof_C 	C 	0.57962	0.11298	0.30177	-0.058
Mof_C 	C 	0.56788	0.13086	0.30276	0.018
Mof_H 	H 	0.5567	0.1319	0.3123	0.035
Mof_C 	C 	0.57249	0.14724	0.28981	-0.11
Mof_H 	H 	0.5648	0.1598	0.2904	0.071
Mof_C 	C 	0.58862	0.14493	0.27587	0.069
Mof_H 	H 	0.5912	0.156	0.2664	-0.002
Mof_C 	C 	0.6219	0.07552	0.2489	0.108
Mof_C 	C 	0.66748	0.1378	0.23247	0.052
Mof_H 	H 	0.6665	0.1479	0.2432	0.003
Mof_C 	C 	0.68479	0.13726	0.22106	-0.096
Mof_H 	H 	0.6955	0.1472	0.2233	0.066
Mof_C 	C 	0.68705	0.12179	0.20561	0.005
Mof_H 	H 	0.6994	0.1207	0.1976	0.039
Mof_C 	C 	0.67042	0.10827	0.20256	-0.053
Mof_C 	C 	0.65304	0.11005	0.21521	0.046
Mof_H 	H 	0.6421	0.1003	0.2134	0.011
Mof_C 	C 	0.67139	0.09207	0.18677	0.133
Mof_N 	N 	0.6149	0.01561	0.34003	-0.224
Mof_N 	N 	0.47691	0.11325	0.39535	-0.26
Mof_N 	N 	0.51757	0.10068	0.37672	-0.229
Mof_N 	N 	0.57092	0.06309	0.34057	-0.155
Mof_N 	N 	0.56142	0.09658	0.32977	-0.153
Mof_N 	N 	0.58754	0.07774	0.31151	-0.152
Mof_N 	N 	0.60074	0.12827	0.27488	-0.234
Mof_N 	N 	0.65084	0.12452	0.22967	-0.226
Mof_N 	N 	0.62293	0.09297	0.25102	-0.267
Mof_N 	N 	0.65657	0.07751	0.18687	-0.15
Mof_S 	S 	0.45983	0.08435	0.42257	-0.063
Mof_S 	S 	0.62079	0.04975	0.24641	-0.061
Mof_C 	C 	0.60166	0.71822	0.4101	0.037
Mof_H 	H 	0.5943	0.7151	0.3976	0.013
Mof_C 	C 	0.59811	0.70583	0.42727	-0.052
Mof_C 	C 	0.60817	0.71049	0.44563	0.01
Mof_H 	H 	0.6066	0.7019	0.4576	0.037
Mof_C 	C 	0.62062	0.72798	0.44617	-0.1
Mof_H 	H 	0.6267	0.7324	0.4589	0.066
Mof_C 	C 	0.62422	0.73901	0.42829	0.058
Mof_H 	H 	0.6337	0.7504	0.4288	0.001
Mof_C 	C 	0.469	0.64849	0.34342	0.098
Mof_C 	C 	0.51673	0.66484	0.35933	0.065
Mof_H 	H 	0.5064	0.664	0.3488	-0.003
Mof_C 	C 	0.52959	0.6817	0.35923	-0.107
Mof_H 	H 	0.5287	0.6918	0.3485	0.068
Mof_C 	C 	0.54389	0.68376	0.37505	0.014
Mof_H 	H 	0.5531	0.6953	0.3755	0.035
Mof_C 	C 	0.54454	0.66846	0.39046	-0.055
Mof_C 	C 	0.53115	0.65199	0.38885	0.043
Mof_H 	H 	0.5315	0.6418	0.3995	0.013
Mof_C 	C 	0.55983	0.66996	0.40793	0.142
Mof_C 	C 	0.5757	0.65497	0.43522	0.136
Mof_C 	C 	0.58463	0.68747	0.42526	0.139
Mof_C 	C 	0.59659	0.63717	0.46236	0.048
Mof_H 	H 	0.6054	0.649	0.4626	0.009
Mof_C 	C 	0.57962	0.63702	0.44823	-0.058
Mof_C 	C 	0.56788	0.61914	0.44724	0.018
Mof_H 	H 	0.5567	0.6181	0.4377	0.035
Mof_C 	C 	0.57249	0.60276	0.46019	-0.11
Mof_H 	H 	0.5648	0.5902	0.4596	0.071
Mof_C 	C 	0.58862	0.60507	0.47413	0.069
Mof_H 	H 	0.5912	0.594	0.4836	-0.002
Mof_C 	C 	0.6219	0.67448	0.5011	0.108
Mof_C 	C 	0.66748	0.6122	0.51753	0.052
Mof_H 	H 	0.6665	0.6021	0.5068	0.003
Mof_C 	C 	0.68479	0.61274	0.52894	-0.096
Mof_H 	H 	0.6955	0.6028	0.5267	0.066
Mof_C 	C 	0.68705	0.62821	0.54439	0.005
Mof_H 	H 	0.6994	0.6293	0.5524	0.039
Mof_C 	C 	0.67042	0.64173	0.54744	-0.053
Mof_C 	C 	0.65304	0.63995	0.53479	0.046
Mof_H 	H 	0.6421	0.6497	0.5366	0.011
Mof_C 	C 	0.67139	0.65793	0.56323	0.133
Mof_N 	N 	0.6149	0.73439	0.40997	-0.224
Mof_N 	N 	0.47691	0.63675	0.35465	-0.26
Mof_N 	N 	0.51757	0.64932	0.37328	-0.229
Mof_N 	N 	0.57092	0.68691	0.40943	-0.155
Mof_N 	N 	0.56142	0.65342	0.42023	-0.153
Mof_N 	N 	0.58754	0.67226	0.43849	-0.152
Mof_N 	N 	0.60074	0.62173	0.47512	-0.234
Mof_N 	N 	0.65084	0.62548	0.52033	-0.226
Mof_N 	N 	0.62293	0.65703	0.49898	-0.267
Mof_N 	N 	0.65657	0.67249	0.56313	-0.15
Mof_S 	S 	0.45983	0.66565	0.32743	-0.063
Mof_S 	S 	0.62079	0.70025	0.50359	-0.061
Mof_C 	C 	0.60166	0.21822	0.9101	0.037
Mof_H 	H 	0.5943	0.2151	0.8976	0.013
Mof_C 	C 	0.59811	0.20583	0.92727	-0.052
Mof_C 	C 	0.60817	0.21049	0.94563	0.01
Mof_H 	H 	0.6066	0.2019	0.9576	0.037
Mof_C 	C 	0.62062	0.22798	0.94617	-0.1
Mof_H 	H 	0.6267	0.2324	0.9589	0.066
Mof_C 	C 	0.62422	0.23901	0.92829	0.058
Mof_H 	H 	0.6337	0.2504	0.9288	0.001
Mof_C 	C 	0.469	0.14849	0.84342	0.098
Mof_C 	C 	0.51673	0.16484	0.85933	0.065
Mof_H 	H 	0.5064	0.164	0.8488	-0.003
Mof_C 	C 	0.52959	0.1817	0.85923	-0.107
Mof_H 	H 	0.5287	0.1918	0.8485	0.068
Mof_C 	C 	0.54389	0.18376	0.87505	0.014
Mof_H 	H 	0.5531	0.1953	0.8755	0.035
Mof_C 	C 	0.54454	0.16846	0.89046	-0.055
Mof_C 	C 	0.53115	0.15199	0.88885	0.043
Mof_H 	H 	0.5315	0.1418	0.8995	0.013
Mof_C 	C 	0.55983	0.16996	0.90793	0.142
Mof_C 	C 	0.5757	0.15497	0.93522	0.136
Mof_C 	C 	0.58463	0.18747	0.92526	0.139
Mof_C 	C 	0.59659	0.13717	0.96236	0.048
Mof_H 	H 	0.6054	0.149	0.9626	0.009
Mof_C 	C 	0.57962	0.13702	0.94823	-0.058
Mof_C 	C 	0.56788	0.11914	0.94724	0.018
Mof_H 	H 	0.5567	0.1181	0.9377	0.035
Mof_C 	C 	0.57249	0.10276	0.96019	-0.11
Mof_H 	H 	0.5648	0.0902	0.9596	0.071
Mof_C 	C 	0.58862	0.10507	0.97413	0.069
Mof_H 	H 	0.5912	0.094	0.9836	-0.002
Mof_C 	C 	0.6219	0.17448	0.0011	0.108
Mof_C 	C 	0.66748	0.1122	0.01753	0.052
Mof_H 	H 	0.6665	0.1021	0.0068	0.003
Mof_C 	C 	0.68479	0.11274	0.02894	-0.096
Mof_H 	H 	0.6955	0.1028	0.0267	0.066
Mof_C 	C 	0.68705	0.12821	0.04439	0.005
Mof_H 	H 	0.6994	0.1293	0.0524	0.039
Mof_C 	C 	0.67042	0.14173	0.04744	-0.053
Mof_C 	C 	0.65304	0.13995	0.03479	0.046
Mof_H 	H 	0.6421	0.1497	0.0366	0.011
Mof_C 	C 	0.67139	0.15793	0.06323	0.133
Mof_N 	N 	0.6149	0.23439	0.90997	-0.224
Mof_N 	N 	0.47691	0.13675	0.85465	-0.26
Mof_N 	N 	0.51757	0.14932	0.87328	-0.229
Mof_N 	N 	0.57092	0.18691	0.90943	-0.155
Mof_N 	N 	0.56142	0.15342	0.92023	-0.153
Mof_N 	N 	0.58754	0.17226	0.93849	-0.152
Mof_N 	N 	0.60074	0.12173	0.97512	-0.234
Mof_N 	N 	0.65084	0.12548	0.02033	-0.226
Mof_N 	N 	0.62293	0.15703	0.99898	-0.267
Mof_N 	N 	0.65657	0.17249	0.06313	-0.15
Mof_S 	S 	0.45983	0.16565	0.82743	-0.063
Mof_S 	S 	0.62079	0.20025	0.00359	-0.061
Mof_C 	C 	0.10166	0.71822	0.9101	0.037
Mof_H 	H 	0.0943	0.7151	0.8976	0.013
Mof_C 	C 	0.09811	0.70583	0.92727	-0.052
Mof_C 	C 	0.10817	0.71049	0.94563	0.01
Mof_H 	H 	0.1066	0.7019	0.9576	0.037
Mof_C 	C 	0.12062	0.72798	0.94617	-0.1
Mof_H 	H 	0.1267	0.7324	0.9589	0.066
Mof_C 	C 	0.12422	0.73901	0.92829	0.058
Mof_H 	H 	0.1337	0.7504	0.9288	0.001
Mof_C 	C 	0.969	0.64849	0.84342	0.098
Mof_C 	C 	0.01673	0.66484	0.85933	0.065
Mof_H 	H 	0.0064	0.664	0.8488	-0.003
Mof_C 	C 	0.02959	0.6817	0.85923	-0.107
Mof_H 	H 	0.0287	0.6918	0.8485	0.068
Mof_C 	C 	0.04389	0.68376	0.87505	0.014
Mof_H 	H 	0.0531	0.6953	0.8755	0.035
Mof_C 	C 	0.04454	0.66846	0.89046	-0.055
Mof_C 	C 	0.03115	0.65199	0.88885	0.043
Mof_H 	H 	0.0315	0.6418	0.8995	0.013
Mof_C 	C 	0.05983	0.66996	0.90793	0.142
Mof_C 	C 	0.0757	0.65497	0.93522	0.136
Mof_C 	C 	0.08463	0.68747	0.92526	0.139
Mof_C 	C 	0.09659	0.63717	0.96236	0.048
Mof_H 	H 	0.1054	0.649	0.9626	0.009
Mof_C 	C 	0.07962	0.63702	0.94823	-0.058
Mof_C 	C 	0.06788	0.61914	0.94724	0.018
Mof_H 	H 	0.0567	0.6181	0.9377	0.035
Mof_C 	C 	0.07249	0.60276	0.96019	-0.11
Mof_H 	H 	0.0648	0.5902	0.9596	0.071
Mof_C 	C 	0.08862	0.60507	0.97413	0.069
Mof_H 	H 	0.0912	0.594	0.9836	-0.002
Mof_C 	C 	0.1219	0.67448	0.0011	0.108
Mof_C 	C 	0.16748	0.6122	0.01753	0.052
Mof_H 	H 	0.1665	0.6021	0.0068	0.003
Mof_C 	C 	0.18479	0.61274	0.02894	-0.096
Mof_H 	H 	0.1955	0.6028	0.0267	0.066
Mof_C 	C 	0.18705	0.62821	0.04439	0.005
Mof_H 	H 	0.1994	0.6293	0.0524	0.039
Mof_C 	C 	0.17042	0.64173	0.04744	-0.053
Mof_C 	C 	0.15304	0.63995	0.03479	0.046
Mof_H 	H 	0.1421	0.6497	0.0366	0.011
Mof_C 	C 	0.17139	0.65793	0.06323	0.133
Mof_N 	N 	0.1149	0.73439	0.90997	-0.224
Mof_N 	N 	0.97691	0.63675	0.85465	-0.26
Mof_N 	N 	0.01757	0.64932	0.87328	-0.229
Mof_N 	N 	0.07092	0.68691	0.90943	-0.155
Mof_N 	N 	0.06142	0.65342	0.92023	-0.153
Mof_N 	N 	0.08754	0.67226	0.93849	-0.152
Mof_N 	N 	0.10074	0.62173	0.97512	-0.234
Mof_N 	N 	0.15084	0.62548	0.02033	-0.226
Mof_N 	N 	0.12293	0.65703	0.99898	-0.267
Mof_N 	N 	0.15657	0.67249	0.06313	-0.15
Mof_S 	S 	0.95983	0.66565	0.82743	-0.063
Mof_S 	S 	0.12079	0.70025	0.00359	-0.061
Mof_C 	C 	0.10166	0.21822	0.4101	0.037
Mof_H 	H 	0.0943	0.2151	0.3976	0.013
Mof_C 	C 	0.09811	0.20583	0.42727	-0.052
Mof_C 	C 	0.10817	0.21049	0.44563	0.01
Mof_H 	H 	0.1066	0.2019	0.4576	0.037
Mof_C 	C 	0.12062	0.22798	0.44617	-0.1
Mof_H 	H 	0.1267	0.2324	0.4589	0.066
Mof_C 	C 	0.12422	0.23901	0.42829	0.058
Mof_H 	H 	0.1337	0.2504	0.4288	0.001
Mof_C 	C 	0.969	0.14849	0.34342	0.098
Mof_C 	C 	0.01673	0.16484	0.35933	0.065
Mof_H 	H 	0.0064	0.164	0.3488	-0.003
Mof_C 	C 	0.02959	0.1817	0.35923	-0.107
Mof_H 	H 	0.0287	0.1918	0.3485	0.068
Mof_C 	C 	0.04389	0.18376	0.37505	0.014
Mof_H 	H 	0.0531	0.1953	0.3755	0.035
Mof_C 	C 	0.04454	0.16846	0.39046	-0.055
Mof_C 	C 	0.03115	0.15199	0.38885	0.043
Mof_H 	H 	0.0315	0.1418	0.3995	0.013
Mof_C 	C 	0.05983	0.16996	0.40793	0.142
Mof_C 	C 	0.0757	0.15497	0.43522	0.136
Mof_C 	C 	0.08463	0.18747	0.42526	0.139
Mof_C 	C 	0.09659	0.13717	0.46236	0.048
Mof_H 	H 	0.1054	0.149	0.4626	0.009
Mof_C 	C 	0.07962	0.13702	0.44823	-0.058
Mof_C 	C 	0.06788	0.11914	0.44724	0.018
Mof_H 	H 	0.0567	0.1181	0.4377	0.035
Mof_C 	C 	0.07249	0.10276	0.46019	-0.11
Mof_H 	H 	0.0648	0.0902	0.4596	0.071
Mof_C 	C 	0.08862	0.10507	0.47413	0.069
Mof_H 	H 	0.0912	0.094	0.4836	-0.002
Mof_C 	C 	0.1219	0.17448	0.5011	0.108
Mof_C 	C 	0.16748	0.1122	0.51753	0.052
Mof_H 	H 	0.1665	0.1021	0.5068	0.003
Mof_C 	C 	0.18479	0.11274	0.52894	-0.096
Mof_H 	H 	0.1955	0.1028	0.5267	0.066
Mof_C 	C 	0.18705	0.12821	0.54439	0.005
Mof_H 	H 	0.1994	0.1293	0.5524	0.039
Mof_C 	C 	0.17042	0.14173	0.54744	-0.053
Mof_C 	C 	0.15304	0.13995	0.53479	0.046
Mof_H 	H 	0.1421	0.1497	0.5366	0.011
Mof_C 	C 	0.17139	0.15793	0.56323	0.133
Mof_N 	N 	0.1149	0.23439	0.40997	-0.224
Mof_N 	N 	0.97691	0.13675	0.35465	-0.26
Mof_N 	N 	0.01757	0.14932	0.37328	-0.229
Mof_N 	N 	0.07092	0.18691	0.40943	-0.155
Mof_N 	N 	0.06142	0.15342	0.42023	-0.153
Mof_N 	N 	0.08754	0.17226	0.43849	-0.152
Mof_N 	N 	0.10074	0.12173	0.47512	-0.234
Mof_N 	N 	0.15084	0.12548	0.52033	-0.226
Mof_N 	N 	0.12293	0.15703	0.49898	-0.267
Mof_N 	N 	0.15657	0.17249	0.56313	-0.15
Mof_S 	S 	0.95983	0.16565	0.32743	-0.063
Mof_S 	S 	0.12079	0.20025	0.50359	-0.061
Mof_C 	C 	0.14834	0.21822	0.8399	0.037
Mof_H 	H 	0.1557	0.2151	0.8524	0.013
Mof_C 	C 	0.15189	0.20583	0.82273	-0.052
Mof_C 	C 	0.14183	0.21049	0.80437	0.01
Mof_H 	H 	0.1434	0.2019	0.7924	0.037
Mof_C 	C 	0.12938	0.22798	0.80383	-0.1
Mof_H 	H 	0.1233	0.2324	0.7911	0.066
Mof_C 	C 	0.12578	0.23901	0.82171	0.058
Mof_H 	H 	0.1163	0.2504	0.8212	0.001
Mof_C 	C 	0.281	0.14849	0.90658	0.098
Mof_C 	C 	0.23327	0.16484	0.89067	0.065
Mof_H 	H 	0.2436	0.164	0.9012	-0.003
Mof_C 	C 	0.22041	0.1817	0.89077	-0.107
Mof_H 	H 	0.2213	0.1918	0.9015	0.068
Mof_C 	C 	0.20611	0.18376	0.87495	0.014
Mof_H 	H 	0.1969	0.1953	0.8745	0.035
Mof_C 	C 	0.20546	0.16846	0.85954	-0.055
Mof_C 	C 	0.21885	0.15199	0.86115	0.043
Mof_H 	H 	0.2185	0.1418	0.8505	0.013
Mof_C 	C 	0.19017	0.16996	0.84207	0.142
Mof_C 	C 	0.1743	0.15497	0.81478	0.136
Mof_C 	C 	0.16537	0.18747	0.82474	0.139
Mof_C 	C 	0.15341	0.13717	0.78764	0.048
Mof_H 	H 	0.1446	0.149	0.7874	0.009
Mof_C 	C 	0.17038	0.13702	0.80177	-0.058
Mof_C 	C 	0.18212	0.11914	0.80276	0.018
Mof_H 	H 	0.1933	0.1181	0.8123	0.035
Mof_C 	C 	0.17751	0.10276	0.78981	-0.11
Mof_H 	H 	0.1852	0.0902	0.7904	0.071
Mof_C 	C 	0.16138	0.10507	0.77587	0.069
Mof_H 	H 	0.1588	0.094	0.7664	-0.002
Mof_C 	C 	0.1281	0.17448	0.7489	0.108
Mof_C 	C 	0.08252	0.1122	0.73247	0.052
Mof_H 	H 	0.0835	0.1021	0.7432	0.003
Mof_C 	C 	0.06521	0.11274	0.72106	-0.096
Mof_H 	H 	0.0545	0.1028	0.7233	0.066
Mof_C 	C 	0.06295	0.12821	0.70561	0.005
Mof_H 	H 	0.0506	0.1293	0.6976	0.039
Mof_C 	C 	0.07958	0.14173	0.70256	-0.053
Mof_C 	C 	0.09696	0.13995	0.71521	0.046
Mof_H 	H 	0.1079	0.1497	0.7134	0.011
Mof_C 	C 	0.07861	0.15793	0.68677	0.133
Mof_N 	N 	0.1351	0.23439	0.84003	-0.224
Mof_N 	N 	0.27309	0.13675	0.89535	-0.26
Mof_N 	N 	0.23243	0.14932	0.87672	-0.229
Mof_N 	N 	0.17908	0.18691	0.84057	-0.155
Mof_N 	N 	0.18858	0.15342	0.82977	-0.153
Mof_N 	N 	0.16246	0.17226	0.81151	-0.152
Mof_N 	N 	0.14926	0.12173	0.77488	-0.234
Mof_N 	N 	0.09916	0.12548	0.72967	-0.226
Mof_N 	N 	0.12707	0.15703	0.75102	-0.267
Mof_N 	N 	0.09343	0.17249	0.68687	-0.15
Mof_S 	S 	0.29017	0.16565	0.92257	-0.063
Mof_S 	S 	0.12921	0.20025	0.74641	-0.061
Mof_C 	C 	0.14834	0.71822	0.3399	0.037
Mof_H 	H 	0.1557	0.7151	0.3524	0.013
Mof_C 	C 	0.15189	0.70583	0.32273	-0.052
Mof_C 	C 	0.14183	0.71049	0.30437	0.01
Mof_H 	H 	0.1434	0.7019	0.2924	0.037
Mof_C 	C 	0.12938	0.72798	0.30383	-0.1
Mof_H 	H 	0.1233	0.7324	0.2911	0.066
Mof_C 	C 	0.12578	0.73901	0.32171	0.058
Mof_H 	H 	0.1163	0.7504	0.3212	0.001
Mof_C 	C 	0.281	0.64849	0.40658	0.098
Mof_C 	C 	0.23327	0.66484	0.39067	0.065
Mof_H 	H 	0.2436	0.664	0.4012	-0.003
Mof_C 	C 	0.22041	0.6817	0.39077	-0.107
Mof_H 	H 	0.2213	0.6918	0.4015	0.068
Mof_C 	C 	0.20611	0.68376	0.37495	0.014
Mof_H 	H 	0.1969	0.6953	0.3745	0.035
Mof_C 	C 	0.20546	0.66846	0.35954	-0.055
Mof_C 	C 	0.21885	0.65199	0.36115	0.043
Mof_H 	H 	0.2185	0.6418	0.3505	0.013
Mof_C 	C 	0.19017	0.66996	0.34207	0.142
Mof_C 	C 	0.1743	0.65497	0.31478	0.136
Mof_C 	C 	0.16537	0.68747	0.32474	0.139
Mof_C 	C 	0.15341	0.63717	0.28764	0.048
Mof_H 	H 	0.1446	0.649	0.2874	0.009
Mof_C 	C 	0.17038	0.63702	0.30177	-0.058
Mof_C 	C 	0.18212	0.61914	0.30276	0.018
Mof_H 	H 	0.1933	0.6181	0.3123	0.035
Mof_C 	C 	0.17751	0.60276	0.28981	-0.11
Mof_H 	H 	0.1852	0.5902	0.2904	0.071
Mof_C 	C 	0.16138	0.60507	0.27587	0.069
Mof_H 	H 	0.1588	0.594	0.2664	-0.002
Mof_C 	C 	0.1281	0.67448	0.2489	0.108
Mof_C 	C 	0.08252	0.6122	0.23247	0.052
Mof_H 	H 	0.0835	0.6021	0.2432	0.003
Mof_C 	C 	0.06521	0.61274	0.22106	-0.096
Mof_H 	H 	0.0545	0.6028	0.2233	0.066
Mof_C 	C 	0.06295	0.62821	0.20561	0.005
Mof_H 	H 	0.0506	0.6293	0.1976	0.039
Mof_C 	C 	0.07958	0.64173	0.20256	-0.053
Mof_C 	C 	0.09696	0.63995	0.21521	0.046
Mof_H 	H 	0.1079	0.6497	0.2134	0.011
Mof_C 	C 	0.07861	0.65793	0.18677	0.133
Mof_N 	N 	0.1351	0.73439	0.34003	-0.224
Mof_N 	N 	0.27309	0.63675	0.39535	-0.26
Mof_N 	N 	0.23243	0.64932	0.37672	-0.229
Mof_N 	N 	0.17908	0.68691	0.34057	-0.155
Mof_N 	N 	0.18858	0.65342	0.32977	-0.153
Mof_N 	N 	0.16246	0.67226	0.31151	-0.152
Mof_N 	N 	0.14926	0.62173	0.27488	-0.234
Mof_N 	N 	0.09916	0.62548	0.22967	-0.226
Mof_N 	N 	0.12707	0.65703	0.25102	-0.267
Mof_N 	N 	0.09343	0.67249	0.18687	-0.15
Mof_S 	S 	0.29017	0.66565	0.42257	-0.063
Mof_S 	S 	0.12921	0.70025	0.24641	-0.061
Mof_C 	C 	0.64834	0.21822	0.3399	0.037
Mof_H 	H 	0.6557	0.2151	0.3524	0.013
Mof_C 	C 	0.65189	0.20583	0.32273	-0.052
Mof_C 	C 	0.64183	0.21049	0.30437	0.01
Mof_H 	H 	0.6434	0.2019	0.2924	0.037
Mof_C 	C 	0.62938	0.22798	0.30383	-0.1
Mof_H 	H 	0.6233	0.2324	0.2911	0.066
Mof_C 	C 	0.62578	0.23901	0.32171	0.058
Mof_H 	H 	0.6163	0.2504	0.3212	0.001
Mof_C 	C 	0.781	0.14849	0.40658	0.098
Mof_C 	C 	0.73327	0.16484	0.39067	0.065
Mof_H 	H 	0.7436	0.164	0.4012	-0.003
Mof_C 	C 	0.72041	0.1817	0.39077	-0.107
Mof_H 	H 	0.7213	0.1918	0.4015	0.068
Mof_C 	C 	0.70611	0.18376	0.37495	0.014
Mof_H 	H 	0.6969	0.1953	0.3745	0.035
Mof_C 	C 	0.70546	0.16846	0.35954	-0.055
Mof_C 	C 	0.71885	0.15199	0.36115	0.043
Mof_H 	H 	0.7185	0.1418	0.3505	0.013
Mof_C 	C 	0.69017	0.16996	0.34207	0.142
Mof_C 	C 	0.6743	0.15497	0.31478	0.136
Mof_C 	C 	0.66537	0.18747	0.32474	0.139
Mof_C 	C 	0.65341	0.13717	0.28764	0.048
Mof_H 	H 	0.6446	0.149	0.2874	0.009
Mof_C 	C 	0.67038	0.13702	0.30177	-0.058
Mof_C 	C 	0.68212	0.11914	0.30276	0.018
Mof_H 	H 	0.6933	0.1181	0.3123	0.035
Mof_C 	C 	0.67751	0.10276	0.28981	-0.11
Mof_H 	H 	0.6852	0.0902	0.2904	0.071
Mof_C 	C 	0.66138	0.10507	0.27587	0.069
Mof_H 	H 	0.6588	0.094	0.2664	-0.002
Mof_C 	C 	0.6281	0.17448	0.2489	0.108
Mof_C 	C 	0.58252	0.1122	0.23247	0.052
Mof_H 	H 	0.5835	0.1021	0.2432	0.003
Mof_C 	C 	0.56521	0.11274	0.22106	-0.096
Mof_H 	H 	0.5545	0.1028	0.2233	0.066
Mof_C 	C 	0.56295	0.12821	0.20561	0.005
Mof_H 	H 	0.5506	0.1293	0.1976	0.039
Mof_C 	C 	0.57958	0.14173	0.20256	-0.053
Mof_C 	C 	0.59696	0.13995	0.21521	0.046
Mof_H 	H 	0.6079	0.1497	0.2134	0.011
Mof_C 	C 	0.57861	0.15793	0.18677	0.133
Mof_N 	N 	0.6351	0.23439	0.34003	-0.224
Mof_N 	N 	0.77309	0.13675	0.39535	-0.26
Mof_N 	N 	0.73243	0.14932	0.37672	-0.229
Mof_N 	N 	0.67908	0.18691	0.34057	-0.155
Mof_N 	N 	0.68858	0.15342	0.32977	-0.153
Mof_N 	N 	0.66246	0.17226	0.31151	-0.152
Mof_N 	N 	0.64926	0.12173	0.27488	-0.234
Mof_N 	N 	0.59916	0.12548	0.22967	-0.226
Mof_N 	N 	0.62707	0.15703	0.25102	-0.267
Mof_N 	N 	0.59343	0.17249	0.18687	-0.15
Mof_S 	S 	0.79017	0.16565	0.42257	-0.063
Mof_S 	S 	0.62921	0.20025	0.24641	-0.061
Mof_C 	C 	0.64834	0.71822	0.8399	0.037
Mof_H 	H 	0.6557	0.7151	0.8524	0.013
Mof_C 	C 	0.65189	0.70583	0.82273	-0.052
Mof_C 	C 	0.64183	0.71049	0.80437	0.01
Mof_H 	H 	0.6434	0.7019	0.7924	0.037
Mof_C 	C 	0.62938	0.72798	0.80383	-0.1
Mof_H 	H 	0.6233	0.7324	0.7911	0.066
Mof_C 	C 	0.62578	0.73901	0.82171	0.058
Mof_H 	H 	0.6163	0.7504	0.8212	0.001
Mof_C 	C 	0.781	0.64849	0.90658	0.098
Mof_C 	C 	0.73327	0.66484	0.89067	0.065
Mof_H 	H 	0.7436	0.664	0.9012	-0.003
Mof_C 	C 	0.72041	0.6817	0.89077	-0.107
Mof_H 	H 	0.7213	0.6918	0.9015	0.068
Mof_C 	C 	0.70611	0.68376	0.87495	0.014
Mof_H 	H 	0.6969	0.6953	0.8745	0.035
Mof_C 	C 	0.70546	0.66846	0.85954	-0.055
Mof_C 	C 	0.71885	0.65199	0.86115	0.043
Mof_H 	H 	0.7185	0.6418	0.8505	0.013
Mof_C 	C 	0.69017	0.66996	0.84207	0.142
Mof_C 	C 	0.6743	0.65497	0.81478	0.136
Mof_C 	C 	0.66537	0.68747	0.82474	0.139
Mof_C 	C 	0.65341	0.63717	0.78764	0.048
Mof_H 	H 	0.6446	0.649	0.7874	0.009
Mof_C 	C 	0.67038	0.63702	0.80177	-0.058
Mof_C 	C 	0.68212	0.61914	0.80276	0.018
Mof_H 	H 	0.6933	0.6181	0.8123	0.035
Mof_C 	C 	0.67751	0.60276	0.78981	-0.11
Mof_H 	H 	0.6852	0.5902	0.7904	0.071
Mof_C 	C 	0.66138	0.60507	0.77587	0.069
Mof_H 	H 	0.6588	0.594	0.7664	-0.002
Mof_C 	C 	0.6281	0.67448	0.7489	0.108
Mof_C 	C 	0.58252	0.6122	0.73247	0.052
Mof_H 	H 	0.5835	0.6021	0.7432	0.003
Mof_C 	C 	0.56521	0.61274	0.72106	-0.096
Mof_H 	H 	0.5545	0.6028	0.7233	0.066
Mof_C 	C 	0.56295	0.62821	0.70561	0.005
Mof_H 	H 	0.5506	0.6293	0.6976	0.039
Mof_C 	C 	0.57958	0.64173	0.70256	-0.053
Mof_C 	C 	0.59696	0.63995	0.71521	0.046
Mof_H 	H 	0.6079	0.6497	0.7134	0.011
Mof_C 	C 	0.57861	0.65793	0.68677	0.133
Mof_N 	N 	0.6351	0.73439	0.84003	-0.224
Mof_N 	N 	0.77309	0.63675	0.89535	-0.26
Mof_N 	N 	0.73243	0.64932	0.87672	-0.229
Mof_N 	N 	0.67908	0.68691	0.84057	-0.155
Mof_N 	N 	0.68858	0.65342	0.82977	-0.153
Mof_N 	N 	0.66246	0.67226	0.81151	-0.152
Mof_N 	N 	0.64926	0.62173	0.77488	-0.234
Mof_N 	N 	0.59916	0.62548	0.72967	-0.226
Mof_N 	N 	0.62707	0.65703	0.75102	-0.267
Mof_N 	N 	0.59343	0.67249	0.68687	-0.15
Mof_S 	S 	0.79017	0.66565	0.92257	-0.063
Mof_S 	S 	0.62921	0.70025	0.74641	-0.061
Mof_C 	C 	0.64834	0.03178	0.9101	0.037
Mof_H 	H 	0.6557	0.0349	0.8976	0.013
Mof_C 	C 	0.65189	0.04417	0.92727	-0.052
Mof_C 	C 	0.64183	0.03951	0.94563	0.01
Mof_H 	H 	0.6434	0.0481	0.9576	0.037
Mof_C 	C 	0.62938	0.02202	0.94617	-0.1
Mof_H 	H 	0.6233	0.0176	0.9589	0.066
Mof_C 	C 	0.62578	0.01099	0.92829	0.058
Mof_H 	H 	0.6163	0.9996	0.9288	0.001
Mof_C 	C 	0.781	0.10151	0.84342	0.098
Mof_C 	C 	0.73327	0.08516	0.85933	0.065
Mof_H 	H 	0.7436	0.086	0.8488	-0.003
Mof_C 	C 	0.72041	0.0683	0.85923	-0.107
Mof_H 	H 	0.7213	0.0582	0.8485	0.068
Mof_C 	C 	0.70611	0.06624	0.87505	0.014
Mof_H 	H 	0.6969	0.0547	0.8755	0.035
Mof_C 	C 	0.70546	0.08154	0.89046	-0.055
Mof_C 	C 	0.71885	0.09801	0.88885	0.043
Mof_H 	H 	0.7185	0.1082	0.8995	0.013
Mof_C 	C 	0.69017	0.08004	0.90793	0.142
Mof_C 	C 	0.6743	0.09503	0.93522	0.136
Mof_C 	C 	0.66537	0.06253	0.92526	0.139
Mof_C 	C 	0.65341	0.11283	0.96236	0.048
Mof_H 	H 	0.6446	0.101	0.9626	0.009
Mof_C 	C 	0.67038	0.11298	0.94823	-0.058
Mof_C 	C 	0.68212	0.13086	0.94724	0.018
Mof_H 	H 	0.6933	0.1319	0.9377	0.035
Mof_C 	C 	0.67751	0.14724	0.96019	-0.11
Mof_H 	H 	0.6852	0.1598	0.9596	0.071
Mof_C 	C 	0.66138	0.14493	0.97413	0.069
Mof_H 	H 	0.6588	0.156	0.9836	-0.002
Mof_C 	C 	0.6281	0.07552	0.0011	0.108
Mof_C 	C 	0.58252	0.1378	0.01753	0.052
Mof_H 	H 	0.5835	0.1479	0.0068	0.003
Mof_C 	C 	0.56521	0.13726	0.02894	-0.096
Mof_H 	H 	0.5545	0.1472	0.0267	0.066
Mof_C 	C 	0.56295	0.12179	0.04439	0.005
Mof_H 	H 	0.5506	0.1207	0.0524	0.039
Mof_C 	C 	0.57958	0.10827	0.04744	-0.053
Mof_C 	C 	0.59696	0.11005	0.03479	0.046
Mof_H 	H 	0.6079	0.1003	0.0366	0.011
Mof_C 	C 	0.57861	0.09207	0.06323	0.133
Mof_N 	N 	0.6351	0.01561	0.90997	-0.224
Mof_N 	N 	0.77309	0.11325	0.85465	-0.26
Mof_N 	N 	0.73243	0.10068	0.87328	-0.229
Mof_N 	N 	0.67908	0.06309	0.90943	-0.155
Mof_N 	N 	0.68858	0.09658	0.92023	-0.153
Mof_N 	N 	0.66246	0.07774	0.93849	-0.152
Mof_N 	N 	0.64926	0.12827	0.97512	-0.234
Mof_N 	N 	0.59916	0.12452	0.02033	-0.226
Mof_N 	N 	0.62707	0.09297	0.99898	-0.267
Mof_N 	N 	0.59343	0.07751	0.06313	-0.15
Mof_S 	S 	0.79017	0.08435	0.82743	-0.063
Mof_S 	S 	0.62921	0.04975	0.00359	-0.061
Mof_C 	C 	0.64834	0.53178	0.4101	0.037
Mof_H 	H 	0.6557	0.5349	0.3976	0.013
Mof_C 	C 	0.65189	0.54417	0.42727	-0.052
Mof_C 	C 	0.64183	0.53951	0.44563	0.01
Mof_H 	H 	0.6434	0.5481	0.4576	0.037
Mof_C 	C 	0.62938	0.52202	0.44617	-0.1
Mof_H 	H 	0.6233	0.5176	0.4589	0.066
Mof_C 	C 	0.62578	0.51099	0.42829	0.058
Mof_H 	H 	0.6163	0.4996	0.4288	0.001
Mof_C 	C 	0.781	0.60151	0.34342	0.098
Mof_C 	C 	0.73327	0.58516	0.35933	0.065
Mof_H 	H 	0.7436	0.586	0.3488	-0.003
Mof_C 	C 	0.72041	0.5683	0.35923	-0.107
Mof_H 	H 	0.7213	0.5582	0.3485	0.068
Mof_C 	C 	0.70611	0.56624	0.37505	0.014
Mof_H 	H 	0.6969	0.5547	0.3755	0.035
Mof_C 	C 	0.70546	0.58154	0.39046	-0.055
Mof_C 	C 	0.71885	0.59801	0.38885	0.043
Mof_H 	H 	0.7185	0.6082	0.3995	0.013
Mof_C 	C 	0.69017	0.58004	0.40793	0.142
Mof_C 	C 	0.6743	0.59503	0.43522	0.136
Mof_C 	C 	0.66537	0.56253	0.42526	0.139
Mof_C 	C 	0.65341	0.61283	0.46236	0.048
Mof_H 	H 	0.6446	0.601	0.4626	0.009
Mof_C 	C 	0.67038	0.61298	0.44823	-0.058
Mof_C 	C 	0.68212	0.63086	0.44724	0.018
Mof_H 	H 	0.6933	0.6319	0.4377	0.035
Mof_C 	C 	0.67751	0.64724	0.46019	-0.11
Mof_H 	H 	0.6852	0.6598	0.4596	0.071
Mof_C 	C 	0.66138	0.64493	0.47413	0.069
Mof_H 	H 	0.6588	0.656	0.4836	-0.002
Mof_C 	C 	0.6281	0.57552	0.5011	0.108
Mof_C 	C 	0.58252	0.6378	0.51753	0.052
Mof_H 	H 	0.5835	0.6479	0.5068	0.003
Mof_C 	C 	0.56521	0.63726	0.52894	-0.096
Mof_H 	H 	0.5545	0.6472	0.5267	0.066
Mof_C 	C 	0.56295	0.62179	0.54439	0.005
Mof_H 	H 	0.5506	0.6207	0.5524	0.039
Mof_C 	C 	0.57958	0.60827	0.54744	-0.053
Mof_C 	C 	0.59696	0.61005	0.53479	0.046
Mof_H 	H 	0.6079	0.6003	0.5366	0.011
Mof_C 	C 	0.57861	0.59207	0.56323	0.133
Mof_N 	N 	0.6351	0.51561	0.40997	-0.224
Mof_N 	N 	0.77309	0.61325	0.35465	-0.26
Mof_N 	N 	0.73243	0.60068	0.37328	-0.229
Mof_N 	N 	0.67908	0.56309	0.40943	-0.155
Mof_N 	N 	0.68858	0.59658	0.42023	-0.153
Mof_N 	N 	0.66246	0.57774	0.43849	-0.152
Mof_N 	N 	0.64926	0.62827	0.47512	-0.234
Mof_N 	N 	0.59916	0.62452	0.52033	-0.226
Mof_N 	N 	0.62707	0.59297	0.49898	-0.267
Mof_N 	N 	0.59343	0.57751	0.56313	-0.15
Mof_S 	S 	0.79017	0.58435	0.32743	-0.063
Mof_S 	S 	0.62921	0.54975	0.50359	-0.061
Mof_C 	C 	0.14834	0.03178	0.4101	0.037
Mof_H 	H 	0.1557	0.0349	0.3976	0.013
Mof_C 	C 	0.15189	0.04417	0.42727	-0.052
Mof_C 	C 	0.14183	0.03951	0.44563	0.01
Mof_H 	H 	0.1434	0.0481	0.4576	0.037
Mof_C 	C 	0.12938	0.02202	0.44617	-0.1
Mof_H 	H 	0.1233	0.0176	0.4589	0.066
Mof_C 	C 	0.12578	0.01099	0.42829	0.058
Mof_H 	H 	0.1163	0.9996	0.4288	0.001
Mof_C 	C 	0.281	0.10151	0.34342	0.098
Mof_C 	C 	0.23327	0.08516	0.35933	0.065
Mof_H 	H 	0.2436	0.086	0.3488	-0.003
Mof_C 	C 	0.22041	0.0683	0.35923	-0.107
Mof_H 	H 	0.2213	0.0582	0.3485	0.068
Mof_C 	C 	0.20611	0.06624	0.37505	0.014
Mof_H 	H 	0.1969	0.0547	0.3755	0.035
Mof_C 	C 	0.20546	0.08154	0.39046	-0.055
Mof_C 	C 	0.21885	0.09801	0.38885	0.043
Mof_H 	H 	0.2185	0.1082	0.3995	0.013
Mof_C 	C 	0.19017	0.08004	0.40793	0.142
Mof_C 	C 	0.1743	0.09503	0.43522	0.136
Mof_C 	C 	0.16537	0.06253	0.42526	0.139
Mof_C 	C 	0.15341	0.11283	0.46236	0.048
Mof_H 	H 	0.1446	0.101	0.4626	0.009
Mof_C 	C 	0.17038	0.11298	0.44823	-0.058
Mof_C 	C 	0.18212	0.13086	0.44724	0.018
Mof_H 	H 	0.1933	0.1319	0.4377	0.035
Mof_C 	C 	0.17751	0.14724	0.46019	-0.11
Mof_H 	H 	0.1852	0.1598	0.4596	0.071
Mof_C 	C 	0.16138	0.14493	0.47413	0.069
Mof_H 	H 	0.1588	0.156	0.4836	-0.002
Mof_C 	C 	0.1281	0.07552	0.5011	0.108
Mof_C 	C 	0.08252	0.1378	0.51753	0.052
Mof_H 	H 	0.0835	0.1479	0.5068	0.003
Mof_C 	C 	0.06521	0.13726	0.52894	-0.096
Mof_H 	H 	0.0545	0.1472	0.5267	0.066
Mof_C 	C 	0.06295	0.12179	0.54439	0.005
Mof_H 	H 	0.0506	0.1207	0.5524	0.039
Mof_C 	C 	0.07958	0.10827	0.54744	-0.053
Mof_C 	C 	0.09696	0.11005	0.53479	0.046
Mof_H 	H 	0.1079	0.1003	0.5366	0.011
Mof_C 	C 	0.07861	0.09207	0.56323	0.133
Mof_N 	N 	0.1351	0.01561	0.40997	-0.224
Mof_N 	N 	0.27309	0.11325	0.35465	-0.26
Mof_N 	N 	0.23243	0.10068	0.37328	-0.229
Mof_N 	N 	0.17908	0.06309	0.40943	-0.155
Mof_N 	N 	0.18858	0.09658	0.42023	-0.153
Mof_N 	N 	0.16246	0.07774	0.43849	-0.152
Mof_N 	N 	0.14926	0.12827	0.47512	-0.234
Mof_N 	N 	0.09916	0.12452	0.52033	-0.226
Mof_N 	N 	0.12707	0.09297	0.49898	-0.267
Mof_N 	N 	0.09343	0.07751	0.56313	-0.15
Mof_S 	S 	0.29017	0.08435	0.32743	-0.063
Mof_S 	S 	0.12921	0.04975	0.50359	-0.061
Mof_C 	C 	0.14834	0.53178	0.9101	0.037
Mof_H 	H 	0.1557	0.5349	0.8976	0.013
Mof_C 	C 	0.15189	0.54417	0.92727	-0.052
Mof_C 	C 	0.14183	0.53951	0.94563	0.01
Mof_H 	H 	0.1434	0.5481	0.9576	0.037
Mof_C 	C 	0.12938	0.52202	0.94617	-0.1
Mof_H 	H 	0.1233	0.5176	0.9589	0.066
Mof_C 	C 	0.12578	0.51099	0.92829	0.058
Mof_H 	H 	0.1163	0.4996	0.9288	0.001
Mof_C 	C 	0.281	0.60151	0.84342	0.098
Mof_C 	C 	0.23327	0.58516	0.85933	0.065
Mof_H 	H 	0.2436	0.586	0.8488	-0.003
Mof_C 	C 	0.22041	0.5683	0.85923	-0.107
Mof_H 	H 	0.2213	0.5582	0.8485	0.068
Mof_C 	C 	0.20611	0.56624	0.87505	0.014
Mof_H 	H 	0.1969	0.5547	0.8755	0.035
Mof_C 	C 	0.20546	0.58154	0.89046	-0.055
Mof_C 	C 	0.21885	0.59801	0.88885	0.043
Mof_H 	H 	0.2185	0.6082	0.8995	0.013
Mof_C 	C 	0.19017	0.58004	0.90793	0.142
Mof_C 	C 	0.1743	0.59503	0.93522	0.136
Mof_C 	C 	0.16537	0.56253	0.92526	0.139
Mof_C 	C 	0.15341	0.61283	0.96236	0.048
Mof_H 	H 	0.1446	0.601	0.9626	0.009
Mof_C 	C 	0.17038	0.61298	0.94823	-0.058
Mof_C 	C 	0.18212	0.63086	0.94724	0.018
Mof_H 	H 	0.1933	0.6319	0.9377	0.035
Mof_C 	C 	0.17751	0.64724	0.96019	-0.11
Mof_H 	H 	0.1852	0.6598	0.9596	0.071
Mof_C 	C 	0.16138	0.64493	0.97413	0.069
Mof_H 	H 	0.1588	0.656	0.9836	-0.002
Mof_C 	C 	0.1281	0.57552	0.0011	0.108
Mof_C 	C 	0.08252	0.6378	0.01753	0.052
Mof_H 	H 	0.0835	0.6479	0.0068	0.003
Mof_C 	C 	0.06521	0.63726	0.02894	-0.096
Mof_H 	H 	0.0545	0.6472	0.0267	0.066
Mof_C 	C 	0.06295	0.62179	0.04439	0.005
Mof_H 	H 	0.0506	0.6207	0.0524	0.039
Mof_C 	C 	0.07958	0.60827	0.04744	-0.053
Mof_C 	C 	0.09696	0.61005	0.03479	0.046
Mof_H 	H 	0.1079	0.6003	0.0366	0.011
Mof_C 	C 	0.07861	0.59207	0.06323	0.133
Mof_N 	N 	0.1351	0.51561	0.90997	-0.224
Mof_N 	N 	0.27309	0.61325	0.85465	-0.26
Mof_N 	N 	0.23243	0.60068	0.87328	-0.229
Mof_N 	N 	0.17908	0.56309	0.90943	-0.155
Mof_N 	N 	0.18858	0.59658	0.92023	-0.153
Mof_N 	N 	0.16246	0.57774	0.93849	-0.152
Mof_N 	N 	0.14926	0.62827	0.97512	-0.234
Mof_N 	N 	0.09916	0.62452	0.02033	-0.226
Mof_N 	N 	0.12707	0.59297	0.99898	-0.267
Mof_N 	N 	0.09343	0.57751	0.06313	-0.15
Mof_S 	S 	0.29017	0.58435	0.82743	-0.063
Mof_S 	S 	0.12921	0.54975	0.00359	-0.061
Mof_C 	C 	0.3399	0.10166	0.53178	0.037
Mof_H 	H 	0.3524	0.0943	0.5349	0.013
Mof_C 	C 	0.32273	0.09811	0.54417	-0.052
Mof_C 	C 	0.30437	0.10817	0.53951	0.01
Mof_H 	H 	0.2924	0.1066	0.5481	0.037
Mof_C 	C 	0.30383	0.12062	0.52202	-0.1
Mof_H 	H 	0.2911	0.1267	0.5176	0.066
Mof_C 	C 	0.32171	0.12422	0.51099	0.058
Mof_H 	H 	0.3212	0.1337	0.4996	0.001
Mof_C 	C 	0.40658	0.969	0.60151	0.098
Mof_C 	C 	0.39067	0.01673	0.58516	0.065
Mof_H 	H 	0.4012	0.0064	0.586	-0.003
Mof_C 	C 	0.39077	0.02959	0.5683	-0.107
Mof_H 	H 	0.4015	0.0287	0.5582	0.068
Mof_C 	C 	0.37495	0.04389	0.56624	0.014
Mof_H 	H 	0.3745	0.0531	0.5547	0.035
Mof_C 	C 	0.35954	0.04454	0.58154	-0.055
Mof_C 	C 	0.36115	0.03115	0.59801	0.043
Mof_H 	H 	0.3505	0.0315	0.6082	0.013
Mof_C 	C 	0.34207	0.05983	0.58004	0.142
Mof_C 	C 	0.31478	0.0757	0.59503	0.136
Mof_C 	C 	0.32474	0.08463	0.56253	0.139
Mof_C 	C 	0.28764	0.09659	0.61283	0.048
Mof_H 	H 	0.2874	0.1054	0.601	0.009
Mof_C 	C 	0.30177	0.07962	0.61298	-0.058
Mof_C 	C 	0.30276	0.06788	0.63086	0.018
Mof_H 	H 	0.3123	0.0567	0.6319	0.035
Mof_C 	C 	0.28981	0.07249	0.64724	-0.11
Mof_H 	H 	0.2904	0.0648	0.6598	0.071
Mof_C 	C 	0.27587	0.08862	0.64493	0.069
Mof_H 	H 	0.2664	0.0912	0.656	-0.002
Mof_C 	C 	0.2489	0.1219	0.57552	0.108
Mof_C 	C 	0.23247	0.16748	0.6378	0.052
Mof_H 	H 	0.2432	0.1665	0.6479	0.003
Mof_C 	C 	0.22106	0.18479	0.63726	-0.096
Mof_H 	H 	0.2233	0.1955	0.6472	0.066
Mof_C 	C 	0.20561	0.18705	0.62179	0.005
Mof_H 	H 	0.1976	0.1994	0.6207	0.039
Mof_C 	C 	0.20256	0.17042	0.60827	-0.053
Mof_C 	C 	0.21521	0.15304	0.61005	0.046
Mof_H 	H 	0.2134	0.1421	0.6003	0.011
Mof_C 	C 	0.18677	0.17139	0.59207	0.133
Mof_N 	N 	0.34003	0.1149	0.51561	-0.224
Mof_N 	N 	0.39535	0.97691	0.61325	-0.26
Mof_N 	N 	0.37672	0.01757	0.60068	-0.229
Mof_N 	N 	0.34057	0.07092	0.56309	-0.155
Mof_N 	N 	0.32977	0.06142	0.59658	-0.153
Mof_N 	N 	0.31151	0.08754	0.57774	-0.152
Mof_N 	N 	0.27488	0.10074	0.62827	-0.234
Mof_N 	N 	0.22967	0.15084	0.62452	-0.226
Mof_N 	N 	0.25102	0.12293	0.59297	-0.267
Mof_N 	N 	0.18687	0.15657	0.57751	-0.15
Mof_S 	S 	0.42257	0.95983	0.58435	-0.063
Mof_S 	S 	0.24641	0.12079	0.54975	-0.061
Mof_C 	C 	0.3399	0.60166	0.03178	0.037
Mof_H 	H 	0.3524	0.5943	0.0349	0.013
Mof_C 	C 	0.32273	0.59811	0.04417	-0.052
Mof_C 	C 	0.30437	0.60817	0.03951	0.01
Mof_H 	H 	0.2924	0.6066	0.0481	0.037
Mof_C 	C 	0.30383	0.62062	0.02202	-0.1
Mof_H 	H 	0.2911	0.6267	0.0176	0.066
Mof_C 	C 	0.32171	0.62422	0.01099	0.058
Mof_H 	H 	0.3212	0.6337	0.9996	0.001
Mof_C 	C 	0.40658	0.469	0.10151	0.098
Mof_C 	C 	0.39067	0.51673	0.08516	0.065
Mof_H 	H 	0.4012	0.5064	0.086	-0.003
Mof_C 	C 	0.39077	0.52959	0.0683	-0.107
Mof_H 	H 	0.4015	0.5287	0.0582	0.068
Mof_C 	C 	0.37495	0.54389	0.06624	0.014
Mof_H 	H 	0.3745	0.5531	0.0547	0.035
Mof_C 	C 	0.35954	0.54454	0.08154	-0.055
Mof_C 	C 	0.36115	0.53115	0.09801	0.043
Mof_H 	H 	0.3505	0.5315	0.1082	0.013
Mof_C 	C 	0.34207	0.55983	0.08004	0.142
Mof_C 	C 	0.31478	0.5757	0.09503	0.136
Mof_C 	C 	0.32474	0.58463	0.06253	0.139
Mof_C 	C 	0.28764	0.59659	0.11283	0.048
Mof_H 	H 	0.2874	0.6054	0.101	0.009
Mof_C 	C 	0.30177	0.57962	0.11298	-0.058
Mof_C 	C 	0.30276	0.56788	0.13086	0.018
Mof_H 	H 	0.3123	0.5567	0.1319	0.035
Mof_C 	C 	0.28981	0.57249	0.14724	-0.11
Mof_H 	H 	0.2904	0.5648	0.1598	0.071
Mof_C 	C 	0.27587	0.58862	0.14493	0.069
Mof_H 	H 	0.2664	0.5912	0.156	-0.002
Mof_C 	C 	0.2489	0.6219	0.07552	0.108
Mof_C 	C 	0.23247	0.66748	0.1378	0.052
Mof_H 	H 	0.2432	0.6665	0.1479	0.003
Mof_C 	C 	0.22106	0.68479	0.13726	-0.096
Mof_H 	H 	0.2233	0.6955	0.1472	0.066
Mof_C 	C 	0.20561	0.68705	0.12179	0.005
Mof_H 	H 	0.1976	0.6994	0.1207	0.039
Mof_C 	C 	0.20256	0.67042	0.10827	-0.053
Mof_C 	C 	0.21521	0.65304	0.11005	0.046
Mof_H 	H 	0.2134	0.6421	0.1003	0.011
Mof_C 	C 	0.18677	0.67139	0.09207	0.133
Mof_N 	N 	0.34003	0.6149	0.01561	-0.224
Mof_N 	N 	0.39535	0.47691	0.11325	-0.26
Mof_N 	N 	0.37672	0.51757	0.10068	-0.229
Mof_N 	N 	0.34057	0.57092	0.06309	-0.155
Mof_N 	N 	0.32977	0.56142	0.09658	-0.153
Mof_N 	N 	0.31151	0.58754	0.07774	-0.152
Mof_N 	N 	0.27488	0.60074	0.12827	-0.234
Mof_N 	N 	0.22967	0.65084	0.12452	-0.226
Mof_N 	N 	0.25102	0.62293	0.09297	-0.267
Mof_N 	N 	0.18687	0.65657	0.07751	-0.15
Mof_S 	S 	0.42257	0.45983	0.08435	-0.063
Mof_S 	S 	0.24641	0.62079	0.04975	-0.061
Mof_C 	C 	0.8399	0.10166	0.03178	0.037
Mof_H 	H 	0.8524	0.0943	0.0349	0.013
Mof_C 	C 	0.82273	0.09811	0.04417	-0.052
Mof_C 	C 	0.80437	0.10817	0.03951	0.01
Mof_H 	H 	0.7924	0.1066	0.0481	0.037
Mof_C 	C 	0.80383	0.12062	0.02202	-0.1
Mof_H 	H 	0.7911	0.1267	0.0176	0.066
Mof_C 	C 	0.82171	0.12422	0.01099	0.058
Mof_H 	H 	0.8212	0.1337	0.9996	0.001
Mof_C 	C 	0.90658	0.969	0.10151	0.098
Mof_C 	C 	0.89067	0.01673	0.08516	0.065
Mof_H 	H 	0.9012	0.0064	0.086	-0.003
Mof_C 	C 	0.89077	0.02959	0.0683	-0.107
Mof_H 	H 	0.9015	0.0287	0.0582	0.068
Mof_C 	C 	0.87495	0.04389	0.06624	0.014
Mof_H 	H 	0.8745	0.0531	0.0547	0.035
Mof_C 	C 	0.85954	0.04454	0.08154	-0.055
Mof_C 	C 	0.86115	0.03115	0.09801	0.043
Mof_H 	H 	0.8505	0.0315	0.1082	0.013
Mof_C 	C 	0.84207	0.05983	0.08004	0.142
Mof_C 	C 	0.81478	0.0757	0.09503	0.136
Mof_C 	C 	0.82474	0.08463	0.06253	0.139
Mof_C 	C 	0.78764	0.09659	0.11283	0.048
Mof_H 	H 	0.7874	0.1054	0.101	0.009
Mof_C 	C 	0.80177	0.07962	0.11298	-0.058
Mof_C 	C 	0.80276	0.06788	0.13086	0.018
Mof_H 	H 	0.8123	0.0567	0.1319	0.035
Mof_C 	C 	0.78981	0.07249	0.14724	-0.11
Mof_H 	H 	0.7904	0.0648	0.1598	0.071
Mof_C 	C 	0.77587	0.08862	0.14493	0.069
Mof_H 	H 	0.7664	0.0912	0.156	-0.002
Mof_C 	C 	0.7489	0.1219	0.07552	0.108
Mof_C 	C 	0.73247	0.16748	0.1378	0.052
Mof_H 	H 	0.7432	0.1665	0.1479	0.003
Mof_C 	C 	0.72106	0.18479	0.13726	-0.096
Mof_H 	H 	0.7233	0.1955	0.1472	0.066
Mof_C 	C 	0.70561	0.18705	0.12179	0.005
Mof_H 	H 	0.6976	0.1994	0.1207	0.039
Mof_C 	C 	0.70256	0.17042	0.10827	-0.053
Mof_C 	C 	0.71521	0.15304	0.11005	0.046
Mof_H 	H 	0.7134	0.1421	0.1003	0.011
Mof_C 	C 	0.68677	0.17139	0.09207	0.133
Mof_N 	N 	0.84003	0.1149	0.01561	-0.224
Mof_N 	N 	0.89535	0.97691	0.11325	-0.26
Mof_N 	N 	0.87672	0.01757	0.10068	-0.229
Mof_N 	N 	0.84057	0.07092	0.06309	-0.155
Mof_N 	N 	0.82977	0.06142	0.09658	-0.153
Mof_N 	N 	0.81151	0.08754	0.07774	-0.152
Mof_N 	N 	0.77488	0.10074	0.12827	-0.234
Mof_N 	N 	0.72967	0.15084	0.12452	-0.226
Mof_N 	N 	0.75102	0.12293	0.09297	-0.267
Mof_N 	N 	0.68687	0.15657	0.07751	-0.15
Mof_S 	S 	0.92257	0.95983	0.08435	-0.063
Mof_S 	S 	0.74641	0.12079	0.04975	-0.061
Mof_C 	C 	0.8399	0.60166	0.53178	0.037
Mof_H 	H 	0.8524	0.5943	0.5349	0.013
Mof_C 	C 	0.82273	0.59811	0.54417	-0.052
Mof_C 	C 	0.80437	0.60817	0.53951	0.01
Mof_H 	H 	0.7924	0.6066	0.5481	0.037
Mof_C 	C 	0.80383	0.62062	0.52202	-0.1
Mof_H 	H 	0.7911	0.6267	0.5176	0.066
Mof_C 	C 	0.82171	0.62422	0.51099	0.058
Mof_H 	H 	0.8212	0.6337	0.4996	0.001
Mof_C 	C 	0.90658	0.469	0.60151	0.098
Mof_C 	C 	0.89067	0.51673	0.58516	0.065
Mof_H 	H 	0.9012	0.5064	0.586	-0.003
Mof_C 	C 	0.89077	0.52959	0.5683	-0.107
Mof_H 	H 	0.9015	0.5287	0.5582	0.068
Mof_C 	C 	0.87495	0.54389	0.56624	0.014
Mof_H 	H 	0.8745	0.5531	0.5547	0.035
Mof_C 	C 	0.85954	0.54454	0.58154	-0.055
Mof_C 	C 	0.86115	0.53115	0.59801	0.043
Mof_H 	H 	0.8505	0.5315	0.6082	0.013
Mof_C 	C 	0.84207	0.55983	0.58004	0.142
Mof_C 	C 	0.81478	0.5757	0.59503	0.136
Mof_C 	C 	0.82474	0.58463	0.56253	0.139
Mof_C 	C 	0.78764	0.59659	0.61283	0.048
Mof_H 	H 	0.7874	0.6054	0.601	0.009
Mof_C 	C 	0.80177	0.57962	0.61298	-0.058
Mof_C 	C 	0.80276	0.56788	0.63086	0.018
Mof_H 	H 	0.8123	0.5567	0.6319	0.035
Mof_C 	C 	0.78981	0.57249	0.64724	-0.11
Mof_H 	H 	0.7904	0.5648	0.6598	0.071
Mof_C 	C 	0.77587	0.58862	0.64493	0.069
Mof_H 	H 	0.7664	0.5912	0.656	-0.002
Mof_C 	C 	0.7489	0.6219	0.57552	0.108
Mof_C 	C 	0.73247	0.66748	0.6378	0.052
Mof_H 	H 	0.7432	0.6665	0.6479	0.003
Mof_C 	C 	0.72106	0.68479	0.63726	-0.096
Mof_H 	H 	0.7233	0.6955	0.6472	0.066
Mof_C 	C 	0.70561	0.68705	0.62179	0.005
Mof_H 	H 	0.6976	0.6994	0.6207	0.039
Mof_C 	C 	0.70256	0.67042	0.60827	-0.053
Mof_C 	C 	0.71521	0.65304	0.61005	0.046
Mof_H 	H 	0.7134	0.6421	0.6003	0.011
Mof_C 	C 	0.68677	0.67139	0.59207	0.133
Mof_N 	N 	0.84003	0.6149	0.51561	-0.224
Mof_N 	N 	0.89535	0.47691	0.61325	-0.26
Mof_N 	N 	0.87672	0.51757	0.60068	-0.229
Mof_N 	N 	0.84057	0.57092	0.56309	-0.155
Mof_N 	N 	0.82977	0.56142	0.59658	-0.153
Mof_N 	N 	0.81151	0.58754	0.57774	-0.152
Mof_N 	N 	0.77488	0.60074	0.62827	-0.234
Mof_N 	N 	0.72967	0.65084	0.62452	-0.226
Mof_N 	N 	0.75102	0.62293	0.59297	-0.267
Mof_N 	N 	0.68687	0.65657	0.57751	-0.15
Mof_S 	S 	0.92257	0.45983	0.58435	-0.063
Mof_S 	S 	0.74641	0.62079	0.54975	-0.061
Mof_C 	C 	0.4101	0.60166	0.71822	0.037
Mof_H 	H 	0.3976	0.5943	0.7151	0.013
Mof_C 	C 	0.42727	0.59811	0.70583	-0.052
Mof_C 	C 	0.44563	0.60817	0.71049	0.01
Mof_H 	H 	0.4576	0.6066	0.7019	0.037
Mof_C 	C 	0.44617	0.62062	0.72798	-0.1
Mof_H 	H 	0.4589	0.6267	0.7324	0.066
Mof_C 	C 	0.42829	0.62422	0.73901	0.058
Mof_H 	H 	0.4288	0.6337	0.7504	0.001
Mof_C 	C 	0.34342	0.469	0.64849	0.098
Mof_C 	C 	0.35933	0.51673	0.66484	0.065
Mof_H 	H 	0.3488	0.5064	0.664	-0.003
Mof_C 	C 	0.35923	0.52959	0.6817	-0.107
Mof_H 	H 	0.3485	0.5287	0.6918	0.068
Mof_C 	C 	0.37505	0.54389	0.68376	0.014
Mof_H 	H 	0.3755	0.5531	0.6953	0.035
Mof_C 	C 	0.39046	0.54454	0.66846	-0.055
Mof_C 	C 	0.38885	0.53115	0.65199	0.043
Mof_H 	H 	0.3995	0.5315	0.6418	0.013
Mof_C 	C 	0.40793	0.55983	0.66996	0.142
Mof_C 	C 	0.43522	0.5757	0.65497	0.136
Mof_C 	C 	0.42526	0.58463	0.68747	0.139
Mof_C 	C 	0.46236	0.59659	0.63717	0.048
Mof_H 	H 	0.4626	0.6054	0.649	0.009
Mof_C 	C 	0.44823	0.57962	0.63702	-0.058
Mof_C 	C 	0.44724	0.56788	0.61914	0.018
Mof_H 	H 	0.4377	0.5567	0.6181	0.035
Mof_C 	C 	0.46019	0.57249	0.60276	-0.11
Mof_H 	H 	0.4596	0.5648	0.5902	0.071
Mof_C 	C 	0.47413	0.58862	0.60507	0.069
Mof_H 	H 	0.4836	0.5912	0.594	-0.002
Mof_C 	C 	0.5011	0.6219	0.67448	0.108
Mof_C 	C 	0.51753	0.66748	0.6122	0.052
Mof_H 	H 	0.5068	0.6665	0.6021	0.003
Mof_C 	C 	0.52894	0.68479	0.61274	-0.096
Mof_H 	H 	0.5267	0.6955	0.6028	0.066
Mof_C 	C 	0.54439	0.68705	0.62821	0.005
Mof_H 	H 	0.5524	0.6994	0.6293	0.039
Mof_C 	C 	0.54744	0.67042	0.64173	-0.053
Mof_C 	C 	0.53479	0.65304	0.63995	0.046
Mof_H 	H 	0.5366	0.6421	0.6497	0.011
Mof_C 	C 	0.56323	0.67139	0.65793	0.133
Mof_N 	N 	0.40997	0.6149	0.73439	-0.224
Mof_N 	N 	0.35465	0.47691	0.63675	-0.26
Mof_N 	N 	0.37328	0.51757	0.64932	-0.229
Mof_N 	N 	0.40943	0.57092	0.68691	-0.155
Mof_N 	N 	0.42023	0.56142	0.65342	-0.153
Mof_N 	N 	0.43849	0.58754	0.67226	-0.152
Mof_N 	N 	0.47512	0.60074	0.62173	-0.234
Mof_N 	N 	0.52033	0.65084	0.62548	-0.226
Mof_N 	N 	0.49898	0.62293	0.65703	-0.267
Mof_N 	N 	0.56313	0.65657	0.67249	-0.15
Mof_S 	S 	0.32743	0.45983	0.66565	-0.063
Mof_S 	S 	0.50359	0.62079	0.70025	-0.061
Mof_C 	C 	0.4101	0.10166	0.21822	0.037
Mof_H 	H 	0.3976	0.0943	0.2151	0.013
Mof_C 	C 	0.42727	0.09811	0.20583	-0.052
Mof_C 	C 	0.44563	0.10817	0.21049	0.01
Mof_H 	H 	0.4576	0.1066	0.2019	0.037
Mof_C 	C 	0.44617	0.12062	0.22798	-0.1
Mof_H 	H 	0.4589	0.1267	0.2324	0.066
Mof_C 	C 	0.42829	0.12422	0.23901	0.058
Mof_H 	H 	0.4288	0.1337	0.2504	0.001
Mof_C 	C 	0.34342	0.969	0.14849	0.098
Mof_C 	C 	0.35933	0.01673	0.16484	0.065
Mof_H 	H 	0.3488	0.0064	0.164	-0.003
Mof_C 	C 	0.35923	0.02959	0.1817	-0.107
Mof_H 	H 	0.3485	0.0287	0.1918	0.068
Mof_C 	C 	0.37505	0.04389	0.18376	0.014
Mof_H 	H 	0.3755	0.0531	0.1953	0.035
Mof_C 	C 	0.39046	0.04454	0.16846	-0.055
Mof_C 	C 	0.38885	0.03115	0.15199	0.043
Mof_H 	H 	0.3995	0.0315	0.1418	0.013
Mof_C 	C 	0.40793	0.05983	0.16996	0.142
Mof_C 	C 	0.43522	0.0757	0.15497	0.136
Mof_C 	C 	0.42526	0.08463	0.18747	0.139
Mof_C 	C 	0.46236	0.09659	0.13717	0.048
Mof_H 	H 	0.4626	0.1054	0.149	0.009
Mof_C 	C 	0.44823	0.07962	0.13702	-0.058
Mof_C 	C 	0.44724	0.06788	0.11914	0.018
Mof_H 	H 	0.4377	0.0567	0.1181	0.035
Mof_C 	C 	0.46019	0.07249	0.10276	-0.11
Mof_H 	H 	0.4596	0.0648	0.0902	0.071
Mof_C 	C 	0.47413	0.08862	0.10507	0.069
Mof_H 	H 	0.4836	0.0912	0.094	-0.002
Mof_C 	C 	0.5011	0.1219	0.17448	0.108
Mof_C 	C 	0.51753	0.16748	0.1122	0.052
Mof_H 	H 	0.5068	0.1665	0.1021	0.003
Mof_C 	C 	0.52894	0.18479	0.11274	-0.096
Mof_H 	H 	0.5267	0.1955	0.1028	0.066
Mof_C 	C 	0.54439	0.18705	0.12821	0.005
Mof_H 	H 	0.5524	0.1994	0.1293	0.039
Mof_C 	C 	0.54744	0.17042	0.14173	-0.053
Mof_C 	C 	0.53479	0.15304	0.13995	0.046
Mof_H 	H 	0.5366	0.1421	0.1497	0.011
Mof_C 	C 	0.56323	0.17139	0.15793	0.133
Mof_N 	N 	0.40997	0.1149	0.23439	-0.224
Mof_N 	N 	0.35465	0.97691	0.13675	-0.26
Mof_N 	N 	0.37328	0.01757	0.14932	-0.229
Mof_N 	N 	0.40943	0.07092	0.18691	-0.155
Mof_N 	N 	0.42023	0.06142	0.15342	-0.153
Mof_N 	N 	0.43849	0.08754	0.17226	-0.152
Mof_N 	N 	0.47512	0.10074	0.12173	-0.234
Mof_N 	N 	0.52033	0.15084	0.12548	-0.226
Mof_N 	N 	0.49898	0.12293	0.15703	-0.267
Mof_N 	N 	0.56313	0.15657	0.17249	-0.15
Mof_S 	S 	0.32743	0.95983	0.16565	-0.063
Mof_S 	S 	0.50359	0.12079	0.20025	-0.061
Mof_C 	C 	0.9101	0.60166	0.21822	0.037
Mof_H 	H 	0.8976	0.5943	0.2151	0.013
Mof_C 	C 	0.92727	0.59811	0.20583	-0.052
Mof_C 	C 	0.94563	0.60817	0.21049	0.01
Mof_H 	H 	0.9576	0.6066	0.2019	0.037
Mof_C 	C 	0.94617	0.62062	0.22798	-0.1
Mof_H 	H 	0.9589	0.6267	0.2324	0.066
Mof_C 	C 	0.92829	0.62422	0.23901	0.058
Mof_H 	H 	0.9288	0.6337	0.2504	0.001
Mof_C 	C 	0.84342	0.469	0.14849	0.098
Mof_C 	C 	0.85933	0.51673	0.16484	0.065
Mof_H 	H 	0.8488	0.5064	0.164	-0.003
Mof_C 	C 	0.85923	0.52959	0.1817	-0.107
Mof_H 	H 	0.8485	0.5287	0.1918	0.068
Mof_C 	C 	0.87505	0.54389	0.18376	0.014
Mof_H 	H 	0.8755	0.5531	0.1953	0.035
Mof_C 	C 	0.89046	0.54454	0.16846	-0.055
Mof_C 	C 	0.88885	0.53115	0.15199	0.043
Mof_H 	H 	0.8995	0.5315	0.1418	0.013
Mof_C 	C 	0.90793	0.55983	0.16996	0.142
Mof_C 	C 	0.93522	0.5757	0.15497	0.136
Mof_C 	C 	0.92526	0.58463	0.18747	0.139
Mof_C 	C 	0.96236	0.59659	0.13717	0.048
Mof_H 	H 	0.9626	0.6054	0.149	0.009
Mof_C 	C 	0.94823	0.57962	0.13702	-0.058
Mof_C 	C 	0.94724	0.56788	0.11914	0.018
Mof_H 	H 	0.9377	0.5567	0.1181	0.035
Mof_C 	C 	0.96019	0.57249	0.10276	-0.11
Mof_H 	H 	0.9596	0.5648	0.0902	0.071
Mof_C 	C 	0.97413	0.58862	0.10507	0.069
Mof_H 	H 	0.9836	0.5912	0.094	-0.002
Mof_C 	C 	0.0011	0.6219	0.17448	0.108
Mof_C 	C 	0.01753	0.66748	0.1122	0.052
Mof_H 	H 	0.0068	0.6665	0.1021	0.003
Mof_C 	C 	0.02894	0.68479	0.11274	-0.096
Mof_H 	H 	0.0267	0.6955	0.1028	0.066
Mof_C 	C 	0.04439	0.68705	0.12821	0.005
Mof_H 	H 	0.0524	0.6994	0.1293	0.039
Mof_C 	C 	0.04744	0.67042	0.14173	-0.053
Mof_C 	C 	0.03479	0.65304	0.13995	0.046
Mof_H 	H 	0.0366	0.6421	0.1497	0.011
Mof_C 	C 	0.06323	0.67139	0.15793	0.133
Mof_N 	N 	0.90997	0.6149	0.23439	-0.224
Mof_N 	N 	0.85465	0.47691	0.13675	-0.26
Mof_N 	N 	0.87328	0.51757	0.14932	-0.229
Mof_N 	N 	0.90943	0.57092	0.18691	-0.155
Mof_N 	N 	0.92023	0.56142	0.15342	-0.153
Mof_N 	N 	0.93849	0.58754	0.17226	-0.152
Mof_N 	N 	0.97512	0.60074	0.12173	-0.234
Mof_N 	N 	0.02033	0.65084	0.12548	-0.226
Mof_N 	N 	0.99898	0.62293	0.15703	-0.267
Mof_N 	N 	0.06313	0.65657	0.17249	-0.15
Mof_S 	S 	0.82743	0.45983	0.16565	-0.063
Mof_S 	S 	0.00359	0.62079	0.20025	-0.061
Mof_C 	C 	0.9101	0.10166	0.71822	0.037
Mof_H 	H 	0.8976	0.0943	0.7151	0.013
Mof_C 	C 	0.92727	0.09811	0.70583	-0.052
Mof_C 	C 	0.94563	0.10817	0.71049	0.01
Mof_H 	H 	0.9576	0.1066	0.7019	0.037
Mof_C 	C 	0.94617	0.12062	0.72798	-0.1
Mof_H 	H 	0.9589	0.1267	0.7324	0.066
Mof_C 	C 	0.92829	0.12422	0.73901	0.058
Mof_H 	H 	0.9288	0.1337	0.7504	0.001
Mof_C 	C 	0.84342	0.969	0.64849	0.098
Mof_C 	C 	0.85933	0.01673	0.66484	0.065
Mof_H 	H 	0.8488	0.0064	0.664	-0.003
Mof_C 	C 	0.85923	0.02959	0.6817	-0.107
Mof_H 	H 	0.8485	0.0287	0.6918	0.068
Mof_C 	C 	0.87505	0.04389	0.68376	0.014
Mof_H 	H 	0.8755	0.0531	0.6953	0.035
Mof_C 	C 	0.89046	0.04454	0.66846	-0.055
Mof_C 	C 	0.88885	0.03115	0.65199	0.043
Mof_H 	H 	0.8995	0.0315	0.6418	0.013
Mof_C 	C 	0.90793	0.05983	0.66996	0.142
Mof_C 	C 	0.93522	0.0757	0.65497	0.136
Mof_C 	C 	0.92526	0.08463	0.68747	0.139
Mof_C 	C 	0.96236	0.09659	0.63717	0.048
Mof_H 	H 	0.9626	0.1054	0.649	0.009
Mof_C 	C 	0.94823	0.07962	0.63702	-0.058
Mof_C 	C 	0.94724	0.06788	0.61914	0.018
Mof_H 	H 	0.9377	0.0567	0.6181	0.035
Mof_C 	C 	0.96019	0.07249	0.60276	-0.11
Mof_H 	H 	0.9596	0.0648	0.5902	0.071
Mof_C 	C 	0.97413	0.08862	0.60507	0.069
Mof_H 	H 	0.9836	0.0912	0.594	-0.002
Mof_C 	C 	0.0011	0.1219	0.67448	0.108
Mof_C 	C 	0.01753	0.16748	0.6122	0.052
Mof_H 	H 	0.0068	0.1665	0.6021	0.003
Mof_C 	C 	0.02894	0.18479	0.61274	-0.096
Mof_H 	H 	0.0267	0.1955	0.6028	0.066
Mof_C 	C 	0.04439	0.18705	0.62821	0.005
Mof_H 	H 	0.0524	0.1994	0.6293	0.039
Mof_C 	C 	0.04744	0.17042	0.64173	-0.053
Mof_C 	C 	0.03479	0.15304	0.63995	0.046
Mof_H 	H 	0.0366	0.1421	0.6497	0.011
Mof_C 	C 	0.06323	0.17139	0.65793	0.133
Mof_N 	N 	0.90997	0.1149	0.73439	-0.224
Mof_N 	N 	0.85465	0.97691	0.63675	-0.26
Mof_N 	N 	0.87328	0.01757	0.64932	-0.229
Mof_N 	N 	0.90943	0.07092	0.68691	-0.155
Mof_N 	N 	0.92023	0.06142	0.65342	-0.153
Mof_N 	N 	0.93849	0.08754	0.67226	-0.152
Mof_N 	N 	0.97512	0.10074	0.62173	-0.234
Mof_N 	N 	0.02033	0.15084	0.62548	-0.226
Mof_N 	N 	0.99898	0.12293	0.65703	-0.267
Mof_N 	N 	0.06313	0.15657	0.67249	-0.15
Mof_S 	S 	0.82743	0.95983	0.66565	-0.063
Mof_S 	S 	0.00359	0.12079	0.70025	-0.061
Mof_C 	C 	0.8399	0.14834	0.21822	0.037
Mof_H 	H 	0.8524	0.1557	0.2151	0.013
Mof_C 	C 	0.82273	0.15189	0.20583	-0.052
Mof_C 	C 	0.80437	0.14183	0.21049	0.01
Mof_H 	H 	0.7924	0.1434	0.2019	0.037
Mof_C 	C 	0.80383	0.12938	0.22798	-0.1
Mof_H 	H 	0.7911	0.1233	0.2324	0.066
Mof_C 	C 	0.82171	0.12578	0.23901	0.058
Mof_H 	H 	0.8212	0.1163	0.2504	0.001
Mof_C 	C 	0.90658	0.281	0.14849	0.098
Mof_C 	C 	0.89067	0.23327	0.16484	0.065
Mof_H 	H 	0.9012	0.2436	0.164	-0.003
Mof_C 	C 	0.89077	0.22041	0.1817	-0.107
Mof_H 	H 	0.9015	0.2213	0.1918	0.068
Mof_C 	C 	0.87495	0.20611	0.18376	0.014
Mof_H 	H 	0.8745	0.1969	0.1953	0.035
Mof_C 	C 	0.85954	0.20546	0.16846	-0.055
Mof_C 	C 	0.86115	0.21885	0.15199	0.043
Mof_H 	H 	0.8505	0.2185	0.1418	0.013
Mof_C 	C 	0.84207	0.19017	0.16996	0.142
Mof_C 	C 	0.81478	0.1743	0.15497	0.136
Mof_C 	C 	0.82474	0.16537	0.18747	0.139
Mof_C 	C 	0.78764	0.15341	0.13717	0.048
Mof_H 	H 	0.7874	0.1446	0.149	0.009
Mof_C 	C 	0.80177	0.17038	0.13702	-0.058
Mof_C 	C 	0.80276	0.18212	0.11914	0.018
Mof_H 	H 	0.8123	0.1933	0.1181	0.035
Mof_C 	C 	0.78981	0.17751	0.10276	-0.11
Mof_H 	H 	0.7904	0.1852	0.0902	0.071
Mof_C 	C 	0.77587	0.16138	0.10507	0.069
Mof_H 	H 	0.7664	0.1588	0.094	-0.002
Mof_C 	C 	0.7489	0.1281	0.17448	0.108
Mof_C 	C 	0.73247	0.08252	0.1122	0.052
Mof_H 	H 	0.7432	0.0835	0.1021	0.003
Mof_C 	C 	0.72106	0.06521	0.11274	-0.096
Mof_H 	H 	0.7233	0.0545	0.1028	0.066
Mof_C 	C 	0.70561	0.06295	0.12821	0.005
Mof_H 	H 	0.6976	0.0506	0.1293	0.039
Mof_C 	C 	0.70256	0.07958	0.14173	-0.053
Mof_C 	C 	0.71521	0.09696	0.13995	0.046
Mof_H 	H 	0.7134	0.1079	0.1497	0.011
Mof_C 	C 	0.68677	0.07861	0.15793	0.133
Mof_N 	N 	0.84003	0.1351	0.23439	-0.224
Mof_N 	N 	0.89535	0.27309	0.13675	-0.26
Mof_N 	N 	0.87672	0.23243	0.14932	-0.229
Mof_N 	N 	0.84057	0.17908	0.18691	-0.155
Mof_N 	N 	0.82977	0.18858	0.15342	-0.153
Mof_N 	N 	0.81151	0.16246	0.17226	-0.152
Mof_N 	N 	0.77488	0.14926	0.12173	-0.234
Mof_N 	N 	0.72967	0.09916	0.12548	-0.226
Mof_N 	N 	0.75102	0.12707	0.15703	-0.267
Mof_N 	N 	0.68687	0.09343	0.17249	-0.15
Mof_S 	S 	0.92257	0.29017	0.16565	-0.063
Mof_S 	S 	0.74641	0.12921	0.20025	-0.061
Mof_C 	C 	0.8399	0.64834	0.71822	0.037
Mof_H 	H 	0.8524	0.6557	0.7151	0.013
Mof_C 	C 	0.82273	0.65189	0.70583	-0.052
Mof_C 	C 	0.80437	0.64183	0.71049	0.01
Mof_H 	H 	0.7924	0.6434	0.7019	0.037
Mof_C 	C 	0.80383	0.62938	0.72798	-0.1
Mof_H 	H 	0.7911	0.6233	0.7324	0.066
Mof_C 	C 	0.82171	0.62578	0.73901	0.058
Mof_H 	H 	0.8212	0.6163	0.7504	0.001
Mof_C 	C 	0.90658	0.781	0.64849	0.098
Mof_C 	C 	0.89067	0.73327	0.66484	0.065
Mof_H 	H 	0.9012	0.7436	0.664	-0.003
Mof_C 	C 	0.89077	0.72041	0.6817	-0.107
Mof_H 	H 	0.9015	0.7213	0.6918	0.068
Mof_C 	C 	0.87495	0.70611	0.68376	0.014
Mof_H 	H 	0.8745	0.6969	0.6953	0.035
Mof_C 	C 	0.85954	0.70546	0.66846	-0.055
Mof_C 	C 	0.86115	0.71885	0.65199	0.043
Mof_H 	H 	0.8505	0.7185	0.6418	0.013
Mof_C 	C 	0.84207	0.69017	0.66996	0.142
Mof_C 	C 	0.81478	0.6743	0.65497	0.136
Mof_C 	C 	0.82474	0.66537	0.68747	0.139
Mof_C 	C 	0.78764	0.65341	0.63717	0.048
Mof_H 	H 	0.7874	0.6446	0.649	0.009
Mof_C 	C 	0.80177	0.67038	0.63702	-0.058
Mof_C 	C 	0.80276	0.68212	0.61914	0.018
Mof_H 	H 	0.8123	0.6933	0.6181	0.035
Mof_C 	C 	0.78981	0.67751	0.60276	-0.11
Mof_H 	H 	0.7904	0.6852	0.5902	0.071
Mof_C 	C 	0.77587	0.66138	0.60507	0.069
Mof_H 	H 	0.7664	0.6588	0.594	-0.002
Mof_C 	C 	0.7489	0.6281	0.67448	0.108
Mof_C 	C 	0.73247	0.58252	0.6122	0.052
Mof_H 	H 	0.7432	0.5835	0.6021	0.003
Mof_C 	C 	0.72106	0.56521	0.61274	-0.096
Mof_H 	H 	0.7233	0.5545	0.6028	0.066
Mof_C 	C 	0.70561	0.56295	0.62821	0.005
Mof_H 	H 	0.6976	0.5506	0.6293	0.039
Mof_C 	C 	0.70256	0.57958	0.64173	-0.053
Mof_C 	C 	0.71521	0.59696	0.63995	0.046
Mof_H 	H 	0.7134	0.6079	0.6497	0.011
Mof_C 	C 	0.68677	0.57861	0.65793	0.133
Mof_N 	N 	0.84003	0.6351	0.73439	-0.224
Mof_N 	N 	0.89535	0.77309	0.63675	-0.26
Mof_N 	N 	0.87672	0.73243	0.64932	-0.229
Mof_N 	N 	0.84057	0.67908	0.68691	-0.155
Mof_N 	N 	0.82977	0.68858	0.65342	-0.153
Mof_N 	N 	0.81151	0.66246	0.67226	-0.152
Mof_N 	N 	0.77488	0.64926	0.62173	-0.234
Mof_N 	N 	0.72967	0.59916	0.62548	-0.226
Mof_N 	N 	0.75102	0.62707	0.65703	-0.267
Mof_N 	N 	0.68687	0.59343	0.67249	-0.15
Mof_S 	S 	0.92257	0.79017	0.66565	-0.063
Mof_S 	S 	0.74641	0.62921	0.70025	-0.061
Mof_C 	C 	0.3399	0.14834	0.71822	0.037
Mof_H 	H 	0.3524	0.1557	0.7151	0.013
Mof_C 	C 	0.32273	0.15189	0.70583	-0.052
Mof_C 	C 	0.30437	0.14183	0.71049	0.01
Mof_H 	H 	0.2924	0.1434	0.7019	0.037
Mof_C 	C 	0.30383	0.12938	0.72798	-0.1
Mof_H 	H 	0.2911	0.1233	0.7324	0.066
Mof_C 	C 	0.32171	0.12578	0.73901	0.058
Mof_H 	H 	0.3212	0.1163	0.7504	0.001
Mof_C 	C 	0.40658	0.281	0.64849	0.098
Mof_C 	C 	0.39067	0.23327	0.66484	0.065
Mof_H 	H 	0.4012	0.2436	0.664	-0.003
Mof_C 	C 	0.39077	0.22041	0.6817	-0.107
Mof_H 	H 	0.4015	0.2213	0.6918	0.068
Mof_C 	C 	0.37495	0.20611	0.68376	0.014
Mof_H 	H 	0.3745	0.1969	0.6953	0.035
Mof_C 	C 	0.35954	0.20546	0.66846	-0.055
Mof_C 	C 	0.36115	0.21885	0.65199	0.043
Mof_H 	H 	0.3505	0.2185	0.6418	0.013
Mof_C 	C 	0.34207	0.19017	0.66996	0.142
Mof_C 	C 	0.31478	0.1743	0.65497	0.136
Mof_C 	C 	0.32474	0.16537	0.68747	0.139
Mof_C 	C 	0.28764	0.15341	0.63717	0.048
Mof_H 	H 	0.2874	0.1446	0.649	0.009
Mof_C 	C 	0.30177	0.17038	0.63702	-0.058
Mof_C 	C 	0.30276	0.18212	0.61914	0.018
Mof_H 	H 	0.3123	0.1933	0.6181	0.035
Mof_C 	C 	0.28981	0.17751	0.60276	-0.11
Mof_H 	H 	0.2904	0.1852	0.5902	0.071
Mof_C 	C 	0.27587	0.16138	0.60507	0.069
Mof_H 	H 	0.2664	0.1588	0.594	-0.002
Mof_C 	C 	0.2489	0.1281	0.67448	0.108
Mof_C 	C 	0.23247	0.08252	0.6122	0.052
Mof_H 	H 	0.2432	0.0835	0.6021	0.003
Mof_C 	C 	0.22106	0.06521	0.61274	-0.096
Mof_H 	H 	0.2233	0.0545	0.6028	0.066
Mof_C 	C 	0.20561	0.06295	0.62821	0.005
Mof_H 	H 	0.1976	0.0506	0.6293	0.039
Mof_C 	C 	0.20256	0.07958	0.64173	-0.053
Mof_C 	C 	0.21521	0.09696	0.63995	0.046
Mof_H 	H 	0.2134	0.1079	0.6497	0.011
Mof_C 	C 	0.18677	0.07861	0.65793	0.133
Mof_N 	N 	0.34003	0.1351	0.73439	-0.224
Mof_N 	N 	0.39535	0.27309	0.63675	-0.26
Mof_N 	N 	0.37672	0.23243	0.64932	-0.229
Mof_N 	N 	0.34057	0.17908	0.68691	-0.155
Mof_N 	N 	0.32977	0.18858	0.65342	-0.153
Mof_N 	N 	0.31151	0.16246	0.67226	-0.152
Mof_N 	N 	0.27488	0.14926	0.62173	-0.234
Mof_N 	N 	0.22967	0.09916	0.62548	-0.226
Mof_N 	N 	0.25102	0.12707	0.65703	-0.267
Mof_N 	N 	0.18687	0.09343	0.67249	-0.15
Mof_S 	S 	0.42257	0.29017	0.66565	-0.063
Mof_S 	S 	0.24641	0.12921	0.70025	-0.061
Mof_C 	C 	0.3399	0.64834	0.21822	0.037
Mof_H 	H 	0.3524	0.6557	0.2151	0.013
Mof_C 	C 	0.32273	0.65189	0.20583	-0.052
Mof_C 	C 	0.30437	0.64183	0.21049	0.01
Mof_H 	H 	0.2924	0.6434	0.2019	0.037
Mof_C 	C 	0.30383	0.62938	0.22798	-0.1
Mof_H 	H 	0.2911	0.6233	0.2324	0.066
Mof_C 	C 	0.32171	0.62578	0.23901	0.058
Mof_H 	H 	0.3212	0.6163	0.2504	0.001
Mof_C 	C 	0.40658	0.781	0.14849	0.098
Mof_C 	C 	0.39067	0.73327	0.16484	0.065
Mof_H 	H 	0.4012	0.7436	0.164	-0.003
Mof_C 	C 	0.39077	0.72041	0.1817	-0.107
Mof_H 	H 	0.4015	0.7213	0.1918	0.068
Mof_C 	C 	0.37495	0.70611	0.18376	0.014
Mof_H 	H 	0.3745	0.6969	0.1953	0.035
Mof_C 	C 	0.35954	0.70546	0.16846	-0.055
Mof_C 	C 	0.36115	0.71885	0.15199	0.043
Mof_H 	H 	0.3505	0.7185	0.1418	0.013
Mof_C 	C 	0.34207	0.69017	0.16996	0.142
Mof_C 	C 	0.31478	0.6743	0.15497	0.136
Mof_C 	C 	0.32474	0.66537	0.18747	0.139
Mof_C 	C 	0.28764	0.65341	0.13717	0.048
Mof_H 	H 	0.2874	0.6446	0.149	0.009
Mof_C 	C 	0.30177	0.67038	0.13702	-0.058
Mof_C 	C 	0.30276	0.68212	0.11914	0.018
Mof_H 	H 	0.3123	0.6933	0.1181	0.035
Mof_C 	C 	0.28981	0.67751	0.10276	-0.11
Mof_H 	H 	0.2904	0.6852	0.0902	0.071
Mof_C 	C 	0.27587	0.66138	0.10507	0.069
Mof_H 	H 	0.2664	0.6588	0.094	-0.002
Mof_C 	C 	0.2489	0.6281	0.17448	0.108
Mof_C 	C 	0.23247	0.58252	0.1122	0.052
Mof_H 	H 	0.2432	0.5835	0.1021	0.003
Mof_C 	C 	0.22106	0.56521	0.11274	-0.096
Mof_H 	H 	0.2233	0.5545	0.1028	0.066
Mof_C 	C 	0.20561	0.56295	0.12821	0.005
Mof_H 	H 	0.1976	0.5506	0.1293	0.039
Mof_C 	C 	0.20256	0.57958	0.14173	-0.053
Mof_C 	C 	0.21521	0.59696	0.13995	0.046
Mof_H 	H 	0.2134	0.6079	0.1497	0.011
Mof_C 	C 	0.18677	0.57861	0.15793	0.133
Mof_N 	N 	0.34003	0.6351	0.23439	-0.224
Mof_N 	N 	0.39535	0.77309	0.13675	-0.26
Mof_N 	N 	0.37672	0.73243	0.14932	-0.229
Mof_N 	N 	0.34057	0.67908	0.18691	-0.155
Mof_N 	N 	0.32977	0.68858	0.15342	-0.153
Mof_N 	N 	0.31151	0.66246	0.17226	-0.152
Mof_N 	N 	0.27488	0.64926	0.12173	-0.234
Mof_N 	N 	0.22967	0.59916	0.12548	-0.226
Mof_N 	N 	0.25102	0.62707	0.15703	-0.267
Mof_N 	N 	0.18687	0.59343	0.17249	-0.15
Mof_S 	S 	0.42257	0.79017	0.16565	-0.063
Mof_S 	S 	0.24641	0.62921	0.20025	-0.061
Mof_C 	C 	0.9101	0.64834	0.03178	0.037
Mof_H 	H 	0.8976	0.6557	0.0349	0.013
Mof_C 	C 	0.92727	0.65189	0.04417	-0.052
Mof_C 	C 	0.94563	0.64183	0.03951	0.01
Mof_H 	H 	0.9576	0.6434	0.0481	0.037
Mof_C 	C 	0.94617	0.62938	0.02202	-0.1
Mof_H 	H 	0.9589	0.6233	0.0176	0.066
Mof_C 	C 	0.92829	0.62578	0.01099	0.058
Mof_H 	H 	0.9288	0.6163	0.9996	0.001
Mof_C 	C 	0.84342	0.781	0.10151	0.098
Mof_C 	C 	0.85933	0.73327	0.08516	0.065
Mof_H 	H 	0.8488	0.7436	0.086	-0.003
Mof_C 	C 	0.85923	0.72041	0.0683	-0.107
Mof_H 	H 	0.8485	0.7213	0.0582	0.068
Mof_C 	C 	0.87505	0.70611	0.06624	0.014
Mof_H 	H 	0.8755	0.6969	0.0547	0.035
Mof_C 	C 	0.89046	0.70546	0.08154	-0.055
Mof_C 	C 	0.88885	0.71885	0.09801	0.043
Mof_H 	H 	0.8995	0.7185	0.1082	0.013
Mof_C 	C 	0.90793	0.69017	0.08004	0.142
Mof_C 	C 	0.93522	0.6743	0.09503	0.136
Mof_C 	C 	0.92526	0.66537	0.06253	0.139
Mof_C 	C 	0.96236	0.65341	0.11283	0.048
Mof_H 	H 	0.9626	0.6446	0.101	0.009
Mof_C 	C 	0.94823	0.67038	0.11298	-0.058
Mof_C 	C 	0.94724	0.68212	0.13086	0.018
Mof_H 	H 	0.9377	0.6933	0.1319	0.035
Mof_C 	C 	0.96019	0.67751	0.14724	-0.11
Mof_H 	H 	0.9596	0.6852	0.1598	0.071
Mof_C 	C 	0.97413	0.66138	0.14493	0.069
Mof_H 	H 	0.9836	0.6588	0.156	-0.002
Mof_C 	C 	0.0011	0.6281	0.07552	0.108
Mof_C 	C 	0.01753	0.58252	0.1378	0.052
Mof_H 	H 	0.0068	0.5835	0.1479	0.003
Mof_C 	C 	0.02894	0.56521	0.13726	-0.096
Mof_H 	H 	0.0267	0.5545	0.1472	0.066
Mof_C 	C 	0.04439	0.56295	0.12179	0.005
Mof_H 	H 	0.0524	0.5506	0.1207	0.039
Mof_C 	C 	0.04744	0.57958	0.10827	-0.053
Mof_C 	C 	0.03479	0.59696	0.11005	0.046
Mof_H 	H 	0.0366	0.6079	0.1003	0.011
Mof_C 	C 	0.06323	0.57861	0.09207	0.133
Mof_N 	N 	0.90997	0.6351	0.01561	-0.224
Mof_N 	N 	0.85465	0.77309	0.11325	-0.26
Mof_N 	N 	0.87328	0.73243	0.10068	-0.229
Mof_N 	N 	0.90943	0.67908	0.06309	-0.155
Mof_N 	N 	0.92023	0.68858	0.09658	-0.153
Mof_N 	N 	0.93849	0.66246	0.07774	-0.152
Mof_N 	N 	0.97512	0.64926	0.12827	-0.234
Mof_N 	N 	0.02033	0.59916	0.12452	-0.226
Mof_N 	N 	0.99898	0.62707	0.09297	-0.267
Mof_N 	N 	0.06313	0.59343	0.07751	-0.15
Mof_S 	S 	0.82743	0.79017	0.08435	-0.063
Mof_S 	S 	0.00359	0.62921	0.04975	-0.061
Mof_C 	C 	0.9101	0.14834	0.53178	0.037
Mof_H 	H 	0.8976	0.1557	0.5349	0.013
Mof_C 	C 	0.92727	0.15189	0.54417	-0.052
Mof_C 	C 	0.94563	0.14183	0.53951	0.01
Mof_H 	H 	0.9576	0.1434	0.5481	0.037
Mof_C 	C 	0.94617	0.12938	0.52202	-0.1
Mof_H 	H 	0.9589	0.1233	0.5176	0.066
Mof_C 	C 	0.92829	0.12578	0.51099	0.058
Mof_H 	H 	0.9288	0.1163	0.4996	0.001
Mof_C 	C 	0.84342	0.281	0.60151	0.098
Mof_C 	C 	0.85933	0.23327	0.58516	0.065
Mof_H 	H 	0.8488	0.2436	0.586	-0.003
Mof_C 	C 	0.85923	0.22041	0.5683	-0.107
Mof_H 	H 	0.8485	0.2213	0.5582	0.068
Mof_C 	C 	0.87505	0.20611	0.56624	0.014
Mof_H 	H 	0.8755	0.1969	0.5547	0.035
Mof_C 	C 	0.89046	0.20546	0.58154	-0.055
Mof_C 	C 	0.88885	0.21885	0.59801	0.043
Mof_H 	H 	0.8995	0.2185	0.6082	0.013
Mof_C 	C 	0.90793	0.19017	0.58004	0.142
Mof_C 	C 	0.93522	0.1743	0.59503	0.136
Mof_C 	C 	0.92526	0.16537	0.56253	0.139
Mof_C 	C 	0.96236	0.15341	0.61283	0.048
Mof_H 	H 	0.9626	0.1446	0.601	0.009
Mof_C 	C 	0.94823	0.17038	0.61298	-0.058
Mof_C 	C 	0.94724	0.18212	0.63086	0.018
Mof_H 	H 	0.9377	0.1933	0.6319	0.035
Mof_C 	C 	0.96019	0.17751	0.64724	-0.11
Mof_H 	H 	0.9596	0.1852	0.6598	0.071
Mof_C 	C 	0.97413	0.16138	0.64493	0.069
Mof_H 	H 	0.9836	0.1588	0.656	-0.002
Mof_C 	C 	0.0011	0.1281	0.57552	0.108
Mof_C 	C 	0.01753	0.08252	0.6378	0.052
Mof_H 	H 	0.0068	0.0835	0.6479	0.003
Mof_C 	C 	0.02894	0.06521	0.63726	-0.096
Mof_H 	H 	0.0267	0.0545	0.6472	0.066
Mof_C 	C 	0.04439	0.06295	0.62179	0.005
Mof_H 	H 	0.0524	0.0506	0.6207	0.039
Mof_C 	C 	0.04744	0.07958	0.60827	-0.053
Mof_C 	C 	0.03479	0.09696	0.61005	0.046
Mof_H 	H 	0.0366	0.1079	0.6003	0.011
Mof_C 	C 	0.06323	0.07861	0.59207	0.133
Mof_N 	N 	0.90997	0.1351	0.51561	-0.224
Mof_N 	N 	0.85465	0.27309	0.61325	-0.26
Mof_N 	N 	0.87328	0.23243	0.60068	-0.229
Mof_N 	N 	0.90943	0.17908	0.56309	-0.155
Mof_N 	N 	0.92023	0.18858	0.59658	-0.153
Mof_N 	N 	0.93849	0.16246	0.57774	-0.152
Mof_N 	N 	0.97512	0.14926	0.62827	-0.234
Mof_N 	N 	0.02033	0.09916	0.62452	-0.226
Mof_N 	N 	0.99898	0.12707	0.59297	-0.267
Mof_N 	N 	0.06313	0.09343	0.57751	-0.15
Mof_S 	S 	0.82743	0.29017	0.58435	-0.063
Mof_S 	S 	0.00359	0.12921	0.54975	-0.061
Mof_C 	C 	0.4101	0.64834	0.53178	0.037
Mof_H 	H 	0.3976	0.6557	0.5349	0.013
Mof_C 	C 	0.42727	0.65189	0.54417	-0.052
Mof_C 	C 	0.44563	0.64183	0.53951	0.01
Mof_H 	H 	0.4576	0.6434	0.5481	0.037
Mof_C 	C 	0.44617	0.62938	0.52202	-0.1
Mof_H 	H 	0.4589	0.6233	0.5176	0.066
Mof_C 	C 	0.42829	0.62578	0.51099	0.058
Mof_H 	H 	0.4288	0.6163	0.4996	0.001
Mof_C 	C 	0.34342	0.781	0.60151	0.098
Mof_C 	C 	0.35933	0.73327	0.58516	0.065
Mof_H 	H 	0.3488	0.7436	0.586	-0.003
Mof_C 	C 	0.35923	0.72041	0.5683	-0.107
Mof_H 	H 	0.3485	0.7213	0.5582	0.068
Mof_C 	C 	0.37505	0.70611	0.56624	0.014
Mof_H 	H 	0.3755	0.6969	0.5547	0.035
Mof_C 	C 	0.39046	0.70546	0.58154	-0.055
Mof_C 	C 	0.38885	0.71885	0.59801	0.043
Mof_H 	H 	0.3995	0.7185	0.6082	0.013
Mof_C 	C 	0.40793	0.69017	0.58004	0.142
Mof_C 	C 	0.43522	0.6743	0.59503	0.136
Mof_C 	C 	0.42526	0.66537	0.56253	0.139
Mof_C 	C 	0.46236	0.65341	0.61283	0.048
Mof_H 	H 	0.4626	0.6446	0.601	0.009
Mof_C 	C 	0.44823	0.67038	0.61298	-0.058
Mof_C 	C 	0.44724	0.68212	0.63086	0.018
Mof_H 	H 	0.4377	0.6933	0.6319	0.035
Mof_C 	C 	0.46019	0.67751	0.64724	-0.11
Mof_H 	H 	0.4596	0.6852	0.6598	0.071
Mof_C 	C 	0.47413	0.66138	0.64493	0.069
Mof_H 	H 	0.4836	0.6588	0.656	-0.002
Mof_C 	C 	0.5011	0.6281	0.57552	0.108
Mof_C 	C 	0.51753	0.58252	0.6378	0.052
Mof_H 	H 	0.5068	0.5835	0.6479	0.003
Mof_C 	C 	0.52894	0.56521	0.63726	-0.096
Mof_H 	H 	0.5267	0.5545	0.6472	0.066
Mof_C 	C 	0.54439	0.56295	0.62179	0.005
Mof_H 	H 	0.5524	0.5506	0.6207	0.039
Mof_C 	C 	0.54744	0.57958	0.60827	-0.053
Mof_C 	C 	0.53479	0.59696	0.61005	0.046
Mof_H 	H 	0.5366	0.6079	0.6003	0.011
Mof_C 	C 	0.56323	0.57861	0.59207	0.133
Mof_N 	N 	0.40997	0.6351	0.51561	-0.224
Mof_N 	N 	0.35465	0.77309	0.61325	-0.26
Mof_N 	N 	0.37328	0.73243	0.60068	-0.229
Mof_N 	N 	0.40943	0.67908	0.56309	-0.155
Mof_N 	N 	0.42023	0.68858	0.59658	-0.153
Mof_N 	N 	0.43849	0.66246	0.57774	-0.152
Mof_N 	N 	0.47512	0.64926	0.62827	-0.234
Mof_N 	N 	0.52033	0.59916	0.62452	-0.226
Mof_N 	N 	0.49898	0.62707	0.59297	-0.267
Mof_N 	N 	0.56313	0.59343	0.57751	-0.15
Mof_S 	S 	0.32743	0.79017	0.58435	-0.063
Mof_S 	S 	0.50359	0.62921	0.54975	-0.061
Mof_C 	C 	0.4101	0.14834	0.03178	0.037
Mof_H 	H 	0.3976	0.1557	0.0349	0.013
Mof_C 	C 	0.42727	0.15189	0.04417	-0.052
Mof_C 	C 	0.44563	0.14183	0.03951	0.01
Mof_H 	H 	0.4576	0.1434	0.0481	0.037
Mof_C 	C 	0.44617	0.12938	0.02202	-0.1
Mof_H 	H 	0.4589	0.1233	0.0176	0.066
Mof_C 	C 	0.42829	0.12578	0.01099	0.058
Mof_H 	H 	0.4288	0.1163	0.9996	0.001
Mof_C 	C 	0.34342	0.281	0.10151	0.098
Mof_C 	C 	0.35933	0.23327	0.08516	0.065
Mof_H 	H 	0.3488	0.2436	0.086	-0.003
Mof_C 	C 	0.35923	0.22041	0.0683	-0.107
Mof_H 	H 	0.3485	0.2213	0.0582	0.068
Mof_C 	C 	0.37505	0.20611	0.06624	0.014
Mof_H 	H 	0.3755	0.1969	0.0547	0.035
Mof_C 	C 	0.39046	0.20546	0.08154	-0.055
Mof_C 	C 	0.38885	0.21885	0.09801	0.043
Mof_H 	H 	0.3995	0.2185	0.1082	0.013
Mof_C 	C 	0.40793	0.19017	0.08004	0.142
Mof_C 	C 	0.43522	0.1743	0.09503	0.136
Mof_C 	C 	0.42526	0.16537	0.06253	0.139
Mof_C 	C 	0.46236	0.15341	0.11283	0.048
Mof_H 	H 	0.4626	0.1446	0.101	0.009
Mof_C 	C 	0.44823	0.17038	0.11298	-0.058
Mof_C 	C 	0.44724	0.18212	0.13086	0.018
Mof_H 	H 	0.4377	0.1933	0.1319	0.035
Mof_C 	C 	0.46019	0.17751	0.14724	-0.11
Mof_H 	H 	0.4596	0.1852	0.1598	0.071
Mof_C 	C 	0.47413	0.16138	0.14493	0.069
Mof_H 	H 	0.4836	0.1588	0.156	-0.002
Mof_C 	C 	0.5011	0.1281	0.07552	0.108
Mof_C 	C 	0.51753	0.08252	0.1378	0.052
Mof_H 	H 	0.5068	0.0835	0.1479	0.003
Mof_C 	C 	0.52894	0.06521	0.13726	-0.096
Mof_H 	H 	0.5267	0.0545	0.1472	0.066
Mof_C 	C 	0.54439	0.06295	0.12179	0.005
Mof_H 	H 	0.5524	0.0506	0.1207	0.039
Mof_C 	C 	0.54744	0.07958	0.10827	-0.053
Mof_C 	C 	0.53479	0.09696	0.11005	0.046
Mof_H 	H 	0.5366	0.1079	0.1003	0.011
Mof_C 	C 	0.56323	0.07861	0.09207	0.133
Mof_N 	N 	0.40997	0.1351	0.01561	-0.224
Mof_N 	N 	0.35465	0.27309	0.11325	-0.26
Mof_N 	N 	0.37328	0.23243	0.10068	-0.229
Mof_N 	N 	0.40943	0.17908	0.06309	-0.155
Mof_N 	N 	0.42023	0.18858	0.09658	-0.153
Mof_N 	N 	0.43849	0.16246	0.07774	-0.152
Mof_N 	N 	0.47512	0.14926	0.12827	-0.234
Mof_N 	N 	0.52033	0.09916	0.12452	-0.226
Mof_N 	N 	0.49898	0.12707	0.09297	-0.267
Mof_N 	N 	0.56313	0.09343	0.07751	-0.15
Mof_S 	S 	0.32743	0.29017	0.08435	-0.063
Mof_S 	S 	0.50359	0.12921	0.04975	-0.061
Mof_C 	C 	0.0899	0.78178	0.89834	0.037
Mof_H 	H 	0.1024	0.7849	0.9057	0.013
Mof_C 	C 	0.07273	0.79417	0.90189	-0.052
Mof_C 	C 	0.05437	0.78951	0.89183	0.01
Mof_H 	H 	0.0424	0.7981	0.8934	0.037
Mof_C 	C 	0.05383	0.77202	0.87938	-0.1
Mof_H 	H 	0.0411	0.7676	0.8733	0.066
Mof_C 	C 	0.07171	0.76099	0.87578	0.058
Mof_H 	H 	0.0712	0.7496	0.8663	0.001
Mof_C 	C 	0.15658	0.85151	0.031	0.098
Mof_C 	C 	0.14067	0.83516	0.98327	0.065
Mof_H 	H 	0.1512	0.836	0.9936	-0.003
Mof_C 	C 	0.14077	0.8183	0.97041	-0.107
Mof_H 	H 	0.1515	0.8082	0.9713	0.068
Mof_C 	C 	0.12495	0.81624	0.95611	0.014
Mof_H 	H 	0.1245	0.8047	0.9469	0.035
Mof_C 	C 	0.10954	0.83154	0.95546	-0.055
Mof_C 	C 	0.11115	0.84801	0.96885	0.043
Mof_H 	H 	0.1005	0.8582	0.9685	0.013
Mof_C 	C 	0.09207	0.83004	0.94017	0.142
Mof_C 	C 	0.06478	0.84503	0.9243	0.136
Mof_C 	C 	0.07474	0.81253	0.91537	0.139
Mof_C 	C 	0.03764	0.86283	0.90341	0.048
Mof_H 	H 	0.0374	0.851	0.8946	0.009
Mof_C 	C 	0.05177	0.86298	0.92038	-0.058
Mof_C 	C 	0.05276	0.88086	0.93212	0.018
Mof_H 	H 	0.0623	0.8819	0.9433	0.035
Mof_C 	C 	0.03981	0.89724	0.92751	-0.11
Mof_H 	H 	0.0404	0.9098	0.9352	0.071
Mof_C 	C 	0.02587	0.89493	0.91138	0.069
Mof_H 	H 	0.0164	0.906	0.9088	-0.002
Mof_C 	C 	0.9989	0.82552	0.8781	0.108
Mof_C 	C 	0.98247	0.8878	0.83252	0.052
Mof_H 	H 	0.9932	0.8979	0.8335	0.003
Mof_C 	C 	0.97106	0.88726	0.81521	-0.096
Mof_H 	H 	0.9733	0.8972	0.8045	0.066
Mof_C 	C 	0.95561	0.87179	0.81295	0.005
Mof_H 	H 	0.9476	0.8707	0.8006	0.039
Mof_C 	C 	0.95256	0.85827	0.82958	-0.053
Mof_C 	C 	0.96521	0.86005	0.84696	0.046
Mof_H 	H 	0.9634	0.8503	0.8579	0.011
Mof_C 	C 	0.93677	0.84207	0.82861	0.133
Mof_N 	N 	0.09003	0.76561	0.8851	-0.224
Mof_N 	N 	0.14535	0.86325	0.02309	-0.26
Mof_N 	N 	0.12672	0.85068	0.98243	-0.229
Mof_N 	N 	0.09057	0.81309	0.92908	-0.155
Mof_N 	N 	0.07977	0.84658	0.93858	-0.153
Mof_N 	N 	0.06151	0.82774	0.91246	-0.152
Mof_N 	N 	0.02488	0.87827	0.89926	-0.234
Mof_N 	N 	0.97967	0.87452	0.84916	-0.226
Mof_N 	N 	0.00102	0.84297	0.87707	-0.267
Mof_N 	N 	0.93687	0.82751	0.84343	-0.15
Mof_S 	S 	0.17257	0.83435	0.04017	-0.063
Mof_S 	S 	0.99641	0.79975	0.87921	-0.061
Mof_C 	C 	0.0899	0.28178	0.39834	0.037
Mof_H 	H 	0.1024	0.2849	0.4057	0.013
Mof_C 	C 	0.07273	0.29417	0.40189	-0.052
Mof_C 	C 	0.05437	0.28951	0.39183	0.01
Mof_H 	H 	0.0424	0.2981	0.3934	0.037
Mof_C 	C 	0.05383	0.27202	0.37938	-0.1
Mof_H 	H 	0.0411	0.2676	0.3733	0.066
Mof_C 	C 	0.07171	0.26099	0.37578	0.058
Mof_H 	H 	0.0712	0.2496	0.3663	0.001
Mof_C 	C 	0.15658	0.35151	0.531	0.098
Mof_C 	C 	0.14067	0.33516	0.48327	0.065
Mof_H 	H 	0.1512	0.336	0.4936	-0.003
Mof_C 	C 	0.14077	0.3183	0.47041	-0.107
Mof_H 	H 	0.1515	0.3082	0.4713	0.068
Mof_C 	C 	0.12495	0.31624	0.45611	0.014
Mof_H 	H 	0.1245	0.3047	0.4469	0.035
Mof_C 	C 	0.10954	0.33154	0.45546	-0.055
Mof_C 	C 	0.11115	0.34801	0.46885	0.043
Mof_H 	H 	0.1005	0.3582	0.4685	0.013
Mof_C 	C 	0.09207	0.33004	0.44017	0.142
Mof_C 	C 	0.06478	0.34503	0.4243	0.136
Mof_C 	C 	0.07474	0.31253	0.41537	0.139
Mof_C 	C 	0.03764	0.36283	0.40341	0.048
Mof_H 	H 	0.0374	0.351	0.3946	0.009
Mof_C 	C 	0.05177	0.36298	0.42038	-0.058
Mof_C 	C 	0.05276	0.38086	0.43212	0.018
Mof_H 	H 	0.0623	0.3819	0.4433	0.035
Mof_C 	C 	0.03981	0.39724	0.42751	-0.11
Mof_H 	H 	0.0404	0.4098	0.4352	0.071
Mof_C 	C 	0.02587	0.39493	0.41138	0.069
Mof_H 	H 	0.0164	0.406	0.4088	-0.002
Mof_C 	C 	0.9989	0.32552	0.3781	0.108
Mof_C 	C 	0.98247	0.3878	0.33252	0.052
Mof_H 	H 	0.9932	0.3979	0.3335	0.003
Mof_C 	C 	0.97106	0.38726	0.31521	-0.096
Mof_H 	H 	0.9733	0.3972	0.3045	0.066
Mof_C 	C 	0.95561	0.37179	0.31295	0.005
Mof_H 	H 	0.9476	0.3707	0.3006	0.039
Mof_C 	C 	0.95256	0.35827	0.32958	-0.053
Mof_C 	C 	0.96521	0.36005	0.34696	0.046
Mof_H 	H 	0.9634	0.3503	0.3579	0.011
Mof_C 	C 	0.93677	0.34207	0.32861	0.133
Mof_N 	N 	0.09003	0.26561	0.3851	-0.224
Mof_N 	N 	0.14535	0.36325	0.52309	-0.26
Mof_N 	N 	0.12672	0.35068	0.48243	-0.229
Mof_N 	N 	0.09057	0.31309	0.42908	-0.155
Mof_N 	N 	0.07977	0.34658	0.43858	-0.153
Mof_N 	N 	0.06151	0.32774	0.41246	-0.152
Mof_N 	N 	0.02488	0.37827	0.39926	-0.234
Mof_N 	N 	0.97967	0.37452	0.34916	-0.226
Mof_N 	N 	0.00102	0.34297	0.37707	-0.267
Mof_N 	N 	0.93687	0.32751	0.34343	-0.15
Mof_S 	S 	0.17257	0.33435	0.54017	-0.063
Mof_S 	S 	0.99641	0.29975	0.37921	-0.061
Mof_C 	C 	0.5899	0.78178	0.39834	0.037
Mof_H 	H 	0.6024	0.7849	0.4057	0.013
Mof_C 	C 	0.57273	0.79417	0.40189	-0.052
Mof_C 	C 	0.55437	0.78951	0.39183	0.01
Mof_H 	H 	0.5424	0.7981	0.3934	0.037
Mof_C 	C 	0.55383	0.77202	0.37938	-0.1
Mof_H 	H 	0.5411	0.7676	0.3733	0.066
Mof_C 	C 	0.57171	0.76099	0.37578	0.058
Mof_H 	H 	0.5712	0.7496	0.3663	0.001
Mof_C 	C 	0.65658	0.85151	0.531	0.098
Mof_C 	C 	0.64067	0.83516	0.48327	0.065
Mof_H 	H 	0.6512	0.836	0.4936	-0.003
Mof_C 	C 	0.64077	0.8183	0.47041	-0.107
Mof_H 	H 	0.6515	0.8082	0.4713	0.068
Mof_C 	C 	0.62495	0.81624	0.45611	0.014
Mof_H 	H 	0.6245	0.8047	0.4469	0.035
Mof_C 	C 	0.60954	0.83154	0.45546	-0.055
Mof_C 	C 	0.61115	0.84801	0.46885	0.043
Mof_H 	H 	0.6005	0.8582	0.4685	0.013
Mof_C 	C 	0.59207	0.83004	0.44017	0.142
Mof_C 	C 	0.56478	0.84503	0.4243	0.136
Mof_C 	C 	0.57474	0.81253	0.41537	0.139
Mof_C 	C 	0.53764	0.86283	0.40341	0.048
Mof_H 	H 	0.5374	0.851	0.3946	0.009
Mof_C 	C 	0.55177	0.86298	0.42038	-0.058
Mof_C 	C 	0.55276	0.88086	0.43212	0.018
Mof_H 	H 	0.5623	0.8819	0.4433	0.035
Mof_C 	C 	0.53981	0.89724	0.42751	-0.11
Mof_H 	H 	0.5404	0.9098	0.4352	0.071
Mof_C 	C 	0.52587	0.89493	0.41138	0.069
Mof_H 	H 	0.5164	0.906	0.4088	-0.002
Mof_C 	C 	0.4989	0.82552	0.3781	0.108
Mof_C 	C 	0.48247	0.8878	0.33252	0.052
Mof_H 	H 	0.4932	0.8979	0.3335	0.003
Mof_C 	C 	0.47106	0.88726	0.31521	-0.096
Mof_H 	H 	0.4733	0.8972	0.3045	0.066
Mof_C 	C 	0.45561	0.87179	0.31295	0.005
Mof_H 	H 	0.4476	0.8707	0.3006	0.039
Mof_C 	C 	0.45256	0.85827	0.32958	-0.053
Mof_C 	C 	0.46521	0.86005	0.34696	0.046
Mof_H 	H 	0.4634	0.8503	0.3579	0.011
Mof_C 	C 	0.43677	0.84207	0.32861	0.133
Mof_N 	N 	0.59003	0.76561	0.3851	-0.224
Mof_N 	N 	0.64535	0.86325	0.52309	-0.26
Mof_N 	N 	0.62672	0.85068	0.48243	-0.229
Mof_N 	N 	0.59057	0.81309	0.42908	-0.155
Mof_N 	N 	0.57977	0.84658	0.43858	-0.153
Mof_N 	N 	0.56151	0.82774	0.41246	-0.152
Mof_N 	N 	0.52488	0.87827	0.39926	-0.234
Mof_N 	N 	0.47967	0.87452	0.34916	-0.226
Mof_N 	N 	0.50102	0.84297	0.37707	-0.267
Mof_N 	N 	0.43687	0.82751	0.34343	-0.15
Mof_S 	S 	0.67257	0.83435	0.54017	-0.063
Mof_S 	S 	0.49641	0.79975	0.37921	-0.061
Mof_C 	C 	0.5899	0.28178	0.89834	0.037
Mof_H 	H 	0.6024	0.2849	0.9057	0.013
Mof_C 	C 	0.57273	0.29417	0.90189	-0.052
Mof_C 	C 	0.55437	0.28951	0.89183	0.01
Mof_H 	H 	0.5424	0.2981	0.8934	0.037
Mof_C 	C 	0.55383	0.27202	0.87938	-0.1
Mof_H 	H 	0.5411	0.2676	0.8733	0.066
Mof_C 	C 	0.57171	0.26099	0.87578	0.058
Mof_H 	H 	0.5712	0.2496	0.8663	0.001
Mof_C 	C 	0.65658	0.35151	0.031	0.098
Mof_C 	C 	0.64067	0.33516	0.98327	0.065
Mof_H 	H 	0.6512	0.336	0.9936	-0.003
Mof_C 	C 	0.64077	0.3183	0.97041	-0.107
Mof_H 	H 	0.6515	0.3082	0.9713	0.068
Mof_C 	C 	0.62495	0.31624	0.95611	0.014
Mof_H 	H 	0.6245	0.3047	0.9469	0.035
Mof_C 	C 	0.60954	0.33154	0.95546	-0.055
Mof_C 	C 	0.61115	0.34801	0.96885	0.043
Mof_H 	H 	0.6005	0.3582	0.9685	0.013
Mof_C 	C 	0.59207	0.33004	0.94017	0.142
Mof_C 	C 	0.56478	0.34503	0.9243	0.136
Mof_C 	C 	0.57474	0.31253	0.91537	0.139
Mof_C 	C 	0.53764	0.36283	0.90341	0.048
Mof_H 	H 	0.5374	0.351	0.8946	0.009
Mof_C 	C 	0.55177	0.36298	0.92038	-0.058
Mof_C 	C 	0.55276	0.38086	0.93212	0.018
Mof_H 	H 	0.5623	0.3819	0.9433	0.035
Mof_C 	C 	0.53981	0.39724	0.92751	-0.11
Mof_H 	H 	0.5404	0.4098	0.9352	0.071
Mof_C 	C 	0.52587	0.39493	0.91138	0.069
Mof_H 	H 	0.5164	0.406	0.9088	-0.002
Mof_C 	C 	0.4989	0.32552	0.8781	0.108
Mof_C 	C 	0.48247	0.3878	0.83252	0.052
Mof_H 	H 	0.4932	0.3979	0.8335	0.003
Mof_C 	C 	0.47106	0.38726	0.81521	-0.096
Mof_H 	H 	0.4733	0.3972	0.8045	0.066
Mof_C 	C 	0.45561	0.37179	0.81295	0.005
Mof_H 	H 	0.4476	0.3707	0.8006	0.039
Mof_C 	C 	0.45256	0.35827	0.82958	-0.053
Mof_C 	C 	0.46521	0.36005	0.84696	0.046
Mof_H 	H 	0.4634	0.3503	0.8579	0.011
Mof_C 	C 	0.43677	0.34207	0.82861	0.133
Mof_N 	N 	0.59003	0.26561	0.8851	-0.224
Mof_N 	N 	0.64535	0.36325	0.02309	-0.26
Mof_N 	N 	0.62672	0.35068	0.98243	-0.229
Mof_N 	N 	0.59057	0.31309	0.92908	-0.155
Mof_N 	N 	0.57977	0.34658	0.93858	-0.153
Mof_N 	N 	0.56151	0.32774	0.91246	-0.152
Mof_N 	N 	0.52488	0.37827	0.89926	-0.234
Mof_N 	N 	0.47967	0.37452	0.84916	-0.226
Mof_N 	N 	0.50102	0.34297	0.87707	-0.267
Mof_N 	N 	0.43687	0.32751	0.84343	-0.15
Mof_S 	S 	0.67257	0.33435	0.04017	-0.063
Mof_S 	S 	0.49641	0.29975	0.87921	-0.061
Mof_C 	C 	0.1601	0.96822	0.39834	0.038
Mof_H 	H 	0.1476	0.9651	0.4057	0.013
Mof_C 	C 	0.17727	0.95583	0.40189	-0.052
Mof_C 	C 	0.19563	0.96049	0.39183	0.01
Mof_H 	H 	0.2076	0.9519	0.3934	0.037
Mof_C 	C 	0.19617	0.97798	0.37938	-0.1
Mof_H 	H 	0.2089	0.9824	0.3733	0.066
Mof_C 	C 	0.17829	0.98901	0.37578	0.059
Mof_H 	H 	0.1788	0.0004	0.3663	0.001
Mof_C 	C 	0.09342	0.89849	0.531	0.098
Mof_C 	C 	0.10933	0.91484	0.48327	0.065
Mof_H 	H 	0.0988	0.914	0.4936	-0.003
Mof_C 	C 	0.10923	0.9317	0.47041	-0.107
Mof_H 	H 	0.0985	0.9418	0.4713	0.068
Mof_C 	C 	0.12505	0.93376	0.45611	0.014
Mof_H 	H 	0.1255	0.9453	0.4469	0.035
Mof_C 	C 	0.14046	0.91846	0.45546	-0.055
Mof_C 	C 	0.13885	0.90199	0.46885	0.043
Mof_H 	H 	0.1495	0.8918	0.4685	0.013
Mof_C 	C 	0.15793	0.91996	0.44017	0.142
Mof_C 	C 	0.18522	0.90497	0.4243	0.136
Mof_C 	C 	0.17526	0.93747	0.41537	0.139
Mof_C 	C 	0.21236	0.88717	0.40341	0.048
Mof_H 	H 	0.2126	0.899	0.3946	0.009
Mof_C 	C 	0.19823	0.88702	0.42038	-0.058
Mof_C 	C 	0.19724	0.86914	0.43212	0.018
Mof_H 	H 	0.1877	0.8681	0.4433	0.035
Mof_C 	C 	0.21019	0.85276	0.42751	-0.11
Mof_H 	H 	0.2096	0.8402	0.4352	0.071
Mof_C 	C 	0.22413	0.85507	0.41138	0.069
Mof_H 	H 	0.2336	0.844	0.4088	-0.002
Mof_C 	C 	0.2511	0.92448	0.3781	0.108
Mof_C 	C 	0.26753	0.8622	0.33252	0.052
Mof_H 	H 	0.2568	0.8521	0.3335	0.003
Mof_C 	C 	0.27894	0.86274	0.31521	-0.096
Mof_H 	H 	0.2767	0.8528	0.3045	0.066
Mof_C 	C 	0.29439	0.87821	0.31295	0.005
Mof_H 	H 	0.3024	0.8793	0.3006	0.039
Mof_C 	C 	0.29744	0.89173	0.32958	-0.053
Mof_C 	C 	0.28479	0.88995	0.34696	0.046
Mof_H 	H 	0.2866	0.8997	0.3579	0.011
Mof_C 	C 	0.31323	0.90793	0.32861	0.133
Mof_N 	N 	0.15997	0.98439	0.3851	-0.224
Mof_N 	N 	0.10465	0.88675	0.52309	-0.26
Mof_N 	N 	0.12328	0.89932	0.48243	-0.229
Mof_N 	N 	0.15943	0.93691	0.42908	-0.155
Mof_N 	N 	0.17023	0.90342	0.43858	-0.153
Mof_N 	N 	0.18849	0.92226	0.41246	-0.152
Mof_N 	N 	0.22512	0.87173	0.39926	-0.234
Mof_N 	N 	0.27033	0.87548	0.34916	-0.226
Mof_N 	N 	0.24898	0.90703	0.37707	-0.267
Mof_N 	N 	0.31313	0.92249	0.34343	-0.15
Mof_S 	S 	0.07743	0.91565	0.54017	-0.063
Mof_S 	S 	0.25359	0.95025	0.37921	-0.061
Mof_C 	C 	0.1601	0.46822	0.89834	0.037
Mof_H 	H 	0.1476	0.4651	0.9057	0.013
Mof_C 	C 	0.17727	0.45583	0.90189	-0.052
Mof_C 	C 	0.19563	0.46049	0.89183	0.01
Mof_H 	H 	0.2076	0.4519	0.8934	0.037
Mof_C 	C 	0.19617	0.47798	0.87938	-0.1
Mof_H 	H 	0.2089	0.4824	0.8733	0.066
Mof_C 	C 	0.17829	0.48901	0.87578	0.058
Mof_H 	H 	0.1788	0.5004	0.8663	0.001
Mof_C 	C 	0.09342	0.39849	0.031	0.098
Mof_C 	C 	0.10933	0.41484	0.98327	0.065
Mof_H 	H 	0.0988	0.414	0.9936	-0.003
Mof_C 	C 	0.10923	0.4317	0.97041	-0.107
Mof_H 	H 	0.0985	0.4418	0.9713	0.068
Mof_C 	C 	0.12505	0.43376	0.95611	0.014
Mof_H 	H 	0.1255	0.4453	0.9469	0.035
Mof_C 	C 	0.14046	0.41846	0.95546	-0.055
Mof_C 	C 	0.13885	0.40199	0.96885	0.043
Mof_H 	H 	0.1495	0.3918	0.9685	0.013
Mof_C 	C 	0.15793	0.41996	0.94017	0.142
Mof_C 	C 	0.18522	0.40497	0.9243	0.136
Mof_C 	C 	0.17526	0.43747	0.91537	0.139
Mof_C 	C 	0.21236	0.38717	0.90341	0.048
Mof_H 	H 	0.2126	0.399	0.8946	0.009
Mof_C 	C 	0.19823	0.38702	0.92038	-0.058
Mof_C 	C 	0.19724	0.36914	0.93212	0.018
Mof_H 	H 	0.1877	0.3681	0.9433	0.035
Mof_C 	C 	0.21019	0.35276	0.92751	-0.11
Mof_H 	H 	0.2096	0.3402	0.9352	0.071
Mof_C 	C 	0.22413	0.35507	0.91138	0.069
Mof_H 	H 	0.2336	0.344	0.9088	-0.002
Mof_C 	C 	0.2511	0.42448	0.8781	0.108
Mof_C 	C 	0.26753	0.3622	0.83252	0.052
Mof_H 	H 	0.2568	0.3521	0.8335	0.003
Mof_C 	C 	0.27894	0.36274	0.81521	-0.096
Mof_H 	H 	0.2767	0.3528	0.8045	0.066
Mof_C 	C 	0.29439	0.37821	0.81295	0.005
Mof_H 	H 	0.3024	0.3793	0.8006	0.039
Mof_C 	C 	0.29744	0.39173	0.82958	-0.053
Mof_C 	C 	0.28479	0.38995	0.84696	0.046
Mof_H 	H 	0.2866	0.3997	0.8579	0.011
Mof_C 	C 	0.31323	0.40793	0.82861	0.133
Mof_N 	N 	0.15997	0.48439	0.8851	-0.224
Mof_N 	N 	0.10465	0.38675	0.02309	-0.26
Mof_N 	N 	0.12328	0.39932	0.98243	-0.229
Mof_N 	N 	0.15943	0.43691	0.92908	-0.155
Mof_N 	N 	0.17023	0.40342	0.93858	-0.153
Mof_N 	N 	0.18849	0.42226	0.91246	-0.152
Mof_N 	N 	0.22512	0.37173	0.89926	-0.234
Mof_N 	N 	0.27033	0.37548	0.84916	-0.226
Mof_N 	N 	0.24898	0.40703	0.87707	-0.267
Mof_N 	N 	0.31313	0.42249	0.84343	-0.15
Mof_S 	S 	0.07743	0.41565	0.04017	-0.063
Mof_S 	S 	0.25359	0.45025	0.87921	-0.061
Mof_C 	C 	0.6601	0.96822	0.89834	0.038
Mof_H 	H 	0.6476	0.9651	0.9057	0.013
Mof_C 	C 	0.67727	0.95583	0.90189	-0.052
Mof_C 	C 	0.69563	0.96049	0.89183	0.01
Mof_H 	H 	0.7076	0.9519	0.8934	0.037
Mof_C 	C 	0.69617	0.97798	0.87938	-0.1
Mof_H 	H 	0.7089	0.9824	0.8733	0.066
Mof_C 	C 	0.67829	0.98901	0.87578	0.059
Mof_H 	H 	0.6788	0.0004	0.8663	0.001
Mof_C 	C 	0.59342	0.89849	0.031	0.098
Mof_C 	C 	0.60933	0.91484	0.98327	0.065
Mof_H 	H 	0.5988	0.914	0.9936	-0.003
Mof_C 	C 	0.60923	0.9317	0.97041	-0.107
Mof_H 	H 	0.5985	0.9418	0.9713	0.068
Mof_C 	C 	0.62505	0.93376	0.95611	0.014
Mof_H 	H 	0.6255	0.9453	0.9469	0.036
Mof_C 	C 	0.64046	0.91846	0.95546	-0.055
Mof_C 	C 	0.63885	0.90199	0.96885	0.043
Mof_H 	H 	0.6495	0.8918	0.9685	0.013
Mof_C 	C 	0.65793	0.91996	0.94017	0.142
Mof_C 	C 	0.68522	0.90497	0.9243	0.136
Mof_C 	C 	0.67526	0.93747	0.91537	0.139
Mof_C 	C 	0.71236	0.88717	0.90341	0.048
Mof_H 	H 	0.7126	0.899	0.8946	0.009
Mof_C 	C 	0.69823	0.88702	0.92038	-0.058
Mof_C 	C 	0.69724	0.86914	0.93212	0.018
Mof_H 	H 	0.6877	0.8681	0.9433	0.035
Mof_C 	C 	0.71019	0.85276	0.92751	-0.11
Mof_H 	H 	0.7096	0.8402	0.9352	0.071
Mof_C 	C 	0.72413	0.85507	0.91138	0.069
Mof_H 	H 	0.7336	0.844	0.9088	-0.002
Mof_C 	C 	0.7511	0.92448	0.8781	0.108
Mof_C 	C 	0.76753	0.8622	0.83252	0.052
Mof_H 	H 	0.7568	0.8521	0.8335	0.003
Mof_C 	C 	0.77894	0.86274	0.81521	-0.096
Mof_H 	H 	0.7767	0.8528	0.8045	0.066
Mof_C 	C 	0.79439	0.87821	0.81295	0.005
Mof_H 	H 	0.8024	0.8793	0.8006	0.039
Mof_C 	C 	0.79744	0.89173	0.82958	-0.053
Mof_C 	C 	0.78479	0.88995	0.84696	0.046
Mof_H 	H 	0.7866	0.8997	0.8579	0.011
Mof_C 	C 	0.81323	0.90793	0.82861	0.133
Mof_N 	N 	0.65997	0.98439	0.8851	-0.224
Mof_N 	N 	0.60465	0.88675	0.02309	-0.26
Mof_N 	N 	0.62328	0.89932	0.98243	-0.229
Mof_N 	N 	0.65943	0.93691	0.92908	-0.155
Mof_N 	N 	0.67023	0.90342	0.93858	-0.153
Mof_N 	N 	0.68849	0.92226	0.91246	-0.152
Mof_N 	N 	0.72512	0.87173	0.89926	-0.234
Mof_N 	N 	0.77033	0.87548	0.84916	-0.226
Mof_N 	N 	0.74898	0.90703	0.87707	-0.267
Mof_N 	N 	0.81313	0.92249	0.84343	-0.15
Mof_S 	S 	0.57743	0.91565	0.04017	-0.063
Mof_S 	S 	0.75359	0.95025	0.87921	-0.061
Mof_C 	C 	0.6601	0.46822	0.39834	0.037
Mof_H 	H 	0.6476	0.4651	0.4057	0.013
Mof_C 	C 	0.67727	0.45583	0.40189	-0.052
Mof_C 	C 	0.69563	0.46049	0.39183	0.01
Mof_H 	H 	0.7076	0.4519	0.3934	0.037
Mof_C 	C 	0.69617	0.47798	0.37938	-0.1
Mof_H 	H 	0.7089	0.4824	0.3733	0.066
Mof_C 	C 	0.67829	0.48901	0.37578	0.058
Mof_H 	H 	0.6788	0.5004	0.3663	0.001
Mof_C 	C 	0.59342	0.39849	0.531	0.098
Mof_C 	C 	0.60933	0.41484	0.48327	0.065
Mof_H 	H 	0.5988	0.414	0.4936	-0.003
Mof_C 	C 	0.60923	0.4317	0.47041	-0.107
Mof_H 	H 	0.5985	0.4418	0.4713	0.068
Mof_C 	C 	0.62505	0.43376	0.45611	0.014
Mof_H 	H 	0.6255	0.4453	0.4469	0.035
Mof_C 	C 	0.64046	0.41846	0.45546	-0.055
Mof_C 	C 	0.63885	0.40199	0.46885	0.043
Mof_H 	H 	0.6495	0.3918	0.4685	0.013
Mof_C 	C 	0.65793	0.41996	0.44017	0.142
Mof_C 	C 	0.68522	0.40497	0.4243	0.136
Mof_C 	C 	0.67526	0.43747	0.41537	0.139
Mof_C 	C 	0.71236	0.38717	0.40341	0.048
Mof_H 	H 	0.7126	0.399	0.3946	0.009
Mof_C 	C 	0.69823	0.38702	0.42038	-0.058
Mof_C 	C 	0.69724	0.36914	0.43212	0.018
Mof_H 	H 	0.6877	0.3681	0.4433	0.035
Mof_C 	C 	0.71019	0.35276	0.42751	-0.11
Mof_H 	H 	0.7096	0.3402	0.4352	0.071
Mof_C 	C 	0.72413	0.35507	0.41138	0.069
Mof_H 	H 	0.7336	0.344	0.4088	-0.002
Mof_C 	C 	0.7511	0.42448	0.3781	0.108
Mof_C 	C 	0.76753	0.3622	0.33252	0.052
Mof_H 	H 	0.7568	0.3521	0.3335	0.003
Mof_C 	C 	0.77894	0.36274	0.31521	-0.096
Mof_H 	H 	0.7767	0.3528	0.3045	0.066
Mof_C 	C 	0.79439	0.37821	0.31295	0.005
Mof_H 	H 	0.8024	0.3793	0.3006	0.039
Mof_C 	C 	0.79744	0.39173	0.32958	-0.053
Mof_C 	C 	0.78479	0.38995	0.34696	0.046
Mof_H 	H 	0.7866	0.3997	0.3579	0.011
Mof_C 	C 	0.81323	0.40793	0.32861	0.133
Mof_N 	N 	0.65997	0.48439	0.3851	-0.224
Mof_N 	N 	0.60465	0.38675	0.52309	-0.26
Mof_N 	N 	0.62328	0.39932	0.48243	-0.229
Mof_N 	N 	0.65943	0.43691	0.42908	-0.155
Mof_N 	N 	0.67023	0.40342	0.43858	-0.153
Mof_N 	N 	0.68849	0.42226	0.41246	-0.152
Mof_N 	N 	0.72512	0.37173	0.39926	-0.234
Mof_N 	N 	0.77033	0.37548	0.34916	-0.226
Mof_N 	N 	0.74898	0.40703	0.37707	-0.267
Mof_N 	N 	0.81313	0.42249	0.34343	-0.15
Mof_S 	S 	0.57743	0.41565	0.54017	-0.063
Mof_S 	S 	0.75359	0.45025	0.37921	-0.061
Mof_C 	C 	0.5899	0.46822	0.85166	0.037
Mof_H 	H 	0.6024	0.4651	0.8443	0.013
Mof_C 	C 	0.57273	0.45583	0.84811	-0.052
Mof_C 	C 	0.55437	0.46049	0.85817	0.01
Mof_H 	H 	0.5424	0.4519	0.8566	0.037
Mof_C 	C 	0.55383	0.47798	0.87062	-0.1
Mof_H 	H 	0.5411	0.4824	0.8767	0.066
Mof_C 	C 	0.57171	0.48901	0.87422	0.058
Mof_H 	H 	0.5712	0.5004	0.8837	0.001
Mof_C 	C 	0.65658	0.39849	0.719	0.098
Mof_C 	C 	0.64067	0.41484	0.76673	0.065
Mof_H 	H 	0.6512	0.414	0.7564	-0.003
Mof_C 	C 	0.64077	0.4317	0.77959	-0.107
Mof_H 	H 	0.6515	0.4418	0.7787	0.068
Mof_C 	C 	0.62495	0.43376	0.79389	0.014
Mof_H 	H 	0.6245	0.4453	0.8031	0.035
Mof_C 	C 	0.60954	0.41846	0.79454	-0.055
Mof_C 	C 	0.61115	0.40199	0.78115	0.043
Mof_H 	H 	0.6005	0.3918	0.7815	0.013
Mof_C 	C 	0.59207	0.41996	0.80983	0.142
Mof_C 	C 	0.56478	0.40497	0.8257	0.136
Mof_C 	C 	0.57474	0.43747	0.83463	0.139
Mof_C 	C 	0.53764	0.38717	0.84659	0.048
Mof_H 	H 	0.5374	0.399	0.8554	0.009
Mof_C 	C 	0.55177	0.38702	0.82962	-0.058
Mof_C 	C 	0.55276	0.36914	0.81788	0.018
Mof_H 	H 	0.5623	0.3681	0.8067	0.035
Mof_C 	C 	0.53981	0.35276	0.82249	-0.11
Mof_H 	H 	0.5404	0.3402	0.8148	0.071
Mof_C 	C 	0.52587	0.35507	0.83862	0.069
Mof_H 	H 	0.5164	0.344	0.8412	-0.002
Mof_C 	C 	0.4989	0.42448	0.8719	0.108
Mof_C 	C 	0.48247	0.3622	0.91748	0.052
Mof_H 	H 	0.4932	0.3521	0.9165	0.003
Mof_C 	C 	0.47106	0.36274	0.93479	-0.096
Mof_H 	H 	0.4733	0.3528	0.9455	0.066
Mof_C 	C 	0.45561	0.37821	0.93705	0.005
Mof_H 	H 	0.4476	0.3793	0.9494	0.039
Mof_C 	C 	0.45256	0.39173	0.92042	-0.053
Mof_C 	C 	0.46521	0.38995	0.90304	0.046
Mof_H 	H 	0.4634	0.3997	0.8921	0.011
Mof_C 	C 	0.43677	0.40793	0.92139	0.133
Mof_N 	N 	0.59003	0.48439	0.8649	-0.224
Mof_N 	N 	0.64535	0.38675	0.72691	-0.26
Mof_N 	N 	0.62672	0.39932	0.76757	-0.229
Mof_N 	N 	0.59057	0.43691	0.82092	-0.155
Mof_N 	N 	0.57977	0.40342	0.81142	-0.153
Mof_N 	N 	0.56151	0.42226	0.83754	-0.152
Mof_N 	N 	0.52488	0.37173	0.85074	-0.234
Mof_N 	N 	0.47967	0.37548	0.90084	-0.226
Mof_N 	N 	0.50102	0.40703	0.87293	-0.267
Mof_N 	N 	0.43687	0.42249	0.90657	-0.15
Mof_S 	S 	0.67257	0.41565	0.70983	-0.063
Mof_S 	S 	0.49641	0.45025	0.87079	-0.061
Mof_C 	C 	0.5899	0.96822	0.35166	0.038
Mof_H 	H 	0.6024	0.9651	0.3443	0.013
Mof_C 	C 	0.57273	0.95583	0.34811	-0.052
Mof_C 	C 	0.55437	0.96049	0.35817	0.01
Mof_H 	H 	0.5424	0.9519	0.3566	0.037
Mof_C 	C 	0.55383	0.97798	0.37062	-0.1
Mof_H 	H 	0.5411	0.9824	0.3767	0.066
Mof_C 	C 	0.57171	0.98901	0.37422	0.059
Mof_H 	H 	0.5712	0.0004	0.3837	0.001
Mof_C 	C 	0.65658	0.89849	0.219	0.098
Mof_C 	C 	0.64067	0.91484	0.26673	0.065
Mof_H 	H 	0.6512	0.914	0.2564	-0.003
Mof_C 	C 	0.64077	0.9317	0.27959	-0.107
Mof_H 	H 	0.6515	0.9418	0.2787	0.068
Mof_C 	C 	0.62495	0.93376	0.29389	0.014
Mof_H 	H 	0.6245	0.9453	0.3031	0.035
Mof_C 	C 	0.60954	0.91846	0.29454	-0.055
Mof_C 	C 	0.61115	0.90199	0.28115	0.043
Mof_H 	H 	0.6005	0.8918	0.2815	0.013
Mof_C 	C 	0.59207	0.91996	0.30983	0.142
Mof_C 	C 	0.56478	0.90497	0.3257	0.136
Mof_C 	C 	0.57474	0.93747	0.33463	0.139
Mof_C 	C 	0.53764	0.88717	0.34659	0.048
Mof_H 	H 	0.5374	0.899	0.3554	0.009
Mof_C 	C 	0.55177	0.88702	0.32962	-0.058
Mof_C 	C 	0.55276	0.86914	0.31788	0.018
Mof_H 	H 	0.5623	0.8681	0.3067	0.035
Mof_C 	C 	0.53981	0.85276	0.32249	-0.11
Mof_H 	H 	0.5404	0.8402	0.3148	0.071
Mof_C 	C 	0.52587	0.85507	0.33862	0.069
Mof_H 	H 	0.5164	0.844	0.3412	-0.002
Mof_C 	C 	0.4989	0.92448	0.3719	0.108
Mof_C 	C 	0.48247	0.8622	0.41748	0.052
Mof_H 	H 	0.4932	0.8521	0.4165	0.003
Mof_C 	C 	0.47106	0.86274	0.43479	-0.096
Mof_H 	H 	0.4733	0.8528	0.4455	0.066
Mof_C 	C 	0.45561	0.87821	0.43705	0.005
Mof_H 	H 	0.4476	0.8793	0.4494	0.039
Mof_C 	C 	0.45256	0.89173	0.42042	-0.053
Mof_C 	C 	0.46521	0.88995	0.40304	0.046
Mof_H 	H 	0.4634	0.8997	0.3921	0.011
Mof_C 	C 	0.43677	0.90793	0.42139	0.133
Mof_N 	N 	0.59003	0.98439	0.3649	-0.224
Mof_N 	N 	0.64535	0.88675	0.22691	-0.26
Mof_N 	N 	0.62672	0.89932	0.26757	-0.229
Mof_N 	N 	0.59057	0.93691	0.32092	-0.155
Mof_N 	N 	0.57977	0.90342	0.31142	-0.153
Mof_N 	N 	0.56151	0.92226	0.33754	-0.152
Mof_N 	N 	0.52488	0.87173	0.35074	-0.234
Mof_N 	N 	0.47967	0.87548	0.40084	-0.226
Mof_N 	N 	0.50102	0.90703	0.37293	-0.267
Mof_N 	N 	0.43687	0.92249	0.40657	-0.15
Mof_S 	S 	0.67257	0.91565	0.20983	-0.063
Mof_S 	S 	0.49641	0.95025	0.37079	-0.061
Mof_C 	C 	0.0899	0.46822	0.35166	0.037
Mof_H 	H 	0.1024	0.4651	0.3443	0.013
Mof_C 	C 	0.07273	0.45583	0.34811	-0.052
Mof_C 	C 	0.05437	0.46049	0.35817	0.01
Mof_H 	H 	0.0424	0.4519	0.3566	0.037
Mof_C 	C 	0.05383	0.47798	0.37062	-0.1
Mof_H 	H 	0.0411	0.4824	0.3767	0.066
Mof_C 	C 	0.07171	0.48901	0.37422	0.058
Mof_H 	H 	0.0712	0.5004	0.3837	0.001
Mof_C 	C 	0.15658	0.39849	0.219	0.098
Mof_C 	C 	0.14067	0.41484	0.26673	0.065
Mof_H 	H 	0.1512	0.414	0.2564	-0.003
Mof_C 	C 	0.14077	0.4317	0.27959	-0.107
Mof_H 	H 	0.1515	0.4418	0.2787	0.068
Mof_C 	C 	0.12495	0.43376	0.29389	0.014
Mof_H 	H 	0.1245	0.4453	0.3031	0.035
Mof_C 	C 	0.10954	0.41846	0.29454	-0.055
Mof_C 	C 	0.11115	0.40199	0.28115	0.043
Mof_H 	H 	0.1005	0.3918	0.2815	0.013
Mof_C 	C 	0.09207	0.41996	0.30983	0.142
Mof_C 	C 	0.06478	0.40497	0.3257	0.136
Mof_C 	C 	0.07474	0.43747	0.33463	0.139
Mof_C 	C 	0.03764	0.38717	0.34659	0.048
Mof_H 	H 	0.0374	0.399	0.3554	0.009
Mof_C 	C 	0.05177	0.38702	0.32962	-0.058
Mof_C 	C 	0.05276	0.36914	0.31788	0.018
Mof_H 	H 	0.0623	0.3681	0.3067	0.035
Mof_C 	C 	0.03981	0.35276	0.32249	-0.11
Mof_H 	H 	0.0404	0.3402	0.3148	0.071
Mof_C 	C 	0.02587	0.35507	0.33862	0.069
Mof_H 	H 	0.0164	0.344	0.3412	-0.002
Mof_C 	C 	0.9989	0.42448	0.3719	0.108
Mof_C 	C 	0.98247	0.3622	0.41748	0.052
Mof_H 	H 	0.9932	0.3521	0.4165	0.003
Mof_C 	C 	0.97106	0.36274	0.43479	-0.096
Mof_H 	H 	0.9733	0.3528	0.4455	0.066
Mof_C 	C 	0.95561	0.37821	0.43705	0.005
Mof_H 	H 	0.9476	0.3793	0.4494	0.039
Mof_C 	C 	0.95256	0.39173	0.42042	-0.053
Mof_C 	C 	0.96521	0.38995	0.40304	0.046
Mof_H 	H 	0.9634	0.3997	0.3921	0.011
Mof_C 	C 	0.93677	0.40793	0.42139	0.133
Mof_N 	N 	0.09003	0.48439	0.3649	-0.224
Mof_N 	N 	0.14535	0.38675	0.22691	-0.26
Mof_N 	N 	0.12672	0.39932	0.26757	-0.229
Mof_N 	N 	0.09057	0.43691	0.32092	-0.155
Mof_N 	N 	0.07977	0.40342	0.31142	-0.153
Mof_N 	N 	0.06151	0.42226	0.33754	-0.152
Mof_N 	N 	0.02488	0.37173	0.35074	-0.234
Mof_N 	N 	0.97967	0.37548	0.40084	-0.226
Mof_N 	N 	0.00102	0.40703	0.37293	-0.267
Mof_N 	N 	0.93687	0.42249	0.40657	-0.15
Mof_S 	S 	0.17257	0.41565	0.20983	-0.063
Mof_S 	S 	0.99641	0.45025	0.37079	-0.061
Mof_C 	C 	0.0899	0.96822	0.85166	0.038
Mof_H 	H 	0.1024	0.9651	0.8443	0.013
Mof_C 	C 	0.07273	0.95583	0.84811	-0.052
Mof_C 	C 	0.05437	0.96049	0.85817	0.01
Mof_H 	H 	0.0424	0.9519	0.8566	0.037
Mof_C 	C 	0.05383	0.97798	0.87062	-0.1
Mof_H 	H 	0.0411	0.9824	0.8767	0.066
Mof_C 	C 	0.07171	0.98901	0.87422	0.059
Mof_H 	H 	0.0712	0.0004	0.8837	0.001
Mof_C 	C 	0.15658	0.89849	0.719	0.098
Mof_C 	C 	0.14067	0.91484	0.76673	0.065
Mof_H 	H 	0.1512	0.914	0.7564	-0.003
Mof_C 	C 	0.14077	0.9317	0.77959	-0.107
Mof_H 	H 	0.1515	0.9418	0.7787	0.068
Mof_C 	C 	0.12495	0.93376	0.79389	0.014
Mof_H 	H 	0.1245	0.9453	0.8031	0.035
Mof_C 	C 	0.10954	0.91846	0.79454	-0.055
Mof_C 	C 	0.11115	0.90199	0.78115	0.043
Mof_H 	H 	0.1005	0.8918	0.7815	0.013
Mof_C 	C 	0.09207	0.91996	0.80983	0.142
Mof_C 	C 	0.06478	0.90497	0.8257	0.136
Mof_C 	C 	0.07474	0.93747	0.83463	0.139
Mof_C 	C 	0.03764	0.88717	0.84659	0.048
Mof_H 	H 	0.0374	0.899	0.8554	0.009
Mof_C 	C 	0.05177	0.88702	0.82962	-0.058
Mof_C 	C 	0.05276	0.86914	0.81788	0.018
Mof_H 	H 	0.0623	0.8681	0.8067	0.035
Mof_C 	C 	0.03981	0.85276	0.82249	-0.11
Mof_H 	H 	0.0404	0.8402	0.8148	0.071
Mof_C 	C 	0.02587	0.85507	0.83862	0.069
Mof_H 	H 	0.0164	0.844	0.8412	-0.002
Mof_C 	C 	0.9989	0.92448	0.8719	0.108
Mof_C 	C 	0.98247	0.8622	0.91748	0.052
Mof_H 	H 	0.9932	0.8521	0.9165	0.003
Mof_C 	C 	0.97106	0.86274	0.93479	-0.096
Mof_H 	H 	0.9733	0.8528	0.9455	0.066
Mof_C 	C 	0.95561	0.87821	0.93705	0.005
Mof_H 	H 	0.9476	0.8793	0.9494	0.039
Mof_C 	C 	0.95256	0.89173	0.92042	-0.053
Mof_C 	C 	0.96521	0.88995	0.90304	0.046
Mof_H 	H 	0.9634	0.8997	0.8921	0.011
Mof_C 	C 	0.93677	0.90793	0.92139	0.133
Mof_N 	N 	0.09003	0.98439	0.8649	-0.224
Mof_N 	N 	0.14535	0.88675	0.72691	-0.26
Mof_N 	N 	0.12672	0.89932	0.76757	-0.229
Mof_N 	N 	0.09057	0.93691	0.82092	-0.155
Mof_N 	N 	0.07977	0.90342	0.81142	-0.153
Mof_N 	N 	0.06151	0.92226	0.83754	-0.152
Mof_N 	N 	0.02488	0.87173	0.85074	-0.234
Mof_N 	N 	0.97967	0.87548	0.90084	-0.226
Mof_N 	N 	0.00102	0.90703	0.87293	-0.267
Mof_N 	N 	0.93687	0.92249	0.90657	-0.15
Mof_S 	S 	0.17257	0.91565	0.70983	-0.063
Mof_S 	S 	0.99641	0.95025	0.87079	-0.061
Mof_C 	C 	0.6601	0.28178	0.35166	0.037
Mof_H 	H 	0.6476	0.2849	0.3443	0.013
Mof_C 	C 	0.67727	0.29417	0.34811	-0.052
Mof_C 	C 	0.69563	0.28951	0.35817	0.01
Mof_H 	H 	0.7076	0.2981	0.3566	0.037
Mof_C 	C 	0.69617	0.27202	0.37062	-0.1
Mof_H 	H 	0.7089	0.2676	0.3767	0.066
Mof_C 	C 	0.67829	0.26099	0.37422	0.058
Mof_H 	H 	0.6788	0.2496	0.3837	0.001
Mof_C 	C 	0.59342	0.35151	0.219	0.098
Mof_C 	C 	0.60933	0.33516	0.26673	0.065
Mof_H 	H 	0.5988	0.336	0.2564	-0.003
Mof_C 	C 	0.60923	0.3183	0.27959	-0.107
Mof_H 	H 	0.5985	0.3082	0.2787	0.068
Mof_C 	C 	0.62505	0.31624	0.29389	0.014
Mof_H 	H 	0.6255	0.3047	0.3031	0.035
Mof_C 	C 	0.64046	0.33154	0.29454	-0.055
Mof_C 	C 	0.63885	0.34801	0.28115	0.043
Mof_H 	H 	0.6495	0.3582	0.2815	0.013
Mof_C 	C 	0.65793	0.33004	0.30983	0.142
Mof_C 	C 	0.68522	0.34503	0.3257	0.136
Mof_C 	C 	0.67526	0.31253	0.33463	0.139
Mof_C 	C 	0.71236	0.36283	0.34659	0.048
Mof_H 	H 	0.7126	0.351	0.3554	0.009
Mof_C 	C 	0.69823	0.36298	0.32962	-0.058
Mof_C 	C 	0.69724	0.38086	0.31788	0.018
Mof_H 	H 	0.6877	0.3819	0.3067	0.035
Mof_C 	C 	0.71019	0.39724	0.32249	-0.11
Mof_H 	H 	0.7096	0.4098	0.3148	0.071
Mof_C 	C 	0.72413	0.39493	0.33862	0.069
Mof_H 	H 	0.7336	0.406	0.3412	-0.002
Mof_C 	C 	0.7511	0.32552	0.3719	0.108
Mof_C 	C 	0.76753	0.3878	0.41748	0.052
Mof_H 	H 	0.7568	0.3979	0.4165	0.003
Mof_C 	C 	0.77894	0.38726	0.43479	-0.096
Mof_H 	H 	0.7767	0.3972	0.4455	0.066
Mof_C 	C 	0.79439	0.37179	0.43705	0.005
Mof_H 	H 	0.8024	0.3707	0.4494	0.039
Mof_C 	C 	0.79744	0.35827	0.42042	-0.053
Mof_C 	C 	0.78479	0.36005	0.40304	0.046
Mof_H 	H 	0.7866	0.3503	0.3921	0.011
Mof_C 	C 	0.81323	0.34207	0.42139	0.133
Mof_N 	N 	0.65997	0.26561	0.3649	-0.224
Mof_N 	N 	0.60465	0.36325	0.22691	-0.26
Mof_N 	N 	0.62328	0.35068	0.26757	-0.229
Mof_N 	N 	0.65943	0.31309	0.32092	-0.155
Mof_N 	N 	0.67023	0.34658	0.31142	-0.153
Mof_N 	N 	0.68849	0.32774	0.33754	-0.152
Mof_N 	N 	0.72512	0.37827	0.35074	-0.234
Mof_N 	N 	0.77033	0.37452	0.40084	-0.226
Mof_N 	N 	0.74898	0.34297	0.37293	-0.267
Mof_N 	N 	0.81313	0.32751	0.40657	-0.15
Mof_S 	S 	0.57743	0.33435	0.20983	-0.063
Mof_S 	S 	0.75359	0.29975	0.37079	-0.061
Mof_C 	C 	0.6601	0.78178	0.85166	0.037
Mof_H 	H 	0.6476	0.7849	0.8443	0.013
Mof_C 	C 	0.67727	0.79417	0.84811	-0.052
Mof_C 	C 	0.69563	0.78951	0.85817	0.01
Mof_H 	H 	0.7076	0.7981	0.8566	0.037
Mof_C 	C 	0.69617	0.77202	0.87062	-0.1
Mof_H 	H 	0.7089	0.7676	0.8767	0.066
Mof_C 	C 	0.67829	0.76099	0.87422	0.058
Mof_H 	H 	0.6788	0.7496	0.8837	0.001
Mof_C 	C 	0.59342	0.85151	0.719	0.098
Mof_C 	C 	0.60933	0.83516	0.76673	0.065
Mof_H 	H 	0.5988	0.836	0.7564	-0.003
Mof_C 	C 	0.60923	0.8183	0.77959	-0.107
Mof_H 	H 	0.5985	0.8082	0.7787	0.068
Mof_C 	C 	0.62505	0.81624	0.79389	0.014
Mof_H 	H 	0.6255	0.8047	0.8031	0.035
Mof_C 	C 	0.64046	0.83154	0.79454	-0.055
Mof_C 	C 	0.63885	0.84801	0.78115	0.043
Mof_H 	H 	0.6495	0.8582	0.7815	0.013
Mof_C 	C 	0.65793	0.83004	0.80983	0.142
Mof_C 	C 	0.68522	0.84503	0.8257	0.136
Mof_C 	C 	0.67526	0.81253	0.83463	0.139
Mof_C 	C 	0.71236	0.86283	0.84659	0.048
Mof_H 	H 	0.7126	0.851	0.8554	0.009
Mof_C 	C 	0.69823	0.86298	0.82962	-0.058
Mof_C 	C 	0.69724	0.88086	0.81788	0.018
Mof_H 	H 	0.6877	0.8819	0.8067	0.035
Mof_C 	C 	0.71019	0.89724	0.82249	-0.11
Mof_H 	H 	0.7096	0.9098	0.8148	0.071
Mof_C 	C 	0.72413	0.89493	0.83862	0.069
Mof_H 	H 	0.7336	0.906	0.8412	-0.002
Mof_C 	C 	0.7511	0.82552	0.8719	0.108
Mof_C 	C 	0.76753	0.8878	0.91748	0.052
Mof_H 	H 	0.7568	0.8979	0.9165	0.003
Mof_C 	C 	0.77894	0.88726	0.93479	-0.096
Mof_H 	H 	0.7767	0.8972	0.9455	0.066
Mof_C 	C 	0.79439	0.87179	0.93705	0.005
Mof_H 	H 	0.8024	0.8707	0.9494	0.039
Mof_C 	C 	0.79744	0.85827	0.92042	-0.053
Mof_C 	C 	0.78479	0.86005	0.90304	0.046
Mof_H 	H 	0.7866	0.8503	0.8921	0.011
Mof_C 	C 	0.81323	0.84207	0.92139	0.133
Mof_N 	N 	0.65997	0.76561	0.8649	-0.224
Mof_N 	N 	0.60465	0.86325	0.72691	-0.26
Mof_N 	N 	0.62328	0.85068	0.76757	-0.229
Mof_N 	N 	0.65943	0.81309	0.82092	-0.155
Mof_N 	N 	0.67023	0.84658	0.81142	-0.153
Mof_N 	N 	0.68849	0.82774	0.83754	-0.152
Mof_N 	N 	0.72512	0.87827	0.85074	-0.234
Mof_N 	N 	0.77033	0.87452	0.90084	-0.226
Mof_N 	N 	0.74898	0.84297	0.87293	-0.267
Mof_N 	N 	0.81313	0.82751	0.90657	-0.15
Mof_S 	S 	0.57743	0.83435	0.70983	-0.063
Mof_S 	S 	0.75359	0.79975	0.87079	-0.061
Mof_C 	C 	0.1601	0.28178	0.85166	0.037
Mof_H 	H 	0.1476	0.2849	0.8443	0.013
Mof_C 	C 	0.17727	0.29417	0.84811	-0.052
Mof_C 	C 	0.19563	0.28951	0.85817	0.01
Mof_H 	H 	0.2076	0.2981	0.8566	0.037
Mof_C 	C 	0.19617	0.27202	0.87062	-0.1
Mof_H 	H 	0.2089	0.2676	0.8767	0.066
Mof_C 	C 	0.17829	0.26099	0.87422	0.058
Mof_H 	H 	0.1788	0.2496	0.8837	0.001
Mof_C 	C 	0.09342	0.35151	0.719	0.098
Mof_C 	C 	0.10933	0.33516	0.76673	0.065
Mof_H 	H 	0.0988	0.336	0.7564	-0.003
Mof_C 	C 	0.10923	0.3183	0.77959	-0.107
Mof_H 	H 	0.0985	0.3082	0.7787	0.068
Mof_C 	C 	0.12505	0.31624	0.79389	0.014
Mof_H 	H 	0.1255	0.3047	0.8031	0.035
Mof_C 	C 	0.14046	0.33154	0.79454	-0.055
Mof_C 	C 	0.13885	0.34801	0.78115	0.043
Mof_H 	H 	0.1495	0.3582	0.7815	0.013
Mof_C 	C 	0.15793	0.33004	0.80983	0.142
Mof_C 	C 	0.18522	0.34503	0.8257	0.136
Mof_C 	C 	0.17526	0.31253	0.83463	0.139
Mof_C 	C 	0.21236	0.36283	0.84659	0.048
Mof_H 	H 	0.2126	0.351	0.8554	0.009
Mof_C 	C 	0.19823	0.36298	0.82962	-0.058
Mof_C 	C 	0.19724	0.38086	0.81788	0.018
Mof_H 	H 	0.1877	0.3819	0.8067	0.035
Mof_C 	C 	0.21019	0.39724	0.82249	-0.11
Mof_H 	H 	0.2096	0.4098	0.8148	0.071
Mof_C 	C 	0.22413	0.39493	0.83862	0.069
Mof_H 	H 	0.2336	0.406	0.8412	-0.002
Mof_C 	C 	0.2511	0.32552	0.8719	0.108
Mof_C 	C 	0.26753	0.3878	0.91748	0.052
Mof_H 	H 	0.2568	0.3979	0.9165	0.003
Mof_C 	C 	0.27894	0.38726	0.93479	-0.096
Mof_H 	H 	0.2767	0.3972	0.9455	0.066
Mof_C 	C 	0.29439	0.37179	0.93705	0.005
Mof_H 	H 	0.3024	0.3707	0.9494	0.039
Mof_C 	C 	0.29744	0.35827	0.92042	-0.053
Mof_C 	C 	0.28479	0.36005	0.90304	0.046
Mof_H 	H 	0.2866	0.3503	0.8921	0.011
Mof_C 	C 	0.31323	0.34207	0.92139	0.133
Mof_N 	N 	0.15997	0.26561	0.8649	-0.224
Mof_N 	N 	0.10465	0.36325	0.72691	-0.26
Mof_N 	N 	0.12328	0.35068	0.76757	-0.229
Mof_N 	N 	0.15943	0.31309	0.82092	-0.155
Mof_N 	N 	0.17023	0.34658	0.81142	-0.153
Mof_N 	N 	0.18849	0.32774	0.83754	-0.152
Mof_N 	N 	0.22512	0.37827	0.85074	-0.234
Mof_N 	N 	0.27033	0.37452	0.90084	-0.226
Mof_N 	N 	0.24898	0.34297	0.87293	-0.267
Mof_N 	N 	0.31313	0.32751	0.90657	-0.15
Mof_S 	S 	0.07743	0.33435	0.70983	-0.063
Mof_S 	S 	0.25359	0.29975	0.87079	-0.061
Mof_C 	C 	0.1601	0.78178	0.35166	0.037
Mof_H 	H 	0.1476	0.7849	0.3443	0.013
Mof_C 	C 	0.17727	0.79417	0.34811	-0.052
Mof_C 	C 	0.19563	0.78951	0.35817	0.01
Mof_H 	H 	0.2076	0.7981	0.3566	0.037
Mof_C 	C 	0.19617	0.77202	0.37062	-0.1
Mof_H 	H 	0.2089	0.7676	0.3767	0.066
Mof_C 	C 	0.17829	0.76099	0.37422	0.058
Mof_H 	H 	0.1788	0.7496	0.3837	0.001
Mof_C 	C 	0.09342	0.85151	0.219	0.098
Mof_C 	C 	0.10933	0.83516	0.26673	0.065
Mof_H 	H 	0.0988	0.836	0.2564	-0.003
Mof_C 	C 	0.10923	0.8183	0.27959	-0.107
Mof_H 	H 	0.0985	0.8082	0.2787	0.068
Mof_C 	C 	0.12505	0.81624	0.29389	0.014
Mof_H 	H 	0.1255	0.8047	0.3031	0.035
Mof_C 	C 	0.14046	0.83154	0.29454	-0.055
Mof_C 	C 	0.13885	0.84801	0.28115	0.043
Mof_H 	H 	0.1495	0.8582	0.2815	0.013
Mof_C 	C 	0.15793	0.83004	0.30983	0.142
Mof_C 	C 	0.18522	0.84503	0.3257	0.136
Mof_C 	C 	0.17526	0.81253	0.33463	0.139
Mof_C 	C 	0.21236	0.86283	0.34659	0.048
Mof_H 	H 	0.2126	0.851	0.3554	0.009
Mof_C 	C 	0.19823	0.86298	0.32962	-0.058
Mof_C 	C 	0.19724	0.88086	0.31788	0.018
Mof_H 	H 	0.1877	0.8819	0.3067	0.035
Mof_C 	C 	0.21019	0.89724	0.32249	-0.11
Mof_H 	H 	0.2096	0.9098	0.3148	0.071
Mof_C 	C 	0.22413	0.89493	0.33862	0.069
Mof_H 	H 	0.2336	0.906	0.3412	-0.002
Mof_C 	C 	0.2511	0.82552	0.3719	0.108
Mof_C 	C 	0.26753	0.8878	0.41748	0.052
Mof_H 	H 	0.2568	0.8979	0.4165	0.003
Mof_C 	C 	0.27894	0.88726	0.43479	-0.096
Mof_H 	H 	0.2767	0.8972	0.4455	0.066
Mof_C 	C 	0.29439	0.87179	0.43705	0.005
Mof_H 	H 	0.3024	0.8707	0.4494	0.039
Mof_C 	C 	0.29744	0.85827	0.42042	-0.053
Mof_C 	C 	0.28479	0.86005	0.40304	0.046
Mof_H 	H 	0.2866	0.8503	0.3921	0.011
Mof_C 	C 	0.31323	0.84207	0.42139	0.133
Mof_N 	N 	0.15997	0.76561	0.3649	-0.224
Mof_N 	N 	0.10465	0.86325	0.22691	-0.26
Mof_N 	N 	0.12328	0.85068	0.26757	-0.229
Mof_N 	N 	0.15943	0.81309	0.32092	-0.155
Mof_N 	N 	0.17023	0.84658	0.31142	-0.153
Mof_N 	N 	0.18849	0.82774	0.33754	-0.152
Mof_N 	N 	0.22512	0.87827	0.35074	-0.234
Mof_N 	N 	0.27033	0.87452	0.40084	-0.226
Mof_N 	N 	0.24898	0.84297	0.37293	-0.267
Mof_N 	N 	0.31313	0.82751	0.40657	-0.15
Mof_S 	S 	0.07743	0.83435	0.20983	-0.063
Mof_S 	S 	0.25359	0.79975	0.37079	-0.061
Mof_C 	C 	0.28178	0.35166	0.6601	0.037
Mof_H 	H 	0.2849	0.3443	0.6476	0.013
Mof_C 	C 	0.29417	0.34811	0.67727	-0.052
Mof_C 	C 	0.28951	0.35817	0.69563	0.01
Mof_H 	H 	0.2981	0.3566	0.7076	0.037
Mof_C 	C 	0.27202	0.37062	0.69617	-0.1
Mof_H 	H 	0.2676	0.3767	0.7089	0.066
Mof_C 	C 	0.26099	0.37422	0.67829	0.058
Mof_H 	H 	0.2496	0.3837	0.6788	0.001
Mof_C 	C 	0.35151	0.219	0.59342	0.098
Mof_C 	C 	0.33516	0.26673	0.60933	0.065
Mof_H 	H 	0.336	0.2564	0.5988	-0.003
Mof_C 	C 	0.3183	0.27959	0.60923	-0.107
Mof_H 	H 	0.3082	0.2787	0.5985	0.068
Mof_C 	C 	0.31624	0.29389	0.62505	0.014
Mof_H 	H 	0.3047	0.3031	0.6255	0.035
Mof_C 	C 	0.33154	0.29454	0.64046	-0.055
Mof_C 	C 	0.34801	0.28115	0.63885	0.043
Mof_H 	H 	0.3582	0.2815	0.6495	0.013
Mof_C 	C 	0.33004	0.30983	0.65793	0.142
Mof_C 	C 	0.34503	0.3257	0.68522	0.136
Mof_C 	C 	0.31253	0.33463	0.67526	0.139
Mof_C 	C 	0.36283	0.34659	0.71236	0.048
Mof_H 	H 	0.351	0.3554	0.7126	0.009
Mof_C 	C 	0.36298	0.32962	0.69823	-0.058
Mof_C 	C 	0.38086	0.31788	0.69724	0.018
Mof_H 	H 	0.3819	0.3067	0.6877	0.035
Mof_C 	C 	0.39724	0.32249	0.71019	-0.11
Mof_H 	H 	0.4098	0.3148	0.7096	0.071
Mof_C 	C 	0.39493	0.33862	0.72413	0.069
Mof_H 	H 	0.406	0.3412	0.7336	-0.002
Mof_C 	C 	0.32552	0.3719	0.7511	0.108
Mof_C 	C 	0.3878	0.41748	0.76753	0.052
Mof_H 	H 	0.3979	0.4165	0.7568	0.003
Mof_C 	C 	0.38726	0.43479	0.77894	-0.096
Mof_H 	H 	0.3972	0.4455	0.7767	0.066
Mof_C 	C 	0.37179	0.43705	0.79439	0.005
Mof_H 	H 	0.3707	0.4494	0.8024	0.039
Mof_C 	C 	0.35827	0.42042	0.79744	-0.053
Mof_C 	C 	0.36005	0.40304	0.78479	0.046
Mof_H 	H 	0.3503	0.3921	0.7866	0.011
Mof_C 	C 	0.34207	0.42139	0.81323	0.133
Mof_N 	N 	0.26561	0.3649	0.65997	-0.224
Mof_N 	N 	0.36325	0.22691	0.60465	-0.26
Mof_N 	N 	0.35068	0.26757	0.62328	-0.229
Mof_N 	N 	0.31309	0.32092	0.65943	-0.155
Mof_N 	N 	0.34658	0.31142	0.67023	-0.153
Mof_N 	N 	0.32774	0.33754	0.68849	-0.152
Mof_N 	N 	0.37827	0.35074	0.72512	-0.234
Mof_N 	N 	0.37452	0.40084	0.77033	-0.226
Mof_N 	N 	0.34297	0.37293	0.74898	-0.267
Mof_N 	N 	0.32751	0.40657	0.81313	-0.15
Mof_S 	S 	0.33435	0.20983	0.57743	-0.063
Mof_S 	S 	0.29975	0.37079	0.75359	-0.061
Mof_C 	C 	0.28178	0.85166	0.1601	0.037
Mof_H 	H 	0.2849	0.8443	0.1476	0.013
Mof_C 	C 	0.29417	0.84811	0.17727	-0.052
Mof_C 	C 	0.28951	0.85817	0.19563	0.01
Mof_H 	H 	0.2981	0.8566	0.2076	0.037
Mof_C 	C 	0.27202	0.87062	0.19617	-0.1
Mof_H 	H 	0.2676	0.8767	0.2089	0.066
Mof_C 	C 	0.26099	0.87422	0.17829	0.058
Mof_H 	H 	0.2496	0.8837	0.1788	0.001
Mof_C 	C 	0.35151	0.719	0.09342	0.098
Mof_C 	C 	0.33516	0.76673	0.10933	0.065
Mof_H 	H 	0.336	0.7564	0.0988	-0.003
Mof_C 	C 	0.3183	0.77959	0.10923	-0.107
Mof_H 	H 	0.3082	0.7787	0.0985	0.068
Mof_C 	C 	0.31624	0.79389	0.12505	0.014
Mof_H 	H 	0.3047	0.8031	0.1255	0.035
Mof_C 	C 	0.33154	0.79454	0.14046	-0.055
Mof_C 	C 	0.34801	0.78115	0.13885	0.043
Mof_H 	H 	0.3582	0.7815	0.1495	0.013
Mof_C 	C 	0.33004	0.80983	0.15793	0.142
Mof_C 	C 	0.34503	0.8257	0.18522	0.136
Mof_C 	C 	0.31253	0.83463	0.17526	0.139
Mof_C 	C 	0.36283	0.84659	0.21236	0.048
Mof_H 	H 	0.351	0.8554	0.2126	0.009
Mof_C 	C 	0.36298	0.82962	0.19823	-0.058
Mof_C 	C 	0.38086	0.81788	0.19724	0.018
Mof_H 	H 	0.3819	0.8067	0.1877	0.035
Mof_C 	C 	0.39724	0.82249	0.21019	-0.11
Mof_H 	H 	0.4098	0.8148	0.2096	0.071
Mof_C 	C 	0.39493	0.83862	0.22413	0.069
Mof_H 	H 	0.406	0.8412	0.2336	-0.002
Mof_C 	C 	0.32552	0.8719	0.2511	0.108
Mof_C 	C 	0.3878	0.91748	0.26753	0.052
Mof_H 	H 	0.3979	0.9165	0.2568	0.003
Mof_C 	C 	0.38726	0.93479	0.27894	-0.096
Mof_H 	H 	0.3972	0.9455	0.2767	0.066
Mof_C 	C 	0.37179	0.93705	0.29439	0.005
Mof_H 	H 	0.3707	0.9494	0.3024	0.039
Mof_C 	C 	0.35827	0.92042	0.29744	-0.053
Mof_C 	C 	0.36005	0.90304	0.28479	0.046
Mof_H 	H 	0.3503	0.8921	0.2866	0.011
Mof_C 	C 	0.34207	0.92139	0.31323	0.133
Mof_N 	N 	0.26561	0.8649	0.15997	-0.224
Mof_N 	N 	0.36325	0.72691	0.10465	-0.26
Mof_N 	N 	0.35068	0.76757	0.12328	-0.229
Mof_N 	N 	0.31309	0.82092	0.15943	-0.155
Mof_N 	N 	0.34658	0.81142	0.17023	-0.153
Mof_N 	N 	0.32774	0.83754	0.18849	-0.152
Mof_N 	N 	0.37827	0.85074	0.22512	-0.234
Mof_N 	N 	0.37452	0.90084	0.27033	-0.226
Mof_N 	N 	0.34297	0.87293	0.24898	-0.267
Mof_N 	N 	0.32751	0.90657	0.31313	-0.15
Mof_S 	S 	0.33435	0.70983	0.07743	-0.063
Mof_S 	S 	0.29975	0.87079	0.25359	-0.061
Mof_C 	C 	0.78178	0.35166	0.1601	0.037
Mof_H 	H 	0.7849	0.3443	0.1476	0.013
Mof_C 	C 	0.79417	0.34811	0.17727	-0.052
Mof_C 	C 	0.78951	0.35817	0.19563	0.01
Mof_H 	H 	0.7981	0.3566	0.2076	0.037
Mof_C 	C 	0.77202	0.37062	0.19617	-0.1
Mof_H 	H 	0.7676	0.3767	0.2089	0.066
Mof_C 	C 	0.76099	0.37422	0.17829	0.058
Mof_H 	H 	0.7496	0.3837	0.1788	0.001
Mof_C 	C 	0.85151	0.219	0.09342	0.098
Mof_C 	C 	0.83516	0.26673	0.10933	0.065
Mof_H 	H 	0.836	0.2564	0.0988	-0.003
Mof_C 	C 	0.8183	0.27959	0.10923	-0.107
Mof_H 	H 	0.8082	0.2787	0.0985	0.068
Mof_C 	C 	0.81624	0.29389	0.12505	0.014
Mof_H 	H 	0.8047	0.3031	0.1255	0.035
Mof_C 	C 	0.83154	0.29454	0.14046	-0.055
Mof_C 	C 	0.84801	0.28115	0.13885	0.043
Mof_H 	H 	0.8582	0.2815	0.1495	0.013
Mof_C 	C 	0.83004	0.30983	0.15793	0.142
Mof_C 	C 	0.84503	0.3257	0.18522	0.136
Mof_C 	C 	0.81253	0.33463	0.17526	0.139
Mof_C 	C 	0.86283	0.34659	0.21236	0.048
Mof_H 	H 	0.851	0.3554	0.2126	0.009
Mof_C 	C 	0.86298	0.32962	0.19823	-0.058
Mof_C 	C 	0.88086	0.31788	0.19724	0.018
Mof_H 	H 	0.8819	0.3067	0.1877	0.035
Mof_C 	C 	0.89724	0.32249	0.21019	-0.11
Mof_H 	H 	0.9098	0.3148	0.2096	0.071
Mof_C 	C 	0.89493	0.33862	0.22413	0.069
Mof_H 	H 	0.906	0.3412	0.2336	-0.002
Mof_C 	C 	0.82552	0.3719	0.2511	0.108
Mof_C 	C 	0.8878	0.41748	0.26753	0.052
Mof_H 	H 	0.8979	0.4165	0.2568	0.003
Mof_C 	C 	0.88726	0.43479	0.27894	-0.096
Mof_H 	H 	0.8972	0.4455	0.2767	0.066
Mof_C 	C 	0.87179	0.43705	0.29439	0.005
Mof_H 	H 	0.8707	0.4494	0.3024	0.039
Mof_C 	C 	0.85827	0.42042	0.29744	-0.053
Mof_C 	C 	0.86005	0.40304	0.28479	0.046
Mof_H 	H 	0.8503	0.3921	0.2866	0.011
Mof_C 	C 	0.84207	0.42139	0.31323	0.133
Mof_N 	N 	0.76561	0.3649	0.15997	-0.224
Mof_N 	N 	0.86325	0.22691	0.10465	-0.26
Mof_N 	N 	0.85068	0.26757	0.12328	-0.229
Mof_N 	N 	0.81309	0.32092	0.15943	-0.155
Mof_N 	N 	0.84658	0.31142	0.17023	-0.153
Mof_N 	N 	0.82774	0.33754	0.18849	-0.152
Mof_N 	N 	0.87827	0.35074	0.22512	-0.234
Mof_N 	N 	0.87452	0.40084	0.27033	-0.226
Mof_N 	N 	0.84297	0.37293	0.24898	-0.267
Mof_N 	N 	0.82751	0.40657	0.31313	-0.15
Mof_S 	S 	0.83435	0.20983	0.07743	-0.063
Mof_S 	S 	0.79975	0.37079	0.25359	-0.061
Mof_C 	C 	0.78178	0.85166	0.6601	0.037
Mof_H 	H 	0.7849	0.8443	0.6476	0.013
Mof_C 	C 	0.79417	0.84811	0.67727	-0.052
Mof_C 	C 	0.78951	0.85817	0.69563	0.01
Mof_H 	H 	0.7981	0.8566	0.7076	0.037
Mof_C 	C 	0.77202	0.87062	0.69617	-0.1
Mof_H 	H 	0.7676	0.8767	0.7089	0.066
Mof_C 	C 	0.76099	0.87422	0.67829	0.058
Mof_H 	H 	0.7496	0.8837	0.6788	0.001
Mof_C 	C 	0.85151	0.719	0.59342	0.098
Mof_C 	C 	0.83516	0.76673	0.60933	0.065
Mof_H 	H 	0.836	0.7564	0.5988	-0.003
Mof_C 	C 	0.8183	0.77959	0.60923	-0.107
Mof_H 	H 	0.8082	0.7787	0.5985	0.068
Mof_C 	C 	0.81624	0.79389	0.62505	0.014
Mof_H 	H 	0.8047	0.8031	0.6255	0.035
Mof_C 	C 	0.83154	0.79454	0.64046	-0.055
Mof_C 	C 	0.84801	0.78115	0.63885	0.043
Mof_H 	H 	0.8582	0.7815	0.6495	0.013
Mof_C 	C 	0.83004	0.80983	0.65793	0.142
Mof_C 	C 	0.84503	0.8257	0.68522	0.136
Mof_C 	C 	0.81253	0.83463	0.67526	0.139
Mof_C 	C 	0.86283	0.84659	0.71236	0.048
Mof_H 	H 	0.851	0.8554	0.7126	0.009
Mof_C 	C 	0.86298	0.82962	0.69823	-0.058
Mof_C 	C 	0.88086	0.81788	0.69724	0.018
Mof_H 	H 	0.8819	0.8067	0.6877	0.035
Mof_C 	C 	0.89724	0.82249	0.71019	-0.11
Mof_H 	H 	0.9098	0.8148	0.7096	0.071
Mof_C 	C 	0.89493	0.83862	0.72413	0.069
Mof_H 	H 	0.906	0.8412	0.7336	-0.002
Mof_C 	C 	0.82552	0.8719	0.7511	0.108
Mof_C 	C 	0.8878	0.91748	0.76753	0.052
Mof_H 	H 	0.8979	0.9165	0.7568	0.003
Mof_C 	C 	0.88726	0.93479	0.77894	-0.096
Mof_H 	H 	0.8972	0.9455	0.7767	0.066
Mof_C 	C 	0.87179	0.93705	0.79439	0.005
Mof_H 	H 	0.8707	0.9494	0.8024	0.039
Mof_C 	C 	0.85827	0.92042	0.79744	-0.053
Mof_C 	C 	0.86005	0.90304	0.78479	0.046
Mof_H 	H 	0.8503	0.8921	0.7866	0.011
Mof_C 	C 	0.84207	0.92139	0.81323	0.133
Mof_N 	N 	0.76561	0.8649	0.65997	-0.224
Mof_N 	N 	0.86325	0.72691	0.60465	-0.26
Mof_N 	N 	0.85068	0.76757	0.62328	-0.229
Mof_N 	N 	0.81309	0.82092	0.65943	-0.155
Mof_N 	N 	0.84658	0.81142	0.67023	-0.153
Mof_N 	N 	0.82774	0.83754	0.68849	-0.152
Mof_N 	N 	0.87827	0.85074	0.72512	-0.234
Mof_N 	N 	0.87452	0.90084	0.77033	-0.226
Mof_N 	N 	0.84297	0.87293	0.74898	-0.267
Mof_N 	N 	0.82751	0.90657	0.81313	-0.15
Mof_S 	S 	0.83435	0.70983	0.57743	-0.063
Mof_S 	S 	0.79975	0.87079	0.75359	-0.061
Mof_C 	C 	0.46822	0.85166	0.5899	0.037
Mof_H 	H 	0.4651	0.8443	0.6024	0.013
Mof_C 	C 	0.45583	0.84811	0.57273	-0.052
Mof_C 	C 	0.46049	0.85817	0.55437	0.01
Mof_H 	H 	0.4519	0.8566	0.5424	0.037
Mof_C 	C 	0.47798	0.87062	0.55383	-0.1
Mof_H 	H 	0.4824	0.8767	0.5411	0.066
Mof_C 	C 	0.48901	0.87422	0.57171	0.058
Mof_H 	H 	0.5004	0.8837	0.5712	0.001
Mof_C 	C 	0.39849	0.719	0.65658	0.098
Mof_C 	C 	0.41484	0.76673	0.64067	0.065
Mof_H 	H 	0.414	0.7564	0.6512	-0.003
Mof_C 	C 	0.4317	0.77959	0.64077	-0.107
Mof_H 	H 	0.4418	0.7787	0.6515	0.068
Mof_C 	C 	0.43376	0.79389	0.62495	0.014
Mof_H 	H 	0.4453	0.8031	0.6245	0.035
Mof_C 	C 	0.41846	0.79454	0.60954	-0.055
Mof_C 	C 	0.40199	0.78115	0.61115	0.043
Mof_H 	H 	0.3918	0.7815	0.6005	0.013
Mof_C 	C 	0.41996	0.80983	0.59207	0.142
Mof_C 	C 	0.40497	0.8257	0.56478	0.136
Mof_C 	C 	0.43747	0.83463	0.57474	0.139
Mof_C 	C 	0.38717	0.84659	0.53764	0.048
Mof_H 	H 	0.399	0.8554	0.5374	0.009
Mof_C 	C 	0.38702	0.82962	0.55177	-0.058
Mof_C 	C 	0.36914	0.81788	0.55276	0.018
Mof_H 	H 	0.3681	0.8067	0.5623	0.035
Mof_C 	C 	0.35276	0.82249	0.53981	-0.11
Mof_H 	H 	0.3402	0.8148	0.5404	0.071
Mof_C 	C 	0.35507	0.83862	0.52587	0.069
Mof_H 	H 	0.344	0.8412	0.5164	-0.002
Mof_C 	C 	0.42448	0.8719	0.4989	0.108
Mof_C 	C 	0.3622	0.91748	0.48247	0.052
Mof_H 	H 	0.3521	0.9165	0.4932	0.003
Mof_C 	C 	0.36274	0.93479	0.47106	-0.096
Mof_H 	H 	0.3528	0.9455	0.4733	0.066
Mof_C 	C 	0.37821	0.93705	0.45561	0.005
Mof_H 	H 	0.3793	0.9494	0.4476	0.039
Mof_C 	C 	0.39173	0.92042	0.45256	-0.053
Mof_C 	C 	0.38995	0.90304	0.46521	0.046
Mof_H 	H 	0.3997	0.8921	0.4634	0.011
Mof_C 	C 	0.40793	0.92139	0.43677	0.133
Mof_N 	N 	0.48439	0.8649	0.59003	-0.224
Mof_N 	N 	0.38675	0.72691	0.64535	-0.26
Mof_N 	N 	0.39932	0.76757	0.62672	-0.229
Mof_N 	N 	0.43691	0.82092	0.59057	-0.155
Mof_N 	N 	0.40342	0.81142	0.57977	-0.153
Mof_N 	N 	0.42226	0.83754	0.56151	-0.152
Mof_N 	N 	0.37173	0.85074	0.52488	-0.234
Mof_N 	N 	0.37548	0.90084	0.47967	-0.226
Mof_N 	N 	0.40703	0.87293	0.50102	-0.267
Mof_N 	N 	0.42249	0.90657	0.43687	-0.15
Mof_S 	S 	0.41565	0.70983	0.67257	-0.063
Mof_S 	S 	0.45025	0.87079	0.49641	-0.061
Mof_C 	C 	0.46822	0.35166	0.0899	0.037
Mof_H 	H 	0.4651	0.3443	0.1024	0.013
Mof_C 	C 	0.45583	0.34811	0.07273	-0.052
Mof_C 	C 	0.46049	0.35817	0.05437	0.01
Mof_H 	H 	0.4519	0.3566	0.0424	0.037
Mof_C 	C 	0.47798	0.37062	0.05383	-0.1
Mof_H 	H 	0.4824	0.3767	0.0411	0.066
Mof_C 	C 	0.48901	0.37422	0.07171	0.058
Mof_H 	H 	0.5004	0.3837	0.0712	0.001
Mof_C 	C 	0.39849	0.219	0.15658	0.098
Mof_C 	C 	0.41484	0.26673	0.14067	0.065
Mof_H 	H 	0.414	0.2564	0.1512	-0.003
Mof_C 	C 	0.4317	0.27959	0.14077	-0.107
Mof_H 	H 	0.4418	0.2787	0.1515	0.068
Mof_C 	C 	0.43376	0.29389	0.12495	0.014
Mof_H 	H 	0.4453	0.3031	0.1245	0.035
Mof_C 	C 	0.41846	0.29454	0.10954	-0.055
Mof_C 	C 	0.40199	0.28115	0.11115	0.043
Mof_H 	H 	0.3918	0.2815	0.1005	0.013
Mof_C 	C 	0.41996	0.30983	0.09207	0.142
Mof_C 	C 	0.40497	0.3257	0.06478	0.136
Mof_C 	C 	0.43747	0.33463	0.07474	0.139
Mof_C 	C 	0.38717	0.34659	0.03764	0.048
Mof_H 	H 	0.399	0.3554	0.0374	0.009
Mof_C 	C 	0.38702	0.32962	0.05177	-0.058
Mof_C 	C 	0.36914	0.31788	0.05276	0.018
Mof_H 	H 	0.3681	0.3067	0.0623	0.035
Mof_C 	C 	0.35276	0.32249	0.03981	-0.11
Mof_H 	H 	0.3402	0.3148	0.0404	0.071
Mof_C 	C 	0.35507	0.33862	0.02587	0.069
Mof_H 	H 	0.344	0.3412	0.0164	-0.002
Mof_C 	C 	0.42448	0.3719	0.9989	0.108
Mof_C 	C 	0.3622	0.41748	0.98247	0.052
Mof_H 	H 	0.3521	0.4165	0.9932	0.003
Mof_C 	C 	0.36274	0.43479	0.97106	-0.096
Mof_H 	H 	0.3528	0.4455	0.9733	0.066
Mof_C 	C 	0.37821	0.43705	0.95561	0.005
Mof_H 	H 	0.3793	0.4494	0.9476	0.039
Mof_C 	C 	0.39173	0.42042	0.95256	-0.053
Mof_C 	C 	0.38995	0.40304	0.96521	0.046
Mof_H 	H 	0.3997	0.3921	0.9634	0.011
Mof_C 	C 	0.40793	0.42139	0.93677	0.133
Mof_N 	N 	0.48439	0.3649	0.09003	-0.224
Mof_N 	N 	0.38675	0.22691	0.14535	-0.26
Mof_N 	N 	0.39932	0.26757	0.12672	-0.229
Mof_N 	N 	0.43691	0.32092	0.09057	-0.155
Mof_N 	N 	0.40342	0.31142	0.07977	-0.153
Mof_N 	N 	0.42226	0.33754	0.06151	-0.152
Mof_N 	N 	0.37173	0.35074	0.02488	-0.234
Mof_N 	N 	0.37548	0.40084	0.97967	-0.226
Mof_N 	N 	0.40703	0.37293	0.00102	-0.267
Mof_N 	N 	0.42249	0.40657	0.93687	-0.15
Mof_S 	S 	0.41565	0.20983	0.17257	-0.063
Mof_S 	S 	0.45025	0.37079	0.99641	-0.061
Mof_C 	C 	0.96822	0.85166	0.0899	0.038
Mof_H 	H 	0.9651	0.8443	0.1024	0.013
Mof_C 	C 	0.95583	0.84811	0.07273	-0.052
Mof_C 	C 	0.96049	0.85817	0.05437	0.01
Mof_H 	H 	0.9519	0.8566	0.0424	0.037
Mof_C 	C 	0.97798	0.87062	0.05383	-0.1
Mof_H 	H 	0.9824	0.8767	0.0411	0.066
Mof_C 	C 	0.98901	0.87422	0.07171	0.059
Mof_H 	H 	0.0004	0.8837	0.0712	0.001
Mof_C 	C 	0.89849	0.719	0.15658	0.098
Mof_C 	C 	0.91484	0.76673	0.14067	0.065
Mof_H 	H 	0.914	0.7564	0.1512	-0.003
Mof_C 	C 	0.9317	0.77959	0.14077	-0.107
Mof_H 	H 	0.9418	0.7787	0.1515	0.068
Mof_C 	C 	0.93376	0.79389	0.12495	0.014
Mof_H 	H 	0.9453	0.8031	0.1245	0.035
Mof_C 	C 	0.91846	0.79454	0.10954	-0.055
Mof_C 	C 	0.90199	0.78115	0.11115	0.043
Mof_H 	H 	0.8918	0.7815	0.1005	0.013
Mof_C 	C 	0.91996	0.80983	0.09207	0.142
Mof_C 	C 	0.90497	0.8257	0.06478	0.136
Mof_C 	C 	0.93747	0.83463	0.07474	0.139
Mof_C 	C 	0.88717	0.84659	0.03764	0.048
Mof_H 	H 	0.899	0.8554	0.0374	0.009
Mof_C 	C 	0.88702	0.82962	0.05177	-0.058
Mof_C 	C 	0.86914	0.81788	0.05276	0.018
Mof_H 	H 	0.8681	0.8067	0.0623	0.035
Mof_C 	C 	0.85276	0.82249	0.03981	-0.11
Mof_H 	H 	0.8402	0.8148	0.0404	0.071
Mof_C 	C 	0.85507	0.83862	0.02587	0.069
Mof_H 	H 	0.844	0.8412	0.0164	-0.002
Mof_C 	C 	0.92448	0.8719	0.9989	0.108
Mof_C 	C 	0.8622	0.91748	0.98247	0.052
Mof_H 	H 	0.8521	0.9165	0.9932	0.003
Mof_C 	C 	0.86274	0.93479	0.97106	-0.096
Mof_H 	H 	0.8528	0.9455	0.9733	0.066
Mof_C 	C 	0.87821	0.93705	0.95561	0.005
Mof_H 	H 	0.8793	0.9494	0.9476	0.039
Mof_C 	C 	0.89173	0.92042	0.95256	-0.053
Mof_C 	C 	0.88995	0.90304	0.96521	0.046
Mof_H 	H 	0.8997	0.8921	0.9634	0.011
Mof_C 	C 	0.90793	0.92139	0.93677	0.133
Mof_N 	N 	0.98439	0.8649	0.09003	-0.224
Mof_N 	N 	0.88675	0.72691	0.14535	-0.26
Mof_N 	N 	0.89932	0.76757	0.12672	-0.229
Mof_N 	N 	0.93691	0.82092	0.09057	-0.155
Mof_N 	N 	0.90342	0.81142	0.07977	-0.153
Mof_N 	N 	0.92226	0.83754	0.06151	-0.152
Mof_N 	N 	0.87173	0.85074	0.02488	-0.234
Mof_N 	N 	0.87548	0.90084	0.97967	-0.226
Mof_N 	N 	0.90703	0.87293	0.00102	-0.267
Mof_N 	N 	0.92249	0.90657	0.93687	-0.15
Mof_S 	S 	0.91565	0.70983	0.17257	-0.063
Mof_S 	S 	0.95025	0.87079	0.99641	-0.061
Mof_C 	C 	0.96822	0.35166	0.5899	0.038
Mof_H 	H 	0.9651	0.3443	0.6024	0.013
Mof_C 	C 	0.95583	0.34811	0.57273	-0.052
Mof_C 	C 	0.96049	0.35817	0.55437	0.01
Mof_H 	H 	0.9519	0.3566	0.5424	0.037
Mof_C 	C 	0.97798	0.37062	0.55383	-0.1
Mof_H 	H 	0.9824	0.3767	0.5411	0.066
Mof_C 	C 	0.98901	0.37422	0.57171	0.059
Mof_H 	H 	0.0004	0.3837	0.5712	0.001
Mof_C 	C 	0.89849	0.219	0.65658	0.098
Mof_C 	C 	0.91484	0.26673	0.64067	0.065
Mof_H 	H 	0.914	0.2564	0.6512	-0.003
Mof_C 	C 	0.9317	0.27959	0.64077	-0.107
Mof_H 	H 	0.9418	0.2787	0.6515	0.068
Mof_C 	C 	0.93376	0.29389	0.62495	0.014
Mof_H 	H 	0.9453	0.3031	0.6245	0.035
Mof_C 	C 	0.91846	0.29454	0.60954	-0.055
Mof_C 	C 	0.90199	0.28115	0.61115	0.043
Mof_H 	H 	0.8918	0.2815	0.6005	0.013
Mof_C 	C 	0.91996	0.30983	0.59207	0.142
Mof_C 	C 	0.90497	0.3257	0.56478	0.136
Mof_C 	C 	0.93747	0.33463	0.57474	0.139
Mof_C 	C 	0.88717	0.34659	0.53764	0.048
Mof_H 	H 	0.899	0.3554	0.5374	0.009
Mof_C 	C 	0.88702	0.32962	0.55177	-0.058
Mof_C 	C 	0.86914	0.31788	0.55276	0.018
Mof_H 	H 	0.8681	0.3067	0.5623	0.035
Mof_C 	C 	0.85276	0.32249	0.53981	-0.11
Mof_H 	H 	0.8402	0.3148	0.5404	0.071
Mof_C 	C 	0.85507	0.33862	0.52587	0.069
Mof_H 	H 	0.844	0.3412	0.5164	-0.002
Mof_C 	C 	0.92448	0.3719	0.4989	0.108
Mof_C 	C 	0.8622	0.41748	0.48247	0.052
Mof_H 	H 	0.8521	0.4165	0.4932	0.003
Mof_C 	C 	0.86274	0.43479	0.47106	-0.096
Mof_H 	H 	0.8528	0.4455	0.4733	0.066
Mof_C 	C 	0.87821	0.43705	0.45561	0.005
Mof_H 	H 	0.8793	0.4494	0.4476	0.039
Mof_C 	C 	0.89173	0.42042	0.45256	-0.053
Mof_C 	C 	0.88995	0.40304	0.46521	0.046
Mof_H 	H 	0.8997	0.3921	0.4634	0.011
Mof_C 	C 	0.90793	0.42139	0.43677	0.133
Mof_N 	N 	0.98439	0.3649	0.59003	-0.224
Mof_N 	N 	0.88675	0.22691	0.64535	-0.26
Mof_N 	N 	0.89932	0.26757	0.62672	-0.229
Mof_N 	N 	0.93691	0.32092	0.59057	-0.155
Mof_N 	N 	0.90342	0.31142	0.57977	-0.153
Mof_N 	N 	0.92226	0.33754	0.56151	-0.152
Mof_N 	N 	0.87173	0.35074	0.52488	-0.234
Mof_N 	N 	0.87548	0.40084	0.47967	-0.226
Mof_N 	N 	0.90703	0.37293	0.50102	-0.267
Mof_N 	N 	0.92249	0.40657	0.43687	-0.15
Mof_S 	S 	0.91565	0.20983	0.67257	-0.063
Mof_S 	S 	0.95025	0.37079	0.49641	-0.061
Mof_C 	C 	0.96822	0.39834	0.1601	0.038
Mof_H 	H 	0.9651	0.4057	0.1476	0.013
Mof_C 	C 	0.95583	0.40189	0.17727	-0.052
Mof_C 	C 	0.96049	0.39183	0.19563	0.01
Mof_H 	H 	0.9519	0.3934	0.2076	0.037
Mof_C 	C 	0.97798	0.37938	0.19617	-0.1
Mof_H 	H 	0.9824	0.3733	0.2089	0.066
Mof_C 	C 	0.98901	0.37578	0.17829	0.059
Mof_H 	H 	0.0004	0.3663	0.1788	0.001
Mof_C 	C 	0.89849	0.531	0.09342	0.098
Mof_C 	C 	0.91484	0.48327	0.10933	0.065
Mof_H 	H 	0.914	0.4936	0.0988	-0.003
Mof_C 	C 	0.9317	0.47041	0.10923	-0.107
Mof_H 	H 	0.9418	0.4713	0.0985	0.068
Mof_C 	C 	0.93376	0.45611	0.12505	0.014
Mof_H 	H 	0.9453	0.4469	0.1255	0.035
Mof_C 	C 	0.91846	0.45546	0.14046	-0.055
Mof_C 	C 	0.90199	0.46885	0.13885	0.043
Mof_H 	H 	0.8918	0.4685	0.1495	0.013
Mof_C 	C 	0.91996	0.44017	0.15793	0.142
Mof_C 	C 	0.90497	0.4243	0.18522	0.136
Mof_C 	C 	0.93747	0.41537	0.17526	0.139
Mof_C 	C 	0.88717	0.40341	0.21236	0.048
Mof_H 	H 	0.899	0.3946	0.2126	0.009
Mof_C 	C 	0.88702	0.42038	0.19823	-0.058
Mof_C 	C 	0.86914	0.43212	0.19724	0.018
Mof_H 	H 	0.8681	0.4433	0.1877	0.035
Mof_C 	C 	0.85276	0.42751	0.21019	-0.11
Mof_H 	H 	0.8402	0.4352	0.2096	0.071
Mof_C 	C 	0.85507	0.41138	0.22413	0.069
Mof_H 	H 	0.844	0.4088	0.2336	-0.002
Mof_C 	C 	0.92448	0.3781	0.2511	0.108
Mof_C 	C 	0.8622	0.33252	0.26753	0.052
Mof_H 	H 	0.8521	0.3335	0.2568	0.003
Mof_C 	C 	0.86274	0.31521	0.27894	-0.096
Mof_H 	H 	0.8528	0.3045	0.2767	0.066
Mof_C 	C 	0.87821	0.31295	0.29439	0.005
Mof_H 	H 	0.8793	0.3006	0.3024	0.039
Mof_C 	C 	0.89173	0.32958	0.29744	-0.053
Mof_C 	C 	0.88995	0.34696	0.28479	0.046
Mof_H 	H 	0.8997	0.3579	0.2866	0.011
Mof_C 	C 	0.90793	0.32861	0.31323	0.133
Mof_N 	N 	0.98439	0.3851	0.15997	-0.224
Mof_N 	N 	0.88675	0.52309	0.10465	-0.26
Mof_N 	N 	0.89932	0.48243	0.12328	-0.229
Mof_N 	N 	0.93691	0.42908	0.15943	-0.155
Mof_N 	N 	0.90342	0.43858	0.17023	-0.153
Mof_N 	N 	0.92226	0.41246	0.18849	-0.152
Mof_N 	N 	0.87173	0.39926	0.22512	-0.234
Mof_N 	N 	0.87548	0.34916	0.27033	-0.226
Mof_N 	N 	0.90703	0.37707	0.24898	-0.267
Mof_N 	N 	0.92249	0.34343	0.31313	-0.15
Mof_S 	S 	0.91565	0.54017	0.07743	-0.063
Mof_S 	S 	0.95025	0.37921	0.25359	-0.061
Mof_C 	C 	0.96822	0.89834	0.6601	0.038
Mof_H 	H 	0.9651	0.9057	0.6476	0.013
Mof_C 	C 	0.95583	0.90189	0.67727	-0.052
Mof_C 	C 	0.96049	0.89183	0.69563	0.01
Mof_H 	H 	0.9519	0.8934	0.7076	0.037
Mof_C 	C 	0.97798	0.87938	0.69617	-0.1
Mof_H 	H 	0.9824	0.8733	0.7089	0.066
Mof_C 	C 	0.98901	0.87578	0.67829	0.059
Mof_H 	H 	0.0004	0.8663	0.6788	0.001
Mof_C 	C 	0.89849	0.031	0.59342	0.098
Mof_C 	C 	0.91484	0.98327	0.60933	0.065
Mof_H 	H 	0.914	0.9936	0.5988	-0.003
Mof_C 	C 	0.9317	0.97041	0.60923	-0.107
Mof_H 	H 	0.9418	0.9713	0.5985	0.068
Mof_C 	C 	0.93376	0.95611	0.62505	0.014
Mof_H 	H 	0.9453	0.9469	0.6255	0.036
Mof_C 	C 	0.91846	0.95546	0.64046	-0.055
Mof_C 	C 	0.90199	0.96885	0.63885	0.043
Mof_H 	H 	0.8918	0.9685	0.6495	0.013
Mof_C 	C 	0.91996	0.94017	0.65793	0.142
Mof_C 	C 	0.90497	0.9243	0.68522	0.136
Mof_C 	C 	0.93747	0.91537	0.67526	0.139
Mof_C 	C 	0.88717	0.90341	0.71236	0.048
Mof_H 	H 	0.899	0.8946	0.7126	0.009
Mof_C 	C 	0.88702	0.92038	0.69823	-0.058
Mof_C 	C 	0.86914	0.93212	0.69724	0.018
Mof_H 	H 	0.8681	0.9433	0.6877	0.035
Mof_C 	C 	0.85276	0.92751	0.71019	-0.11
Mof_H 	H 	0.8402	0.9352	0.7096	0.071
Mof_C 	C 	0.85507	0.91138	0.72413	0.069
Mof_H 	H 	0.844	0.9088	0.7336	-0.002
Mof_C 	C 	0.92448	0.8781	0.7511	0.108
Mof_C 	C 	0.8622	0.83252	0.76753	0.052
Mof_H 	H 	0.8521	0.8335	0.7568	0.003
Mof_C 	C 	0.86274	0.81521	0.77894	-0.096
Mof_H 	H 	0.8528	0.8045	0.7767	0.066
Mof_C 	C 	0.87821	0.81295	0.79439	0.005
Mof_H 	H 	0.8793	0.8006	0.8024	0.039
Mof_C 	C 	0.89173	0.82958	0.79744	-0.053
Mof_C 	C 	0.88995	0.84696	0.78479	0.046
Mof_H 	H 	0.8997	0.8579	0.7866	0.011
Mof_C 	C 	0.90793	0.82861	0.81323	0.133
Mof_N 	N 	0.98439	0.8851	0.65997	-0.224
Mof_N 	N 	0.88675	0.02309	0.60465	-0.26
Mof_N 	N 	0.89932	0.98243	0.62328	-0.229
Mof_N 	N 	0.93691	0.92908	0.65943	-0.155
Mof_N 	N 	0.90342	0.93858	0.67023	-0.153
Mof_N 	N 	0.92226	0.91246	0.68849	-0.152
Mof_N 	N 	0.87173	0.89926	0.72512	-0.234
Mof_N 	N 	0.87548	0.84916	0.77033	-0.226
Mof_N 	N 	0.90703	0.87707	0.74898	-0.267
Mof_N 	N 	0.92249	0.84343	0.81313	-0.15
Mof_S 	S 	0.91565	0.04017	0.57743	-0.063
Mof_S 	S 	0.95025	0.87921	0.75359	-0.061
Mof_C 	C 	0.46822	0.39834	0.6601	0.037
Mof_H 	H 	0.4651	0.4057	0.6476	0.013
Mof_C 	C 	0.45583	0.40189	0.67727	-0.052
Mof_C 	C 	0.46049	0.39183	0.69563	0.01
Mof_H 	H 	0.4519	0.3934	0.7076	0.037
Mof_C 	C 	0.47798	0.37938	0.69617	-0.1
Mof_H 	H 	0.4824	0.3733	0.7089	0.066
Mof_C 	C 	0.48901	0.37578	0.67829	0.058
Mof_H 	H 	0.5004	0.3663	0.6788	0.001
Mof_C 	C 	0.39849	0.531	0.59342	0.098
Mof_C 	C 	0.41484	0.48327	0.60933	0.065
Mof_H 	H 	0.414	0.4936	0.5988	-0.003
Mof_C 	C 	0.4317	0.47041	0.60923	-0.107
Mof_H 	H 	0.4418	0.4713	0.5985	0.068
Mof_C 	C 	0.43376	0.45611	0.62505	0.014
Mof_H 	H 	0.4453	0.4469	0.6255	0.035
Mof_C 	C 	0.41846	0.45546	0.64046	-0.055
Mof_C 	C 	0.40199	0.46885	0.63885	0.043
Mof_H 	H 	0.3918	0.4685	0.6495	0.013
Mof_C 	C 	0.41996	0.44017	0.65793	0.142
Mof_C 	C 	0.40497	0.4243	0.68522	0.136
Mof_C 	C 	0.43747	0.41537	0.67526	0.139
Mof_C 	C 	0.38717	0.40341	0.71236	0.048
Mof_H 	H 	0.399	0.3946	0.7126	0.009
Mof_C 	C 	0.38702	0.42038	0.69823	-0.058
Mof_C 	C 	0.36914	0.43212	0.69724	0.018
Mof_H 	H 	0.3681	0.4433	0.6877	0.035
Mof_C 	C 	0.35276	0.42751	0.71019	-0.11
Mof_H 	H 	0.3402	0.4352	0.7096	0.071
Mof_C 	C 	0.35507	0.41138	0.72413	0.069
Mof_H 	H 	0.344	0.4088	0.7336	-0.002
Mof_C 	C 	0.42448	0.3781	0.7511	0.108
Mof_C 	C 	0.3622	0.33252	0.76753	0.052
Mof_H 	H 	0.3521	0.3335	0.7568	0.003
Mof_C 	C 	0.36274	0.31521	0.77894	-0.096
Mof_H 	H 	0.3528	0.3045	0.7767	0.066
Mof_C 	C 	0.37821	0.31295	0.79439	0.005
Mof_H 	H 	0.3793	0.3006	0.8024	0.039
Mof_C 	C 	0.39173	0.32958	0.79744	-0.053
Mof_C 	C 	0.38995	0.34696	0.78479	0.046
Mof_H 	H 	0.3997	0.3579	0.7866	0.011
Mof_C 	C 	0.40793	0.32861	0.81323	0.133
Mof_N 	N 	0.48439	0.3851	0.65997	-0.224
Mof_N 	N 	0.38675	0.52309	0.60465	-0.26
Mof_N 	N 	0.39932	0.48243	0.62328	-0.229
Mof_N 	N 	0.43691	0.42908	0.65943	-0.155
Mof_N 	N 	0.40342	0.43858	0.67023	-0.153
Mof_N 	N 	0.42226	0.41246	0.68849	-0.152
Mof_N 	N 	0.37173	0.39926	0.72512	-0.234
Mof_N 	N 	0.37548	0.34916	0.77033	-0.226
Mof_N 	N 	0.40703	0.37707	0.74898	-0.267
Mof_N 	N 	0.42249	0.34343	0.81313	-0.15
Mof_S 	S 	0.41565	0.54017	0.57743	-0.063
Mof_S 	S 	0.45025	0.37921	0.75359	-0.061
Mof_C 	C 	0.46822	0.89834	0.1601	0.037
Mof_H 	H 	0.4651	0.9057	0.1476	0.013
Mof_C 	C 	0.45583	0.90189	0.17727	-0.052
Mof_C 	C 	0.46049	0.89183	0.19563	0.01
Mof_H 	H 	0.4519	0.8934	0.2076	0.037
Mof_C 	C 	0.47798	0.87938	0.19617	-0.1
Mof_H 	H 	0.4824	0.8733	0.2089	0.066
Mof_C 	C 	0.48901	0.87578	0.17829	0.058
Mof_H 	H 	0.5004	0.8663	0.1788	0.001
Mof_C 	C 	0.39849	0.031	0.09342	0.098
Mof_C 	C 	0.41484	0.98327	0.10933	0.065
Mof_H 	H 	0.414	0.9936	0.0988	-0.003
Mof_C 	C 	0.4317	0.97041	0.10923	-0.107
Mof_H 	H 	0.4418	0.9713	0.0985	0.068
Mof_C 	C 	0.43376	0.95611	0.12505	0.014
Mof_H 	H 	0.4453	0.9469	0.1255	0.035
Mof_C 	C 	0.41846	0.95546	0.14046	-0.055
Mof_C 	C 	0.40199	0.96885	0.13885	0.043
Mof_H 	H 	0.3918	0.9685	0.1495	0.013
Mof_C 	C 	0.41996	0.94017	0.15793	0.142
Mof_C 	C 	0.40497	0.9243	0.18522	0.136
Mof_C 	C 	0.43747	0.91537	0.17526	0.139
Mof_C 	C 	0.38717	0.90341	0.21236	0.048
Mof_H 	H 	0.399	0.8946	0.2126	0.009
Mof_C 	C 	0.38702	0.92038	0.19823	-0.058
Mof_C 	C 	0.36914	0.93212	0.19724	0.018
Mof_H 	H 	0.3681	0.9433	0.1877	0.035
Mof_C 	C 	0.35276	0.92751	0.21019	-0.11
Mof_H 	H 	0.3402	0.9352	0.2096	0.071
Mof_C 	C 	0.35507	0.91138	0.22413	0.069
Mof_H 	H 	0.344	0.9088	0.2336	-0.002
Mof_C 	C 	0.42448	0.8781	0.2511	0.108
Mof_C 	C 	0.3622	0.83252	0.26753	0.052
Mof_H 	H 	0.3521	0.8335	0.2568	0.003
Mof_C 	C 	0.36274	0.81521	0.27894	-0.096
Mof_H 	H 	0.3528	0.8045	0.2767	0.066
Mof_C 	C 	0.37821	0.81295	0.29439	0.005
Mof_H 	H 	0.3793	0.8006	0.3024	0.039
Mof_C 	C 	0.39173	0.82958	0.29744	-0.053
Mof_C 	C 	0.38995	0.84696	0.28479	0.046
Mof_H 	H 	0.3997	0.8579	0.2866	0.011
Mof_C 	C 	0.40793	0.82861	0.31323	0.133
Mof_N 	N 	0.48439	0.8851	0.15997	-0.224
Mof_N 	N 	0.38675	0.02309	0.10465	-0.26
Mof_N 	N 	0.39932	0.98243	0.12328	-0.229
Mof_N 	N 	0.43691	0.92908	0.15943	-0.155
Mof_N 	N 	0.40342	0.93858	0.17023	-0.153
Mof_N 	N 	0.42226	0.91246	0.18849	-0.152
Mof_N 	N 	0.37173	0.89926	0.22512	-0.234
Mof_N 	N 	0.37548	0.84916	0.27033	-0.226
Mof_N 	N 	0.40703	0.87707	0.24898	-0.267
Mof_N 	N 	0.42249	0.84343	0.31313	-0.15
Mof_S 	S 	0.41565	0.04017	0.07743	-0.063
Mof_S 	S 	0.45025	0.87921	0.25359	-0.061
Mof_C 	C 	0.78178	0.89834	0.0899	0.037
Mof_H 	H 	0.7849	0.9057	0.1024	0.013
Mof_C 	C 	0.79417	0.90189	0.07273	-0.052
Mof_C 	C 	0.78951	0.89183	0.05437	0.01
Mof_H 	H 	0.7981	0.8934	0.0424	0.037
Mof_C 	C 	0.77202	0.87938	0.05383	-0.1
Mof_H 	H 	0.7676	0.8733	0.0411	0.066
Mof_C 	C 	0.76099	0.87578	0.07171	0.058
Mof_H 	H 	0.7496	0.8663	0.0712	0.001
Mof_C 	C 	0.85151	0.031	0.15658	0.098
Mof_C 	C 	0.83516	0.98327	0.14067	0.065
Mof_H 	H 	0.836	0.9936	0.1512	-0.003
Mof_C 	C 	0.8183	0.97041	0.14077	-0.107
Mof_H 	H 	0.8082	0.9713	0.1515	0.068
Mof_C 	C 	0.81624	0.95611	0.12495	0.014
Mof_H 	H 	0.8047	0.9469	0.1245	0.035
Mof_C 	C 	0.83154	0.95546	0.10954	-0.055
Mof_C 	C 	0.84801	0.96885	0.11115	0.043
Mof_H 	H 	0.8582	0.9685	0.1005	0.013
Mof_C 	C 	0.83004	0.94017	0.09207	0.142
Mof_C 	C 	0.84503	0.9243	0.06478	0.136
Mof_C 	C 	0.81253	0.91537	0.07474	0.139
Mof_C 	C 	0.86283	0.90341	0.03764	0.048
Mof_H 	H 	0.851	0.8946	0.0374	0.009
Mof_C 	C 	0.86298	0.92038	0.05177	-0.058
Mof_C 	C 	0.88086	0.93212	0.05276	0.018
Mof_H 	H 	0.8819	0.9433	0.0623	0.035
Mof_C 	C 	0.89724	0.92751	0.03981	-0.11
Mof_H 	H 	0.9098	0.9352	0.0404	0.071
Mof_C 	C 	0.89493	0.91138	0.02587	0.069
Mof_H 	H 	0.906	0.9088	0.0164	-0.002
Mof_C 	C 	0.82552	0.8781	0.9989	0.108
Mof_C 	C 	0.8878	0.83252	0.98247	0.052
Mof_H 	H 	0.8979	0.8335	0.9932	0.003
Mof_C 	C 	0.88726	0.81521	0.97106	-0.096
Mof_H 	H 	0.8972	0.8045	0.9733	0.066
Mof_C 	C 	0.87179	0.81295	0.95561	0.005
Mof_H 	H 	0.8707	0.8006	0.9476	0.039
Mof_C 	C 	0.85827	0.82958	0.95256	-0.053
Mof_C 	C 	0.86005	0.84696	0.96521	0.046
Mof_H 	H 	0.8503	0.8579	0.9634	0.011
Mof_C 	C 	0.84207	0.82861	0.93677	0.133
Mof_N 	N 	0.76561	0.8851	0.09003	-0.224
Mof_N 	N 	0.86325	0.02309	0.14535	-0.26
Mof_N 	N 	0.85068	0.98243	0.12672	-0.229
Mof_N 	N 	0.81309	0.92908	0.09057	-0.155
Mof_N 	N 	0.84658	0.93858	0.07977	-0.153
Mof_N 	N 	0.82774	0.91246	0.06151	-0.152
Mof_N 	N 	0.87827	0.89926	0.02488	-0.234
Mof_N 	N 	0.87452	0.84916	0.97967	-0.226
Mof_N 	N 	0.84297	0.87707	0.00102	-0.267
Mof_N 	N 	0.82751	0.84343	0.93687	-0.15
Mof_S 	S 	0.83435	0.04017	0.17257	-0.063
Mof_S 	S 	0.79975	0.87921	0.99641	-0.061
Mof_C 	C 	0.78178	0.39834	0.5899	0.037
Mof_H 	H 	0.7849	0.4057	0.6024	0.013
Mof_C 	C 	0.79417	0.40189	0.57273	-0.052
Mof_C 	C 	0.78951	0.39183	0.55437	0.01
Mof_H 	H 	0.7981	0.3934	0.5424	0.037
Mof_C 	C 	0.77202	0.37938	0.55383	-0.1
Mof_H 	H 	0.7676	0.3733	0.5411	0.066
Mof_C 	C 	0.76099	0.37578	0.57171	0.058
Mof_H 	H 	0.7496	0.3663	0.5712	0.001
Mof_C 	C 	0.85151	0.531	0.65658	0.098
Mof_C 	C 	0.83516	0.48327	0.64067	0.065
Mof_H 	H 	0.836	0.4936	0.6512	-0.003
Mof_C 	C 	0.8183	0.47041	0.64077	-0.107
Mof_H 	H 	0.8082	0.4713	0.6515	0.068
Mof_C 	C 	0.81624	0.45611	0.62495	0.014
Mof_H 	H 	0.8047	0.4469	0.6245	0.035
Mof_C 	C 	0.83154	0.45546	0.60954	-0.055
Mof_C 	C 	0.84801	0.46885	0.61115	0.043
Mof_H 	H 	0.8582	0.4685	0.6005	0.013
Mof_C 	C 	0.83004	0.44017	0.59207	0.142
Mof_C 	C 	0.84503	0.4243	0.56478	0.136
Mof_C 	C 	0.81253	0.41537	0.57474	0.139
Mof_C 	C 	0.86283	0.40341	0.53764	0.048
Mof_H 	H 	0.851	0.3946	0.5374	0.009
Mof_C 	C 	0.86298	0.42038	0.55177	-0.058
Mof_C 	C 	0.88086	0.43212	0.55276	0.018
Mof_H 	H 	0.8819	0.4433	0.5623	0.035
Mof_C 	C 	0.89724	0.42751	0.53981	-0.11
Mof_H 	H 	0.9098	0.4352	0.5404	0.071
Mof_C 	C 	0.89493	0.41138	0.52587	0.069
Mof_H 	H 	0.906	0.4088	0.5164	-0.002
Mof_C 	C 	0.82552	0.3781	0.4989	0.108
Mof_C 	C 	0.8878	0.33252	0.48247	0.052
Mof_H 	H 	0.8979	0.3335	0.4932	0.003
Mof_C 	C 	0.88726	0.31521	0.47106	-0.096
Mof_H 	H 	0.8972	0.3045	0.4733	0.066
Mof_C 	C 	0.87179	0.31295	0.45561	0.005
Mof_H 	H 	0.8707	0.3006	0.4476	0.039
Mof_C 	C 	0.85827	0.32958	0.45256	-0.053
Mof_C 	C 	0.86005	0.34696	0.46521	0.046
Mof_H 	H 	0.8503	0.3579	0.4634	0.011
Mof_C 	C 	0.84207	0.32861	0.43677	0.133
Mof_N 	N 	0.76561	0.3851	0.59003	-0.224
Mof_N 	N 	0.86325	0.52309	0.64535	-0.26
Mof_N 	N 	0.85068	0.48243	0.62672	-0.229
Mof_N 	N 	0.81309	0.42908	0.59057	-0.155
Mof_N 	N 	0.84658	0.43858	0.57977	-0.153
Mof_N 	N 	0.82774	0.41246	0.56151	-0.152
Mof_N 	N 	0.87827	0.39926	0.52488	-0.234
Mof_N 	N 	0.87452	0.34916	0.47967	-0.226
Mof_N 	N 	0.84297	0.37707	0.50102	-0.267
Mof_N 	N 	0.82751	0.34343	0.43687	-0.15
Mof_S 	S 	0.83435	0.54017	0.67257	-0.063
Mof_S 	S 	0.79975	0.37921	0.49641	-0.061
Mof_C 	C 	0.28178	0.89834	0.5899	0.037
Mof_H 	H 	0.2849	0.9057	0.6024	0.013
Mof_C 	C 	0.29417	0.90189	0.57273	-0.052
Mof_C 	C 	0.28951	0.89183	0.55437	0.01
Mof_H 	H 	0.2981	0.8934	0.5424	0.037
Mof_C 	C 	0.27202	0.87938	0.55383	-0.1
Mof_H 	H 	0.2676	0.8733	0.5411	0.066
Mof_C 	C 	0.26099	0.87578	0.57171	0.058
Mof_H 	H 	0.2496	0.8663	0.5712	0.001
Mof_C 	C 	0.35151	0.031	0.65658	0.098
Mof_C 	C 	0.33516	0.98327	0.64067	0.065
Mof_H 	H 	0.336	0.9936	0.6512	-0.003
Mof_C 	C 	0.3183	0.97041	0.64077	-0.107
Mof_H 	H 	0.3082	0.9713	0.6515	0.068
Mof_C 	C 	0.31624	0.95611	0.62495	0.014
Mof_H 	H 	0.3047	0.9469	0.6245	0.035
Mof_C 	C 	0.33154	0.95546	0.60954	-0.055
Mof_C 	C 	0.34801	0.96885	0.61115	0.043
Mof_H 	H 	0.3582	0.9685	0.6005	0.013
Mof_C 	C 	0.33004	0.94017	0.59207	0.142
Mof_C 	C 	0.34503	0.9243	0.56478	0.136
Mof_C 	C 	0.31253	0.91537	0.57474	0.139
Mof_C 	C 	0.36283	0.90341	0.53764	0.048
Mof_H 	H 	0.351	0.8946	0.5374	0.009
Mof_C 	C 	0.36298	0.92038	0.55177	-0.058
Mof_C 	C 	0.38086	0.93212	0.55276	0.018
Mof_H 	H 	0.3819	0.9433	0.5623	0.035
Mof_C 	C 	0.39724	0.92751	0.53981	-0.11
Mof_H 	H 	0.4098	0.9352	0.5404	0.071
Mof_C 	C 	0.39493	0.91138	0.52587	0.069
Mof_H 	H 	0.406	0.9088	0.5164	-0.002
Mof_C 	C 	0.32552	0.8781	0.4989	0.108
Mof_C 	C 	0.3878	0.83252	0.48247	0.052
Mof_H 	H 	0.3979	0.8335	0.4932	0.003
Mof_C 	C 	0.38726	0.81521	0.47106	-0.096
Mof_H 	H 	0.3972	0.8045	0.4733	0.066
Mof_C 	C 	0.37179	0.81295	0.45561	0.005
Mof_H 	H 	0.3707	0.8006	0.4476	0.039
Mof_C 	C 	0.35827	0.82958	0.45256	-0.053
Mof_C 	C 	0.36005	0.84696	0.46521	0.046
Mof_H 	H 	0.3503	0.8579	0.4634	0.011
Mof_C 	C 	0.34207	0.82861	0.43677	0.133
Mof_N 	N 	0.26561	0.8851	0.59003	-0.224
Mof_N 	N 	0.36325	0.02309	0.64535	-0.26
Mof_N 	N 	0.35068	0.98243	0.62672	-0.229
Mof_N 	N 	0.31309	0.92908	0.59057	-0.155
Mof_N 	N 	0.34658	0.93858	0.57977	-0.153
Mof_N 	N 	0.32774	0.91246	0.56151	-0.152
Mof_N 	N 	0.37827	0.89926	0.52488	-0.234
Mof_N 	N 	0.37452	0.84916	0.47967	-0.226
Mof_N 	N 	0.34297	0.87707	0.50102	-0.267
Mof_N 	N 	0.32751	0.84343	0.43687	-0.15
Mof_S 	S 	0.33435	0.04017	0.67257	-0.063
Mof_S 	S 	0.29975	0.87921	0.49641	-0.061
Mof_C 	C 	0.28178	0.39834	0.0899	0.037
Mof_H 	H 	0.2849	0.4057	0.1024	0.013
Mof_C 	C 	0.29417	0.40189	0.07273	-0.052
Mof_C 	C 	0.28951	0.39183	0.05437	0.01
Mof_H 	H 	0.2981	0.3934	0.0424	0.037
Mof_C 	C 	0.27202	0.37938	0.05383	-0.1
Mof_H 	H 	0.2676	0.3733	0.0411	0.066
Mof_C 	C 	0.26099	0.37578	0.07171	0.058
Mof_H 	H 	0.2496	0.3663	0.0712	0.001
Mof_C 	C 	0.35151	0.531	0.15658	0.098
Mof_C 	C 	0.33516	0.48327	0.14067	0.065
Mof_H 	H 	0.336	0.4936	0.1512	-0.003
Mof_C 	C 	0.3183	0.47041	0.14077	-0.107
Mof_H 	H 	0.3082	0.4713	0.1515	0.068
Mof_C 	C 	0.31624	0.45611	0.12495	0.014
Mof_H 	H 	0.3047	0.4469	0.1245	0.035
Mof_C 	C 	0.33154	0.45546	0.10954	-0.055
Mof_C 	C 	0.34801	0.46885	0.11115	0.043
Mof_H 	H 	0.3582	0.4685	0.1005	0.013
Mof_C 	C 	0.33004	0.44017	0.09207	0.142
Mof_C 	C 	0.34503	0.4243	0.06478	0.136
Mof_C 	C 	0.31253	0.41537	0.07474	0.139
Mof_C 	C 	0.36283	0.40341	0.03764	0.048
Mof_H 	H 	0.351	0.3946	0.0374	0.009
Mof_C 	C 	0.36298	0.42038	0.05177	-0.058
Mof_C 	C 	0.38086	0.43212	0.05276	0.018
Mof_H 	H 	0.3819	0.4433	0.0623	0.035
Mof_C 	C 	0.39724	0.42751	0.03981	-0.11
Mof_H 	H 	0.4098	0.4352	0.0404	0.071
Mof_C 	C 	0.39493	0.41138	0.02587	0.069
Mof_H 	H 	0.406	0.4088	0.0164	-0.002
Mof_C 	C 	0.32552	0.3781	0.9989	0.108
Mof_C 	C 	0.3878	0.33252	0.98247	0.052
Mof_H 	H 	0.3979	0.3335	0.9932	0.003
Mof_C 	C 	0.38726	0.31521	0.97106	-0.096
Mof_H 	H 	0.3972	0.3045	0.9733	0.066
Mof_C 	C 	0.37179	0.31295	0.95561	0.005
Mof_H 	H 	0.3707	0.3006	0.9476	0.039
Mof_C 	C 	0.35827	0.32958	0.95256	-0.053
Mof_C 	C 	0.36005	0.34696	0.96521	0.046
Mof_H 	H 	0.3503	0.3579	0.9634	0.011
Mof_C 	C 	0.34207	0.32861	0.93677	0.133
Mof_N 	N 	0.26561	0.3851	0.09003	-0.224
Mof_N 	N 	0.36325	0.52309	0.14535	-0.26
Mof_N 	N 	0.35068	0.48243	0.12672	-0.229
Mof_N 	N 	0.31309	0.42908	0.09057	-0.155
Mof_N 	N 	0.34658	0.43858	0.07977	-0.153
Mof_N 	N 	0.32774	0.41246	0.06151	-0.152
Mof_N 	N 	0.37827	0.39926	0.02488	-0.234
Mof_N 	N 	0.37452	0.34916	0.97967	-0.226
Mof_N 	N 	0.34297	0.37707	0.00102	-0.267
Mof_N 	N 	0.32751	0.34343	0.93687	-0.15
Mof_S 	S 	0.33435	0.54017	0.17257	-0.063
Mof_S 	S 	0.29975	0.37921	0.99641	-0.061
Mof_C 	C 	0.85166	0.5899	0.46822	0.037
Mof_H 	H 	0.8443	0.6024	0.4651	0.013
Mof_C 	C 	0.84811	0.57273	0.45583	-0.052
Mof_C 	C 	0.85817	0.55437	0.46049	0.01
Mof_H 	H 	0.8566	0.5424	0.4519	0.037
Mof_C 	C 	0.87062	0.55383	0.47798	-0.1
Mof_H 	H 	0.8767	0.5411	0.4824	0.066
Mof_C 	C 	0.87422	0.57171	0.48901	0.058
Mof_H 	H 	0.8837	0.5712	0.5004	0.001
Mof_C 	C 	0.719	0.65658	0.39849	0.098
Mof_C 	C 	0.76673	0.64067	0.41484	0.065
Mof_H 	H 	0.7564	0.6512	0.414	-0.003
Mof_C 	C 	0.77959	0.64077	0.4317	-0.107
Mof_H 	H 	0.7787	0.6515	0.4418	0.068
Mof_C 	C 	0.79389	0.62495	0.43376	0.014
Mof_H 	H 	0.8031	0.6245	0.4453	0.035
Mof_C 	C 	0.79454	0.60954	0.41846	-0.055
Mof_C 	C 	0.78115	0.61115	0.40199	0.043
Mof_H 	H 	0.7815	0.6005	0.3918	0.013
Mof_C 	C 	0.80983	0.59207	0.41996	0.142
Mof_C 	C 	0.8257	0.56478	0.40497	0.136
Mof_C 	C 	0.83463	0.57474	0.43747	0.139
Mof_C 	C 	0.84659	0.53764	0.38717	0.048
Mof_H 	H 	0.8554	0.5374	0.399	0.009
Mof_C 	C 	0.82962	0.55177	0.38702	-0.058
Mof_C 	C 	0.81788	0.55276	0.36914	0.018
Mof_H 	H 	0.8067	0.5623	0.3681	0.035
Mof_C 	C 	0.82249	0.53981	0.35276	-0.11
Mof_H 	H 	0.8148	0.5404	0.3402	0.071
Mof_C 	C 	0.83862	0.52587	0.35507	0.069
Mof_H 	H 	0.8412	0.5164	0.344	-0.002
Mof_C 	C 	0.8719	0.4989	0.42448	0.108
Mof_C 	C 	0.91748	0.48247	0.3622	0.052
Mof_H 	H 	0.9165	0.4932	0.3521	0.003
Mof_C 	C 	0.93479	0.47106	0.36274	-0.096
Mof_H 	H 	0.9455	0.4733	0.3528	0.066
Mof_C 	C 	0.93705	0.45561	0.37821	0.005
Mof_H 	H 	0.9494	0.4476	0.3793	0.039
Mof_C 	C 	0.92042	0.45256	0.39173	-0.053
Mof_C 	C 	0.90304	0.46521	0.38995	0.046
Mof_H 	H 	0.8921	0.4634	0.3997	0.011
Mof_C 	C 	0.92139	0.43677	0.40793	0.133
Mof_N 	N 	0.8649	0.59003	0.48439	-0.224
Mof_N 	N 	0.72691	0.64535	0.38675	-0.26
Mof_N 	N 	0.76757	0.62672	0.39932	-0.229
Mof_N 	N 	0.82092	0.59057	0.43691	-0.155
Mof_N 	N 	0.81142	0.57977	0.40342	-0.153
Mof_N 	N 	0.83754	0.56151	0.42226	-0.152
Mof_N 	N 	0.85074	0.52488	0.37173	-0.234
Mof_N 	N 	0.90084	0.47967	0.37548	-0.226
Mof_N 	N 	0.87293	0.50102	0.40703	-0.267
Mof_N 	N 	0.90657	0.43687	0.42249	-0.15
Mof_S 	S 	0.70983	0.67257	0.41565	-0.063
Mof_S 	S 	0.87079	0.49641	0.45025	-0.061
Mof_C 	C 	0.85166	0.0899	0.96822	0.038
Mof_H 	H 	0.8443	0.1024	0.9651	0.013
Mof_C 	C 	0.84811	0.07273	0.95583	-0.052
Mof_C 	C 	0.85817	0.05437	0.96049	0.01
Mof_H 	H 	0.8566	0.0424	0.9519	0.037
Mof_C 	C 	0.87062	0.05383	0.97798	-0.1
Mof_H 	H 	0.8767	0.0411	0.9824	0.066
Mof_C 	C 	0.87422	0.07171	0.98901	0.059
Mof_H 	H 	0.8837	0.0712	0.0004	0.001
Mof_C 	C 	0.719	0.15658	0.89849	0.098
Mof_C 	C 	0.76673	0.14067	0.91484	0.065
Mof_H 	H 	0.7564	0.1512	0.914	-0.003
Mof_C 	C 	0.77959	0.14077	0.9317	-0.107
Mof_H 	H 	0.7787	0.1515	0.9418	0.068
Mof_C 	C 	0.79389	0.12495	0.93376	0.014
Mof_H 	H 	0.8031	0.1245	0.9453	0.035
Mof_C 	C 	0.79454	0.10954	0.91846	-0.055
Mof_C 	C 	0.78115	0.11115	0.90199	0.043
Mof_H 	H 	0.7815	0.1005	0.8918	0.013
Mof_C 	C 	0.80983	0.09207	0.91996	0.142
Mof_C 	C 	0.8257	0.06478	0.90497	0.136
Mof_C 	C 	0.83463	0.07474	0.93747	0.139
Mof_C 	C 	0.84659	0.03764	0.88717	0.048
Mof_H 	H 	0.8554	0.0374	0.899	0.009
Mof_C 	C 	0.82962	0.05177	0.88702	-0.058
Mof_C 	C 	0.81788	0.05276	0.86914	0.018
Mof_H 	H 	0.8067	0.0623	0.8681	0.035
Mof_C 	C 	0.82249	0.03981	0.85276	-0.11
Mof_H 	H 	0.8148	0.0404	0.8402	0.071
Mof_C 	C 	0.83862	0.02587	0.85507	0.069
Mof_H 	H 	0.8412	0.0164	0.844	-0.002
Mof_C 	C 	0.8719	0.9989	0.92448	0.108
Mof_C 	C 	0.91748	0.98247	0.8622	0.052
Mof_H 	H 	0.9165	0.9932	0.8521	0.003
Mof_C 	C 	0.93479	0.97106	0.86274	-0.096
Mof_H 	H 	0.9455	0.9733	0.8528	0.066
Mof_C 	C 	0.93705	0.95561	0.87821	0.005
Mof_H 	H 	0.9494	0.9476	0.8793	0.039
Mof_C 	C 	0.92042	0.95256	0.89173	-0.053
Mof_C 	C 	0.90304	0.96521	0.88995	0.046
Mof_H 	H 	0.8921	0.9634	0.8997	0.011
Mof_C 	C 	0.92139	0.93677	0.90793	0.133
Mof_N 	N 	0.8649	0.09003	0.98439	-0.224
Mof_N 	N 	0.72691	0.14535	0.88675	-0.26
Mof_N 	N 	0.76757	0.12672	0.89932	-0.229
Mof_N 	N 	0.82092	0.09057	0.93691	-0.155
Mof_N 	N 	0.81142	0.07977	0.90342	-0.153
Mof_N 	N 	0.83754	0.06151	0.92226	-0.152
Mof_N 	N 	0.85074	0.02488	0.87173	-0.234
Mof_N 	N 	0.90084	0.97967	0.87548	-0.226
Mof_N 	N 	0.87293	0.00102	0.90703	-0.267
Mof_N 	N 	0.90657	0.93687	0.92249	-0.15
Mof_S 	S 	0.70983	0.17257	0.91565	-0.063
Mof_S 	S 	0.87079	0.99641	0.95025	-0.061
Mof_C 	C 	0.35166	0.5899	0.96822	0.038
Mof_H 	H 	0.3443	0.6024	0.9651	0.013
Mof_C 	C 	0.34811	0.57273	0.95583	-0.052
Mof_C 	C 	0.35817	0.55437	0.96049	0.01
Mof_H 	H 	0.3566	0.5424	0.9519	0.037
Mof_C 	C 	0.37062	0.55383	0.97798	-0.1
Mof_H 	H 	0.3767	0.5411	0.9824	0.066
Mof_C 	C 	0.37422	0.57171	0.98901	0.059
Mof_H 	H 	0.3837	0.5712	0.0004	0.001
Mof_C 	C 	0.219	0.65658	0.89849	0.098
Mof_C 	C 	0.26673	0.64067	0.91484	0.065
Mof_H 	H 	0.2564	0.6512	0.914	-0.003
Mof_C 	C 	0.27959	0.64077	0.9317	-0.107
Mof_H 	H 	0.2787	0.6515	0.9418	0.068
Mof_C 	C 	0.29389	0.62495	0.93376	0.014
Mof_H 	H 	0.3031	0.6245	0.9453	0.035
Mof_C 	C 	0.29454	0.60954	0.91846	-0.055
Mof_C 	C 	0.28115	0.61115	0.90199	0.043
Mof_H 	H 	0.2815	0.6005	0.8918	0.013
Mof_C 	C 	0.30983	0.59207	0.91996	0.142
Mof_C 	C 	0.3257	0.56478	0.90497	0.136
Mof_C 	C 	0.33463	0.57474	0.93747	0.139
Mof_C 	C 	0.34659	0.53764	0.88717	0.048
Mof_H 	H 	0.3554	0.5374	0.899	0.009
Mof_C 	C 	0.32962	0.55177	0.88702	-0.058
Mof_C 	C 	0.31788	0.55276	0.86914	0.018
Mof_H 	H 	0.3067	0.5623	0.8681	0.035
Mof_C 	C 	0.32249	0.53981	0.85276	-0.11
Mof_H 	H 	0.3148	0.5404	0.8402	0.071
Mof_C 	C 	0.33862	0.52587	0.85507	0.069
Mof_H 	H 	0.3412	0.5164	0.844	-0.002
Mof_C 	C 	0.3719	0.4989	0.92448	0.108
Mof_C 	C 	0.41748	0.48247	0.8622	0.052
Mof_H 	H 	0.4165	0.4932	0.8521	0.003
Mof_C 	C 	0.43479	0.47106	0.86274	-0.096
Mof_H 	H 	0.4455	0.4733	0.8528	0.066
Mof_C 	C 	0.43705	0.45561	0.87821	0.005
Mof_H 	H 	0.4494	0.4476	0.8793	0.039
Mof_C 	C 	0.42042	0.45256	0.89173	-0.053
Mof_C 	C 	0.40304	0.46521	0.88995	0.046
Mof_H 	H 	0.3921	0.4634	0.8997	0.011
Mof_C 	C 	0.42139	0.43677	0.90793	0.133
Mof_N 	N 	0.3649	0.59003	0.98439	-0.224
Mof_N 	N 	0.22691	0.64535	0.88675	-0.26
Mof_N 	N 	0.26757	0.62672	0.89932	-0.229
Mof_N 	N 	0.32092	0.59057	0.93691	-0.155
Mof_N 	N 	0.31142	0.57977	0.90342	-0.153
Mof_N 	N 	0.33754	0.56151	0.92226	-0.152
Mof_N 	N 	0.35074	0.52488	0.87173	-0.234
Mof_N 	N 	0.40084	0.47967	0.87548	-0.226
Mof_N 	N 	0.37293	0.50102	0.90703	-0.267
Mof_N 	N 	0.40657	0.43687	0.92249	-0.15
Mof_S 	S 	0.20983	0.67257	0.91565	-0.063
Mof_S 	S 	0.37079	0.49641	0.95025	-0.061
Mof_C 	C 	0.35166	0.0899	0.46822	0.037
Mof_H 	H 	0.3443	0.1024	0.4651	0.013
Mof_C 	C 	0.34811	0.07273	0.45583	-0.052
Mof_C 	C 	0.35817	0.05437	0.46049	0.01
Mof_H 	H 	0.3566	0.0424	0.4519	0.037
Mof_C 	C 	0.37062	0.05383	0.47798	-0.1
Mof_H 	H 	0.3767	0.0411	0.4824	0.066
Mof_C 	C 	0.37422	0.07171	0.48901	0.058
Mof_H 	H 	0.3837	0.0712	0.5004	0.001
Mof_C 	C 	0.219	0.15658	0.39849	0.098
Mof_C 	C 	0.26673	0.14067	0.41484	0.065
Mof_H 	H 	0.2564	0.1512	0.414	-0.003
Mof_C 	C 	0.27959	0.14077	0.4317	-0.107
Mof_H 	H 	0.2787	0.1515	0.4418	0.068
Mof_C 	C 	0.29389	0.12495	0.43376	0.014
Mof_H 	H 	0.3031	0.1245	0.4453	0.035
Mof_C 	C 	0.29454	0.10954	0.41846	-0.055
Mof_C 	C 	0.28115	0.11115	0.40199	0.043
Mof_H 	H 	0.2815	0.1005	0.3918	0.013
Mof_C 	C 	0.30983	0.09207	0.41996	0.142
Mof_C 	C 	0.3257	0.06478	0.40497	0.136
Mof_C 	C 	0.33463	0.07474	0.43747	0.139
Mof_C 	C 	0.34659	0.03764	0.38717	0.048
Mof_H 	H 	0.3554	0.0374	0.399	0.009
Mof_C 	C 	0.32962	0.05177	0.38702	-0.058
Mof_C 	C 	0.31788	0.05276	0.36914	0.018
Mof_H 	H 	0.3067	0.0623	0.3681	0.035
Mof_C 	C 	0.32249	0.03981	0.35276	-0.11
Mof_H 	H 	0.3148	0.0404	0.3402	0.071
Mof_C 	C 	0.33862	0.02587	0.35507	0.069
Mof_H 	H 	0.3412	0.0164	0.344	-0.002
Mof_C 	C 	0.3719	0.9989	0.42448	0.108
Mof_C 	C 	0.41748	0.98247	0.3622	0.052
Mof_H 	H 	0.4165	0.9932	0.3521	0.003
Mof_C 	C 	0.43479	0.97106	0.36274	-0.096
Mof_H 	H 	0.4455	0.9733	0.3528	0.066
Mof_C 	C 	0.43705	0.95561	0.37821	0.005
Mof_H 	H 	0.4494	0.9476	0.3793	0.039
Mof_C 	C 	0.42042	0.95256	0.39173	-0.053
Mof_C 	C 	0.40304	0.96521	0.38995	0.046
Mof_H 	H 	0.3921	0.9634	0.3997	0.011
Mof_C 	C 	0.42139	0.93677	0.40793	0.133
Mof_N 	N 	0.3649	0.09003	0.48439	-0.224
Mof_N 	N 	0.22691	0.14535	0.38675	-0.26
Mof_N 	N 	0.26757	0.12672	0.39932	-0.229
Mof_N 	N 	0.32092	0.09057	0.43691	-0.155
Mof_N 	N 	0.31142	0.07977	0.40342	-0.153
Mof_N 	N 	0.33754	0.06151	0.42226	-0.152
Mof_N 	N 	0.35074	0.02488	0.37173	-0.234
Mof_N 	N 	0.40084	0.97967	0.37548	-0.226
Mof_N 	N 	0.37293	0.00102	0.40703	-0.267
Mof_N 	N 	0.40657	0.93687	0.42249	-0.15
Mof_S 	S 	0.20983	0.17257	0.41565	-0.063
Mof_S 	S 	0.37079	0.99641	0.45025	-0.061
Mof_C 	C 	0.35166	0.6601	0.28178	0.037
Mof_H 	H 	0.3443	0.6476	0.2849	0.013
Mof_C 	C 	0.34811	0.67727	0.29417	-0.052
Mof_C 	C 	0.35817	0.69563	0.28951	0.01
Mof_H 	H 	0.3566	0.7076	0.2981	0.037
Mof_C 	C 	0.37062	0.69617	0.27202	-0.1
Mof_H 	H 	0.3767	0.7089	0.2676	0.066
Mof_C 	C 	0.37422	0.67829	0.26099	0.058
Mof_H 	H 	0.3837	0.6788	0.2496	0.001
Mof_C 	C 	0.219	0.59342	0.35151	0.098
Mof_C 	C 	0.26673	0.60933	0.33516	0.065
Mof_H 	H 	0.2564	0.5988	0.336	-0.003
Mof_C 	C 	0.27959	0.60923	0.3183	-0.107
Mof_H 	H 	0.2787	0.5985	0.3082	0.068
Mof_C 	C 	0.29389	0.62505	0.31624	0.014
Mof_H 	H 	0.3031	0.6255	0.3047	0.035
Mof_C 	C 	0.29454	0.64046	0.33154	-0.055
Mof_C 	C 	0.28115	0.63885	0.34801	0.043
Mof_H 	H 	0.2815	0.6495	0.3582	0.013
Mof_C 	C 	0.30983	0.65793	0.33004	0.142
Mof_C 	C 	0.3257	0.68522	0.34503	0.136
Mof_C 	C 	0.33463	0.67526	0.31253	0.139
Mof_C 	C 	0.34659	0.71236	0.36283	0.048
Mof_H 	H 	0.3554	0.7126	0.351	0.009
Mof_C 	C 	0.32962	0.69823	0.36298	-0.058
Mof_C 	C 	0.31788	0.69724	0.38086	0.018
Mof_H 	H 	0.3067	0.6877	0.3819	0.035
Mof_C 	C 	0.32249	0.71019	0.39724	-0.11
Mof_H 	H 	0.3148	0.7096	0.4098	0.071
Mof_C 	C 	0.33862	0.72413	0.39493	0.069
Mof_H 	H 	0.3412	0.7336	0.406	-0.002
Mof_C 	C 	0.3719	0.7511	0.32552	0.108
Mof_C 	C 	0.41748	0.76753	0.3878	0.052
Mof_H 	H 	0.4165	0.7568	0.3979	0.003
Mof_C 	C 	0.43479	0.77894	0.38726	-0.096
Mof_H 	H 	0.4455	0.7767	0.3972	0.066
Mof_C 	C 	0.43705	0.79439	0.37179	0.005
Mof_H 	H 	0.4494	0.8024	0.3707	0.039
Mof_C 	C 	0.42042	0.79744	0.35827	-0.053
Mof_C 	C 	0.40304	0.78479	0.36005	0.046
Mof_H 	H 	0.3921	0.7866	0.3503	0.011
Mof_C 	C 	0.42139	0.81323	0.34207	0.133
Mof_N 	N 	0.3649	0.65997	0.26561	-0.224
Mof_N 	N 	0.22691	0.60465	0.36325	-0.26
Mof_N 	N 	0.26757	0.62328	0.35068	-0.229
Mof_N 	N 	0.32092	0.65943	0.31309	-0.155
Mof_N 	N 	0.31142	0.67023	0.34658	-0.153
Mof_N 	N 	0.33754	0.68849	0.32774	-0.152
Mof_N 	N 	0.35074	0.72512	0.37827	-0.234
Mof_N 	N 	0.40084	0.77033	0.37452	-0.226
Mof_N 	N 	0.37293	0.74898	0.34297	-0.267
Mof_N 	N 	0.40657	0.81313	0.32751	-0.15
Mof_S 	S 	0.20983	0.57743	0.33435	-0.063
Mof_S 	S 	0.37079	0.75359	0.29975	-0.061
Mof_C 	C 	0.35166	0.1601	0.78178	0.037
Mof_H 	H 	0.3443	0.1476	0.7849	0.013
Mof_C 	C 	0.34811	0.17727	0.79417	-0.052
Mof_C 	C 	0.35817	0.19563	0.78951	0.01
Mof_H 	H 	0.3566	0.2076	0.7981	0.037
Mof_C 	C 	0.37062	0.19617	0.77202	-0.1
Mof_H 	H 	0.3767	0.2089	0.7676	0.066
Mof_C 	C 	0.37422	0.17829	0.76099	0.058
Mof_H 	H 	0.3837	0.1788	0.7496	0.001
Mof_C 	C 	0.219	0.09342	0.85151	0.098
Mof_C 	C 	0.26673	0.10933	0.83516	0.065
Mof_H 	H 	0.2564	0.0988	0.836	-0.003
Mof_C 	C 	0.27959	0.10923	0.8183	-0.107
Mof_H 	H 	0.2787	0.0985	0.8082	0.068
Mof_C 	C 	0.29389	0.12505	0.81624	0.014
Mof_H 	H 	0.3031	0.1255	0.8047	0.035
Mof_C 	C 	0.29454	0.14046	0.83154	-0.055
Mof_C 	C 	0.28115	0.13885	0.84801	0.043
Mof_H 	H 	0.2815	0.1495	0.8582	0.013
Mof_C 	C 	0.30983	0.15793	0.83004	0.142
Mof_C 	C 	0.3257	0.18522	0.84503	0.136
Mof_C 	C 	0.33463	0.17526	0.81253	0.139
Mof_C 	C 	0.34659	0.21236	0.86283	0.048
Mof_H 	H 	0.3554	0.2126	0.851	0.009
Mof_C 	C 	0.32962	0.19823	0.86298	-0.058
Mof_C 	C 	0.31788	0.19724	0.88086	0.018
Mof_H 	H 	0.3067	0.1877	0.8819	0.035
Mof_C 	C 	0.32249	0.21019	0.89724	-0.11
Mof_H 	H 	0.3148	0.2096	0.9098	0.071
Mof_C 	C 	0.33862	0.22413	0.89493	0.069
Mof_H 	H 	0.3412	0.2336	0.906	-0.002
Mof_C 	C 	0.3719	0.2511	0.82552	0.108
Mof_C 	C 	0.41748	0.26753	0.8878	0.052
Mof_H 	H 	0.4165	0.2568	0.8979	0.003
Mof_C 	C 	0.43479	0.27894	0.88726	-0.096
Mof_H 	H 	0.4455	0.2767	0.8972	0.066
Mof_C 	C 	0.43705	0.29439	0.87179	0.005
Mof_H 	H 	0.4494	0.3024	0.8707	0.039
Mof_C 	C 	0.42042	0.29744	0.85827	-0.053
Mof_C 	C 	0.40304	0.28479	0.86005	0.046
Mof_H 	H 	0.3921	0.2866	0.8503	0.011
Mof_C 	C 	0.42139	0.31323	0.84207	0.133
Mof_N 	N 	0.3649	0.15997	0.76561	-0.224
Mof_N 	N 	0.22691	0.10465	0.86325	-0.26
Mof_N 	N 	0.26757	0.12328	0.85068	-0.229
Mof_N 	N 	0.32092	0.15943	0.81309	-0.155
Mof_N 	N 	0.31142	0.17023	0.84658	-0.153
Mof_N 	N 	0.33754	0.18849	0.82774	-0.152
Mof_N 	N 	0.35074	0.22512	0.87827	-0.234
Mof_N 	N 	0.40084	0.27033	0.87452	-0.226
Mof_N 	N 	0.37293	0.24898	0.84297	-0.267
Mof_N 	N 	0.40657	0.31313	0.82751	-0.15
Mof_S 	S 	0.20983	0.07743	0.83435	-0.063
Mof_S 	S 	0.37079	0.25359	0.79975	-0.061
Mof_C 	C 	0.85166	0.6601	0.78178	0.037
Mof_H 	H 	0.8443	0.6476	0.7849	0.013
Mof_C 	C 	0.84811	0.67727	0.79417	-0.052
Mof_C 	C 	0.85817	0.69563	0.78951	0.01
Mof_H 	H 	0.8566	0.7076	0.7981	0.037
Mof_C 	C 	0.87062	0.69617	0.77202	-0.1
Mof_H 	H 	0.8767	0.7089	0.7676	0.066
Mof_C 	C 	0.87422	0.67829	0.76099	0.058
Mof_H 	H 	0.8837	0.6788	0.7496	0.001
Mof_C 	C 	0.719	0.59342	0.85151	0.098
Mof_C 	C 	0.76673	0.60933	0.83516	0.065
Mof_H 	H 	0.7564	0.5988	0.836	-0.003
Mof_C 	C 	0.77959	0.60923	0.8183	-0.107
Mof_H 	H 	0.7787	0.5985	0.8082	0.068
Mof_C 	C 	0.79389	0.62505	0.81624	0.014
Mof_H 	H 	0.8031	0.6255	0.8047	0.035
Mof_C 	C 	0.79454	0.64046	0.83154	-0.055
Mof_C 	C 	0.78115	0.63885	0.84801	0.043
Mof_H 	H 	0.7815	0.6495	0.8582	0.013
Mof_C 	C 	0.80983	0.65793	0.83004	0.142
Mof_C 	C 	0.8257	0.68522	0.84503	0.136
Mof_C 	C 	0.83463	0.67526	0.81253	0.139
Mof_C 	C 	0.84659	0.71236	0.86283	0.048
Mof_H 	H 	0.8554	0.7126	0.851	0.009
Mof_C 	C 	0.82962	0.69823	0.86298	-0.058
Mof_C 	C 	0.81788	0.69724	0.88086	0.018
Mof_H 	H 	0.8067	0.6877	0.8819	0.035
Mof_C 	C 	0.82249	0.71019	0.89724	-0.11
Mof_H 	H 	0.8148	0.7096	0.9098	0.071
Mof_C 	C 	0.83862	0.72413	0.89493	0.069
Mof_H 	H 	0.8412	0.7336	0.906	-0.002
Mof_C 	C 	0.8719	0.7511	0.82552	0.108
Mof_C 	C 	0.91748	0.76753	0.8878	0.052
Mof_H 	H 	0.9165	0.7568	0.8979	0.003
Mof_C 	C 	0.93479	0.77894	0.88726	-0.096
Mof_H 	H 	0.9455	0.7767	0.8972	0.066
Mof_C 	C 	0.93705	0.79439	0.87179	0.005
Mof_H 	H 	0.9494	0.8024	0.8707	0.039
Mof_C 	C 	0.92042	0.79744	0.85827	-0.053
Mof_C 	C 	0.90304	0.78479	0.86005	0.046
Mof_H 	H 	0.8921	0.7866	0.8503	0.011
Mof_C 	C 	0.92139	0.81323	0.84207	0.133
Mof_N 	N 	0.8649	0.65997	0.76561	-0.224
Mof_N 	N 	0.72691	0.60465	0.86325	-0.26
Mof_N 	N 	0.76757	0.62328	0.85068	-0.229
Mof_N 	N 	0.82092	0.65943	0.81309	-0.155
Mof_N 	N 	0.81142	0.67023	0.84658	-0.153
Mof_N 	N 	0.83754	0.68849	0.82774	-0.152
Mof_N 	N 	0.85074	0.72512	0.87827	-0.234
Mof_N 	N 	0.90084	0.77033	0.87452	-0.226
Mof_N 	N 	0.87293	0.74898	0.84297	-0.267
Mof_N 	N 	0.90657	0.81313	0.82751	-0.15
Mof_S 	S 	0.70983	0.57743	0.83435	-0.063
Mof_S 	S 	0.87079	0.75359	0.79975	-0.061
Mof_C 	C 	0.85166	0.1601	0.28178	0.037
Mof_H 	H 	0.8443	0.1476	0.2849	0.013
Mof_C 	C 	0.84811	0.17727	0.29417	-0.052
Mof_C 	C 	0.85817	0.19563	0.28951	0.01
Mof_H 	H 	0.8566	0.2076	0.2981	0.037
Mof_C 	C 	0.87062	0.19617	0.27202	-0.1
Mof_H 	H 	0.8767	0.2089	0.2676	0.066
Mof_C 	C 	0.87422	0.17829	0.26099	0.058
Mof_H 	H 	0.8837	0.1788	0.2496	0.001
Mof_C 	C 	0.719	0.09342	0.35151	0.098
Mof_C 	C 	0.76673	0.10933	0.33516	0.065
Mof_H 	H 	0.7564	0.0988	0.336	-0.003
Mof_C 	C 	0.77959	0.10923	0.3183	-0.107
Mof_H 	H 	0.7787	0.0985	0.3082	0.068
Mof_C 	C 	0.79389	0.12505	0.31624	0.014
Mof_H 	H 	0.8031	0.1255	0.3047	0.035
Mof_C 	C 	0.79454	0.14046	0.33154	-0.055
Mof_C 	C 	0.78115	0.13885	0.34801	0.043
Mof_H 	H 	0.7815	0.1495	0.3582	0.013
Mof_C 	C 	0.80983	0.15793	0.33004	0.142
Mof_C 	C 	0.8257	0.18522	0.34503	0.136
Mof_C 	C 	0.83463	0.17526	0.31253	0.139
Mof_C 	C 	0.84659	0.21236	0.36283	0.048
Mof_H 	H 	0.8554	0.2126	0.351	0.009
Mof_C 	C 	0.82962	0.19823	0.36298	-0.058
Mof_C 	C 	0.81788	0.19724	0.38086	0.018
Mof_H 	H 	0.8067	0.1877	0.3819	0.035
Mof_C 	C 	0.82249	0.21019	0.39724	-0.11
Mof_H 	H 	0.8148	0.2096	0.4098	0.071
Mof_C 	C 	0.83862	0.22413	0.39493	0.069
Mof_H 	H 	0.8412	0.2336	0.406	-0.002
Mof_C 	C 	0.8719	0.2511	0.32552	0.108
Mof_C 	C 	0.91748	0.26753	0.3878	0.052
Mof_H 	H 	0.9165	0.2568	0.3979	0.003
Mof_C 	C 	0.93479	0.27894	0.38726	-0.096
Mof_H 	H 	0.9455	0.2767	0.3972	0.066
Mof_C 	C 	0.93705	0.29439	0.37179	0.005
Mof_H 	H 	0.9494	0.3024	0.3707	0.039
Mof_C 	C 	0.92042	0.29744	0.35827	-0.053
Mof_C 	C 	0.90304	0.28479	0.36005	0.046
Mof_H 	H 	0.8921	0.2866	0.3503	0.011
Mof_C 	C 	0.92139	0.31323	0.34207	0.133
Mof_N 	N 	0.8649	0.15997	0.26561	-0.224
Mof_N 	N 	0.72691	0.10465	0.36325	-0.26
Mof_N 	N 	0.76757	0.12328	0.35068	-0.229
Mof_N 	N 	0.82092	0.15943	0.31309	-0.155
Mof_N 	N 	0.81142	0.17023	0.34658	-0.153
Mof_N 	N 	0.83754	0.18849	0.32774	-0.152
Mof_N 	N 	0.85074	0.22512	0.37827	-0.234
Mof_N 	N 	0.90084	0.27033	0.37452	-0.226
Mof_N 	N 	0.87293	0.24898	0.34297	-0.267
Mof_N 	N 	0.90657	0.31313	0.32751	-0.15
Mof_S 	S 	0.70983	0.07743	0.33435	-0.063
Mof_S 	S 	0.87079	0.25359	0.29975	-0.061
Mof_C 	C 	0.89834	0.0899	0.78178	0.037
Mof_H 	H 	0.9057	0.1024	0.7849	0.013
Mof_C 	C 	0.90189	0.07273	0.79417	-0.052
Mof_C 	C 	0.89183	0.05437	0.78951	0.01
Mof_H 	H 	0.8934	0.0424	0.7981	0.037
Mof_C 	C 	0.87938	0.05383	0.77202	-0.1
Mof_H 	H 	0.8733	0.0411	0.7676	0.066
Mof_C 	C 	0.87578	0.07171	0.76099	0.058
Mof_H 	H 	0.8663	0.0712	0.7496	0.001
Mof_C 	C 	0.031	0.15658	0.85151	0.098
Mof_C 	C 	0.98327	0.14067	0.83516	0.065
Mof_H 	H 	0.9936	0.1512	0.836	-0.003
Mof_C 	C 	0.97041	0.14077	0.8183	-0.107
Mof_H 	H 	0.9713	0.1515	0.8082	0.068
Mof_C 	C 	0.95611	0.12495	0.81624	0.014
Mof_H 	H 	0.9469	0.1245	0.8047	0.035
Mof_C 	C 	0.95546	0.10954	0.83154	-0.055
Mof_C 	C 	0.96885	0.11115	0.84801	0.043
Mof_H 	H 	0.9685	0.1005	0.8582	0.013
Mof_C 	C 	0.94017	0.09207	0.83004	0.142
Mof_C 	C 	0.9243	0.06478	0.84503	0.136
Mof_C 	C 	0.91537	0.07474	0.81253	0.139
Mof_C 	C 	0.90341	0.03764	0.86283	0.048
Mof_H 	H 	0.8946	0.0374	0.851	0.009
Mof_C 	C 	0.92038	0.05177	0.86298	-0.058
Mof_C 	C 	0.93212	0.05276	0.88086	0.018
Mof_H 	H 	0.9433	0.0623	0.8819	0.035
Mof_C 	C 	0.92751	0.03981	0.89724	-0.11
Mof_H 	H 	0.9352	0.0404	0.9098	0.071
Mof_C 	C 	0.91138	0.02587	0.89493	0.069
Mof_H 	H 	0.9088	0.0164	0.906	-0.002
Mof_C 	C 	0.8781	0.9989	0.82552	0.108
Mof_C 	C 	0.83252	0.98247	0.8878	0.052
Mof_H 	H 	0.8335	0.9932	0.8979	0.003
Mof_C 	C 	0.81521	0.97106	0.88726	-0.096
Mof_H 	H 	0.8045	0.9733	0.8972	0.066
Mof_C 	C 	0.81295	0.95561	0.87179	0.005
Mof_H 	H 	0.8006	0.9476	0.8707	0.039
Mof_C 	C 	0.82958	0.95256	0.85827	-0.053
Mof_C 	C 	0.84696	0.96521	0.86005	0.046
Mof_H 	H 	0.8579	0.9634	0.8503	0.011
Mof_C 	C 	0.82861	0.93677	0.84207	0.133
Mof_N 	N 	0.8851	0.09003	0.76561	-0.224
Mof_N 	N 	0.02309	0.14535	0.86325	-0.26
Mof_N 	N 	0.98243	0.12672	0.85068	-0.229
Mof_N 	N 	0.92908	0.09057	0.81309	-0.155
Mof_N 	N 	0.93858	0.07977	0.84658	-0.153
Mof_N 	N 	0.91246	0.06151	0.82774	-0.152
Mof_N 	N 	0.89926	0.02488	0.87827	-0.234
Mof_N 	N 	0.84916	0.97967	0.87452	-0.226
Mof_N 	N 	0.87707	0.00102	0.84297	-0.267
Mof_N 	N 	0.84343	0.93687	0.82751	-0.15
Mof_S 	S 	0.04017	0.17257	0.83435	-0.063
Mof_S 	S 	0.87921	0.99641	0.79975	-0.061
Mof_C 	C 	0.89834	0.5899	0.28178	0.037
Mof_H 	H 	0.9057	0.6024	0.2849	0.013
Mof_C 	C 	0.90189	0.57273	0.29417	-0.052
Mof_C 	C 	0.89183	0.55437	0.28951	0.01
Mof_H 	H 	0.8934	0.5424	0.2981	0.037
Mof_C 	C 	0.87938	0.55383	0.27202	-0.1
Mof_H 	H 	0.8733	0.5411	0.2676	0.066
Mof_C 	C 	0.87578	0.57171	0.26099	0.058
Mof_H 	H 	0.8663	0.5712	0.2496	0.001
Mof_C 	C 	0.031	0.65658	0.35151	0.098
Mof_C 	C 	0.98327	0.64067	0.33516	0.065
Mof_H 	H 	0.9936	0.6512	0.336	-0.003
Mof_C 	C 	0.97041	0.64077	0.3183	-0.107
Mof_H 	H 	0.9713	0.6515	0.3082	0.068
Mof_C 	C 	0.95611	0.62495	0.31624	0.014
Mof_H 	H 	0.9469	0.6245	0.3047	0.035
Mof_C 	C 	0.95546	0.60954	0.33154	-0.055
Mof_C 	C 	0.96885	0.61115	0.34801	0.043
Mof_H 	H 	0.9685	0.6005	0.3582	0.013
Mof_C 	C 	0.94017	0.59207	0.33004	0.142
Mof_C 	C 	0.9243	0.56478	0.34503	0.136
Mof_C 	C 	0.91537	0.57474	0.31253	0.139
Mof_C 	C 	0.90341	0.53764	0.36283	0.048
Mof_H 	H 	0.8946	0.5374	0.351	0.009
Mof_C 	C 	0.92038	0.55177	0.36298	-0.058
Mof_C 	C 	0.93212	0.55276	0.38086	0.018
Mof_H 	H 	0.9433	0.5623	0.3819	0.035
Mof_C 	C 	0.92751	0.53981	0.39724	-0.11
Mof_H 	H 	0.9352	0.5404	0.4098	0.071
Mof_C 	C 	0.91138	0.52587	0.39493	0.069
Mof_H 	H 	0.9088	0.5164	0.406	-0.002
Mof_C 	C 	0.8781	0.4989	0.32552	0.108
Mof_C 	C 	0.83252	0.48247	0.3878	0.052
Mof_H 	H 	0.8335	0.4932	0.3979	0.003
Mof_C 	C 	0.81521	0.47106	0.38726	-0.096
Mof_H 	H 	0.8045	0.4733	0.3972	0.066
Mof_C 	C 	0.81295	0.45561	0.37179	0.005
Mof_H 	H 	0.8006	0.4476	0.3707	0.039
Mof_C 	C 	0.82958	0.45256	0.35827	-0.053
Mof_C 	C 	0.84696	0.46521	0.36005	0.046
Mof_H 	H 	0.8579	0.4634	0.3503	0.011
Mof_C 	C 	0.82861	0.43677	0.34207	0.133
Mof_N 	N 	0.8851	0.59003	0.26561	-0.224
Mof_N 	N 	0.02309	0.64535	0.36325	-0.26
Mof_N 	N 	0.98243	0.62672	0.35068	-0.229
Mof_N 	N 	0.92908	0.59057	0.31309	-0.155
Mof_N 	N 	0.93858	0.57977	0.34658	-0.153
Mof_N 	N 	0.91246	0.56151	0.32774	-0.152
Mof_N 	N 	0.89926	0.52488	0.37827	-0.234
Mof_N 	N 	0.84916	0.47967	0.37452	-0.226
Mof_N 	N 	0.87707	0.50102	0.34297	-0.267
Mof_N 	N 	0.84343	0.43687	0.32751	-0.15
Mof_S 	S 	0.04017	0.67257	0.33435	-0.063
Mof_S 	S 	0.87921	0.49641	0.29975	-0.061
Mof_C 	C 	0.39834	0.0899	0.28178	0.037
Mof_H 	H 	0.4057	0.1024	0.2849	0.013
Mof_C 	C 	0.40189	0.07273	0.29417	-0.052
Mof_C 	C 	0.39183	0.05437	0.28951	0.01
Mof_H 	H 	0.3934	0.0424	0.2981	0.037
Mof_C 	C 	0.37938	0.05383	0.27202	-0.1
Mof_H 	H 	0.3733	0.0411	0.2676	0.066
Mof_C 	C 	0.37578	0.07171	0.26099	0.058
Mof_H 	H 	0.3663	0.0712	0.2496	0.001
Mof_C 	C 	0.531	0.15658	0.35151	0.098
Mof_C 	C 	0.48327	0.14067	0.33516	0.065
Mof_H 	H 	0.4936	0.1512	0.336	-0.003
Mof_C 	C 	0.47041	0.14077	0.3183	-0.107
Mof_H 	H 	0.4713	0.1515	0.3082	0.068
Mof_C 	C 	0.45611	0.12495	0.31624	0.014
Mof_H 	H 	0.4469	0.1245	0.3047	0.035
Mof_C 	C 	0.45546	0.10954	0.33154	-0.055
Mof_C 	C 	0.46885	0.11115	0.34801	0.043
Mof_H 	H 	0.4685	0.1005	0.3582	0.013
Mof_C 	C 	0.44017	0.09207	0.33004	0.142
Mof_C 	C 	0.4243	0.06478	0.34503	0.136
Mof_C 	C 	0.41537	0.07474	0.31253	0.139
Mof_C 	C 	0.40341	0.03764	0.36283	0.048
Mof_H 	H 	0.3946	0.0374	0.351	0.009
Mof_C 	C 	0.42038	0.05177	0.36298	-0.058
Mof_C 	C 	0.43212	0.05276	0.38086	0.018
Mof_H 	H 	0.4433	0.0623	0.3819	0.035
Mof_C 	C 	0.42751	0.03981	0.39724	-0.11
Mof_H 	H 	0.4352	0.0404	0.4098	0.071
Mof_C 	C 	0.41138	0.02587	0.39493	0.069
Mof_H 	H 	0.4088	0.0164	0.406	-0.002
Mof_C 	C 	0.3781	0.9989	0.32552	0.108
Mof_C 	C 	0.33252	0.98247	0.3878	0.052
Mof_H 	H 	0.3335	0.9932	0.3979	0.003
Mof_C 	C 	0.31521	0.97106	0.38726	-0.096
Mof_H 	H 	0.3045	0.9733	0.3972	0.066
Mof_C 	C 	0.31295	0.95561	0.37179	0.005
Mof_H 	H 	0.3006	0.9476	0.3707	0.039
Mof_C 	C 	0.32958	0.95256	0.35827	-0.053
Mof_C 	C 	0.34696	0.96521	0.36005	0.046
Mof_H 	H 	0.3579	0.9634	0.3503	0.011
Mof_C 	C 	0.32861	0.93677	0.34207	0.133
Mof_N 	N 	0.3851	0.09003	0.26561	-0.224
Mof_N 	N 	0.52309	0.14535	0.36325	-0.26
Mof_N 	N 	0.48243	0.12672	0.35068	-0.229
Mof_N 	N 	0.42908	0.09057	0.31309	-0.155
Mof_N 	N 	0.43858	0.07977	0.34658	-0.153
Mof_N 	N 	0.41246	0.06151	0.32774	-0.152
Mof_N 	N 	0.39926	0.02488	0.37827	-0.234
Mof_N 	N 	0.34916	0.97967	0.37452	-0.226
Mof_N 	N 	0.37707	0.00102	0.34297	-0.267
Mof_N 	N 	0.34343	0.93687	0.32751	-0.15
Mof_S 	S 	0.54017	0.17257	0.33435	-0.063
Mof_S 	S 	0.37921	0.99641	0.29975	-0.061
Mof_C 	C 	0.39834	0.5899	0.78178	0.037
Mof_H 	H 	0.4057	0.6024	0.7849	0.013
Mof_C 	C 	0.40189	0.57273	0.79417	-0.052
Mof_C 	C 	0.39183	0.55437	0.78951	0.01
Mof_H 	H 	0.3934	0.5424	0.7981	0.037
Mof_C 	C 	0.37938	0.55383	0.77202	-0.1
Mof_H 	H 	0.3733	0.5411	0.7676	0.066
Mof_C 	C 	0.37578	0.57171	0.76099	0.058
Mof_H 	H 	0.3663	0.5712	0.7496	0.001
Mof_C 	C 	0.531	0.65658	0.85151	0.098
Mof_C 	C 	0.48327	0.64067	0.83516	0.065
Mof_H 	H 	0.4936	0.6512	0.836	-0.003
Mof_C 	C 	0.47041	0.64077	0.8183	-0.107
Mof_H 	H 	0.4713	0.6515	0.8082	0.068
Mof_C 	C 	0.45611	0.62495	0.81624	0.014
Mof_H 	H 	0.4469	0.6245	0.8047	0.035
Mof_C 	C 	0.45546	0.60954	0.83154	-0.055
Mof_C 	C 	0.46885	0.61115	0.84801	0.043
Mof_H 	H 	0.4685	0.6005	0.8582	0.013
Mof_C 	C 	0.44017	0.59207	0.83004	0.142
Mof_C 	C 	0.4243	0.56478	0.84503	0.136
Mof_C 	C 	0.41537	0.57474	0.81253	0.139
Mof_C 	C 	0.40341	0.53764	0.86283	0.048
Mof_H 	H 	0.3946	0.5374	0.851	0.009
Mof_C 	C 	0.42038	0.55177	0.86298	-0.058
Mof_C 	C 	0.43212	0.55276	0.88086	0.018
Mof_H 	H 	0.4433	0.5623	0.8819	0.035
Mof_C 	C 	0.42751	0.53981	0.89724	-0.11
Mof_H 	H 	0.4352	0.5404	0.9098	0.071
Mof_C 	C 	0.41138	0.52587	0.89493	0.069
Mof_H 	H 	0.4088	0.5164	0.906	-0.002
Mof_C 	C 	0.3781	0.4989	0.82552	0.108
Mof_C 	C 	0.33252	0.48247	0.8878	0.052
Mof_H 	H 	0.3335	0.4932	0.8979	0.003
Mof_C 	C 	0.31521	0.47106	0.88726	-0.096
Mof_H 	H 	0.3045	0.4733	0.8972	0.066
Mof_C 	C 	0.31295	0.45561	0.87179	0.005
Mof_H 	H 	0.3006	0.4476	0.8707	0.039
Mof_C 	C 	0.32958	0.45256	0.85827	-0.053
Mof_C 	C 	0.34696	0.46521	0.86005	0.046
Mof_H 	H 	0.3579	0.4634	0.8503	0.011
Mof_C 	C 	0.32861	0.43677	0.84207	0.133
Mof_N 	N 	0.3851	0.59003	0.76561	-0.224
Mof_N 	N 	0.52309	0.64535	0.86325	-0.26
Mof_N 	N 	0.48243	0.62672	0.85068	-0.229
Mof_N 	N 	0.42908	0.59057	0.81309	-0.155
Mof_N 	N 	0.43858	0.57977	0.84658	-0.153
Mof_N 	N 	0.41246	0.56151	0.82774	-0.152
Mof_N 	N 	0.39926	0.52488	0.87827	-0.234
Mof_N 	N 	0.34916	0.47967	0.87452	-0.226
Mof_N 	N 	0.37707	0.50102	0.84297	-0.267
Mof_N 	N 	0.34343	0.43687	0.82751	-0.15
Mof_S 	S 	0.54017	0.67257	0.83435	-0.063
Mof_S 	S 	0.37921	0.49641	0.79975	-0.061
Mof_C 	C 	0.39834	0.1601	0.96822	0.038
Mof_H 	H 	0.4057	0.1476	0.9651	0.013
Mof_C 	C 	0.40189	0.17727	0.95583	-0.052
Mof_C 	C 	0.39183	0.19563	0.96049	0.01
Mof_H 	H 	0.3934	0.2076	0.9519	0.037
Mof_C 	C 	0.37938	0.19617	0.97798	-0.1
Mof_H 	H 	0.3733	0.2089	0.9824	0.066
Mof_C 	C 	0.37578	0.17829	0.98901	0.059
Mof_H 	H 	0.3663	0.1788	0.0004	0.001
Mof_C 	C 	0.531	0.09342	0.89849	0.098
Mof_C 	C 	0.48327	0.10933	0.91484	0.065
Mof_H 	H 	0.4936	0.0988	0.914	-0.003
Mof_C 	C 	0.47041	0.10923	0.9317	-0.107
Mof_H 	H 	0.4713	0.0985	0.9418	0.068
Mof_C 	C 	0.45611	0.12505	0.93376	0.014
Mof_H 	H 	0.4469	0.1255	0.9453	0.035
Mof_C 	C 	0.45546	0.14046	0.91846	-0.055
Mof_C 	C 	0.46885	0.13885	0.90199	0.043
Mof_H 	H 	0.4685	0.1495	0.8918	0.013
Mof_C 	C 	0.44017	0.15793	0.91996	0.142
Mof_C 	C 	0.4243	0.18522	0.90497	0.136
Mof_C 	C 	0.41537	0.17526	0.93747	0.139
Mof_C 	C 	0.40341	0.21236	0.88717	0.048
Mof_H 	H 	0.3946	0.2126	0.899	0.009
Mof_C 	C 	0.42038	0.19823	0.88702	-0.058
Mof_C 	C 	0.43212	0.19724	0.86914	0.018
Mof_H 	H 	0.4433	0.1877	0.8681	0.035
Mof_C 	C 	0.42751	0.21019	0.85276	-0.11
Mof_H 	H 	0.4352	0.2096	0.8402	0.071
Mof_C 	C 	0.41138	0.22413	0.85507	0.069
Mof_H 	H 	0.4088	0.2336	0.844	-0.002
Mof_C 	C 	0.3781	0.2511	0.92448	0.108
Mof_C 	C 	0.33252	0.26753	0.8622	0.052
Mof_H 	H 	0.3335	0.2568	0.8521	0.003
Mof_C 	C 	0.31521	0.27894	0.86274	-0.096
Mof_H 	H 	0.3045	0.2767	0.8528	0.066
Mof_C 	C 	0.31295	0.29439	0.87821	0.005
Mof_H 	H 	0.3006	0.3024	0.8793	0.039
Mof_C 	C 	0.32958	0.29744	0.89173	-0.053
Mof_C 	C 	0.34696	0.28479	0.88995	0.046
Mof_H 	H 	0.3579	0.2866	0.8997	0.011
Mof_C 	C 	0.32861	0.31323	0.90793	0.133
Mof_N 	N 	0.3851	0.15997	0.98439	-0.224
Mof_N 	N 	0.52309	0.10465	0.88675	-0.26
Mof_N 	N 	0.48243	0.12328	0.89932	-0.229
Mof_N 	N 	0.42908	0.15943	0.93691	-0.155
Mof_N 	N 	0.43858	0.17023	0.90342	-0.153
Mof_N 	N 	0.41246	0.18849	0.92226	-0.152
Mof_N 	N 	0.39926	0.22512	0.87173	-0.234
Mof_N 	N 	0.34916	0.27033	0.87548	-0.226
Mof_N 	N 	0.37707	0.24898	0.90703	-0.267
Mof_N 	N 	0.34343	0.31313	0.92249	-0.15
Mof_S 	S 	0.54017	0.07743	0.91565	-0.063
Mof_S 	S 	0.37921	0.25359	0.95025	-0.061
Mof_C 	C 	0.39834	0.6601	0.46822	0.037
Mof_H 	H 	0.4057	0.6476	0.4651	0.013
Mof_C 	C 	0.40189	0.67727	0.45583	-0.052
Mof_C 	C 	0.39183	0.69563	0.46049	0.01
Mof_H 	H 	0.3934	0.7076	0.4519	0.037
Mof_C 	C 	0.37938	0.69617	0.47798	-0.1
Mof_H 	H 	0.3733	0.7089	0.4824	0.066
Mof_C 	C 	0.37578	0.67829	0.48901	0.058
Mof_H 	H 	0.3663	0.6788	0.5004	0.001
Mof_C 	C 	0.531	0.59342	0.39849	0.098
Mof_C 	C 	0.48327	0.60933	0.41484	0.065
Mof_H 	H 	0.4936	0.5988	0.414	-0.003
Mof_C 	C 	0.47041	0.60923	0.4317	-0.107
Mof_H 	H 	0.4713	0.5985	0.4418	0.068
Mof_C 	C 	0.45611	0.62505	0.43376	0.014
Mof_H 	H 	0.4469	0.6255	0.4453	0.035
Mof_C 	C 	0.45546	0.64046	0.41846	-0.055
Mof_C 	C 	0.46885	0.63885	0.40199	0.043
Mof_H 	H 	0.4685	0.6495	0.3918	0.013
Mof_C 	C 	0.44017	0.65793	0.41996	0.142
Mof_C 	C 	0.4243	0.68522	0.40497	0.136
Mof_C 	C 	0.41537	0.67526	0.43747	0.139
Mof_C 	C 	0.40341	0.71236	0.38717	0.048
Mof_H 	H 	0.3946	0.7126	0.399	0.009
Mof_C 	C 	0.42038	0.69823	0.38702	-0.058
Mof_C 	C 	0.43212	0.69724	0.36914	0.018
Mof_H 	H 	0.4433	0.6877	0.3681	0.035
Mof_C 	C 	0.42751	0.71019	0.35276	-0.11
Mof_H 	H 	0.4352	0.7096	0.3402	0.071
Mof_C 	C 	0.41138	0.72413	0.35507	0.069
Mof_H 	H 	0.4088	0.7336	0.344	-0.002
Mof_C 	C 	0.3781	0.7511	0.42448	0.108
Mof_C 	C 	0.33252	0.76753	0.3622	0.052
Mof_H 	H 	0.3335	0.7568	0.3521	0.003
Mof_C 	C 	0.31521	0.77894	0.36274	-0.096
Mof_H 	H 	0.3045	0.7767	0.3528	0.066
Mof_C 	C 	0.31295	0.79439	0.37821	0.005
Mof_H 	H 	0.3006	0.8024	0.3793	0.039
Mof_C 	C 	0.32958	0.79744	0.39173	-0.053
Mof_C 	C 	0.34696	0.78479	0.38995	0.046
Mof_H 	H 	0.3579	0.7866	0.3997	0.011
Mof_C 	C 	0.32861	0.81323	0.40793	0.133
Mof_N 	N 	0.3851	0.65997	0.48439	-0.224
Mof_N 	N 	0.52309	0.60465	0.38675	-0.26
Mof_N 	N 	0.48243	0.62328	0.39932	-0.229
Mof_N 	N 	0.42908	0.65943	0.43691	-0.155
Mof_N 	N 	0.43858	0.67023	0.40342	-0.153
Mof_N 	N 	0.41246	0.68849	0.42226	-0.152
Mof_N 	N 	0.39926	0.72512	0.37173	-0.234
Mof_N 	N 	0.34916	0.77033	0.37548	-0.226
Mof_N 	N 	0.37707	0.74898	0.40703	-0.267
Mof_N 	N 	0.34343	0.81313	0.42249	-0.15
Mof_S 	S 	0.54017	0.57743	0.41565	-0.063
Mof_S 	S 	0.37921	0.75359	0.45025	-0.061
Mof_C 	C 	0.89834	0.1601	0.46822	0.037
Mof_H 	H 	0.9057	0.1476	0.4651	0.013
Mof_C 	C 	0.90189	0.17727	0.45583	-0.052
Mof_C 	C 	0.89183	0.19563	0.46049	0.01
Mof_H 	H 	0.8934	0.2076	0.4519	0.037
Mof_C 	C 	0.87938	0.19617	0.47798	-0.1
Mof_H 	H 	0.8733	0.2089	0.4824	0.066
Mof_C 	C 	0.87578	0.17829	0.48901	0.058
Mof_H 	H 	0.8663	0.1788	0.5004	0.001
Mof_C 	C 	0.031	0.09342	0.39849	0.098
Mof_C 	C 	0.98327	0.10933	0.41484	0.065
Mof_H 	H 	0.9936	0.0988	0.414	-0.003
Mof_C 	C 	0.97041	0.10923	0.4317	-0.107
Mof_H 	H 	0.9713	0.0985	0.4418	0.068
Mof_C 	C 	0.95611	0.12505	0.43376	0.014
Mof_H 	H 	0.9469	0.1255	0.4453	0.035
Mof_C 	C 	0.95546	0.14046	0.41846	-0.055
Mof_C 	C 	0.96885	0.13885	0.40199	0.043
Mof_H 	H 	0.9685	0.1495	0.3918	0.013
Mof_C 	C 	0.94017	0.15793	0.41996	0.142
Mof_C 	C 	0.9243	0.18522	0.40497	0.136
Mof_C 	C 	0.91537	0.17526	0.43747	0.139
Mof_C 	C 	0.90341	0.21236	0.38717	0.048
Mof_H 	H 	0.8946	0.2126	0.399	0.009
Mof_C 	C 	0.92038	0.19823	0.38702	-0.058
Mof_C 	C 	0.93212	0.19724	0.36914	0.018
Mof_H 	H 	0.9433	0.1877	0.3681	0.035
Mof_C 	C 	0.92751	0.21019	0.35276	-0.11
Mof_H 	H 	0.9352	0.2096	0.3402	0.071
Mof_C 	C 	0.91138	0.22413	0.35507	0.069
Mof_H 	H 	0.9088	0.2336	0.344	-0.002
Mof_C 	C 	0.8781	0.2511	0.42448	0.108
Mof_C 	C 	0.83252	0.26753	0.3622	0.052
Mof_H 	H 	0.8335	0.2568	0.3521	0.003
Mof_C 	C 	0.81521	0.27894	0.36274	-0.096
Mof_H 	H 	0.8045	0.2767	0.3528	0.066
Mof_C 	C 	0.81295	0.29439	0.37821	0.005
Mof_H 	H 	0.8006	0.3024	0.3793	0.039
Mof_C 	C 	0.82958	0.29744	0.39173	-0.053
Mof_C 	C 	0.84696	0.28479	0.38995	0.046
Mof_H 	H 	0.8579	0.2866	0.3997	0.011
Mof_C 	C 	0.82861	0.31323	0.40793	0.133
Mof_N 	N 	0.8851	0.15997	0.48439	-0.224
Mof_N 	N 	0.02309	0.10465	0.38675	-0.26
Mof_N 	N 	0.98243	0.12328	0.39932	-0.229
Mof_N 	N 	0.92908	0.15943	0.43691	-0.155
Mof_N 	N 	0.93858	0.17023	0.40342	-0.153
Mof_N 	N 	0.91246	0.18849	0.42226	-0.152
Mof_N 	N 	0.89926	0.22512	0.37173	-0.234
Mof_N 	N 	0.84916	0.27033	0.37548	-0.226
Mof_N 	N 	0.87707	0.24898	0.40703	-0.267
Mof_N 	N 	0.84343	0.31313	0.42249	-0.15
Mof_S 	S 	0.04017	0.07743	0.41565	-0.063
Mof_S 	S 	0.87921	0.25359	0.45025	-0.061
Mof_C 	C 	0.89834	0.6601	0.96822	0.038
Mof_H 	H 	0.9057	0.6476	0.9651	0.013
Mof_C 	C 	0.90189	0.67727	0.95583	-0.052
Mof_C 	C 	0.89183	0.69563	0.96049	0.01
Mof_H 	H 	0.8934	0.7076	0.9519	0.037
Mof_C 	C 	0.87938	0.69617	0.97798	-0.1
Mof_H 	H 	0.8733	0.7089	0.9824	0.066
Mof_C 	C 	0.87578	0.67829	0.98901	0.059
Mof_H 	H 	0.8663	0.6788	0.0004	0.001
Mof_C 	C 	0.031	0.59342	0.89849	0.098
Mof_C 	C 	0.98327	0.60933	0.91484	0.065
Mof_H 	H 	0.9936	0.5988	0.914	-0.003
Mof_C 	C 	0.97041	0.60923	0.9317	-0.107
Mof_H 	H 	0.9713	0.5985	0.9418	0.068
Mof_C 	C 	0.95611	0.62505	0.93376	0.014
Mof_H 	H 	0.9469	0.6255	0.9453	0.036
Mof_C 	C 	0.95546	0.64046	0.91846	-0.055
Mof_C 	C 	0.96885	0.63885	0.90199	0.043
Mof_H 	H 	0.9685	0.6495	0.8918	0.013
Mof_C 	C 	0.94017	0.65793	0.91996	0.142
Mof_C 	C 	0.9243	0.68522	0.90497	0.136
Mof_C 	C 	0.91537	0.67526	0.93747	0.139
Mof_C 	C 	0.90341	0.71236	0.88717	0.048
Mof_H 	H 	0.8946	0.7126	0.899	0.009
Mof_C 	C 	0.92038	0.69823	0.88702	-0.058
Mof_C 	C 	0.93212	0.69724	0.86914	0.018
Mof_H 	H 	0.9433	0.6877	0.8681	0.035
Mof_C 	C 	0.92751	0.71019	0.85276	-0.11
Mof_H 	H 	0.9352	0.7096	0.8402	0.071
Mof_C 	C 	0.91138	0.72413	0.85507	0.069
Mof_H 	H 	0.9088	0.7336	0.844	-0.002
Mof_C 	C 	0.8781	0.7511	0.92448	0.108
Mof_C 	C 	0.83252	0.76753	0.8622	0.052
Mof_H 	H 	0.8335	0.7568	0.8521	0.003
Mof_C 	C 	0.81521	0.77894	0.86274	-0.096
Mof_H 	H 	0.8045	0.7767	0.8528	0.066
Mof_C 	C 	0.81295	0.79439	0.87821	0.005
Mof_H 	H 	0.8006	0.8024	0.8793	0.039
Mof_C 	C 	0.82958	0.79744	0.89173	-0.053
Mof_C 	C 	0.84696	0.78479	0.88995	0.046
Mof_H 	H 	0.8579	0.7866	0.8997	0.011
Mof_C 	C 	0.82861	0.81323	0.90793	0.133
Mof_N 	N 	0.8851	0.65997	0.98439	-0.224
Mof_N 	N 	0.02309	0.60465	0.88675	-0.26
Mof_N 	N 	0.98243	0.62328	0.89932	-0.229
Mof_N 	N 	0.92908	0.65943	0.93691	-0.155
Mof_N 	N 	0.93858	0.67023	0.90342	-0.153
Mof_N 	N 	0.91246	0.68849	0.92226	-0.152
Mof_N 	N 	0.89926	0.72512	0.87173	-0.234
Mof_N 	N 	0.84916	0.77033	0.87548	-0.226
Mof_N 	N 	0.87707	0.74898	0.90703	-0.267
Mof_N 	N 	0.84343	0.81313	0.92249	-0.15
Mof_S 	S 	0.04017	0.57743	0.91565	-0.063
Mof_S 	S 	0.87921	0.75359	0.95025	-0.061
Mof_C 	C 	0.46822	0.6601	0.89834	0.037
Mof_H 	H 	0.4651	0.6476	0.9057	0.013
Mof_C 	C 	0.45583	0.67727	0.90189	-0.052
Mof_C 	C 	0.46049	0.69563	0.89183	0.01
Mof_H 	H 	0.4519	0.7076	0.8934	0.037
Mof_C 	C 	0.47798	0.69617	0.87938	-0.1
Mof_H 	H 	0.4824	0.7089	0.8733	0.066
Mof_C 	C 	0.48901	0.67829	0.87578	0.058
Mof_H 	H 	0.5004	0.6788	0.8663	0.001
Mof_C 	C 	0.39849	0.59342	0.031	0.098
Mof_C 	C 	0.41484	0.60933	0.98327	0.065
Mof_H 	H 	0.414	0.5988	0.9936	-0.003
Mof_C 	C 	0.4317	0.60923	0.97041	-0.107
Mof_H 	H 	0.4418	0.5985	0.9713	0.068
Mof_C 	C 	0.43376	0.62505	0.95611	0.014
Mof_H 	H 	0.4453	0.6255	0.9469	0.035
Mof_C 	C 	0.41846	0.64046	0.95546	-0.055
Mof_C 	C 	0.40199	0.63885	0.96885	0.043
Mof_H 	H 	0.3918	0.6495	0.9685	0.013
Mof_C 	C 	0.41996	0.65793	0.94017	0.142
Mof_C 	C 	0.40497	0.68522	0.9243	0.136
Mof_C 	C 	0.43747	0.67526	0.91537	0.139
Mof_C 	C 	0.38717	0.71236	0.90341	0.048
Mof_H 	H 	0.399	0.7126	0.8946	0.009
Mof_C 	C 	0.38702	0.69823	0.92038	-0.058
Mof_C 	C 	0.36914	0.69724	0.93212	0.018
Mof_H 	H 	0.3681	0.6877	0.9433	0.035
Mof_C 	C 	0.35276	0.71019	0.92751	-0.11
Mof_H 	H 	0.3402	0.7096	0.9352	0.071
Mof_C 	C 	0.35507	0.72413	0.91138	0.069
Mof_H 	H 	0.344	0.7336	0.9088	-0.002
Mof_C 	C 	0.42448	0.7511	0.8781	0.108
Mof_C 	C 	0.3622	0.76753	0.83252	0.052
Mof_H 	H 	0.3521	0.7568	0.8335	0.003
Mof_C 	C 	0.36274	0.77894	0.81521	-0.096
Mof_H 	H 	0.3528	0.7767	0.8045	0.066
Mof_C 	C 	0.37821	0.79439	0.81295	0.005
Mof_H 	H 	0.3793	0.8024	0.8006	0.039
Mof_C 	C 	0.39173	0.79744	0.82958	-0.053
Mof_C 	C 	0.38995	0.78479	0.84696	0.046
Mof_H 	H 	0.3997	0.7866	0.8579	0.011
Mof_C 	C 	0.40793	0.81323	0.82861	0.133
Mof_N 	N 	0.48439	0.65997	0.8851	-0.224
Mof_N 	N 	0.38675	0.60465	0.02309	-0.26
Mof_N 	N 	0.39932	0.62328	0.98243	-0.229
Mof_N 	N 	0.43691	0.65943	0.92908	-0.155
Mof_N 	N 	0.40342	0.67023	0.93858	-0.153
Mof_N 	N 	0.42226	0.68849	0.91246	-0.152
Mof_N 	N 	0.37173	0.72512	0.89926	-0.234
Mof_N 	N 	0.37548	0.77033	0.84916	-0.226
Mof_N 	N 	0.40703	0.74898	0.87707	-0.267
Mof_N 	N 	0.42249	0.81313	0.84343	-0.15
Mof_S 	S 	0.41565	0.57743	0.04017	-0.063
Mof_S 	S 	0.45025	0.75359	0.87921	-0.061
Mof_C 	C 	0.46822	0.1601	0.39834	0.037
Mof_H 	H 	0.4651	0.1476	0.4057	0.013
Mof_C 	C 	0.45583	0.17727	0.40189	-0.052
Mof_C 	C 	0.46049	0.19563	0.39183	0.01
Mof_H 	H 	0.4519	0.2076	0.3934	0.037
Mof_C 	C 	0.47798	0.19617	0.37938	-0.1
Mof_H 	H 	0.4824	0.2089	0.3733	0.066
Mof_C 	C 	0.48901	0.17829	0.37578	0.058
Mof_H 	H 	0.5004	0.1788	0.3663	0.001
Mof_C 	C 	0.39849	0.09342	0.531	0.098
Mof_C 	C 	0.41484	0.10933	0.48327	0.065
Mof_H 	H 	0.414	0.0988	0.4936	-0.003
Mof_C 	C 	0.4317	0.10923	0.47041	-0.107
Mof_H 	H 	0.4418	0.0985	0.4713	0.068
Mof_C 	C 	0.43376	0.12505	0.45611	0.014
Mof_H 	H 	0.4453	0.1255	0.4469	0.035
Mof_C 	C 	0.41846	0.14046	0.45546	-0.055
Mof_C 	C 	0.40199	0.13885	0.46885	0.043
Mof_H 	H 	0.3918	0.1495	0.4685	0.013
Mof_C 	C 	0.41996	0.15793	0.44017	0.142
Mof_C 	C 	0.40497	0.18522	0.4243	0.136
Mof_C 	C 	0.43747	0.17526	0.41537	0.139
Mof_C 	C 	0.38717	0.21236	0.40341	0.048
Mof_H 	H 	0.399	0.2126	0.3946	0.009
Mof_C 	C 	0.38702	0.19823	0.42038	-0.058
Mof_C 	C 	0.36914	0.19724	0.43212	0.018
Mof_H 	H 	0.3681	0.1877	0.4433	0.035
Mof_C 	C 	0.35276	0.21019	0.42751	-0.11
Mof_H 	H 	0.3402	0.2096	0.4352	0.071
Mof_C 	C 	0.35507	0.22413	0.41138	0.069
Mof_H 	H 	0.344	0.2336	0.4088	-0.002
Mof_C 	C 	0.42448	0.2511	0.3781	0.108
Mof_C 	C 	0.3622	0.26753	0.33252	0.052
Mof_H 	H 	0.3521	0.2568	0.3335	0.003
Mof_C 	C 	0.36274	0.27894	0.31521	-0.096
Mof_H 	H 	0.3528	0.2767	0.3045	0.066
Mof_C 	C 	0.37821	0.29439	0.31295	0.005
Mof_H 	H 	0.3793	0.3024	0.3006	0.039
Mof_C 	C 	0.39173	0.29744	0.32958	-0.053
Mof_C 	C 	0.38995	0.28479	0.34696	0.046
Mof_H 	H 	0.3997	0.2866	0.3579	0.011
Mof_C 	C 	0.40793	0.31323	0.32861	0.133
Mof_N 	N 	0.48439	0.15997	0.3851	-0.224
Mof_N 	N 	0.38675	0.10465	0.52309	-0.26
Mof_N 	N 	0.39932	0.12328	0.48243	-0.229
Mof_N 	N 	0.43691	0.15943	0.42908	-0.155
Mof_N 	N 	0.40342	0.17023	0.43858	-0.153
Mof_N 	N 	0.42226	0.18849	0.41246	-0.152
Mof_N 	N 	0.37173	0.22512	0.39926	-0.234
Mof_N 	N 	0.37548	0.27033	0.34916	-0.226
Mof_N 	N 	0.40703	0.24898	0.37707	-0.267
Mof_N 	N 	0.42249	0.31313	0.34343	-0.15
Mof_S 	S 	0.41565	0.07743	0.54017	-0.063
Mof_S 	S 	0.45025	0.25359	0.37921	-0.061
Mof_C 	C 	0.96822	0.6601	0.39834	0.038
Mof_H 	H 	0.9651	0.6476	0.4057	0.013
Mof_C 	C 	0.95583	0.67727	0.40189	-0.052
Mof_C 	C 	0.96049	0.69563	0.39183	0.01
Mof_H 	H 	0.9519	0.7076	0.3934	0.037
Mof_C 	C 	0.97798	0.69617	0.37938	-0.1
Mof_H 	H 	0.9824	0.7089	0.3733	0.066
Mof_C 	C 	0.98901	0.67829	0.37578	0.059
Mof_H 	H 	0.0004	0.6788	0.3663	0.001
Mof_C 	C 	0.89849	0.59342	0.531	0.098
Mof_C 	C 	0.91484	0.60933	0.48327	0.065
Mof_H 	H 	0.914	0.5988	0.4936	-0.003
Mof_C 	C 	0.9317	0.60923	0.47041	-0.107
Mof_H 	H 	0.9418	0.5985	0.4713	0.068
Mof_C 	C 	0.93376	0.62505	0.45611	0.014
Mof_H 	H 	0.9453	0.6255	0.4469	0.035
Mof_C 	C 	0.91846	0.64046	0.45546	-0.055
Mof_C 	C 	0.90199	0.63885	0.46885	0.043
Mof_H 	H 	0.8918	0.6495	0.4685	0.013
Mof_C 	C 	0.91996	0.65793	0.44017	0.142
Mof_C 	C 	0.90497	0.68522	0.4243	0.136
Mof_C 	C 	0.93747	0.67526	0.41537	0.139
Mof_C 	C 	0.88717	0.71236	0.40341	0.048
Mof_H 	H 	0.899	0.7126	0.3946	0.009
Mof_C 	C 	0.88702	0.69823	0.42038	-0.058
Mof_C 	C 	0.86914	0.69724	0.43212	0.018
Mof_H 	H 	0.8681	0.6877	0.4433	0.035
Mof_C 	C 	0.85276	0.71019	0.42751	-0.11
Mof_H 	H 	0.8402	0.7096	0.4352	0.071
Mof_C 	C 	0.85507	0.72413	0.41138	0.069
Mof_H 	H 	0.844	0.7336	0.4088	-0.002
Mof_C 	C 	0.92448	0.7511	0.3781	0.108
Mof_C 	C 	0.8622	0.76753	0.33252	0.052
Mof_H 	H 	0.8521	0.7568	0.3335	0.003
Mof_C 	C 	0.86274	0.77894	0.31521	-0.096
Mof_H 	H 	0.8528	0.7767	0.3045	0.066
Mof_C 	C 	0.87821	0.79439	0.31295	0.005
Mof_H 	H 	0.8793	0.8024	0.3006	0.039
Mof_C 	C 	0.89173	0.79744	0.32958	-0.053
Mof_C 	C 	0.88995	0.78479	0.34696	0.046
Mof_H 	H 	0.8997	0.7866	0.3579	0.011
Mof_C 	C 	0.90793	0.81323	0.32861	0.133
Mof_N 	N 	0.98439	0.65997	0.3851	-0.224
Mof_N 	N 	0.88675	0.60465	0.52309	-0.26
Mof_N 	N 	0.89932	0.62328	0.48243	-0.229
Mof_N 	N 	0.93691	0.65943	0.42908	-0.155
Mof_N 	N 	0.90342	0.67023	0.43858	-0.153
Mof_N 	N 	0.92226	0.68849	0.41246	-0.152
Mof_N 	N 	0.87173	0.72512	0.39926	-0.234
Mof_N 	N 	0.87548	0.77033	0.34916	-0.226
Mof_N 	N 	0.90703	0.74898	0.37707	-0.267
Mof_N 	N 	0.92249	0.81313	0.34343	-0.15
Mof_S 	S 	0.91565	0.57743	0.54017	-0.063
Mof_S 	S 	0.95025	0.75359	0.37921	-0.061
Mof_C 	C 	0.96822	0.1601	0.89834	0.038
Mof_H 	H 	0.9651	0.1476	0.9057	0.013
Mof_C 	C 	0.95583	0.17727	0.90189	-0.052
Mof_C 	C 	0.96049	0.19563	0.89183	0.01
Mof_H 	H 	0.9519	0.2076	0.8934	0.037
Mof_C 	C 	0.97798	0.19617	0.87938	-0.1
Mof_H 	H 	0.9824	0.2089	0.8733	0.066
Mof_C 	C 	0.98901	0.17829	0.87578	0.059
Mof_H 	H 	0.0004	0.1788	0.8663	0.001
Mof_C 	C 	0.89849	0.09342	0.031	0.098
Mof_C 	C 	0.91484	0.10933	0.98327	0.065
Mof_H 	H 	0.914	0.0988	0.9936	-0.003
Mof_C 	C 	0.9317	0.10923	0.97041	-0.107
Mof_H 	H 	0.9418	0.0985	0.9713	0.068
Mof_C 	C 	0.93376	0.12505	0.95611	0.014
Mof_H 	H 	0.9453	0.1255	0.9469	0.036
Mof_C 	C 	0.91846	0.14046	0.95546	-0.055
Mof_C 	C 	0.90199	0.13885	0.96885	0.043
Mof_H 	H 	0.8918	0.1495	0.9685	0.013
Mof_C 	C 	0.91996	0.15793	0.94017	0.142
Mof_C 	C 	0.90497	0.18522	0.9243	0.136
Mof_C 	C 	0.93747	0.17526	0.91537	0.139
Mof_C 	C 	0.88717	0.21236	0.90341	0.048
Mof_H 	H 	0.899	0.2126	0.8946	0.009
Mof_C 	C 	0.88702	0.19823	0.92038	-0.058
Mof_C 	C 	0.86914	0.19724	0.93212	0.018
Mof_H 	H 	0.8681	0.1877	0.9433	0.035
Mof_C 	C 	0.85276	0.21019	0.92751	-0.11
Mof_H 	H 	0.8402	0.2096	0.9352	0.071
Mof_C 	C 	0.85507	0.22413	0.91138	0.069
Mof_H 	H 	0.844	0.2336	0.9088	-0.002
Mof_C 	C 	0.92448	0.2511	0.8781	0.108
Mof_C 	C 	0.8622	0.26753	0.83252	0.052
Mof_H 	H 	0.8521	0.2568	0.8335	0.003
Mof_C 	C 	0.86274	0.27894	0.81521	-0.096
Mof_H 	H 	0.8528	0.2767	0.8045	0.066
Mof_C 	C 	0.87821	0.29439	0.81295	0.005
Mof_H 	H 	0.8793	0.3024	0.8006	0.039
Mof_C 	C 	0.89173	0.29744	0.82958	-0.053
Mof_C 	C 	0.88995	0.28479	0.84696	0.046
Mof_H 	H 	0.8997	0.2866	0.8579	0.011
Mof_C 	C 	0.90793	0.31323	0.82861	0.133
Mof_N 	N 	0.98439	0.15997	0.8851	-0.224
Mof_N 	N 	0.88675	0.10465	0.02309	-0.26
Mof_N 	N 	0.89932	0.12328	0.98243	-0.229
Mof_N 	N 	0.93691	0.15943	0.92908	-0.155
Mof_N 	N 	0.90342	0.17023	0.93858	-0.153
Mof_N 	N 	0.92226	0.18849	0.91246	-0.152
Mof_N 	N 	0.87173	0.22512	0.89926	-0.234
Mof_N 	N 	0.87548	0.27033	0.84916	-0.226
Mof_N 	N 	0.90703	0.24898	0.87707	-0.267
Mof_N 	N 	0.92249	0.31313	0.84343	-0.15
Mof_S 	S 	0.91565	0.07743	0.04017	-0.063
Mof_S 	S 	0.95025	0.25359	0.87921	-0.061
Mof_C 	C 	0.28178	0.5899	0.39834	0.037
Mof_H 	H 	0.2849	0.6024	0.4057	0.013
Mof_C 	C 	0.29417	0.57273	0.40189	-0.052
Mof_C 	C 	0.28951	0.55437	0.39183	0.01
Mof_H 	H 	0.2981	0.5424	0.3934	0.037
Mof_C 	C 	0.27202	0.55383	0.37938	-0.1
Mof_H 	H 	0.2676	0.5411	0.3733	0.066
Mof_C 	C 	0.26099	0.57171	0.37578	0.058
Mof_H 	H 	0.2496	0.5712	0.3663	0.001
Mof_C 	C 	0.35151	0.65658	0.531	0.098
Mof_C 	C 	0.33516	0.64067	0.48327	0.065
Mof_H 	H 	0.336	0.6512	0.4936	-0.003
Mof_C 	C 	0.3183	0.64077	0.47041	-0.107
Mof_H 	H 	0.3082	0.6515	0.4713	0.068
Mof_C 	C 	0.31624	0.62495	0.45611	0.014
Mof_H 	H 	0.3047	0.6245	0.4469	0.035
Mof_C 	C 	0.33154	0.60954	0.45546	-0.055
Mof_C 	C 	0.34801	0.61115	0.46885	0.043
Mof_H 	H 	0.3582	0.6005	0.4685	0.013
Mof_C 	C 	0.33004	0.59207	0.44017	0.142
Mof_C 	C 	0.34503	0.56478	0.4243	0.136
Mof_C 	C 	0.31253	0.57474	0.41537	0.139
Mof_C 	C 	0.36283	0.53764	0.40341	0.048
Mof_H 	H 	0.351	0.5374	0.3946	0.009
Mof_C 	C 	0.36298	0.55177	0.42038	-0.058
Mof_C 	C 	0.38086	0.55276	0.43212	0.018
Mof_H 	H 	0.3819	0.5623	0.4433	0.035
Mof_C 	C 	0.39724	0.53981	0.42751	-0.11
Mof_H 	H 	0.4098	0.5404	0.4352	0.071
Mof_C 	C 	0.39493	0.52587	0.41138	0.069
Mof_H 	H 	0.406	0.5164	0.4088	-0.002
Mof_C 	C 	0.32552	0.4989	0.3781	0.108
Mof_C 	C 	0.3878	0.48247	0.33252	0.052
Mof_H 	H 	0.3979	0.4932	0.3335	0.003
Mof_C 	C 	0.38726	0.47106	0.31521	-0.096
Mof_H 	H 	0.3972	0.4733	0.3045	0.066
Mof_C 	C 	0.37179	0.45561	0.31295	0.005
Mof_H 	H 	0.3707	0.4476	0.3006	0.039
Mof_C 	C 	0.35827	0.45256	0.32958	-0.053
Mof_C 	C 	0.36005	0.46521	0.34696	0.046
Mof_H 	H 	0.3503	0.4634	0.3579	0.011
Mof_C 	C 	0.34207	0.43677	0.32861	0.133
Mof_N 	N 	0.26561	0.59003	0.3851	-0.224
Mof_N 	N 	0.36325	0.64535	0.52309	-0.26
Mof_N 	N 	0.35068	0.62672	0.48243	-0.229
Mof_N 	N 	0.31309	0.59057	0.42908	-0.155
Mof_N 	N 	0.34658	0.57977	0.43858	-0.153
Mof_N 	N 	0.32774	0.56151	0.41246	-0.152
Mof_N 	N 	0.37827	0.52488	0.39926	-0.234
Mof_N 	N 	0.37452	0.47967	0.34916	-0.226
Mof_N 	N 	0.34297	0.50102	0.37707	-0.267
Mof_N 	N 	0.32751	0.43687	0.34343	-0.15
Mof_S 	S 	0.33435	0.67257	0.54017	-0.063
Mof_S 	S 	0.29975	0.49641	0.37921	-0.061
Mof_C 	C 	0.28178	0.0899	0.89834	0.037
Mof_H 	H 	0.2849	0.1024	0.9057	0.013
Mof_C 	C 	0.29417	0.07273	0.90189	-0.052
Mof_C 	C 	0.28951	0.05437	0.89183	0.01
Mof_H 	H 	0.2981	0.0424	0.8934	0.037
Mof_C 	C 	0.27202	0.05383	0.87938	-0.1
Mof_H 	H 	0.2676	0.0411	0.8733	0.066
Mof_C 	C 	0.26099	0.07171	0.87578	0.058
Mof_H 	H 	0.2496	0.0712	0.8663	0.001
Mof_C 	C 	0.35151	0.15658	0.031	0.098
Mof_C 	C 	0.33516	0.14067	0.98327	0.065
Mof_H 	H 	0.336	0.1512	0.9936	-0.003
Mof_C 	C 	0.3183	0.14077	0.97041	-0.107
Mof_H 	H 	0.3082	0.1515	0.9713	0.068
Mof_C 	C 	0.31624	0.12495	0.95611	0.014
Mof_H 	H 	0.3047	0.1245	0.9469	0.035
Mof_C 	C 	0.33154	0.10954	0.95546	-0.055
Mof_C 	C 	0.34801	0.11115	0.96885	0.043
Mof_H 	H 	0.3582	0.1005	0.9685	0.013
Mof_C 	C 	0.33004	0.09207	0.94017	0.142
Mof_C 	C 	0.34503	0.06478	0.9243	0.136
Mof_C 	C 	0.31253	0.07474	0.91537	0.139
Mof_C 	C 	0.36283	0.03764	0.90341	0.048
Mof_H 	H 	0.351	0.0374	0.8946	0.009
Mof_C 	C 	0.36298	0.05177	0.92038	-0.058
Mof_C 	C 	0.38086	0.05276	0.93212	0.018
Mof_H 	H 	0.3819	0.0623	0.9433	0.035
Mof_C 	C 	0.39724	0.03981	0.92751	-0.11
Mof_H 	H 	0.4098	0.0404	0.9352	0.071
Mof_C 	C 	0.39493	0.02587	0.91138	0.069
Mof_H 	H 	0.406	0.0164	0.9088	-0.002
Mof_C 	C 	0.32552	0.9989	0.8781	0.108
Mof_C 	C 	0.3878	0.98247	0.83252	0.052
Mof_H 	H 	0.3979	0.9932	0.8335	0.003
Mof_C 	C 	0.38726	0.97106	0.81521	-0.096
Mof_H 	H 	0.3972	0.9733	0.8045	0.066
Mof_C 	C 	0.37179	0.95561	0.81295	0.005
Mof_H 	H 	0.3707	0.9476	0.8006	0.039
Mof_C 	C 	0.35827	0.95256	0.82958	-0.053
Mof_C 	C 	0.36005	0.96521	0.84696	0.046
Mof_H 	H 	0.3503	0.9634	0.8579	0.011
Mof_C 	C 	0.34207	0.93677	0.82861	0.133
Mof_N 	N 	0.26561	0.09003	0.8851	-0.224
Mof_N 	N 	0.36325	0.14535	0.02309	-0.26
Mof_N 	N 	0.35068	0.12672	0.98243	-0.229
Mof_N 	N 	0.31309	0.09057	0.92908	-0.155
Mof_N 	N 	0.34658	0.07977	0.93858	-0.153
Mof_N 	N 	0.32774	0.06151	0.91246	-0.152
Mof_N 	N 	0.37827	0.02488	0.89926	-0.234
Mof_N 	N 	0.37452	0.97967	0.84916	-0.226
Mof_N 	N 	0.34297	0.00102	0.87707	-0.267
Mof_N 	N 	0.32751	0.93687	0.84343	-0.15
Mof_S 	S 	0.33435	0.17257	0.04017	-0.063
Mof_S 	S 	0.29975	0.99641	0.87921	-0.061
Mof_C 	C 	0.78178	0.5899	0.89834	0.037
Mof_H 	H 	0.7849	0.6024	0.9057	0.013
Mof_C 	C 	0.79417	0.57273	0.90189	-0.052
Mof_C 	C 	0.78951	0.55437	0.89183	0.01
Mof_H 	H 	0.7981	0.5424	0.8934	0.037
Mof_C 	C 	0.77202	0.55383	0.87938	-0.1
Mof_H 	H 	0.7676	0.5411	0.8733	0.066
Mof_C 	C 	0.76099	0.57171	0.87578	0.058
Mof_H 	H 	0.7496	0.5712	0.8663	0.001
Mof_C 	C 	0.85151	0.65658	0.031	0.098
Mof_C 	C 	0.83516	0.64067	0.98327	0.065
Mof_H 	H 	0.836	0.6512	0.9936	-0.003
Mof_C 	C 	0.8183	0.64077	0.97041	-0.107
Mof_H 	H 	0.8082	0.6515	0.9713	0.068
Mof_C 	C 	0.81624	0.62495	0.95611	0.014
Mof_H 	H 	0.8047	0.6245	0.9469	0.035
Mof_C 	C 	0.83154	0.60954	0.95546	-0.055
Mof_C 	C 	0.84801	0.61115	0.96885	0.043
Mof_H 	H 	0.8582	0.6005	0.9685	0.013
Mof_C 	C 	0.83004	0.59207	0.94017	0.142
Mof_C 	C 	0.84503	0.56478	0.9243	0.136
Mof_C 	C 	0.81253	0.57474	0.91537	0.139
Mof_C 	C 	0.86283	0.53764	0.90341	0.048
Mof_H 	H 	0.851	0.5374	0.8946	0.009
Mof_C 	C 	0.86298	0.55177	0.92038	-0.058
Mof_C 	C 	0.88086	0.55276	0.93212	0.018
Mof_H 	H 	0.8819	0.5623	0.9433	0.035
Mof_C 	C 	0.89724	0.53981	0.92751	-0.11
Mof_H 	H 	0.9098	0.5404	0.9352	0.071
Mof_C 	C 	0.89493	0.52587	0.91138	0.069
Mof_H 	H 	0.906	0.5164	0.9088	-0.002
Mof_C 	C 	0.82552	0.4989	0.8781	0.108
Mof_C 	C 	0.8878	0.48247	0.83252	0.052
Mof_H 	H 	0.8979	0.4932	0.8335	0.003
Mof_C 	C 	0.88726	0.47106	0.81521	-0.096
Mof_H 	H 	0.8972	0.4733	0.8045	0.066
Mof_C 	C 	0.87179	0.45561	0.81295	0.005
Mof_H 	H 	0.8707	0.4476	0.8006	0.039
Mof_C 	C 	0.85827	0.45256	0.82958	-0.053
Mof_C 	C 	0.86005	0.46521	0.84696	0.046
Mof_H 	H 	0.8503	0.4634	0.8579	0.011
Mof_C 	C 	0.84207	0.43677	0.82861	0.133
Mof_N 	N 	0.76561	0.59003	0.8851	-0.224
Mof_N 	N 	0.86325	0.64535	0.02309	-0.26
Mof_N 	N 	0.85068	0.62672	0.98243	-0.229
Mof_N 	N 	0.81309	0.59057	0.92908	-0.155
Mof_N 	N 	0.84658	0.57977	0.93858	-0.153
Mof_N 	N 	0.82774	0.56151	0.91246	-0.152
Mof_N 	N 	0.87827	0.52488	0.89926	-0.234
Mof_N 	N 	0.87452	0.47967	0.84916	-0.226
Mof_N 	N 	0.84297	0.50102	0.87707	-0.267
Mof_N 	N 	0.82751	0.43687	0.84343	-0.15
Mof_S 	S 	0.83435	0.67257	0.04017	-0.063
Mof_S 	S 	0.79975	0.49641	0.87921	-0.061
Mof_C 	C 	0.78178	0.0899	0.39834	0.037
Mof_H 	H 	0.7849	0.1024	0.4057	0.013
Mof_C 	C 	0.79417	0.07273	0.40189	-0.052
Mof_C 	C 	0.78951	0.05437	0.39183	0.01
Mof_H 	H 	0.7981	0.0424	0.3934	0.037
Mof_C 	C 	0.77202	0.05383	0.37938	-0.1
Mof_H 	H 	0.7676	0.0411	0.3733	0.066
Mof_C 	C 	0.76099	0.07171	0.37578	0.058
Mof_H 	H 	0.7496	0.0712	0.3663	0.001
Mof_C 	C 	0.85151	0.15658	0.531	0.098
Mof_C 	C 	0.83516	0.14067	0.48327	0.065
Mof_H 	H 	0.836	0.1512	0.4936	-0.003
Mof_C 	C 	0.8183	0.14077	0.47041	-0.107
Mof_H 	H 	0.8082	0.1515	0.4713	0.068
Mof_C 	C 	0.81624	0.12495	0.45611	0.014
Mof_H 	H 	0.8047	0.1245	0.4469	0.035
Mof_C 	C 	0.83154	0.10954	0.45546	-0.055
Mof_C 	C 	0.84801	0.11115	0.46885	0.043
Mof_H 	H 	0.8582	0.1005	0.4685	0.013
Mof_C 	C 	0.83004	0.09207	0.44017	0.142
Mof_C 	C 	0.84503	0.06478	0.4243	0.136
Mof_C 	C 	0.81253	0.07474	0.41537	0.139
Mof_C 	C 	0.86283	0.03764	0.40341	0.048
Mof_H 	H 	0.851	0.0374	0.3946	0.009
Mof_C 	C 	0.86298	0.05177	0.42038	-0.058
Mof_C 	C 	0.88086	0.05276	0.43212	0.018
Mof_H 	H 	0.8819	0.0623	0.4433	0.035
Mof_C 	C 	0.89724	0.03981	0.42751	-0.11
Mof_H 	H 	0.9098	0.0404	0.4352	0.071
Mof_C 	C 	0.89493	0.02587	0.41138	0.069
Mof_H 	H 	0.906	0.0164	0.4088	-0.002
Mof_C 	C 	0.82552	0.9989	0.3781	0.108
Mof_C 	C 	0.8878	0.98247	0.33252	0.052
Mof_H 	H 	0.8979	0.9932	0.3335	0.003
Mof_C 	C 	0.88726	0.97106	0.31521	-0.096
Mof_H 	H 	0.8972	0.9733	0.3045	0.066
Mof_C 	C 	0.87179	0.95561	0.31295	0.005
Mof_H 	H 	0.8707	0.9476	0.3006	0.039
Mof_C 	C 	0.85827	0.95256	0.32958	-0.053
Mof_C 	C 	0.86005	0.96521	0.34696	0.046
Mof_H 	H 	0.8503	0.9634	0.3579	0.011
Mof_C 	C 	0.84207	0.93677	0.32861	0.133
Mof_N 	N 	0.76561	0.09003	0.3851	-0.224
Mof_N 	N 	0.86325	0.14535	0.52309	-0.26
Mof_N 	N 	0.85068	0.12672	0.48243	-0.229
Mof_N 	N 	0.81309	0.09057	0.42908	-0.155
Mof_N 	N 	0.84658	0.07977	0.43858	-0.153
Mof_N 	N 	0.82774	0.06151	0.41246	-0.152
Mof_N 	N 	0.87827	0.02488	0.39926	-0.234
Mof_N 	N 	0.87452	0.97967	0.34916	-0.226
Mof_N 	N 	0.84297	0.00102	0.37707	-0.267
Mof_N 	N 	0.82751	0.93687	0.34343	-0.15
Mof_S 	S 	0.83435	0.17257	0.54017	-0.063
Mof_S 	S 	0.79975	0.99641	0.37921	-0.061
Mof_C 	C 	0.78178	0.1601	0.85166	0.037
Mof_H 	H 	0.7849	0.1476	0.8443	0.013
Mof_C 	C 	0.79417	0.17727	0.84811	-0.052
Mof_C 	C 	0.78951	0.19563	0.85817	0.01
Mof_H 	H 	0.7981	0.2076	0.8566	0.037
Mof_C 	C 	0.77202	0.19617	0.87062	-0.1
Mof_H 	H 	0.7676	0.2089	0.8767	0.066
Mof_C 	C 	0.76099	0.17829	0.87422	0.058
Mof_H 	H 	0.7496	0.1788	0.8837	0.001
Mof_C 	C 	0.85151	0.09342	0.719	0.098
Mof_C 	C 	0.83516	0.10933	0.76673	0.065
Mof_H 	H 	0.836	0.0988	0.7564	-0.003
Mof_C 	C 	0.8183	0.10923	0.77959	-0.107
Mof_H 	H 	0.8082	0.0985	0.7787	0.068
Mof_C 	C 	0.81624	0.12505	0.79389	0.014
Mof_H 	H 	0.8047	0.1255	0.8031	0.035
Mof_C 	C 	0.83154	0.14046	0.79454	-0.055
Mof_C 	C 	0.84801	0.13885	0.78115	0.043
Mof_H 	H 	0.8582	0.1495	0.7815	0.013
Mof_C 	C 	0.83004	0.15793	0.80983	0.142
Mof_C 	C 	0.84503	0.18522	0.8257	0.136
Mof_C 	C 	0.81253	0.17526	0.83463	0.139
Mof_C 	C 	0.86283	0.21236	0.84659	0.048
Mof_H 	H 	0.851	0.2126	0.8554	0.009
Mof_C 	C 	0.86298	0.19823	0.82962	-0.058
Mof_C 	C 	0.88086	0.19724	0.81788	0.018
Mof_H 	H 	0.8819	0.1877	0.8067	0.035
Mof_C 	C 	0.89724	0.21019	0.82249	-0.11
Mof_H 	H 	0.9098	0.2096	0.8148	0.071
Mof_C 	C 	0.89493	0.22413	0.83862	0.069
Mof_H 	H 	0.906	0.2336	0.8412	-0.002
Mof_C 	C 	0.82552	0.2511	0.8719	0.108
Mof_C 	C 	0.8878	0.26753	0.91748	0.052
Mof_H 	H 	0.8979	0.2568	0.9165	0.003
Mof_C 	C 	0.88726	0.27894	0.93479	-0.096
Mof_H 	H 	0.8972	0.2767	0.9455	0.066
Mof_C 	C 	0.87179	0.29439	0.93705	0.005
Mof_H 	H 	0.8707	0.3024	0.9494	0.039
Mof_C 	C 	0.85827	0.29744	0.92042	-0.053
Mof_C 	C 	0.86005	0.28479	0.90304	0.046
Mof_H 	H 	0.8503	0.2866	0.8921	0.011
Mof_C 	C 	0.84207	0.31323	0.92139	0.133
Mof_N 	N 	0.76561	0.15997	0.8649	-0.224
Mof_N 	N 	0.86325	0.10465	0.72691	-0.26
Mof_N 	N 	0.85068	0.12328	0.76757	-0.229
Mof_N 	N 	0.81309	0.15943	0.82092	-0.155
Mof_N 	N 	0.84658	0.17023	0.81142	-0.153
Mof_N 	N 	0.82774	0.18849	0.83754	-0.152
Mof_N 	N 	0.87827	0.22512	0.85074	-0.234
Mof_N 	N 	0.87452	0.27033	0.90084	-0.226
Mof_N 	N 	0.84297	0.24898	0.87293	-0.267
Mof_N 	N 	0.82751	0.31313	0.90657	-0.15
Mof_S 	S 	0.83435	0.07743	0.70983	-0.063
Mof_S 	S 	0.79975	0.25359	0.87079	-0.061
Mof_C 	C 	0.78178	0.6601	0.35166	0.037
Mof_H 	H 	0.7849	0.6476	0.3443	0.013
Mof_C 	C 	0.79417	0.67727	0.34811	-0.052
Mof_C 	C 	0.78951	0.69563	0.35817	0.01
Mof_H 	H 	0.7981	0.7076	0.3566	0.037
Mof_C 	C 	0.77202	0.69617	0.37062	-0.1
Mof_H 	H 	0.7676	0.7089	0.3767	0.066
Mof_C 	C 	0.76099	0.67829	0.37422	0.058
Mof_H 	H 	0.7496	0.6788	0.3837	0.001
Mof_C 	C 	0.85151	0.59342	0.219	0.098
Mof_C 	C 	0.83516	0.60933	0.26673	0.065
Mof_H 	H 	0.836	0.5988	0.2564	-0.003
Mof_C 	C 	0.8183	0.60923	0.27959	-0.107
Mof_H 	H 	0.8082	0.5985	0.2787	0.068
Mof_C 	C 	0.81624	0.62505	0.29389	0.014
Mof_H 	H 	0.8047	0.6255	0.3031	0.035
Mof_C 	C 	0.83154	0.64046	0.29454	-0.055
Mof_C 	C 	0.84801	0.63885	0.28115	0.043
Mof_H 	H 	0.8582	0.6495	0.2815	0.013
Mof_C 	C 	0.83004	0.65793	0.30983	0.142
Mof_C 	C 	0.84503	0.68522	0.3257	0.136
Mof_C 	C 	0.81253	0.67526	0.33463	0.139
Mof_C 	C 	0.86283	0.71236	0.34659	0.048
Mof_H 	H 	0.851	0.7126	0.3554	0.009
Mof_C 	C 	0.86298	0.69823	0.32962	-0.058
Mof_C 	C 	0.88086	0.69724	0.31788	0.018
Mof_H 	H 	0.8819	0.6877	0.3067	0.035
Mof_C 	C 	0.89724	0.71019	0.32249	-0.11
Mof_H 	H 	0.9098	0.7096	0.3148	0.071
Mof_C 	C 	0.89493	0.72413	0.33862	0.069
Mof_H 	H 	0.906	0.7336	0.3412	-0.002
Mof_C 	C 	0.82552	0.7511	0.3719	0.108
Mof_C 	C 	0.8878	0.76753	0.41748	0.052
Mof_H 	H 	0.8979	0.7568	0.4165	0.003
Mof_C 	C 	0.88726	0.77894	0.43479	-0.096
Mof_H 	H 	0.8972	0.7767	0.4455	0.066
Mof_C 	C 	0.87179	0.79439	0.43705	0.005
Mof_H 	H 	0.8707	0.8024	0.4494	0.039
Mof_C 	C 	0.85827	0.79744	0.42042	-0.053
Mof_C 	C 	0.86005	0.78479	0.40304	0.046
Mof_H 	H 	0.8503	0.7866	0.3921	0.011
Mof_C 	C 	0.84207	0.81323	0.42139	0.133
Mof_N 	N 	0.76561	0.65997	0.3649	-0.224
Mof_N 	N 	0.86325	0.60465	0.22691	-0.26
Mof_N 	N 	0.85068	0.62328	0.26757	-0.229
Mof_N 	N 	0.81309	0.65943	0.32092	-0.155
Mof_N 	N 	0.84658	0.67023	0.31142	-0.153
Mof_N 	N 	0.82774	0.68849	0.33754	-0.152
Mof_N 	N 	0.87827	0.72512	0.35074	-0.234
Mof_N 	N 	0.87452	0.77033	0.40084	-0.226
Mof_N 	N 	0.84297	0.74898	0.37293	-0.267
Mof_N 	N 	0.82751	0.81313	0.40657	-0.15
Mof_S 	S 	0.83435	0.57743	0.20983	-0.063
Mof_S 	S 	0.79975	0.75359	0.37079	-0.061
Mof_C 	C 	0.28178	0.1601	0.35166	0.037
Mof_H 	H 	0.2849	0.1476	0.3443	0.013
Mof_C 	C 	0.29417	0.17727	0.34811	-0.052
Mof_C 	C 	0.28951	0.19563	0.35817	0.01
Mof_H 	H 	0.2981	0.2076	0.3566	0.037
Mof_C 	C 	0.27202	0.19617	0.37062	-0.1
Mof_H 	H 	0.2676	0.2089	0.3767	0.066
Mof_C 	C 	0.26099	0.17829	0.37422	0.058
Mof_H 	H 	0.2496	0.1788	0.3837	0.001
Mof_C 	C 	0.35151	0.09342	0.219	0.098
Mof_C 	C 	0.33516	0.10933	0.26673	0.065
Mof_H 	H 	0.336	0.0988	0.2564	-0.003
Mof_C 	C 	0.3183	0.10923	0.27959	-0.107
Mof_H 	H 	0.3082	0.0985	0.2787	0.068
Mof_C 	C 	0.31624	0.12505	0.29389	0.014
Mof_H 	H 	0.3047	0.1255	0.3031	0.035
Mof_C 	C 	0.33154	0.14046	0.29454	-0.055
Mof_C 	C 	0.34801	0.13885	0.28115	0.043
Mof_H 	H 	0.3582	0.1495	0.2815	0.013
Mof_C 	C 	0.33004	0.15793	0.30983	0.142
Mof_C 	C 	0.34503	0.18522	0.3257	0.136
Mof_C 	C 	0.31253	0.17526	0.33463	0.139
Mof_C 	C 	0.36283	0.21236	0.34659	0.048
Mof_H 	H 	0.351	0.2126	0.3554	0.009
Mof_C 	C 	0.36298	0.19823	0.32962	-0.058
Mof_C 	C 	0.38086	0.19724	0.31788	0.018
Mof_H 	H 	0.3819	0.1877	0.3067	0.035
Mof_C 	C 	0.39724	0.21019	0.32249	-0.11
Mof_H 	H 	0.4098	0.2096	0.3148	0.071
Mof_C 	C 	0.39493	0.22413	0.33862	0.069
Mof_H 	H 	0.406	0.2336	0.3412	-0.002
Mof_C 	C 	0.32552	0.2511	0.3719	0.108
Mof_C 	C 	0.3878	0.26753	0.41748	0.052
Mof_H 	H 	0.3979	0.2568	0.4165	0.003
Mof_C 	C 	0.38726	0.27894	0.43479	-0.096
Mof_H 	H 	0.3972	0.2767	0.4455	0.066
Mof_C 	C 	0.37179	0.29439	0.43705	0.005
Mof_H 	H 	0.3707	0.3024	0.4494	0.039
Mof_C 	C 	0.35827	0.29744	0.42042	-0.053
Mof_C 	C 	0.36005	0.28479	0.40304	0.046
Mof_H 	H 	0.3503	0.2866	0.3921	0.011
Mof_C 	C 	0.34207	0.31323	0.42139	0.133
Mof_N 	N 	0.26561	0.15997	0.3649	-0.224
Mof_N 	N 	0.36325	0.10465	0.22691	-0.26
Mof_N 	N 	0.35068	0.12328	0.26757	-0.229
Mof_N 	N 	0.31309	0.15943	0.32092	-0.155
Mof_N 	N 	0.34658	0.17023	0.31142	-0.153
Mof_N 	N 	0.32774	0.18849	0.33754	-0.152
Mof_N 	N 	0.37827	0.22512	0.35074	-0.234
Mof_N 	N 	0.37452	0.27033	0.40084	-0.226
Mof_N 	N 	0.34297	0.24898	0.37293	-0.267
Mof_N 	N 	0.32751	0.31313	0.40657	-0.15
Mof_S 	S 	0.33435	0.07743	0.20983	-0.063
Mof_S 	S 	0.29975	0.25359	0.37079	-0.061
Mof_C 	C 	0.28178	0.6601	0.85166	0.037
Mof_H 	H 	0.2849	0.6476	0.8443	0.013
Mof_C 	C 	0.29417	0.67727	0.84811	-0.052
Mof_C 	C 	0.28951	0.69563	0.85817	0.01
Mof_H 	H 	0.2981	0.7076	0.8566	0.037
Mof_C 	C 	0.27202	0.69617	0.87062	-0.1
Mof_H 	H 	0.2676	0.7089	0.8767	0.066
Mof_C 	C 	0.26099	0.67829	0.87422	0.058
Mof_H 	H 	0.2496	0.6788	0.8837	0.001
Mof_C 	C 	0.35151	0.59342	0.719	0.098
Mof_C 	C 	0.33516	0.60933	0.76673	0.065
Mof_H 	H 	0.336	0.5988	0.7564	-0.003
Mof_C 	C 	0.3183	0.60923	0.77959	-0.107
Mof_H 	H 	0.3082	0.5985	0.7787	0.068
Mof_C 	C 	0.31624	0.62505	0.79389	0.014
Mof_H 	H 	0.3047	0.6255	0.8031	0.035
Mof_C 	C 	0.33154	0.64046	0.79454	-0.055
Mof_C 	C 	0.34801	0.63885	0.78115	0.043
Mof_H 	H 	0.3582	0.6495	0.7815	0.013
Mof_C 	C 	0.33004	0.65793	0.80983	0.142
Mof_C 	C 	0.34503	0.68522	0.8257	0.136
Mof_C 	C 	0.31253	0.67526	0.83463	0.139
Mof_C 	C 	0.36283	0.71236	0.84659	0.048
Mof_H 	H 	0.351	0.7126	0.8554	0.009
Mof_C 	C 	0.36298	0.69823	0.82962	-0.058
Mof_C 	C 	0.38086	0.69724	0.81788	0.018
Mof_H 	H 	0.3819	0.6877	0.8067	0.035
Mof_C 	C 	0.39724	0.71019	0.82249	-0.11
Mof_H 	H 	0.4098	0.7096	0.8148	0.071
Mof_C 	C 	0.39493	0.72413	0.83862	0.069
Mof_H 	H 	0.406	0.7336	0.8412	-0.002
Mof_C 	C 	0.32552	0.7511	0.8719	0.108
Mof_C 	C 	0.3878	0.76753	0.91748	0.052
Mof_H 	H 	0.3979	0.7568	0.9165	0.003
Mof_C 	C 	0.38726	0.77894	0.93479	-0.096
Mof_H 	H 	0.3972	0.7767	0.9455	0.066
Mof_C 	C 	0.37179	0.79439	0.93705	0.005
Mof_H 	H 	0.3707	0.8024	0.9494	0.039
Mof_C 	C 	0.35827	0.79744	0.92042	-0.053
Mof_C 	C 	0.36005	0.78479	0.90304	0.046
Mof_H 	H 	0.3503	0.7866	0.8921	0.011
Mof_C 	C 	0.34207	0.81323	0.92139	0.133
Mof_N 	N 	0.26561	0.65997	0.8649	-0.224
Mof_N 	N 	0.36325	0.60465	0.72691	-0.26
Mof_N 	N 	0.35068	0.62328	0.76757	-0.229
Mof_N 	N 	0.31309	0.65943	0.82092	-0.155
Mof_N 	N 	0.34658	0.67023	0.81142	-0.153
Mof_N 	N 	0.32774	0.68849	0.83754	-0.152
Mof_N 	N 	0.37827	0.72512	0.85074	-0.234
Mof_N 	N 	0.37452	0.77033	0.90084	-0.226
Mof_N 	N 	0.34297	0.74898	0.87293	-0.267
Mof_N 	N 	0.32751	0.81313	0.90657	-0.15
Mof_S 	S 	0.33435	0.57743	0.70983	-0.063
Mof_S 	S 	0.29975	0.75359	0.87079	-0.061
Mof_C 	C 	0.96822	0.0899	0.35166	0.038
Mof_H 	H 	0.9651	0.1024	0.3443	0.013
Mof_C 	C 	0.95583	0.07273	0.34811	-0.052
Mof_C 	C 	0.96049	0.05437	0.35817	0.01
Mof_H 	H 	0.9519	0.0424	0.3566	0.037
Mof_C 	C 	0.97798	0.05383	0.37062	-0.1
Mof_H 	H 	0.9824	0.0411	0.3767	0.066
Mof_C 	C 	0.98901	0.07171	0.37422	0.059
Mof_H 	H 	0.0004	0.0712	0.3837	0.001
Mof_C 	C 	0.89849	0.15658	0.219	0.098
Mof_C 	C 	0.91484	0.14067	0.26673	0.065
Mof_H 	H 	0.914	0.1512	0.2564	-0.003
Mof_C 	C 	0.9317	0.14077	0.27959	-0.107
Mof_H 	H 	0.9418	0.1515	0.2787	0.068
Mof_C 	C 	0.93376	0.12495	0.29389	0.014
Mof_H 	H 	0.9453	0.1245	0.3031	0.035
Mof_C 	C 	0.91846	0.10954	0.29454	-0.055
Mof_C 	C 	0.90199	0.11115	0.28115	0.043
Mof_H 	H 	0.8918	0.1005	0.2815	0.013
Mof_C 	C 	0.91996	0.09207	0.30983	0.142
Mof_C 	C 	0.90497	0.06478	0.3257	0.136
Mof_C 	C 	0.93747	0.07474	0.33463	0.139
Mof_C 	C 	0.88717	0.03764	0.34659	0.048
Mof_H 	H 	0.899	0.0374	0.3554	0.009
Mof_C 	C 	0.88702	0.05177	0.32962	-0.058
Mof_C 	C 	0.86914	0.05276	0.31788	0.018
Mof_H 	H 	0.8681	0.0623	0.3067	0.035
Mof_C 	C 	0.85276	0.03981	0.32249	-0.11
Mof_H 	H 	0.8402	0.0404	0.3148	0.071
Mof_C 	C 	0.85507	0.02587	0.33862	0.069
Mof_H 	H 	0.844	0.0164	0.3412	-0.002
Mof_C 	C 	0.92448	0.9989	0.3719	0.108
Mof_C 	C 	0.8622	0.98247	0.41748	0.052
Mof_H 	H 	0.8521	0.9932	0.4165	0.003
Mof_C 	C 	0.86274	0.97106	0.43479	-0.096
Mof_H 	H 	0.8528	0.9733	0.4455	0.066
Mof_C 	C 	0.87821	0.95561	0.43705	0.005
Mof_H 	H 	0.8793	0.9476	0.4494	0.039
Mof_C 	C 	0.89173	0.95256	0.42042	-0.053
Mof_C 	C 	0.88995	0.96521	0.40304	0.046
Mof_H 	H 	0.8997	0.9634	0.3921	0.011
Mof_C 	C 	0.90793	0.93677	0.42139	0.133
Mof_N 	N 	0.98439	0.09003	0.3649	-0.224
Mof_N 	N 	0.88675	0.14535	0.22691	-0.26
Mof_N 	N 	0.89932	0.12672	0.26757	-0.229
Mof_N 	N 	0.93691	0.09057	0.32092	-0.155
Mof_N 	N 	0.90342	0.07977	0.31142	-0.153
Mof_N 	N 	0.92226	0.06151	0.33754	-0.152
Mof_N 	N 	0.87173	0.02488	0.35074	-0.234
Mof_N 	N 	0.87548	0.97967	0.40084	-0.226
Mof_N 	N 	0.90703	0.00102	0.37293	-0.267
Mof_N 	N 	0.92249	0.93687	0.40657	-0.15
Mof_S 	S 	0.91565	0.17257	0.20983	-0.063
Mof_S 	S 	0.95025	0.99641	0.37079	-0.061
Mof_C 	C 	0.96822	0.5899	0.85166	0.038
Mof_H 	H 	0.9651	0.6024	0.8443	0.013
Mof_C 	C 	0.95583	0.57273	0.84811	-0.052
Mof_C 	C 	0.96049	0.55437	0.85817	0.01
Mof_H 	H 	0.9519	0.5424	0.8566	0.037
Mof_C 	C 	0.97798	0.55383	0.87062	-0.1
Mof_H 	H 	0.9824	0.5411	0.8767	0.066
Mof_C 	C 	0.98901	0.57171	0.87422	0.059
Mof_H 	H 	0.0004	0.5712	0.8837	0.001
Mof_C 	C 	0.89849	0.65658	0.719	0.098
Mof_C 	C 	0.91484	0.64067	0.76673	0.065
Mof_H 	H 	0.914	0.6512	0.7564	-0.003
Mof_C 	C 	0.9317	0.64077	0.77959	-0.107
Mof_H 	H 	0.9418	0.6515	0.7787	0.068
Mof_C 	C 	0.93376	0.62495	0.79389	0.014
Mof_H 	H 	0.9453	0.6245	0.8031	0.035
Mof_C 	C 	0.91846	0.60954	0.79454	-0.055
Mof_C 	C 	0.90199	0.61115	0.78115	0.043
Mof_H 	H 	0.8918	0.6005	0.7815	0.013
Mof_C 	C 	0.91996	0.59207	0.80983	0.142
Mof_C 	C 	0.90497	0.56478	0.8257	0.136
Mof_C 	C 	0.93747	0.57474	0.83463	0.139
Mof_C 	C 	0.88717	0.53764	0.84659	0.048
Mof_H 	H 	0.899	0.5374	0.8554	0.009
Mof_C 	C 	0.88702	0.55177	0.82962	-0.058
Mof_C 	C 	0.86914	0.55276	0.81788	0.018
Mof_H 	H 	0.8681	0.5623	0.8067	0.035
Mof_C 	C 	0.85276	0.53981	0.82249	-0.11
Mof_H 	H 	0.8402	0.5404	0.8148	0.071
Mof_C 	C 	0.85507	0.52587	0.83862	0.069
Mof_H 	H 	0.844	0.5164	0.8412	-0.002
Mof_C 	C 	0.92448	0.4989	0.8719	0.108
Mof_C 	C 	0.8622	0.48247	0.91748	0.052
Mof_H 	H 	0.8521	0.4932	0.9165	0.003
Mof_C 	C 	0.86274	0.47106	0.93479	-0.096
Mof_H 	H 	0.8528	0.4733	0.9455	0.066
Mof_C 	C 	0.87821	0.45561	0.93705	0.005
Mof_H 	H 	0.8793	0.4476	0.9494	0.039
Mof_C 	C 	0.89173	0.45256	0.92042	-0.053
Mof_C 	C 	0.88995	0.46521	0.90304	0.046
Mof_H 	H 	0.8997	0.4634	0.8921	0.011
Mof_C 	C 	0.90793	0.43677	0.92139	0.133
Mof_N 	N 	0.98439	0.59003	0.8649	-0.224
Mof_N 	N 	0.88675	0.64535	0.72691	-0.26
Mof_N 	N 	0.89932	0.62672	0.76757	-0.229
Mof_N 	N 	0.93691	0.59057	0.82092	-0.155
Mof_N 	N 	0.90342	0.57977	0.81142	-0.153
Mof_N 	N 	0.92226	0.56151	0.83754	-0.152
Mof_N 	N 	0.87173	0.52488	0.85074	-0.234
Mof_N 	N 	0.87548	0.47967	0.90084	-0.226
Mof_N 	N 	0.90703	0.50102	0.87293	-0.267
Mof_N 	N 	0.92249	0.43687	0.90657	-0.15
Mof_S 	S 	0.91565	0.67257	0.70983	-0.063
Mof_S 	S 	0.95025	0.49641	0.87079	-0.061
Mof_C 	C 	0.46822	0.0899	0.85166	0.037
Mof_H 	H 	0.4651	0.1024	0.8443	0.013
Mof_C 	C 	0.45583	0.07273	0.84811	-0.052
Mof_C 	C 	0.46049	0.05437	0.85817	0.01
Mof_H 	H 	0.4519	0.0424	0.8566	0.037
Mof_C 	C 	0.47798	0.05383	0.87062	-0.1
Mof_H 	H 	0.4824	0.0411	0.8767	0.066
Mof_C 	C 	0.48901	0.07171	0.87422	0.058
Mof_H 	H 	0.5004	0.0712	0.8837	0.001
Mof_C 	C 	0.39849	0.15658	0.719	0.098
Mof_C 	C 	0.41484	0.14067	0.76673	0.065
Mof_H 	H 	0.414	0.1512	0.7564	-0.003
Mof_C 	C 	0.4317	0.14077	0.77959	-0.107
Mof_H 	H 	0.4418	0.1515	0.7787	0.068
Mof_C 	C 	0.43376	0.12495	0.79389	0.014
Mof_H 	H 	0.4453	0.1245	0.8031	0.035
Mof_C 	C 	0.41846	0.10954	0.79454	-0.055
Mof_C 	C 	0.40199	0.11115	0.78115	0.043
Mof_H 	H 	0.3918	0.1005	0.7815	0.013
Mof_C 	C 	0.41996	0.09207	0.80983	0.142
Mof_C 	C 	0.40497	0.06478	0.8257	0.136
Mof_C 	C 	0.43747	0.07474	0.83463	0.139
Mof_C 	C 	0.38717	0.03764	0.84659	0.048
Mof_H 	H 	0.399	0.0374	0.8554	0.009
Mof_C 	C 	0.38702	0.05177	0.82962	-0.058
Mof_C 	C 	0.36914	0.05276	0.81788	0.018
Mof_H 	H 	0.3681	0.0623	0.8067	0.035
Mof_C 	C 	0.35276	0.03981	0.82249	-0.11
Mof_H 	H 	0.3402	0.0404	0.8148	0.071
Mof_C 	C 	0.35507	0.02587	0.83862	0.069
Mof_H 	H 	0.344	0.0164	0.8412	-0.002
Mof_C 	C 	0.42448	0.9989	0.8719	0.108
Mof_C 	C 	0.3622	0.98247	0.91748	0.052
Mof_H 	H 	0.3521	0.9932	0.9165	0.003
Mof_C 	C 	0.36274	0.97106	0.93479	-0.096
Mof_H 	H 	0.3528	0.9733	0.9455	0.066
Mof_C 	C 	0.37821	0.95561	0.93705	0.005
Mof_H 	H 	0.3793	0.9476	0.9494	0.039
Mof_C 	C 	0.39173	0.95256	0.92042	-0.053
Mof_C 	C 	0.38995	0.96521	0.90304	0.046
Mof_H 	H 	0.3997	0.9634	0.8921	0.011
Mof_C 	C 	0.40793	0.93677	0.92139	0.133
Mof_N 	N 	0.48439	0.09003	0.8649	-0.224
Mof_N 	N 	0.38675	0.14535	0.72691	-0.26
Mof_N 	N 	0.39932	0.12672	0.76757	-0.229
Mof_N 	N 	0.43691	0.09057	0.82092	-0.155
Mof_N 	N 	0.40342	0.07977	0.81142	-0.153
Mof_N 	N 	0.42226	0.06151	0.83754	-0.152
Mof_N 	N 	0.37173	0.02488	0.85074	-0.234
Mof_N 	N 	0.37548	0.97967	0.90084	-0.226
Mof_N 	N 	0.40703	0.00102	0.87293	-0.267
Mof_N 	N 	0.42249	0.93687	0.90657	-0.15
Mof_S 	S 	0.41565	0.17257	0.70983	-0.063
Mof_S 	S 	0.45025	0.99641	0.87079	-0.061
Mof_C 	C 	0.46822	0.5899	0.35166	0.037
Mof_H 	H 	0.4651	0.6024	0.3443	0.013
Mof_C 	C 	0.45583	0.57273	0.34811	-0.052
Mof_C 	C 	0.46049	0.55437	0.35817	0.01
Mof_H 	H 	0.4519	0.5424	0.3566	0.037
Mof_C 	C 	0.47798	0.55383	0.37062	-0.1
Mof_H 	H 	0.4824	0.5411	0.3767	0.066
Mof_C 	C 	0.48901	0.57171	0.37422	0.058
Mof_H 	H 	0.5004	0.5712	0.3837	0.001
Mof_C 	C 	0.39849	0.65658	0.219	0.098
Mof_C 	C 	0.41484	0.64067	0.26673	0.065
Mof_H 	H 	0.414	0.6512	0.2564	-0.003
Mof_C 	C 	0.4317	0.64077	0.27959	-0.107
Mof_H 	H 	0.4418	0.6515	0.2787	0.068
Mof_C 	C 	0.43376	0.62495	0.29389	0.014
Mof_H 	H 	0.4453	0.6245	0.3031	0.035
Mof_C 	C 	0.41846	0.60954	0.29454	-0.055
Mof_C 	C 	0.40199	0.61115	0.28115	0.043
Mof_H 	H 	0.3918	0.6005	0.2815	0.013
Mof_C 	C 	0.41996	0.59207	0.30983	0.142
Mof_C 	C 	0.40497	0.56478	0.3257	0.136
Mof_C 	C 	0.43747	0.57474	0.33463	0.139
Mof_C 	C 	0.38717	0.53764	0.34659	0.048
Mof_H 	H 	0.399	0.5374	0.3554	0.009
Mof_C 	C 	0.38702	0.55177	0.32962	-0.058
Mof_C 	C 	0.36914	0.55276	0.31788	0.018
Mof_H 	H 	0.3681	0.5623	0.3067	0.035
Mof_C 	C 	0.35276	0.53981	0.32249	-0.11
Mof_H 	H 	0.3402	0.5404	0.3148	0.071
Mof_C 	C 	0.35507	0.52587	0.33862	0.069
Mof_H 	H 	0.344	0.5164	0.3412	-0.002
Mof_C 	C 	0.42448	0.4989	0.3719	0.108
Mof_C 	C 	0.3622	0.48247	0.41748	0.052
Mof_H 	H 	0.3521	0.4932	0.4165	0.003
Mof_C 	C 	0.36274	0.47106	0.43479	-0.096
Mof_H 	H 	0.3528	0.4733	0.4455	0.066
Mof_C 	C 	0.37821	0.45561	0.43705	0.005
Mof_H 	H 	0.3793	0.4476	0.4494	0.039
Mof_C 	C 	0.39173	0.45256	0.42042	-0.053
Mof_C 	C 	0.38995	0.46521	0.40304	0.046
Mof_H 	H 	0.3997	0.4634	0.3921	0.011
Mof_C 	C 	0.40793	0.43677	0.42139	0.133
Mof_N 	N 	0.48439	0.59003	0.3649	-0.224
Mof_N 	N 	0.38675	0.64535	0.22691	-0.26
Mof_N 	N 	0.39932	0.62672	0.26757	-0.229
Mof_N 	N 	0.43691	0.59057	0.32092	-0.155
Mof_N 	N 	0.40342	0.57977	0.31142	-0.153
Mof_N 	N 	0.42226	0.56151	0.33754	-0.152
Mof_N 	N 	0.37173	0.52488	0.35074	-0.234
Mof_N 	N 	0.37548	0.47967	0.40084	-0.226
Mof_N 	N 	0.40703	0.50102	0.37293	-0.267
Mof_N 	N 	0.42249	0.43687	0.40657	-0.15
Mof_S 	S 	0.41565	0.67257	0.20983	-0.063
Mof_S 	S 	0.45025	0.49641	0.37079	-0.061
Mof_C 	C 	0.89834	0.46822	0.6601	0.037
Mof_H 	H 	0.9057	0.4651	0.6476	0.013
Mof_C 	C 	0.90189	0.45583	0.67727	-0.052
Mof_C 	C 	0.89183	0.46049	0.69563	0.01
Mof_H 	H 	0.8934	0.4519	0.7076	0.037
Mof_C 	C 	0.87938	0.47798	0.69617	-0.1
Mof_H 	H 	0.8733	0.4824	0.7089	0.066
Mof_C 	C 	0.87578	0.48901	0.67829	0.058
Mof_H 	H 	0.8663	0.5004	0.6788	0.001
Mof_C 	C 	0.031	0.39849	0.59342	0.098
Mof_C 	C 	0.98327	0.41484	0.60933	0.065
Mof_H 	H 	0.9936	0.414	0.5988	-0.003
Mof_C 	C 	0.97041	0.4317	0.60923	-0.107
Mof_H 	H 	0.9713	0.4418	0.5985	0.068
Mof_C 	C 	0.95611	0.43376	0.62505	0.014
Mof_H 	H 	0.9469	0.4453	0.6255	0.035
Mof_C 	C 	0.95546	0.41846	0.64046	-0.055
Mof_C 	C 	0.96885	0.40199	0.63885	0.043
Mof_H 	H 	0.9685	0.3918	0.6495	0.013
Mof_C 	C 	0.94017	0.41996	0.65793	0.142
Mof_C 	C 	0.9243	0.40497	0.68522	0.136
Mof_C 	C 	0.91537	0.43747	0.67526	0.139
Mof_C 	C 	0.90341	0.38717	0.71236	0.048
Mof_H 	H 	0.8946	0.399	0.7126	0.009
Mof_C 	C 	0.92038	0.38702	0.69823	-0.058
Mof_C 	C 	0.93212	0.36914	0.69724	0.018
Mof_H 	H 	0.9433	0.3681	0.6877	0.035
Mof_C 	C 	0.92751	0.35276	0.71019	-0.11
Mof_H 	H 	0.9352	0.3402	0.7096	0.071
Mof_C 	C 	0.91138	0.35507	0.72413	0.069
Mof_H 	H 	0.9088	0.344	0.7336	-0.002
Mof_C 	C 	0.8781	0.42448	0.7511	0.108
Mof_C 	C 	0.83252	0.3622	0.76753	0.052
Mof_H 	H 	0.8335	0.3521	0.7568	0.003
Mof_C 	C 	0.81521	0.36274	0.77894	-0.096
Mof_H 	H 	0.8045	0.3528	0.7767	0.066
Mof_C 	C 	0.81295	0.37821	0.79439	0.005
Mof_H 	H 	0.8006	0.3793	0.8024	0.039
Mof_C 	C 	0.82958	0.39173	0.79744	-0.053
Mof_C 	C 	0.84696	0.38995	0.78479	0.046
Mof_H 	H 	0.8579	0.3997	0.7866	0.011
Mof_C 	C 	0.82861	0.40793	0.81323	0.133
Mof_N 	N 	0.8851	0.48439	0.65997	-0.224
Mof_N 	N 	0.02309	0.38675	0.60465	-0.26
Mof_N 	N 	0.98243	0.39932	0.62328	-0.229
Mof_N 	N 	0.92908	0.43691	0.65943	-0.155
Mof_N 	N 	0.93858	0.40342	0.67023	-0.153
Mof_N 	N 	0.91246	0.42226	0.68849	-0.152
Mof_N 	N 	0.89926	0.37173	0.72512	-0.234
Mof_N 	N 	0.84916	0.37548	0.77033	-0.226
Mof_N 	N 	0.87707	0.40703	0.74898	-0.267
Mof_N 	N 	0.84343	0.42249	0.81313	-0.15
Mof_S 	S 	0.04017	0.41565	0.57743	-0.063
Mof_S 	S 	0.87921	0.45025	0.75359	-0.061
Mof_C 	C 	0.89834	0.96822	0.1601	0.038
Mof_H 	H 	0.9057	0.9651	0.1476	0.013
Mof_C 	C 	0.90189	0.95583	0.17727	-0.052
Mof_C 	C 	0.89183	0.96049	0.19563	0.01
Mof_H 	H 	0.8934	0.9519	0.2076	0.037
Mof_C 	C 	0.87938	0.97798	0.19617	-0.1
Mof_H 	H 	0.8733	0.9824	0.2089	0.066
Mof_C 	C 	0.87578	0.98901	0.17829	0.059
Mof_H 	H 	0.8663	0.0004	0.1788	0.001
Mof_C 	C 	0.031	0.89849	0.09342	0.098
Mof_C 	C 	0.98327	0.91484	0.10933	0.065
Mof_H 	H 	0.9936	0.914	0.0988	-0.003
Mof_C 	C 	0.97041	0.9317	0.10923	-0.107
Mof_H 	H 	0.9713	0.9418	0.0985	0.068
Mof_C 	C 	0.95611	0.93376	0.12505	0.014
Mof_H 	H 	0.9469	0.9453	0.1255	0.036
Mof_C 	C 	0.95546	0.91846	0.14046	-0.055
Mof_C 	C 	0.96885	0.90199	0.13885	0.043
Mof_H 	H 	0.9685	0.8918	0.1495	0.013
Mof_C 	C 	0.94017	0.91996	0.15793	0.142
Mof_C 	C 	0.9243	0.90497	0.18522	0.136
Mof_C 	C 	0.91537	0.93747	0.17526	0.139
Mof_C 	C 	0.90341	0.88717	0.21236	0.048
Mof_H 	H 	0.8946	0.899	0.2126	0.009
Mof_C 	C 	0.92038	0.88702	0.19823	-0.058
Mof_C 	C 	0.93212	0.86914	0.19724	0.018
Mof_H 	H 	0.9433	0.8681	0.1877	0.035
Mof_C 	C 	0.92751	0.85276	0.21019	-0.11
Mof_H 	H 	0.9352	0.8402	0.2096	0.071
Mof_C 	C 	0.91138	0.85507	0.22413	0.069
Mof_H 	H 	0.9088	0.844	0.2336	-0.002
Mof_C 	C 	0.8781	0.92448	0.2511	0.108
Mof_C 	C 	0.83252	0.8622	0.26753	0.052
Mof_H 	H 	0.8335	0.8521	0.2568	0.003
Mof_C 	C 	0.81521	0.86274	0.27894	-0.096
Mof_H 	H 	0.8045	0.8528	0.2767	0.066
Mof_C 	C 	0.81295	0.87821	0.29439	0.005
Mof_H 	H 	0.8006	0.8793	0.3024	0.039
Mof_C 	C 	0.82958	0.89173	0.29744	-0.053
Mof_C 	C 	0.84696	0.88995	0.28479	0.046
Mof_H 	H 	0.8579	0.8997	0.2866	0.011
Mof_C 	C 	0.82861	0.90793	0.31323	0.133
Mof_N 	N 	0.8851	0.98439	0.15997	-0.224
Mof_N 	N 	0.02309	0.88675	0.10465	-0.26
Mof_N 	N 	0.98243	0.89932	0.12328	-0.229
Mof_N 	N 	0.92908	0.93691	0.15943	-0.155
Mof_N 	N 	0.93858	0.90342	0.17023	-0.153
Mof_N 	N 	0.91246	0.92226	0.18849	-0.152
Mof_N 	N 	0.89926	0.87173	0.22512	-0.234
Mof_N 	N 	0.84916	0.87548	0.27033	-0.226
Mof_N 	N 	0.87707	0.90703	0.24898	-0.267
Mof_N 	N 	0.84343	0.92249	0.31313	-0.15
Mof_S 	S 	0.04017	0.91565	0.07743	-0.063
Mof_S 	S 	0.87921	0.95025	0.25359	-0.061
Mof_C 	C 	0.39834	0.46822	0.1601	0.037
Mof_H 	H 	0.4057	0.4651	0.1476	0.013
Mof_C 	C 	0.40189	0.45583	0.17727	-0.052
Mof_C 	C 	0.39183	0.46049	0.19563	0.01
Mof_H 	H 	0.3934	0.4519	0.2076	0.037
Mof_C 	C 	0.37938	0.47798	0.19617	-0.1
Mof_H 	H 	0.3733	0.4824	0.2089	0.066
Mof_C 	C 	0.37578	0.48901	0.17829	0.058
Mof_H 	H 	0.3663	0.5004	0.1788	0.001
Mof_C 	C 	0.531	0.39849	0.09342	0.098
Mof_C 	C 	0.48327	0.41484	0.10933	0.065
Mof_H 	H 	0.4936	0.414	0.0988	-0.003
Mof_C 	C 	0.47041	0.4317	0.10923	-0.107
Mof_H 	H 	0.4713	0.4418	0.0985	0.068
Mof_C 	C 	0.45611	0.43376	0.12505	0.014
Mof_H 	H 	0.4469	0.4453	0.1255	0.035
Mof_C 	C 	0.45546	0.41846	0.14046	-0.055
Mof_C 	C 	0.46885	0.40199	0.13885	0.043
Mof_H 	H 	0.4685	0.3918	0.1495	0.013
Mof_C 	C 	0.44017	0.41996	0.15793	0.142
Mof_C 	C 	0.4243	0.40497	0.18522	0.136
Mof_C 	C 	0.41537	0.43747	0.17526	0.139
Mof_C 	C 	0.40341	0.38717	0.21236	0.048
Mof_H 	H 	0.3946	0.399	0.2126	0.009
Mof_C 	C 	0.42038	0.38702	0.19823	-0.058
Mof_C 	C 	0.43212	0.36914	0.19724	0.018
Mof_H 	H 	0.4433	0.3681	0.1877	0.035
Mof_C 	C 	0.42751	0.35276	0.21019	-0.11
Mof_H 	H 	0.4352	0.3402	0.2096	0.071
Mof_C 	C 	0.41138	0.35507	0.22413	0.069
Mof_H 	H 	0.4088	0.344	0.2336	-0.002
Mof_C 	C 	0.3781	0.42448	0.2511	0.108
Mof_C 	C 	0.33252	0.3622	0.26753	0.052
Mof_H 	H 	0.3335	0.3521	0.2568	0.003
Mof_C 	C 	0.31521	0.36274	0.27894	-0.096
Mof_H 	H 	0.3045	0.3528	0.2767	0.066
Mof_C 	C 	0.31295	0.37821	0.29439	0.005
Mof_H 	H 	0.3006	0.3793	0.3024	0.039
Mof_C 	C 	0.32958	0.39173	0.29744	-0.053
Mof_C 	C 	0.34696	0.38995	0.28479	0.046
Mof_H 	H 	0.3579	0.3997	0.2866	0.011
Mof_C 	C 	0.32861	0.40793	0.31323	0.133
Mof_N 	N 	0.3851	0.48439	0.15997	-0.224
Mof_N 	N 	0.52309	0.38675	0.10465	-0.26
Mof_N 	N 	0.48243	0.39932	0.12328	-0.229
Mof_N 	N 	0.42908	0.43691	0.15943	-0.155
Mof_N 	N 	0.43858	0.40342	0.17023	-0.153
Mof_N 	N 	0.41246	0.42226	0.18849	-0.152
Mof_N 	N 	0.39926	0.37173	0.22512	-0.234
Mof_N 	N 	0.34916	0.37548	0.27033	-0.226
Mof_N 	N 	0.37707	0.40703	0.24898	-0.267
Mof_N 	N 	0.34343	0.42249	0.31313	-0.15
Mof_S 	S 	0.54017	0.41565	0.07743	-0.063
Mof_S 	S 	0.37921	0.45025	0.25359	-0.061
Mof_C 	C 	0.39834	0.96822	0.6601	0.038
Mof_H 	H 	0.4057	0.9651	0.6476	0.013
Mof_C 	C 	0.40189	0.95583	0.67727	-0.052
Mof_C 	C 	0.39183	0.96049	0.69563	0.01
Mof_H 	H 	0.3934	0.9519	0.7076	0.037
Mof_C 	C 	0.37938	0.97798	0.69617	-0.1
Mof_H 	H 	0.3733	0.9824	0.7089	0.066
Mof_C 	C 	0.37578	0.98901	0.67829	0.059
Mof_H 	H 	0.3663	0.0004	0.6788	0.001
Mof_C 	C 	0.531	0.89849	0.59342	0.098
Mof_C 	C 	0.48327	0.91484	0.60933	0.065
Mof_H 	H 	0.4936	0.914	0.5988	-0.003
Mof_C 	C 	0.47041	0.9317	0.60923	-0.107
Mof_H 	H 	0.4713	0.9418	0.5985	0.068
Mof_C 	C 	0.45611	0.93376	0.62505	0.014
Mof_H 	H 	0.4469	0.9453	0.6255	0.035
Mof_C 	C 	0.45546	0.91846	0.64046	-0.055
Mof_C 	C 	0.46885	0.90199	0.63885	0.043
Mof_H 	H 	0.4685	0.8918	0.6495	0.013
Mof_C 	C 	0.44017	0.91996	0.65793	0.142
Mof_C 	C 	0.4243	0.90497	0.68522	0.136
Mof_C 	C 	0.41537	0.93747	0.67526	0.139
Mof_C 	C 	0.40341	0.88717	0.71236	0.048
Mof_H 	H 	0.3946	0.899	0.7126	0.009
Mof_C 	C 	0.42038	0.88702	0.69823	-0.058
Mof_C 	C 	0.43212	0.86914	0.69724	0.018
Mof_H 	H 	0.4433	0.8681	0.6877	0.035
Mof_C 	C 	0.42751	0.85276	0.71019	-0.11
Mof_H 	H 	0.4352	0.8402	0.7096	0.071
Mof_C 	C 	0.41138	0.85507	0.72413	0.069
Mof_H 	H 	0.4088	0.844	0.7336	-0.002
Mof_C 	C 	0.3781	0.92448	0.7511	0.108
Mof_C 	C 	0.33252	0.8622	0.76753	0.052
Mof_H 	H 	0.3335	0.8521	0.7568	0.003
Mof_C 	C 	0.31521	0.86274	0.77894	-0.096
Mof_H 	H 	0.3045	0.8528	0.7767	0.066
Mof_C 	C 	0.31295	0.87821	0.79439	0.005
Mof_H 	H 	0.3006	0.8793	0.8024	0.039
Mof_C 	C 	0.32958	0.89173	0.79744	-0.053
Mof_C 	C 	0.34696	0.88995	0.78479	0.046
Mof_H 	H 	0.3579	0.8997	0.7866	0.011
Mof_C 	C 	0.32861	0.90793	0.81323	0.133
Mof_N 	N 	0.3851	0.98439	0.65997	-0.224
Mof_N 	N 	0.52309	0.88675	0.60465	-0.26
Mof_N 	N 	0.48243	0.89932	0.62328	-0.229
Mof_N 	N 	0.42908	0.93691	0.65943	-0.155
Mof_N 	N 	0.43858	0.90342	0.67023	-0.153
Mof_N 	N 	0.41246	0.92226	0.68849	-0.152
Mof_N 	N 	0.39926	0.87173	0.72512	-0.234
Mof_N 	N 	0.34916	0.87548	0.77033	-0.226
Mof_N 	N 	0.37707	0.90703	0.74898	-0.267
Mof_N 	N 	0.34343	0.92249	0.81313	-0.15
Mof_S 	S 	0.54017	0.91565	0.57743	-0.063
Mof_S 	S 	0.37921	0.95025	0.75359	-0.061
Mof_C 	C 	0.39834	0.28178	0.5899	0.037
Mof_H 	H 	0.4057	0.2849	0.6024	0.013
Mof_C 	C 	0.40189	0.29417	0.57273	-0.052
Mof_C 	C 	0.39183	0.28951	0.55437	0.01
Mof_H 	H 	0.3934	0.2981	0.5424	0.037
Mof_C 	C 	0.37938	0.27202	0.55383	-0.1
Mof_H 	H 	0.3733	0.2676	0.5411	0.066
Mof_C 	C 	0.37578	0.26099	0.57171	0.058
Mof_H 	H 	0.3663	0.2496	0.5712	0.001
Mof_C 	C 	0.531	0.35151	0.65658	0.098
Mof_C 	C 	0.48327	0.33516	0.64067	0.065
Mof_H 	H 	0.4936	0.336	0.6512	-0.003
Mof_C 	C 	0.47041	0.3183	0.64077	-0.107
Mof_H 	H 	0.4713	0.3082	0.6515	0.068
Mof_C 	C 	0.45611	0.31624	0.62495	0.014
Mof_H 	H 	0.4469	0.3047	0.6245	0.035
Mof_C 	C 	0.45546	0.33154	0.60954	-0.055
Mof_C 	C 	0.46885	0.34801	0.61115	0.043
Mof_H 	H 	0.4685	0.3582	0.6005	0.013
Mof_C 	C 	0.44017	0.33004	0.59207	0.142
Mof_C 	C 	0.4243	0.34503	0.56478	0.136
Mof_C 	C 	0.41537	0.31253	0.57474	0.139
Mof_C 	C 	0.40341	0.36283	0.53764	0.048
Mof_H 	H 	0.3946	0.351	0.5374	0.009
Mof_C 	C 	0.42038	0.36298	0.55177	-0.058
Mof_C 	C 	0.43212	0.38086	0.55276	0.018
Mof_H 	H 	0.4433	0.3819	0.5623	0.035
Mof_C 	C 	0.42751	0.39724	0.53981	-0.11
Mof_H 	H 	0.4352	0.4098	0.5404	0.071
Mof_C 	C 	0.41138	0.39493	0.52587	0.069
Mof_H 	H 	0.4088	0.406	0.5164	-0.002
Mof_C 	C 	0.3781	0.32552	0.4989	0.108
Mof_C 	C 	0.33252	0.3878	0.48247	0.052
Mof_H 	H 	0.3335	0.3979	0.4932	0.003
Mof_C 	C 	0.31521	0.38726	0.47106	-0.096
Mof_H 	H 	0.3045	0.3972	0.4733	0.066
Mof_C 	C 	0.31295	0.37179	0.45561	0.005
Mof_H 	H 	0.3006	0.3707	0.4476	0.039
Mof_C 	C 	0.32958	0.35827	0.45256	-0.053
Mof_C 	C 	0.34696	0.36005	0.46521	0.046
Mof_H 	H 	0.3579	0.3503	0.4634	0.011
Mof_C 	C 	0.32861	0.34207	0.43677	0.133
Mof_N 	N 	0.3851	0.26561	0.59003	-0.224
Mof_N 	N 	0.52309	0.36325	0.64535	-0.26
Mof_N 	N 	0.48243	0.35068	0.62672	-0.229
Mof_N 	N 	0.42908	0.31309	0.59057	-0.155
Mof_N 	N 	0.43858	0.34658	0.57977	-0.153
Mof_N 	N 	0.41246	0.32774	0.56151	-0.152
Mof_N 	N 	0.39926	0.37827	0.52488	-0.234
Mof_N 	N 	0.34916	0.37452	0.47967	-0.226
Mof_N 	N 	0.37707	0.34297	0.50102	-0.267
Mof_N 	N 	0.34343	0.32751	0.43687	-0.15
Mof_S 	S 	0.54017	0.33435	0.67257	-0.063
Mof_S 	S 	0.37921	0.29975	0.49641	-0.061
Mof_C 	C 	0.39834	0.78178	0.0899	0.037
Mof_H 	H 	0.4057	0.7849	0.1024	0.013
Mof_C 	C 	0.40189	0.79417	0.07273	-0.052
Mof_C 	C 	0.39183	0.78951	0.05437	0.01
Mof_H 	H 	0.3934	0.7981	0.0424	0.037
Mof_C 	C 	0.37938	0.77202	0.05383	-0.1
Mof_H 	H 	0.3733	0.7676	0.0411	0.066
Mof_C 	C 	0.37578	0.76099	0.07171	0.058
Mof_H 	H 	0.3663	0.7496	0.0712	0.001
Mof_C 	C 	0.531	0.85151	0.15658	0.098
Mof_C 	C 	0.48327	0.83516	0.14067	0.065
Mof_H 	H 	0.4936	0.836	0.1512	-0.003
Mof_C 	C 	0.47041	0.8183	0.14077	-0.107
Mof_H 	H 	0.4713	0.8082	0.1515	0.068
Mof_C 	C 	0.45611	0.81624	0.12495	0.014
Mof_H 	H 	0.4469	0.8047	0.1245	0.035
Mof_C 	C 	0.45546	0.83154	0.10954	-0.055
Mof_C 	C 	0.46885	0.84801	0.11115	0.043
Mof_H 	H 	0.4685	0.8582	0.1005	0.013
Mof_C 	C 	0.44017	0.83004	0.09207	0.142
Mof_C 	C 	0.4243	0.84503	0.06478	0.136
Mof_C 	C 	0.41537	0.81253	0.07474	0.139
Mof_C 	C 	0.40341	0.86283	0.03764	0.048
Mof_H 	H 	0.3946	0.851	0.0374	0.009
Mof_C 	C 	0.42038	0.86298	0.05177	-0.058
Mof_C 	C 	0.43212	0.88086	0.05276	0.018
Mof_H 	H 	0.4433	0.8819	0.0623	0.035
Mof_C 	C 	0.42751	0.89724	0.03981	-0.11
Mof_H 	H 	0.4352	0.9098	0.0404	0.071
Mof_C 	C 	0.41138	0.89493	0.02587	0.069
Mof_H 	H 	0.4088	0.906	0.0164	-0.002
Mof_C 	C 	0.3781	0.82552	0.9989	0.108
Mof_C 	C 	0.33252	0.8878	0.98247	0.052
Mof_H 	H 	0.3335	0.8979	0.9932	0.003
Mof_C 	C 	0.31521	0.88726	0.97106	-0.096
Mof_H 	H 	0.3045	0.8972	0.9733	0.066
Mof_C 	C 	0.31295	0.87179	0.95561	0.005
Mof_H 	H 	0.3006	0.8707	0.9476	0.039
Mof_C 	C 	0.32958	0.85827	0.95256	-0.053
Mof_C 	C 	0.34696	0.86005	0.96521	0.046
Mof_H 	H 	0.3579	0.8503	0.9634	0.011
Mof_C 	C 	0.32861	0.84207	0.93677	0.133
Mof_N 	N 	0.3851	0.76561	0.09003	-0.224
Mof_N 	N 	0.52309	0.86325	0.14535	-0.26
Mof_N 	N 	0.48243	0.85068	0.12672	-0.229
Mof_N 	N 	0.42908	0.81309	0.09057	-0.155
Mof_N 	N 	0.43858	0.84658	0.07977	-0.153
Mof_N 	N 	0.41246	0.82774	0.06151	-0.152
Mof_N 	N 	0.39926	0.87827	0.02488	-0.234
Mof_N 	N 	0.34916	0.87452	0.97967	-0.226
Mof_N 	N 	0.37707	0.84297	0.00102	-0.267
Mof_N 	N 	0.34343	0.82751	0.93687	-0.15
Mof_S 	S 	0.54017	0.83435	0.17257	-0.063
Mof_S 	S 	0.37921	0.79975	0.99641	-0.061
Mof_C 	C 	0.89834	0.28178	0.0899	0.037
Mof_H 	H 	0.9057	0.2849	0.1024	0.013
Mof_C 	C 	0.90189	0.29417	0.07273	-0.052
Mof_C 	C 	0.89183	0.28951	0.05437	0.01
Mof_H 	H 	0.8934	0.2981	0.0424	0.037
Mof_C 	C 	0.87938	0.27202	0.05383	-0.1
Mof_H 	H 	0.8733	0.2676	0.0411	0.066
Mof_C 	C 	0.87578	0.26099	0.07171	0.058
Mof_H 	H 	0.8663	0.2496	0.0712	0.001
Mof_C 	C 	0.031	0.35151	0.15658	0.098
Mof_C 	C 	0.98327	0.33516	0.14067	0.065
Mof_H 	H 	0.9936	0.336	0.1512	-0.003
Mof_C 	C 	0.97041	0.3183	0.14077	-0.107
Mof_H 	H 	0.9713	0.3082	0.1515	0.068
Mof_C 	C 	0.95611	0.31624	0.12495	0.014
Mof_H 	H 	0.9469	0.3047	0.1245	0.035
Mof_C 	C 	0.95546	0.33154	0.10954	-0.055
Mof_C 	C 	0.96885	0.34801	0.11115	0.043
Mof_H 	H 	0.9685	0.3582	0.1005	0.013
Mof_C 	C 	0.94017	0.33004	0.09207	0.142
Mof_C 	C 	0.9243	0.34503	0.06478	0.136
Mof_C 	C 	0.91537	0.31253	0.07474	0.139
Mof_C 	C 	0.90341	0.36283	0.03764	0.048
Mof_H 	H 	0.8946	0.351	0.0374	0.009
Mof_C 	C 	0.92038	0.36298	0.05177	-0.058
Mof_C 	C 	0.93212	0.38086	0.05276	0.018
Mof_H 	H 	0.9433	0.3819	0.0623	0.035
Mof_C 	C 	0.92751	0.39724	0.03981	-0.11
Mof_H 	H 	0.9352	0.4098	0.0404	0.071
Mof_C 	C 	0.91138	0.39493	0.02587	0.069
Mof_H 	H 	0.9088	0.406	0.0164	-0.002
Mof_C 	C 	0.8781	0.32552	0.9989	0.108
Mof_C 	C 	0.83252	0.3878	0.98247	0.052
Mof_H 	H 	0.8335	0.3979	0.9932	0.003
Mof_C 	C 	0.81521	0.38726	0.97106	-0.096
Mof_H 	H 	0.8045	0.3972	0.9733	0.066
Mof_C 	C 	0.81295	0.37179	0.95561	0.005
Mof_H 	H 	0.8006	0.3707	0.9476	0.039
Mof_C 	C 	0.82958	0.35827	0.95256	-0.053
Mof_C 	C 	0.84696	0.36005	0.96521	0.046
Mof_H 	H 	0.8579	0.3503	0.9634	0.011
Mof_C 	C 	0.82861	0.34207	0.93677	0.133
Mof_N 	N 	0.8851	0.26561	0.09003	-0.224
Mof_N 	N 	0.02309	0.36325	0.14535	-0.26
Mof_N 	N 	0.98243	0.35068	0.12672	-0.229
Mof_N 	N 	0.92908	0.31309	0.09057	-0.155
Mof_N 	N 	0.93858	0.34658	0.07977	-0.153
Mof_N 	N 	0.91246	0.32774	0.06151	-0.152
Mof_N 	N 	0.89926	0.37827	0.02488	-0.234
Mof_N 	N 	0.84916	0.37452	0.97967	-0.226
Mof_N 	N 	0.87707	0.34297	0.00102	-0.267
Mof_N 	N 	0.84343	0.32751	0.93687	-0.15
Mof_S 	S 	0.04017	0.33435	0.17257	-0.063
Mof_S 	S 	0.87921	0.29975	0.99641	-0.061
Mof_C 	C 	0.89834	0.78178	0.5899	0.037
Mof_H 	H 	0.9057	0.7849	0.6024	0.013
Mof_C 	C 	0.90189	0.79417	0.57273	-0.052
Mof_C 	C 	0.89183	0.78951	0.55437	0.01
Mof_H 	H 	0.8934	0.7981	0.5424	0.037
Mof_C 	C 	0.87938	0.77202	0.55383	-0.1
Mof_H 	H 	0.8733	0.7676	0.5411	0.066
Mof_C 	C 	0.87578	0.76099	0.57171	0.058
Mof_H 	H 	0.8663	0.7496	0.5712	0.001
Mof_C 	C 	0.031	0.85151	0.65658	0.098
Mof_C 	C 	0.98327	0.83516	0.64067	0.065
Mof_H 	H 	0.9936	0.836	0.6512	-0.003
Mof_C 	C 	0.97041	0.8183	0.64077	-0.107
Mof_H 	H 	0.9713	0.8082	0.6515	0.068
Mof_C 	C 	0.95611	0.81624	0.62495	0.014
Mof_H 	H 	0.9469	0.8047	0.6245	0.035
Mof_C 	C 	0.95546	0.83154	0.60954	-0.055
Mof_C 	C 	0.96885	0.84801	0.61115	0.043
Mof_H 	H 	0.9685	0.8582	0.6005	0.013
Mof_C 	C 	0.94017	0.83004	0.59207	0.142
Mof_C 	C 	0.9243	0.84503	0.56478	0.136
Mof_C 	C 	0.91537	0.81253	0.57474	0.139
Mof_C 	C 	0.90341	0.86283	0.53764	0.048
Mof_H 	H 	0.8946	0.851	0.5374	0.009
Mof_C 	C 	0.92038	0.86298	0.55177	-0.058
Mof_C 	C 	0.93212	0.88086	0.55276	0.018
Mof_H 	H 	0.9433	0.8819	0.5623	0.035
Mof_C 	C 	0.92751	0.89724	0.53981	-0.11
Mof_H 	H 	0.9352	0.9098	0.5404	0.071
Mof_C 	C 	0.91138	0.89493	0.52587	0.069
Mof_H 	H 	0.9088	0.906	0.5164	-0.002
Mof_C 	C 	0.8781	0.82552	0.4989	0.108
Mof_C 	C 	0.83252	0.8878	0.48247	0.052
Mof_H 	H 	0.8335	0.8979	0.4932	0.003
Mof_C 	C 	0.81521	0.88726	0.47106	-0.096
Mof_H 	H 	0.8045	0.8972	0.4733	0.066
Mof_C 	C 	0.81295	0.87179	0.45561	0.005
Mof_H 	H 	0.8006	0.8707	0.4476	0.039
Mof_C 	C 	0.82958	0.85827	0.45256	-0.053
Mof_C 	C 	0.84696	0.86005	0.46521	0.046
Mof_H 	H 	0.8579	0.8503	0.4634	0.011
Mof_C 	C 	0.82861	0.84207	0.43677	0.133
Mof_N 	N 	0.8851	0.76561	0.59003	-0.224
Mof_N 	N 	0.02309	0.86325	0.64535	-0.26
Mof_N 	N 	0.98243	0.85068	0.62672	-0.229
Mof_N 	N 	0.92908	0.81309	0.59057	-0.155
Mof_N 	N 	0.93858	0.84658	0.57977	-0.153
Mof_N 	N 	0.91246	0.82774	0.56151	-0.152
Mof_N 	N 	0.89926	0.87827	0.52488	-0.234
Mof_N 	N 	0.84916	0.87452	0.47967	-0.226
Mof_N 	N 	0.87707	0.84297	0.50102	-0.267
Mof_N 	N 	0.84343	0.82751	0.43687	-0.15
Mof_S 	S 	0.04017	0.83435	0.67257	-0.063
Mof_S 	S 	0.87921	0.79975	0.49641	-0.061
Mof_C 	C 	0.85166	0.78178	0.1601	0.037
Mof_H 	H 	0.8443	0.7849	0.1476	0.013
Mof_C 	C 	0.84811	0.79417	0.17727	-0.052
Mof_C 	C 	0.85817	0.78951	0.19563	0.01
Mof_H 	H 	0.8566	0.7981	0.2076	0.037
Mof_C 	C 	0.87062	0.77202	0.19617	-0.1
Mof_H 	H 	0.8767	0.7676	0.2089	0.066
Mof_C 	C 	0.87422	0.76099	0.17829	0.058
Mof_H 	H 	0.8837	0.7496	0.1788	0.001
Mof_C 	C 	0.719	0.85151	0.09342	0.098
Mof_C 	C 	0.76673	0.83516	0.10933	0.065
Mof_H 	H 	0.7564	0.836	0.0988	-0.003
Mof_C 	C 	0.77959	0.8183	0.10923	-0.107
Mof_H 	H 	0.7787	0.8082	0.0985	0.068
Mof_C 	C 	0.79389	0.81624	0.12505	0.014
Mof_H 	H 	0.8031	0.8047	0.1255	0.035
Mof_C 	C 	0.79454	0.83154	0.14046	-0.055
Mof_C 	C 	0.78115	0.84801	0.13885	0.043
Mof_H 	H 	0.7815	0.8582	0.1495	0.013
Mof_C 	C 	0.80983	0.83004	0.15793	0.142
Mof_C 	C 	0.8257	0.84503	0.18522	0.136
Mof_C 	C 	0.83463	0.81253	0.17526	0.139
Mof_C 	C 	0.84659	0.86283	0.21236	0.048
Mof_H 	H 	0.8554	0.851	0.2126	0.009
Mof_C 	C 	0.82962	0.86298	0.19823	-0.058
Mof_C 	C 	0.81788	0.88086	0.19724	0.018
Mof_H 	H 	0.8067	0.8819	0.1877	0.035
Mof_C 	C 	0.82249	0.89724	0.21019	-0.11
Mof_H 	H 	0.8148	0.9098	0.2096	0.071
Mof_C 	C 	0.83862	0.89493	0.22413	0.069
Mof_H 	H 	0.8412	0.906	0.2336	-0.002
Mof_C 	C 	0.8719	0.82552	0.2511	0.108
Mof_C 	C 	0.91748	0.8878	0.26753	0.052
Mof_H 	H 	0.9165	0.8979	0.2568	0.003
Mof_C 	C 	0.93479	0.88726	0.27894	-0.096
Mof_H 	H 	0.9455	0.8972	0.2767	0.066
Mof_C 	C 	0.93705	0.87179	0.29439	0.005
Mof_H 	H 	0.9494	0.8707	0.3024	0.039
Mof_C 	C 	0.92042	0.85827	0.29744	-0.053
Mof_C 	C 	0.90304	0.86005	0.28479	0.046
Mof_H 	H 	0.8921	0.8503	0.2866	0.011
Mof_C 	C 	0.92139	0.84207	0.31323	0.133
Mof_N 	N 	0.8649	0.76561	0.15997	-0.224
Mof_N 	N 	0.72691	0.86325	0.10465	-0.26
Mof_N 	N 	0.76757	0.85068	0.12328	-0.229
Mof_N 	N 	0.82092	0.81309	0.15943	-0.155
Mof_N 	N 	0.81142	0.84658	0.17023	-0.153
Mof_N 	N 	0.83754	0.82774	0.18849	-0.152
Mof_N 	N 	0.85074	0.87827	0.22512	-0.234
Mof_N 	N 	0.90084	0.87452	0.27033	-0.226
Mof_N 	N 	0.87293	0.84297	0.24898	-0.267
Mof_N 	N 	0.90657	0.82751	0.31313	-0.15
Mof_S 	S 	0.70983	0.83435	0.07743	-0.063
Mof_S 	S 	0.87079	0.79975	0.25359	-0.061
Mof_C 	C 	0.85166	0.28178	0.6601	0.037
Mof_H 	H 	0.8443	0.2849	0.6476	0.013
Mof_C 	C 	0.84811	0.29417	0.67727	-0.052
Mof_C 	C 	0.85817	0.28951	0.69563	0.01
Mof_H 	H 	0.8566	0.2981	0.7076	0.037
Mof_C 	C 	0.87062	0.27202	0.69617	-0.1
Mof_H 	H 	0.8767	0.2676	0.7089	0.066
Mof_C 	C 	0.87422	0.26099	0.67829	0.058
Mof_H 	H 	0.8837	0.2496	0.6788	0.001
Mof_C 	C 	0.719	0.35151	0.59342	0.098
Mof_C 	C 	0.76673	0.33516	0.60933	0.065
Mof_H 	H 	0.7564	0.336	0.5988	-0.003
Mof_C 	C 	0.77959	0.3183	0.60923	-0.107
Mof_H 	H 	0.7787	0.3082	0.5985	0.068
Mof_C 	C 	0.79389	0.31624	0.62505	0.014
Mof_H 	H 	0.8031	0.3047	0.6255	0.035
Mof_C 	C 	0.79454	0.33154	0.64046	-0.055
Mof_C 	C 	0.78115	0.34801	0.63885	0.043
Mof_H 	H 	0.7815	0.3582	0.6495	0.013
Mof_C 	C 	0.80983	0.33004	0.65793	0.142
Mof_C 	C 	0.8257	0.34503	0.68522	0.136
Mof_C 	C 	0.83463	0.31253	0.67526	0.139
Mof_C 	C 	0.84659	0.36283	0.71236	0.048
Mof_H 	H 	0.8554	0.351	0.7126	0.009
Mof_C 	C 	0.82962	0.36298	0.69823	-0.058
Mof_C 	C 	0.81788	0.38086	0.69724	0.018
Mof_H 	H 	0.8067	0.3819	0.6877	0.035
Mof_C 	C 	0.82249	0.39724	0.71019	-0.11
Mof_H 	H 	0.8148	0.4098	0.7096	0.071
Mof_C 	C 	0.83862	0.39493	0.72413	0.069
Mof_H 	H 	0.8412	0.406	0.7336	-0.002
Mof_C 	C 	0.8719	0.32552	0.7511	0.108
Mof_C 	C 	0.91748	0.3878	0.76753	0.052
Mof_H 	H 	0.9165	0.3979	0.7568	0.003
Mof_C 	C 	0.93479	0.38726	0.77894	-0.096
Mof_H 	H 	0.9455	0.3972	0.7767	0.066
Mof_C 	C 	0.93705	0.37179	0.79439	0.005
Mof_H 	H 	0.9494	0.3707	0.8024	0.039
Mof_C 	C 	0.92042	0.35827	0.79744	-0.053
Mof_C 	C 	0.90304	0.36005	0.78479	0.046
Mof_H 	H 	0.8921	0.3503	0.7866	0.011
Mof_C 	C 	0.92139	0.34207	0.81323	0.133
Mof_N 	N 	0.8649	0.26561	0.65997	-0.224
Mof_N 	N 	0.72691	0.36325	0.60465	-0.26
Mof_N 	N 	0.76757	0.35068	0.62328	-0.229
Mof_N 	N 	0.82092	0.31309	0.65943	-0.155
Mof_N 	N 	0.81142	0.34658	0.67023	-0.153
Mof_N 	N 	0.83754	0.32774	0.68849	-0.152
Mof_N 	N 	0.85074	0.37827	0.72512	-0.234
Mof_N 	N 	0.90084	0.37452	0.77033	-0.226
Mof_N 	N 	0.87293	0.34297	0.74898	-0.267
Mof_N 	N 	0.90657	0.32751	0.81313	-0.15
Mof_S 	S 	0.70983	0.33435	0.57743	-0.063
Mof_S 	S 	0.87079	0.29975	0.75359	-0.061
Mof_C 	C 	0.35166	0.78178	0.6601	0.037
Mof_H 	H 	0.3443	0.7849	0.6476	0.013
Mof_C 	C 	0.34811	0.79417	0.67727	-0.052
Mof_C 	C 	0.35817	0.78951	0.69563	0.01
Mof_H 	H 	0.3566	0.7981	0.7076	0.037
Mof_C 	C 	0.37062	0.77202	0.69617	-0.1
Mof_H 	H 	0.3767	0.7676	0.7089	0.066
Mof_C 	C 	0.37422	0.76099	0.67829	0.058
Mof_H 	H 	0.3837	0.7496	0.6788	0.001
Mof_C 	C 	0.219	0.85151	0.59342	0.098
Mof_C 	C 	0.26673	0.83516	0.60933	0.065
Mof_H 	H 	0.2564	0.836	0.5988	-0.003
Mof_C 	C 	0.27959	0.8183	0.60923	-0.107
Mof_H 	H 	0.2787	0.8082	0.5985	0.068
Mof_C 	C 	0.29389	0.81624	0.62505	0.014
Mof_H 	H 	0.3031	0.8047	0.6255	0.035
Mof_C 	C 	0.29454	0.83154	0.64046	-0.055
Mof_C 	C 	0.28115	0.84801	0.63885	0.043
Mof_H 	H 	0.2815	0.8582	0.6495	0.013
Mof_C 	C 	0.30983	0.83004	0.65793	0.142
Mof_C 	C 	0.3257	0.84503	0.68522	0.136
Mof_C 	C 	0.33463	0.81253	0.67526	0.139
Mof_C 	C 	0.34659	0.86283	0.71236	0.048
Mof_H 	H 	0.3554	0.851	0.7126	0.009
Mof_C 	C 	0.32962	0.86298	0.69823	-0.058
Mof_C 	C 	0.31788	0.88086	0.69724	0.018
Mof_H 	H 	0.3067	0.8819	0.6877	0.035
Mof_C 	C 	0.32249	0.89724	0.71019	-0.11
Mof_H 	H 	0.3148	0.9098	0.7096	0.071
Mof_C 	C 	0.33862	0.89493	0.72413	0.069
Mof_H 	H 	0.3412	0.906	0.7336	-0.002
Mof_C 	C 	0.3719	0.82552	0.7511	0.108
Mof_C 	C 	0.41748	0.8878	0.76753	0.052
Mof_H 	H 	0.4165	0.8979	0.7568	0.003
Mof_C 	C 	0.43479	0.88726	0.77894	-0.096
Mof_H 	H 	0.4455	0.8972	0.7767	0.066
Mof_C 	C 	0.43705	0.87179	0.79439	0.005
Mof_H 	H 	0.4494	0.8707	0.8024	0.039
Mof_C 	C 	0.42042	0.85827	0.79744	-0.053
Mof_C 	C 	0.40304	0.86005	0.78479	0.046
Mof_H 	H 	0.3921	0.8503	0.7866	0.011
Mof_C 	C 	0.42139	0.84207	0.81323	0.133
Mof_N 	N 	0.3649	0.76561	0.65997	-0.224
Mof_N 	N 	0.22691	0.86325	0.60465	-0.26
Mof_N 	N 	0.26757	0.85068	0.62328	-0.229
Mof_N 	N 	0.32092	0.81309	0.65943	-0.155
Mof_N 	N 	0.31142	0.84658	0.67023	-0.153
Mof_N 	N 	0.33754	0.82774	0.68849	-0.152
Mof_N 	N 	0.35074	0.87827	0.72512	-0.234
Mof_N 	N 	0.40084	0.87452	0.77033	-0.226
Mof_N 	N 	0.37293	0.84297	0.74898	-0.267
Mof_N 	N 	0.40657	0.82751	0.81313	-0.15
Mof_S 	S 	0.20983	0.83435	0.57743	-0.063
Mof_S 	S 	0.37079	0.79975	0.75359	-0.061
Mof_C 	C 	0.35166	0.28178	0.1601	0.037
Mof_H 	H 	0.3443	0.2849	0.1476	0.013
Mof_C 	C 	0.34811	0.29417	0.17727	-0.052
Mof_C 	C 	0.35817	0.28951	0.19563	0.01
Mof_H 	H 	0.3566	0.2981	0.2076	0.037
Mof_C 	C 	0.37062	0.27202	0.19617	-0.1
Mof_H 	H 	0.3767	0.2676	0.2089	0.066
Mof_C 	C 	0.37422	0.26099	0.17829	0.058
Mof_H 	H 	0.3837	0.2496	0.1788	0.001
Mof_C 	C 	0.219	0.35151	0.09342	0.098
Mof_C 	C 	0.26673	0.33516	0.10933	0.065
Mof_H 	H 	0.2564	0.336	0.0988	-0.003
Mof_C 	C 	0.27959	0.3183	0.10923	-0.107
Mof_H 	H 	0.2787	0.3082	0.0985	0.068
Mof_C 	C 	0.29389	0.31624	0.12505	0.014
Mof_H 	H 	0.3031	0.3047	0.1255	0.035
Mof_C 	C 	0.29454	0.33154	0.14046	-0.055
Mof_C 	C 	0.28115	0.34801	0.13885	0.043
Mof_H 	H 	0.2815	0.3582	0.1495	0.013
Mof_C 	C 	0.30983	0.33004	0.15793	0.142
Mof_C 	C 	0.3257	0.34503	0.18522	0.136
Mof_C 	C 	0.33463	0.31253	0.17526	0.139
Mof_C 	C 	0.34659	0.36283	0.21236	0.048
Mof_H 	H 	0.3554	0.351	0.2126	0.009
Mof_C 	C 	0.32962	0.36298	0.19823	-0.058
Mof_C 	C 	0.31788	0.38086	0.19724	0.018
Mof_H 	H 	0.3067	0.3819	0.1877	0.035
Mof_C 	C 	0.32249	0.39724	0.21019	-0.11
Mof_H 	H 	0.3148	0.4098	0.2096	0.071
Mof_C 	C 	0.33862	0.39493	0.22413	0.069
Mof_H 	H 	0.3412	0.406	0.2336	-0.002
Mof_C 	C 	0.3719	0.32552	0.2511	0.108
Mof_C 	C 	0.41748	0.3878	0.26753	0.052
Mof_H 	H 	0.4165	0.3979	0.2568	0.003
Mof_C 	C 	0.43479	0.38726	0.27894	-0.096
Mof_H 	H 	0.4455	0.3972	0.2767	0.066
Mof_C 	C 	0.43705	0.37179	0.29439	0.005
Mof_H 	H 	0.4494	0.3707	0.3024	0.039
Mof_C 	C 	0.42042	0.35827	0.29744	-0.053
Mof_C 	C 	0.40304	0.36005	0.28479	0.046
Mof_H 	H 	0.3921	0.3503	0.2866	0.011
Mof_C 	C 	0.42139	0.34207	0.31323	0.133
Mof_N 	N 	0.3649	0.26561	0.15997	-0.224
Mof_N 	N 	0.22691	0.36325	0.10465	-0.26
Mof_N 	N 	0.26757	0.35068	0.12328	-0.229
Mof_N 	N 	0.32092	0.31309	0.15943	-0.155
Mof_N 	N 	0.31142	0.34658	0.17023	-0.153
Mof_N 	N 	0.33754	0.32774	0.18849	-0.152
Mof_N 	N 	0.35074	0.37827	0.22512	-0.234
Mof_N 	N 	0.40084	0.37452	0.27033	-0.226
Mof_N 	N 	0.37293	0.34297	0.24898	-0.267
Mof_N 	N 	0.40657	0.32751	0.31313	-0.15
Mof_S 	S 	0.20983	0.33435	0.07743	-0.063
Mof_S 	S 	0.37079	0.29975	0.25359	-0.061
Mof_C 	C 	0.35166	0.96822	0.0899	0.038
Mof_H 	H 	0.3443	0.9651	0.1024	0.013
Mof_C 	C 	0.34811	0.95583	0.07273	-0.052
Mof_C 	C 	0.35817	0.96049	0.05437	0.01
Mof_H 	H 	0.3566	0.9519	0.0424	0.037
Mof_C 	C 	0.37062	0.97798	0.05383	-0.1
Mof_H 	H 	0.3767	0.9824	0.0411	0.066
Mof_C 	C 	0.37422	0.98901	0.07171	0.059
Mof_H 	H 	0.3837	0.0004	0.0712	0.001
Mof_C 	C 	0.219	0.89849	0.15658	0.098
Mof_C 	C 	0.26673	0.91484	0.14067	0.065
Mof_H 	H 	0.2564	0.914	0.1512	-0.003
Mof_C 	C 	0.27959	0.9317	0.14077	-0.107
Mof_H 	H 	0.2787	0.9418	0.1515	0.068
Mof_C 	C 	0.29389	0.93376	0.12495	0.014
Mof_H 	H 	0.3031	0.9453	0.1245	0.035
Mof_C 	C 	0.29454	0.91846	0.10954	-0.055
Mof_C 	C 	0.28115	0.90199	0.11115	0.043
Mof_H 	H 	0.2815	0.8918	0.1005	0.013
Mof_C 	C 	0.30983	0.91996	0.09207	0.142
Mof_C 	C 	0.3257	0.90497	0.06478	0.136
Mof_C 	C 	0.33463	0.93747	0.07474	0.139
Mof_C 	C 	0.34659	0.88717	0.03764	0.048
Mof_H 	H 	0.3554	0.899	0.0374	0.009
Mof_C 	C 	0.32962	0.88702	0.05177	-0.058
Mof_C 	C 	0.31788	0.86914	0.05276	0.018
Mof_H 	H 	0.3067	0.8681	0.0623	0.035
Mof_C 	C 	0.32249	0.85276	0.03981	-0.11
Mof_H 	H 	0.3148	0.8402	0.0404	0.071
Mof_C 	C 	0.33862	0.85507	0.02587	0.069
Mof_H 	H 	0.3412	0.844	0.0164	-0.002
Mof_C 	C 	0.3719	0.92448	0.9989	0.108
Mof_C 	C 	0.41748	0.8622	0.98247	0.052
Mof_H 	H 	0.4165	0.8521	0.9932	0.003
Mof_C 	C 	0.43479	0.86274	0.97106	-0.096
Mof_H 	H 	0.4455	0.8528	0.9733	0.066
Mof_C 	C 	0.43705	0.87821	0.95561	0.005
Mof_H 	H 	0.4494	0.8793	0.9476	0.039
Mof_C 	C 	0.42042	0.89173	0.95256	-0.053
Mof_C 	C 	0.40304	0.88995	0.96521	0.046
Mof_H 	H 	0.3921	0.8997	0.9634	0.011
Mof_C 	C 	0.42139	0.90793	0.93677	0.133
Mof_N 	N 	0.3649	0.98439	0.09003	-0.224
Mof_N 	N 	0.22691	0.88675	0.14535	-0.26
Mof_N 	N 	0.26757	0.89932	0.12672	-0.229
Mof_N 	N 	0.32092	0.93691	0.09057	-0.155
Mof_N 	N 	0.31142	0.90342	0.07977	-0.153
Mof_N 	N 	0.33754	0.92226	0.06151	-0.152
Mof_N 	N 	0.35074	0.87173	0.02488	-0.234
Mof_N 	N 	0.40084	0.87548	0.97967	-0.226
Mof_N 	N 	0.37293	0.90703	0.00102	-0.267
Mof_N 	N 	0.40657	0.92249	0.93687	-0.15
Mof_S 	S 	0.20983	0.91565	0.17257	-0.063
Mof_S 	S 	0.37079	0.95025	0.99641	-0.061
Mof_C 	C 	0.35166	0.46822	0.5899	0.037
Mof_H 	H 	0.3443	0.4651	0.6024	0.013
Mof_C 	C 	0.34811	0.45583	0.57273	-0.052
Mof_C 	C 	0.35817	0.46049	0.55437	0.01
Mof_H 	H 	0.3566	0.4519	0.5424	0.037
Mof_C 	C 	0.37062	0.47798	0.55383	-0.1
Mof_H 	H 	0.3767	0.4824	0.5411	0.066
Mof_C 	C 	0.37422	0.48901	0.57171	0.058
Mof_H 	H 	0.3837	0.5004	0.5712	0.001
Mof_C 	C 	0.219	0.39849	0.65658	0.098
Mof_C 	C 	0.26673	0.41484	0.64067	0.065
Mof_H 	H 	0.2564	0.414	0.6512	-0.003
Mof_C 	C 	0.27959	0.4317	0.64077	-0.107
Mof_H 	H 	0.2787	0.4418	0.6515	0.068
Mof_C 	C 	0.29389	0.43376	0.62495	0.014
Mof_H 	H 	0.3031	0.4453	0.6245	0.035
Mof_C 	C 	0.29454	0.41846	0.60954	-0.055
Mof_C 	C 	0.28115	0.40199	0.61115	0.043
Mof_H 	H 	0.2815	0.3918	0.6005	0.013
Mof_C 	C 	0.30983	0.41996	0.59207	0.142
Mof_C 	C 	0.3257	0.40497	0.56478	0.136
Mof_C 	C 	0.33463	0.43747	0.57474	0.139
Mof_C 	C 	0.34659	0.38717	0.53764	0.048
Mof_H 	H 	0.3554	0.399	0.5374	0.009
Mof_C 	C 	0.32962	0.38702	0.55177	-0.058
Mof_C 	C 	0.31788	0.36914	0.55276	0.018
Mof_H 	H 	0.3067	0.3681	0.5623	0.035
Mof_C 	C 	0.32249	0.35276	0.53981	-0.11
Mof_H 	H 	0.3148	0.3402	0.5404	0.071
Mof_C 	C 	0.33862	0.35507	0.52587	0.069
Mof_H 	H 	0.3412	0.344	0.5164	-0.002
Mof_C 	C 	0.3719	0.42448	0.4989	0.108
Mof_C 	C 	0.41748	0.3622	0.48247	0.052
Mof_H 	H 	0.4165	0.3521	0.4932	0.003
Mof_C 	C 	0.43479	0.36274	0.47106	-0.096
Mof_H 	H 	0.4455	0.3528	0.4733	0.066
Mof_C 	C 	0.43705	0.37821	0.45561	0.005
Mof_H 	H 	0.4494	0.3793	0.4476	0.039
Mof_C 	C 	0.42042	0.39173	0.45256	-0.053
Mof_C 	C 	0.40304	0.38995	0.46521	0.046
Mof_H 	H 	0.3921	0.3997	0.4634	0.011
Mof_C 	C 	0.42139	0.40793	0.43677	0.133
Mof_N 	N 	0.3649	0.48439	0.59003	-0.224
Mof_N 	N 	0.22691	0.38675	0.64535	-0.26
Mof_N 	N 	0.26757	0.39932	0.62672	-0.229
Mof_N 	N 	0.32092	0.43691	0.59057	-0.155
Mof_N 	N 	0.31142	0.40342	0.57977	-0.153
Mof_N 	N 	0.33754	0.42226	0.56151	-0.152
Mof_N 	N 	0.35074	0.37173	0.52488	-0.234
Mof_N 	N 	0.40084	0.37548	0.47967	-0.226
Mof_N 	N 	0.37293	0.40703	0.50102	-0.267
Mof_N 	N 	0.40657	0.42249	0.43687	-0.15
Mof_S 	S 	0.20983	0.41565	0.67257	-0.063
Mof_S 	S 	0.37079	0.45025	0.49641	-0.061
Mof_C 	C 	0.85166	0.96822	0.5899	0.038
Mof_H 	H 	0.8443	0.9651	0.6024	0.013
Mof_C 	C 	0.84811	0.95583	0.57273	-0.052
Mof_C 	C 	0.85817	0.96049	0.55437	0.01
Mof_H 	H 	0.8566	0.9519	0.5424	0.037
Mof_C 	C 	0.87062	0.97798	0.55383	-0.1
Mof_H 	H 	0.8767	0.9824	0.5411	0.066
Mof_C 	C 	0.87422	0.98901	0.57171	0.059
Mof_H 	H 	0.8837	0.0004	0.5712	0.001
Mof_C 	C 	0.719	0.89849	0.65658	0.098
Mof_C 	C 	0.76673	0.91484	0.64067	0.065
Mof_H 	H 	0.7564	0.914	0.6512	-0.003
Mof_C 	C 	0.77959	0.9317	0.64077	-0.107
Mof_H 	H 	0.7787	0.9418	0.6515	0.068
Mof_C 	C 	0.79389	0.93376	0.62495	0.014
Mof_H 	H 	0.8031	0.9453	0.6245	0.035
Mof_C 	C 	0.79454	0.91846	0.60954	-0.055
Mof_C 	C 	0.78115	0.90199	0.61115	0.043
Mof_H 	H 	0.7815	0.8918	0.6005	0.013
Mof_C 	C 	0.80983	0.91996	0.59207	0.142
Mof_C 	C 	0.8257	0.90497	0.56478	0.136
Mof_C 	C 	0.83463	0.93747	0.57474	0.139
Mof_C 	C 	0.84659	0.88717	0.53764	0.048
Mof_H 	H 	0.8554	0.899	0.5374	0.009
Mof_C 	C 	0.82962	0.88702	0.55177	-0.058
Mof_C 	C 	0.81788	0.86914	0.55276	0.018
Mof_H 	H 	0.8067	0.8681	0.5623	0.035
Mof_C 	C 	0.82249	0.85276	0.53981	-0.11
Mof_H 	H 	0.8148	0.8402	0.5404	0.071
Mof_C 	C 	0.83862	0.85507	0.52587	0.069
Mof_H 	H 	0.8412	0.844	0.5164	-0.002
Mof_C 	C 	0.8719	0.92448	0.4989	0.108
Mof_C 	C 	0.91748	0.8622	0.48247	0.052
Mof_H 	H 	0.9165	0.8521	0.4932	0.003
Mof_C 	C 	0.93479	0.86274	0.47106	-0.096
Mof_H 	H 	0.9455	0.8528	0.4733	0.066
Mof_C 	C 	0.93705	0.87821	0.45561	0.005
Mof_H 	H 	0.9494	0.8793	0.4476	0.039
Mof_C 	C 	0.92042	0.89173	0.45256	-0.053
Mof_C 	C 	0.90304	0.88995	0.46521	0.046
Mof_H 	H 	0.8921	0.8997	0.4634	0.011
Mof_C 	C 	0.92139	0.90793	0.43677	0.133
Mof_N 	N 	0.8649	0.98439	0.59003	-0.224
Mof_N 	N 	0.72691	0.88675	0.64535	-0.26
Mof_N 	N 	0.76757	0.89932	0.62672	-0.229
Mof_N 	N 	0.82092	0.93691	0.59057	-0.155
Mof_N 	N 	0.81142	0.90342	0.57977	-0.153
Mof_N 	N 	0.83754	0.92226	0.56151	-0.152
Mof_N 	N 	0.85074	0.87173	0.52488	-0.234
Mof_N 	N 	0.90084	0.87548	0.47967	-0.226
Mof_N 	N 	0.87293	0.90703	0.50102	-0.267
Mof_N 	N 	0.90657	0.92249	0.43687	-0.15
Mof_S 	S 	0.70983	0.91565	0.67257	-0.063
Mof_S 	S 	0.87079	0.95025	0.49641	-0.061
Mof_C 	C 	0.85166	0.46822	0.0899	0.037
Mof_H 	H 	0.8443	0.4651	0.1024	0.013
Mof_C 	C 	0.84811	0.45583	0.07273	-0.052
Mof_C 	C 	0.85817	0.46049	0.05437	0.01
Mof_H 	H 	0.8566	0.4519	0.0424	0.037
Mof_C 	C 	0.87062	0.47798	0.05383	-0.1
Mof_H 	H 	0.8767	0.4824	0.0411	0.066
Mof_C 	C 	0.87422	0.48901	0.07171	0.058
Mof_H 	H 	0.8837	0.5004	0.0712	0.001
Mof_C 	C 	0.719	0.39849	0.15658	0.098
Mof_C 	C 	0.76673	0.41484	0.14067	0.065
Mof_H 	H 	0.7564	0.414	0.1512	-0.003
Mof_C 	C 	0.77959	0.4317	0.14077	-0.107
Mof_H 	H 	0.7787	0.4418	0.1515	0.068
Mof_C 	C 	0.79389	0.43376	0.12495	0.014
Mof_H 	H 	0.8031	0.4453	0.1245	0.035
Mof_C 	C 	0.79454	0.41846	0.10954	-0.055
Mof_C 	C 	0.78115	0.40199	0.11115	0.043
Mof_H 	H 	0.7815	0.3918	0.1005	0.013
Mof_C 	C 	0.80983	0.41996	0.09207	0.142
Mof_C 	C 	0.8257	0.40497	0.06478	0.136
Mof_C 	C 	0.83463	0.43747	0.07474	0.139
Mof_C 	C 	0.84659	0.38717	0.03764	0.048
Mof_H 	H 	0.8554	0.399	0.0374	0.009
Mof_C 	C 	0.82962	0.38702	0.05177	-0.058
Mof_C 	C 	0.81788	0.36914	0.05276	0.018
Mof_H 	H 	0.8067	0.3681	0.0623	0.035
Mof_C 	C 	0.82249	0.35276	0.03981	-0.11
Mof_H 	H 	0.8148	0.3402	0.0404	0.071
Mof_C 	C 	0.83862	0.35507	0.02587	0.069
Mof_H 	H 	0.8412	0.344	0.0164	-0.002
Mof_C 	C 	0.8719	0.42448	0.9989	0.108
Mof_C 	C 	0.91748	0.3622	0.98247	0.052
Mof_H 	H 	0.9165	0.3521	0.9932	0.003
Mof_C 	C 	0.93479	0.36274	0.97106	-0.096
Mof_H 	H 	0.9455	0.3528	0.9733	0.066
Mof_C 	C 	0.93705	0.37821	0.95561	0.005
Mof_H 	H 	0.9494	0.3793	0.9476	0.039
Mof_C 	C 	0.92042	0.39173	0.95256	-0.053
Mof_C 	C 	0.90304	0.38995	0.96521	0.046
Mof_H 	H 	0.8921	0.3997	0.9634	0.011
Mof_C 	C 	0.92139	0.40793	0.93677	0.133
Mof_N 	N 	0.8649	0.48439	0.09003	-0.224
Mof_N 	N 	0.72691	0.38675	0.14535	-0.26
Mof_N 	N 	0.76757	0.39932	0.12672	-0.229
Mof_N 	N 	0.82092	0.43691	0.09057	-0.155
Mof_N 	N 	0.81142	0.40342	0.07977	-0.153
Mof_N 	N 	0.83754	0.42226	0.06151	-0.152
Mof_N 	N 	0.85074	0.37173	0.02488	-0.234
Mof_N 	N 	0.90084	0.37548	0.97967	-0.226
Mof_N 	N 	0.87293	0.40703	0.00102	-0.267
Mof_N 	N 	0.90657	0.42249	0.93687	-0.15
Mof_S 	S 	0.70983	0.41565	0.17257	-0.063
Mof_S 	S 	0.87079	0.45025	0.99641	-0.061
Mof_C 	C 	0.6601	0.89834	0.46822	0.037
Mof_H 	H 	0.6476	0.9057	0.4651	0.013
Mof_C 	C 	0.67727	0.90189	0.45583	-0.052
Mof_C 	C 	0.69563	0.89183	0.46049	0.01
Mof_H 	H 	0.7076	0.8934	0.4519	0.037
Mof_C 	C 	0.69617	0.87938	0.47798	-0.1
Mof_H 	H 	0.7089	0.8733	0.4824	0.066
Mof_C 	C 	0.67829	0.87578	0.48901	0.058
Mof_H 	H 	0.6788	0.8663	0.5004	0.001
Mof_C 	C 	0.59342	0.031	0.39849	0.098
Mof_C 	C 	0.60933	0.98327	0.41484	0.065
Mof_H 	H 	0.5988	0.9936	0.414	-0.003
Mof_C 	C 	0.60923	0.97041	0.4317	-0.107
Mof_H 	H 	0.5985	0.9713	0.4418	0.068
Mof_C 	C 	0.62505	0.95611	0.43376	0.014
Mof_H 	H 	0.6255	0.9469	0.4453	0.035
Mof_C 	C 	0.64046	0.95546	0.41846	-0.055
Mof_C 	C 	0.63885	0.96885	0.40199	0.043
Mof_H 	H 	0.6495	0.9685	0.3918	0.013
Mof_C 	C 	0.65793	0.94017	0.41996	0.142
Mof_C 	C 	0.68522	0.9243	0.40497	0.136
Mof_C 	C 	0.67526	0.91537	0.43747	0.139
Mof_C 	C 	0.71236	0.90341	0.38717	0.048
Mof_H 	H 	0.7126	0.8946	0.399	0.009
Mof_C 	C 	0.69823	0.92038	0.38702	-0.058
Mof_C 	C 	0.69724	0.93212	0.36914	0.018
Mof_H 	H 	0.6877	0.9433	0.3681	0.035
Mof_C 	C 	0.71019	0.92751	0.35276	-0.11
Mof_H 	H 	0.7096	0.9352	0.3402	0.071
Mof_C 	C 	0.72413	0.91138	0.35507	0.069
Mof_H 	H 	0.7336	0.9088	0.344	-0.002
Mof_C 	C 	0.7511	0.8781	0.42448	0.108
Mof_C 	C 	0.76753	0.83252	0.3622	0.052
Mof_H 	H 	0.7568	0.8335	0.3521	0.003
Mof_C 	C 	0.77894	0.81521	0.36274	-0.096
Mof_H 	H 	0.7767	0.8045	0.3528	0.066
Mof_C 	C 	0.79439	0.81295	0.37821	0.005
Mof_H 	H 	0.8024	0.8006	0.3793	0.039
Mof_C 	C 	0.79744	0.82958	0.39173	-0.053
Mof_C 	C 	0.78479	0.84696	0.38995	0.046
Mof_H 	H 	0.7866	0.8579	0.3997	0.011
Mof_C 	C 	0.81323	0.82861	0.40793	0.133
Mof_N 	N 	0.65997	0.8851	0.48439	-0.224
Mof_N 	N 	0.60465	0.02309	0.38675	-0.26
Mof_N 	N 	0.62328	0.98243	0.39932	-0.229
Mof_N 	N 	0.65943	0.92908	0.43691	-0.155
Mof_N 	N 	0.67023	0.93858	0.40342	-0.153
Mof_N 	N 	0.68849	0.91246	0.42226	-0.152
Mof_N 	N 	0.72512	0.89926	0.37173	-0.234
Mof_N 	N 	0.77033	0.84916	0.37548	-0.226
Mof_N 	N 	0.74898	0.87707	0.40703	-0.267
Mof_N 	N 	0.81313	0.84343	0.42249	-0.15
Mof_S 	S 	0.57743	0.04017	0.41565	-0.063
Mof_S 	S 	0.75359	0.87921	0.45025	-0.061
Mof_C 	C 	0.6601	0.39834	0.96822	0.038
Mof_H 	H 	0.6476	0.4057	0.9651	0.013
Mof_C 	C 	0.67727	0.40189	0.95583	-0.052
Mof_C 	C 	0.69563	0.39183	0.96049	0.01
Mof_H 	H 	0.7076	0.3934	0.9519	0.037
Mof_C 	C 	0.69617	0.37938	0.97798	-0.1
Mof_H 	H 	0.7089	0.3733	0.9824	0.066
Mof_C 	C 	0.67829	0.37578	0.98901	0.059
Mof_H 	H 	0.6788	0.3663	0.0004	0.001
Mof_C 	C 	0.59342	0.531	0.89849	0.098
Mof_C 	C 	0.60933	0.48327	0.91484	0.065
Mof_H 	H 	0.5988	0.4936	0.914	-0.003
Mof_C 	C 	0.60923	0.47041	0.9317	-0.107
Mof_H 	H 	0.5985	0.4713	0.9418	0.068
Mof_C 	C 	0.62505	0.45611	0.93376	0.014
Mof_H 	H 	0.6255	0.4469	0.9453	0.035
Mof_C 	C 	0.64046	0.45546	0.91846	-0.055
Mof_C 	C 	0.63885	0.46885	0.90199	0.043
Mof_H 	H 	0.6495	0.4685	0.8918	0.013
Mof_C 	C 	0.65793	0.44017	0.91996	0.142
Mof_C 	C 	0.68522	0.4243	0.90497	0.136
Mof_C 	C 	0.67526	0.41537	0.93747	0.139
Mof_C 	C 	0.71236	0.40341	0.88717	0.048
Mof_H 	H 	0.7126	0.3946	0.899	0.009
Mof_C 	C 	0.69823	0.42038	0.88702	-0.058
Mof_C 	C 	0.69724	0.43212	0.86914	0.018
Mof_H 	H 	0.6877	0.4433	0.8681	0.035
Mof_C 	C 	0.71019	0.42751	0.85276	-0.11
Mof_H 	H 	0.7096	0.4352	0.8402	0.071
Mof_C 	C 	0.72413	0.41138	0.85507	0.069
Mof_H 	H 	0.7336	0.4088	0.844	-0.002
Mof_C 	C 	0.7511	0.3781	0.92448	0.108
Mof_C 	C 	0.76753	0.33252	0.8622	0.052
Mof_H 	H 	0.7568	0.3335	0.8521	0.003
Mof_C 	C 	0.77894	0.31521	0.86274	-0.096
Mof_H 	H 	0.7767	0.3045	0.8528	0.066
Mof_C 	C 	0.79439	0.31295	0.87821	0.005
Mof_H 	H 	0.8024	0.3006	0.8793	0.039
Mof_C 	C 	0.79744	0.32958	0.89173	-0.053
Mof_C 	C 	0.78479	0.34696	0.88995	0.046
Mof_H 	H 	0.7866	0.3579	0.8997	0.011
Mof_C 	C 	0.81323	0.32861	0.90793	0.133
Mof_N 	N 	0.65997	0.3851	0.98439	-0.224
Mof_N 	N 	0.60465	0.52309	0.88675	-0.26
Mof_N 	N 	0.62328	0.48243	0.89932	-0.229
Mof_N 	N 	0.65943	0.42908	0.93691	-0.155
Mof_N 	N 	0.67023	0.43858	0.90342	-0.153
Mof_N 	N 	0.68849	0.41246	0.92226	-0.152
Mof_N 	N 	0.72512	0.39926	0.87173	-0.234
Mof_N 	N 	0.77033	0.34916	0.87548	-0.226
Mof_N 	N 	0.74898	0.37707	0.90703	-0.267
Mof_N 	N 	0.81313	0.34343	0.92249	-0.15
Mof_S 	S 	0.57743	0.54017	0.91565	-0.063
Mof_S 	S 	0.75359	0.37921	0.95025	-0.061
Mof_C 	C 	0.1601	0.89834	0.96822	0.038
Mof_H 	H 	0.1476	0.9057	0.9651	0.013
Mof_C 	C 	0.17727	0.90189	0.95583	-0.052
Mof_C 	C 	0.19563	0.89183	0.96049	0.01
Mof_H 	H 	0.2076	0.8934	0.9519	0.037
Mof_C 	C 	0.19617	0.87938	0.97798	-0.1
Mof_H 	H 	0.2089	0.8733	0.9824	0.066
Mof_C 	C 	0.17829	0.87578	0.98901	0.059
Mof_H 	H 	0.1788	0.8663	0.0004	0.001
Mof_C 	C 	0.09342	0.031	0.89849	0.098
Mof_C 	C 	0.10933	0.98327	0.91484	0.065
Mof_H 	H 	0.0988	0.9936	0.914	-0.003
Mof_C 	C 	0.10923	0.97041	0.9317	-0.107
Mof_H 	H 	0.0985	0.9713	0.9418	0.068
Mof_C 	C 	0.12505	0.95611	0.93376	0.014
Mof_H 	H 	0.1255	0.9469	0.9453	0.036
Mof_C 	C 	0.14046	0.95546	0.91846	-0.055
Mof_C 	C 	0.13885	0.96885	0.90199	0.043
Mof_H 	H 	0.1495	0.9685	0.8918	0.013
Mof_C 	C 	0.15793	0.94017	0.91996	0.142
Mof_C 	C 	0.18522	0.9243	0.90497	0.136
Mof_C 	C 	0.17526	0.91537	0.93747	0.139
Mof_C 	C 	0.21236	0.90341	0.88717	0.048
Mof_H 	H 	0.2126	0.8946	0.899	0.009
Mof_C 	C 	0.19823	0.92038	0.88702	-0.058
Mof_C 	C 	0.19724	0.93212	0.86914	0.018
Mof_H 	H 	0.1877	0.9433	0.8681	0.035
Mof_C 	C 	0.21019	0.92751	0.85276	-0.11
Mof_H 	H 	0.2096	0.9352	0.8402	0.071
Mof_C 	C 	0.22413	0.91138	0.85507	0.069
Mof_H 	H 	0.2336	0.9088	0.844	-0.002
Mof_C 	C 	0.2511	0.8781	0.92448	0.108
Mof_C 	C 	0.26753	0.83252	0.8622	0.052
Mof_H 	H 	0.2568	0.8335	0.8521	0.003
Mof_C 	C 	0.27894	0.81521	0.86274	-0.096
Mof_H 	H 	0.2767	0.8045	0.8528	0.066
Mof_C 	C 	0.29439	0.81295	0.87821	0.005
Mof_H 	H 	0.3024	0.8006	0.8793	0.039
Mof_C 	C 	0.29744	0.82958	0.89173	-0.053
Mof_C 	C 	0.28479	0.84696	0.88995	0.046
Mof_H 	H 	0.2866	0.8579	0.8997	0.011
Mof_C 	C 	0.31323	0.82861	0.90793	0.133
Mof_N 	N 	0.15997	0.8851	0.98439	-0.224
Mof_N 	N 	0.10465	0.02309	0.88675	-0.26
Mof_N 	N 	0.12328	0.98243	0.89932	-0.229
Mof_N 	N 	0.15943	0.92908	0.93691	-0.155
Mof_N 	N 	0.17023	0.93858	0.90342	-0.153
Mof_N 	N 	0.18849	0.91246	0.92226	-0.152
Mof_N 	N 	0.22512	0.89926	0.87173	-0.234
Mof_N 	N 	0.27033	0.84916	0.87548	-0.226
Mof_N 	N 	0.24898	0.87707	0.90703	-0.267
Mof_N 	N 	0.31313	0.84343	0.92249	-0.15
Mof_S 	S 	0.07743	0.04017	0.91565	-0.063
Mof_S 	S 	0.25359	0.87921	0.95025	-0.061
Mof_C 	C 	0.1601	0.39834	0.46822	0.037
Mof_H 	H 	0.1476	0.4057	0.4651	0.013
Mof_C 	C 	0.17727	0.40189	0.45583	-0.052
Mof_C 	C 	0.19563	0.39183	0.46049	0.01
Mof_H 	H 	0.2076	0.3934	0.4519	0.037
Mof_C 	C 	0.19617	0.37938	0.47798	-0.1
Mof_H 	H 	0.2089	0.3733	0.4824	0.066
Mof_C 	C 	0.17829	0.37578	0.48901	0.058
Mof_H 	H 	0.1788	0.3663	0.5004	0.001
Mof_C 	C 	0.09342	0.531	0.39849	0.098
Mof_C 	C 	0.10933	0.48327	0.41484	0.065
Mof_H 	H 	0.0988	0.4936	0.414	-0.003
Mof_C 	C 	0.10923	0.47041	0.4317	-0.107
Mof_H 	H 	0.0985	0.4713	0.4418	0.068
Mof_C 	C 	0.12505	0.45611	0.43376	0.014
Mof_H 	H 	0.1255	0.4469	0.4453	0.035
Mof_C 	C 	0.14046	0.45546	0.41846	-0.055
Mof_C 	C 	0.13885	0.46885	0.40199	0.043
Mof_H 	H 	0.1495	0.4685	0.3918	0.013
Mof_C 	C 	0.15793	0.44017	0.41996	0.142
Mof_C 	C 	0.18522	0.4243	0.40497	0.136
Mof_C 	C 	0.17526	0.41537	0.43747	0.139
Mof_C 	C 	0.21236	0.40341	0.38717	0.048
Mof_H 	H 	0.2126	0.3946	0.399	0.009
Mof_C 	C 	0.19823	0.42038	0.38702	-0.058
Mof_C 	C 	0.19724	0.43212	0.36914	0.018
Mof_H 	H 	0.1877	0.4433	0.3681	0.035
Mof_C 	C 	0.21019	0.42751	0.35276	-0.11
Mof_H 	H 	0.2096	0.4352	0.3402	0.071
Mof_C 	C 	0.22413	0.41138	0.35507	0.069
Mof_H 	H 	0.2336	0.4088	0.344	-0.002
Mof_C 	C 	0.2511	0.3781	0.42448	0.108
Mof_C 	C 	0.26753	0.33252	0.3622	0.052
Mof_H 	H 	0.2568	0.3335	0.3521	0.003
Mof_C 	C 	0.27894	0.31521	0.36274	-0.096
Mof_H 	H 	0.2767	0.3045	0.3528	0.066
Mof_C 	C 	0.29439	0.31295	0.37821	0.005
Mof_H 	H 	0.3024	0.3006	0.3793	0.039
Mof_C 	C 	0.29744	0.32958	0.39173	-0.053
Mof_C 	C 	0.28479	0.34696	0.38995	0.046
Mof_H 	H 	0.2866	0.3579	0.3997	0.011
Mof_C 	C 	0.31323	0.32861	0.40793	0.133
Mof_N 	N 	0.15997	0.3851	0.48439	-0.224
Mof_N 	N 	0.10465	0.52309	0.38675	-0.26
Mof_N 	N 	0.12328	0.48243	0.39932	-0.229
Mof_N 	N 	0.15943	0.42908	0.43691	-0.155
Mof_N 	N 	0.17023	0.43858	0.40342	-0.153
Mof_N 	N 	0.18849	0.41246	0.42226	-0.152
Mof_N 	N 	0.22512	0.39926	0.37173	-0.234
Mof_N 	N 	0.27033	0.34916	0.37548	-0.226
Mof_N 	N 	0.24898	0.37707	0.40703	-0.267
Mof_N 	N 	0.31313	0.34343	0.42249	-0.15
Mof_S 	S 	0.07743	0.54017	0.41565	-0.063
Mof_S 	S 	0.25359	0.37921	0.45025	-0.061
Mof_C 	C 	0.5899	0.39834	0.28178	0.037
Mof_H 	H 	0.6024	0.4057	0.2849	0.013
Mof_C 	C 	0.57273	0.40189	0.29417	-0.052
Mof_C 	C 	0.55437	0.39183	0.28951	0.01
Mof_H 	H 	0.5424	0.3934	0.2981	0.037
Mof_C 	C 	0.55383	0.37938	0.27202	-0.1
Mof_H 	H 	0.5411	0.3733	0.2676	0.066
Mof_C 	C 	0.57171	0.37578	0.26099	0.058
Mof_H 	H 	0.5712	0.3663	0.2496	0.001
Mof_C 	C 	0.65658	0.531	0.35151	0.098
Mof_C 	C 	0.64067	0.48327	0.33516	0.065
Mof_H 	H 	0.6512	0.4936	0.336	-0.003
Mof_C 	C 	0.64077	0.47041	0.3183	-0.107
Mof_H 	H 	0.6515	0.4713	0.3082	0.068
Mof_C 	C 	0.62495	0.45611	0.31624	0.014
Mof_H 	H 	0.6245	0.4469	0.3047	0.035
Mof_C 	C 	0.60954	0.45546	0.33154	-0.055
Mof_C 	C 	0.61115	0.46885	0.34801	0.043
Mof_H 	H 	0.6005	0.4685	0.3582	0.013
Mof_C 	C 	0.59207	0.44017	0.33004	0.142
Mof_C 	C 	0.56478	0.4243	0.34503	0.136
Mof_C 	C 	0.57474	0.41537	0.31253	0.139
Mof_C 	C 	0.53764	0.40341	0.36283	0.048
Mof_H 	H 	0.5374	0.3946	0.351	0.009
Mof_C 	C 	0.55177	0.42038	0.36298	-0.058
Mof_C 	C 	0.55276	0.43212	0.38086	0.018
Mof_H 	H 	0.5623	0.4433	0.3819	0.035
Mof_C 	C 	0.53981	0.42751	0.39724	-0.11
Mof_H 	H 	0.5404	0.4352	0.4098	0.071
Mof_C 	C 	0.52587	0.41138	0.39493	0.069
Mof_H 	H 	0.5164	0.4088	0.406	-0.002
Mof_C 	C 	0.4989	0.3781	0.32552	0.108
Mof_C 	C 	0.48247	0.33252	0.3878	0.052
Mof_H 	H 	0.4932	0.3335	0.3979	0.003
Mof_C 	C 	0.47106	0.31521	0.38726	-0.096
Mof_H 	H 	0.4733	0.3045	0.3972	0.066
Mof_C 	C 	0.45561	0.31295	0.37179	0.005
Mof_H 	H 	0.4476	0.3006	0.3707	0.039
Mof_C 	C 	0.45256	0.32958	0.35827	-0.053
Mof_C 	C 	0.46521	0.34696	0.36005	0.046
Mof_H 	H 	0.4634	0.3579	0.3503	0.011
Mof_C 	C 	0.43677	0.32861	0.34207	0.133
Mof_N 	N 	0.59003	0.3851	0.26561	-0.224
Mof_N 	N 	0.64535	0.52309	0.36325	-0.26
Mof_N 	N 	0.62672	0.48243	0.35068	-0.229
Mof_N 	N 	0.59057	0.42908	0.31309	-0.155
Mof_N 	N 	0.57977	0.43858	0.34658	-0.153
Mof_N 	N 	0.56151	0.41246	0.32774	-0.152
Mof_N 	N 	0.52488	0.39926	0.37827	-0.234
Mof_N 	N 	0.47967	0.34916	0.37452	-0.226
Mof_N 	N 	0.50102	0.37707	0.34297	-0.267
Mof_N 	N 	0.43687	0.34343	0.32751	-0.15
Mof_S 	S 	0.67257	0.54017	0.33435	-0.063
Mof_S 	S 	0.49641	0.37921	0.29975	-0.061
Mof_C 	C 	0.5899	0.89834	0.78178	0.037
Mof_H 	H 	0.6024	0.9057	0.7849	0.013
Mof_C 	C 	0.57273	0.90189	0.79417	-0.052
Mof_C 	C 	0.55437	0.89183	0.78951	0.01
Mof_H 	H 	0.5424	0.8934	0.7981	0.037
Mof_C 	C 	0.55383	0.87938	0.77202	-0.1
Mof_H 	H 	0.5411	0.8733	0.7676	0.066
Mof_C 	C 	0.57171	0.87578	0.76099	0.058
Mof_H 	H 	0.5712	0.8663	0.7496	0.001
Mof_C 	C 	0.65658	0.031	0.85151	0.098
Mof_C 	C 	0.64067	0.98327	0.83516	0.065
Mof_H 	H 	0.6512	0.9936	0.836	-0.003
Mof_C 	C 	0.64077	0.97041	0.8183	-0.107
Mof_H 	H 	0.6515	0.9713	0.8082	0.068
Mof_C 	C 	0.62495	0.95611	0.81624	0.014
Mof_H 	H 	0.6245	0.9469	0.8047	0.035
Mof_C 	C 	0.60954	0.95546	0.83154	-0.055
Mof_C 	C 	0.61115	0.96885	0.84801	0.043
Mof_H 	H 	0.6005	0.9685	0.8582	0.013
Mof_C 	C 	0.59207	0.94017	0.83004	0.142
Mof_C 	C 	0.56478	0.9243	0.84503	0.136
Mof_C 	C 	0.57474	0.91537	0.81253	0.139
Mof_C 	C 	0.53764	0.90341	0.86283	0.048
Mof_H 	H 	0.5374	0.8946	0.851	0.009
Mof_C 	C 	0.55177	0.92038	0.86298	-0.058
Mof_C 	C 	0.55276	0.93212	0.88086	0.018
Mof_H 	H 	0.5623	0.9433	0.8819	0.035
Mof_C 	C 	0.53981	0.92751	0.89724	-0.11
Mof_H 	H 	0.5404	0.9352	0.9098	0.071
Mof_C 	C 	0.52587	0.91138	0.89493	0.069
Mof_H 	H 	0.5164	0.9088	0.906	-0.002
Mof_C 	C 	0.4989	0.8781	0.82552	0.108
Mof_C 	C 	0.48247	0.83252	0.8878	0.052
Mof_H 	H 	0.4932	0.8335	0.8979	0.003
Mof_C 	C 	0.47106	0.81521	0.88726	-0.096
Mof_H 	H 	0.4733	0.8045	0.8972	0.066
Mof_C 	C 	0.45561	0.81295	0.87179	0.005
Mof_H 	H 	0.4476	0.8006	0.8707	0.039
Mof_C 	C 	0.45256	0.82958	0.85827	-0.053
Mof_C 	C 	0.46521	0.84696	0.86005	0.046
Mof_H 	H 	0.4634	0.8579	0.8503	0.011
Mof_C 	C 	0.43677	0.82861	0.84207	0.133
Mof_N 	N 	0.59003	0.8851	0.76561	-0.224
Mof_N 	N 	0.64535	0.02309	0.86325	-0.26
Mof_N 	N 	0.62672	0.98243	0.85068	-0.229
Mof_N 	N 	0.59057	0.92908	0.81309	-0.155
Mof_N 	N 	0.57977	0.93858	0.84658	-0.153
Mof_N 	N 	0.56151	0.91246	0.82774	-0.152
Mof_N 	N 	0.52488	0.89926	0.87827	-0.234
Mof_N 	N 	0.47967	0.84916	0.87452	-0.226
Mof_N 	N 	0.50102	0.87707	0.84297	-0.267
Mof_N 	N 	0.43687	0.84343	0.82751	-0.15
Mof_S 	S 	0.67257	0.04017	0.83435	-0.063
Mof_S 	S 	0.49641	0.87921	0.79975	-0.061
Mof_C 	C 	0.0899	0.39834	0.78178	0.037
Mof_H 	H 	0.1024	0.4057	0.7849	0.013
Mof_C 	C 	0.07273	0.40189	0.79417	-0.052
Mof_C 	C 	0.05437	0.39183	0.78951	0.01
Mof_H 	H 	0.0424	0.3934	0.7981	0.037
Mof_C 	C 	0.05383	0.37938	0.77202	-0.1
Mof_H 	H 	0.0411	0.3733	0.7676	0.066
Mof_C 	C 	0.07171	0.37578	0.76099	0.058
Mof_H 	H 	0.0712	0.3663	0.7496	0.001
Mof_C 	C 	0.15658	0.531	0.85151	0.098
Mof_C 	C 	0.14067	0.48327	0.83516	0.065
Mof_H 	H 	0.1512	0.4936	0.836	-0.003
Mof_C 	C 	0.14077	0.47041	0.8183	-0.107
Mof_H 	H 	0.1515	0.4713	0.8082	0.068
Mof_C 	C 	0.12495	0.45611	0.81624	0.014
Mof_H 	H 	0.1245	0.4469	0.8047	0.035
Mof_C 	C 	0.10954	0.45546	0.83154	-0.055
Mof_C 	C 	0.11115	0.46885	0.84801	0.043
Mof_H 	H 	0.1005	0.4685	0.8582	0.013
Mof_C 	C 	0.09207	0.44017	0.83004	0.142
Mof_C 	C 	0.06478	0.4243	0.84503	0.136
Mof_C 	C 	0.07474	0.41537	0.81253	0.139
Mof_C 	C 	0.03764	0.40341	0.86283	0.048
Mof_H 	H 	0.0374	0.3946	0.851	0.009
Mof_C 	C 	0.05177	0.42038	0.86298	-0.058
Mof_C 	C 	0.05276	0.43212	0.88086	0.018
Mof_H 	H 	0.0623	0.4433	0.8819	0.035
Mof_C 	C 	0.03981	0.42751	0.89724	-0.11
Mof_H 	H 	0.0404	0.4352	0.9098	0.071
Mof_C 	C 	0.02587	0.41138	0.89493	0.069
Mof_H 	H 	0.0164	0.4088	0.906	-0.002
Mof_C 	C 	0.9989	0.3781	0.82552	0.108
Mof_C 	C 	0.98247	0.33252	0.8878	0.052
Mof_H 	H 	0.9932	0.3335	0.8979	0.003
Mof_C 	C 	0.97106	0.31521	0.88726	-0.096
Mof_H 	H 	0.9733	0.3045	0.8972	0.066
Mof_C 	C 	0.95561	0.31295	0.87179	0.005
Mof_H 	H 	0.9476	0.3006	0.8707	0.039
Mof_C 	C 	0.95256	0.32958	0.85827	-0.053
Mof_C 	C 	0.96521	0.34696	0.86005	0.046
Mof_H 	H 	0.9634	0.3579	0.8503	0.011
Mof_C 	C 	0.93677	0.32861	0.84207	0.133
Mof_N 	N 	0.09003	0.3851	0.76561	-0.224
Mof_N 	N 	0.14535	0.52309	0.86325	-0.26
Mof_N 	N 	0.12672	0.48243	0.85068	-0.229
Mof_N 	N 	0.09057	0.42908	0.81309	-0.155
Mof_N 	N 	0.07977	0.43858	0.84658	-0.153
Mof_N 	N 	0.06151	0.41246	0.82774	-0.152
Mof_N 	N 	0.02488	0.39926	0.87827	-0.234
Mof_N 	N 	0.97967	0.34916	0.87452	-0.226
Mof_N 	N 	0.00102	0.37707	0.84297	-0.267
Mof_N 	N 	0.93687	0.34343	0.82751	-0.15
Mof_S 	S 	0.17257	0.54017	0.83435	-0.063
Mof_S 	S 	0.99641	0.37921	0.79975	-0.061
Mof_C 	C 	0.0899	0.89834	0.28178	0.037
Mof_H 	H 	0.1024	0.9057	0.2849	0.013
Mof_C 	C 	0.07273	0.90189	0.29417	-0.052
Mof_C 	C 	0.05437	0.89183	0.28951	0.01
Mof_H 	H 	0.0424	0.8934	0.2981	0.037
Mof_C 	C 	0.05383	0.87938	0.27202	-0.1
Mof_H 	H 	0.0411	0.8733	0.2676	0.066
Mof_C 	C 	0.07171	0.87578	0.26099	0.058
Mof_H 	H 	0.0712	0.8663	0.2496	0.001
Mof_C 	C 	0.15658	0.031	0.35151	0.098
Mof_C 	C 	0.14067	0.98327	0.33516	0.065
Mof_H 	H 	0.1512	0.9936	0.336	-0.003
Mof_C 	C 	0.14077	0.97041	0.3183	-0.107
Mof_H 	H 	0.1515	0.9713	0.3082	0.068
Mof_C 	C 	0.12495	0.95611	0.31624	0.014
Mof_H 	H 	0.1245	0.9469	0.3047	0.035
Mof_C 	C 	0.10954	0.95546	0.33154	-0.055
Mof_C 	C 	0.11115	0.96885	0.34801	0.043
Mof_H 	H 	0.1005	0.9685	0.3582	0.013
Mof_C 	C 	0.09207	0.94017	0.33004	0.142
Mof_C 	C 	0.06478	0.9243	0.34503	0.136
Mof_C 	C 	0.07474	0.91537	0.31253	0.139
Mof_C 	C 	0.03764	0.90341	0.36283	0.048
Mof_H 	H 	0.0374	0.8946	0.351	0.009
Mof_C 	C 	0.05177	0.92038	0.36298	-0.058
Mof_C 	C 	0.05276	0.93212	0.38086	0.018
Mof_H 	H 	0.0623	0.9433	0.3819	0.035
Mof_C 	C 	0.03981	0.92751	0.39724	-0.11
Mof_H 	H 	0.0404	0.9352	0.4098	0.071
Mof_C 	C 	0.02587	0.91138	0.39493	0.069
Mof_H 	H 	0.0164	0.9088	0.406	-0.002
Mof_C 	C 	0.9989	0.8781	0.32552	0.108
Mof_C 	C 	0.98247	0.83252	0.3878	0.052
Mof_H 	H 	0.9932	0.8335	0.3979	0.003
Mof_C 	C 	0.97106	0.81521	0.38726	-0.096
Mof_H 	H 	0.9733	0.8045	0.3972	0.066
Mof_C 	C 	0.95561	0.81295	0.37179	0.005
Mof_H 	H 	0.9476	0.8006	0.3707	0.039
Mof_C 	C 	0.95256	0.82958	0.35827	-0.053
Mof_C 	C 	0.96521	0.84696	0.36005	0.046
Mof_H 	H 	0.9634	0.8579	0.3503	0.011
Mof_C 	C 	0.93677	0.82861	0.34207	0.133
Mof_N 	N 	0.09003	0.8851	0.26561	-0.224
Mof_N 	N 	0.14535	0.02309	0.36325	-0.26
Mof_N 	N 	0.12672	0.98243	0.35068	-0.229
Mof_N 	N 	0.09057	0.92908	0.31309	-0.155
Mof_N 	N 	0.07977	0.93858	0.34658	-0.153
Mof_N 	N 	0.06151	0.91246	0.32774	-0.152
Mof_N 	N 	0.02488	0.89926	0.37827	-0.234
Mof_N 	N 	0.97967	0.84916	0.37452	-0.226
Mof_N 	N 	0.00102	0.87707	0.34297	-0.267
Mof_N 	N 	0.93687	0.84343	0.32751	-0.15
Mof_S 	S 	0.17257	0.04017	0.33435	-0.063
Mof_S 	S 	0.99641	0.87921	0.29975	-0.061
Mof_C 	C 	0.1601	0.85166	0.78178	0.037
Mof_H 	H 	0.1476	0.8443	0.7849	0.013
Mof_C 	C 	0.17727	0.84811	0.79417	-0.052
Mof_C 	C 	0.19563	0.85817	0.78951	0.01
Mof_H 	H 	0.2076	0.8566	0.7981	0.037
Mof_C 	C 	0.19617	0.87062	0.77202	-0.1
Mof_H 	H 	0.2089	0.8767	0.7676	0.066
Mof_C 	C 	0.17829	0.87422	0.76099	0.058
Mof_H 	H 	0.1788	0.8837	0.7496	0.001
Mof_C 	C 	0.09342	0.719	0.85151	0.098
Mof_C 	C 	0.10933	0.76673	0.83516	0.065
Mof_H 	H 	0.0988	0.7564	0.836	-0.003
Mof_C 	C 	0.10923	0.77959	0.8183	-0.107
Mof_H 	H 	0.0985	0.7787	0.8082	0.068
Mof_C 	C 	0.12505	0.79389	0.81624	0.014
Mof_H 	H 	0.1255	0.8031	0.8047	0.035
Mof_C 	C 	0.14046	0.79454	0.83154	-0.055
Mof_C 	C 	0.13885	0.78115	0.84801	0.043
Mof_H 	H 	0.1495	0.7815	0.8582	0.013
Mof_C 	C 	0.15793	0.80983	0.83004	0.142
Mof_C 	C 	0.18522	0.8257	0.84503	0.136
Mof_C 	C 	0.17526	0.83463	0.81253	0.139
Mof_C 	C 	0.21236	0.84659	0.86283	0.048
Mof_H 	H 	0.2126	0.8554	0.851	0.009
Mof_C 	C 	0.19823	0.82962	0.86298	-0.058
Mof_C 	C 	0.19724	0.81788	0.88086	0.018
Mof_H 	H 	0.1877	0.8067	0.8819	0.035
Mof_C 	C 	0.21019	0.82249	0.89724	-0.11
Mof_H 	H 	0.2096	0.8148	0.9098	0.071
Mof_C 	C 	0.22413	0.83862	0.89493	0.069
Mof_H 	H 	0.2336	0.8412	0.906	-0.002
Mof_C 	C 	0.2511	0.8719	0.82552	0.108
Mof_C 	C 	0.26753	0.91748	0.8878	0.052
Mof_H 	H 	0.2568	0.9165	0.8979	0.003
Mof_C 	C 	0.27894	0.93479	0.88726	-0.096
Mof_H 	H 	0.2767	0.9455	0.8972	0.066
Mof_C 	C 	0.29439	0.93705	0.87179	0.005
Mof_H 	H 	0.3024	0.9494	0.8707	0.039
Mof_C 	C 	0.29744	0.92042	0.85827	-0.053
Mof_C 	C 	0.28479	0.90304	0.86005	0.046
Mof_H 	H 	0.2866	0.8921	0.8503	0.011
Mof_C 	C 	0.31323	0.92139	0.84207	0.133
Mof_N 	N 	0.15997	0.8649	0.76561	-0.224
Mof_N 	N 	0.10465	0.72691	0.86325	-0.26
Mof_N 	N 	0.12328	0.76757	0.85068	-0.229
Mof_N 	N 	0.15943	0.82092	0.81309	-0.155
Mof_N 	N 	0.17023	0.81142	0.84658	-0.153
Mof_N 	N 	0.18849	0.83754	0.82774	-0.152
Mof_N 	N 	0.22512	0.85074	0.87827	-0.234
Mof_N 	N 	0.27033	0.90084	0.87452	-0.226
Mof_N 	N 	0.24898	0.87293	0.84297	-0.267
Mof_N 	N 	0.31313	0.90657	0.82751	-0.15
Mof_S 	S 	0.07743	0.70983	0.83435	-0.063
Mof_S 	S 	0.25359	0.87079	0.79975	-0.061
Mof_C 	C 	0.1601	0.35166	0.28178	0.037
Mof_H 	H 	0.1476	0.3443	0.2849	0.013
Mof_C 	C 	0.17727	0.34811	0.29417	-0.052
Mof_C 	C 	0.19563	0.35817	0.28951	0.01
Mof_H 	H 	0.2076	0.3566	0.2981	0.037
Mof_C 	C 	0.19617	0.37062	0.27202	-0.1
Mof_H 	H 	0.2089	0.3767	0.2676	0.066
Mof_C 	C 	0.17829	0.37422	0.26099	0.058
Mof_H 	H 	0.1788	0.3837	0.2496	0.001
Mof_C 	C 	0.09342	0.219	0.35151	0.098
Mof_C 	C 	0.10933	0.26673	0.33516	0.065
Mof_H 	H 	0.0988	0.2564	0.336	-0.003
Mof_C 	C 	0.10923	0.27959	0.3183	-0.107
Mof_H 	H 	0.0985	0.2787	0.3082	0.068
Mof_C 	C 	0.12505	0.29389	0.31624	0.014
Mof_H 	H 	0.1255	0.3031	0.3047	0.035
Mof_C 	C 	0.14046	0.29454	0.33154	-0.055
Mof_C 	C 	0.13885	0.28115	0.34801	0.043
Mof_H 	H 	0.1495	0.2815	0.3582	0.013
Mof_C 	C 	0.15793	0.30983	0.33004	0.142
Mof_C 	C 	0.18522	0.3257	0.34503	0.136
Mof_C 	C 	0.17526	0.33463	0.31253	0.139
Mof_C 	C 	0.21236	0.34659	0.36283	0.048
Mof_H 	H 	0.2126	0.3554	0.351	0.009
Mof_C 	C 	0.19823	0.32962	0.36298	-0.058
Mof_C 	C 	0.19724	0.31788	0.38086	0.018
Mof_H 	H 	0.1877	0.3067	0.3819	0.035
Mof_C 	C 	0.21019	0.32249	0.39724	-0.11
Mof_H 	H 	0.2096	0.3148	0.4098	0.071
Mof_C 	C 	0.22413	0.33862	0.39493	0.069
Mof_H 	H 	0.2336	0.3412	0.406	-0.002
Mof_C 	C 	0.2511	0.3719	0.32552	0.108
Mof_C 	C 	0.26753	0.41748	0.3878	0.052
Mof_H 	H 	0.2568	0.4165	0.3979	0.003
Mof_C 	C 	0.27894	0.43479	0.38726	-0.096
Mof_H 	H 	0.2767	0.4455	0.3972	0.066
Mof_C 	C 	0.29439	0.43705	0.37179	0.005
Mof_H 	H 	0.3024	0.4494	0.3707	0.039
Mof_C 	C 	0.29744	0.42042	0.35827	-0.053
Mof_C 	C 	0.28479	0.40304	0.36005	0.046
Mof_H 	H 	0.2866	0.3921	0.3503	0.011
Mof_C 	C 	0.31323	0.42139	0.34207	0.133
Mof_N 	N 	0.15997	0.3649	0.26561	-0.224
Mof_N 	N 	0.10465	0.22691	0.36325	-0.26
Mof_N 	N 	0.12328	0.26757	0.35068	-0.229
Mof_N 	N 	0.15943	0.32092	0.31309	-0.155
Mof_N 	N 	0.17023	0.31142	0.34658	-0.153
Mof_N 	N 	0.18849	0.33754	0.32774	-0.152
Mof_N 	N 	0.22512	0.35074	0.37827	-0.234
Mof_N 	N 	0.27033	0.40084	0.37452	-0.226
Mof_N 	N 	0.24898	0.37293	0.34297	-0.267
Mof_N 	N 	0.31313	0.40657	0.32751	-0.15
Mof_S 	S 	0.07743	0.20983	0.33435	-0.063
Mof_S 	S 	0.25359	0.37079	0.29975	-0.061
Mof_C 	C 	0.6601	0.85166	0.28178	0.037
Mof_H 	H 	0.6476	0.8443	0.2849	0.013
Mof_C 	C 	0.67727	0.84811	0.29417	-0.052
Mof_C 	C 	0.69563	0.85817	0.28951	0.01
Mof_H 	H 	0.7076	0.8566	0.2981	0.037
Mof_C 	C 	0.69617	0.87062	0.27202	-0.1
Mof_H 	H 	0.7089	0.8767	0.2676	0.066
Mof_C 	C 	0.67829	0.87422	0.26099	0.058
Mof_H 	H 	0.6788	0.8837	0.2496	0.001
Mof_C 	C 	0.59342	0.719	0.35151	0.098
Mof_C 	C 	0.60933	0.76673	0.33516	0.065
Mof_H 	H 	0.5988	0.7564	0.336	-0.003
Mof_C 	C 	0.60923	0.77959	0.3183	-0.107
Mof_H 	H 	0.5985	0.7787	0.3082	0.068
Mof_C 	C 	0.62505	0.79389	0.31624	0.014
Mof_H 	H 	0.6255	0.8031	0.3047	0.035
Mof_C 	C 	0.64046	0.79454	0.33154	-0.055
Mof_C 	C 	0.63885	0.78115	0.34801	0.043
Mof_H 	H 	0.6495	0.7815	0.3582	0.013
Mof_C 	C 	0.65793	0.80983	0.33004	0.142
Mof_C 	C 	0.68522	0.8257	0.34503	0.136
Mof_C 	C 	0.67526	0.83463	0.31253	0.139
Mof_C 	C 	0.71236	0.84659	0.36283	0.048
Mof_H 	H 	0.7126	0.8554	0.351	0.009
Mof_C 	C 	0.69823	0.82962	0.36298	-0.058
Mof_C 	C 	0.69724	0.81788	0.38086	0.018
Mof_H 	H 	0.6877	0.8067	0.3819	0.035
Mof_C 	C 	0.71019	0.82249	0.39724	-0.11
Mof_H 	H 	0.7096	0.8148	0.4098	0.071
Mof_C 	C 	0.72413	0.83862	0.39493	0.069
Mof_H 	H 	0.7336	0.8412	0.406	-0.002
Mof_C 	C 	0.7511	0.8719	0.32552	0.108
Mof_C 	C 	0.76753	0.91748	0.3878	0.052
Mof_H 	H 	0.7568	0.9165	0.3979	0.003
Mof_C 	C 	0.77894	0.93479	0.38726	-0.096
Mof_H 	H 	0.7767	0.9455	0.3972	0.066
Mof_C 	C 	0.79439	0.93705	0.37179	0.005
Mof_H 	H 	0.8024	0.9494	0.3707	0.039
Mof_C 	C 	0.79744	0.92042	0.35827	-0.053
Mof_C 	C 	0.78479	0.90304	0.36005	0.046
Mof_H 	H 	0.7866	0.8921	0.3503	0.011
Mof_C 	C 	0.81323	0.92139	0.34207	0.133
Mof_N 	N 	0.65997	0.8649	0.26561	-0.224
Mof_N 	N 	0.60465	0.72691	0.36325	-0.26
Mof_N 	N 	0.62328	0.76757	0.35068	-0.229
Mof_N 	N 	0.65943	0.82092	0.31309	-0.155
Mof_N 	N 	0.67023	0.81142	0.34658	-0.153
Mof_N 	N 	0.68849	0.83754	0.32774	-0.152
Mof_N 	N 	0.72512	0.85074	0.37827	-0.234
Mof_N 	N 	0.77033	0.90084	0.37452	-0.226
Mof_N 	N 	0.74898	0.87293	0.34297	-0.267
Mof_N 	N 	0.81313	0.90657	0.32751	-0.15
Mof_S 	S 	0.57743	0.70983	0.33435	-0.063
Mof_S 	S 	0.75359	0.87079	0.29975	-0.061
Mof_C 	C 	0.6601	0.35166	0.78178	0.037
Mof_H 	H 	0.6476	0.3443	0.7849	0.013
Mof_C 	C 	0.67727	0.34811	0.79417	-0.052
Mof_C 	C 	0.69563	0.35817	0.78951	0.01
Mof_H 	H 	0.7076	0.3566	0.7981	0.037
Mof_C 	C 	0.69617	0.37062	0.77202	-0.1
Mof_H 	H 	0.7089	0.3767	0.7676	0.066
Mof_C 	C 	0.67829	0.37422	0.76099	0.058
Mof_H 	H 	0.6788	0.3837	0.7496	0.001
Mof_C 	C 	0.59342	0.219	0.85151	0.098
Mof_C 	C 	0.60933	0.26673	0.83516	0.065
Mof_H 	H 	0.5988	0.2564	0.836	-0.003
Mof_C 	C 	0.60923	0.27959	0.8183	-0.107
Mof_H 	H 	0.5985	0.2787	0.8082	0.068
Mof_C 	C 	0.62505	0.29389	0.81624	0.014
Mof_H 	H 	0.6255	0.3031	0.8047	0.035
Mof_C 	C 	0.64046	0.29454	0.83154	-0.055
Mof_C 	C 	0.63885	0.28115	0.84801	0.043
Mof_H 	H 	0.6495	0.2815	0.8582	0.013
Mof_C 	C 	0.65793	0.30983	0.83004	0.142
Mof_C 	C 	0.68522	0.3257	0.84503	0.136
Mof_C 	C 	0.67526	0.33463	0.81253	0.139
Mof_C 	C 	0.71236	0.34659	0.86283	0.048
Mof_H 	H 	0.7126	0.3554	0.851	0.009
Mof_C 	C 	0.69823	0.32962	0.86298	-0.058
Mof_C 	C 	0.69724	0.31788	0.88086	0.018
Mof_H 	H 	0.6877	0.3067	0.8819	0.035
Mof_C 	C 	0.71019	0.32249	0.89724	-0.11
Mof_H 	H 	0.7096	0.3148	0.9098	0.071
Mof_C 	C 	0.72413	0.33862	0.89493	0.069
Mof_H 	H 	0.7336	0.3412	0.906	-0.002
Mof_C 	C 	0.7511	0.3719	0.82552	0.108
Mof_C 	C 	0.76753	0.41748	0.8878	0.052
Mof_H 	H 	0.7568	0.4165	0.8979	0.003
Mof_C 	C 	0.77894	0.43479	0.88726	-0.096
Mof_H 	H 	0.7767	0.4455	0.8972	0.066
Mof_C 	C 	0.79439	0.43705	0.87179	0.005
Mof_H 	H 	0.8024	0.4494	0.8707	0.039
Mof_C 	C 	0.79744	0.42042	0.85827	-0.053
Mof_C 	C 	0.78479	0.40304	0.86005	0.046
Mof_H 	H 	0.7866	0.3921	0.8503	0.011
Mof_C 	C 	0.81323	0.42139	0.84207	0.133
Mof_N 	N 	0.65997	0.3649	0.76561	-0.224
Mof_N 	N 	0.60465	0.22691	0.86325	-0.26
Mof_N 	N 	0.62328	0.26757	0.85068	-0.229
Mof_N 	N 	0.65943	0.32092	0.81309	-0.155
Mof_N 	N 	0.67023	0.31142	0.84658	-0.153
Mof_N 	N 	0.68849	0.33754	0.82774	-0.152
Mof_N 	N 	0.72512	0.35074	0.87827	-0.234
Mof_N 	N 	0.77033	0.40084	0.87452	-0.226
Mof_N 	N 	0.74898	0.37293	0.84297	-0.267
Mof_N 	N 	0.81313	0.40657	0.82751	-0.15
Mof_S 	S 	0.57743	0.20983	0.83435	-0.063
Mof_S 	S 	0.75359	0.37079	0.79975	-0.061
Mof_C 	C 	0.0899	0.35166	0.96822	0.038
Mof_H 	H 	0.1024	0.3443	0.9651	0.013
Mof_C 	C 	0.07273	0.34811	0.95583	-0.052
Mof_C 	C 	0.05437	0.35817	0.96049	0.01
Mof_H 	H 	0.0424	0.3566	0.9519	0.037
Mof_C 	C 	0.05383	0.37062	0.97798	-0.1
Mof_H 	H 	0.0411	0.3767	0.9824	0.066
Mof_C 	C 	0.07171	0.37422	0.98901	0.059
Mof_H 	H 	0.0712	0.3837	0.0004	0.001
Mof_C 	C 	0.15658	0.219	0.89849	0.098
Mof_C 	C 	0.14067	0.26673	0.91484	0.065
Mof_H 	H 	0.1512	0.2564	0.914	-0.003
Mof_C 	C 	0.14077	0.27959	0.9317	-0.107
Mof_H 	H 	0.1515	0.2787	0.9418	0.068
Mof_C 	C 	0.12495	0.29389	0.93376	0.014
Mof_H 	H 	0.1245	0.3031	0.9453	0.035
Mof_C 	C 	0.10954	0.29454	0.91846	-0.055
Mof_C 	C 	0.11115	0.28115	0.90199	0.043
Mof_H 	H 	0.1005	0.2815	0.8918	0.013
Mof_C 	C 	0.09207	0.30983	0.91996	0.142
Mof_C 	C 	0.06478	0.3257	0.90497	0.136
Mof_C 	C 	0.07474	0.33463	0.93747	0.139
Mof_C 	C 	0.03764	0.34659	0.88717	0.048
Mof_H 	H 	0.0374	0.3554	0.899	0.009
Mof_C 	C 	0.05177	0.32962	0.88702	-0.058
Mof_C 	C 	0.05276	0.31788	0.86914	0.018
Mof_H 	H 	0.0623	0.3067	0.8681	0.035
Mof_C 	C 	0.03981	0.32249	0.85276	-0.11
Mof_H 	H 	0.0404	0.3148	0.8402	0.071
Mof_C 	C 	0.02587	0.33862	0.85507	0.069
Mof_H 	H 	0.0164	0.3412	0.844	-0.002
Mof_C 	C 	0.9989	0.3719	0.92448	0.108
Mof_C 	C 	0.98247	0.41748	0.8622	0.052
Mof_H 	H 	0.9932	0.4165	0.8521	0.003
Mof_C 	C 	0.97106	0.43479	0.86274	-0.096
Mof_H 	H 	0.9733	0.4455	0.8528	0.066
Mof_C 	C 	0.95561	0.43705	0.87821	0.005
Mof_H 	H 	0.9476	0.4494	0.8793	0.039
Mof_C 	C 	0.95256	0.42042	0.89173	-0.053
Mof_C 	C 	0.96521	0.40304	0.88995	0.046
Mof_H 	H 	0.9634	0.3921	0.8997	0.011
Mof_C 	C 	0.93677	0.42139	0.90793	0.133
Mof_N 	N 	0.09003	0.3649	0.98439	-0.224
Mof_N 	N 	0.14535	0.22691	0.88675	-0.26
Mof_N 	N 	0.12672	0.26757	0.89932	-0.229
Mof_N 	N 	0.09057	0.32092	0.93691	-0.155
Mof_N 	N 	0.07977	0.31142	0.90342	-0.153
Mof_N 	N 	0.06151	0.33754	0.92226	-0.152
Mof_N 	N 	0.02488	0.35074	0.87173	-0.234
Mof_N 	N 	0.97967	0.40084	0.87548	-0.226
Mof_N 	N 	0.00102	0.37293	0.90703	-0.267
Mof_N 	N 	0.93687	0.40657	0.92249	-0.15
Mof_S 	S 	0.17257	0.20983	0.91565	-0.063
Mof_S 	S 	0.99641	0.37079	0.95025	-0.061
Mof_C 	C 	0.0899	0.85166	0.46822	0.037
Mof_H 	H 	0.1024	0.8443	0.4651	0.013
Mof_C 	C 	0.07273	0.84811	0.45583	-0.052
Mof_C 	C 	0.05437	0.85817	0.46049	0.01
Mof_H 	H 	0.0424	0.8566	0.4519	0.037
Mof_C 	C 	0.05383	0.87062	0.47798	-0.1
Mof_H 	H 	0.0411	0.8767	0.4824	0.066
Mof_C 	C 	0.07171	0.87422	0.48901	0.058
Mof_H 	H 	0.0712	0.8837	0.5004	0.001
Mof_C 	C 	0.15658	0.719	0.39849	0.098
Mof_C 	C 	0.14067	0.76673	0.41484	0.065
Mof_H 	H 	0.1512	0.7564	0.414	-0.003
Mof_C 	C 	0.14077	0.77959	0.4317	-0.107
Mof_H 	H 	0.1515	0.7787	0.4418	0.068
Mof_C 	C 	0.12495	0.79389	0.43376	0.014
Mof_H 	H 	0.1245	0.8031	0.4453	0.035
Mof_C 	C 	0.10954	0.79454	0.41846	-0.055
Mof_C 	C 	0.11115	0.78115	0.40199	0.043
Mof_H 	H 	0.1005	0.7815	0.3918	0.013
Mof_C 	C 	0.09207	0.80983	0.41996	0.142
Mof_C 	C 	0.06478	0.8257	0.40497	0.136
Mof_C 	C 	0.07474	0.83463	0.43747	0.139
Mof_C 	C 	0.03764	0.84659	0.38717	0.048
Mof_H 	H 	0.0374	0.8554	0.399	0.009
Mof_C 	C 	0.05177	0.82962	0.38702	-0.058
Mof_C 	C 	0.05276	0.81788	0.36914	0.018
Mof_H 	H 	0.0623	0.8067	0.3681	0.035
Mof_C 	C 	0.03981	0.82249	0.35276	-0.11
Mof_H 	H 	0.0404	0.8148	0.3402	0.071
Mof_C 	C 	0.02587	0.83862	0.35507	0.069
Mof_H 	H 	0.0164	0.8412	0.344	-0.002
Mof_C 	C 	0.9989	0.8719	0.42448	0.108
Mof_C 	C 	0.98247	0.91748	0.3622	0.052
Mof_H 	H 	0.9932	0.9165	0.3521	0.003
Mof_C 	C 	0.97106	0.93479	0.36274	-0.096
Mof_H 	H 	0.9733	0.9455	0.3528	0.066
Mof_C 	C 	0.95561	0.93705	0.37821	0.005
Mof_H 	H 	0.9476	0.9494	0.3793	0.039
Mof_C 	C 	0.95256	0.92042	0.39173	-0.053
Mof_C 	C 	0.96521	0.90304	0.38995	0.046
Mof_H 	H 	0.9634	0.8921	0.3997	0.011
Mof_C 	C 	0.93677	0.92139	0.40793	0.133
Mof_N 	N 	0.09003	0.8649	0.48439	-0.224
Mof_N 	N 	0.14535	0.72691	0.38675	-0.26
Mof_N 	N 	0.12672	0.76757	0.39932	-0.229
Mof_N 	N 	0.09057	0.82092	0.43691	-0.155
Mof_N 	N 	0.07977	0.81142	0.40342	-0.153
Mof_N 	N 	0.06151	0.83754	0.42226	-0.152
Mof_N 	N 	0.02488	0.85074	0.37173	-0.234
Mof_N 	N 	0.97967	0.90084	0.37548	-0.226
Mof_N 	N 	0.00102	0.87293	0.40703	-0.267
Mof_N 	N 	0.93687	0.90657	0.42249	-0.15
Mof_S 	S 	0.17257	0.70983	0.41565	-0.063
Mof_S 	S 	0.99641	0.87079	0.45025	-0.061
Mof_C 	C 	0.5899	0.35166	0.46822	0.037
Mof_H 	H 	0.6024	0.3443	0.4651	0.013
Mof_C 	C 	0.57273	0.34811	0.45583	-0.052
Mof_C 	C 	0.55437	0.35817	0.46049	0.01
Mof_H 	H 	0.5424	0.3566	0.4519	0.037
Mof_C 	C 	0.55383	0.37062	0.47798	-0.1
Mof_H 	H 	0.5411	0.3767	0.4824	0.066
Mof_C 	C 	0.57171	0.37422	0.48901	0.058
Mof_H 	H 	0.5712	0.3837	0.5004	0.001
Mof_C 	C 	0.65658	0.219	0.39849	0.098
Mof_C 	C 	0.64067	0.26673	0.41484	0.065
Mof_H 	H 	0.6512	0.2564	0.414	-0.003
Mof_C 	C 	0.64077	0.27959	0.4317	-0.107
Mof_H 	H 	0.6515	0.2787	0.4418	0.068
Mof_C 	C 	0.62495	0.29389	0.43376	0.014
Mof_H 	H 	0.6245	0.3031	0.4453	0.035
Mof_C 	C 	0.60954	0.29454	0.41846	-0.055
Mof_C 	C 	0.61115	0.28115	0.40199	0.043
Mof_H 	H 	0.6005	0.2815	0.3918	0.013
Mof_C 	C 	0.59207	0.30983	0.41996	0.142
Mof_C 	C 	0.56478	0.3257	0.40497	0.136
Mof_C 	C 	0.57474	0.33463	0.43747	0.139
Mof_C 	C 	0.53764	0.34659	0.38717	0.048
Mof_H 	H 	0.5374	0.3554	0.399	0.009
Mof_C 	C 	0.55177	0.32962	0.38702	-0.058
Mof_C 	C 	0.55276	0.31788	0.36914	0.018
Mof_H 	H 	0.5623	0.3067	0.3681	0.035
Mof_C 	C 	0.53981	0.32249	0.35276	-0.11
Mof_H 	H 	0.5404	0.3148	0.3402	0.071
Mof_C 	C 	0.52587	0.33862	0.35507	0.069
Mof_H 	H 	0.5164	0.3412	0.344	-0.002
Mof_C 	C 	0.4989	0.3719	0.42448	0.108
Mof_C 	C 	0.48247	0.41748	0.3622	0.052
Mof_H 	H 	0.4932	0.4165	0.3521	0.003
Mof_C 	C 	0.47106	0.43479	0.36274	-0.096
Mof_H 	H 	0.4733	0.4455	0.3528	0.066
Mof_C 	C 	0.45561	0.43705	0.37821	0.005
Mof_H 	H 	0.4476	0.4494	0.3793	0.039
Mof_C 	C 	0.45256	0.42042	0.39173	-0.053
Mof_C 	C 	0.46521	0.40304	0.38995	0.046
Mof_H 	H 	0.4634	0.3921	0.3997	0.011
Mof_C 	C 	0.43677	0.42139	0.40793	0.133
Mof_N 	N 	0.59003	0.3649	0.48439	-0.224
Mof_N 	N 	0.64535	0.22691	0.38675	-0.26
Mof_N 	N 	0.62672	0.26757	0.39932	-0.229
Mof_N 	N 	0.59057	0.32092	0.43691	-0.155
Mof_N 	N 	0.57977	0.31142	0.40342	-0.153
Mof_N 	N 	0.56151	0.33754	0.42226	-0.152
Mof_N 	N 	0.52488	0.35074	0.37173	-0.234
Mof_N 	N 	0.47967	0.40084	0.37548	-0.226
Mof_N 	N 	0.50102	0.37293	0.40703	-0.267
Mof_N 	N 	0.43687	0.40657	0.42249	-0.15
Mof_S 	S 	0.67257	0.20983	0.41565	-0.063
Mof_S 	S 	0.49641	0.37079	0.45025	-0.061
Mof_C 	C 	0.5899	0.85166	0.96822	0.038
Mof_H 	H 	0.6024	0.8443	0.9651	0.013
Mof_C 	C 	0.57273	0.84811	0.95583	-0.052
Mof_C 	C 	0.55437	0.85817	0.96049	0.01
Mof_H 	H 	0.5424	0.8566	0.9519	0.037
Mof_C 	C 	0.55383	0.87062	0.97798	-0.1
Mof_H 	H 	0.5411	0.8767	0.9824	0.066
Mof_C 	C 	0.57171	0.87422	0.98901	0.059
Mof_H 	H 	0.5712	0.8837	0.0004	0.001
Mof_C 	C 	0.65658	0.719	0.89849	0.098
Mof_C 	C 	0.64067	0.76673	0.91484	0.065
Mof_H 	H 	0.6512	0.7564	0.914	-0.003
Mof_C 	C 	0.64077	0.77959	0.9317	-0.107
Mof_H 	H 	0.6515	0.7787	0.9418	0.068
Mof_C 	C 	0.62495	0.79389	0.93376	0.014
Mof_H 	H 	0.6245	0.8031	0.9453	0.035
Mof_C 	C 	0.60954	0.79454	0.91846	-0.055
Mof_C 	C 	0.61115	0.78115	0.90199	0.043
Mof_H 	H 	0.6005	0.7815	0.8918	0.013
Mof_C 	C 	0.59207	0.80983	0.91996	0.142
Mof_C 	C 	0.56478	0.8257	0.90497	0.136
Mof_C 	C 	0.57474	0.83463	0.93747	0.139
Mof_C 	C 	0.53764	0.84659	0.88717	0.048
Mof_H 	H 	0.5374	0.8554	0.899	0.009
Mof_C 	C 	0.55177	0.82962	0.88702	-0.058
Mof_C 	C 	0.55276	0.81788	0.86914	0.018
Mof_H 	H 	0.5623	0.8067	0.8681	0.035
Mof_C 	C 	0.53981	0.82249	0.85276	-0.11
Mof_H 	H 	0.5404	0.8148	0.8402	0.071
Mof_C 	C 	0.52587	0.83862	0.85507	0.069
Mof_H 	H 	0.5164	0.8412	0.844	-0.002
Mof_C 	C 	0.4989	0.8719	0.92448	0.108
Mof_C 	C 	0.48247	0.91748	0.8622	0.052
Mof_H 	H 	0.4932	0.9165	0.8521	0.003
Mof_C 	C 	0.47106	0.93479	0.86274	-0.096
Mof_H 	H 	0.4733	0.9455	0.8528	0.066
Mof_C 	C 	0.45561	0.93705	0.87821	0.005
Mof_H 	H 	0.4476	0.9494	0.8793	0.039
Mof_C 	C 	0.45256	0.92042	0.89173	-0.053
Mof_C 	C 	0.46521	0.90304	0.88995	0.046
Mof_H 	H 	0.4634	0.8921	0.8997	0.011
Mof_C 	C 	0.43677	0.92139	0.90793	0.133
Mof_N 	N 	0.59003	0.8649	0.98439	-0.224
Mof_N 	N 	0.64535	0.72691	0.88675	-0.26
Mof_N 	N 	0.62672	0.76757	0.89932	-0.229
Mof_N 	N 	0.59057	0.82092	0.93691	-0.155
Mof_N 	N 	0.57977	0.81142	0.90342	-0.153
Mof_N 	N 	0.56151	0.83754	0.92226	-0.152
Mof_N 	N 	0.52488	0.85074	0.87173	-0.234
Mof_N 	N 	0.47967	0.90084	0.87548	-0.226
Mof_N 	N 	0.50102	0.87293	0.90703	-0.267
Mof_N 	N 	0.43687	0.90657	0.92249	-0.15
Mof_S 	S 	0.67257	0.70983	0.91565	-0.063
Mof_S 	S 	0.49641	0.87079	0.95025	-0.061
Mof_C 	C 	0.9101	0.21822	0.10166	0.037
Mof_H 	H 	0.8976	0.2151	0.0943	0.013
Mof_C 	C 	0.92727	0.20583	0.09811	-0.052
Mof_C 	C 	0.94563	0.21049	0.10817	0.01
Mof_H 	H 	0.9576	0.2019	0.1066	0.037
Mof_C 	C 	0.94617	0.22798	0.12062	-0.1
Mof_H 	H 	0.9589	0.2324	0.1267	0.066
Mof_C 	C 	0.92829	0.23901	0.12422	0.058
Mof_H 	H 	0.9288	0.2504	0.1337	0.001
Mof_C 	C 	0.84342	0.14849	0.969	0.098
Mof_C 	C 	0.85933	0.16484	0.01673	0.065
Mof_H 	H 	0.8488	0.164	0.0064	-0.003
Mof_C 	C 	0.85923	0.1817	0.02959	-0.107
Mof_H 	H 	0.8485	0.1918	0.0287	0.068
Mof_C 	C 	0.87505	0.18376	0.04389	0.014
Mof_H 	H 	0.8755	0.1953	0.0531	0.035
Mof_C 	C 	0.89046	0.16846	0.04454	-0.055
Mof_C 	C 	0.88885	0.15199	0.03115	0.043
Mof_H 	H 	0.8995	0.1418	0.0315	0.013
Mof_C 	C 	0.90793	0.16996	0.05983	0.142
Mof_C 	C 	0.93522	0.15497	0.0757	0.136
Mof_C 	C 	0.92526	0.18747	0.08463	0.139
Mof_C 	C 	0.96236	0.13717	0.09659	0.048
Mof_H 	H 	0.9626	0.149	0.1054	0.009
Mof_C 	C 	0.94823	0.13702	0.07962	-0.058
Mof_C 	C 	0.94724	0.11914	0.06788	0.018
Mof_H 	H 	0.9377	0.1181	0.0567	0.035
Mof_C 	C 	0.96019	0.10276	0.07249	-0.11
Mof_H 	H 	0.9596	0.0902	0.0648	0.071
Mof_C 	C 	0.97413	0.10507	0.08862	0.069
Mof_H 	H 	0.9836	0.094	0.0912	-0.002
Mof_C 	C 	0.0011	0.17448	0.1219	0.108
Mof_C 	C 	0.01753	0.1122	0.16748	0.052
Mof_H 	H 	0.0068	0.1021	0.1665	0.003
Mof_C 	C 	0.02894	0.11274	0.18479	-0.096
Mof_H 	H 	0.0267	0.1028	0.1955	0.066
Mof_C 	C 	0.04439	0.12821	0.18705	0.005
Mof_H 	H 	0.0524	0.1293	0.1994	0.039
Mof_C 	C 	0.04744	0.14173	0.17042	-0.053
Mof_C 	C 	0.03479	0.13995	0.15304	0.046
Mof_H 	H 	0.0366	0.1497	0.1421	0.011
Mof_C 	C 	0.06323	0.15793	0.17139	0.133
Mof_N 	N 	0.90997	0.23439	0.1149	-0.224
Mof_N 	N 	0.85465	0.13675	0.97691	-0.26
Mof_N 	N 	0.87328	0.14932	0.01757	-0.229
Mof_N 	N 	0.90943	0.18691	0.07092	-0.155
Mof_N 	N 	0.92023	0.15342	0.06142	-0.153
Mof_N 	N 	0.93849	0.17226	0.08754	-0.152
Mof_N 	N 	0.97512	0.12173	0.10074	-0.234
Mof_N 	N 	0.02033	0.12548	0.15084	-0.226
Mof_N 	N 	0.99898	0.15703	0.12293	-0.267
Mof_N 	N 	0.06313	0.17249	0.15657	-0.15
Mof_S 	S 	0.82743	0.16565	0.95983	-0.063
Mof_S 	S 	0.00359	0.20025	0.12079	-0.061
Mof_C 	C 	0.9101	0.71822	0.60166	0.037
Mof_H 	H 	0.8976	0.7151	0.5943	0.013
Mof_C 	C 	0.92727	0.70583	0.59811	-0.052
Mof_C 	C 	0.94563	0.71049	0.60817	0.01
Mof_H 	H 	0.9576	0.7019	0.6066	0.037
Mof_C 	C 	0.94617	0.72798	0.62062	-0.1
Mof_H 	H 	0.9589	0.7324	0.6267	0.066
Mof_C 	C 	0.92829	0.73901	0.62422	0.058
Mof_H 	H 	0.9288	0.7504	0.6337	0.001
Mof_C 	C 	0.84342	0.64849	0.469	0.098
Mof_C 	C 	0.85933	0.66484	0.51673	0.065
Mof_H 	H 	0.8488	0.664	0.5064	-0.003
Mof_C 	C 	0.85923	0.6817	0.52959	-0.107
Mof_H 	H 	0.8485	0.6918	0.5287	0.068
Mof_C 	C 	0.87505	0.68376	0.54389	0.014
Mof_H 	H 	0.8755	0.6953	0.5531	0.035
Mof_C 	C 	0.89046	0.66846	0.54454	-0.055
Mof_C 	C 	0.88885	0.65199	0.53115	0.043
Mof_H 	H 	0.8995	0.6418	0.5315	0.013
Mof_C 	C 	0.90793	0.66996	0.55983	0.142
Mof_C 	C 	0.93522	0.65497	0.5757	0.136
Mof_C 	C 	0.92526	0.68747	0.58463	0.139
Mof_C 	C 	0.96236	0.63717	0.59659	0.048
Mof_H 	H 	0.9626	0.649	0.6054	0.009
Mof_C 	C 	0.94823	0.63702	0.57962	-0.058
Mof_C 	C 	0.94724	0.61914	0.56788	0.018
Mof_H 	H 	0.9377	0.6181	0.5567	0.035
Mof_C 	C 	0.96019	0.60276	0.57249	-0.11
Mof_H 	H 	0.9596	0.5902	0.5648	0.071
Mof_C 	C 	0.97413	0.60507	0.58862	0.069
Mof_H 	H 	0.9836	0.594	0.5912	-0.002
Mof_C 	C 	0.0011	0.67448	0.6219	0.108
Mof_C 	C 	0.01753	0.6122	0.66748	0.052
Mof_H 	H 	0.0068	0.6021	0.6665	0.003
Mof_C 	C 	0.02894	0.61274	0.68479	-0.096
Mof_H 	H 	0.0267	0.6028	0.6955	0.066
Mof_C 	C 	0.04439	0.62821	0.68705	0.005
Mof_H 	H 	0.0524	0.6293	0.6994	0.039
Mof_C 	C 	0.04744	0.64173	0.67042	-0.053
Mof_C 	C 	0.03479	0.63995	0.65304	0.046
Mof_H 	H 	0.0366	0.6497	0.6421	0.011
Mof_C 	C 	0.06323	0.65793	0.67139	0.133
Mof_N 	N 	0.90997	0.73439	0.6149	-0.224
Mof_N 	N 	0.85465	0.63675	0.47691	-0.26
Mof_N 	N 	0.87328	0.64932	0.51757	-0.229
Mof_N 	N 	0.90943	0.68691	0.57092	-0.155
Mof_N 	N 	0.92023	0.65342	0.56142	-0.153
Mof_N 	N 	0.93849	0.67226	0.58754	-0.152
Mof_N 	N 	0.97512	0.62173	0.60074	-0.234
Mof_N 	N 	0.02033	0.62548	0.65084	-0.226
Mof_N 	N 	0.99898	0.65703	0.62293	-0.267
Mof_N 	N 	0.06313	0.67249	0.65657	-0.15
Mof_S 	S 	0.82743	0.66565	0.45983	-0.063
Mof_S 	S 	0.00359	0.70025	0.62079	-0.061
Mof_C 	C 	0.4101	0.21822	0.60166	0.037
Mof_H 	H 	0.3976	0.2151	0.5943	0.013
Mof_C 	C 	0.42727	0.20583	0.59811	-0.052
Mof_C 	C 	0.44563	0.21049	0.60817	0.01
Mof_H 	H 	0.4576	0.2019	0.6066	0.037
Mof_C 	C 	0.44617	0.22798	0.62062	-0.1
Mof_H 	H 	0.4589	0.2324	0.6267	0.066
Mof_C 	C 	0.42829	0.23901	0.62422	0.058
Mof_H 	H 	0.4288	0.2504	0.6337	0.001
Mof_C 	C 	0.34342	0.14849	0.469	0.098
Mof_C 	C 	0.35933	0.16484	0.51673	0.065
Mof_H 	H 	0.3488	0.164	0.5064	-0.003
Mof_C 	C 	0.35923	0.1817	0.52959	-0.107
Mof_H 	H 	0.3485	0.1918	0.5287	0.068
Mof_C 	C 	0.37505	0.18376	0.54389	0.014
Mof_H 	H 	0.3755	0.1953	0.5531	0.035
Mof_C 	C 	0.39046	0.16846	0.54454	-0.055
Mof_C 	C 	0.38885	0.15199	0.53115	0.043
Mof_H 	H 	0.3995	0.1418	0.5315	0.013
Mof_C 	C 	0.40793	0.16996	0.55983	0.142
Mof_C 	C 	0.43522	0.15497	0.5757	0.136
Mof_C 	C 	0.42526	0.18747	0.58463	0.139
Mof_C 	C 	0.46236	0.13717	0.59659	0.048
Mof_H 	H 	0.4626	0.149	0.6054	0.009
Mof_C 	C 	0.44823	0.13702	0.57962	-0.058
Mof_C 	C 	0.44724	0.11914	0.56788	0.018
Mof_H 	H 	0.4377	0.1181	0.5567	0.035
Mof_C 	C 	0.46019	0.10276	0.57249	-0.11
Mof_H 	H 	0.4596	0.0902	0.5648	0.071
Mof_C 	C 	0.47413	0.10507	0.58862	0.069
Mof_H 	H 	0.4836	0.094	0.5912	-0.002
Mof_C 	C 	0.5011	0.17448	0.6219	0.108
Mof_C 	C 	0.51753	0.1122	0.66748	0.052
Mof_H 	H 	0.5068	0.1021	0.6665	0.003
Mof_C 	C 	0.52894	0.11274	0.68479	-0.096
Mof_H 	H 	0.5267	0.1028	0.6955	0.066
Mof_C 	C 	0.54439	0.12821	0.68705	0.005
Mof_H 	H 	0.5524	0.1293	0.6994	0.039
Mof_C 	C 	0.54744	0.14173	0.67042	-0.053
Mof_C 	C 	0.53479	0.13995	0.65304	0.046
Mof_H 	H 	0.5366	0.1497	0.6421	0.011
Mof_C 	C 	0.56323	0.15793	0.67139	0.133
Mof_N 	N 	0.40997	0.23439	0.6149	-0.224
Mof_N 	N 	0.35465	0.13675	0.47691	-0.26
Mof_N 	N 	0.37328	0.14932	0.51757	-0.229
Mof_N 	N 	0.40943	0.18691	0.57092	-0.155
Mof_N 	N 	0.42023	0.15342	0.56142	-0.153
Mof_N 	N 	0.43849	0.17226	0.58754	-0.152
Mof_N 	N 	0.47512	0.12173	0.60074	-0.234
Mof_N 	N 	0.52033	0.12548	0.65084	-0.226
Mof_N 	N 	0.49898	0.15703	0.62293	-0.267
Mof_N 	N 	0.56313	0.17249	0.65657	-0.15
Mof_S 	S 	0.32743	0.16565	0.45983	-0.063
Mof_S 	S 	0.50359	0.20025	0.62079	-0.061
Mof_C 	C 	0.4101	0.71822	0.10166	0.037
Mof_H 	H 	0.3976	0.7151	0.0943	0.013
Mof_C 	C 	0.42727	0.70583	0.09811	-0.052
Mof_C 	C 	0.44563	0.71049	0.10817	0.01
Mof_H 	H 	0.4576	0.7019	0.1066	0.037
Mof_C 	C 	0.44617	0.72798	0.12062	-0.1
Mof_H 	H 	0.4589	0.7324	0.1267	0.066
Mof_C 	C 	0.42829	0.73901	0.12422	0.058
Mof_H 	H 	0.4288	0.7504	0.1337	0.001
Mof_C 	C 	0.34342	0.64849	0.969	0.098
Mof_C 	C 	0.35933	0.66484	0.01673	0.065
Mof_H 	H 	0.3488	0.664	0.0064	-0.003
Mof_C 	C 	0.35923	0.6817	0.02959	-0.107
Mof_H 	H 	0.3485	0.6918	0.0287	0.068
Mof_C 	C 	0.37505	0.68376	0.04389	0.014
Mof_H 	H 	0.3755	0.6953	0.0531	0.035
Mof_C 	C 	0.39046	0.66846	0.04454	-0.055
Mof_C 	C 	0.38885	0.65199	0.03115	0.043
Mof_H 	H 	0.3995	0.6418	0.0315	0.013
Mof_C 	C 	0.40793	0.66996	0.05983	0.142
Mof_C 	C 	0.43522	0.65497	0.0757	0.136
Mof_C 	C 	0.42526	0.68747	0.08463	0.139
Mof_C 	C 	0.46236	0.63717	0.09659	0.048
Mof_H 	H 	0.4626	0.649	0.1054	0.009
Mof_C 	C 	0.44823	0.63702	0.07962	-0.058
Mof_C 	C 	0.44724	0.61914	0.06788	0.018
Mof_H 	H 	0.4377	0.6181	0.0567	0.035
Mof_C 	C 	0.46019	0.60276	0.07249	-0.11
Mof_H 	H 	0.4596	0.5902	0.0648	0.071
Mof_C 	C 	0.47413	0.60507	0.08862	0.069
Mof_H 	H 	0.4836	0.594	0.0912	-0.002
Mof_C 	C 	0.5011	0.67448	0.1219	0.108
Mof_C 	C 	0.51753	0.6122	0.16748	0.052
Mof_H 	H 	0.5068	0.6021	0.1665	0.003
Mof_C 	C 	0.52894	0.61274	0.18479	-0.096
Mof_H 	H 	0.5267	0.6028	0.1955	0.066
Mof_C 	C 	0.54439	0.62821	0.18705	0.005
Mof_H 	H 	0.5524	0.6293	0.1994	0.039
Mof_C 	C 	0.54744	0.64173	0.17042	-0.053
Mof_C 	C 	0.53479	0.63995	0.15304	0.046
Mof_H 	H 	0.5366	0.6497	0.1421	0.011
Mof_C 	C 	0.56323	0.65793	0.17139	0.133
Mof_N 	N 	0.40997	0.73439	0.1149	-0.224
Mof_N 	N 	0.35465	0.63675	0.97691	-0.26
Mof_N 	N 	0.37328	0.64932	0.01757	-0.229
Mof_N 	N 	0.40943	0.68691	0.07092	-0.155
Mof_N 	N 	0.42023	0.65342	0.06142	-0.153
Mof_N 	N 	0.43849	0.67226	0.08754	-0.152
Mof_N 	N 	0.47512	0.62173	0.10074	-0.234
Mof_N 	N 	0.52033	0.62548	0.15084	-0.226
Mof_N 	N 	0.49898	0.65703	0.12293	-0.267
Mof_N 	N 	0.56313	0.67249	0.15657	-0.15
Mof_S 	S 	0.32743	0.66565	0.95983	-0.063
Mof_S 	S 	0.50359	0.70025	0.12079	-0.061
Mof_C 	C 	0.8399	0.03178	0.60166	0.037
Mof_H 	H 	0.8524	0.0349	0.5943	0.013
Mof_C 	C 	0.82273	0.04417	0.59811	-0.052
Mof_C 	C 	0.80437	0.03951	0.60817	0.01
Mof_H 	H 	0.7924	0.0481	0.6066	0.037
Mof_C 	C 	0.80383	0.02202	0.62062	-0.1
Mof_H 	H 	0.7911	0.0176	0.6267	0.066
Mof_C 	C 	0.82171	0.01099	0.62422	0.058
Mof_H 	H 	0.8212	0.9996	0.6337	0.001
Mof_C 	C 	0.90658	0.10151	0.469	0.098
Mof_C 	C 	0.89067	0.08516	0.51673	0.065
Mof_H 	H 	0.9012	0.086	0.5064	-0.003
Mof_C 	C 	0.89077	0.0683	0.52959	-0.107
Mof_H 	H 	0.9015	0.0582	0.5287	0.068
Mof_C 	C 	0.87495	0.06624	0.54389	0.014
Mof_H 	H 	0.8745	0.0547	0.5531	0.035
Mof_C 	C 	0.85954	0.08154	0.54454	-0.055
Mof_C 	C 	0.86115	0.09801	0.53115	0.043
Mof_H 	H 	0.8505	0.1082	0.5315	0.013
Mof_C 	C 	0.84207	0.08004	0.55983	0.142
Mof_C 	C 	0.81478	0.09503	0.5757	0.136
Mof_C 	C 	0.82474	0.06253	0.58463	0.139
Mof_C 	C 	0.78764	0.11283	0.59659	0.048
Mof_H 	H 	0.7874	0.101	0.6054	0.009
Mof_C 	C 	0.80177	0.11298	0.57962	-0.058
Mof_C 	C 	0.80276	0.13086	0.56788	0.018
Mof_H 	H 	0.8123	0.1319	0.5567	0.035
Mof_C 	C 	0.78981	0.14724	0.57249	-0.11
Mof_H 	H 	0.7904	0.1598	0.5648	0.071
Mof_C 	C 	0.77587	0.14493	0.58862	0.069
Mof_H 	H 	0.7664	0.156	0.5912	-0.002
Mof_C 	C 	0.7489	0.07552	0.6219	0.108
Mof_C 	C 	0.73247	0.1378	0.66748	0.052
Mof_H 	H 	0.7432	0.1479	0.6665	0.003
Mof_C 	C 	0.72106	0.13726	0.68479	-0.096
Mof_H 	H 	0.7233	0.1472	0.6955	0.066
Mof_C 	C 	0.70561	0.12179	0.68705	0.005
Mof_H 	H 	0.6976	0.1207	0.6994	0.039
Mof_C 	C 	0.70256	0.10827	0.67042	-0.053
Mof_C 	C 	0.71521	0.11005	0.65304	0.046
Mof_H 	H 	0.7134	0.1003	0.6421	0.011
Mof_C 	C 	0.68677	0.09207	0.67139	0.133
Mof_N 	N 	0.84003	0.01561	0.6149	-0.224
Mof_N 	N 	0.89535	0.11325	0.47691	-0.26
Mof_N 	N 	0.87672	0.10068	0.51757	-0.229
Mof_N 	N 	0.84057	0.06309	0.57092	-0.155
Mof_N 	N 	0.82977	0.09658	0.56142	-0.153
Mof_N 	N 	0.81151	0.07774	0.58754	-0.152
Mof_N 	N 	0.77488	0.12827	0.60074	-0.234
Mof_N 	N 	0.72967	0.12452	0.65084	-0.226
Mof_N 	N 	0.75102	0.09297	0.62293	-0.267
Mof_N 	N 	0.68687	0.07751	0.65657	-0.15
Mof_S 	S 	0.92257	0.08435	0.45983	-0.063
Mof_S 	S 	0.74641	0.04975	0.62079	-0.061
Mof_C 	C 	0.8399	0.53178	0.10166	0.037
Mof_H 	H 	0.8524	0.5349	0.0943	0.013
Mof_C 	C 	0.82273	0.54417	0.09811	-0.052
Mof_C 	C 	0.80437	0.53951	0.10817	0.01
Mof_H 	H 	0.7924	0.5481	0.1066	0.037
Mof_C 	C 	0.80383	0.52202	0.12062	-0.1
Mof_H 	H 	0.7911	0.5176	0.1267	0.066
Mof_C 	C 	0.82171	0.51099	0.12422	0.058
Mof_H 	H 	0.8212	0.4996	0.1337	0.001
Mof_C 	C 	0.90658	0.60151	0.969	0.098
Mof_C 	C 	0.89067	0.58516	0.01673	0.065
Mof_H 	H 	0.9012	0.586	0.0064	-0.003
Mof_C 	C 	0.89077	0.5683	0.02959	-0.107
Mof_H 	H 	0.9015	0.5582	0.0287	0.068
Mof_C 	C 	0.87495	0.56624	0.04389	0.014
Mof_H 	H 	0.8745	0.5547	0.0531	0.035
Mof_C 	C 	0.85954	0.58154	0.04454	-0.055
Mof_C 	C 	0.86115	0.59801	0.03115	0.043
Mof_H 	H 	0.8505	0.6082	0.0315	0.013
Mof_C 	C 	0.84207	0.58004	0.05983	0.142
Mof_C 	C 	0.81478	0.59503	0.0757	0.136
Mof_C 	C 	0.82474	0.56253	0.08463	0.139
Mof_C 	C 	0.78764	0.61283	0.09659	0.048
Mof_H 	H 	0.7874	0.601	0.1054	0.009
Mof_C 	C 	0.80177	0.61298	0.07962	-0.058
Mof_C 	C 	0.80276	0.63086	0.06788	0.018
Mof_H 	H 	0.8123	0.6319	0.0567	0.035
Mof_C 	C 	0.78981	0.64724	0.07249	-0.11
Mof_H 	H 	0.7904	0.6598	0.0648	0.071
Mof_C 	C 	0.77587	0.64493	0.08862	0.069
Mof_H 	H 	0.7664	0.656	0.0912	-0.002
Mof_C 	C 	0.7489	0.57552	0.1219	0.108
Mof_C 	C 	0.73247	0.6378	0.16748	0.052
Mof_H 	H 	0.7432	0.6479	0.1665	0.003
Mof_C 	C 	0.72106	0.63726	0.18479	-0.096
Mof_H 	H 	0.7233	0.6472	0.1955	0.066
Mof_C 	C 	0.70561	0.62179	0.18705	0.005
Mof_H 	H 	0.6976	0.6207	0.1994	0.039
Mof_C 	C 	0.70256	0.60827	0.17042	-0.053
Mof_C 	C 	0.71521	0.61005	0.15304	0.046
Mof_H 	H 	0.7134	0.6003	0.1421	0.011
Mof_C 	C 	0.68677	0.59207	0.17139	0.133
Mof_N 	N 	0.84003	0.51561	0.1149	-0.224
Mof_N 	N 	0.89535	0.61325	0.97691	-0.26
Mof_N 	N 	0.87672	0.60068	0.01757	-0.229
Mof_N 	N 	0.84057	0.56309	0.07092	-0.155
Mof_N 	N 	0.82977	0.59658	0.06142	-0.153
Mof_N 	N 	0.81151	0.57774	0.08754	-0.152
Mof_N 	N 	0.77488	0.62827	0.10074	-0.234
Mof_N 	N 	0.72967	0.62452	0.15084	-0.226
Mof_N 	N 	0.75102	0.59297	0.12293	-0.267
Mof_N 	N 	0.68687	0.57751	0.15657	-0.15
Mof_S 	S 	0.92257	0.58435	0.95983	-0.063
Mof_S 	S 	0.74641	0.54975	0.12079	-0.061
Mof_C 	C 	0.3399	0.03178	0.10166	0.037
Mof_H 	H 	0.3524	0.0349	0.0943	0.013
Mof_C 	C 	0.32273	0.04417	0.09811	-0.052
Mof_C 	C 	0.30437	0.03951	0.10817	0.01
Mof_H 	H 	0.2924	0.0481	0.1066	0.037
Mof_C 	C 	0.30383	0.02202	0.12062	-0.1
Mof_H 	H 	0.2911	0.0176	0.1267	0.066
Mof_C 	C 	0.32171	0.01099	0.12422	0.058
Mof_H 	H 	0.3212	0.9996	0.1337	0.001
Mof_C 	C 	0.40658	0.10151	0.969	0.098
Mof_C 	C 	0.39067	0.08516	0.01673	0.065
Mof_H 	H 	0.4012	0.086	0.0064	-0.003
Mof_C 	C 	0.39077	0.0683	0.02959	-0.107
Mof_H 	H 	0.4015	0.0582	0.0287	0.068
Mof_C 	C 	0.37495	0.06624	0.04389	0.014
Mof_H 	H 	0.3745	0.0547	0.0531	0.035
Mof_C 	C 	0.35954	0.08154	0.04454	-0.055
Mof_C 	C 	0.36115	0.09801	0.03115	0.043
Mof_H 	H 	0.3505	0.1082	0.0315	0.013
Mof_C 	C 	0.34207	0.08004	0.05983	0.142
Mof_C 	C 	0.31478	0.09503	0.0757	0.136
Mof_C 	C 	0.32474	0.06253	0.08463	0.139
Mof_C 	C 	0.28764	0.11283	0.09659	0.048
Mof_H 	H 	0.2874	0.101	0.1054	0.009
Mof_C 	C 	0.30177	0.11298	0.07962	-0.058
Mof_C 	C 	0.30276	0.13086	0.06788	0.018
Mof_H 	H 	0.3123	0.1319	0.0567	0.035
Mof_C 	C 	0.28981	0.14724	0.07249	-0.11
Mof_H 	H 	0.2904	0.1598	0.0648	0.071
Mof_C 	C 	0.27587	0.14493	0.08862	0.069
Mof_H 	H 	0.2664	0.156	0.0912	-0.002
Mof_C 	C 	0.2489	0.07552	0.1219	0.108
Mof_C 	C 	0.23247	0.1378	0.16748	0.052
Mof_H 	H 	0.2432	0.1479	0.1665	0.003
Mof_C 	C 	0.22106	0.13726	0.18479	-0.096
Mof_H 	H 	0.2233	0.1472	0.1955	0.066
Mof_C 	C 	0.20561	0.12179	0.18705	0.005
Mof_H 	H 	0.1976	0.1207	0.1994	0.039
Mof_C 	C 	0.20256	0.10827	0.17042	-0.053
Mof_C 	C 	0.21521	0.11005	0.15304	0.046
Mof_H 	H 	0.2134	0.1003	0.1421	0.011
Mof_C 	C 	0.18677	0.09207	0.17139	0.133
Mof_N 	N 	0.34003	0.01561	0.1149	-0.224
Mof_N 	N 	0.39535	0.11325	0.97691	-0.26
Mof_N 	N 	0.37672	0.10068	0.01757	-0.229
Mof_N 	N 	0.34057	0.06309	0.07092	-0.155
Mof_N 	N 	0.32977	0.09658	0.06142	-0.153
Mof_N 	N 	0.31151	0.07774	0.08754	-0.152
Mof_N 	N 	0.27488	0.12827	0.10074	-0.234
Mof_N 	N 	0.22967	0.12452	0.15084	-0.226
Mof_N 	N 	0.25102	0.09297	0.12293	-0.267
Mof_N 	N 	0.18687	0.07751	0.15657	-0.15
Mof_S 	S 	0.42257	0.08435	0.95983	-0.063
Mof_S 	S 	0.24641	0.04975	0.12079	-0.061
Mof_C 	C 	0.3399	0.53178	0.60166	0.037
Mof_H 	H 	0.3524	0.5349	0.5943	0.013
Mof_C 	C 	0.32273	0.54417	0.59811	-0.052
Mof_C 	C 	0.30437	0.53951	0.60817	0.01
Mof_H 	H 	0.2924	0.5481	0.6066	0.037
Mof_C 	C 	0.30383	0.52202	0.62062	-0.1
Mof_H 	H 	0.2911	0.5176	0.6267	0.066
Mof_C 	C 	0.32171	0.51099	0.62422	0.058
Mof_H 	H 	0.3212	0.4996	0.6337	0.001
Mof_C 	C 	0.40658	0.60151	0.469	0.098
Mof_C 	C 	0.39067	0.58516	0.51673	0.065
Mof_H 	H 	0.4012	0.586	0.5064	-0.003
Mof_C 	C 	0.39077	0.5683	0.52959	-0.107
Mof_H 	H 	0.4015	0.5582	0.5287	0.068
Mof_C 	C 	0.37495	0.56624	0.54389	0.014
Mof_H 	H 	0.3745	0.5547	0.5531	0.035
Mof_C 	C 	0.35954	0.58154	0.54454	-0.055
Mof_C 	C 	0.36115	0.59801	0.53115	0.043
Mof_H 	H 	0.3505	0.6082	0.5315	0.013
Mof_C 	C 	0.34207	0.58004	0.55983	0.142
Mof_C 	C 	0.31478	0.59503	0.5757	0.136
Mof_C 	C 	0.32474	0.56253	0.58463	0.139
Mof_C 	C 	0.28764	0.61283	0.59659	0.048
Mof_H 	H 	0.2874	0.601	0.6054	0.009
Mof_C 	C 	0.30177	0.61298	0.57962	-0.058
Mof_C 	C 	0.30276	0.63086	0.56788	0.018
Mof_H 	H 	0.3123	0.6319	0.5567	0.035
Mof_C 	C 	0.28981	0.64724	0.57249	-0.11
Mof_H 	H 	0.2904	0.6598	0.5648	0.071
Mof_C 	C 	0.27587	0.64493	0.58862	0.069
Mof_H 	H 	0.2664	0.656	0.5912	-0.002
Mof_C 	C 	0.2489	0.57552	0.6219	0.108
Mof_C 	C 	0.23247	0.6378	0.66748	0.052
Mof_H 	H 	0.2432	0.6479	0.6665	0.003
Mof_C 	C 	0.22106	0.63726	0.68479	-0.096
Mof_H 	H 	0.2233	0.6472	0.6955	0.066
Mof_C 	C 	0.20561	0.62179	0.68705	0.005
Mof_H 	H 	0.1976	0.6207	0.6994	0.039
Mof_C 	C 	0.20256	0.60827	0.67042	-0.053
Mof_C 	C 	0.21521	0.61005	0.65304	0.046
Mof_H 	H 	0.2134	0.6003	0.6421	0.011
Mof_C 	C 	0.18677	0.59207	0.67139	0.133
Mof_N 	N 	0.34003	0.51561	0.6149	-0.224
Mof_N 	N 	0.39535	0.61325	0.47691	-0.26
Mof_N 	N 	0.37672	0.60068	0.51757	-0.229
Mof_N 	N 	0.34057	0.56309	0.57092	-0.155
Mof_N 	N 	0.32977	0.59658	0.56142	-0.153
Mof_N 	N 	0.31151	0.57774	0.58754	-0.152
Mof_N 	N 	0.27488	0.62827	0.60074	-0.234
Mof_N 	N 	0.22967	0.62452	0.65084	-0.226
Mof_N 	N 	0.25102	0.59297	0.62293	-0.267
Mof_N 	N 	0.18687	0.57751	0.65657	-0.15
Mof_S 	S 	0.42257	0.58435	0.45983	-0.063
Mof_S 	S 	0.24641	0.54975	0.62079	-0.061
Mof_C 	C 	0.4101	0.53178	0.14834	0.037
Mof_H 	H 	0.3976	0.5349	0.1557	0.013
Mof_C 	C 	0.42727	0.54417	0.15189	-0.052
Mof_C 	C 	0.44563	0.53951	0.14183	0.01
Mof_H 	H 	0.4576	0.5481	0.1434	0.037
Mof_C 	C 	0.44617	0.52202	0.12938	-0.1
Mof_H 	H 	0.4589	0.5176	0.1233	0.066
Mof_C 	C 	0.42829	0.51099	0.12578	0.058
Mof_H 	H 	0.4288	0.4996	0.1163	0.001
Mof_C 	C 	0.34342	0.60151	0.281	0.098
Mof_C 	C 	0.35933	0.58516	0.23327	0.065
Mof_H 	H 	0.3488	0.586	0.2436	-0.003
Mof_C 	C 	0.35923	0.5683	0.22041	-0.107
Mof_H 	H 	0.3485	0.5582	0.2213	0.068
Mof_C 	C 	0.37505	0.56624	0.20611	0.014
Mof_H 	H 	0.3755	0.5547	0.1969	0.035
Mof_C 	C 	0.39046	0.58154	0.20546	-0.055
Mof_C 	C 	0.38885	0.59801	0.21885	0.043
Mof_H 	H 	0.3995	0.6082	0.2185	0.013
Mof_C 	C 	0.40793	0.58004	0.19017	0.142
Mof_C 	C 	0.43522	0.59503	0.1743	0.136
Mof_C 	C 	0.42526	0.56253	0.16537	0.139
Mof_C 	C 	0.46236	0.61283	0.15341	0.048
Mof_H 	H 	0.4626	0.601	0.1446	0.009
Mof_C 	C 	0.44823	0.61298	0.17038	-0.058
Mof_C 	C 	0.44724	0.63086	0.18212	0.018
Mof_H 	H 	0.4377	0.6319	0.1933	0.035
Mof_C 	C 	0.46019	0.64724	0.17751	-0.11
Mof_H 	H 	0.4596	0.6598	0.1852	0.071
Mof_C 	C 	0.47413	0.64493	0.16138	0.069
Mof_H 	H 	0.4836	0.656	0.1588	-0.002
Mof_C 	C 	0.5011	0.57552	0.1281	0.108
Mof_C 	C 	0.51753	0.6378	0.08252	0.052
Mof_H 	H 	0.5068	0.6479	0.0835	0.003
Mof_C 	C 	0.52894	0.63726	0.06521	-0.096
Mof_H 	H 	0.5267	0.6472	0.0545	0.066
Mof_C 	C 	0.54439	0.62179	0.06295	0.005
Mof_H 	H 	0.5524	0.6207	0.0506	0.039
Mof_C 	C 	0.54744	0.60827	0.07958	-0.053
Mof_C 	C 	0.53479	0.61005	0.09696	0.046
Mof_H 	H 	0.5366	0.6003	0.1079	0.011
Mof_C 	C 	0.56323	0.59207	0.07861	0.133
Mof_N 	N 	0.40997	0.51561	0.1351	-0.224
Mof_N 	N 	0.35465	0.61325	0.27309	-0.26
Mof_N 	N 	0.37328	0.60068	0.23243	-0.229
Mof_N 	N 	0.40943	0.56309	0.17908	-0.155
Mof_N 	N 	0.42023	0.59658	0.18858	-0.153
Mof_N 	N 	0.43849	0.57774	0.16246	-0.152
Mof_N 	N 	0.47512	0.62827	0.14926	-0.234
Mof_N 	N 	0.52033	0.62452	0.09916	-0.226
Mof_N 	N 	0.49898	0.59297	0.12707	-0.267
Mof_N 	N 	0.56313	0.57751	0.09343	-0.15
Mof_S 	S 	0.32743	0.58435	0.29017	-0.063
Mof_S 	S 	0.50359	0.54975	0.12921	-0.061
Mof_C 	C 	0.4101	0.03178	0.64834	0.037
Mof_H 	H 	0.3976	0.0349	0.6557	0.013
Mof_C 	C 	0.42727	0.04417	0.65189	-0.052
Mof_C 	C 	0.44563	0.03951	0.64183	0.01
Mof_H 	H 	0.4576	0.0481	0.6434	0.037
Mof_C 	C 	0.44617	0.02202	0.62938	-0.1
Mof_H 	H 	0.4589	0.0176	0.6233	0.066
Mof_C 	C 	0.42829	0.01099	0.62578	0.058
Mof_H 	H 	0.4288	0.9996	0.6163	0.001
Mof_C 	C 	0.34342	0.10151	0.781	0.098
Mof_C 	C 	0.35933	0.08516	0.73327	0.065
Mof_H 	H 	0.3488	0.086	0.7436	-0.003
Mof_C 	C 	0.35923	0.0683	0.72041	-0.107
Mof_H 	H 	0.3485	0.0582	0.7213	0.068
Mof_C 	C 	0.37505	0.06624	0.70611	0.014
Mof_H 	H 	0.3755	0.0547	0.6969	0.035
Mof_C 	C 	0.39046	0.08154	0.70546	-0.055
Mof_C 	C 	0.38885	0.09801	0.71885	0.043
Mof_H 	H 	0.3995	0.1082	0.7185	0.013
Mof_C 	C 	0.40793	0.08004	0.69017	0.142
Mof_C 	C 	0.43522	0.09503	0.6743	0.136
Mof_C 	C 	0.42526	0.06253	0.66537	0.139
Mof_C 	C 	0.46236	0.11283	0.65341	0.048
Mof_H 	H 	0.4626	0.101	0.6446	0.009
Mof_C 	C 	0.44823	0.11298	0.67038	-0.058
Mof_C 	C 	0.44724	0.13086	0.68212	0.018
Mof_H 	H 	0.4377	0.1319	0.6933	0.035
Mof_C 	C 	0.46019	0.14724	0.67751	-0.11
Mof_H 	H 	0.4596	0.1598	0.6852	0.071
Mof_C 	C 	0.47413	0.14493	0.66138	0.069
Mof_H 	H 	0.4836	0.156	0.6588	-0.002
Mof_C 	C 	0.5011	0.07552	0.6281	0.108
Mof_C 	C 	0.51753	0.1378	0.58252	0.052
Mof_H 	H 	0.5068	0.1479	0.5835	0.003
Mof_C 	C 	0.52894	0.13726	0.56521	-0.096
Mof_H 	H 	0.5267	0.1472	0.5545	0.066
Mof_C 	C 	0.54439	0.12179	0.56295	0.005
Mof_H 	H 	0.5524	0.1207	0.5506	0.039
Mof_C 	C 	0.54744	0.10827	0.57958	-0.053
Mof_C 	C 	0.53479	0.11005	0.59696	0.046
Mof_H 	H 	0.5366	0.1003	0.6079	0.011
Mof_C 	C 	0.56323	0.09207	0.57861	0.133
Mof_N 	N 	0.40997	0.01561	0.6351	-0.224
Mof_N 	N 	0.35465	0.11325	0.77309	-0.26
Mof_N 	N 	0.37328	0.10068	0.73243	-0.229
Mof_N 	N 	0.40943	0.06309	0.67908	-0.155
Mof_N 	N 	0.42023	0.09658	0.68858	-0.153
Mof_N 	N 	0.43849	0.07774	0.66246	-0.152
Mof_N 	N 	0.47512	0.12827	0.64926	-0.234
Mof_N 	N 	0.52033	0.12452	0.59916	-0.226
Mof_N 	N 	0.49898	0.09297	0.62707	-0.267
Mof_N 	N 	0.56313	0.07751	0.59343	-0.15
Mof_S 	S 	0.32743	0.08435	0.79017	-0.063
Mof_S 	S 	0.50359	0.04975	0.62921	-0.061
Mof_C 	C 	0.9101	0.53178	0.64834	0.037
Mof_H 	H 	0.8976	0.5349	0.6557	0.013
Mof_C 	C 	0.92727	0.54417	0.65189	-0.052
Mof_C 	C 	0.94563	0.53951	0.64183	0.01
Mof_H 	H 	0.9576	0.5481	0.6434	0.037
Mof_C 	C 	0.94617	0.52202	0.62938	-0.1
Mof_H 	H 	0.9589	0.5176	0.6233	0.066
Mof_C 	C 	0.92829	0.51099	0.62578	0.058
Mof_H 	H 	0.9288	0.4996	0.6163	0.001
Mof_C 	C 	0.84342	0.60151	0.781	0.098
Mof_C 	C 	0.85933	0.58516	0.73327	0.065
Mof_H 	H 	0.8488	0.586	0.7436	-0.003
Mof_C 	C 	0.85923	0.5683	0.72041	-0.107
Mof_H 	H 	0.8485	0.5582	0.7213	0.068
Mof_C 	C 	0.87505	0.56624	0.70611	0.014
Mof_H 	H 	0.8755	0.5547	0.6969	0.035
Mof_C 	C 	0.89046	0.58154	0.70546	-0.055
Mof_C 	C 	0.88885	0.59801	0.71885	0.043
Mof_H 	H 	0.8995	0.6082	0.7185	0.013
Mof_C 	C 	0.90793	0.58004	0.69017	0.142
Mof_C 	C 	0.93522	0.59503	0.6743	0.136
Mof_C 	C 	0.92526	0.56253	0.66537	0.139
Mof_C 	C 	0.96236	0.61283	0.65341	0.048
Mof_H 	H 	0.9626	0.601	0.6446	0.009
Mof_C 	C 	0.94823	0.61298	0.67038	-0.058
Mof_C 	C 	0.94724	0.63086	0.68212	0.018
Mof_H 	H 	0.9377	0.6319	0.6933	0.035
Mof_C 	C 	0.96019	0.64724	0.67751	-0.11
Mof_H 	H 	0.9596	0.6598	0.6852	0.071
Mof_C 	C 	0.97413	0.64493	0.66138	0.069
Mof_H 	H 	0.9836	0.656	0.6588	-0.002
Mof_C 	C 	0.0011	0.57552	0.6281	0.108
Mof_C 	C 	0.01753	0.6378	0.58252	0.052
Mof_H 	H 	0.0068	0.6479	0.5835	0.003
Mof_C 	C 	0.02894	0.63726	0.56521	-0.096
Mof_H 	H 	0.0267	0.6472	0.5545	0.066
Mof_C 	C 	0.04439	0.62179	0.56295	0.005
Mof_H 	H 	0.0524	0.6207	0.5506	0.039
Mof_C 	C 	0.04744	0.60827	0.57958	-0.053
Mof_C 	C 	0.03479	0.61005	0.59696	0.046
Mof_H 	H 	0.0366	0.6003	0.6079	0.011
Mof_C 	C 	0.06323	0.59207	0.57861	0.133
Mof_N 	N 	0.90997	0.51561	0.6351	-0.224
Mof_N 	N 	0.85465	0.61325	0.77309	-0.26
Mof_N 	N 	0.87328	0.60068	0.73243	-0.229
Mof_N 	N 	0.90943	0.56309	0.67908	-0.155
Mof_N 	N 	0.92023	0.59658	0.68858	-0.153
Mof_N 	N 	0.93849	0.57774	0.66246	-0.152
Mof_N 	N 	0.97512	0.62827	0.64926	-0.234
Mof_N 	N 	0.02033	0.62452	0.59916	-0.226
Mof_N 	N 	0.99898	0.59297	0.62707	-0.267
Mof_N 	N 	0.06313	0.57751	0.59343	-0.15
Mof_S 	S 	0.82743	0.58435	0.79017	-0.063
Mof_S 	S 	0.00359	0.54975	0.62921	-0.061
Mof_C 	C 	0.9101	0.03178	0.14834	0.037
Mof_H 	H 	0.8976	0.0349	0.1557	0.013
Mof_C 	C 	0.92727	0.04417	0.15189	-0.052
Mof_C 	C 	0.94563	0.03951	0.14183	0.01
Mof_H 	H 	0.9576	0.0481	0.1434	0.037
Mof_C 	C 	0.94617	0.02202	0.12938	-0.1
Mof_H 	H 	0.9589	0.0176	0.1233	0.066
Mof_C 	C 	0.92829	0.01099	0.12578	0.058
Mof_H 	H 	0.9288	0.9996	0.1163	0.001
Mof_C 	C 	0.84342	0.10151	0.281	0.098
Mof_C 	C 	0.85933	0.08516	0.23327	0.065
Mof_H 	H 	0.8488	0.086	0.2436	-0.003
Mof_C 	C 	0.85923	0.0683	0.22041	-0.107
Mof_H 	H 	0.8485	0.0582	0.2213	0.068
Mof_C 	C 	0.87505	0.06624	0.20611	0.014
Mof_H 	H 	0.8755	0.0547	0.1969	0.035
Mof_C 	C 	0.89046	0.08154	0.20546	-0.055
Mof_C 	C 	0.88885	0.09801	0.21885	0.043
Mof_H 	H 	0.8995	0.1082	0.2185	0.013
Mof_C 	C 	0.90793	0.08004	0.19017	0.142
Mof_C 	C 	0.93522	0.09503	0.1743	0.136
Mof_C 	C 	0.92526	0.06253	0.16537	0.139
Mof_C 	C 	0.96236	0.11283	0.15341	0.048
Mof_H 	H 	0.9626	0.101	0.1446	0.009
Mof_C 	C 	0.94823	0.11298	0.17038	-0.058
Mof_C 	C 	0.94724	0.13086	0.18212	0.018
Mof_H 	H 	0.9377	0.1319	0.1933	0.035
Mof_C 	C 	0.96019	0.14724	0.17751	-0.11
Mof_H 	H 	0.9596	0.1598	0.1852	0.071
Mof_C 	C 	0.97413	0.14493	0.16138	0.069
Mof_H 	H 	0.9836	0.156	0.1588	-0.002
Mof_C 	C 	0.0011	0.07552	0.1281	0.108
Mof_C 	C 	0.01753	0.1378	0.08252	0.052
Mof_H 	H 	0.0068	0.1479	0.0835	0.003
Mof_C 	C 	0.02894	0.13726	0.06521	-0.096
Mof_H 	H 	0.0267	0.1472	0.0545	0.066
Mof_C 	C 	0.04439	0.12179	0.06295	0.005
Mof_H 	H 	0.0524	0.1207	0.0506	0.039
Mof_C 	C 	0.04744	0.10827	0.07958	-0.053
Mof_C 	C 	0.03479	0.11005	0.09696	0.046
Mof_H 	H 	0.0366	0.1003	0.1079	0.011
Mof_C 	C 	0.06323	0.09207	0.07861	0.133
Mof_N 	N 	0.90997	0.01561	0.1351	-0.224
Mof_N 	N 	0.85465	0.11325	0.27309	-0.26
Mof_N 	N 	0.87328	0.10068	0.23243	-0.229
Mof_N 	N 	0.90943	0.06309	0.17908	-0.155
Mof_N 	N 	0.92023	0.09658	0.18858	-0.153
Mof_N 	N 	0.93849	0.07774	0.16246	-0.152
Mof_N 	N 	0.97512	0.12827	0.14926	-0.234
Mof_N 	N 	0.02033	0.12452	0.09916	-0.226
Mof_N 	N 	0.99898	0.09297	0.12707	-0.267
Mof_N 	N 	0.06313	0.07751	0.09343	-0.15
Mof_S 	S 	0.82743	0.08435	0.29017	-0.063
Mof_S 	S 	0.00359	0.04975	0.12921	-0.061
Mof_C 	C 	0.3399	0.71822	0.64834	0.037
Mof_H 	H 	0.3524	0.7151	0.6557	0.013
Mof_C 	C 	0.32273	0.70583	0.65189	-0.052
Mof_C 	C 	0.30437	0.71049	0.64183	0.01
Mof_H 	H 	0.2924	0.7019	0.6434	0.037
Mof_C 	C 	0.30383	0.72798	0.62938	-0.1
Mof_H 	H 	0.2911	0.7324	0.6233	0.066
Mof_C 	C 	0.32171	0.73901	0.62578	0.058
Mof_H 	H 	0.3212	0.7504	0.6163	0.001
Mof_C 	C 	0.40658	0.64849	0.781	0.098
Mof_C 	C 	0.39067	0.66484	0.73327	0.065
Mof_H 	H 	0.4012	0.664	0.7436	-0.003
Mof_C 	C 	0.39077	0.6817	0.72041	-0.107
Mof_H 	H 	0.4015	0.6918	0.7213	0.068
Mof_C 	C 	0.37495	0.68376	0.70611	0.014
Mof_H 	H 	0.3745	0.6953	0.6969	0.035
Mof_C 	C 	0.35954	0.66846	0.70546	-0.055
Mof_C 	C 	0.36115	0.65199	0.71885	0.043
Mof_H 	H 	0.3505	0.6418	0.7185	0.013
Mof_C 	C 	0.34207	0.66996	0.69017	0.142
Mof_C 	C 	0.31478	0.65497	0.6743	0.136
Mof_C 	C 	0.32474	0.68747	0.66537	0.139
Mof_C 	C 	0.28764	0.63717	0.65341	0.048
Mof_H 	H 	0.2874	0.649	0.6446	0.009
Mof_C 	C 	0.30177	0.63702	0.67038	-0.058
Mof_C 	C 	0.30276	0.61914	0.68212	0.018
Mof_H 	H 	0.3123	0.6181	0.6933	0.035
Mof_C 	C 	0.28981	0.60276	0.67751	-0.11
Mof_H 	H 	0.2904	0.5902	0.6852	0.071
Mof_C 	C 	0.27587	0.60507	0.66138	0.069
Mof_H 	H 	0.2664	0.594	0.6588	-0.002
Mof_C 	C 	0.2489	0.67448	0.6281	0.108
Mof_C 	C 	0.23247	0.6122	0.58252	0.052
Mof_H 	H 	0.2432	0.6021	0.5835	0.003
Mof_C 	C 	0.22106	0.61274	0.56521	-0.096
Mof_H 	H 	0.2233	0.6028	0.5545	0.066
Mof_C 	C 	0.20561	0.62821	0.56295	0.005
Mof_H 	H 	0.1976	0.6293	0.5506	0.039
Mof_C 	C 	0.20256	0.64173	0.57958	-0.053
Mof_C 	C 	0.21521	0.63995	0.59696	0.046
Mof_H 	H 	0.2134	0.6497	0.6079	0.011
Mof_C 	C 	0.18677	0.65793	0.57861	0.133
Mof_N 	N 	0.34003	0.73439	0.6351	-0.224
Mof_N 	N 	0.39535	0.63675	0.77309	-0.26
Mof_N 	N 	0.37672	0.64932	0.73243	-0.229
Mof_N 	N 	0.34057	0.68691	0.67908	-0.155
Mof_N 	N 	0.32977	0.65342	0.68858	-0.153
Mof_N 	N 	0.31151	0.67226	0.66246	-0.152
Mof_N 	N 	0.27488	0.62173	0.64926	-0.234
Mof_N 	N 	0.22967	0.62548	0.59916	-0.226
Mof_N 	N 	0.25102	0.65703	0.62707	-0.267
Mof_N 	N 	0.18687	0.67249	0.59343	-0.15
Mof_S 	S 	0.42257	0.66565	0.79017	-0.063
Mof_S 	S 	0.24641	0.70025	0.62921	-0.061
Mof_C 	C 	0.3399	0.21822	0.14834	0.037
Mof_H 	H 	0.3524	0.2151	0.1557	0.013
Mof_C 	C 	0.32273	0.20583	0.15189	-0.052
Mof_C 	C 	0.30437	0.21049	0.14183	0.01
Mof_H 	H 	0.2924	0.2019	0.1434	0.037
Mof_C 	C 	0.30383	0.22798	0.12938	-0.1
Mof_H 	H 	0.2911	0.2324	0.1233	0.066
Mof_C 	C 	0.32171	0.23901	0.12578	0.058
Mof_H 	H 	0.3212	0.2504	0.1163	0.001
Mof_C 	C 	0.40658	0.14849	0.281	0.098
Mof_C 	C 	0.39067	0.16484	0.23327	0.065
Mof_H 	H 	0.4012	0.164	0.2436	-0.003
Mof_C 	C 	0.39077	0.1817	0.22041	-0.107
Mof_H 	H 	0.4015	0.1918	0.2213	0.068
Mof_C 	C 	0.37495	0.18376	0.20611	0.014
Mof_H 	H 	0.3745	0.1953	0.1969	0.035
Mof_C 	C 	0.35954	0.16846	0.20546	-0.055
Mof_C 	C 	0.36115	0.15199	0.21885	0.043
Mof_H 	H 	0.3505	0.1418	0.2185	0.013
Mof_C 	C 	0.34207	0.16996	0.19017	0.142
Mof_C 	C 	0.31478	0.15497	0.1743	0.136
Mof_C 	C 	0.32474	0.18747	0.16537	0.139
Mof_C 	C 	0.28764	0.13717	0.15341	0.048
Mof_H 	H 	0.2874	0.149	0.1446	0.009
Mof_C 	C 	0.30177	0.13702	0.17038	-0.058
Mof_C 	C 	0.30276	0.11914	0.18212	0.018
Mof_H 	H 	0.3123	0.1181	0.1933	0.035
Mof_C 	C 	0.28981	0.10276	0.17751	-0.11
Mof_H 	H 	0.2904	0.0902	0.1852	0.071
Mof_C 	C 	0.27587	0.10507	0.16138	0.069
Mof_H 	H 	0.2664	0.094	0.1588	-0.002
Mof_C 	C 	0.2489	0.17448	0.1281	0.108
Mof_C 	C 	0.23247	0.1122	0.08252	0.052
Mof_H 	H 	0.2432	0.1021	0.0835	0.003
Mof_C 	C 	0.22106	0.11274	0.06521	-0.096
Mof_H 	H 	0.2233	0.1028	0.0545	0.066
Mof_C 	C 	0.20561	0.12821	0.06295	0.005
Mof_H 	H 	0.1976	0.1293	0.0506	0.039
Mof_C 	C 	0.20256	0.14173	0.07958	-0.053
Mof_C 	C 	0.21521	0.13995	0.09696	0.046
Mof_H 	H 	0.2134	0.1497	0.1079	0.011
Mof_C 	C 	0.18677	0.15793	0.07861	0.133
Mof_N 	N 	0.34003	0.23439	0.1351	-0.224
Mof_N 	N 	0.39535	0.13675	0.27309	-0.26
Mof_N 	N 	0.37672	0.14932	0.23243	-0.229
Mof_N 	N 	0.34057	0.18691	0.17908	-0.155
Mof_N 	N 	0.32977	0.15342	0.18858	-0.153
Mof_N 	N 	0.31151	0.17226	0.16246	-0.152
Mof_N 	N 	0.27488	0.12173	0.14926	-0.234
Mof_N 	N 	0.22967	0.12548	0.09916	-0.226
Mof_N 	N 	0.25102	0.15703	0.12707	-0.267
Mof_N 	N 	0.18687	0.17249	0.09343	-0.15
Mof_S 	S 	0.42257	0.16565	0.29017	-0.063
Mof_S 	S 	0.24641	0.20025	0.12921	-0.061
Mof_C 	C 	0.8399	0.71822	0.14834	0.037
Mof_H 	H 	0.8524	0.7151	0.1557	0.013
Mof_C 	C 	0.82273	0.70583	0.15189	-0.052
Mof_C 	C 	0.80437	0.71049	0.14183	0.01
Mof_H 	H 	0.7924	0.7019	0.1434	0.037
Mof_C 	C 	0.80383	0.72798	0.12938	-0.1
Mof_H 	H 	0.7911	0.7324	0.1233	0.066
Mof_C 	C 	0.82171	0.73901	0.12578	0.058
Mof_H 	H 	0.8212	0.7504	0.1163	0.001
Mof_C 	C 	0.90658	0.64849	0.281	0.098
Mof_C 	C 	0.89067	0.66484	0.23327	0.065
Mof_H 	H 	0.9012	0.664	0.2436	-0.003
Mof_C 	C 	0.89077	0.6817	0.22041	-0.107
Mof_H 	H 	0.9015	0.6918	0.2213	0.068
Mof_C 	C 	0.87495	0.68376	0.20611	0.014
Mof_H 	H 	0.8745	0.6953	0.1969	0.035
Mof_C 	C 	0.85954	0.66846	0.20546	-0.055
Mof_C 	C 	0.86115	0.65199	0.21885	0.043
Mof_H 	H 	0.8505	0.6418	0.2185	0.013
Mof_C 	C 	0.84207	0.66996	0.19017	0.142
Mof_C 	C 	0.81478	0.65497	0.1743	0.136
Mof_C 	C 	0.82474	0.68747	0.16537	0.139
Mof_C 	C 	0.78764	0.63717	0.15341	0.048
Mof_H 	H 	0.7874	0.649	0.1446	0.009
Mof_C 	C 	0.80177	0.63702	0.17038	-0.058
Mof_C 	C 	0.80276	0.61914	0.18212	0.018
Mof_H 	H 	0.8123	0.6181	0.1933	0.035
Mof_C 	C 	0.78981	0.60276	0.17751	-0.11
Mof_H 	H 	0.7904	0.5902	0.1852	0.071
Mof_C 	C 	0.77587	0.60507	0.16138	0.069
Mof_H 	H 	0.7664	0.594	0.1588	-0.002
Mof_C 	C 	0.7489	0.67448	0.1281	0.108
Mof_C 	C 	0.73247	0.6122	0.08252	0.052
Mof_H 	H 	0.7432	0.6021	0.0835	0.003
Mof_C 	C 	0.72106	0.61274	0.06521	-0.096
Mof_H 	H 	0.7233	0.6028	0.0545	0.066
Mof_C 	C 	0.70561	0.62821	0.06295	0.005
Mof_H 	H 	0.6976	0.6293	0.0506	0.039
Mof_C 	C 	0.70256	0.64173	0.07958	-0.053
Mof_C 	C 	0.71521	0.63995	0.09696	0.046
Mof_H 	H 	0.7134	0.6497	0.1079	0.011
Mof_C 	C 	0.68677	0.65793	0.07861	0.133
Mof_N 	N 	0.84003	0.73439	0.1351	-0.224
Mof_N 	N 	0.89535	0.63675	0.27309	-0.26
Mof_N 	N 	0.87672	0.64932	0.23243	-0.229
Mof_N 	N 	0.84057	0.68691	0.17908	-0.155
Mof_N 	N 	0.82977	0.65342	0.18858	-0.153
Mof_N 	N 	0.81151	0.67226	0.16246	-0.152
Mof_N 	N 	0.77488	0.62173	0.14926	-0.234
Mof_N 	N 	0.72967	0.62548	0.09916	-0.226
Mof_N 	N 	0.75102	0.65703	0.12707	-0.267
Mof_N 	N 	0.68687	0.67249	0.09343	-0.15
Mof_S 	S 	0.92257	0.66565	0.29017	-0.063
Mof_S 	S 	0.74641	0.70025	0.12921	-0.061
Mof_C 	C 	0.8399	0.21822	0.64834	0.037
Mof_H 	H 	0.8524	0.2151	0.6557	0.013
Mof_C 	C 	0.82273	0.20583	0.65189	-0.052
Mof_C 	C 	0.80437	0.21049	0.64183	0.01
Mof_H 	H 	0.7924	0.2019	0.6434	0.037
Mof_C 	C 	0.80383	0.22798	0.62938	-0.1
Mof_H 	H 	0.7911	0.2324	0.6233	0.066
Mof_C 	C 	0.82171	0.23901	0.62578	0.058
Mof_H 	H 	0.8212	0.2504	0.6163	0.001
Mof_C 	C 	0.90658	0.14849	0.781	0.098
Mof_C 	C 	0.89067	0.16484	0.73327	0.065
Mof_H 	H 	0.9012	0.164	0.7436	-0.003
Mof_C 	C 	0.89077	0.1817	0.72041	-0.107
Mof_H 	H 	0.9015	0.1918	0.7213	0.068
Mof_C 	C 	0.87495	0.18376	0.70611	0.014
Mof_H 	H 	0.8745	0.1953	0.6969	0.035
Mof_C 	C 	0.85954	0.16846	0.70546	-0.055
Mof_C 	C 	0.86115	0.15199	0.71885	0.043
Mof_H 	H 	0.8505	0.1418	0.7185	0.013
Mof_C 	C 	0.84207	0.16996	0.69017	0.142
Mof_C 	C 	0.81478	0.15497	0.6743	0.136
Mof_C 	C 	0.82474	0.18747	0.66537	0.139
Mof_C 	C 	0.78764	0.13717	0.65341	0.048
Mof_H 	H 	0.7874	0.149	0.6446	0.009
Mof_C 	C 	0.80177	0.13702	0.67038	-0.058
Mof_C 	C 	0.80276	0.11914	0.68212	0.018
Mof_H 	H 	0.8123	0.1181	0.6933	0.035
Mof_C 	C 	0.78981	0.10276	0.67751	-0.11
Mof_H 	H 	0.7904	0.0902	0.6852	0.071
Mof_C 	C 	0.77587	0.10507	0.66138	0.069
Mof_H 	H 	0.7664	0.094	0.6588	-0.002
Mof_C 	C 	0.7489	0.17448	0.6281	0.108
Mof_C 	C 	0.73247	0.1122	0.58252	0.052
Mof_H 	H 	0.7432	0.1021	0.5835	0.003
Mof_C 	C 	0.72106	0.11274	0.56521	-0.096
Mof_H 	H 	0.7233	0.1028	0.5545	0.066
Mof_C 	C 	0.70561	0.12821	0.56295	0.005
Mof_H 	H 	0.6976	0.1293	0.5506	0.039
Mof_C 	C 	0.70256	0.14173	0.57958	-0.053
Mof_C 	C 	0.71521	0.13995	0.59696	0.046
Mof_H 	H 	0.7134	0.1497	0.6079	0.011
Mof_C 	C 	0.68677	0.15793	0.57861	0.133
Mof_N 	N 	0.84003	0.23439	0.6351	-0.224
Mof_N 	N 	0.89535	0.13675	0.77309	-0.26
Mof_N 	N 	0.87672	0.14932	0.73243	-0.229
Mof_N 	N 	0.84057	0.18691	0.67908	-0.155
Mof_N 	N 	0.82977	0.15342	0.68858	-0.153
Mof_N 	N 	0.81151	0.17226	0.66246	-0.152
Mof_N 	N 	0.77488	0.12173	0.64926	-0.234
Mof_N 	N 	0.72967	0.12548	0.59916	-0.226
Mof_N 	N 	0.75102	0.15703	0.62707	-0.267
Mof_N 	N 	0.68687	0.17249	0.59343	-0.15
Mof_S 	S 	0.92257	0.16565	0.79017	-0.063
Mof_S 	S 	0.74641	0.20025	0.62921	-0.061
Mof_C 	C 	0.71822	0.64834	0.3399	0.037
Mof_H 	H 	0.7151	0.6557	0.3524	0.013
Mof_C 	C 	0.70583	0.65189	0.32273	-0.052
Mof_C 	C 	0.71049	0.64183	0.30437	0.01
Mof_H 	H 	0.7019	0.6434	0.2924	0.037
Mof_C 	C 	0.72798	0.62938	0.30383	-0.1
Mof_H 	H 	0.7324	0.6233	0.2911	0.066
Mof_C 	C 	0.73901	0.62578	0.32171	0.058
Mof_H 	H 	0.7504	0.6163	0.3212	0.001
Mof_C 	C 	0.64849	0.781	0.40658	0.098
Mof_C 	C 	0.66484	0.73327	0.39067	0.065
Mof_H 	H 	0.664	0.7436	0.4012	-0.003
Mof_C 	C 	0.6817	0.72041	0.39077	-0.107
Mof_H 	H 	0.6918	0.7213	0.4015	0.068
Mof_C 	C 	0.68376	0.70611	0.37495	0.014
Mof_H 	H 	0.6953	0.6969	0.3745	0.035
Mof_C 	C 	0.66846	0.70546	0.35954	-0.055
Mof_C 	C 	0.65199	0.71885	0.36115	0.043
Mof_H 	H 	0.6418	0.7185	0.3505	0.013
Mof_C 	C 	0.66996	0.69017	0.34207	0.142
Mof_C 	C 	0.65497	0.6743	0.31478	0.136
Mof_C 	C 	0.68747	0.66537	0.32474	0.139
Mof_C 	C 	0.63717	0.65341	0.28764	0.048
Mof_H 	H 	0.649	0.6446	0.2874	0.009
Mof_C 	C 	0.63702	0.67038	0.30177	-0.058
Mof_C 	C 	0.61914	0.68212	0.30276	0.018
Mof_H 	H 	0.6181	0.6933	0.3123	0.035
Mof_C 	C 	0.60276	0.67751	0.28981	-0.11
Mof_H 	H 	0.5902	0.6852	0.2904	0.071
Mof_C 	C 	0.60507	0.66138	0.27587	0.069
Mof_H 	H 	0.594	0.6588	0.2664	-0.002
Mof_C 	C 	0.67448	0.6281	0.2489	0.108
Mof_C 	C 	0.6122	0.58252	0.23247	0.052
Mof_H 	H 	0.6021	0.5835	0.2432	0.003
Mof_C 	C 	0.61274	0.56521	0.22106	-0.096
Mof_H 	H 	0.6028	0.5545	0.2233	0.066
Mof_C 	C 	0.62821	0.56295	0.20561	0.005
Mof_H 	H 	0.6293	0.5506	0.1976	0.039
Mof_C 	C 	0.64173	0.57958	0.20256	-0.053
Mof_C 	C 	0.63995	0.59696	0.21521	0.046
Mof_H 	H 	0.6497	0.6079	0.2134	0.011
Mof_C 	C 	0.65793	0.57861	0.18677	0.133
Mof_N 	N 	0.73439	0.6351	0.34003	-0.224
Mof_N 	N 	0.63675	0.77309	0.39535	-0.26
Mof_N 	N 	0.64932	0.73243	0.37672	-0.229
Mof_N 	N 	0.68691	0.67908	0.34057	-0.155
Mof_N 	N 	0.65342	0.68858	0.32977	-0.153
Mof_N 	N 	0.67226	0.66246	0.31151	-0.152
Mof_N 	N 	0.62173	0.64926	0.27488	-0.234
Mof_N 	N 	0.62548	0.59916	0.22967	-0.226
Mof_N 	N 	0.65703	0.62707	0.25102	-0.267
Mof_N 	N 	0.67249	0.59343	0.18687	-0.15
Mof_S 	S 	0.66565	0.79017	0.42257	-0.063
Mof_S 	S 	0.70025	0.62921	0.24641	-0.061
Mof_C 	C 	0.71822	0.14834	0.8399	0.037
Mof_H 	H 	0.7151	0.1557	0.8524	0.013
Mof_C 	C 	0.70583	0.15189	0.82273	-0.052
Mof_C 	C 	0.71049	0.14183	0.80437	0.01
Mof_H 	H 	0.7019	0.1434	0.7924	0.037
Mof_C 	C 	0.72798	0.12938	0.80383	-0.1
Mof_H 	H 	0.7324	0.1233	0.7911	0.066
Mof_C 	C 	0.73901	0.12578	0.82171	0.058
Mof_H 	H 	0.7504	0.1163	0.8212	0.001
Mof_C 	C 	0.64849	0.281	0.90658	0.098
Mof_C 	C 	0.66484	0.23327	0.89067	0.065
Mof_H 	H 	0.664	0.2436	0.9012	-0.003
Mof_C 	C 	0.6817	0.22041	0.89077	-0.107
Mof_H 	H 	0.6918	0.2213	0.9015	0.068
Mof_C 	C 	0.68376	0.20611	0.87495	0.014
Mof_H 	H 	0.6953	0.1969	0.8745	0.035
Mof_C 	C 	0.66846	0.20546	0.85954	-0.055
Mof_C 	C 	0.65199	0.21885	0.86115	0.043
Mof_H 	H 	0.6418	0.2185	0.8505	0.013
Mof_C 	C 	0.66996	0.19017	0.84207	0.142
Mof_C 	C 	0.65497	0.1743	0.81478	0.136
Mof_C 	C 	0.68747	0.16537	0.82474	0.139
Mof_C 	C 	0.63717	0.15341	0.78764	0.048
Mof_H 	H 	0.649	0.1446	0.7874	0.009
Mof_C 	C 	0.63702	0.17038	0.80177	-0.058
Mof_C 	C 	0.61914	0.18212	0.80276	0.018
Mof_H 	H 	0.6181	0.1933	0.8123	0.035
Mof_C 	C 	0.60276	0.17751	0.78981	-0.11
Mof_H 	H 	0.5902	0.1852	0.7904	0.071
Mof_C 	C 	0.60507	0.16138	0.77587	0.069
Mof_H 	H 	0.594	0.1588	0.7664	-0.002
Mof_C 	C 	0.67448	0.1281	0.7489	0.108
Mof_C 	C 	0.6122	0.08252	0.73247	0.052
Mof_H 	H 	0.6021	0.0835	0.7432	0.003
Mof_C 	C 	0.61274	0.06521	0.72106	-0.096
Mof_H 	H 	0.6028	0.0545	0.7233	0.066
Mof_C 	C 	0.62821	0.06295	0.70561	0.005
Mof_H 	H 	0.6293	0.0506	0.6976	0.039
Mof_C 	C 	0.64173	0.07958	0.70256	-0.053
Mof_C 	C 	0.63995	0.09696	0.71521	0.046
Mof_H 	H 	0.6497	0.1079	0.7134	0.011
Mof_C 	C 	0.65793	0.07861	0.68677	0.133
Mof_N 	N 	0.73439	0.1351	0.84003	-0.224
Mof_N 	N 	0.63675	0.27309	0.89535	-0.26
Mof_N 	N 	0.64932	0.23243	0.87672	-0.229
Mof_N 	N 	0.68691	0.17908	0.84057	-0.155
Mof_N 	N 	0.65342	0.18858	0.82977	-0.153
Mof_N 	N 	0.67226	0.16246	0.81151	-0.152
Mof_N 	N 	0.62173	0.14926	0.77488	-0.234
Mof_N 	N 	0.62548	0.09916	0.72967	-0.226
Mof_N 	N 	0.65703	0.12707	0.75102	-0.267
Mof_N 	N 	0.67249	0.09343	0.68687	-0.15
Mof_S 	S 	0.66565	0.29017	0.92257	-0.063
Mof_S 	S 	0.70025	0.12921	0.74641	-0.061
Mof_C 	C 	0.21822	0.64834	0.8399	0.037
Mof_H 	H 	0.2151	0.6557	0.8524	0.013
Mof_C 	C 	0.20583	0.65189	0.82273	-0.052
Mof_C 	C 	0.21049	0.64183	0.80437	0.01
Mof_H 	H 	0.2019	0.6434	0.7924	0.037
Mof_C 	C 	0.22798	0.62938	0.80383	-0.1
Mof_H 	H 	0.2324	0.6233	0.7911	0.066
Mof_C 	C 	0.23901	0.62578	0.82171	0.058
Mof_H 	H 	0.2504	0.6163	0.8212	0.001
Mof_C 	C 	0.14849	0.781	0.90658	0.098
Mof_C 	C 	0.16484	0.73327	0.89067	0.065
Mof_H 	H 	0.164	0.7436	0.9012	-0.003
Mof_C 	C 	0.1817	0.72041	0.89077	-0.107
Mof_H 	H 	0.1918	0.7213	0.9015	0.068
Mof_C 	C 	0.18376	0.70611	0.87495	0.014
Mof_H 	H 	0.1953	0.6969	0.8745	0.035
Mof_C 	C 	0.16846	0.70546	0.85954	-0.055
Mof_C 	C 	0.15199	0.71885	0.86115	0.043
Mof_H 	H 	0.1418	0.7185	0.8505	0.013
Mof_C 	C 	0.16996	0.69017	0.84207	0.142
Mof_C 	C 	0.15497	0.6743	0.81478	0.136
Mof_C 	C 	0.18747	0.66537	0.82474	0.139
Mof_C 	C 	0.13717	0.65341	0.78764	0.048
Mof_H 	H 	0.149	0.6446	0.7874	0.009
Mof_C 	C 	0.13702	0.67038	0.80177	-0.058
Mof_C 	C 	0.11914	0.68212	0.80276	0.018
Mof_H 	H 	0.1181	0.6933	0.8123	0.035
Mof_C 	C 	0.10276	0.67751	0.78981	-0.11
Mof_H 	H 	0.0902	0.6852	0.7904	0.071
Mof_C 	C 	0.10507	0.66138	0.77587	0.069
Mof_H 	H 	0.094	0.6588	0.7664	-0.002
Mof_C 	C 	0.17448	0.6281	0.7489	0.108
Mof_C 	C 	0.1122	0.58252	0.73247	0.052
Mof_H 	H 	0.1021	0.5835	0.7432	0.003
Mof_C 	C 	0.11274	0.56521	0.72106	-0.096
Mof_H 	H 	0.1028	0.5545	0.7233	0.066
Mof_C 	C 	0.12821	0.56295	0.70561	0.005
Mof_H 	H 	0.1293	0.5506	0.6976	0.039
Mof_C 	C 	0.14173	0.57958	0.70256	-0.053
Mof_C 	C 	0.13995	0.59696	0.71521	0.046
Mof_H 	H 	0.1497	0.6079	0.7134	0.011
Mof_C 	C 	0.15793	0.57861	0.68677	0.133
Mof_N 	N 	0.23439	0.6351	0.84003	-0.224
Mof_N 	N 	0.13675	0.77309	0.89535	-0.26
Mof_N 	N 	0.14932	0.73243	0.87672	-0.229
Mof_N 	N 	0.18691	0.67908	0.84057	-0.155
Mof_N 	N 	0.15342	0.68858	0.82977	-0.153
Mof_N 	N 	0.17226	0.66246	0.81151	-0.152
Mof_N 	N 	0.12173	0.64926	0.77488	-0.234
Mof_N 	N 	0.12548	0.59916	0.72967	-0.226
Mof_N 	N 	0.15703	0.62707	0.75102	-0.267
Mof_N 	N 	0.17249	0.59343	0.68687	-0.15
Mof_S 	S 	0.16565	0.79017	0.92257	-0.063
Mof_S 	S 	0.20025	0.62921	0.74641	-0.061
Mof_C 	C 	0.21822	0.14834	0.3399	0.037
Mof_H 	H 	0.2151	0.1557	0.3524	0.013
Mof_C 	C 	0.20583	0.15189	0.32273	-0.052
Mof_C 	C 	0.21049	0.14183	0.30437	0.01
Mof_H 	H 	0.2019	0.1434	0.2924	0.037
Mof_C 	C 	0.22798	0.12938	0.30383	-0.1
Mof_H 	H 	0.2324	0.1233	0.2911	0.066
Mof_C 	C 	0.23901	0.12578	0.32171	0.058
Mof_H 	H 	0.2504	0.1163	0.3212	0.001
Mof_C 	C 	0.14849	0.281	0.40658	0.098
Mof_C 	C 	0.16484	0.23327	0.39067	0.065
Mof_H 	H 	0.164	0.2436	0.4012	-0.003
Mof_C 	C 	0.1817	0.22041	0.39077	-0.107
Mof_H 	H 	0.1918	0.2213	0.4015	0.068
Mof_C 	C 	0.18376	0.20611	0.37495	0.014
Mof_H 	H 	0.1953	0.1969	0.3745	0.035
Mof_C 	C 	0.16846	0.20546	0.35954	-0.055
Mof_C 	C 	0.15199	0.21885	0.36115	0.043
Mof_H 	H 	0.1418	0.2185	0.3505	0.013
Mof_C 	C 	0.16996	0.19017	0.34207	0.142
Mof_C 	C 	0.15497	0.1743	0.31478	0.136
Mof_C 	C 	0.18747	0.16537	0.32474	0.139
Mof_C 	C 	0.13717	0.15341	0.28764	0.048
Mof_H 	H 	0.149	0.1446	0.2874	0.009
Mof_C 	C 	0.13702	0.17038	0.30177	-0.058
Mof_C 	C 	0.11914	0.18212	0.30276	0.018
Mof_H 	H 	0.1181	0.1933	0.3123	0.035
Mof_C 	C 	0.10276	0.17751	0.28981	-0.11
Mof_H 	H 	0.0902	0.1852	0.2904	0.071
Mof_C 	C 	0.10507	0.16138	0.27587	0.069
Mof_H 	H 	0.094	0.1588	0.2664	-0.002
Mof_C 	C 	0.17448	0.1281	0.2489	0.108
Mof_C 	C 	0.1122	0.08252	0.23247	0.052
Mof_H 	H 	0.1021	0.0835	0.2432	0.003
Mof_C 	C 	0.11274	0.06521	0.22106	-0.096
Mof_H 	H 	0.1028	0.0545	0.2233	0.066
Mof_C 	C 	0.12821	0.06295	0.20561	0.005
Mof_H 	H 	0.1293	0.0506	0.1976	0.039
Mof_C 	C 	0.14173	0.07958	0.20256	-0.053
Mof_C 	C 	0.13995	0.09696	0.21521	0.046
Mof_H 	H 	0.1497	0.1079	0.2134	0.011
Mof_C 	C 	0.15793	0.07861	0.18677	0.133
Mof_N 	N 	0.23439	0.1351	0.34003	-0.224
Mof_N 	N 	0.13675	0.27309	0.39535	-0.26
Mof_N 	N 	0.14932	0.23243	0.37672	-0.229
Mof_N 	N 	0.18691	0.17908	0.34057	-0.155
Mof_N 	N 	0.15342	0.18858	0.32977	-0.153
Mof_N 	N 	0.17226	0.16246	0.31151	-0.152
Mof_N 	N 	0.12173	0.14926	0.27488	-0.234
Mof_N 	N 	0.12548	0.09916	0.22967	-0.226
Mof_N 	N 	0.15703	0.12707	0.25102	-0.267
Mof_N 	N 	0.17249	0.09343	0.18687	-0.15
Mof_S 	S 	0.16565	0.29017	0.42257	-0.063
Mof_S 	S 	0.20025	0.12921	0.24641	-0.061
Mof_C 	C 	0.53178	0.14834	0.4101	0.037
Mof_H 	H 	0.5349	0.1557	0.3976	0.013
Mof_C 	C 	0.54417	0.15189	0.42727	-0.052
Mof_C 	C 	0.53951	0.14183	0.44563	0.01
Mof_H 	H 	0.5481	0.1434	0.4576	0.037
Mof_C 	C 	0.52202	0.12938	0.44617	-0.1
Mof_H 	H 	0.5176	0.1233	0.4589	0.066
Mof_C 	C 	0.51099	0.12578	0.42829	0.058
Mof_H 	H 	0.4996	0.1163	0.4288	0.001
Mof_C 	C 	0.60151	0.281	0.34342	0.098
Mof_C 	C 	0.58516	0.23327	0.35933	0.065
Mof_H 	H 	0.586	0.2436	0.3488	-0.003
Mof_C 	C 	0.5683	0.22041	0.35923	-0.107
Mof_H 	H 	0.5582	0.2213	0.3485	0.068
Mof_C 	C 	0.56624	0.20611	0.37505	0.014
Mof_H 	H 	0.5547	0.1969	0.3755	0.035
Mof_C 	C 	0.58154	0.20546	0.39046	-0.055
Mof_C 	C 	0.59801	0.21885	0.38885	0.043
Mof_H 	H 	0.6082	0.2185	0.3995	0.013
Mof_C 	C 	0.58004	0.19017	0.40793	0.142
Mof_C 	C 	0.59503	0.1743	0.43522	0.136
Mof_C 	C 	0.56253	0.16537	0.42526	0.139
Mof_C 	C 	0.61283	0.15341	0.46236	0.048
Mof_H 	H 	0.601	0.1446	0.4626	0.009
Mof_C 	C 	0.61298	0.17038	0.44823	-0.058
Mof_C 	C 	0.63086	0.18212	0.44724	0.018
Mof_H 	H 	0.6319	0.1933	0.4377	0.035
Mof_C 	C 	0.64724	0.17751	0.46019	-0.11
Mof_H 	H 	0.6598	0.1852	0.4596	0.071
Mof_C 	C 	0.64493	0.16138	0.47413	0.069
Mof_H 	H 	0.656	0.1588	0.4836	-0.002
Mof_C 	C 	0.57552	0.1281	0.5011	0.108
Mof_C 	C 	0.6378	0.08252	0.51753	0.052
Mof_H 	H 	0.6479	0.0835	0.5068	0.003
Mof_C 	C 	0.63726	0.06521	0.52894	-0.096
Mof_H 	H 	0.6472	0.0545	0.5267	0.066
Mof_C 	C 	0.62179	0.06295	0.54439	0.005
Mof_H 	H 	0.6207	0.0506	0.5524	0.039
Mof_C 	C 	0.60827	0.07958	0.54744	-0.053
Mof_C 	C 	0.61005	0.09696	0.53479	0.046
Mof_H 	H 	0.6003	0.1079	0.5366	0.011
Mof_C 	C 	0.59207	0.07861	0.56323	0.133
Mof_N 	N 	0.51561	0.1351	0.40997	-0.224
Mof_N 	N 	0.61325	0.27309	0.35465	-0.26
Mof_N 	N 	0.60068	0.23243	0.37328	-0.229
Mof_N 	N 	0.56309	0.17908	0.40943	-0.155
Mof_N 	N 	0.59658	0.18858	0.42023	-0.153
Mof_N 	N 	0.57774	0.16246	0.43849	-0.152
Mof_N 	N 	0.62827	0.14926	0.47512	-0.234
Mof_N 	N 	0.62452	0.09916	0.52033	-0.226
Mof_N 	N 	0.59297	0.12707	0.49898	-0.267
Mof_N 	N 	0.57751	0.09343	0.56313	-0.15
Mof_S 	S 	0.58435	0.29017	0.32743	-0.063
Mof_S 	S 	0.54975	0.12921	0.50359	-0.061
Mof_C 	C 	0.53178	0.64834	0.9101	0.037
Mof_H 	H 	0.5349	0.6557	0.8976	0.013
Mof_C 	C 	0.54417	0.65189	0.92727	-0.052
Mof_C 	C 	0.53951	0.64183	0.94563	0.01
Mof_H 	H 	0.5481	0.6434	0.9576	0.037
Mof_C 	C 	0.52202	0.62938	0.94617	-0.1
Mof_H 	H 	0.5176	0.6233	0.9589	0.066
Mof_C 	C 	0.51099	0.62578	0.92829	0.058
Mof_H 	H 	0.4996	0.6163	0.9288	0.001
Mof_C 	C 	0.60151	0.781	0.84342	0.098
Mof_C 	C 	0.58516	0.73327	0.85933	0.065
Mof_H 	H 	0.586	0.7436	0.8488	-0.003
Mof_C 	C 	0.5683	0.72041	0.85923	-0.107
Mof_H 	H 	0.5582	0.7213	0.8485	0.068
Mof_C 	C 	0.56624	0.70611	0.87505	0.014
Mof_H 	H 	0.5547	0.6969	0.8755	0.035
Mof_C 	C 	0.58154	0.70546	0.89046	-0.055
Mof_C 	C 	0.59801	0.71885	0.88885	0.043
Mof_H 	H 	0.6082	0.7185	0.8995	0.013
Mof_C 	C 	0.58004	0.69017	0.90793	0.142
Mof_C 	C 	0.59503	0.6743	0.93522	0.136
Mof_C 	C 	0.56253	0.66537	0.92526	0.139
Mof_C 	C 	0.61283	0.65341	0.96236	0.048
Mof_H 	H 	0.601	0.6446	0.9626	0.009
Mof_C 	C 	0.61298	0.67038	0.94823	-0.058
Mof_C 	C 	0.63086	0.68212	0.94724	0.018
Mof_H 	H 	0.6319	0.6933	0.9377	0.035
Mof_C 	C 	0.64724	0.67751	0.96019	-0.11
Mof_H 	H 	0.6598	0.6852	0.9596	0.071
Mof_C 	C 	0.64493	0.66138	0.97413	0.069
Mof_H 	H 	0.656	0.6588	0.9836	-0.002
Mof_C 	C 	0.57552	0.6281	0.0011	0.108
Mof_C 	C 	0.6378	0.58252	0.01753	0.052
Mof_H 	H 	0.6479	0.5835	0.0068	0.003
Mof_C 	C 	0.63726	0.56521	0.02894	-0.096
Mof_H 	H 	0.6472	0.5545	0.0267	0.066
Mof_C 	C 	0.62179	0.56295	0.04439	0.005
Mof_H 	H 	0.6207	0.5506	0.0524	0.039
Mof_C 	C 	0.60827	0.57958	0.04744	-0.053
Mof_C 	C 	0.61005	0.59696	0.03479	0.046
Mof_H 	H 	0.6003	0.6079	0.0366	0.011
Mof_C 	C 	0.59207	0.57861	0.06323	0.133
Mof_N 	N 	0.51561	0.6351	0.90997	-0.224
Mof_N 	N 	0.61325	0.77309	0.85465	-0.26
Mof_N 	N 	0.60068	0.73243	0.87328	-0.229
Mof_N 	N 	0.56309	0.67908	0.90943	-0.155
Mof_N 	N 	0.59658	0.68858	0.92023	-0.153
Mof_N 	N 	0.57774	0.66246	0.93849	-0.152
Mof_N 	N 	0.62827	0.64926	0.97512	-0.234
Mof_N 	N 	0.62452	0.59916	0.02033	-0.226
Mof_N 	N 	0.59297	0.62707	0.99898	-0.267
Mof_N 	N 	0.57751	0.59343	0.06313	-0.15
Mof_S 	S 	0.58435	0.79017	0.82743	-0.063
Mof_S 	S 	0.54975	0.62921	0.00359	-0.061
Mof_C 	C 	0.03178	0.14834	0.9101	0.037
Mof_H 	H 	0.0349	0.1557	0.8976	0.013
Mof_C 	C 	0.04417	0.15189	0.92727	-0.052
Mof_C 	C 	0.03951	0.14183	0.94563	0.01
Mof_H 	H 	0.0481	0.1434	0.9576	0.037
Mof_C 	C 	0.02202	0.12938	0.94617	-0.1
Mof_H 	H 	0.0176	0.1233	0.9589	0.066
Mof_C 	C 	0.01099	0.12578	0.92829	0.058
Mof_H 	H 	0.9996	0.1163	0.9288	0.001
Mof_C 	C 	0.10151	0.281	0.84342	0.098
Mof_C 	C 	0.08516	0.23327	0.85933	0.065
Mof_H 	H 	0.086	0.2436	0.8488	-0.003
Mof_C 	C 	0.0683	0.22041	0.85923	-0.107
Mof_H 	H 	0.0582	0.2213	0.8485	0.068
Mof_C 	C 	0.06624	0.20611	0.87505	0.014
Mof_H 	H 	0.0547	0.1969	0.8755	0.035
Mof_C 	C 	0.08154	0.20546	0.89046	-0.055
Mof_C 	C 	0.09801	0.21885	0.88885	0.043
Mof_H 	H 	0.1082	0.2185	0.8995	0.013
Mof_C 	C 	0.08004	0.19017	0.90793	0.142
Mof_C 	C 	0.09503	0.1743	0.93522	0.136
Mof_C 	C 	0.06253	0.16537	0.92526	0.139
Mof_C 	C 	0.11283	0.15341	0.96236	0.048
Mof_H 	H 	0.101	0.1446	0.9626	0.009
Mof_C 	C 	0.11298	0.17038	0.94823	-0.058
Mof_C 	C 	0.13086	0.18212	0.94724	0.018
Mof_H 	H 	0.1319	0.1933	0.9377	0.035
Mof_C 	C 	0.14724	0.17751	0.96019	-0.11
Mof_H 	H 	0.1598	0.1852	0.9596	0.071
Mof_C 	C 	0.14493	0.16138	0.97413	0.069
Mof_H 	H 	0.156	0.1588	0.9836	-0.002
Mof_C 	C 	0.07552	0.1281	0.0011	0.108
Mof_C 	C 	0.1378	0.08252	0.01753	0.052
Mof_H 	H 	0.1479	0.0835	0.0068	0.003
Mof_C 	C 	0.13726	0.06521	0.02894	-0.096
Mof_H 	H 	0.1472	0.0545	0.0267	0.066
Mof_C 	C 	0.12179	0.06295	0.04439	0.005
Mof_H 	H 	0.1207	0.0506	0.0524	0.039
Mof_C 	C 	0.10827	0.07958	0.04744	-0.053
Mof_C 	C 	0.11005	0.09696	0.03479	0.046
Mof_H 	H 	0.1003	0.1079	0.0366	0.011
Mof_C 	C 	0.09207	0.07861	0.06323	0.133
Mof_N 	N 	0.01561	0.1351	0.90997	-0.224
Mof_N 	N 	0.11325	0.27309	0.85465	-0.26
Mof_N 	N 	0.10068	0.23243	0.87328	-0.229
Mof_N 	N 	0.06309	0.17908	0.90943	-0.155
Mof_N 	N 	0.09658	0.18858	0.92023	-0.153
Mof_N 	N 	0.07774	0.16246	0.93849	-0.152
Mof_N 	N 	0.12827	0.14926	0.97512	-0.234
Mof_N 	N 	0.12452	0.09916	0.02033	-0.226
Mof_N 	N 	0.09297	0.12707	0.99898	-0.267
Mof_N 	N 	0.07751	0.09343	0.06313	-0.15
Mof_S 	S 	0.08435	0.29017	0.82743	-0.063
Mof_S 	S 	0.04975	0.12921	0.00359	-0.061
Mof_C 	C 	0.03178	0.64834	0.4101	0.037
Mof_H 	H 	0.0349	0.6557	0.3976	0.013
Mof_C 	C 	0.04417	0.65189	0.42727	-0.052
Mof_C 	C 	0.03951	0.64183	0.44563	0.01
Mof_H 	H 	0.0481	0.6434	0.4576	0.037
Mof_C 	C 	0.02202	0.62938	0.44617	-0.1
Mof_H 	H 	0.0176	0.6233	0.4589	0.066
Mof_C 	C 	0.01099	0.62578	0.42829	0.058
Mof_H 	H 	0.9996	0.6163	0.4288	0.001
Mof_C 	C 	0.10151	0.781	0.34342	0.098
Mof_C 	C 	0.08516	0.73327	0.35933	0.065
Mof_H 	H 	0.086	0.7436	0.3488	-0.003
Mof_C 	C 	0.0683	0.72041	0.35923	-0.107
Mof_H 	H 	0.0582	0.7213	0.3485	0.068
Mof_C 	C 	0.06624	0.70611	0.37505	0.014
Mof_H 	H 	0.0547	0.6969	0.3755	0.035
Mof_C 	C 	0.08154	0.70546	0.39046	-0.055
Mof_C 	C 	0.09801	0.71885	0.38885	0.043
Mof_H 	H 	0.1082	0.7185	0.3995	0.013
Mof_C 	C 	0.08004	0.69017	0.40793	0.142
Mof_C 	C 	0.09503	0.6743	0.43522	0.136
Mof_C 	C 	0.06253	0.66537	0.42526	0.139
Mof_C 	C 	0.11283	0.65341	0.46236	0.048
Mof_H 	H 	0.101	0.6446	0.4626	0.009
Mof_C 	C 	0.11298	0.67038	0.44823	-0.058
Mof_C 	C 	0.13086	0.68212	0.44724	0.018
Mof_H 	H 	0.1319	0.6933	0.4377	0.035
Mof_C 	C 	0.14724	0.67751	0.46019	-0.11
Mof_H 	H 	0.1598	0.6852	0.4596	0.071
Mof_C 	C 	0.14493	0.66138	0.47413	0.069
Mof_H 	H 	0.156	0.6588	0.4836	-0.002
Mof_C 	C 	0.07552	0.6281	0.5011	0.108
Mof_C 	C 	0.1378	0.58252	0.51753	0.052
Mof_H 	H 	0.1479	0.5835	0.5068	0.003
Mof_C 	C 	0.13726	0.56521	0.52894	-0.096
Mof_H 	H 	0.1472	0.5545	0.5267	0.066
Mof_C 	C 	0.12179	0.56295	0.54439	0.005
Mof_H 	H 	0.1207	0.5506	0.5524	0.039
Mof_C 	C 	0.10827	0.57958	0.54744	-0.053
Mof_C 	C 	0.11005	0.59696	0.53479	0.046
Mof_H 	H 	0.1003	0.6079	0.5366	0.011
Mof_C 	C 	0.09207	0.57861	0.56323	0.133
Mof_N 	N 	0.01561	0.6351	0.40997	-0.224
Mof_N 	N 	0.11325	0.77309	0.35465	-0.26
Mof_N 	N 	0.10068	0.73243	0.37328	-0.229
Mof_N 	N 	0.06309	0.67908	0.40943	-0.155
Mof_N 	N 	0.09658	0.68858	0.42023	-0.153
Mof_N 	N 	0.07774	0.66246	0.43849	-0.152
Mof_N 	N 	0.12827	0.64926	0.47512	-0.234
Mof_N 	N 	0.12452	0.59916	0.52033	-0.226
Mof_N 	N 	0.09297	0.62707	0.49898	-0.267
Mof_N 	N 	0.07751	0.59343	0.56313	-0.15
Mof_S 	S 	0.08435	0.79017	0.32743	-0.063
Mof_S 	S 	0.04975	0.62921	0.50359	-0.061
Mof_C 	C 	0.03178	0.60166	0.8399	0.037
Mof_H 	H 	0.0349	0.5943	0.8524	0.013
Mof_C 	C 	0.04417	0.59811	0.82273	-0.052
Mof_C 	C 	0.03951	0.60817	0.80437	0.01
Mof_H 	H 	0.0481	0.6066	0.7924	0.037
Mof_C 	C 	0.02202	0.62062	0.80383	-0.1
Mof_H 	H 	0.0176	0.6267	0.7911	0.066
Mof_C 	C 	0.01099	0.62422	0.82171	0.058
Mof_H 	H 	0.9996	0.6337	0.8212	0.001
Mof_C 	C 	0.10151	0.469	0.90658	0.098
Mof_C 	C 	0.08516	0.51673	0.89067	0.065
Mof_H 	H 	0.086	0.5064	0.9012	-0.003
Mof_C 	C 	0.0683	0.52959	0.89077	-0.107
Mof_H 	H 	0.0582	0.5287	0.9015	0.068
Mof_C 	C 	0.06624	0.54389	0.87495	0.014
Mof_H 	H 	0.0547	0.5531	0.8745	0.035
Mof_C 	C 	0.08154	0.54454	0.85954	-0.055
Mof_C 	C 	0.09801	0.53115	0.86115	0.043
Mof_H 	H 	0.1082	0.5315	0.8505	0.013
Mof_C 	C 	0.08004	0.55983	0.84207	0.142
Mof_C 	C 	0.09503	0.5757	0.81478	0.136
Mof_C 	C 	0.06253	0.58463	0.82474	0.139
Mof_C 	C 	0.11283	0.59659	0.78764	0.048
Mof_H 	H 	0.101	0.6054	0.7874	0.009
Mof_C 	C 	0.11298	0.57962	0.80177	-0.058
Mof_C 	C 	0.13086	0.56788	0.80276	0.018
Mof_H 	H 	0.1319	0.5567	0.8123	0.035
Mof_C 	C 	0.14724	0.57249	0.78981	-0.11
Mof_H 	H 	0.1598	0.5648	0.7904	0.071
Mof_C 	C 	0.14493	0.58862	0.77587	0.069
Mof_H 	H 	0.156	0.5912	0.7664	-0.002
Mof_C 	C 	0.07552	0.6219	0.7489	0.108
Mof_C 	C 	0.1378	0.66748	0.73247	0.052
Mof_H 	H 	0.1479	0.6665	0.7432	0.003
Mof_C 	C 	0.13726	0.68479	0.72106	-0.096
Mof_H 	H 	0.1472	0.6955	0.7233	0.066
Mof_C 	C 	0.12179	0.68705	0.70561	0.005
Mof_H 	H 	0.1207	0.6994	0.6976	0.039
Mof_C 	C 	0.10827	0.67042	0.70256	-0.053
Mof_C 	C 	0.11005	0.65304	0.71521	0.046
Mof_H 	H 	0.1003	0.6421	0.7134	0.011
Mof_C 	C 	0.09207	0.67139	0.68677	0.133
Mof_N 	N 	0.01561	0.6149	0.84003	-0.224
Mof_N 	N 	0.11325	0.47691	0.89535	-0.26
Mof_N 	N 	0.10068	0.51757	0.87672	-0.229
Mof_N 	N 	0.06309	0.57092	0.84057	-0.155
Mof_N 	N 	0.09658	0.56142	0.82977	-0.153
Mof_N 	N 	0.07774	0.58754	0.81151	-0.152
Mof_N 	N 	0.12827	0.60074	0.77488	-0.234
Mof_N 	N 	0.12452	0.65084	0.72967	-0.226
Mof_N 	N 	0.09297	0.62293	0.75102	-0.267
Mof_N 	N 	0.07751	0.65657	0.68687	-0.15
Mof_S 	S 	0.08435	0.45983	0.92257	-0.063
Mof_S 	S 	0.04975	0.62079	0.74641	-0.061
Mof_C 	C 	0.03178	0.10166	0.3399	0.037
Mof_H 	H 	0.0349	0.0943	0.3524	0.013
Mof_C 	C 	0.04417	0.09811	0.32273	-0.052
Mof_C 	C 	0.03951	0.10817	0.30437	0.01
Mof_H 	H 	0.0481	0.1066	0.2924	0.037
Mof_C 	C 	0.02202	0.12062	0.30383	-0.1
Mof_H 	H 	0.0176	0.1267	0.2911	0.066
Mof_C 	C 	0.01099	0.12422	0.32171	0.058
Mof_H 	H 	0.9996	0.1337	0.3212	0.001
Mof_C 	C 	0.10151	0.969	0.40658	0.098
Mof_C 	C 	0.08516	0.01673	0.39067	0.065
Mof_H 	H 	0.086	0.0064	0.4012	-0.003
Mof_C 	C 	0.0683	0.02959	0.39077	-0.107
Mof_H 	H 	0.0582	0.0287	0.4015	0.068
Mof_C 	C 	0.06624	0.04389	0.37495	0.014
Mof_H 	H 	0.0547	0.0531	0.3745	0.035
Mof_C 	C 	0.08154	0.04454	0.35954	-0.055
Mof_C 	C 	0.09801	0.03115	0.36115	0.043
Mof_H 	H 	0.1082	0.0315	0.3505	0.013
Mof_C 	C 	0.08004	0.05983	0.34207	0.142
Mof_C 	C 	0.09503	0.0757	0.31478	0.136
Mof_C 	C 	0.06253	0.08463	0.32474	0.139
Mof_C 	C 	0.11283	0.09659	0.28764	0.048
Mof_H 	H 	0.101	0.1054	0.2874	0.009
Mof_C 	C 	0.11298	0.07962	0.30177	-0.058
Mof_C 	C 	0.13086	0.06788	0.30276	0.018
Mof_H 	H 	0.1319	0.0567	0.3123	0.035
Mof_C 	C 	0.14724	0.07249	0.28981	-0.11
Mof_H 	H 	0.1598	0.0648	0.2904	0.071
Mof_C 	C 	0.14493	0.08862	0.27587	0.069
Mof_H 	H 	0.156	0.0912	0.2664	-0.002
Mof_C 	C 	0.07552	0.1219	0.2489	0.108
Mof_C 	C 	0.1378	0.16748	0.23247	0.052
Mof_H 	H 	0.1479	0.1665	0.2432	0.003
Mof_C 	C 	0.13726	0.18479	0.22106	-0.096
Mof_H 	H 	0.1472	0.1955	0.2233	0.066
Mof_C 	C 	0.12179	0.18705	0.20561	0.005
Mof_H 	H 	0.1207	0.1994	0.1976	0.039
Mof_C 	C 	0.10827	0.17042	0.20256	-0.053
Mof_C 	C 	0.11005	0.15304	0.21521	0.046
Mof_H 	H 	0.1003	0.1421	0.2134	0.011
Mof_C 	C 	0.09207	0.17139	0.18677	0.133
Mof_N 	N 	0.01561	0.1149	0.34003	-0.224
Mof_N 	N 	0.11325	0.97691	0.39535	-0.26
Mof_N 	N 	0.10068	0.01757	0.37672	-0.229
Mof_N 	N 	0.06309	0.07092	0.34057	-0.155
Mof_N 	N 	0.09658	0.06142	0.32977	-0.153
Mof_N 	N 	0.07774	0.08754	0.31151	-0.152
Mof_N 	N 	0.12827	0.10074	0.27488	-0.234
Mof_N 	N 	0.12452	0.15084	0.22967	-0.226
Mof_N 	N 	0.09297	0.12293	0.25102	-0.267
Mof_N 	N 	0.07751	0.15657	0.18687	-0.15
Mof_S 	S 	0.08435	0.95983	0.42257	-0.063
Mof_S 	S 	0.04975	0.12079	0.24641	-0.061
Mof_C 	C 	0.53178	0.60166	0.3399	0.037
Mof_H 	H 	0.5349	0.5943	0.3524	0.013
Mof_C 	C 	0.54417	0.59811	0.32273	-0.052
Mof_C 	C 	0.53951	0.60817	0.30437	0.01
Mof_H 	H 	0.5481	0.6066	0.2924	0.037
Mof_C 	C 	0.52202	0.62062	0.30383	-0.1
Mof_H 	H 	0.5176	0.6267	0.2911	0.066
Mof_C 	C 	0.51099	0.62422	0.32171	0.058
Mof_H 	H 	0.4996	0.6337	0.3212	0.001
Mof_C 	C 	0.60151	0.469	0.40658	0.098
Mof_C 	C 	0.58516	0.51673	0.39067	0.065
Mof_H 	H 	0.586	0.5064	0.4012	-0.003
Mof_C 	C 	0.5683	0.52959	0.39077	-0.107
Mof_H 	H 	0.5582	0.5287	0.4015	0.068
Mof_C 	C 	0.56624	0.54389	0.37495	0.014
Mof_H 	H 	0.5547	0.5531	0.3745	0.035
Mof_C 	C 	0.58154	0.54454	0.35954	-0.055
Mof_C 	C 	0.59801	0.53115	0.36115	0.043
Mof_H 	H 	0.6082	0.5315	0.3505	0.013
Mof_C 	C 	0.58004	0.55983	0.34207	0.142
Mof_C 	C 	0.59503	0.5757	0.31478	0.136
Mof_C 	C 	0.56253	0.58463	0.32474	0.139
Mof_C 	C 	0.61283	0.59659	0.28764	0.048
Mof_H 	H 	0.601	0.6054	0.2874	0.009
Mof_C 	C 	0.61298	0.57962	0.30177	-0.058
Mof_C 	C 	0.63086	0.56788	0.30276	0.018
Mof_H 	H 	0.6319	0.5567	0.3123	0.035
Mof_C 	C 	0.64724	0.57249	0.28981	-0.11
Mof_H 	H 	0.6598	0.5648	0.2904	0.071
Mof_C 	C 	0.64493	0.58862	0.27587	0.069
Mof_H 	H 	0.656	0.5912	0.2664	-0.002
Mof_C 	C 	0.57552	0.6219	0.2489	0.108
Mof_C 	C 	0.6378	0.66748	0.23247	0.052
Mof_H 	H 	0.6479	0.6665	0.2432	0.003
Mof_C 	C 	0.63726	0.68479	0.22106	-0.096
Mof_H 	H 	0.6472	0.6955	0.2233	0.066
Mof_C 	C 	0.62179	0.68705	0.20561	0.005
Mof_H 	H 	0.6207	0.6994	0.1976	0.039
Mof_C 	C 	0.60827	0.67042	0.20256	-0.053
Mof_C 	C 	0.61005	0.65304	0.21521	0.046
Mof_H 	H 	0.6003	0.6421	0.2134	0.011
Mof_C 	C 	0.59207	0.67139	0.18677	0.133
Mof_N 	N 	0.51561	0.6149	0.34003	-0.224
Mof_N 	N 	0.61325	0.47691	0.39535	-0.26
Mof_N 	N 	0.60068	0.51757	0.37672	-0.229
Mof_N 	N 	0.56309	0.57092	0.34057	-0.155
Mof_N 	N 	0.59658	0.56142	0.32977	-0.153
Mof_N 	N 	0.57774	0.58754	0.31151	-0.152
Mof_N 	N 	0.62827	0.60074	0.27488	-0.234
Mof_N 	N 	0.62452	0.65084	0.22967	-0.226
Mof_N 	N 	0.59297	0.62293	0.25102	-0.267
Mof_N 	N 	0.57751	0.65657	0.18687	-0.15
Mof_S 	S 	0.58435	0.45983	0.42257	-0.063
Mof_S 	S 	0.54975	0.62079	0.24641	-0.061
Mof_C 	C 	0.53178	0.10166	0.8399	0.037
Mof_H 	H 	0.5349	0.0943	0.8524	0.013
Mof_C 	C 	0.54417	0.09811	0.82273	-0.052
Mof_C 	C 	0.53951	0.10817	0.80437	0.01
Mof_H 	H 	0.5481	0.1066	0.7924	0.037
Mof_C 	C 	0.52202	0.12062	0.80383	-0.1
Mof_H 	H 	0.5176	0.1267	0.7911	0.066
Mof_C 	C 	0.51099	0.12422	0.82171	0.058
Mof_H 	H 	0.4996	0.1337	0.8212	0.001
Mof_C 	C 	0.60151	0.969	0.90658	0.098
Mof_C 	C 	0.58516	0.01673	0.89067	0.065
Mof_H 	H 	0.586	0.0064	0.9012	-0.003
Mof_C 	C 	0.5683	0.02959	0.89077	-0.107
Mof_H 	H 	0.5582	0.0287	0.9015	0.068
Mof_C 	C 	0.56624	0.04389	0.87495	0.014
Mof_H 	H 	0.5547	0.0531	0.8745	0.035
Mof_C 	C 	0.58154	0.04454	0.85954	-0.055
Mof_C 	C 	0.59801	0.03115	0.86115	0.043
Mof_H 	H 	0.6082	0.0315	0.8505	0.013
Mof_C 	C 	0.58004	0.05983	0.84207	0.142
Mof_C 	C 	0.59503	0.0757	0.81478	0.136
Mof_C 	C 	0.56253	0.08463	0.82474	0.139
Mof_C 	C 	0.61283	0.09659	0.78764	0.048
Mof_H 	H 	0.601	0.1054	0.7874	0.009
Mof_C 	C 	0.61298	0.07962	0.80177	-0.058
Mof_C 	C 	0.63086	0.06788	0.80276	0.018
Mof_H 	H 	0.6319	0.0567	0.8123	0.035
Mof_C 	C 	0.64724	0.07249	0.78981	-0.11
Mof_H 	H 	0.6598	0.0648	0.7904	0.071
Mof_C 	C 	0.64493	0.08862	0.77587	0.069
Mof_H 	H 	0.656	0.0912	0.7664	-0.002
Mof_C 	C 	0.57552	0.1219	0.7489	0.108
Mof_C 	C 	0.6378	0.16748	0.73247	0.052
Mof_H 	H 	0.6479	0.1665	0.7432	0.003
Mof_C 	C 	0.63726	0.18479	0.72106	-0.096
Mof_H 	H 	0.6472	0.1955	0.7233	0.066
Mof_C 	C 	0.62179	0.18705	0.70561	0.005
Mof_H 	H 	0.6207	0.1994	0.6976	0.039
Mof_C 	C 	0.60827	0.17042	0.70256	-0.053
Mof_C 	C 	0.61005	0.15304	0.71521	0.046
Mof_H 	H 	0.6003	0.1421	0.7134	0.011
Mof_C 	C 	0.59207	0.17139	0.68677	0.133
Mof_N 	N 	0.51561	0.1149	0.84003	-0.224
Mof_N 	N 	0.61325	0.97691	0.89535	-0.26
Mof_N 	N 	0.60068	0.01757	0.87672	-0.229
Mof_N 	N 	0.56309	0.07092	0.84057	-0.155
Mof_N 	N 	0.59658	0.06142	0.82977	-0.153
Mof_N 	N 	0.57774	0.08754	0.81151	-0.152
Mof_N 	N 	0.62827	0.10074	0.77488	-0.234
Mof_N 	N 	0.62452	0.15084	0.72967	-0.226
Mof_N 	N 	0.59297	0.12293	0.75102	-0.267
Mof_N 	N 	0.57751	0.15657	0.68687	-0.15
Mof_S 	S 	0.58435	0.95983	0.92257	-0.063
Mof_S 	S 	0.54975	0.12079	0.74641	-0.061
Mof_C 	C 	0.21822	0.10166	0.9101	0.037
Mof_H 	H 	0.2151	0.0943	0.8976	0.013
Mof_C 	C 	0.20583	0.09811	0.92727	-0.052
Mof_C 	C 	0.21049	0.10817	0.94563	0.01
Mof_H 	H 	0.2019	0.1066	0.9576	0.037
Mof_C 	C 	0.22798	0.12062	0.94617	-0.1
Mof_H 	H 	0.2324	0.1267	0.9589	0.066
Mof_C 	C 	0.23901	0.12422	0.92829	0.058
Mof_H 	H 	0.2504	0.1337	0.9288	0.001
Mof_C 	C 	0.14849	0.969	0.84342	0.098
Mof_C 	C 	0.16484	0.01673	0.85933	0.065
Mof_H 	H 	0.164	0.0064	0.8488	-0.003
Mof_C 	C 	0.1817	0.02959	0.85923	-0.107
Mof_H 	H 	0.1918	0.0287	0.8485	0.068
Mof_C 	C 	0.18376	0.04389	0.87505	0.014
Mof_H 	H 	0.1953	0.0531	0.8755	0.035
Mof_C 	C 	0.16846	0.04454	0.89046	-0.055
Mof_C 	C 	0.15199	0.03115	0.88885	0.043
Mof_H 	H 	0.1418	0.0315	0.8995	0.013
Mof_C 	C 	0.16996	0.05983	0.90793	0.142
Mof_C 	C 	0.15497	0.0757	0.93522	0.136
Mof_C 	C 	0.18747	0.08463	0.92526	0.139
Mof_C 	C 	0.13717	0.09659	0.96236	0.048
Mof_H 	H 	0.149	0.1054	0.9626	0.009
Mof_C 	C 	0.13702	0.07962	0.94823	-0.058
Mof_C 	C 	0.11914	0.06788	0.94724	0.018
Mof_H 	H 	0.1181	0.0567	0.9377	0.035
Mof_C 	C 	0.10276	0.07249	0.96019	-0.11
Mof_H 	H 	0.0902	0.0648	0.9596	0.071
Mof_C 	C 	0.10507	0.08862	0.97413	0.069
Mof_H 	H 	0.094	0.0912	0.9836	-0.002
Mof_C 	C 	0.17448	0.1219	0.0011	0.108
Mof_C 	C 	0.1122	0.16748	0.01753	0.052
Mof_H 	H 	0.1021	0.1665	0.0068	0.003
Mof_C 	C 	0.11274	0.18479	0.02894	-0.096
Mof_H 	H 	0.1028	0.1955	0.0267	0.066
Mof_C 	C 	0.12821	0.18705	0.04439	0.005
Mof_H 	H 	0.1293	0.1994	0.0524	0.039
Mof_C 	C 	0.14173	0.17042	0.04744	-0.053
Mof_C 	C 	0.13995	0.15304	0.03479	0.046
Mof_H 	H 	0.1497	0.1421	0.0366	0.011
Mof_C 	C 	0.15793	0.17139	0.06323	0.133
Mof_N 	N 	0.23439	0.1149	0.90997	-0.224
Mof_N 	N 	0.13675	0.97691	0.85465	-0.26
Mof_N 	N 	0.14932	0.01757	0.87328	-0.229
Mof_N 	N 	0.18691	0.07092	0.90943	-0.155
Mof_N 	N 	0.15342	0.06142	0.92023	-0.153
Mof_N 	N 	0.17226	0.08754	0.93849	-0.152
Mof_N 	N 	0.12173	0.10074	0.97512	-0.234
Mof_N 	N 	0.12548	0.15084	0.02033	-0.226
Mof_N 	N 	0.15703	0.12293	0.99898	-0.267
Mof_N 	N 	0.17249	0.15657	0.06313	-0.15
Mof_S 	S 	0.16565	0.95983	0.82743	-0.063
Mof_S 	S 	0.20025	0.12079	0.00359	-0.061
Mof_C 	C 	0.21822	0.60166	0.4101	0.037
Mof_H 	H 	0.2151	0.5943	0.3976	0.013
Mof_C 	C 	0.20583	0.59811	0.42727	-0.052
Mof_C 	C 	0.21049	0.60817	0.44563	0.01
Mof_H 	H 	0.2019	0.6066	0.4576	0.037
Mof_C 	C 	0.22798	0.62062	0.44617	-0.1
Mof_H 	H 	0.2324	0.6267	0.4589	0.066
Mof_C 	C 	0.23901	0.62422	0.42829	0.058
Mof_H 	H 	0.2504	0.6337	0.4288	0.001
Mof_C 	C 	0.14849	0.469	0.34342	0.098
Mof_C 	C 	0.16484	0.51673	0.35933	0.065
Mof_H 	H 	0.164	0.5064	0.3488	-0.003
Mof_C 	C 	0.1817	0.52959	0.35923	-0.107
Mof_H 	H 	0.1918	0.5287	0.3485	0.068
Mof_C 	C 	0.18376	0.54389	0.37505	0.014
Mof_H 	H 	0.1953	0.5531	0.3755	0.035
Mof_C 	C 	0.16846	0.54454	0.39046	-0.055
Mof_C 	C 	0.15199	0.53115	0.38885	0.043
Mof_H 	H 	0.1418	0.5315	0.3995	0.013
Mof_C 	C 	0.16996	0.55983	0.40793	0.142
Mof_C 	C 	0.15497	0.5757	0.43522	0.136
Mof_C 	C 	0.18747	0.58463	0.42526	0.139
Mof_C 	C 	0.13717	0.59659	0.46236	0.048
Mof_H 	H 	0.149	0.6054	0.4626	0.009
Mof_C 	C 	0.13702	0.57962	0.44823	-0.058
Mof_C 	C 	0.11914	0.56788	0.44724	0.018
Mof_H 	H 	0.1181	0.5567	0.4377	0.035
Mof_C 	C 	0.10276	0.57249	0.46019	-0.11
Mof_H 	H 	0.0902	0.5648	0.4596	0.071
Mof_C 	C 	0.10507	0.58862	0.47413	0.069
Mof_H 	H 	0.094	0.5912	0.4836	-0.002
Mof_C 	C 	0.17448	0.6219	0.5011	0.108
Mof_C 	C 	0.1122	0.66748	0.51753	0.052
Mof_H 	H 	0.1021	0.6665	0.5068	0.003
Mof_C 	C 	0.11274	0.68479	0.52894	-0.096
Mof_H 	H 	0.1028	0.6955	0.5267	0.066
Mof_C 	C 	0.12821	0.68705	0.54439	0.005
Mof_H 	H 	0.1293	0.6994	0.5524	0.039
Mof_C 	C 	0.14173	0.67042	0.54744	-0.053
Mof_C 	C 	0.13995	0.65304	0.53479	0.046
Mof_H 	H 	0.1497	0.6421	0.5366	0.011
Mof_C 	C 	0.15793	0.67139	0.56323	0.133
Mof_N 	N 	0.23439	0.6149	0.40997	-0.224
Mof_N 	N 	0.13675	0.47691	0.35465	-0.26
Mof_N 	N 	0.14932	0.51757	0.37328	-0.229
Mof_N 	N 	0.18691	0.57092	0.40943	-0.155
Mof_N 	N 	0.15342	0.56142	0.42023	-0.153
Mof_N 	N 	0.17226	0.58754	0.43849	-0.152
Mof_N 	N 	0.12173	0.60074	0.47512	-0.234
Mof_N 	N 	0.12548	0.65084	0.52033	-0.226
Mof_N 	N 	0.15703	0.62293	0.49898	-0.267
Mof_N 	N 	0.17249	0.65657	0.56313	-0.15
Mof_S 	S 	0.16565	0.45983	0.32743	-0.063
Mof_S 	S 	0.20025	0.62079	0.50359	-0.061
Mof_C 	C 	0.71822	0.10166	0.4101	0.037
Mof_H 	H 	0.7151	0.0943	0.3976	0.013
Mof_C 	C 	0.70583	0.09811	0.42727	-0.052
Mof_C 	C 	0.71049	0.10817	0.44563	0.01
Mof_H 	H 	0.7019	0.1066	0.4576	0.037
Mof_C 	C 	0.72798	0.12062	0.44617	-0.1
Mof_H 	H 	0.7324	0.1267	0.4589	0.066
Mof_C 	C 	0.73901	0.12422	0.42829	0.058
Mof_H 	H 	0.7504	0.1337	0.4288	0.001
Mof_C 	C 	0.64849	0.969	0.34342	0.098
Mof_C 	C 	0.66484	0.01673	0.35933	0.065
Mof_H 	H 	0.664	0.0064	0.3488	-0.003
Mof_C 	C 	0.6817	0.02959	0.35923	-0.107
Mof_H 	H 	0.6918	0.0287	0.3485	0.068
Mof_C 	C 	0.68376	0.04389	0.37505	0.014
Mof_H 	H 	0.6953	0.0531	0.3755	0.035
Mof_C 	C 	0.66846	0.04454	0.39046	-0.055
Mof_C 	C 	0.65199	0.03115	0.38885	0.043
Mof_H 	H 	0.6418	0.0315	0.3995	0.013
Mof_C 	C 	0.66996	0.05983	0.40793	0.142
Mof_C 	C 	0.65497	0.0757	0.43522	0.136
Mof_C 	C 	0.68747	0.08463	0.42526	0.139
Mof_C 	C 	0.63717	0.09659	0.46236	0.048
Mof_H 	H 	0.649	0.1054	0.4626	0.009
Mof_C 	C 	0.63702	0.07962	0.44823	-0.058
Mof_C 	C 	0.61914	0.06788	0.44724	0.018
Mof_H 	H 	0.6181	0.0567	0.4377	0.035
Mof_C 	C 	0.60276	0.07249	0.46019	-0.11
Mof_H 	H 	0.5902	0.0648	0.4596	0.071
Mof_C 	C 	0.60507	0.08862	0.47413	0.069
Mof_H 	H 	0.594	0.0912	0.4836	-0.002
Mof_C 	C 	0.67448	0.1219	0.5011	0.108
Mof_C 	C 	0.6122	0.16748	0.51753	0.052
Mof_H 	H 	0.6021	0.1665	0.5068	0.003
Mof_C 	C 	0.61274	0.18479	0.52894	-0.096
Mof_H 	H 	0.6028	0.1955	0.5267	0.066
Mof_C 	C 	0.62821	0.18705	0.54439	0.005
Mof_H 	H 	0.6293	0.1994	0.5524	0.039
Mof_C 	C 	0.64173	0.17042	0.54744	-0.053
Mof_C 	C 	0.63995	0.15304	0.53479	0.046
Mof_H 	H 	0.6497	0.1421	0.5366	0.011
Mof_C 	C 	0.65793	0.17139	0.56323	0.133
Mof_N 	N 	0.73439	0.1149	0.40997	-0.224
Mof_N 	N 	0.63675	0.97691	0.35465	-0.26
Mof_N 	N 	0.64932	0.01757	0.37328	-0.229
Mof_N 	N 	0.68691	0.07092	0.40943	-0.155
Mof_N 	N 	0.65342	0.06142	0.42023	-0.153
Mof_N 	N 	0.67226	0.08754	0.43849	-0.152
Mof_N 	N 	0.62173	0.10074	0.47512	-0.234
Mof_N 	N 	0.62548	0.15084	0.52033	-0.226
Mof_N 	N 	0.65703	0.12293	0.49898	-0.267
Mof_N 	N 	0.67249	0.15657	0.56313	-0.15
Mof_S 	S 	0.66565	0.95983	0.32743	-0.063
Mof_S 	S 	0.70025	0.12079	0.50359	-0.061
Mof_C 	C 	0.71822	0.60166	0.9101	0.037
Mof_H 	H 	0.7151	0.5943	0.8976	0.013
Mof_C 	C 	0.70583	0.59811	0.92727	-0.052
Mof_C 	C 	0.71049	0.60817	0.94563	0.01
Mof_H 	H 	0.7019	0.6066	0.9576	0.037
Mof_C 	C 	0.72798	0.62062	0.94617	-0.1
Mof_H 	H 	0.7324	0.6267	0.9589	0.066
Mof_C 	C 	0.73901	0.62422	0.92829	0.058
Mof_H 	H 	0.7504	0.6337	0.9288	0.001
Mof_C 	C 	0.64849	0.469	0.84342	0.098
Mof_C 	C 	0.66484	0.51673	0.85933	0.065
Mof_H 	H 	0.664	0.5064	0.8488	-0.003
Mof_C 	C 	0.6817	0.52959	0.85923	-0.107
Mof_H 	H 	0.6918	0.5287	0.8485	0.068
Mof_C 	C 	0.68376	0.54389	0.87505	0.014
Mof_H 	H 	0.6953	0.5531	0.8755	0.035
Mof_C 	C 	0.66846	0.54454	0.89046	-0.055
Mof_C 	C 	0.65199	0.53115	0.88885	0.043
Mof_H 	H 	0.6418	0.5315	0.8995	0.013
Mof_C 	C 	0.66996	0.55983	0.90793	0.142
Mof_C 	C 	0.65497	0.5757	0.93522	0.136
Mof_C 	C 	0.68747	0.58463	0.92526	0.139
Mof_C 	C 	0.63717	0.59659	0.96236	0.048
Mof_H 	H 	0.649	0.6054	0.9626	0.009
Mof_C 	C 	0.63702	0.57962	0.94823	-0.058
Mof_C 	C 	0.61914	0.56788	0.94724	0.018
Mof_H 	H 	0.6181	0.5567	0.9377	0.035
Mof_C 	C 	0.60276	0.57249	0.96019	-0.11
Mof_H 	H 	0.5902	0.5648	0.9596	0.071
Mof_C 	C 	0.60507	0.58862	0.97413	0.069
Mof_H 	H 	0.594	0.5912	0.9836	-0.002
Mof_C 	C 	0.67448	0.6219	0.0011	0.108
Mof_C 	C 	0.6122	0.66748	0.01753	0.052
Mof_H 	H 	0.6021	0.6665	0.0068	0.003
Mof_C 	C 	0.61274	0.68479	0.02894	-0.096
Mof_H 	H 	0.6028	0.6955	0.0267	0.066
Mof_C 	C 	0.62821	0.68705	0.04439	0.005
Mof_H 	H 	0.6293	0.6994	0.0524	0.039
Mof_C 	C 	0.64173	0.67042	0.04744	-0.053
Mof_C 	C 	0.63995	0.65304	0.03479	0.046
Mof_H 	H 	0.6497	0.6421	0.0366	0.011
Mof_C 	C 	0.65793	0.67139	0.06323	0.133
Mof_N 	N 	0.73439	0.6149	0.90997	-0.224
Mof_N 	N 	0.63675	0.47691	0.85465	-0.26
Mof_N 	N 	0.64932	0.51757	0.87328	-0.229
Mof_N 	N 	0.68691	0.57092	0.90943	-0.155
Mof_N 	N 	0.65342	0.56142	0.92023	-0.153
Mof_N 	N 	0.67226	0.58754	0.93849	-0.152
Mof_N 	N 	0.62173	0.60074	0.97512	-0.234
Mof_N 	N 	0.62548	0.65084	0.02033	-0.226
Mof_N 	N 	0.65703	0.62293	0.99898	-0.267
Mof_N 	N 	0.67249	0.65657	0.06313	-0.15
Mof_S 	S 	0.66565	0.45983	0.82743	-0.063
Mof_S 	S 	0.70025	0.62079	0.00359	-0.061
Mof_C 	C 	0.14834	0.4101	0.53178	0.037
Mof_H 	H 	0.1557	0.3976	0.5349	0.013
Mof_C 	C 	0.15189	0.42727	0.54417	-0.052
Mof_C 	C 	0.14183	0.44563	0.53951	0.01
Mof_H 	H 	0.1434	0.4576	0.5481	0.037
Mof_C 	C 	0.12938	0.44617	0.52202	-0.1
Mof_H 	H 	0.1233	0.4589	0.5176	0.066
Mof_C 	C 	0.12578	0.42829	0.51099	0.058
Mof_H 	H 	0.1163	0.4288	0.4996	0.001
Mof_C 	C 	0.281	0.34342	0.60151	0.098
Mof_C 	C 	0.23327	0.35933	0.58516	0.065
Mof_H 	H 	0.2436	0.3488	0.586	-0.003
Mof_C 	C 	0.22041	0.35923	0.5683	-0.107
Mof_H 	H 	0.2213	0.3485	0.5582	0.068
Mof_C 	C 	0.20611	0.37505	0.56624	0.014
Mof_H 	H 	0.1969	0.3755	0.5547	0.035
Mof_C 	C 	0.20546	0.39046	0.58154	-0.055
Mof_C 	C 	0.21885	0.38885	0.59801	0.043
Mof_H 	H 	0.2185	0.3995	0.6082	0.013
Mof_C 	C 	0.19017	0.40793	0.58004	0.142
Mof_C 	C 	0.1743	0.43522	0.59503	0.136
Mof_C 	C 	0.16537	0.42526	0.56253	0.139
Mof_C 	C 	0.15341	0.46236	0.61283	0.048
Mof_H 	H 	0.1446	0.4626	0.601	0.009
Mof_C 	C 	0.17038	0.44823	0.61298	-0.058
Mof_C 	C 	0.18212	0.44724	0.63086	0.018
Mof_H 	H 	0.1933	0.4377	0.6319	0.035
Mof_C 	C 	0.17751	0.46019	0.64724	-0.11
Mof_H 	H 	0.1852	0.4596	0.6598	0.071
Mof_C 	C 	0.16138	0.47413	0.64493	0.069
Mof_H 	H 	0.1588	0.4836	0.656	-0.002
Mof_C 	C 	0.1281	0.5011	0.57552	0.108
Mof_C 	C 	0.08252	0.51753	0.6378	0.052
Mof_H 	H 	0.0835	0.5068	0.6479	0.003
Mof_C 	C 	0.06521	0.52894	0.63726	-0.096
Mof_H 	H 	0.0545	0.5267	0.6472	0.066
Mof_C 	C 	0.06295	0.54439	0.62179	0.005
Mof_H 	H 	0.0506	0.5524	0.6207	0.039
Mof_C 	C 	0.07958	0.54744	0.60827	-0.053
Mof_C 	C 	0.09696	0.53479	0.61005	0.046
Mof_H 	H 	0.1079	0.5366	0.6003	0.011
Mof_C 	C 	0.07861	0.56323	0.59207	0.133
Mof_N 	N 	0.1351	0.40997	0.51561	-0.224
Mof_N 	N 	0.27309	0.35465	0.61325	-0.26
Mof_N 	N 	0.23243	0.37328	0.60068	-0.229
Mof_N 	N 	0.17908	0.40943	0.56309	-0.155
Mof_N 	N 	0.18858	0.42023	0.59658	-0.153
Mof_N 	N 	0.16246	0.43849	0.57774	-0.152
Mof_N 	N 	0.14926	0.47512	0.62827	-0.234
Mof_N 	N 	0.09916	0.52033	0.62452	-0.226
Mof_N 	N 	0.12707	0.49898	0.59297	-0.267
Mof_N 	N 	0.09343	0.56313	0.57751	-0.15
Mof_S 	S 	0.29017	0.32743	0.58435	-0.063
Mof_S 	S 	0.12921	0.50359	0.54975	-0.061
Mof_C 	C 	0.14834	0.9101	0.03178	0.037
Mof_H 	H 	0.1557	0.8976	0.0349	0.013
Mof_C 	C 	0.15189	0.92727	0.04417	-0.052
Mof_C 	C 	0.14183	0.94563	0.03951	0.01
Mof_H 	H 	0.1434	0.9576	0.0481	0.037
Mof_C 	C 	0.12938	0.94617	0.02202	-0.1
Mof_H 	H 	0.1233	0.9589	0.0176	0.066
Mof_C 	C 	0.12578	0.92829	0.01099	0.058
Mof_H 	H 	0.1163	0.9288	0.9996	0.001
Mof_C 	C 	0.281	0.84342	0.10151	0.098
Mof_C 	C 	0.23327	0.85933	0.08516	0.065
Mof_H 	H 	0.2436	0.8488	0.086	-0.003
Mof_C 	C 	0.22041	0.85923	0.0683	-0.107
Mof_H 	H 	0.2213	0.8485	0.0582	0.068
Mof_C 	C 	0.20611	0.87505	0.06624	0.014
Mof_H 	H 	0.1969	0.8755	0.0547	0.035
Mof_C 	C 	0.20546	0.89046	0.08154	-0.055
Mof_C 	C 	0.21885	0.88885	0.09801	0.043
Mof_H 	H 	0.2185	0.8995	0.1082	0.013
Mof_C 	C 	0.19017	0.90793	0.08004	0.142
Mof_C 	C 	0.1743	0.93522	0.09503	0.136
Mof_C 	C 	0.16537	0.92526	0.06253	0.139
Mof_C 	C 	0.15341	0.96236	0.11283	0.048
Mof_H 	H 	0.1446	0.9626	0.101	0.009
Mof_C 	C 	0.17038	0.94823	0.11298	-0.058
Mof_C 	C 	0.18212	0.94724	0.13086	0.018
Mof_H 	H 	0.1933	0.9377	0.1319	0.035
Mof_C 	C 	0.17751	0.96019	0.14724	-0.11
Mof_H 	H 	0.1852	0.9596	0.1598	0.071
Mof_C 	C 	0.16138	0.97413	0.14493	0.069
Mof_H 	H 	0.1588	0.9836	0.156	-0.002
Mof_C 	C 	0.1281	0.0011	0.07552	0.108
Mof_C 	C 	0.08252	0.01753	0.1378	0.052
Mof_H 	H 	0.0835	0.0068	0.1479	0.003
Mof_C 	C 	0.06521	0.02894	0.13726	-0.096
Mof_H 	H 	0.0545	0.0267	0.1472	0.066
Mof_C 	C 	0.06295	0.04439	0.12179	0.005
Mof_H 	H 	0.0506	0.0524	0.1207	0.039
Mof_C 	C 	0.07958	0.04744	0.10827	-0.053
Mof_C 	C 	0.09696	0.03479	0.11005	0.046
Mof_H 	H 	0.1079	0.0366	0.1003	0.011
Mof_C 	C 	0.07861	0.06323	0.09207	0.133
Mof_N 	N 	0.1351	0.90997	0.01561	-0.224
Mof_N 	N 	0.27309	0.85465	0.11325	-0.26
Mof_N 	N 	0.23243	0.87328	0.10068	-0.229
Mof_N 	N 	0.17908	0.90943	0.06309	-0.155
Mof_N 	N 	0.18858	0.92023	0.09658	-0.153
Mof_N 	N 	0.16246	0.93849	0.07774	-0.152
Mof_N 	N 	0.14926	0.97512	0.12827	-0.234
Mof_N 	N 	0.09916	0.02033	0.12452	-0.226
Mof_N 	N 	0.12707	0.99898	0.09297	-0.267
Mof_N 	N 	0.09343	0.06313	0.07751	-0.15
Mof_S 	S 	0.29017	0.82743	0.08435	-0.063
Mof_S 	S 	0.12921	0.00359	0.04975	-0.061
Mof_C 	C 	0.64834	0.4101	0.03178	0.037
Mof_H 	H 	0.6557	0.3976	0.0349	0.013
Mof_C 	C 	0.65189	0.42727	0.04417	-0.052
Mof_C 	C 	0.64183	0.44563	0.03951	0.01
Mof_H 	H 	0.6434	0.4576	0.0481	0.037
Mof_C 	C 	0.62938	0.44617	0.02202	-0.1
Mof_H 	H 	0.6233	0.4589	0.0176	0.066
Mof_C 	C 	0.62578	0.42829	0.01099	0.058
Mof_H 	H 	0.6163	0.4288	0.9996	0.001
Mof_C 	C 	0.781	0.34342	0.10151	0.098
Mof_C 	C 	0.73327	0.35933	0.08516	0.065
Mof_H 	H 	0.7436	0.3488	0.086	-0.003
Mof_C 	C 	0.72041	0.35923	0.0683	-0.107
Mof_H 	H 	0.7213	0.3485	0.0582	0.068
Mof_C 	C 	0.70611	0.37505	0.06624	0.014
Mof_H 	H 	0.6969	0.3755	0.0547	0.035
Mof_C 	C 	0.70546	0.39046	0.08154	-0.055
Mof_C 	C 	0.71885	0.38885	0.09801	0.043
Mof_H 	H 	0.7185	0.3995	0.1082	0.013
Mof_C 	C 	0.69017	0.40793	0.08004	0.142
Mof_C 	C 	0.6743	0.43522	0.09503	0.136
Mof_C 	C 	0.66537	0.42526	0.06253	0.139
Mof_C 	C 	0.65341	0.46236	0.11283	0.048
Mof_H 	H 	0.6446	0.4626	0.101	0.009
Mof_C 	C 	0.67038	0.44823	0.11298	-0.058
Mof_C 	C 	0.68212	0.44724	0.13086	0.018
Mof_H 	H 	0.6933	0.4377	0.1319	0.035
Mof_C 	C 	0.67751	0.46019	0.14724	-0.11
Mof_H 	H 	0.6852	0.4596	0.1598	0.071
Mof_C 	C 	0.66138	0.47413	0.14493	0.069
Mof_H 	H 	0.6588	0.4836	0.156	-0.002
Mof_C 	C 	0.6281	0.5011	0.07552	0.108
Mof_C 	C 	0.58252	0.51753	0.1378	0.052
Mof_H 	H 	0.5835	0.5068	0.1479	0.003
Mof_C 	C 	0.56521	0.52894	0.13726	-0.096
Mof_H 	H 	0.5545	0.5267	0.1472	0.066
Mof_C 	C 	0.56295	0.54439	0.12179	0.005
Mof_H 	H 	0.5506	0.5524	0.1207	0.039
Mof_C 	C 	0.57958	0.54744	0.10827	-0.053
Mof_C 	C 	0.59696	0.53479	0.11005	0.046
Mof_H 	H 	0.6079	0.5366	0.1003	0.011
Mof_C 	C 	0.57861	0.56323	0.09207	0.133
Mof_N 	N 	0.6351	0.40997	0.01561	-0.224
Mof_N 	N 	0.77309	0.35465	0.11325	-0.26
Mof_N 	N 	0.73243	0.37328	0.10068	-0.229
Mof_N 	N 	0.67908	0.40943	0.06309	-0.155
Mof_N 	N 	0.68858	0.42023	0.09658	-0.153
Mof_N 	N 	0.66246	0.43849	0.07774	-0.152
Mof_N 	N 	0.64926	0.47512	0.12827	-0.234
Mof_N 	N 	0.59916	0.52033	0.12452	-0.226
Mof_N 	N 	0.62707	0.49898	0.09297	-0.267
Mof_N 	N 	0.59343	0.56313	0.07751	-0.15
Mof_S 	S 	0.79017	0.32743	0.08435	-0.063
Mof_S 	S 	0.62921	0.50359	0.04975	-0.061
Mof_C 	C 	0.64834	0.9101	0.53178	0.037
Mof_H 	H 	0.6557	0.8976	0.5349	0.013
Mof_C 	C 	0.65189	0.92727	0.54417	-0.052
Mof_C 	C 	0.64183	0.94563	0.53951	0.01
Mof_H 	H 	0.6434	0.9576	0.5481	0.037
Mof_C 	C 	0.62938	0.94617	0.52202	-0.1
Mof_H 	H 	0.6233	0.9589	0.5176	0.066
Mof_C 	C 	0.62578	0.92829	0.51099	0.058
Mof_H 	H 	0.6163	0.9288	0.4996	0.001
Mof_C 	C 	0.781	0.84342	0.60151	0.098
Mof_C 	C 	0.73327	0.85933	0.58516	0.065
Mof_H 	H 	0.7436	0.8488	0.586	-0.003
Mof_C 	C 	0.72041	0.85923	0.5683	-0.107
Mof_H 	H 	0.7213	0.8485	0.5582	0.068
Mof_C 	C 	0.70611	0.87505	0.56624	0.014
Mof_H 	H 	0.6969	0.8755	0.5547	0.035
Mof_C 	C 	0.70546	0.89046	0.58154	-0.055
Mof_C 	C 	0.71885	0.88885	0.59801	0.043
Mof_H 	H 	0.7185	0.8995	0.6082	0.013
Mof_C 	C 	0.69017	0.90793	0.58004	0.142
Mof_C 	C 	0.6743	0.93522	0.59503	0.136
Mof_C 	C 	0.66537	0.92526	0.56253	0.139
Mof_C 	C 	0.65341	0.96236	0.61283	0.048
Mof_H 	H 	0.6446	0.9626	0.601	0.009
Mof_C 	C 	0.67038	0.94823	0.61298	-0.058
Mof_C 	C 	0.68212	0.94724	0.63086	0.018
Mof_H 	H 	0.6933	0.9377	0.6319	0.035
Mof_C 	C 	0.67751	0.96019	0.64724	-0.11
Mof_H 	H 	0.6852	0.9596	0.6598	0.071
Mof_C 	C 	0.66138	0.97413	0.64493	0.069
Mof_H 	H 	0.6588	0.9836	0.656	-0.002
Mof_C 	C 	0.6281	0.0011	0.57552	0.108
Mof_C 	C 	0.58252	0.01753	0.6378	0.052
Mof_H 	H 	0.5835	0.0068	0.6479	0.003
Mof_C 	C 	0.56521	0.02894	0.63726	-0.096
Mof_H 	H 	0.5545	0.0267	0.6472	0.066
Mof_C 	C 	0.56295	0.04439	0.62179	0.005
Mof_H 	H 	0.5506	0.0524	0.6207	0.039
Mof_C 	C 	0.57958	0.04744	0.60827	-0.053
Mof_C 	C 	0.59696	0.03479	0.61005	0.046
Mof_H 	H 	0.6079	0.0366	0.6003	0.011
Mof_C 	C 	0.57861	0.06323	0.59207	0.133
Mof_N 	N 	0.6351	0.90997	0.51561	-0.224
Mof_N 	N 	0.77309	0.85465	0.61325	-0.26
Mof_N 	N 	0.73243	0.87328	0.60068	-0.229
Mof_N 	N 	0.67908	0.90943	0.56309	-0.155
Mof_N 	N 	0.68858	0.92023	0.59658	-0.153
Mof_N 	N 	0.66246	0.93849	0.57774	-0.152
Mof_N 	N 	0.64926	0.97512	0.62827	-0.234
Mof_N 	N 	0.59916	0.02033	0.62452	-0.226
Mof_N 	N 	0.62707	0.99898	0.59297	-0.267
Mof_N 	N 	0.59343	0.06313	0.57751	-0.15
Mof_S 	S 	0.79017	0.82743	0.58435	-0.063
Mof_S 	S 	0.62921	0.00359	0.54975	-0.061
Mof_C 	C 	0.64834	0.3399	0.71822	0.037
Mof_H 	H 	0.6557	0.3524	0.7151	0.013
Mof_C 	C 	0.65189	0.32273	0.70583	-0.052
Mof_C 	C 	0.64183	0.30437	0.71049	0.01
Mof_H 	H 	0.6434	0.2924	0.7019	0.037
Mof_C 	C 	0.62938	0.30383	0.72798	-0.1
Mof_H 	H 	0.6233	0.2911	0.7324	0.066
Mof_C 	C 	0.62578	0.32171	0.73901	0.058
Mof_H 	H 	0.6163	0.3212	0.7504	0.001
Mof_C 	C 	0.781	0.40658	0.64849	0.098
Mof_C 	C 	0.73327	0.39067	0.66484	0.065
Mof_H 	H 	0.7436	0.4012	0.664	-0.003
Mof_C 	C 	0.72041	0.39077	0.6817	-0.107
Mof_H 	H 	0.7213	0.4015	0.6918	0.068
Mof_C 	C 	0.70611	0.37495	0.68376	0.014
Mof_H 	H 	0.6969	0.3745	0.6953	0.035
Mof_C 	C 	0.70546	0.35954	0.66846	-0.055
Mof_C 	C 	0.71885	0.36115	0.65199	0.043
Mof_H 	H 	0.7185	0.3505	0.6418	0.013
Mof_C 	C 	0.69017	0.34207	0.66996	0.142
Mof_C 	C 	0.6743	0.31478	0.65497	0.136
Mof_C 	C 	0.66537	0.32474	0.68747	0.139
Mof_C 	C 	0.65341	0.28764	0.63717	0.048
Mof_H 	H 	0.6446	0.2874	0.649	0.009
Mof_C 	C 	0.67038	0.30177	0.63702	-0.058
Mof_C 	C 	0.68212	0.30276	0.61914	0.018
Mof_H 	H 	0.6933	0.3123	0.6181	0.035
Mof_C 	C 	0.67751	0.28981	0.60276	-0.11
Mof_H 	H 	0.6852	0.2904	0.5902	0.071
Mof_C 	C 	0.66138	0.27587	0.60507	0.069
Mof_H 	H 	0.6588	0.2664	0.594	-0.002
Mof_C 	C 	0.6281	0.2489	0.67448	0.108
Mof_C 	C 	0.58252	0.23247	0.6122	0.052
Mof_H 	H 	0.5835	0.2432	0.6021	0.003
Mof_C 	C 	0.56521	0.22106	0.61274	-0.096
Mof_H 	H 	0.5545	0.2233	0.6028	0.066
Mof_C 	C 	0.56295	0.20561	0.62821	0.005
Mof_H 	H 	0.5506	0.1976	0.6293	0.039
Mof_C 	C 	0.57958	0.20256	0.64173	-0.053
Mof_C 	C 	0.59696	0.21521	0.63995	0.046
Mof_H 	H 	0.6079	0.2134	0.6497	0.011
Mof_C 	C 	0.57861	0.18677	0.65793	0.133
Mof_N 	N 	0.6351	0.34003	0.73439	-0.224
Mof_N 	N 	0.77309	0.39535	0.63675	-0.26
Mof_N 	N 	0.73243	0.37672	0.64932	-0.229
Mof_N 	N 	0.67908	0.34057	0.68691	-0.155
Mof_N 	N 	0.68858	0.32977	0.65342	-0.153
Mof_N 	N 	0.66246	0.31151	0.67226	-0.152
Mof_N 	N 	0.64926	0.27488	0.62173	-0.234
Mof_N 	N 	0.59916	0.22967	0.62548	-0.226
Mof_N 	N 	0.62707	0.25102	0.65703	-0.267
Mof_N 	N 	0.59343	0.18687	0.67249	-0.15
Mof_S 	S 	0.79017	0.42257	0.66565	-0.063
Mof_S 	S 	0.62921	0.24641	0.70025	-0.061
Mof_C 	C 	0.64834	0.8399	0.21822	0.037
Mof_H 	H 	0.6557	0.8524	0.2151	0.013
Mof_C 	C 	0.65189	0.82273	0.20583	-0.052
Mof_C 	C 	0.64183	0.80437	0.21049	0.01
Mof_H 	H 	0.6434	0.7924	0.2019	0.037
Mof_C 	C 	0.62938	0.80383	0.22798	-0.1
Mof_H 	H 	0.6233	0.7911	0.2324	0.066
Mof_C 	C 	0.62578	0.82171	0.23901	0.058
Mof_H 	H 	0.6163	0.8212	0.2504	0.001
Mof_C 	C 	0.781	0.90658	0.14849	0.098
Mof_C 	C 	0.73327	0.89067	0.16484	0.065
Mof_H 	H 	0.7436	0.9012	0.164	-0.003
Mof_C 	C 	0.72041	0.89077	0.1817	-0.107
Mof_H 	H 	0.7213	0.9015	0.1918	0.068
Mof_C 	C 	0.70611	0.87495	0.18376	0.014
Mof_H 	H 	0.6969	0.8745	0.1953	0.035
Mof_C 	C 	0.70546	0.85954	0.16846	-0.055
Mof_C 	C 	0.71885	0.86115	0.15199	0.043
Mof_H 	H 	0.7185	0.8505	0.1418	0.013
Mof_C 	C 	0.69017	0.84207	0.16996	0.142
Mof_C 	C 	0.6743	0.81478	0.15497	0.136
Mof_C 	C 	0.66537	0.82474	0.18747	0.139
Mof_C 	C 	0.65341	0.78764	0.13717	0.048
Mof_H 	H 	0.6446	0.7874	0.149	0.009
Mof_C 	C 	0.67038	0.80177	0.13702	-0.058
Mof_C 	C 	0.68212	0.80276	0.11914	0.018
Mof_H 	H 	0.6933	0.8123	0.1181	0.035
Mof_C 	C 	0.67751	0.78981	0.10276	-0.11
Mof_H 	H 	0.6852	0.7904	0.0902	0.071
Mof_C 	C 	0.66138	0.77587	0.10507	0.069
Mof_H 	H 	0.6588	0.7664	0.094	-0.002
Mof_C 	C 	0.6281	0.7489	0.17448	0.108
Mof_C 	C 	0.58252	0.73247	0.1122	0.052
Mof_H 	H 	0.5835	0.7432	0.1021	0.003
Mof_C 	C 	0.56521	0.72106	0.11274	-0.096
Mof_H 	H 	0.5545	0.7233	0.1028	0.066
Mof_C 	C 	0.56295	0.70561	0.12821	0.005
Mof_H 	H 	0.5506	0.6976	0.1293	0.039
Mof_C 	C 	0.57958	0.70256	0.14173	-0.053
Mof_C 	C 	0.59696	0.71521	0.13995	0.046
Mof_H 	H 	0.6079	0.7134	0.1497	0.011
Mof_C 	C 	0.57861	0.68677	0.15793	0.133
Mof_N 	N 	0.6351	0.84003	0.23439	-0.224
Mof_N 	N 	0.77309	0.89535	0.13675	-0.26
Mof_N 	N 	0.73243	0.87672	0.14932	-0.229
Mof_N 	N 	0.67908	0.84057	0.18691	-0.155
Mof_N 	N 	0.68858	0.82977	0.15342	-0.153
Mof_N 	N 	0.66246	0.81151	0.17226	-0.152
Mof_N 	N 	0.64926	0.77488	0.12173	-0.234
Mof_N 	N 	0.59916	0.72967	0.12548	-0.226
Mof_N 	N 	0.62707	0.75102	0.15703	-0.267
Mof_N 	N 	0.59343	0.68687	0.17249	-0.15
Mof_S 	S 	0.79017	0.92257	0.16565	-0.063
Mof_S 	S 	0.62921	0.74641	0.20025	-0.061
Mof_C 	C 	0.14834	0.3399	0.21822	0.037
Mof_H 	H 	0.1557	0.3524	0.2151	0.013
Mof_C 	C 	0.15189	0.32273	0.20583	-0.052
Mof_C 	C 	0.14183	0.30437	0.21049	0.01
Mof_H 	H 	0.1434	0.2924	0.2019	0.037
Mof_C 	C 	0.12938	0.30383	0.22798	-0.1
Mof_H 	H 	0.1233	0.2911	0.2324	0.066
Mof_C 	C 	0.12578	0.32171	0.23901	0.058
Mof_H 	H 	0.1163	0.3212	0.2504	0.001
Mof_C 	C 	0.281	0.40658	0.14849	0.098
Mof_C 	C 	0.23327	0.39067	0.16484	0.065
Mof_H 	H 	0.2436	0.4012	0.164	-0.003
Mof_C 	C 	0.22041	0.39077	0.1817	-0.107
Mof_H 	H 	0.2213	0.4015	0.1918	0.068
Mof_C 	C 	0.20611	0.37495	0.18376	0.014
Mof_H 	H 	0.1969	0.3745	0.1953	0.035
Mof_C 	C 	0.20546	0.35954	0.16846	-0.055
Mof_C 	C 	0.21885	0.36115	0.15199	0.043
Mof_H 	H 	0.2185	0.3505	0.1418	0.013
Mof_C 	C 	0.19017	0.34207	0.16996	0.142
Mof_C 	C 	0.1743	0.31478	0.15497	0.136
Mof_C 	C 	0.16537	0.32474	0.18747	0.139
Mof_C 	C 	0.15341	0.28764	0.13717	0.048
Mof_H 	H 	0.1446	0.2874	0.149	0.009
Mof_C 	C 	0.17038	0.30177	0.13702	-0.058
Mof_C 	C 	0.18212	0.30276	0.11914	0.018
Mof_H 	H 	0.1933	0.3123	0.1181	0.035
Mof_C 	C 	0.17751	0.28981	0.10276	-0.11
Mof_H 	H 	0.1852	0.2904	0.0902	0.071
Mof_C 	C 	0.16138	0.27587	0.10507	0.069
Mof_H 	H 	0.1588	0.2664	0.094	-0.002
Mof_C 	C 	0.1281	0.2489	0.17448	0.108
Mof_C 	C 	0.08252	0.23247	0.1122	0.052
Mof_H 	H 	0.0835	0.2432	0.1021	0.003
Mof_C 	C 	0.06521	0.22106	0.11274	-0.096
Mof_H 	H 	0.0545	0.2233	0.1028	0.066
Mof_C 	C 	0.06295	0.20561	0.12821	0.005
Mof_H 	H 	0.0506	0.1976	0.1293	0.039
Mof_C 	C 	0.07958	0.20256	0.14173	-0.053
Mof_C 	C 	0.09696	0.21521	0.13995	0.046
Mof_H 	H 	0.1079	0.2134	0.1497	0.011
Mof_C 	C 	0.07861	0.18677	0.15793	0.133
Mof_N 	N 	0.1351	0.34003	0.23439	-0.224
Mof_N 	N 	0.27309	0.39535	0.13675	-0.26
Mof_N 	N 	0.23243	0.37672	0.14932	-0.229
Mof_N 	N 	0.17908	0.34057	0.18691	-0.155
Mof_N 	N 	0.18858	0.32977	0.15342	-0.153
Mof_N 	N 	0.16246	0.31151	0.17226	-0.152
Mof_N 	N 	0.14926	0.27488	0.12173	-0.234
Mof_N 	N 	0.09916	0.22967	0.12548	-0.226
Mof_N 	N 	0.12707	0.25102	0.15703	-0.267
Mof_N 	N 	0.09343	0.18687	0.17249	-0.15
Mof_S 	S 	0.29017	0.42257	0.16565	-0.063
Mof_S 	S 	0.12921	0.24641	0.20025	-0.061
Mof_C 	C 	0.14834	0.8399	0.71822	0.037
Mof_H 	H 	0.1557	0.8524	0.7151	0.013
Mof_C 	C 	0.15189	0.82273	0.70583	-0.052
Mof_C 	C 	0.14183	0.80437	0.71049	0.01
Mof_H 	H 	0.1434	0.7924	0.7019	0.037
Mof_C 	C 	0.12938	0.80383	0.72798	-0.1
Mof_H 	H 	0.1233	0.7911	0.7324	0.066
Mof_C 	C 	0.12578	0.82171	0.73901	0.058
Mof_H 	H 	0.1163	0.8212	0.7504	0.001
Mof_C 	C 	0.281	0.90658	0.64849	0.098
Mof_C 	C 	0.23327	0.89067	0.66484	0.065
Mof_H 	H 	0.2436	0.9012	0.664	-0.003
Mof_C 	C 	0.22041	0.89077	0.6817	-0.107
Mof_H 	H 	0.2213	0.9015	0.6918	0.068
Mof_C 	C 	0.20611	0.87495	0.68376	0.014
Mof_H 	H 	0.1969	0.8745	0.6953	0.035
Mof_C 	C 	0.20546	0.85954	0.66846	-0.055
Mof_C 	C 	0.21885	0.86115	0.65199	0.043
Mof_H 	H 	0.2185	0.8505	0.6418	0.013
Mof_C 	C 	0.19017	0.84207	0.66996	0.142
Mof_C 	C 	0.1743	0.81478	0.65497	0.136
Mof_C 	C 	0.16537	0.82474	0.68747	0.139
Mof_C 	C 	0.15341	0.78764	0.63717	0.048
Mof_H 	H 	0.1446	0.7874	0.649	0.009
Mof_C 	C 	0.17038	0.80177	0.63702	-0.058
Mof_C 	C 	0.18212	0.80276	0.61914	0.018
Mof_H 	H 	0.1933	0.8123	0.6181	0.035
Mof_C 	C 	0.17751	0.78981	0.60276	-0.11
Mof_H 	H 	0.1852	0.7904	0.5902	0.071
Mof_C 	C 	0.16138	0.77587	0.60507	0.069
Mof_H 	H 	0.1588	0.7664	0.594	-0.002
Mof_C 	C 	0.1281	0.7489	0.67448	0.108
Mof_C 	C 	0.08252	0.73247	0.6122	0.052
Mof_H 	H 	0.0835	0.7432	0.6021	0.003
Mof_C 	C 	0.06521	0.72106	0.61274	-0.096
Mof_H 	H 	0.0545	0.7233	0.6028	0.066
Mof_C 	C 	0.06295	0.70561	0.62821	0.005
Mof_H 	H 	0.0506	0.6976	0.6293	0.039
Mof_C 	C 	0.07958	0.70256	0.64173	-0.053
Mof_C 	C 	0.09696	0.71521	0.63995	0.046
Mof_H 	H 	0.1079	0.7134	0.6497	0.011
Mof_C 	C 	0.07861	0.68677	0.65793	0.133
Mof_N 	N 	0.1351	0.84003	0.73439	-0.224
Mof_N 	N 	0.27309	0.89535	0.63675	-0.26
Mof_N 	N 	0.23243	0.87672	0.64932	-0.229
Mof_N 	N 	0.17908	0.84057	0.68691	-0.155
Mof_N 	N 	0.18858	0.82977	0.65342	-0.153
Mof_N 	N 	0.16246	0.81151	0.67226	-0.152
Mof_N 	N 	0.14926	0.77488	0.62173	-0.234
Mof_N 	N 	0.09916	0.72967	0.62548	-0.226
Mof_N 	N 	0.12707	0.75102	0.65703	-0.267
Mof_N 	N 	0.09343	0.68687	0.67249	-0.15
Mof_S 	S 	0.29017	0.92257	0.66565	-0.063
Mof_S 	S 	0.12921	0.74641	0.70025	-0.061
Mof_C 	C 	0.10166	0.9101	0.21822	0.037
Mof_H 	H 	0.0943	0.8976	0.2151	0.013
Mof_C 	C 	0.09811	0.92727	0.20583	-0.052
Mof_C 	C 	0.10817	0.94563	0.21049	0.01
Mof_H 	H 	0.1066	0.9576	0.2019	0.037
Mof_C 	C 	0.12062	0.94617	0.22798	-0.1
Mof_H 	H 	0.1267	0.9589	0.2324	0.066
Mof_C 	C 	0.12422	0.92829	0.23901	0.058
Mof_H 	H 	0.1337	0.9288	0.2504	0.001
Mof_C 	C 	0.969	0.84342	0.14849	0.098
Mof_C 	C 	0.01673	0.85933	0.16484	0.065
Mof_H 	H 	0.0064	0.8488	0.164	-0.003
Mof_C 	C 	0.02959	0.85923	0.1817	-0.107
Mof_H 	H 	0.0287	0.8485	0.1918	0.068
Mof_C 	C 	0.04389	0.87505	0.18376	0.014
Mof_H 	H 	0.0531	0.8755	0.1953	0.035
Mof_C 	C 	0.04454	0.89046	0.16846	-0.055
Mof_C 	C 	0.03115	0.88885	0.15199	0.043
Mof_H 	H 	0.0315	0.8995	0.1418	0.013
Mof_C 	C 	0.05983	0.90793	0.16996	0.142
Mof_C 	C 	0.0757	0.93522	0.15497	0.136
Mof_C 	C 	0.08463	0.92526	0.18747	0.139
Mof_C 	C 	0.09659	0.96236	0.13717	0.048
Mof_H 	H 	0.1054	0.9626	0.149	0.009
Mof_C 	C 	0.07962	0.94823	0.13702	-0.058
Mof_C 	C 	0.06788	0.94724	0.11914	0.018
Mof_H 	H 	0.0567	0.9377	0.1181	0.035
Mof_C 	C 	0.07249	0.96019	0.10276	-0.11
Mof_H 	H 	0.0648	0.9596	0.0902	0.071
Mof_C 	C 	0.08862	0.97413	0.10507	0.069
Mof_H 	H 	0.0912	0.9836	0.094	-0.002
Mof_C 	C 	0.1219	0.0011	0.17448	0.108
Mof_C 	C 	0.16748	0.01753	0.1122	0.052
Mof_H 	H 	0.1665	0.0068	0.1021	0.003
Mof_C 	C 	0.18479	0.02894	0.11274	-0.096
Mof_H 	H 	0.1955	0.0267	0.1028	0.066
Mof_C 	C 	0.18705	0.04439	0.12821	0.005
Mof_H 	H 	0.1994	0.0524	0.1293	0.039
Mof_C 	C 	0.17042	0.04744	0.14173	-0.053
Mof_C 	C 	0.15304	0.03479	0.13995	0.046
Mof_H 	H 	0.1421	0.0366	0.1497	0.011
Mof_C 	C 	0.17139	0.06323	0.15793	0.133
Mof_N 	N 	0.1149	0.90997	0.23439	-0.224
Mof_N 	N 	0.97691	0.85465	0.13675	-0.26
Mof_N 	N 	0.01757	0.87328	0.14932	-0.229
Mof_N 	N 	0.07092	0.90943	0.18691	-0.155
Mof_N 	N 	0.06142	0.92023	0.15342	-0.153
Mof_N 	N 	0.08754	0.93849	0.17226	-0.152
Mof_N 	N 	0.10074	0.97512	0.12173	-0.234
Mof_N 	N 	0.15084	0.02033	0.12548	-0.226
Mof_N 	N 	0.12293	0.99898	0.15703	-0.267
Mof_N 	N 	0.15657	0.06313	0.17249	-0.15
Mof_S 	S 	0.95983	0.82743	0.16565	-0.063
Mof_S 	S 	0.12079	0.00359	0.20025	-0.061
Mof_C 	C 	0.10166	0.4101	0.71822	0.037
Mof_H 	H 	0.0943	0.3976	0.7151	0.013
Mof_C 	C 	0.09811	0.42727	0.70583	-0.052
Mof_C 	C 	0.10817	0.44563	0.71049	0.01
Mof_H 	H 	0.1066	0.4576	0.7019	0.037
Mof_C 	C 	0.12062	0.44617	0.72798	-0.1
Mof_H 	H 	0.1267	0.4589	0.7324	0.066
Mof_C 	C 	0.12422	0.42829	0.73901	0.058
Mof_H 	H 	0.1337	0.4288	0.7504	0.001
Mof_C 	C 	0.969	0.34342	0.64849	0.098
Mof_C 	C 	0.01673	0.35933	0.66484	0.065
Mof_H 	H 	0.0064	0.3488	0.664	-0.003
Mof_C 	C 	0.02959	0.35923	0.6817	-0.107
Mof_H 	H 	0.0287	0.3485	0.6918	0.068
Mof_C 	C 	0.04389	0.37505	0.68376	0.014
Mof_H 	H 	0.0531	0.3755	0.6953	0.035
Mof_C 	C 	0.04454	0.39046	0.66846	-0.055
Mof_C 	C 	0.03115	0.38885	0.65199	0.043
Mof_H 	H 	0.0315	0.3995	0.6418	0.013
Mof_C 	C 	0.05983	0.40793	0.66996	0.142
Mof_C 	C 	0.0757	0.43522	0.65497	0.136
Mof_C 	C 	0.08463	0.42526	0.68747	0.139
Mof_C 	C 	0.09659	0.46236	0.63717	0.048
Mof_H 	H 	0.1054	0.4626	0.649	0.009
Mof_C 	C 	0.07962	0.44823	0.63702	-0.058
Mof_C 	C 	0.06788	0.44724	0.61914	0.018
Mof_H 	H 	0.0567	0.4377	0.6181	0.035
Mof_C 	C 	0.07249	0.46019	0.60276	-0.11
Mof_H 	H 	0.0648	0.4596	0.5902	0.071
Mof_C 	C 	0.08862	0.47413	0.60507	0.069
Mof_H 	H 	0.0912	0.4836	0.594	-0.002
Mof_C 	C 	0.1219	0.5011	0.67448	0.108
Mof_C 	C 	0.16748	0.51753	0.6122	0.052
Mof_H 	H 	0.1665	0.5068	0.6021	0.003
Mof_C 	C 	0.18479	0.52894	0.61274	-0.096
Mof_H 	H 	0.1955	0.5267	0.6028	0.066
Mof_C 	C 	0.18705	0.54439	0.62821	0.005
Mof_H 	H 	0.1994	0.5524	0.6293	0.039
Mof_C 	C 	0.17042	0.54744	0.64173	-0.053
Mof_C 	C 	0.15304	0.53479	0.63995	0.046
Mof_H 	H 	0.1421	0.5366	0.6497	0.011
Mof_C 	C 	0.17139	0.56323	0.65793	0.133
Mof_N 	N 	0.1149	0.40997	0.73439	-0.224
Mof_N 	N 	0.97691	0.35465	0.63675	-0.26
Mof_N 	N 	0.01757	0.37328	0.64932	-0.229
Mof_N 	N 	0.07092	0.40943	0.68691	-0.155
Mof_N 	N 	0.06142	0.42023	0.65342	-0.153
Mof_N 	N 	0.08754	0.43849	0.67226	-0.152
Mof_N 	N 	0.10074	0.47512	0.62173	-0.234
Mof_N 	N 	0.15084	0.52033	0.62548	-0.226
Mof_N 	N 	0.12293	0.49898	0.65703	-0.267
Mof_N 	N 	0.15657	0.56313	0.67249	-0.15
Mof_S 	S 	0.95983	0.32743	0.66565	-0.063
Mof_S 	S 	0.12079	0.50359	0.70025	-0.061
Mof_C 	C 	0.60166	0.9101	0.71822	0.037
Mof_H 	H 	0.5943	0.8976	0.7151	0.013
Mof_C 	C 	0.59811	0.92727	0.70583	-0.052
Mof_C 	C 	0.60817	0.94563	0.71049	0.01
Mof_H 	H 	0.6066	0.9576	0.7019	0.037
Mof_C 	C 	0.62062	0.94617	0.72798	-0.1
Mof_H 	H 	0.6267	0.9589	0.7324	0.066
Mof_C 	C 	0.62422	0.92829	0.73901	0.058
Mof_H 	H 	0.6337	0.9288	0.7504	0.001
Mof_C 	C 	0.469	0.84342	0.64849	0.098
Mof_C 	C 	0.51673	0.85933	0.66484	0.065
Mof_H 	H 	0.5064	0.8488	0.664	-0.003
Mof_C 	C 	0.52959	0.85923	0.6817	-0.107
Mof_H 	H 	0.5287	0.8485	0.6918	0.068
Mof_C 	C 	0.54389	0.87505	0.68376	0.014
Mof_H 	H 	0.5531	0.8755	0.6953	0.035
Mof_C 	C 	0.54454	0.89046	0.66846	-0.055
Mof_C 	C 	0.53115	0.88885	0.65199	0.043
Mof_H 	H 	0.5315	0.8995	0.6418	0.013
Mof_C 	C 	0.55983	0.90793	0.66996	0.142
Mof_C 	C 	0.5757	0.93522	0.65497	0.136
Mof_C 	C 	0.58463	0.92526	0.68747	0.139
Mof_C 	C 	0.59659	0.96236	0.63717	0.048
Mof_H 	H 	0.6054	0.9626	0.649	0.009
Mof_C 	C 	0.57962	0.94823	0.63702	-0.058
Mof_C 	C 	0.56788	0.94724	0.61914	0.018
Mof_H 	H 	0.5567	0.9377	0.6181	0.035
Mof_C 	C 	0.57249	0.96019	0.60276	-0.11
Mof_H 	H 	0.5648	0.9596	0.5902	0.071
Mof_C 	C 	0.58862	0.97413	0.60507	0.069
Mof_H 	H 	0.5912	0.9836	0.594	-0.002
Mof_C 	C 	0.6219	0.0011	0.67448	0.108
Mof_C 	C 	0.66748	0.01753	0.6122	0.052
Mof_H 	H 	0.6665	0.0068	0.6021	0.003
Mof_C 	C 	0.68479	0.02894	0.61274	-0.096
Mof_H 	H 	0.6955	0.0267	0.6028	0.066
Mof_C 	C 	0.68705	0.04439	0.62821	0.005
Mof_H 	H 	0.6994	0.0524	0.6293	0.039
Mof_C 	C 	0.67042	0.04744	0.64173	-0.053
Mof_C 	C 	0.65304	0.03479	0.63995	0.046
Mof_H 	H 	0.6421	0.0366	0.6497	0.011
Mof_C 	C 	0.67139	0.06323	0.65793	0.133
Mof_N 	N 	0.6149	0.90997	0.73439	-0.224
Mof_N 	N 	0.47691	0.85465	0.63675	-0.26
Mof_N 	N 	0.51757	0.87328	0.64932	-0.229
Mof_N 	N 	0.57092	0.90943	0.68691	-0.155
Mof_N 	N 	0.56142	0.92023	0.65342	-0.153
Mof_N 	N 	0.58754	0.93849	0.67226	-0.152
Mof_N 	N 	0.60074	0.97512	0.62173	-0.234
Mof_N 	N 	0.65084	0.02033	0.62548	-0.226
Mof_N 	N 	0.62293	0.99898	0.65703	-0.267
Mof_N 	N 	0.65657	0.06313	0.67249	-0.15
Mof_S 	S 	0.45983	0.82743	0.66565	-0.063
Mof_S 	S 	0.62079	0.00359	0.70025	-0.061
Mof_C 	C 	0.60166	0.4101	0.21822	0.037
Mof_H 	H 	0.5943	0.3976	0.2151	0.013
Mof_C 	C 	0.59811	0.42727	0.20583	-0.052
Mof_C 	C 	0.60817	0.44563	0.21049	0.01
Mof_H 	H 	0.6066	0.4576	0.2019	0.037
Mof_C 	C 	0.62062	0.44617	0.22798	-0.1
Mof_H 	H 	0.6267	0.4589	0.2324	0.066
Mof_C 	C 	0.62422	0.42829	0.23901	0.058
Mof_H 	H 	0.6337	0.4288	0.2504	0.001
Mof_C 	C 	0.469	0.34342	0.14849	0.098
Mof_C 	C 	0.51673	0.35933	0.16484	0.065
Mof_H 	H 	0.5064	0.3488	0.164	-0.003
Mof_C 	C 	0.52959	0.35923	0.1817	-0.107
Mof_H 	H 	0.5287	0.3485	0.1918	0.068
Mof_C 	C 	0.54389	0.37505	0.18376	0.014
Mof_H 	H 	0.5531	0.3755	0.1953	0.035
Mof_C 	C 	0.54454	0.39046	0.16846	-0.055
Mof_C 	C 	0.53115	0.38885	0.15199	0.043
Mof_H 	H 	0.5315	0.3995	0.1418	0.013
Mof_C 	C 	0.55983	0.40793	0.16996	0.142
Mof_C 	C 	0.5757	0.43522	0.15497	0.136
Mof_C 	C 	0.58463	0.42526	0.18747	0.139
Mof_C 	C 	0.59659	0.46236	0.13717	0.048
Mof_H 	H 	0.6054	0.4626	0.149	0.009
Mof_C 	C 	0.57962	0.44823	0.13702	-0.058
Mof_C 	C 	0.56788	0.44724	0.11914	0.018
Mof_H 	H 	0.5567	0.4377	0.1181	0.035
Mof_C 	C 	0.57249	0.46019	0.10276	-0.11
Mof_H 	H 	0.5648	0.4596	0.0902	0.071
Mof_C 	C 	0.58862	0.47413	0.10507	0.069
Mof_H 	H 	0.5912	0.4836	0.094	-0.002
Mof_C 	C 	0.6219	0.5011	0.17448	0.108
Mof_C 	C 	0.66748	0.51753	0.1122	0.052
Mof_H 	H 	0.6665	0.5068	0.1021	0.003
Mof_C 	C 	0.68479	0.52894	0.11274	-0.096
Mof_H 	H 	0.6955	0.5267	0.1028	0.066
Mof_C 	C 	0.68705	0.54439	0.12821	0.005
Mof_H 	H 	0.6994	0.5524	0.1293	0.039
Mof_C 	C 	0.67042	0.54744	0.14173	-0.053
Mof_C 	C 	0.65304	0.53479	0.13995	0.046
Mof_H 	H 	0.6421	0.5366	0.1497	0.011
Mof_C 	C 	0.67139	0.56323	0.15793	0.133
Mof_N 	N 	0.6149	0.40997	0.23439	-0.224
Mof_N 	N 	0.47691	0.35465	0.13675	-0.26
Mof_N 	N 	0.51757	0.37328	0.14932	-0.229
Mof_N 	N 	0.57092	0.40943	0.18691	-0.155
Mof_N 	N 	0.56142	0.42023	0.15342	-0.153
Mof_N 	N 	0.58754	0.43849	0.17226	-0.152
Mof_N 	N 	0.60074	0.47512	0.12173	-0.234
Mof_N 	N 	0.65084	0.52033	0.12548	-0.226
Mof_N 	N 	0.62293	0.49898	0.15703	-0.267
Mof_N 	N 	0.65657	0.56313	0.17249	-0.15
Mof_S 	S 	0.45983	0.32743	0.16565	-0.063
Mof_S 	S 	0.62079	0.50359	0.20025	-0.061
Mof_C 	C 	0.60166	0.8399	0.03178	0.037
Mof_H 	H 	0.5943	0.8524	0.0349	0.013
Mof_C 	C 	0.59811	0.82273	0.04417	-0.052
Mof_C 	C 	0.60817	0.80437	0.03951	0.01
Mof_H 	H 	0.6066	0.7924	0.0481	0.037
Mof_C 	C 	0.62062	0.80383	0.02202	-0.1
Mof_H 	H 	0.6267	0.7911	0.0176	0.066
Mof_C 	C 	0.62422	0.82171	0.01099	0.058
Mof_H 	H 	0.6337	0.8212	0.9996	0.001
Mof_C 	C 	0.469	0.90658	0.10151	0.098
Mof_C 	C 	0.51673	0.89067	0.08516	0.065
Mof_H 	H 	0.5064	0.9012	0.086	-0.003
Mof_C 	C 	0.52959	0.89077	0.0683	-0.107
Mof_H 	H 	0.5287	0.9015	0.0582	0.068
Mof_C 	C 	0.54389	0.87495	0.06624	0.014
Mof_H 	H 	0.5531	0.8745	0.0547	0.035
Mof_C 	C 	0.54454	0.85954	0.08154	-0.055
Mof_C 	C 	0.53115	0.86115	0.09801	0.043
Mof_H 	H 	0.5315	0.8505	0.1082	0.013
Mof_C 	C 	0.55983	0.84207	0.08004	0.142
Mof_C 	C 	0.5757	0.81478	0.09503	0.136
Mof_C 	C 	0.58463	0.82474	0.06253	0.139
Mof_C 	C 	0.59659	0.78764	0.11283	0.048
Mof_H 	H 	0.6054	0.7874	0.101	0.009
Mof_C 	C 	0.57962	0.80177	0.11298	-0.058
Mof_C 	C 	0.56788	0.80276	0.13086	0.018
Mof_H 	H 	0.5567	0.8123	0.1319	0.035
Mof_C 	C 	0.57249	0.78981	0.14724	-0.11
Mof_H 	H 	0.5648	0.7904	0.1598	0.071
Mof_C 	C 	0.58862	0.77587	0.14493	0.069
Mof_H 	H 	0.5912	0.7664	0.156	-0.002
Mof_C 	C 	0.6219	0.7489	0.07552	0.108
Mof_C 	C 	0.66748	0.73247	0.1378	0.052
Mof_H 	H 	0.6665	0.7432	0.1479	0.003
Mof_C 	C 	0.68479	0.72106	0.13726	-0.096
Mof_H 	H 	0.6955	0.7233	0.1472	0.066
Mof_C 	C 	0.68705	0.70561	0.12179	0.005
Mof_H 	H 	0.6994	0.6976	0.1207	0.039
Mof_C 	C 	0.67042	0.70256	0.10827	-0.053
Mof_C 	C 	0.65304	0.71521	0.11005	0.046
Mof_H 	H 	0.6421	0.7134	0.1003	0.011
Mof_C 	C 	0.67139	0.68677	0.09207	0.133
Mof_N 	N 	0.6149	0.84003	0.01561	-0.224
Mof_N 	N 	0.47691	0.89535	0.11325	-0.26
Mof_N 	N 	0.51757	0.87672	0.10068	-0.229
Mof_N 	N 	0.57092	0.84057	0.06309	-0.155
Mof_N 	N 	0.56142	0.82977	0.09658	-0.153
Mof_N 	N 	0.58754	0.81151	0.07774	-0.152
Mof_N 	N 	0.60074	0.77488	0.12827	-0.234
Mof_N 	N 	0.65084	0.72967	0.12452	-0.226
Mof_N 	N 	0.62293	0.75102	0.09297	-0.267
Mof_N 	N 	0.65657	0.68687	0.07751	-0.15
Mof_S 	S 	0.45983	0.92257	0.08435	-0.063
Mof_S 	S 	0.62079	0.74641	0.04975	-0.061
Mof_C 	C 	0.60166	0.3399	0.53178	0.037
Mof_H 	H 	0.5943	0.3524	0.5349	0.013
Mof_C 	C 	0.59811	0.32273	0.54417	-0.052
Mof_C 	C 	0.60817	0.30437	0.53951	0.01
Mof_H 	H 	0.6066	0.2924	0.5481	0.037
Mof_C 	C 	0.62062	0.30383	0.52202	-0.1
Mof_H 	H 	0.6267	0.2911	0.5176	0.066
Mof_C 	C 	0.62422	0.32171	0.51099	0.058
Mof_H 	H 	0.6337	0.3212	0.4996	0.001
Mof_C 	C 	0.469	0.40658	0.60151	0.098
Mof_C 	C 	0.51673	0.39067	0.58516	0.065
Mof_H 	H 	0.5064	0.4012	0.586	-0.003
Mof_C 	C 	0.52959	0.39077	0.5683	-0.107
Mof_H 	H 	0.5287	0.4015	0.5582	0.068
Mof_C 	C 	0.54389	0.37495	0.56624	0.014
Mof_H 	H 	0.5531	0.3745	0.5547	0.035
Mof_C 	C 	0.54454	0.35954	0.58154	-0.055
Mof_C 	C 	0.53115	0.36115	0.59801	0.043
Mof_H 	H 	0.5315	0.3505	0.6082	0.013
Mof_C 	C 	0.55983	0.34207	0.58004	0.142
Mof_C 	C 	0.5757	0.31478	0.59503	0.136
Mof_C 	C 	0.58463	0.32474	0.56253	0.139
Mof_C 	C 	0.59659	0.28764	0.61283	0.048
Mof_H 	H 	0.6054	0.2874	0.601	0.009
Mof_C 	C 	0.57962	0.30177	0.61298	-0.058
Mof_C 	C 	0.56788	0.30276	0.63086	0.018
Mof_H 	H 	0.5567	0.3123	0.6319	0.035
Mof_C 	C 	0.57249	0.28981	0.64724	-0.11
Mof_H 	H 	0.5648	0.2904	0.6598	0.071
Mof_C 	C 	0.58862	0.27587	0.64493	0.069
Mof_H 	H 	0.5912	0.2664	0.656	-0.002
Mof_C 	C 	0.6219	0.2489	0.57552	0.108
Mof_C 	C 	0.66748	0.23247	0.6378	0.052
Mof_H 	H 	0.6665	0.2432	0.6479	0.003
Mof_C 	C 	0.68479	0.22106	0.63726	-0.096
Mof_H 	H 	0.6955	0.2233	0.6472	0.066
Mof_C 	C 	0.68705	0.20561	0.62179	0.005
Mof_H 	H 	0.6994	0.1976	0.6207	0.039
Mof_C 	C 	0.67042	0.20256	0.60827	-0.053
Mof_C 	C 	0.65304	0.21521	0.61005	0.046
Mof_H 	H 	0.6421	0.2134	0.6003	0.011
Mof_C 	C 	0.67139	0.18677	0.59207	0.133
Mof_N 	N 	0.6149	0.34003	0.51561	-0.224
Mof_N 	N 	0.47691	0.39535	0.61325	-0.26
Mof_N 	N 	0.51757	0.37672	0.60068	-0.229
Mof_N 	N 	0.57092	0.34057	0.56309	-0.155
Mof_N 	N 	0.56142	0.32977	0.59658	-0.153
Mof_N 	N 	0.58754	0.31151	0.57774	-0.152
Mof_N 	N 	0.60074	0.27488	0.62827	-0.234
Mof_N 	N 	0.65084	0.22967	0.62452	-0.226
Mof_N 	N 	0.62293	0.25102	0.59297	-0.267
Mof_N 	N 	0.65657	0.18687	0.57751	-0.15
Mof_S 	S 	0.45983	0.42257	0.58435	-0.063
Mof_S 	S 	0.62079	0.24641	0.54975	-0.061
Mof_C 	C 	0.10166	0.8399	0.53178	0.037
Mof_H 	H 	0.0943	0.8524	0.5349	0.013
Mof_C 	C 	0.09811	0.82273	0.54417	-0.052
Mof_C 	C 	0.10817	0.80437	0.53951	0.01
Mof_H 	H 	0.1066	0.7924	0.5481	0.037
Mof_C 	C 	0.12062	0.80383	0.52202	-0.1
Mof_H 	H 	0.1267	0.7911	0.5176	0.066
Mof_C 	C 	0.12422	0.82171	0.51099	0.058
Mof_H 	H 	0.1337	0.8212	0.4996	0.001
Mof_C 	C 	0.969	0.90658	0.60151	0.098
Mof_C 	C 	0.01673	0.89067	0.58516	0.065
Mof_H 	H 	0.0064	0.9012	0.586	-0.003
Mof_C 	C 	0.02959	0.89077	0.5683	-0.107
Mof_H 	H 	0.0287	0.9015	0.5582	0.068
Mof_C 	C 	0.04389	0.87495	0.56624	0.014
Mof_H 	H 	0.0531	0.8745	0.5547	0.035
Mof_C 	C 	0.04454	0.85954	0.58154	-0.055
Mof_C 	C 	0.03115	0.86115	0.59801	0.043
Mof_H 	H 	0.0315	0.8505	0.6082	0.013
Mof_C 	C 	0.05983	0.84207	0.58004	0.142
Mof_C 	C 	0.0757	0.81478	0.59503	0.136
Mof_C 	C 	0.08463	0.82474	0.56253	0.139
Mof_C 	C 	0.09659	0.78764	0.61283	0.048
Mof_H 	H 	0.1054	0.7874	0.601	0.009
Mof_C 	C 	0.07962	0.80177	0.61298	-0.058
Mof_C 	C 	0.06788	0.80276	0.63086	0.018
Mof_H 	H 	0.0567	0.8123	0.6319	0.035
Mof_C 	C 	0.07249	0.78981	0.64724	-0.11
Mof_H 	H 	0.0648	0.7904	0.6598	0.071
Mof_C 	C 	0.08862	0.77587	0.64493	0.069
Mof_H 	H 	0.0912	0.7664	0.656	-0.002
Mof_C 	C 	0.1219	0.7489	0.57552	0.108
Mof_C 	C 	0.16748	0.73247	0.6378	0.052
Mof_H 	H 	0.1665	0.7432	0.6479	0.003
Mof_C 	C 	0.18479	0.72106	0.63726	-0.096
Mof_H 	H 	0.1955	0.7233	0.6472	0.066
Mof_C 	C 	0.18705	0.70561	0.62179	0.005
Mof_H 	H 	0.1994	0.6976	0.6207	0.039
Mof_C 	C 	0.17042	0.70256	0.60827	-0.053
Mof_C 	C 	0.15304	0.71521	0.61005	0.046
Mof_H 	H 	0.1421	0.7134	0.6003	0.011
Mof_C 	C 	0.17139	0.68677	0.59207	0.133
Mof_N 	N 	0.1149	0.84003	0.51561	-0.224
Mof_N 	N 	0.97691	0.89535	0.61325	-0.26
Mof_N 	N 	0.01757	0.87672	0.60068	-0.229
Mof_N 	N 	0.07092	0.84057	0.56309	-0.155
Mof_N 	N 	0.06142	0.82977	0.59658	-0.153
Mof_N 	N 	0.08754	0.81151	0.57774	-0.152
Mof_N 	N 	0.10074	0.77488	0.62827	-0.234
Mof_N 	N 	0.15084	0.72967	0.62452	-0.226
Mof_N 	N 	0.12293	0.75102	0.59297	-0.267
Mof_N 	N 	0.15657	0.68687	0.57751	-0.15
Mof_S 	S 	0.95983	0.92257	0.58435	-0.063
Mof_S 	S 	0.12079	0.74641	0.54975	-0.061
Mof_C 	C 	0.10166	0.3399	0.03178	0.037
Mof_H 	H 	0.0943	0.3524	0.0349	0.013
Mof_C 	C 	0.09811	0.32273	0.04417	-0.052
Mof_C 	C 	0.10817	0.30437	0.03951	0.01
Mof_H 	H 	0.1066	0.2924	0.0481	0.037
Mof_C 	C 	0.12062	0.30383	0.02202	-0.1
Mof_H 	H 	0.1267	0.2911	0.0176	0.066
Mof_C 	C 	0.12422	0.32171	0.01099	0.058
Mof_H 	H 	0.1337	0.3212	0.9996	0.001
Mof_C 	C 	0.969	0.40658	0.10151	0.098
Mof_C 	C 	0.01673	0.39067	0.08516	0.065
Mof_H 	H 	0.0064	0.4012	0.086	-0.003
Mof_C 	C 	0.02959	0.39077	0.0683	-0.107
Mof_H 	H 	0.0287	0.4015	0.0582	0.068
Mof_C 	C 	0.04389	0.37495	0.06624	0.014
Mof_H 	H 	0.0531	0.3745	0.0547	0.035
Mof_C 	C 	0.04454	0.35954	0.08154	-0.055
Mof_C 	C 	0.03115	0.36115	0.09801	0.043
Mof_H 	H 	0.0315	0.3505	0.1082	0.013
Mof_C 	C 	0.05983	0.34207	0.08004	0.142
Mof_C 	C 	0.0757	0.31478	0.09503	0.136
Mof_C 	C 	0.08463	0.32474	0.06253	0.139
Mof_C 	C 	0.09659	0.28764	0.11283	0.048
Mof_H 	H 	0.1054	0.2874	0.101	0.009
Mof_C 	C 	0.07962	0.30177	0.11298	-0.058
Mof_C 	C 	0.06788	0.30276	0.13086	0.018
Mof_H 	H 	0.0567	0.3123	0.1319	0.035
Mof_C 	C 	0.07249	0.28981	0.14724	-0.11
Mof_H 	H 	0.0648	0.2904	0.1598	0.071
Mof_C 	C 	0.08862	0.27587	0.14493	0.069
Mof_H 	H 	0.0912	0.2664	0.156	-0.002
Mof_C 	C 	0.1219	0.2489	0.07552	0.108
Mof_C 	C 	0.16748	0.23247	0.1378	0.052
Mof_H 	H 	0.1665	0.2432	0.1479	0.003
Mof_C 	C 	0.18479	0.22106	0.13726	-0.096
Mof_H 	H 	0.1955	0.2233	0.1472	0.066
Mof_C 	C 	0.18705	0.20561	0.12179	0.005
Mof_H 	H 	0.1994	0.1976	0.1207	0.039
Mof_C 	C 	0.17042	0.20256	0.10827	-0.053
Mof_C 	C 	0.15304	0.21521	0.11005	0.046
Mof_H 	H 	0.1421	0.2134	0.1003	0.011
Mof_C 	C 	0.17139	0.18677	0.09207	0.133
Mof_N 	N 	0.1149	0.34003	0.01561	-0.224
Mof_N 	N 	0.97691	0.39535	0.11325	-0.26
Mof_N 	N 	0.01757	0.37672	0.10068	-0.229
Mof_N 	N 	0.07092	0.34057	0.06309	-0.155
Mof_N 	N 	0.06142	0.32977	0.09658	-0.153
Mof_N 	N 	0.08754	0.31151	0.07774	-0.152
Mof_N 	N 	0.10074	0.27488	0.12827	-0.234
Mof_N 	N 	0.15084	0.22967	0.12452	-0.226
Mof_N 	N 	0.12293	0.25102	0.09297	-0.267
Mof_N 	N 	0.15657	0.18687	0.07751	-0.15
Mof_S 	S 	0.95983	0.42257	0.08435	-0.063
Mof_S 	S 	0.12079	0.24641	0.04975	-0.061
Mof_Co	Co	0.62986	0.37986	-0	1.119
Mof_Co	Co	0.62986	0.87986	0.5	1.119
Mof_Co	Co	0.12986	0.87986	-0	1.119
Mof_Co	Co	0.62014	0.37014	0.5	1.119
Mof_Co	Co	0.62014	0.87014	-0	1.119
Mof_Co	Co	0.12014	0.37014	-0	1.119
Mof_Co	Co	0.12014	0.87986	0.25	1.119
Mof_Co	Co	0.12014	0.37986	0.75	1.119
Mof_Co	Co	0.12986	0.87014	0.75	1.119
Mof_Co	Co	0.12986	0.37014	0.25	1.119
Mof_Co	Co	-4.67134e-33	0.62986	0.37986	1.119
Mof_Co	Co	-8.89222e-33	0.12986	0.87986	1.119
Mof_Co	Co	0.5	0.62986	0.87986	1.119
Mof_Co	Co	0.5	0.62014	0.37014	1.119
Mof_Co	Co	-8.92866e-33	0.62014	0.87014	1.119
Mof_Co	Co	4.43559e-33	0.12014	0.37014	1.119
Mof_Co	Co	0.25	0.12014	0.87986	1.119
Mof_Co	Co	0.75	0.12014	0.37986	1.119
Mof_Co	Co	0.75	0.12986	0.87014	1.119
Mof_Co	Co	0.25	0.12986	0.37014	1.119
Mof_Co	Co	0.37986	0	0.62986	1.119
Mof_Co	Co	0.37986	0.5	0.12986	1.119
Mof_Co	Co	0.87986	1.5239e-33	0.12986	1.119
Mof_Co	Co	0.37014	0.5	0.62014	1.119
Mof_Co	Co	0.37014	-1.5239e-33	0.12014	1.119
Mof_Co	Co	0.87986	0.25	0.12014	1.119
Mof_Co	Co	0.87986	0.75	0.62014	1.119
Mof_Co	Co	0.37986	0.75	0.12014	1.119
Mof_Co	Co	0.87014	0.75	0.12986	1.119
Mof_Co	Co	0.87014	0.25	0.62986	1.119
Mof_Co	Co	0.12986	0.37986	0.5	1.119
Mof_Co	Co	0.12014	0.87014	0.5	1.119
Mof_Co	Co	0.62986	0.37014	0.75	1.119
Mof_Co	Co	0.62986	0.87014	0.25	1.119
Mof_Co	Co	0.62014	0.37986	0.25	1.119
Mof_Co	Co	0.62014	0.87986	0.75	1.119
Mof_Co	Co	0.37986	0.25	0.62014	1.119
Mof_Co	Co	0.37014	0.75	0.62986	1.119
Mof_Co	Co	0.37014	0.25	0.12986	1.119
Mof_Co	Co	0.87014	0.5	0.12014	1.119
Mof_Co	Co	0.87014	0	0.62014	1.119
Mof_Co	Co	0.87986	0.5	0.62986	1.119
Mof_Co	Co	0.75	0.62986	0.37014	1.119
Mof_Co	Co	0.25	0.62986	0.87014	1.119
Mof_Co	Co	0.25	0.62014	0.37986	1.119
Mof_Co	Co	0.75	0.62014	0.87986	1.119
Mof_Co	Co	0.5	0.12986	0.37986	1.119
Mof_Co	Co	0.5	0.12014	0.87014	1.119
Mof_Co	Co	0.37014	0.62014	-0	1.119
Mof_Co	Co	0.37014	0.12014	0.5	1.119
Mof_Co	Co	0.87014	0.12014	-0	1.119
Mof_Co	Co	0.37986	0.62986	0.5	1.119
Mof_Co	Co	0.37986	0.12986	-0	1.119
Mof_Co	Co	0.87986	0.12014	0.75	1.119
Mof_Co	Co	0.87986	0.62014	0.25	1.119
Mof_Co	Co	0.87014	0.12986	0.25	1.119
Mof_Co	Co	0.87014	0.62986	0.75	1.119
Mof_Co	Co	0.37014	0.12986	0.75	1.119
Mof_Co	Co	-3.77043e-33	0.37014	0.62014	1.119
Mof_Co	Co	-5.64513e-33	0.87014	0.12014	1.119
Mof_Co	Co	0.5	0.37014	0.12014	1.119
Mof_Co	Co	0.5	0.37986	0.62986	1.119
Mof_Co	Co	-7.13258e-33	0.37986	0.12986	1.119
Mof_Co	Co	0.75	0.87986	0.12014	1.119
Mof_Co	Co	0.25	0.87986	0.62014	1.119
Mof_Co	Co	0.25	0.87014	0.12986	1.119
Mof_Co	Co	0.75	0.87014	0.62986	1.119
Mof_Co	Co	0.75	0.37014	0.12986	1.119
Mof_Co	Co	0.62014	0	0.37014	1.119
Mof_Co	Co	0.62014	0.5	0.87014	1.119
Mof_Co	Co	0.12014	-6.09558e-33	0.87014	1.119
Mof_Co	Co	0.62986	0.5	0.37986	1.119
Mof_Co	Co	0.62986	0	0.87986	1.119
Mof_Co	Co	0.12986	-3.04779e-33	0.37986	1.119
Mof_Co	Co	0.12014	0.75	0.87986	1.119
Mof_Co	Co	0.12014	0.25	0.37986	1.119
Mof_Co	Co	0.12986	0.25	0.87014	1.119
Mof_Co	Co	0.12986	0.75	0.37014	1.119
Mof_Co	Co	0.87014	0.62014	0.5	1.119
Mof_Co	Co	0.87986	0.12986	0.5	1.119
Mof_Co	Co	0.87986	0.62986	-0	1.119
Mof_Co	Co	0.37014	0.62986	0.25	1.119
Mof_Co	Co	0.37986	0.62014	0.75	1.119
Mof_Co	Co	0.37986	0.12014	0.25	1.119
Mof_Co	Co	0.62014	0.75	0.37986	1.119
Mof_Co	Co	0.62014	0.25	0.87986	1.119
Mof_Co	Co	0.62986	0.25	0.37014	1.119
Mof_Co	Co	0.62986	0.75	0.87014	1.119
Mof_Co	Co	0.12986	0.5	0.87986	1.119
Mof_Co	Co	0.12014	0.5	0.37014	1.119
Mof_Co	Co	0.25	0.37014	0.62986	1.119
Mof_Co	Co	0.75	0.37986	0.62014	1.119
Mof_Co	Co	0.25	0.37986	0.12014	1.119
Mof_Co	Co	0.5	0.87014	0.62014	1.119
Mof_Co	Co	0.5	0.87986	0.12986	1.119
Mof_Co	Co	2.3616e-33	0.87986	0.62986	1.119
Mof_Co	Co	0.625	0.2518	0.125	1.125
Mof_Co	Co	0.625	0.7518	0.625	1.125
Mof_Co	Co	0.625	0.4982	0.625	1.125
Mof_Co	Co	0.625	0.9982	0.125	1.125
Mof_Co	Co	0.125	0.7518	0.125	1.125
Mof_Co	Co	0.125	0.2518	0.625	1.125
Mof_Co	Co	0.125	0.9982	0.625	1.125
Mof_Co	Co	0.125	0.4982	0.125	1.125
Mof_Co	Co	0.125	0.625	0.2518	1.125
Mof_Co	Co	0.625	0.625	0.7518	1.125
Mof_Co	Co	0.625	0.625	0.4982	1.125
Mof_Co	Co	0.125	0.625	0.9982	1.125
Mof_Co	Co	0.125	0.125	0.7518	1.125
Mof_Co	Co	0.625	0.125	0.2518	1.125
Mof_Co	Co	0.625	0.125	0.9982	1.125
Mof_Co	Co	0.125	0.125	0.4982	1.125
Mof_Co	Co	0.2518	0.125	0.625	1.125
Mof_Co	Co	0.2518	0.625	0.125	1.125
Mof_Co	Co	0.7518	0.625	0.625	1.125
Mof_Co	Co	0.4982	0.625	0.625	1.125
Mof_Co	Co	0.4982	0.125	0.125	1.125
Mof_Co	Co	0.7518	0.125	0.125	1.125
Mof_Co	Co	0.9982	0.625	0.125	1.125
Mof_Co	Co	0.9982	0.125	0.625	1.125
Mof_Co	Co	0.0018	0.875	0.875	1.125
Mof_Co	Co	0.0018	0.375	0.375	1.125
Mof_Co	Co	0.2482	0.875	0.375	1.125
Mof_Co	Co	0.2482	0.375	0.875	1.125
Mof_Co	Co	0.5018	0.375	0.875	1.125
Mof_Co	Co	0.5018	0.875	0.375	1.125
Mof_Co	Co	0.7482	0.375	0.375	1.125
Mof_Co	Co	0.7482	0.875	0.875	1.125
Mof_Co	Co	0.375	0.375	0.7482	1.125
Mof_Co	Co	0.375	0.875	0.2482	1.125
Mof_Co	Co	0.375	0.875	0.5018	1.125
Mof_Co	Co	0.375	0.375	0.0018	1.125
Mof_Co	Co	0.875	0.375	0.2482	1.125
Mof_Co	Co	0.875	0.875	0.7482	1.125
Mof_Co	Co	0.875	0.875	0.0018	1.125
Mof_Co	Co	0.875	0.375	0.5018	1.125
Mof_Co	Co	0.875	0.5018	0.375	1.125
Mof_Co	Co	0.375	0.5018	0.875	1.125
Mof_Co	Co	0.375	0.7482	0.375	1.125
Mof_Co	Co	0.875	0.7482	0.875	1.125
Mof_Co	Co	0.875	0.0018	0.875	1.125
Mof_Co	Co	0.375	0.0018	0.375	1.125
Mof_Co	Co	0.375	0.2482	0.875	1.125
Mof_Co	Co	0.875	0.2482	0.375	1.125
Mof_Co	Co	0.375	0.7482	0.875	1.125
Mof_Co	Co	0.375	0.2482	0.375	1.125
Mof_Co	Co	0.375	0.5018	0.375	1.125
Mof_Co	Co	0.375	0.0018	0.875	1.125
Mof_Co	Co	0.875	0.2482	0.875	1.125
Mof_Co	Co	0.875	0.7482	0.375	1.125
Mof_Co	Co	0.875	0.0018	0.375	1.125
Mof_Co	Co	0.875	0.5018	0.875	1.125
Mof_Co	Co	0.875	0.375	0.7482	1.125
Mof_Co	Co	0.375	0.375	0.2482	1.125
Mof_Co	Co	0.375	0.375	0.5018	1.125
Mof_Co	Co	0.875	0.375	0.0018	1.125
Mof_Co	Co	0.875	0.875	0.2482	1.125
Mof_Co	Co	0.375	0.875	0.7482	1.125
Mof_Co	Co	0.375	0.875	0.0018	1.125
Mof_Co	Co	0.875	0.875	0.5018	1.125
Mof_Co	Co	0.7482	0.875	0.375	1.125
Mof_Co	Co	0.7482	0.375	0.875	1.125
Mof_Co	Co	0.5018	0.375	0.375	1.125
Mof_Co	Co	0.5018	0.875	0.875	1.125
Mof_Co	Co	0.2482	0.875	0.875	1.125
Mof_Co	Co	0.2482	0.375	0.375	1.125
Mof_Co	Co	0.0018	0.375	0.875	1.125
Mof_Co	Co	0.0018	0.875	0.375	1.125
Mof_Co	Co	0.9982	0.125	0.125	1.125
Mof_Co	Co	0.9982	0.625	0.625	1.125
Mof_Co	Co	0.4982	0.625	0.125	1.125
Mof_Co	Co	0.7518	0.125	0.625	1.125
Mof_Co	Co	0.7518	0.625	0.125	1.125
Mof_Co	Co	0.4982	0.125	0.625	1.125
Mof_Co	Co	0.2518	0.625	0.625	1.125
Mof_Co	Co	0.2518	0.125	0.125	1.125
Mof_Co	Co	0.625	0.625	0.2518	1.125
Mof_Co	Co	0.625	0.125	0.7518	1.125
Mof_Co	Co	0.625	0.125	0.4982	1.125
Mof_Co	Co	0.625	0.625	0.9982	1.125
Mof_Co	Co	0.125	0.625	0.7518	1.125
Mof_Co	Co	0.125	0.125	0.2518	1.125
Mof_Co	Co	0.125	0.125	0.9982	1.125
Mof_Co	Co	0.125	0.625	0.4982	1.125
Mof_Co	Co	0.125	0.4982	0.625	1.125
Mof_Co	Co	0.625	0.4982	0.125	1.125
Mof_Co	Co	0.625	0.2518	0.625	1.125
Mof_Co	Co	0.125	0.2518	0.125	1.125
Mof_Co	Co	0.125	0.9982	0.125	1.125
Mof_Co	Co	0.625	0.9982	0.625	1.125
Mof_Co	Co	0.625	0.7518	0.125	1.125
Mof_Co	Co	0.125	0.7518	0.625	1.125
_end
