# CIF file generated by openbabel 3.1.0, see https://openbabel.org
data_I
_chemical_name_common 'image0'
_cell_length_a 8.6987
_cell_length_b 34.1408
_cell_length_c 8.6081
_cell_angle_alpha 90
_cell_angle_beta 107.578
_cell_angle_gamma 90
_space_group_name_H-M_alt 'P 1'
_space_group_name_Hall 'P 1'
loop_
    _symmetry_equiv_pos_as_xyz
    x,y,z
loop_
    _atom_site_label
    _atom_site_type_symbol
    _atom_site_fract_x
    _atom_site_fract_y
    _atom_site_fract_z
    _atom_site_occupancy
    Cu1      Cu       0.74864    0.20347    0.48079    1.000
    Cu2      Cu       0.73785    0.04553    0.49830    1.000
    O1       O        0.89567    0.15350    0.61059    1.000
    O2       O        0.84818    0.08995    0.62829    1.000
    O3       O        0.62075    0.16010    0.35884    1.000
    O4       O        0.61147    0.09516    0.33753    1.000
    O5       O        0.62359    0.20581    0.64185    1.000
    O6       O        0.58664    0.24810    0.82434    1.000
    O7       O        0.87410    0.24625    0.61530    1.000
    O8       O        0.85791    0.28752    0.80976    1.000
    O9       O        0.90589    0.04080    0.38507    1.000
    O10      O        0.08851    0.00016    0.34265    1.000
    O11      O        0.56971    0.04222    0.61269    1.000
    O12      O        0.37848    0.00003    0.62778    1.000
    C1       C        0.81780    0.12323    0.56220    1.000
    C2       C        0.66950    0.12595    0.40530    1.000
    C3       C        0.81040    0.25863    0.71930    1.000
    C4       C        0.66000    0.23616    0.73230    1.000
    C5       C        0.99990    0.01136    0.42110    1.000
    C6       C        0.48490    0.01226    0.56950    1.000
    Cu3      Cu       0.25136    0.70347    0.01921    1.000
    Cu4      Cu       0.26215    0.54553    0.00170    1.000
    O13      O        0.10433    0.65350    0.88941    1.000
    O14      O        0.15182    0.58995    0.87171    1.000
    O15      O        0.37925    0.66010    0.14116    1.000
    O16      O        0.38853    0.59516    0.16247    1.000
    O17      O        0.37641    0.70581    0.85815    1.000
    O18      O        0.41336    0.74810    0.67566    1.000
    O19      O        0.12590    0.74625    0.88470    1.000
    O20      O        0.14209    0.78752    0.69024    1.000
    O21      O        0.09411    0.54080    0.11493    1.000
    O22      O        0.91149    0.50016    0.15735    1.000
    O23      O        0.43029    0.54222    0.88731    1.000
    O24      O        0.62152    0.50003    0.87222    1.000
    C7       C        0.18220    0.62323    0.93780    1.000
    C8       C        0.33050    0.62595    0.09470    1.000
    C9       C        0.18960    0.75863    0.78070    1.000
    C10      C        0.34000    0.73616    0.76770    1.000
    C11      C        0.00010    0.51136    0.07890    1.000
    C12      C        0.51510    0.51226    0.93050    1.000
    Cu5      Cu       0.25136    0.79653    0.51921    1.000
    Cu6      Cu       0.26215    0.95447    0.50170    1.000
    O25      O        0.10433    0.84650    0.38941    1.000
    O26      O        0.15182    0.91005    0.37171    1.000
    O27      O        0.37925    0.83990    0.64116    1.000
    O28      O        0.38853    0.90484    0.66247    1.000
    O29      O        0.37641    0.79419    0.35815    1.000
    O30      O        0.41336    0.75190    0.17566    1.000
    O31      O        0.12590    0.75375    0.38470    1.000
    O32      O        0.14209    0.71248    0.19024    1.000
    O33      O        0.09411    0.95920    0.61493    1.000
    O34      O        0.91149    0.99984    0.65735    1.000
    O35      O        0.43029    0.95778    0.38731    1.000
    O36      O        0.62152    0.99997    0.37222    1.000
    C13      C        0.18220    0.87677    0.43780    1.000
    C14      C        0.33050    0.87405    0.59470    1.000
    C15      C        0.18960    0.74137    0.28070    1.000
    C16      C        0.34000    0.76384    0.26770    1.000
    C17      C        0.00010    0.98864    0.57890    1.000
    C18      C        0.51510    0.98774    0.43050    1.000
    Cu7      Cu       0.74864    0.29653    0.98079    1.000
    Cu8      Cu       0.73785    0.45447    0.99830    1.000
    O37      O        0.89567    0.34650    0.11059    1.000
    O38      O        0.84818    0.41005    0.12829    1.000
    O39      O        0.62075    0.33990    0.85884    1.000
    O40      O        0.61147    0.40484    0.83753    1.000
    O41      O        0.62359    0.29419    0.14185    1.000
    O42      O        0.58664    0.25190    0.32434    1.000
    O43      O        0.87410    0.25375    0.11530    1.000
    O44      O        0.85791    0.21248    0.30976    1.000
    O45      O        0.90589    0.45920    0.88507    1.000
    O46      O        0.08851    0.49984    0.84265    1.000
    O47      O        0.56971    0.45778    0.11269    1.000
    O48      O        0.37848    0.49997    0.12778    1.000
    C19      C        0.81780    0.37677    0.06220    1.000
    C20      C        0.66950    0.37405    0.90530    1.000
    C21      C        0.81040    0.24137    0.21930    1.000
    C22      C        0.66000    0.26384    0.23230    1.000
    C23      C        0.99990    0.48864    0.92110    1.000
    C24      C        0.48490    0.48774    0.06950    1.000
