# CIF file generated by openbabel 3.1.0, see https://openbabel.org
data_I
_chemical_name_common 'image0'
_cell_length_a 10.8137
_cell_length_b 19.04
_cell_length_c 19.246
_cell_angle_alpha 90
_cell_angle_beta 98.338
_cell_angle_gamma 90
_space_group_name_H-M_alt 'P 1'
_space_group_name_Hall 'P 1'
loop_
    _symmetry_equiv_pos_as_xyz
    x,y,z
loop_
    _atom_site_label
    _atom_site_type_symbol
    _atom_site_fract_x
    _atom_site_fract_y
    _atom_site_fract_z
    _atom_site_occupancy
    Eu1      Eu       0.58507    0.37469    0.85702    1.000
    N1       N        0.75510    0.46230    0.91730    1.000
    C1       C        0.74220    0.50750    0.96840    1.000
    H1       H        0.67260    0.50310    0.99220    1.000
    C2       C        0.82730    0.56070    0.98790    1.000
    N2       N        0.92820    0.56760    0.95630    1.000
    C3       C        0.94350    0.52180    0.90630    1.000
    H2       H        0.01500    0.52510    0.88390    1.000
    C4       C        0.85780    0.46960    0.88620    1.000
    C5       C        0.80630    0.61260    0.04320    1.000
    H3       H        0.88200    0.61730    0.07660    1.000
    H4       H        0.73880    0.59640    0.06730    1.000
    H5       H        0.78440    0.65780    0.02150    1.000
    C6       C        0.87110    0.41950    0.82790    1.000
    O1       O        0.97230    0.41730    0.80430    1.000
    O2       O        0.77750    0.38290    0.80670    1.000
    N3       N        0.46880    0.26010    0.88780    1.000
    C7       C        0.51570    0.20770    0.92840    1.000
    H6       H        0.59870    0.21090    0.95080    1.000
    C8       C        0.44710    0.14840    0.93900    1.000
    N4       N        0.33140    0.14040    0.90610    1.000
    C9       C        0.28340    0.19280    0.86490    1.000
    H7       H        0.20150    0.18870    0.84100    1.000
    C10      C        0.35080    0.25300    0.85640    1.000
    C11      C        0.50100    0.09210    0.98760    1.000
    H8       H        0.44000    0.07780    0.01720    1.000
    H9       H        0.57540    0.10950    0.01670    1.000
    H10      H        0.52280    0.05210    0.96060    1.000
    C12      C        0.29790    0.31360    0.81350    1.000
    O3       O        0.18820    0.30880    0.78250    1.000
    O4       O        0.36580    0.36670    0.81310    1.000
    N5       N        0.49040    0.49140    0.87340    1.000
    N6       N        0.54560    0.37700    0.98020    1.000
    N7       N        0.57650    0.28670    0.76370    1.000
    Eu2      Eu       0.04951    0.37102    0.70109    1.000
    Mo1      Mo       0.46128    0.66168    0.85400    1.000
    C13      C        0.48120    0.55080    0.86860    1.000
    C14      C        0.53750    0.36420    0.03770    1.000
    C15      C        0.55960    0.24340    0.72240    1.000
    C16      C        0.64590    0.64270    0.82850    1.000
    N8       N        0.74230    0.63420    0.81220    1.000
    C17      C        0.27050    0.62760    0.83680    1.000
    N9       N        0.16980    0.60730    0.82730    1.000
    C18      C        0.43110    0.61390    0.75080    1.000
    N10      N        0.41500    0.58610    0.69750    1.000
    C19      C        0.35110    0.74170    0.89490    1.000
    N11      N        0.28880    0.78300    0.91570    1.000
    C20      C        0.59320    0.73740    0.90630    1.000
    N12      N        0.66320    0.77800    0.93180    1.000
    Eu3      Eu       0.41493    0.87469    0.64298    1.000
    N13      N        0.24490    0.96230    0.58270    1.000
    C21      C        0.25780    0.00750    0.53160    1.000
    H11      H        0.32740    0.00310    0.50780    1.000
    C22      C        0.17270    0.06070    0.51210    1.000
    N14      N        0.07180    0.06760    0.54370    1.000
    C23      C        0.05650    0.02180    0.59370    1.000
    H12      H        0.98500    0.02510    0.61610    1.000
    C24      C        0.14220    0.96960    0.61380    1.000
    C25      C        0.19370    0.11260    0.45680    1.000
    H13      H        0.11800    0.11730    0.42340    1.000
    H14      H        0.26120    0.09640    0.43270    1.000
    H15      H        0.21560    0.15780    0.47850    1.000
    C26      C        0.12890    0.91950    0.67210    1.000
    O5       O        0.02770    0.91730    0.69570    1.000
    O6       O        0.22250    0.88290    0.69330    1.000
    N15      N        0.53120    0.76010    0.61220    1.000
    C27      C        0.48430    0.70770    0.57160    1.000
    H16      H        0.40130    0.71090    0.54920    1.000
    C28      C        0.55290    0.64840    0.56100    1.000
    N16      N        0.66860    0.64040    0.59390    1.000
    C29      C        0.71660    0.69280    0.63510    1.000
    H17      H        0.79850    0.68870    0.65900    1.000
    C30      C        0.64920    0.75300    0.64360    1.000
    C31      C        0.49900    0.59210    0.51240    1.000
    H18      H        0.56000    0.57780    0.48280    1.000
    H19      H        0.42460    0.60950    0.48330    1.000
    H20      H        0.47720    0.55210    0.53940    1.000
    C32      C        0.70210    0.81360    0.68650    1.000
    O7       O        0.81180    0.80880    0.71750    1.000
    O8       O        0.63420    0.86670    0.68690    1.000
    N17      N        0.50960    0.99140    0.62660    1.000
    N18      N        0.45440    0.87700    0.51980    1.000
    N19      N        0.42350    0.78670    0.73630    1.000
    Eu4      Eu       0.95049    0.87102    0.79891    1.000
    Mo2      Mo       0.53872    0.16168    0.64600    1.000
    C33      C        0.51880    0.05080    0.63140    1.000
    C34      C        0.46250    0.86420    0.46230    1.000
    C35      C        0.44040    0.74340    0.77760    1.000
    C36      C        0.35410    0.14270    0.67150    1.000
    N20      N        0.25770    0.13420    0.68780    1.000
    C37      C        0.72950    0.12760    0.66320    1.000
    N21      N        0.83020    0.10730    0.67270    1.000
    C38      C        0.56890    0.11390    0.74920    1.000
    N22      N        0.58500    0.08610    0.80250    1.000
    C39      C        0.64890    0.24170    0.60510    1.000
    N23      N        0.71120    0.28300    0.58430    1.000
    C40      C        0.40680    0.23740    0.59370    1.000
    N24      N        0.33680    0.27800    0.56820    1.000
    Eu5      Eu       0.41493    0.62531    0.14298    1.000
    N25      N        0.24490    0.53770    0.08270    1.000
    C41      C        0.25780    0.49250    0.03160    1.000
    H21      H        0.32740    0.49690    0.00780    1.000
    C42      C        0.17270    0.43930    0.01210    1.000
    N26      N        0.07180    0.43240    0.04370    1.000
    C43      C        0.05650    0.47820    0.09370    1.000
    H22      H        0.98500    0.47490    0.11610    1.000
    C44      C        0.14220    0.53040    0.11380    1.000
    C45      C        0.19370    0.38740    0.95680    1.000
    H23      H        0.11800    0.38270    0.92340    1.000
    H24      H        0.26120    0.40360    0.93270    1.000
    H25      H        0.21560    0.34220    0.97850    1.000
    C46      C        0.12890    0.58050    0.17210    1.000
    O9       O        0.02770    0.58270    0.19570    1.000
    O10      O        0.22250    0.61710    0.19330    1.000
    N27      N        0.53120    0.73990    0.11220    1.000
    C47      C        0.48430    0.79230    0.07160    1.000
    H26      H        0.40130    0.78910    0.04920    1.000
    C48      C        0.55290    0.85160    0.06100    1.000
    N28      N        0.66860    0.85960    0.09390    1.000
    C49      C        0.71660    0.80720    0.13510    1.000
    H27      H        0.79850    0.81130    0.15900    1.000
    C50      C        0.64920    0.74700    0.14360    1.000
    C51      C        0.49900    0.90790    0.01240    1.000
    H28      H        0.56000    0.92220    0.98280    1.000
    H29      H        0.42460    0.89050    0.98330    1.000
    H30      H        0.47720    0.94790    0.03940    1.000
    C52      C        0.70210    0.68640    0.18650    1.000
    O11      O        0.81180    0.69120    0.21750    1.000
    O12      O        0.63420    0.63330    0.18690    1.000
    N29      N        0.50960    0.50860    0.12660    1.000
    N30      N        0.45440    0.62300    0.01980    1.000
    N31      N        0.42350    0.71330    0.23630    1.000
    Eu6      Eu       0.95049    0.62898    0.29891    1.000
    Mo3      Mo       0.53872    0.33832    0.14600    1.000
    C53      C        0.51880    0.44920    0.13140    1.000
    C54      C        0.46250    0.63580    0.96230    1.000
    C55      C        0.44040    0.75660    0.27760    1.000
    C56      C        0.35410    0.35730    0.17150    1.000
    N32      N        0.25770    0.36580    0.18780    1.000
    C57      C        0.72950    0.37240    0.16320    1.000
    N33      N        0.83020    0.39270    0.17270    1.000
    C58      C        0.56890    0.38610    0.24920    1.000
    N34      N        0.58500    0.41390    0.30250    1.000
    C59      C        0.64890    0.25830    0.10510    1.000
    N35      N        0.71120    0.21700    0.08430    1.000
    C60      C        0.40680    0.26260    0.09370    1.000
    N36      N        0.33680    0.22200    0.06820    1.000
    Eu7      Eu       0.58507    0.12531    0.35702    1.000
    N37      N        0.75510    0.03770    0.41730    1.000
    C61      C        0.74220    0.99250    0.46840    1.000
    H31      H        0.67260    0.99690    0.49220    1.000
    C62      C        0.82730    0.93930    0.48790    1.000
    N38      N        0.92820    0.93240    0.45630    1.000
    C63      C        0.94350    0.97820    0.40630    1.000
    H32      H        0.01500    0.97490    0.38390    1.000
    C64      C        0.85780    0.03040    0.38620    1.000
    C65      C        0.80630    0.88740    0.54320    1.000
    H33      H        0.88200    0.88270    0.57660    1.000
    H34      H        0.73880    0.90360    0.56730    1.000
    H35      H        0.78440    0.84220    0.52150    1.000
    C66      C        0.87110    0.08050    0.32790    1.000
    O13      O        0.97230    0.08270    0.30430    1.000
    O14      O        0.77750    0.11710    0.30670    1.000
    N39      N        0.46880    0.23990    0.38780    1.000
    C67      C        0.51570    0.29230    0.42840    1.000
    H36      H        0.59870    0.28910    0.45080    1.000
    C68      C        0.44710    0.35160    0.43900    1.000
    N40      N        0.33140    0.35960    0.40610    1.000
    C69      C        0.28340    0.30720    0.36490    1.000
    H37      H        0.20150    0.31130    0.34100    1.000
    C70      C        0.35080    0.24700    0.35640    1.000
    C71      C        0.50100    0.40790    0.48760    1.000
    H38      H        0.44000    0.42220    0.51720    1.000
    H39      H        0.57540    0.39050    0.51670    1.000
    H40      H        0.52280    0.44790    0.46060    1.000
    C72      C        0.29790    0.18640    0.31350    1.000
    O15      O        0.18820    0.19120    0.28250    1.000
    O16      O        0.36580    0.13330    0.31310    1.000
    N41      N        0.49040    0.00860    0.37340    1.000
    N42      N        0.54560    0.12300    0.48020    1.000
    N43      N        0.57650    0.21330    0.26370    1.000
    Eu8      Eu       0.04951    0.12898    0.20109    1.000
    Mo4      Mo       0.46128    0.83832    0.35400    1.000
    C73      C        0.48120    0.94920    0.36860    1.000
    C74      C        0.53750    0.13580    0.53770    1.000
    C75      C        0.55960    0.25660    0.22240    1.000
    C76      C        0.64590    0.85730    0.32850    1.000
    N44      N        0.74230    0.86580    0.31220    1.000
    C77      C        0.27050    0.87240    0.33680    1.000
    N45      N        0.16980    0.89270    0.32730    1.000
    C78      C        0.43110    0.88610    0.25080    1.000
    N46      N        0.41500    0.91390    0.19750    1.000
    C79      C        0.35110    0.75830    0.39490    1.000
    N47      N        0.28880    0.71700    0.41570    1.000
    C80      C        0.59320    0.76260    0.40630    1.000
    N48      N        0.66320    0.72200    0.43180    1.000
