# CIF file generated by openbabel 3.1.0, see https://openbabel.org
data_I
_chemical_name_common 'KIDVIE_clean'
_cell_length_a 10.016
_cell_length_b 11.38
_cell_length_c 12.821
_cell_angle_alpha 80.39
_cell_angle_beta 80.65
_cell_angle_gamma 66.34
_space_group_name_H-M_alt 'P 1'
_space_group_name_Hall 'P 1'
loop_
    _symmetry_equiv_pos_as_xyz
    x,y,z
loop_
    _atom_site_label
    _atom_site_type_symbol
    _atom_site_fract_x
    _atom_site_fract_y
    _atom_site_fract_z
    _atom_site_occupancy
    La1      La       0.69862    0.89186    0.78818    1.000
    La2      La       0.38025    0.51211    0.74961    1.000
    La3      La       0.30138    0.10814    0.21182    1.000
    La4      La       0.61975    0.48789    0.25039    1.000
    C1       C        0.54700    0.67660    0.82650    1.000
    C2       C        0.51960    0.73980    0.71620    1.000
    C3       C        0.60010    0.20610    0.78930    1.000
    C4       C        0.50800    0.20180    0.71370    1.000
    C5       C        0.05670    0.73690    0.80340    1.000
    C6       C        0.02000    0.63790    0.75920    1.000
    C7       C        0.58000    0.46570    0.50980    1.000
    C8       C        0.43220    0.02980    0.96680    1.000
    C9       C        0.45300    0.32340    0.17350    1.000
    C10      C        0.48040    0.26020    0.28380    1.000
    C11      C        0.39990    0.79390    0.21070    1.000
    C12      C        0.49200    0.79820    0.28630    1.000
    C13      C        0.94330    0.26310    0.19660    1.000
    C14      C        0.98000    0.36210    0.24080    1.000
    C15      C        0.42000    0.53430    0.49020    1.000
    C16      C        0.56780    0.97020    0.03320    1.000
    O1       O        0.45060    0.69830    0.66760    1.000
    O2       O        0.56530    0.82650    0.68160    1.000
    O3       O        0.60760    0.71700    0.88100    1.000
    O4       O        0.50910    0.58110    0.86220    1.000
    O5       O        0.39820    0.30010    0.69620    1.000
    O6       O        0.58000    0.31050    0.82640    1.000
    O7       O        0.54150    0.09280    0.68910    1.000
    O8       O        0.71120    0.10030    0.81840    1.000
    O9       O        0.95140    0.84020    0.82910    1.000
    O10      O        0.88830    0.67190    0.74810    1.000
    O11      O        0.12220    0.53630    0.74170    1.000
    O12      O        0.18670    0.71650    0.80660    1.000
    O13      O        0.59940    0.43940    0.60970    1.000
    O14      O        0.67770    0.43440    0.43550    1.000
    O15      O        0.44770    0.00870    0.87490    1.000
    O16      O        0.31570    0.10340    0.01590    1.000
    O17      O        0.54940    0.30170    0.33240    1.000
    O18      O        0.43470    0.17350    0.31840    1.000
    O19      O        0.39240    0.28300    0.11900    1.000
    O20      O        0.49090    0.41890    0.13780    1.000
    O21      O        0.60180    0.69990    0.30380    1.000
    O22      O        0.42000    0.68950    0.17360    1.000
    O23      O        0.45850    0.90720    0.31090    1.000
    O24      O        0.28880    0.89970    0.18160    1.000
    O25      O        0.04860    0.15980    0.17090    1.000
    O26      O        0.11170    0.32810    0.25190    1.000
    O27      O        0.87780    0.46370    0.25830    1.000
    O28      O        0.81330    0.28350    0.19340    1.000
    O29      O        0.40060    0.56060    0.39030    1.000
    O30      O        0.32230    0.56560    0.56450    1.000
    O31      O        0.55230    0.99130    0.12510    1.000
    O32      O        0.68430    0.89660    0.98410    1.000
