data_functionalizedCrystal
_audit_creation_method	'EQeq! by Chris Wilmer'
_symmetry_space_group_name_H-M	'P1'
_symmetry_Int_Tables_number	1
_symmetry_cell_setting	triclinic
loop_
_symmetry_equiv_pos_as_xyz
  x,y,z
_cell_length_a	17.1193
_cell_length_b	17.1193
_cell_length_c	17.1193
_cell_angle_alpha	98.2857
_cell_angle_beta	115.337
_cell_angle_gamma	115.337
loop_
_atom_site_label
_atom_site_type_symbol
_atom_site_fract_x
_atom_site_fract_y
_atom_site_fract_z
_atom_site_charge
Mof_Zn	Zn	0.38449	0.78687	0.848	1.212
Mof_Zn	Zn	0.88449	0.03649	0.59762	1.21
Mof_H 	H 	0.324	0.8861	0.9609	-0.009
Mof_H 	H 	0.2224	0.8158	0.6928	0.018
Mof_H 	H 	0.0964	0.883	0.6448	0.034
Mof_H 	H 	0.1098	0.9817	0.7957	0.118
Mof_H 	H 	0.5319	0.9902	0.8755	-0.008
Mof_H 	H 	0.4718	0.7586	0.7148	0.036
Mof_H 	H 	0.6149	0.8372	0.6685	0.04
Mof_H 	H 	0.7124	0.0297	0.7335	0.129
Mof_H 	H 	0.2115	0.9366	0.8947	0.147
Mof_H 	H 	0.6416	0.0324	0.82	0.156
Mof_H 	H 	0.824	0.8631	0.4379	-0.008
Mof_H 	H 	0.7224	0.0296	0.4066	0.011
Mof_H 	H 	0.5964	0.9516	0.2134	0.034
Mof_H 	H 	0.6098	0.8141	0.1281	0.125
Mof_H 	H 	0.0319	0.1564	0.5417	-0.009
Mof_H 	H 	0.9718	0.257	0.7132	0.03
Mof_H 	H 	0.1149	0.4464	0.7777	0.038
Mof_H 	H 	0.2124	0.4789	0.6827	0.132
Mof_H 	H 	0.7115	0.8168	0.2749	0.149
Mof_H 	H 	0.1416	0.3216	0.6092	0.156
Mof_C 	C 	0.2897	0.87873	0.89843	0.134
Mof_C 	C 	0.2337	0.84052	0.75142	-0.018
Mof_C 	C 	0.1893	0.88444	0.76894	0.053
Mof_C 	C 	0.1202	0.90632	0.70832	0.016
Mof_C 	C 	0.0867	0.95577	0.73267	-0.225
Mof_C 	C 	0.0133	0.97068	0.66198	0.371
Mof_C 	C 	0.5337	0.94862	0.83592	0.124
Mof_C 	C 	0.501	0.82206	0.74766	-0.021
Mof_C 	C 	0.5769	0.89505	0.74835	0.063
Mof_C 	C 	0.6296	0.89507	0.70127	0.014
Mof_C 	C 	0.6973	0.97144	0.70114	-0.215
Mof_C 	C 	0.75	0.96853	0.65193	0.379
Mof_C 	C 	0.7897	0.89127	0.41097	0.136
Mof_C 	C 	0.7337	0.98228	0.39318	-0.005
Mof_C 	C 	0.6893	0.92036	0.30486	0.049
Mof_C 	C 	0.6202	0.91188	0.21388	0.026
Mof_C 	C 	0.5867	0.85403	0.13093	-0.233
Mof_C 	C 	0.5133	0.85132	0.04262	0.393
Mof_C 	C 	0.0337	0.19778	0.58508	0.129
Mof_C 	C 	0.001	0.25334	0.67894	-0.009
Mof_C 	C 	0.0769	0.32855	0.68185	0.057
Mof_C 	C 	0.1296	0.42833	0.73453	0.019
Mof_C 	C 	0.1973	0.49616	0.72586	-0.22
Mof_C 	C 	0.25	0.59807	0.78147	0.376
Mof_N 	N 	0.2975	0.838	0.83262	-0.271
Mof_N 	N 	0.22653	0.90794	0.86355	-0.219
Mof_N 	N 	0.47388	0.85603	0.80295	-0.261
Mof_N 	N 	0.59645	0.9752	0.80595	-0.219
Mof_N 	N 	0.7975	0.96488	0.4595	-0.271
Mof_N 	N 	0.72653	0.86298	0.31859	-0.218
Mof_N 	N 	0.97388	0.17093	0.61785	-0.267
Mof_N 	N 	0.09645	0.2905	0.62125	-0.219
Mof_O 	O 	0.98491	0.01971	0.69348	-0.469
Mof_O 	O 	0.98248	0.94072	0.5788	-0.326
Mof_O 	O 	0.80798	0.04748	0.65386	-0.46
Mof_O 	O 	0.73724	0.89336	0.61238	-0.338
Mof_O 	O 	0.48491	0.79143	0.9652	-0.473
Mof_O 	O 	0.48248	0.90368	0.04176	-0.336
Mof_O 	O 	0.30798	0.65412	0.7605	-0.456
Mof_O 	O 	0.23724	0.62486	0.84388	-0.339
Mof_Zn	Zn	0.11551	0.96351	0.40238	1.209
Mof_Zn	Zn	0.61551	0.21313	0.152	1.211
Mof_H 	H 	0.176	0.1369	0.5621	-0.008
Mof_H 	H 	0.2776	0.9704	0.5934	0.011
Mof_H 	H 	0.4036	0.0484	0.7866	0.034
Mof_H 	H 	0.3902	0.1859	0.8719	0.125
Mof_H 	H 	0.9681	0.8436	0.4583	-0.009
Mof_H 	H 	0.0282	0.743	0.2868	0.03
Mof_H 	H 	0.8851	0.5536	0.2223	0.038
Mof_H 	H 	0.7876	0.5211	0.3173	0.132
Mof_H 	H 	0.2885	0.1832	0.7251	0.149
Mof_H 	H 	0.8584	0.6784	0.3908	0.156
Mof_H 	H 	0.676	0.1139	0.0391	-0.009
Mof_H 	H 	0.7776	0.1842	0.3072	0.018
Mof_H 	H 	0.9036	0.117	0.3552	0.034
Mof_H 	H 	0.8902	0.0183	0.2043	0.118
Mof_H 	H 	0.4681	0.0098	0.1245	-0.008
Mof_H 	H 	0.5282	0.2414	0.2852	0.036
Mof_H 	H 	0.3851	0.1628	0.3315	0.04
Mof_H 	H 	0.2876	0.9703	0.2665	0.129
Mof_H 	H 	0.7885	0.0634	0.1053	0.147
Mof_H 	H 	0.3584	0.9676	0.18	0.156
Mof_C 	C 	0.2103	0.10873	0.58903	0.136
Mof_C 	C 	0.2663	0.01772	0.60682	-0.005
Mof_C 	C 	0.3107	0.07964	0.69514	0.049
Mof_C 	C 	0.3798	0.08812	0.78612	0.026
Mof_C 	C 	0.4133	0.14597	0.86907	-0.233
Mof_C 	C 	0.4867	0.14868	0.95738	0.393
Mof_C 	C 	0.9663	0.80222	0.41492	0.129
Mof_C 	C 	0.999	0.74666	0.32106	-0.009
Mof_C 	C 	0.9231	0.67145	0.31815	0.057
Mof_C 	C 	0.8704	0.57167	0.26547	0.019
Mof_C 	C 	0.8027	0.50384	0.27414	-0.22
Mof_C 	C 	0.75	0.40193	0.21853	0.376
Mof_C 	C 	0.7103	0.12127	0.10157	0.134
Mof_C 	C 	0.7663	0.15948	0.24858	-0.018
Mof_C 	C 	0.8107	0.11556	0.23106	0.053
Mof_C 	C 	0.8798	0.09368	0.29168	0.016
Mof_C 	C 	0.9133	0.04423	0.26733	-0.225
Mof_C 	C 	0.9867	0.02932	0.33802	0.371
Mof_C 	C 	0.4663	0.05138	0.16408	0.124
Mof_C 	C 	0.499	0.17794	0.25234	-0.021
Mof_C 	C 	0.4231	0.10495	0.25165	0.063
Mof_C 	C 	0.3704	0.10493	0.29873	0.014
Mof_C 	C 	0.3027	0.02856	0.29886	-0.215
Mof_C 	C 	0.25	0.03147	0.34807	0.379
Mof_N 	N 	0.2025	0.03512	0.5405	-0.271
Mof_N 	N 	0.27347	0.13702	0.68141	-0.218
Mof_N 	N 	0.02612	0.82907	0.38215	-0.267
Mof_N 	N 	0.90355	0.7095	0.37875	-0.219
Mof_N 	N 	0.7025	0.162	0.16738	-0.271
Mof_N 	N 	0.77347	0.09206	0.13645	-0.219
Mof_N 	N 	0.52612	0.14397	0.19705	-0.261
Mof_N 	N 	0.40355	0.0248	0.19405	-0.219
Mof_O 	O 	0.51509	0.20857	0.0348	-0.473
Mof_O 	O 	0.51752	0.09632	0.95824	-0.336
Mof_O 	O 	0.69202	0.34588	0.2395	-0.456
Mof_O 	O 	0.76276	0.37514	0.15612	-0.339
Mof_O 	O 	0.01509	0.98029	0.30652	-0.469
Mof_O 	O 	0.01752	0.05928	0.4212	-0.326
Mof_O 	O 	0.19202	0.95252	0.34614	-0.46
Mof_O 	O 	0.26276	0.10664	0.38762	-0.338
Mof_Zn	Zn	0.06113	0.848	0.96351	1.208
Mof_Zn	Zn	0.56113	0.59762	0.21313	1.211
Mof_H 	H 	0.0748	0.9609	0.1369	-0.007
Mof_H 	H 	0.877	0.6928	0.9704	0.02
Mof_H 	H 	0.7618	0.6448	0.0484	0.034
Mof_H 	H 	0.814	0.7957	0.1859	0.125
Mof_H 	H 	0.8853	0.8755	0.8436	-0.007
Mof_H 	H 	0.9562	0.7148	0.743	0.037
Mof_H 	H 	0.8313	0.6685	0.5536	0.04
Mof_H 	H 	0.7038	0.7335	0.5211	0.132
Mof_H 	H 	0.9581	0.8947	0.1832	0.151
Mof_H 	H 	0.7876	0.82	0.6784	0.156
Mof_H 	H 	0.5748	0.4379	0.1139	-0.008
Mof_H 	H 	0.377	0.4066	0.1842	0.018
Mof_H 	H 	0.2618	0.2134	0.117	0.033
Mof_H 	H 	0.314	0.1281	0.0183	0.126
Mof_H 	H 	0.3853	0.5417	0.0098	-0.007
Mof_H 	H 	0.4562	0.7132	0.2414	0.036
Mof_H 	H 	0.3313	0.7777	0.1628	0.04
Mof_H 	H 	0.2038	0.6827	0.9703	0.127
Mof_H 	H 	0.4581	0.2749	0.0634	0.148
Mof_H 	H 	0.2876	0.6092	0.9676	0.154
Mof_C 	C 	0.0197	0.89843	0.10873	0.128
Mof_C 	C 	0.9109	0.75142	0.01772	-0.018
Mof_C 	C 	0.8845	0.76894	0.07964	0.053
Mof_C 	C 	0.802	0.70832	0.08812	0.022
Mof_C 	C 	0.7769	0.73267	0.14597	-0.231
Mof_C 	C 	0.6913	0.66198	0.14868	0.389
Mof_C 	C 	0.8873	0.83592	0.80222	0.125
Mof_C 	C 	0.9256	0.74766	0.74666	-0.02
Mof_C 	C 	0.8533	0.74835	0.67145	0.063
Mof_C 	C 	0.8062	0.70127	0.57167	0.015
Mof_C 	C 	0.7297	0.70114	0.50384	-0.218
Mof_C 	C 	0.6834	0.65193	0.40193	0.376
Mof_C 	C 	0.5197	0.41097	0.12127	0.135
Mof_C 	C 	0.4109	0.39318	0.15948	-0.016
Mof_C 	C 	0.3845	0.30486	0.11556	0.051
Mof_C 	C 	0.302	0.21388	0.09368	0.025
Mof_C 	C 	0.2769	0.13093	0.04423	-0.235
Mof_C 	C 	0.1913	0.04262	0.02932	0.398
Mof_C 	C 	0.3873	0.58508	0.05138	0.123
Mof_C 	C 	0.4256	0.67894	0.17794	-0.021
Mof_C 	C 	0.3533	0.68185	0.10495	0.063
Mof_C 	C 	0.3062	0.73453	0.10493	0.012
Mof_C 	C 	0.2297	0.72586	0.02856	-0.212
Mof_C 	C 	0.1834	0.78147	0.03147	0.379
Mof_N 	N 	0.99462	0.83262	0.03512	-0.266
Mof_N 	N 	0.95561	0.86355	0.13702	-0.216
Mof_N 	N 	0.94692	0.80295	0.82907	-0.258
Mof_N 	N 	0.83075	0.80595	0.7095	-0.219
Mof_N 	N 	0.49462	0.4595	0.162	-0.271
Mof_N 	N 	0.45561	0.31859	0.09206	-0.218
Mof_N 	N 	0.44692	0.61785	0.14397	-0.26
Mof_N 	N 	0.33075	0.62125	0.0248	-0.217
Mof_O 	O 	0.67377	0.69348	0.20857	-0.47
Mof_O 	O 	0.63808	0.5788	0.09632	-0.338
Mof_O 	O 	0.60638	0.65386	0.34588	-0.456
Mof_O 	O 	0.71902	0.61238	0.37514	-0.338
Mof_O 	O 	0.17377	0.9652	0.98029	-0.479
Mof_O 	O 	0.13808	0.04176	0.05928	-0.338
Mof_O 	O 	0.10638	0.7605	0.95252	-0.461
Mof_O 	O 	0.21902	0.84388	0.10664	-0.339
Mof_Zn	Zn	0.43887	0.40238	0.78687	1.211
Mof_Zn	Zn	0.93887	0.152	0.03649	1.208
Mof_H 	H 	0.4252	0.5621	0.8861	-0.008
Mof_H 	H 	0.623	0.5934	0.8158	0.018
Mof_H 	H 	0.7382	0.7866	0.883	0.033
Mof_H 	H 	0.686	0.8719	0.9817	0.126
Mof_H 	H 	0.6147	0.4583	0.9902	-0.007
Mof_H 	H 	0.5438	0.2868	0.7586	0.036
Mof_H 	H 	0.6687	0.2223	0.8372	0.04
Mof_H 	H 	0.7962	0.3173	0.0297	0.127
Mof_H 	H 	0.5419	0.7251	0.9366	0.148
Mof_H 	H 	0.7124	0.3908	0.0324	0.154
Mof_H 	H 	0.9252	0.0391	0.8631	-0.007
Mof_H 	H 	0.123	0.3072	0.0296	0.02
Mof_H 	H 	0.2382	0.3552	0.9516	0.034
Mof_H 	H 	0.186	0.2043	0.8141	0.125
Mof_H 	H 	0.1147	0.1245	0.1564	-0.007
Mof_H 	H 	0.0438	0.2852	0.257	0.037
Mof_H 	H 	0.1687	0.3315	0.4464	0.04
Mof_H 	H 	0.2962	0.2665	0.4789	0.132
Mof_H 	H 	0.0419	0.1053	0.8168	0.151
Mof_H 	H 	0.2124	0.18	0.3216	0.156
Mof_C 	C 	0.4803	0.58903	0.87873	0.135
Mof_C 	C 	0.5891	0.60682	0.84052	-0.016
Mof_C 	C 	0.6155	0.69514	0.88444	0.051
Mof_C 	C 	0.698	0.78612	0.90632	0.025
Mof_C 	C 	0.7231	0.86907	0.95577	-0.235
Mof_C 	C 	0.8087	0.95738	0.97068	0.398
Mof_C 	C 	0.6127	0.41492	0.94862	0.123
Mof_C 	C 	0.5744	0.32106	0.82206	-0.021
Mof_C 	C 	0.6467	0.31815	0.89505	0.063
Mof_C 	C 	0.6938	0.26547	0.89507	0.012
Mof_C 	C 	0.7703	0.27414	0.97144	-0.212
Mof_C 	C 	0.8166	0.21853	0.96853	0.379
Mof_C 	C 	0.9803	0.10157	0.89127	0.128
Mof_C 	C 	0.0891	0.24858	0.98228	-0.018
Mof_C 	C 	0.1155	0.23106	0.92036	0.053
Mof_C 	C 	0.198	0.29168	0.91188	0.022
Mof_C 	C 	0.2231	0.26733	0.85403	-0.231
Mof_C 	C 	0.3087	0.33802	0.85132	0.389
Mof_C 	C 	0.1127	0.16408	0.19778	0.125
Mof_C 	C 	0.0744	0.25234	0.25334	-0.02
Mof_C 	C 	0.1467	0.25165	0.32855	0.063
Mof_C 	C 	0.1938	0.29873	0.42833	0.015
Mof_C 	C 	0.2703	0.29886	0.49616	-0.218
Mof_C 	C 	0.3166	0.34807	0.59807	0.376
Mof_N 	N 	0.50538	0.5405	0.838	-0.271
Mof_N 	N 	0.54439	0.68141	0.90794	-0.218
Mof_N 	N 	0.55308	0.38215	0.85603	-0.26
Mof_N 	N 	0.66925	0.37875	0.9752	-0.217
Mof_N 	N 	0.00538	0.16738	0.96488	-0.266
Mof_N 	N 	0.04439	0.13645	0.86298	-0.216
Mof_N 	N 	0.05308	0.19705	0.17093	-0.258
Mof_N 	N 	0.16925	0.19405	0.2905	-0.219
Mof_O 	O 	0.82623	0.0348	0.01971	-0.479
Mof_O 	O 	0.86192	0.95824	0.94072	-0.338
Mof_O 	O 	0.89362	0.2395	0.04748	-0.461
Mof_O 	O 	0.78098	0.15612	0.89336	-0.339
Mof_O 	O 	0.32623	0.30652	0.79143	-0.47
Mof_O 	O 	0.36192	0.4212	0.90368	-0.338
Mof_O 	O 	0.39362	0.34614	0.65412	-0.456
Mof_O 	O 	0.28098	0.38762	0.62486	-0.338
_end
