data_functionalizedCrystal
_audit_creation_method	'EQeq! by Chris Wilmer'
_symmetry_space_group_name_H-M	'P1'
_symmetry_Int_Tables_number	1
_symmetry_cell_setting	triclinic
loop_
_symmetry_equiv_pos_as_xyz
  x,y,z
_cell_length_a	11.7152
_cell_length_b	13.5922
_cell_length_c	20.6532
_cell_angle_alpha	89.218
_cell_angle_beta	76.358
_cell_angle_gamma	67.393
loop_
_atom_site_label
_atom_site_type_symbol
_atom_site_fract_x
_atom_site_fract_y
_atom_site_fract_z
_atom_site_charge
Mof_W 	W 	0.79562	0.96724	0.91006	1.577
Mof_W 	W 	0.00212	0.74245	0.97159	1.167
Mof_W 	W 	0.73715	0.94049	0.08301	1.166
Mof_W 	W 	0.25645	0.80819	0.88267	1.195
Mof_W 	W 	0.78163	0.22624	0.94485	1.256
Mof_W 	W 	0.0483	0.04132	0.82793	0.85
Mof_Cu	Cu	0.6836	0.9392	0.7634	0.885
Mof_Cu	Cu	0.2929	0.8511	0.6089	0.83
Mof_Cu	Cu	0.5099	0.3162	0.7196	0.847
Mof_Cu	Cu	0.8705	0.5206	0.8451	0.852
Mof_Cu	Cu	0.5243	0.1916	0.8718	0.829
Mof_Cl	Cl	0.6161	0.1418	0.7686	-0.802
Mof_N 	N 	0.541	0.919	0.7401	-0.235
Mof_N 	N 	0.389	0.88	0.6715	-0.251
Mof_N 	N 	0.373	0.803	0.5148	-0.223
Mof_N 	N 	0.446	0.736	0.3803	-0.238
Mof_N 	N 	0.619	0.379	0.7523	-0.222
Mof_N 	N 	0.77	0.458	0.8074	-0.228
Mof_N 	N 	0.251	0.386	0.0762	-0.257
Mof_N 	N 	0.422	0.269	0.9528	-0.217
Mof_N 	N 	0.864	0.893	0.716	-0.274
Mof_N 	N 	0.121	0.858	0.6488	-0.193
Mof_N 	N 	0.323	0.377	0.7688	-0.245
Mof_N 	N 	0.06	0.46	0.8209	-0.257
Mof_O 	O 	0.913	0.925	0.993	-0.607
Mof_O 	O 	0.935	0.042	0.945	-0.867
Mof_O 	O 	0.098	0.873	0.983	-0.671
Mof_O 	O 	0.9	0.02	0.072	-0.805
Mof_O 	O 	0.855	0.799	0.0444	-0.485
Mof_O 	O 	0.112	0.71	0.0261	-0.55
Mof_O 	O 	0.699	0.948	0.8675	-0.577
Mof_O 	O 	0.701	0.969	0.9995	-0.418
Mof_O 	O 	0.899	0.822	0.9148	-0.453
Mof_O 	O 	0.724	0.117	0.924	-0.569
Mof_O 	O 	0.918	0.983	0.8395	-0.383
Mof_O 	O 	0.162	0.898	0.827	-0.412
Mof_O 	O 	0.149	0.734	0.8988	-0.469
Mof_O 	O 	0.676	0.086	0.1079	-0.532
Mof_O 	O 	0.703	0.237	0.0363	-0.543
Mof_O 	O 	0.837	0.91	0.1456	-0.469
Mof_O 	O 	0.911	0.179	0.8634	-0.388
Mof_C 	C 	0.539	0.823	0.739	0.001
Mof_H 	H 	0.5841	0.7718	0.764	-0.018
Mof_C 	C 	0.464	0.794	0.698	-0.025
Mof_H 	H 	0.4686	0.7251	0.6915	-0.012
Mof_C 	C 	0.384	0.973	0.683	0.157
Mof_H 	H 	0.3236	0.03	0.6689	-0.147
Mof_C 	C 	0.461	0.997	0.715	0.069
Mof_H 	H 	0.4571	0.0666	0.7193	-0.077
Mof_C 	C 	0.439	0.699	0.487	-0.057
Mof_H 	H 	0.456	0.6435	0.5149	0.01
Mof_C 	C 	0.479	0.675	0.419	0.077
Mof_H 	H 	0.5353	0.6052	0.4034	-0.042
Mof_C 	C 	0.394	0.837	0.397	0.021
Mof_H 	H 	0.3831	0.885	0.3641	0.019
Mof_C 	C 	0.349	0.88	0.47	-0.03
Mof_H 	H 	0.3092	0.9529	0.4839	0.012
Mof_C 	C 	0.746	0.327	0.743	-0.021
Mof_H 	H 	0.788	0.2628	0.7162	0.024
Mof_C 	C 	0.814	0.366	0.773	0.01
Mof_H 	H 	0.8994	0.3231	0.7685	0.016
Mof_C 	C 	0.572	0.478	0.783	-0.002
Mof_H 	H 	0.4886	0.523	0.7833	-0.016
Mof_C 	C 	0.638	0.514	0.812	-0.034
Mof_H 	H 	0.5958	0.5792	0.8377	0.004
Mof_C 	C 	0.322	0.29	0.07	0.084
Mof_H 	H 	0.3132	0.2567	0.1099	-0.049
Mof_C 	C 	0.413	0.222	0.017	-0.167
Mof_H 	H 	0.4645	0.1519	0.0211	0.027
Mof_C 	C 	0.351	0.376	0.957	0.101
Mof_H 	H 	0.3622	0.4135	0.9194	-0.041
Mof_C 	C 	0.25	0.436	0.022	-0.141
Mof_H 	H 	0.1907	0.5054	0.0227	-0.022
Mof_C 	C 	0.958	0.833	0.734	0.199
Mof_H 	H 	0.9438	0.7973	0.7722	-0.04
Mof_C 	C 	0.893	0.938	0.66	0.148
Mof_H 	H 	0.8263	0.9863	0.6441	-0.005
Mof_C 	C 	0.023	0.916	0.623	-0.155
Mof_H 	H 	0.0387	0.9421	0.5811	0.035
Mof_C 	C 	0.091	0.813	0.7	-0.149
Mof_H 	H 	0.1562	0.7647	0.7161	0.033
Mof_C 	C 	0.266	0.321	0.8	0.026
Mof_H 	H 	0.3157	0.2508	0.8046	-0.051
Mof_C 	C 	0.253	0.479	0.762	0.02
Mof_H 	H 	0.2936	0.5196	0.7384	-0.028
Mof_C 	C 	0.129	0.523	0.787	-0.067
Mof_H 	H 	0.085	0.595	0.7823	-0.012
Mof_C 	C 	0.13	0.36	0.828	-0.041
Mof_H 	H 	0.0926	0.3159	0.8507	-0.006
Mof_W 	W 	0.20438	0.03276	0.08994	1.456
Mof_W 	W 	0.99788	0.25755	0.02841	1.235
Mof_W 	W 	0.26285	0.05951	0.91699	1.153
Mof_W 	W 	0.74355	0.19181	0.11733	1.24
Mof_W 	W 	0.21837	0.77376	0.05515	1.067
Mof_W 	W 	0.9517	0.95868	0.17207	1.462
Mof_Cu	Cu	0.3164	0.0608	0.2366	0.84
Mof_Cu	Cu	0.7071	0.1489	0.3911	0.818
Mof_Cu	Cu	0.4901	0.6838	0.2804	0.847
Mof_Cu	Cu	0.1295	0.4794	0.1549	0.791
Mof_Cu	Cu	0.4757	0.8084	0.1282	0.833
Mof_Cl	Cl	0.3839	0.8582	0.2314	-0.732
Mof_N 	N 	0.459	0.081	0.2599	-0.224
Mof_N 	N 	0.611	0.12	0.3285	-0.223
Mof_N 	N 	0.627	0.197	0.4852	-0.227
Mof_N 	N 	0.554	0.264	0.6197	-0.24
Mof_N 	N 	0.381	0.621	0.2477	-0.222
Mof_N 	N 	0.23	0.542	0.1926	-0.248
Mof_N 	N 	0.749	0.614	0.9238	-0.266
Mof_N 	N 	0.578	0.731	0.0472	-0.273
Mof_N 	N 	0.136	0.107	0.284	-0.172
Mof_N 	N 	0.879	0.142	0.3512	-0.31
Mof_N 	N 	0.677	0.623	0.2312	-0.246
Mof_N 	N 	0.94	0.54	0.1791	-0.196
Mof_O 	O 	0.087	0.075	0.007	-0.843
Mof_O 	O 	0.065	0.958	0.055	-0.911
Mof_O 	O 	0.902	0.127	0.017	-0.742
Mof_O 	O 	0.1	0.98	0.928	-0.681
Mof_O 	O 	0.145	0.201	0.9556	-0.445
Mof_O 	O 	0.888	0.29	0.9739	-0.413
Mof_O 	O 	0.301	0.052	0.1325	-0.623
Mof_O 	O 	0.299	0.031	0.0005	-0.587
Mof_O 	O 	0.101	0.178	0.0852	-0.547
Mof_O 	O 	0.276	0.883	0.076	-0.5
Mof_O 	O 	0.082	0.017	0.1605	-0.607
Mof_O 	O 	0.838	0.102	0.173	-0.504
Mof_O 	O 	0.851	0.266	0.1012	-0.465
Mof_O 	O 	0.324	0.914	0.8921	-0.419
Mof_O 	O 	0.297	0.763	0.9637	-0.401
Mof_O 	O 	0.163	0.09	0.8544	-0.477
Mof_O 	O 	0.089	0.821	0.1366	-0.508
Mof_C 	C 	0.461	0.177	0.261	-0.007
Mof_H 	H 	0.4159	0.2282	0.236	-0.029
Mof_C 	C 	0.536	0.206	0.302	-0.039
Mof_H 	H 	0.5314	0.2749	0.3085	-0.013
Mof_C 	C 	0.616	0.027	0.317	-0.075
Mof_H 	H 	0.6764	0.97	0.3311	0.059
Mof_C 	C 	0.539	0.003	0.285	-0.142
Mof_H 	H 	0.5429	0.9334	0.2807	0.091
Mof_C 	C 	0.561	0.301	0.513	-0.062
Mof_H 	H 	0.544	0.3565	0.4851	0.009
Mof_C 	C 	0.521	0.325	0.581	0.075
Mof_H 	H 	0.4647	0.3948	0.5966	-0.049
Mof_C 	C 	0.606	0.163	0.603	0.015
Mof_H 	H 	0.6169	0.115	0.6359	-0.009
Mof_C 	C 	0.651	0.12	0.53	-0.042
Mof_H 	H 	0.6908	0.0471	0.5161	-0.017
Mof_C 	C 	0.254	0.673	0.257	-0.039
Mof_H 	H 	0.212	0.7372	0.2838	0.017
Mof_C 	C 	0.186	0.634	0.227	0.015
Mof_H 	H 	0.1006	0.6769	0.2315	-0.036
Mof_C 	C 	0.428	0.522	0.217	-0.013
Mof_H 	H 	0.5114	0.477	0.2167	-0.018
Mof_C 	C 	0.362	0.486	0.188	-0.039
Mof_H 	H 	0.4042	0.4208	0.1623	-0.008
Mof_C 	C 	0.678	0.71	0.93	0.079
Mof_H 	H 	0.6868	0.7433	0.8901	-0.027
Mof_C 	C 	0.587	0.778	0.983	0.015
Mof_H 	H 	0.5355	0.8481	0.9789	0.053
Mof_C 	C 	0.649	0.624	0.043	-0.155
Mof_H 	H 	0.6378	0.5865	0.0806	0.018
Mof_C 	C 	0.75	0.564	0.978	0.124
Mof_H 	H 	0.8093	0.4946	0.9773	-0.036
Mof_C 	C 	0.042	0.167	0.266	-0.177
Mof_H 	H 	0.0562	0.2027	0.2278	0.03
Mof_C 	C 	0.107	0.062	0.34	-0.22
Mof_H 	H 	0.1737	0.0137	0.3559	0.028
Mof_C 	C 	0.977	0.084	0.377	0.177
Mof_H 	H 	0.9613	0.0579	0.4189	-0.058
Mof_C 	C 	0.909	0.187	0.3	0.204
Mof_H 	H 	0.8438	0.2353	0.2839	-0.067
Mof_C 	C 	0.734	0.679	0.2	0.038
Mof_H 	H 	0.6843	0.7492	0.1954	-0.046
Mof_C 	C 	0.747	0.521	0.238	0.031
Mof_H 	H 	0.7064	0.4804	0.2616	-0.024
Mof_C 	C 	0.871	0.477	0.213	-0.059
Mof_H 	H 	0.915	0.405	0.2177	0.038
Mof_C 	C 	0.87	0.64	0.172	-0.036
Mof_H 	H 	0.9074	0.6841	0.1493	0.041
Mof_Si	Si	-0	0	-0	3.643
_end
