data_functionalizedCrystal
_audit_creation_method	'EQeq! by Chris Wilmer'
_symmetry_space_group_name_H-M	'P1'
_symmetry_Int_Tables_number	1
_symmetry_cell_setting	triclinic
loop_
_symmetry_equiv_pos_as_xyz
  x,y,z
_cell_length_a	18.583
_cell_length_b	18.583
_cell_length_c	35.68
_cell_angle_alpha	90
_cell_angle_beta	90
_cell_angle_gamma	90
loop_
_atom_site_label
_atom_site_type_symbol
_atom_site_fract_x
_atom_site_fract_y
_atom_site_fract_z
_atom_site_charge
Mof_O 	O 	0.1315	0.2336	0.2475	-0.402
Mof_O 	O 	0.1913	0.2921	0.20074	-0.411
Mof_C 	C 	0.135	0.2667	0.2161	0.343
Mof_C 	C 	0.0645	0.2774	0.19806	-0.092
Mof_C 	C 	0.0625	0.3072	0.1617	-0.008
Mof_H 	H 	0.1058	0.316	0.1495	0.045
Mof_C 	C 	0.0539	0.4032	0.0961	-0.055
Mof_H 	H 	0.0888	0.4146	0.1139	0.049
Mof_C 	C 	0.0533	0.4372	0.0616	-0.031
Mof_H 	H 	0.0882	0.4714	0.0559	0.031
Mof_C 	C 	0.9496	0.3686	0.0433	-0.039
Mof_C 	C 	0.9493	0.3342	0.0778	-0.047
Mof_H 	H 	0.9151	0.3565	0.0254	0.039
Mof_H 	H 	0.9142	0.2999	0.0831	0.045
Mof_O 	O 	0.6315	0.7336	0.7475	-0.4
Mof_O 	O 	0.6913	0.7921	0.70074	-0.409
Mof_C 	C 	0.635	0.7667	0.7161	0.345
Mof_C 	C 	0.5645	0.7774	0.69806	-0.093
Mof_C 	C 	0.5625	0.8072	0.6617	-0.006
Mof_H 	H 	0.6058	0.816	0.6495	0.046
Mof_C 	C 	0.5539	0.9032	0.5961	-0.054
Mof_H 	H 	0.5888	0.9146	0.6139	0.051
Mof_C 	C 	0.5533	0.9372	0.5616	-0.029
Mof_H 	H 	0.5882	0.9714	0.5559	0.035
Mof_C 	C 	0.4496	0.8686	0.5433	-0.041
Mof_C 	C 	0.4493	0.8342	0.5778	-0.052
Mof_H 	H 	0.4151	0.8565	0.5254	0.039
Mof_H 	H 	0.4142	0.7999	0.5831	0.047
Mof_O 	O 	0.8685	0.7664	0.2475	-0.398
Mof_O 	O 	0.8087	0.7079	0.20074	-0.409
Mof_C 	C 	0.865	0.7333	0.2161	0.343
Mof_C 	C 	0.9355	0.7226	0.19806	-0.085
Mof_C 	C 	0.9375	0.6928	0.1617	-0.001
Mof_H 	H 	0.8942	0.684	0.1495	0.045
Mof_C 	C 	0.9461	0.5968	0.0961	-0.05
Mof_H 	H 	0.9112	0.5854	0.1139	0.05
Mof_C 	C 	0.9467	0.5628	0.0616	-0.025
Mof_H 	H 	0.9118	0.5286	0.0559	0.031
Mof_C 	C 	0.0504	0.6314	0.0433	-0.043
Mof_C 	C 	0.0507	0.6658	0.0778	-0.05
Mof_H 	H 	0.0849	0.6435	0.0254	0.04
Mof_H 	H 	0.0858	0.7001	0.0831	0.047
Mof_O 	O 	0.3685	0.2664	0.7475	-0.4
Mof_O 	O 	0.3087	0.2079	0.70074	-0.41
Mof_C 	C 	0.365	0.2333	0.7161	0.345
Mof_C 	C 	0.4355	0.2226	0.69806	-0.093
Mof_C 	C 	0.4375	0.1928	0.6617	-0.007
Mof_H 	H 	0.3942	0.184	0.6495	0.046
Mof_C 	C 	0.4461	0.0968	0.5961	-0.053
Mof_H 	H 	0.4112	0.0854	0.6139	0.048
Mof_C 	C 	0.4467	0.0628	0.5616	-0.033
Mof_H 	H 	0.4118	0.0286	0.5559	0.03
Mof_C 	C 	0.5504	0.1314	0.5433	-0.047
Mof_C 	C 	0.5507	0.1658	0.5778	-0.047
Mof_H 	H 	0.5849	0.1435	0.5254	0.041
Mof_H 	H 	0.5858	0.2001	0.5831	0.046
Mof_O 	O 	0.7664	0.1315	0.2475	-0.4
Mof_O 	O 	0.7079	0.1913	0.20074	-0.41
Mof_C 	C 	0.7333	0.135	0.2161	0.343
Mof_C 	C 	0.7226	0.0645	0.19806	-0.09
Mof_C 	C 	0.6928	0.0625	0.1617	-0.007
Mof_H 	H 	0.684	0.1058	0.1495	0.046
Mof_C 	C 	0.5968	0.0539	0.0961	-0.054
Mof_H 	H 	0.5854	0.0888	0.1139	0.05
Mof_C 	C 	0.5628	0.0533	0.0616	-0.03
Mof_H 	H 	0.5286	0.0882	0.0559	0.032
Mof_C 	C 	0.6314	0.9496	0.0433	-0.038
Mof_C 	C 	0.6658	0.9493	0.0778	-0.045
Mof_H 	H 	0.6435	0.9151	0.0254	0.04
Mof_H 	H 	0.7001	0.9142	0.0831	0.047
Mof_O 	O 	0.2664	0.6315	0.7475	-0.4
Mof_O 	O 	0.2079	0.6913	0.70074	-0.41
Mof_C 	C 	0.2333	0.635	0.7161	0.345
Mof_C 	C 	0.2226	0.5645	0.69806	-0.093
Mof_C 	C 	0.1928	0.5625	0.6617	-0.007
Mof_H 	H 	0.184	0.6058	0.6495	0.046
Mof_C 	C 	0.0968	0.5539	0.5961	-0.053
Mof_H 	H 	0.0854	0.5888	0.6139	0.049
Mof_C 	C 	0.0628	0.5533	0.5616	-0.033
Mof_H 	H 	0.0286	0.5882	0.5559	0.03
Mof_C 	C 	0.1314	0.4496	0.5433	-0.047
Mof_C 	C 	0.1658	0.4493	0.5778	-0.047
Mof_H 	H 	0.1435	0.4151	0.5254	0.041
Mof_H 	H 	0.2001	0.4142	0.5831	0.046
Mof_O 	O 	0.2336	0.8685	0.2475	-0.399
Mof_O 	O 	0.2921	0.8087	0.20074	-0.409
Mof_C 	C 	0.2667	0.865	0.2161	0.343
Mof_C 	C 	0.2774	0.9355	0.19806	-0.086
Mof_C 	C 	0.3072	0.9375	0.1617	-0.001
Mof_H 	H 	0.316	0.8942	0.1495	0.045
Mof_C 	C 	0.4032	0.9461	0.0961	-0.05
Mof_H 	H 	0.4146	0.9112	0.1139	0.05
Mof_C 	C 	0.4372	0.9467	0.0616	-0.025
Mof_H 	H 	0.4714	0.9118	0.0559	0.031
Mof_C 	C 	0.3686	0.0504	0.0433	-0.043
Mof_C 	C 	0.3342	0.0507	0.0778	-0.051
Mof_H 	H 	0.3565	0.0849	0.0254	0.04
Mof_H 	H 	0.2999	0.0858	0.0831	0.046
Mof_O 	O 	0.7336	0.3685	0.7475	-0.4
Mof_O 	O 	0.7921	0.3087	0.70074	-0.409
Mof_C 	C 	0.7667	0.365	0.7161	0.345
Mof_C 	C 	0.7774	0.4355	0.69806	-0.093
Mof_C 	C 	0.8072	0.4375	0.6617	-0.006
Mof_H 	H 	0.816	0.3942	0.6495	0.046
Mof_C 	C 	0.9032	0.4461	0.5961	-0.053
Mof_H 	H 	0.9146	0.4112	0.6139	0.051
Mof_C 	C 	0.9372	0.4467	0.5616	-0.029
Mof_H 	H 	0.9714	0.4118	0.5559	0.035
Mof_C 	C 	0.8686	0.5504	0.5433	-0.041
Mof_C 	C 	0.8342	0.5507	0.5778	-0.052
Mof_H 	H 	0.8565	0.5849	0.5254	0.04
Mof_H 	H 	0.7999	0.5858	0.5831	0.048
Mof_O 	O 	0.8685	0.2336	0.7525	-0.399
Mof_O 	O 	0.8087	0.2921	0.79926	-0.409
Mof_C 	C 	0.865	0.2667	0.7839	0.343
Mof_C 	C 	0.9355	0.2774	0.80194	-0.086
Mof_C 	C 	0.9375	0.3072	0.8383	-0
Mof_H 	H 	0.8942	0.316	0.8505	0.045
Mof_C 	C 	0.9461	0.4032	0.9039	-0.05
Mof_H 	H 	0.9112	0.4146	0.8861	0.05
Mof_C 	C 	0.9467	0.4372	0.9384	-0.025
Mof_H 	H 	0.9118	0.4714	0.9441	0.031
Mof_C 	C 	0.0504	0.3686	0.9567	-0.042
Mof_C 	C 	0.0507	0.3342	0.9222	-0.051
Mof_H 	H 	0.0849	0.3565	0.9746	0.039
Mof_H 	H 	0.0858	0.2999	0.9169	0.046
Mof_O 	O 	0.3685	0.7336	0.2525	-0.4
Mof_O 	O 	0.3087	0.7921	0.29926	-0.409
Mof_C 	C 	0.365	0.7667	0.2839	0.345
Mof_C 	C 	0.4355	0.7774	0.30194	-0.093
Mof_C 	C 	0.4375	0.8072	0.3383	-0.006
Mof_H 	H 	0.3942	0.816	0.3505	0.046
Mof_C 	C 	0.4461	0.9032	0.4039	-0.053
Mof_H 	H 	0.4112	0.9146	0.3861	0.051
Mof_C 	C 	0.4467	0.9372	0.4384	-0.029
Mof_H 	H 	0.4118	0.9714	0.4441	0.035
Mof_C 	C 	0.5504	0.8686	0.4567	-0.041
Mof_C 	C 	0.5507	0.8342	0.4222	-0.052
Mof_H 	H 	0.5849	0.8565	0.4746	0.04
Mof_H 	H 	0.5858	0.7999	0.4169	0.048
Mof_O 	O 	0.1315	0.7664	0.7525	-0.4
Mof_O 	O 	0.1913	0.7079	0.79926	-0.41
Mof_C 	C 	0.135	0.7333	0.7839	0.343
Mof_C 	C 	0.0645	0.7226	0.80194	-0.09
Mof_C 	C 	0.0625	0.6928	0.8383	-0.007
Mof_H 	H 	0.1058	0.684	0.8505	0.046
Mof_C 	C 	0.0539	0.5968	0.9039	-0.054
Mof_H 	H 	0.0888	0.5854	0.8861	0.05
Mof_C 	C 	0.0533	0.5628	0.9384	-0.029
Mof_H 	H 	0.0882	0.5286	0.9441	0.032
Mof_C 	C 	0.9496	0.6314	0.9567	-0.037
Mof_C 	C 	0.9493	0.6658	0.9222	-0.046
Mof_H 	H 	0.9151	0.6435	0.9746	0.039
Mof_H 	H 	0.9142	0.7001	0.9169	0.047
Mof_O 	O 	0.6315	0.2664	0.2525	-0.4
Mof_O 	O 	0.6913	0.2079	0.29926	-0.41
Mof_C 	C 	0.635	0.2333	0.2839	0.345
Mof_C 	C 	0.5645	0.2226	0.30194	-0.093
Mof_C 	C 	0.5625	0.1928	0.3383	-0.007
Mof_H 	H 	0.6058	0.184	0.3505	0.046
Mof_C 	C 	0.5539	0.0968	0.4039	-0.053
Mof_H 	H 	0.5888	0.0854	0.3861	0.049
Mof_C 	C 	0.5533	0.0628	0.4384	-0.033
Mof_H 	H 	0.5882	0.0286	0.4441	0.03
Mof_C 	C 	0.4496	0.1314	0.4567	-0.047
Mof_C 	C 	0.4493	0.1658	0.4222	-0.047
Mof_H 	H 	0.4151	0.1435	0.4746	0.041
Mof_H 	H 	0.4142	0.2001	0.4169	0.046
Mof_O 	O 	0.2336	0.1315	0.7525	-0.401
Mof_O 	O 	0.2921	0.1913	0.79926	-0.41
Mof_C 	C 	0.2667	0.135	0.7839	0.344
Mof_C 	C 	0.2774	0.0645	0.80194	-0.091
Mof_C 	C 	0.3072	0.0625	0.8383	-0.007
Mof_H 	H 	0.316	0.1058	0.8505	0.046
Mof_C 	C 	0.4032	0.0539	0.9039	-0.054
Mof_H 	H 	0.4146	0.0888	0.8861	0.05
Mof_C 	C 	0.4372	0.0533	0.9384	-0.029
Mof_H 	H 	0.4714	0.0882	0.9441	0.032
Mof_C 	C 	0.3686	0.9496	0.9567	-0.038
Mof_C 	C 	0.3342	0.9493	0.9222	-0.046
Mof_H 	H 	0.3565	0.9151	0.9746	0.039
Mof_H 	H 	0.2999	0.9142	0.9169	0.046
Mof_O 	O 	0.7336	0.6315	0.2525	-0.4
Mof_O 	O 	0.7921	0.6913	0.29926	-0.409
Mof_C 	C 	0.7667	0.635	0.2839	0.345
Mof_C 	C 	0.7774	0.5645	0.30194	-0.093
Mof_C 	C 	0.8072	0.5625	0.3383	-0.006
Mof_H 	H 	0.816	0.6058	0.3505	0.046
Mof_C 	C 	0.9032	0.5539	0.4039	-0.054
Mof_H 	H 	0.9146	0.5888	0.3861	0.051
Mof_C 	C 	0.9372	0.5533	0.4384	-0.029
Mof_H 	H 	0.9714	0.5882	0.4441	0.035
Mof_C 	C 	0.8686	0.4496	0.4567	-0.041
Mof_C 	C 	0.8342	0.4493	0.4222	-0.052
Mof_H 	H 	0.8565	0.4151	0.4746	0.039
Mof_H 	H 	0.7999	0.4142	0.4169	0.047
Mof_O 	O 	0.7664	0.8685	0.7525	-0.398
Mof_O 	O 	0.7079	0.8087	0.79926	-0.409
Mof_C 	C 	0.7333	0.865	0.7839	0.343
Mof_C 	C 	0.7226	0.9355	0.80194	-0.086
Mof_C 	C 	0.6928	0.9375	0.8383	-0.001
Mof_H 	H 	0.684	0.8942	0.8505	0.045
Mof_C 	C 	0.5968	0.9461	0.9039	-0.05
Mof_H 	H 	0.5854	0.9112	0.8861	0.05
Mof_C 	C 	0.5628	0.9467	0.9384	-0.025
Mof_H 	H 	0.5286	0.9118	0.9441	0.031
Mof_C 	C 	0.6314	0.0504	0.9567	-0.042
Mof_C 	C 	0.6658	0.0507	0.9222	-0.051
Mof_H 	H 	0.6435	0.0849	0.9746	0.039
Mof_H 	H 	0.7001	0.0858	0.9169	0.047
Mof_O 	O 	0.2664	0.3685	0.2525	-0.4
Mof_O 	O 	0.2079	0.3087	0.29926	-0.41
Mof_C 	C 	0.2333	0.365	0.2839	0.345
Mof_C 	C 	0.2226	0.4355	0.30194	-0.093
Mof_C 	C 	0.1928	0.4375	0.3383	-0.007
Mof_H 	H 	0.184	0.3942	0.3505	0.046
Mof_C 	C 	0.0968	0.4461	0.4039	-0.053
Mof_H 	H 	0.0854	0.4112	0.3861	0.048
Mof_C 	C 	0.0628	0.4467	0.4384	-0.033
Mof_H 	H 	0.0286	0.4118	0.4441	0.03
Mof_C 	C 	0.1314	0.5504	0.4567	-0.047
Mof_C 	C 	0.1658	0.5507	0.4222	-0.047
Mof_H 	H 	0.1435	0.5849	0.4746	0.041
Mof_H 	H 	0.2001	0.5858	0.4169	0.046
Mof_O 	O 	0.8685	0.7664	0.7525	-0.398
Mof_O 	O 	0.8087	0.7079	0.79926	-0.409
Mof_C 	C 	0.865	0.7333	0.7839	0.343
Mof_C 	C 	0.9355	0.7226	0.80194	-0.086
Mof_C 	C 	0.9375	0.6928	0.8383	-0.001
Mof_H 	H 	0.8942	0.684	0.8505	0.045
Mof_C 	C 	0.9461	0.5968	0.9039	-0.05
Mof_H 	H 	0.9112	0.5854	0.8861	0.05
Mof_C 	C 	0.9467	0.5628	0.9384	-0.025
Mof_H 	H 	0.9118	0.5286	0.9441	0.031
Mof_C 	C 	0.0504	0.6314	0.9567	-0.042
Mof_C 	C 	0.0507	0.6658	0.9222	-0.051
Mof_H 	H 	0.0849	0.6435	0.9746	0.039
Mof_H 	H 	0.0858	0.7001	0.9169	0.047
Mof_O 	O 	0.3685	0.2664	0.2525	-0.4
Mof_O 	O 	0.3087	0.2079	0.29926	-0.41
Mof_C 	C 	0.365	0.2333	0.2839	0.345
Mof_C 	C 	0.4355	0.2226	0.30194	-0.093
Mof_C 	C 	0.4375	0.1928	0.3383	-0.007
Mof_H 	H 	0.3942	0.184	0.3505	0.046
Mof_C 	C 	0.4461	0.0968	0.4039	-0.053
Mof_H 	H 	0.4112	0.0854	0.3861	0.048
Mof_C 	C 	0.4467	0.0628	0.4384	-0.033
Mof_H 	H 	0.4118	0.0286	0.4441	0.03
Mof_C 	C 	0.5504	0.1314	0.4567	-0.047
Mof_C 	C 	0.5507	0.1658	0.4222	-0.047
Mof_H 	H 	0.5849	0.1435	0.4746	0.041
Mof_H 	H 	0.5858	0.2001	0.4169	0.046
Mof_O 	O 	0.1315	0.2336	0.7525	-0.401
Mof_O 	O 	0.1913	0.2921	0.79926	-0.41
Mof_C 	C 	0.135	0.2667	0.7839	0.344
Mof_C 	C 	0.0645	0.2774	0.80194	-0.091
Mof_C 	C 	0.0625	0.3072	0.8383	-0.007
Mof_H 	H 	0.1058	0.316	0.8505	0.046
Mof_C 	C 	0.0539	0.4032	0.9039	-0.054
Mof_H 	H 	0.0888	0.4146	0.8861	0.05
Mof_C 	C 	0.0533	0.4372	0.9384	-0.029
Mof_H 	H 	0.0882	0.4714	0.9441	0.032
Mof_C 	C 	0.9496	0.3686	0.9567	-0.038
Mof_C 	C 	0.9493	0.3342	0.9222	-0.046
Mof_H 	H 	0.9151	0.3565	0.9746	0.039
Mof_H 	H 	0.9142	0.2999	0.9169	0.046
Mof_O 	O 	0.6315	0.7336	0.2525	-0.4
Mof_O 	O 	0.6913	0.7921	0.29926	-0.409
Mof_C 	C 	0.635	0.7667	0.2839	0.345
Mof_C 	C 	0.5645	0.7774	0.30194	-0.093
Mof_C 	C 	0.5625	0.8072	0.3383	-0.006
Mof_H 	H 	0.6058	0.816	0.3505	0.046
Mof_C 	C 	0.5539	0.9032	0.4039	-0.054
Mof_H 	H 	0.5888	0.9146	0.3861	0.051
Mof_C 	C 	0.5533	0.9372	0.4384	-0.029
Mof_H 	H 	0.5882	0.9714	0.4441	0.035
Mof_C 	C 	0.4496	0.8686	0.4567	-0.041
Mof_C 	C 	0.4493	0.8342	0.4222	-0.052
Mof_H 	H 	0.4151	0.8565	0.4746	0.039
Mof_H 	H 	0.4142	0.7999	0.4169	0.047
Mof_O 	O 	0.2336	0.8685	0.7525	-0.399
Mof_O 	O 	0.2921	0.8087	0.79926	-0.409
Mof_C 	C 	0.2667	0.865	0.7839	0.343
Mof_C 	C 	0.2774	0.9355	0.80194	-0.086
Mof_C 	C 	0.3072	0.9375	0.8383	-0
Mof_H 	H 	0.316	0.8942	0.8505	0.045
Mof_C 	C 	0.4032	0.9461	0.9039	-0.05
Mof_H 	H 	0.4146	0.9112	0.8861	0.05
Mof_C 	C 	0.4372	0.9467	0.9384	-0.025
Mof_H 	H 	0.4714	0.9118	0.9441	0.031
Mof_C 	C 	0.3686	0.0504	0.9567	-0.042
Mof_C 	C 	0.3342	0.0507	0.9222	-0.051
Mof_H 	H 	0.3565	0.0849	0.9746	0.039
Mof_H 	H 	0.2999	0.0858	0.9169	0.046
Mof_O 	O 	0.7336	0.3685	0.2525	-0.4
Mof_O 	O 	0.7921	0.3087	0.29926	-0.409
Mof_C 	C 	0.7667	0.365	0.2839	0.345
Mof_C 	C 	0.7774	0.4355	0.30194	-0.093
Mof_C 	C 	0.8072	0.4375	0.3383	-0.006
Mof_H 	H 	0.816	0.3942	0.3505	0.046
Mof_C 	C 	0.9032	0.4461	0.4039	-0.053
Mof_H 	H 	0.9146	0.4112	0.3861	0.051
Mof_C 	C 	0.9372	0.4467	0.4384	-0.029
Mof_H 	H 	0.9714	0.4118	0.4441	0.035
Mof_C 	C 	0.8686	0.5504	0.4567	-0.041
Mof_C 	C 	0.8342	0.5507	0.4222	-0.052
Mof_H 	H 	0.8565	0.5849	0.4746	0.04
Mof_H 	H 	0.7999	0.5858	0.4169	0.048
Mof_O 	O 	0.7664	0.1315	0.7525	-0.4
Mof_O 	O 	0.7079	0.1913	0.79926	-0.41
Mof_C 	C 	0.7333	0.135	0.7839	0.343
Mof_C 	C 	0.7226	0.0645	0.80194	-0.09
Mof_C 	C 	0.6928	0.0625	0.8383	-0.007
Mof_H 	H 	0.684	0.1058	0.8505	0.046
Mof_C 	C 	0.5968	0.0539	0.9039	-0.054
Mof_H 	H 	0.5854	0.0888	0.8861	0.05
Mof_C 	C 	0.5628	0.0533	0.9384	-0.029
Mof_H 	H 	0.5286	0.0882	0.9441	0.032
Mof_C 	C 	0.6314	0.9496	0.9567	-0.037
Mof_C 	C 	0.6658	0.9493	0.9222	-0.046
Mof_H 	H 	0.6435	0.9151	0.9746	0.039
Mof_H 	H 	0.7001	0.9142	0.9169	0.047
Mof_O 	O 	0.2664	0.6315	0.2525	-0.4
Mof_O 	O 	0.2079	0.6913	0.29926	-0.41
Mof_C 	C 	0.2333	0.635	0.2839	0.345
Mof_C 	C 	0.2226	0.5645	0.30194	-0.093
Mof_C 	C 	0.1928	0.5625	0.3383	-0.007
Mof_H 	H 	0.184	0.6058	0.3505	0.046
Mof_C 	C 	0.0968	0.5539	0.4039	-0.053
Mof_H 	H 	0.0854	0.5888	0.3861	0.049
Mof_C 	C 	0.0628	0.5533	0.4384	-0.033
Mof_H 	H 	0.0286	0.5882	0.4441	0.03
Mof_C 	C 	0.1314	0.4496	0.4567	-0.047
Mof_C 	C 	0.1658	0.4493	0.4222	-0.047
Mof_H 	H 	0.1435	0.4151	0.4746	0.041
Mof_H 	H 	0.2001	0.4142	0.4169	0.046
Mof_O 	O 	0.1315	0.7664	0.2475	-0.4
Mof_O 	O 	0.1913	0.7079	0.20074	-0.41
Mof_C 	C 	0.135	0.7333	0.2161	0.343
Mof_C 	C 	0.0645	0.7226	0.19806	-0.09
Mof_C 	C 	0.0625	0.6928	0.1617	-0.007
Mof_H 	H 	0.1058	0.684	0.1495	0.046
Mof_C 	C 	0.0539	0.5968	0.0961	-0.054
Mof_H 	H 	0.0888	0.5854	0.1139	0.05
Mof_C 	C 	0.0533	0.5628	0.0616	-0.03
Mof_H 	H 	0.0882	0.5286	0.0559	0.032
Mof_C 	C 	0.9496	0.6314	0.0433	-0.038
Mof_C 	C 	0.9493	0.6658	0.0778	-0.045
Mof_H 	H 	0.9151	0.6435	0.0254	0.04
Mof_H 	H 	0.9142	0.7001	0.0831	0.047
Mof_O 	O 	0.6315	0.2664	0.7475	-0.4
Mof_O 	O 	0.6913	0.2079	0.70074	-0.41
Mof_C 	C 	0.635	0.2333	0.7161	0.345
Mof_C 	C 	0.5645	0.2226	0.69806	-0.093
Mof_C 	C 	0.5625	0.1928	0.6617	-0.007
Mof_H 	H 	0.6058	0.184	0.6495	0.046
Mof_C 	C 	0.5539	0.0968	0.5961	-0.053
Mof_H 	H 	0.5888	0.0854	0.6139	0.049
Mof_C 	C 	0.5533	0.0628	0.5616	-0.033
Mof_H 	H 	0.5882	0.0286	0.5559	0.03
Mof_C 	C 	0.4496	0.1314	0.5433	-0.047
Mof_C 	C 	0.4493	0.1658	0.5778	-0.047
Mof_H 	H 	0.4151	0.1435	0.5254	0.041
Mof_H 	H 	0.4142	0.2001	0.5831	0.046
Mof_O 	O 	0.8685	0.2336	0.2475	-0.399
Mof_O 	O 	0.8087	0.2921	0.20074	-0.409
Mof_C 	C 	0.865	0.2667	0.2161	0.343
Mof_C 	C 	0.9355	0.2774	0.19806	-0.086
Mof_C 	C 	0.9375	0.3072	0.1617	-0.001
Mof_H 	H 	0.8942	0.316	0.1495	0.045
Mof_C 	C 	0.9461	0.4032	0.0961	-0.05
Mof_H 	H 	0.9112	0.4146	0.1139	0.05
Mof_C 	C 	0.9467	0.4372	0.0616	-0.025
Mof_H 	H 	0.9118	0.4714	0.0559	0.031
Mof_C 	C 	0.0504	0.3686	0.0433	-0.043
Mof_C 	C 	0.0507	0.3342	0.0778	-0.051
Mof_H 	H 	0.0849	0.3565	0.0254	0.04
Mof_H 	H 	0.0858	0.2999	0.0831	0.046
Mof_O 	O 	0.3685	0.7336	0.7475	-0.4
Mof_O 	O 	0.3087	0.7921	0.70074	-0.409
Mof_C 	C 	0.365	0.7667	0.7161	0.345
Mof_C 	C 	0.4355	0.7774	0.69806	-0.093
Mof_C 	C 	0.4375	0.8072	0.6617	-0.006
Mof_H 	H 	0.3942	0.816	0.6495	0.046
Mof_C 	C 	0.4461	0.9032	0.5961	-0.053
Mof_H 	H 	0.4112	0.9146	0.6139	0.051
Mof_C 	C 	0.4467	0.9372	0.5616	-0.029
Mof_H 	H 	0.4118	0.9714	0.5559	0.035
Mof_C 	C 	0.5504	0.8686	0.5433	-0.041
Mof_C 	C 	0.5507	0.8342	0.5778	-0.052
Mof_H 	H 	0.5849	0.8565	0.5254	0.04
Mof_H 	H 	0.5858	0.7999	0.5831	0.048
Mof_O 	O 	0.7664	0.8685	0.2475	-0.398
Mof_O 	O 	0.7079	0.8087	0.20074	-0.409
Mof_C 	C 	0.7333	0.865	0.2161	0.343
Mof_C 	C 	0.7226	0.9355	0.19806	-0.085
Mof_C 	C 	0.6928	0.9375	0.1617	-0.001
Mof_H 	H 	0.684	0.8942	0.1495	0.045
Mof_C 	C 	0.5968	0.9461	0.0961	-0.05
Mof_H 	H 	0.5854	0.9112	0.1139	0.05
Mof_C 	C 	0.5628	0.9467	0.0616	-0.025
Mof_H 	H 	0.5286	0.9118	0.0559	0.031
Mof_C 	C 	0.6314	0.0504	0.0433	-0.043
Mof_C 	C 	0.6658	0.0507	0.0778	-0.05
Mof_H 	H 	0.6435	0.0849	0.0254	0.04
Mof_H 	H 	0.7001	0.0858	0.0831	0.047
Mof_O 	O 	0.2664	0.3685	0.7475	-0.4
Mof_O 	O 	0.2079	0.3087	0.70074	-0.41
Mof_C 	C 	0.2333	0.365	0.7161	0.345
Mof_C 	C 	0.2226	0.4355	0.69806	-0.093
Mof_C 	C 	0.1928	0.4375	0.6617	-0.007
Mof_H 	H 	0.184	0.3942	0.6495	0.046
Mof_C 	C 	0.0968	0.4461	0.5961	-0.053
Mof_H 	H 	0.0854	0.4112	0.6139	0.048
Mof_C 	C 	0.0628	0.4467	0.5616	-0.033
Mof_H 	H 	0.0286	0.4118	0.5559	0.03
Mof_C 	C 	0.1314	0.5504	0.5433	-0.047
Mof_C 	C 	0.1658	0.5507	0.5778	-0.047
Mof_H 	H 	0.1435	0.5849	0.5254	0.041
Mof_H 	H 	0.2001	0.5858	0.5831	0.046
Mof_O 	O 	0.2336	0.1315	0.2475	-0.401
Mof_O 	O 	0.2921	0.1913	0.20074	-0.41
Mof_C 	C 	0.2667	0.135	0.2161	0.344
Mof_C 	C 	0.2774	0.0645	0.19806	-0.091
Mof_C 	C 	0.3072	0.0625	0.1617	-0.007
Mof_H 	H 	0.316	0.1058	0.1495	0.046
Mof_C 	C 	0.4032	0.0539	0.0961	-0.054
Mof_H 	H 	0.4146	0.0888	0.1139	0.05
Mof_C 	C 	0.4372	0.0533	0.0616	-0.03
Mof_H 	H 	0.4714	0.0882	0.0559	0.032
Mof_C 	C 	0.3686	0.9496	0.0433	-0.038
Mof_C 	C 	0.3342	0.9493	0.0778	-0.046
Mof_H 	H 	0.3565	0.9151	0.0254	0.04
Mof_H 	H 	0.2999	0.9142	0.0831	0.046
Mof_O 	O 	0.7336	0.6315	0.7475	-0.4
Mof_O 	O 	0.7921	0.6913	0.70074	-0.409
Mof_C 	C 	0.7667	0.635	0.7161	0.345
Mof_C 	C 	0.7774	0.5645	0.69806	-0.093
Mof_C 	C 	0.8072	0.5625	0.6617	-0.006
Mof_H 	H 	0.816	0.6058	0.6495	0.046
Mof_C 	C 	0.9032	0.5539	0.5961	-0.054
Mof_H 	H 	0.9146	0.5888	0.6139	0.051
Mof_C 	C 	0.9372	0.5533	0.5616	-0.029
Mof_H 	H 	0.9714	0.5882	0.5559	0.035
Mof_C 	C 	0.8686	0.4496	0.5433	-0.041
Mof_C 	C 	0.8342	0.4493	0.5778	-0.052
Mof_H 	H 	0.8565	0.4151	0.5254	0.039
Mof_H 	H 	0.7999	0.4142	0.5831	0.047
Mof_Cu	Cu	0.21591	0.21591	0.27734	0.914
Mof_Cu	Cu	0.71591	0.71591	0.77734	0.915
Mof_Cu	Cu	0.78409	0.78409	0.27734	0.915
Mof_Cu	Cu	0.28409	0.28409	0.77734	0.915
Mof_Cu	Cu	0.78409	0.21591	0.27734	0.915
Mof_Cu	Cu	0.28409	0.71591	0.77734	0.915
Mof_Cu	Cu	0.21591	0.78409	0.27734	0.915
Mof_Cu	Cu	0.71591	0.28409	0.77734	0.915
Mof_Cu	Cu	0.78409	0.21591	0.72266	0.915
Mof_Cu	Cu	0.28409	0.71591	0.22266	0.915
Mof_Cu	Cu	0.21591	0.78409	0.72266	0.915
Mof_Cu	Cu	0.71591	0.28409	0.22266	0.915
Mof_Cu	Cu	0.21591	0.21591	0.72266	0.914
Mof_Cu	Cu	0.71591	0.71591	0.22266	0.915
Mof_Cu	Cu	0.78409	0.78409	0.72266	0.915
Mof_Cu	Cu	0.28409	0.28409	0.22266	0.915
Mof_C 	C 	1.54346e-33	0.2642	0.2144	0.034
Mof_H 	H 	1.71624e-33	0.2448	0.2384	0.049
Mof_C 	C 	3.08255e-33	0.3237	0.1436	-0.032
Mof_C 	C 	5.88681e-33	0.42	0.0351	0.027
Mof_C 	C 	6.89573e-33	0.3504	0.1041	0.048
Mof_C 	C 	0.5	0.7642	0.7144	0.044
Mof_H 	H 	0.5	0.7448	0.7384	0.048
Mof_C 	C 	0.5	0.8237	0.6436	-0.027
Mof_C 	C 	0.5	0.92	0.5351	0.031
Mof_C 	C 	0.5	0.8504	0.6041	0.056
Mof_C 	C 	1.54346e-33	0.7358	0.2144	0.033
Mof_H 	H 	-2.38131e-33	0.7552	0.2384	0.05
Mof_C 	C 	-1.015e-33	0.6763	0.1436	-0.032
Mof_C 	C 	1.78926e-33	0.58	0.0351	0.027
Mof_C 	C 	2.79819e-33	0.6496	0.1041	0.048
Mof_C 	C 	0.5	0.2358	0.7144	0.044
Mof_H 	H 	0.5	0.2552	0.7384	0.048
Mof_C 	C 	0.5	0.1763	0.6436	-0.026
Mof_C 	C 	0.5	0.08	0.5351	0.043
Mof_C 	C 	0.5	0.1496	0.6041	0.052
Mof_C 	C 	0.7358	0	0.2144	0.033
Mof_H 	H 	0.7552	0	0.2384	0.05
Mof_C 	C 	0.6763	-2.04877e-33	0.1436	-0.032
Mof_C 	C 	0.58	0	0.0351	0.027
Mof_C 	C 	0.6496	0	0.1041	0.048
Mof_C 	C 	0.2358	0.5	0.7144	0.044
Mof_H 	H 	0.2552	0.5	0.7384	0.048
Mof_C 	C 	0.1763	0.5	0.6436	-0.026
Mof_C 	C 	0.08	0.5	0.5351	0.043
Mof_C 	C 	0.1496	0.5	0.6041	0.052
Mof_C 	C 	0.2642	0	0.2144	0.034
Mof_H 	H 	0.2448	0	0.2384	0.049
Mof_C 	C 	0.3237	-2.04877e-33	0.1436	-0.032
Mof_C 	C 	0.42	0	0.0351	0.027
Mof_C 	C 	0.3504	0	0.1041	0.048
Mof_C 	C 	0.7642	0.5	0.7144	0.044
Mof_H 	H 	0.7448	0.5	0.7384	0.048
Mof_C 	C 	0.8237	0.5	0.6436	-0.027
Mof_C 	C 	0.92	0.5	0.5351	0.031
Mof_C 	C 	0.8504	0.5	0.6041	0.056
Mof_C 	C 	5.65552e-33	0.2642	0.7856	0.034
Mof_H 	H 	-1.09074e-32	0.2448	0.7616	0.049
Mof_C 	C 	6.1652e-33	0.3237	0.8564	-0.032
Mof_C 	C 	2.33365e-32	0.42	0.9649	0.026
Mof_C 	C 	6.44956e-33	0.3504	0.8959	0.048
Mof_C 	C 	0.5	0.7642	0.2856	0.044
Mof_H 	H 	0.5	0.7448	0.2616	0.048
Mof_C 	C 	0.5	0.8237	0.3564	-0.027
Mof_C 	C 	0.5	0.92	0.4649	0.031
Mof_C 	C 	0.5	0.8504	0.3959	0.056
Mof_C 	C 	5.65552e-33	0.7358	0.7856	0.033
Mof_H 	H 	-1.09074e-32	0.7552	0.7616	0.05
Mof_C 	C 	6.1652e-33	0.6763	0.8564	-0.032
Mof_C 	C 	2.33365e-32	0.58	0.9649	0.026
Mof_C 	C 	-2.63308e-32	0.6496	0.8959	0.048
Mof_C 	C 	0.5	0.2358	0.2856	0.044
Mof_H 	H 	0.5	0.2552	0.2616	0.048
Mof_C 	C 	0.5	0.1763	0.3564	-0.026
Mof_C 	C 	0.5	0.08	0.4649	0.043
Mof_C 	C 	0.5	0.1496	0.3959	0.052
Mof_C 	C 	0.2642	0	0.7856	0.034
Mof_H 	H 	0.2448	0	0.7616	0.049
Mof_C 	C 	0.3237	0	0.8564	-0.032
Mof_C 	C 	0.42	1.63902e-32	0.9649	0.026
Mof_C 	C 	0.3504	-1.63902e-32	0.8959	0.048
Mof_C 	C 	0.7642	0.5	0.2856	0.044
Mof_H 	H 	0.7448	0.5	0.2616	0.048
Mof_C 	C 	0.8237	0.5	0.3564	-0.027
Mof_C 	C 	0.92	0.5	0.4649	0.031
Mof_C 	C 	0.8504	0.5	0.3959	0.056
Mof_C 	C 	0.7358	0	0.7856	0.033
Mof_H 	H 	0.7552	0	0.7616	0.05
Mof_C 	C 	0.6763	0	0.8564	-0.032
Mof_C 	C 	0.58	1.63902e-32	0.9649	0.026
Mof_C 	C 	0.6496	-1.63902e-32	0.8959	0.048
Mof_C 	C 	0.2358	0.5	0.2856	0.044
Mof_H 	H 	0.2552	0.5	0.2616	0.048
Mof_C 	C 	0.1763	0.5	0.3564	-0.026
Mof_C 	C 	0.08	0.5	0.4649	0.043
Mof_C 	C 	0.1496	0.5	0.3959	0.052
Mof_C 	C 	4.09755e-33	0.469	-0	-0.031
Mof_C 	C 	0.5	0.969	0.5	-0.017
Mof_C 	C 	-0	0.531	-0	-0.031
Mof_C 	C 	0.5	0.031	0.5	-0.05
Mof_C 	C 	0.531	0	-0	-0.031
Mof_C 	C 	0.031	0.5	0.5	-0.05
Mof_C 	C 	0.469	0	-0	-0.031
Mof_C 	C 	0.969	0.5	0.5	-0.017
_end
