data_functionalizedCrystal
_audit_creation_method	'EQeq! by Chris Wilmer'
_symmetry_space_group_name_H-M	'P1'
_symmetry_Int_Tables_number	1
_symmetry_cell_setting	triclinic
loop_
_symmetry_equiv_pos_as_xyz
  x,y,z
_cell_length_a	15.0401
_cell_length_b	12.5366
_cell_length_c	16.532
_cell_angle_alpha	90
_cell_angle_beta	90
_cell_angle_gamma	90
loop_
_atom_site_label
_atom_site_type_symbol
_atom_site_fract_x
_atom_site_fract_y
_atom_site_fract_z
_atom_site_charge
Mof_Mn	Mn	0.6038	0.48718	0.5835	0.957
Mof_O 	O 	0.5928	0.3554	0.6734	-0.33
Mof_O 	O 	0.668	0.4933	0.7097	-0.31
Mof_O 	O 	0.5287	0.3808	0.5079	-0.375
Mof_O 	O 	0.4999	0.5892	0.62165	-0.36
Mof_O 	O 	0.6998	0.6354	0.5569	-0.305
Mof_O 	O 	0.7069	0.4888	0.4906	-0.357
Mof_C 	C 	0.6333	0.4053	0.7246	0.363
Mof_C 	C 	0.6395	0.3634	0.8098	-0.153
Mof_C 	C 	0.5915	0.2729	0.8326	0.146
Mof_C 	C 	0.6934	0.4125	0.8671	0.137
Mof_C 	C 	0.5963	0.2323	0.9106	-0.172
Mof_C 	C 	0.7018	0.3698	0.9444	-0.152
Mof_C 	C 	0.5388	0.1398	0.9338	0.401
Mof_C 	C 	0.6523	0.2807	0.9655	0.141
Mof_C 	C 	0.7688	0.4204	0.0019	0.368
Mof_Mn	Mn	0.8962	0.51282	0.0835	0.956
Mof_O 	O 	0.9072	0.6446	0.1734	-0.329
Mof_O 	O 	0.832	0.5067	0.2097	-0.31
Mof_O 	O 	0.9713	0.6192	0.0079	-0.377
Mof_O 	O 	0.0001	0.4108	0.12165	-0.36
Mof_O 	O 	0.8002	0.3646	0.0569	-0.305
Mof_O 	O 	0.7931	0.5112	0.9906	-0.354
Mof_C 	C 	0.8667	0.5947	0.2246	0.363
Mof_C 	C 	0.8605	0.6366	0.3098	-0.153
Mof_C 	C 	0.9085	0.7271	0.3326	0.146
Mof_C 	C 	0.8066	0.5875	0.3671	0.138
Mof_C 	C 	0.9037	0.7677	0.4106	-0.171
Mof_C 	C 	0.7982	0.6302	0.4444	-0.154
Mof_C 	C 	0.9612	0.8602	0.4338	0.398
Mof_C 	C 	0.8477	0.7193	0.4655	0.14
Mof_C 	C 	0.7312	0.5796	0.5019	0.372
Mof_Mn	Mn	0.3962	0.98718	0.9165	0.954
Mof_O 	O 	0.4072	0.8554	0.8266	-0.329
Mof_O 	O 	0.332	0.9933	0.7903	-0.31
Mof_O 	O 	0.4713	0.8808	0.9921	-0.378
Mof_O 	O 	0.5001	0.0892	0.87835	-0.359
Mof_O 	O 	0.3002	0.1354	0.9431	-0.304
Mof_O 	O 	0.2931	0.9888	0.0094	-0.353
Mof_C 	C 	0.3667	0.9053	0.7754	0.363
Mof_C 	C 	0.3605	0.8634	0.6902	-0.153
Mof_C 	C 	0.4085	0.7729	0.6674	0.146
Mof_C 	C 	0.3066	0.9125	0.6329	0.138
Mof_C 	C 	0.4037	0.7323	0.5894	-0.171
Mof_C 	C 	0.2982	0.8698	0.5556	-0.154
Mof_C 	C 	0.4612	0.6398	0.5662	0.398
Mof_C 	C 	0.3477	0.7807	0.5345	0.14
Mof_C 	C 	0.2312	0.9204	0.4981	0.372
Mof_Mn	Mn	0.1038	0.01282	0.4165	0.958
Mof_O 	O 	0.0928	0.1446	0.3266	-0.329
Mof_O 	O 	0.168	0.0067	0.2903	-0.31
Mof_O 	O 	0.0287	0.1192	0.4921	-0.375
Mof_O 	O 	0.9999	0.9108	0.37835	-0.36
Mof_O 	O 	0.1998	0.8646	0.4431	-0.304
Mof_O 	O 	0.2069	0.0112	0.5094	-0.357
Mof_C 	C 	0.1333	0.0947	0.2754	0.363
Mof_C 	C 	0.1395	0.1366	0.1902	-0.153
Mof_C 	C 	0.0915	0.2271	0.1674	0.146
Mof_C 	C 	0.1934	0.0875	0.1329	0.137
Mof_C 	C 	0.0963	0.2677	0.0894	-0.172
Mof_C 	C 	0.2018	0.1302	0.0556	-0.155
Mof_C 	C 	0.0388	0.3602	0.0662	0.4
Mof_C 	C 	0.1523	0.2193	0.0345	0.14
Mof_C 	C 	0.2688	0.0796	0.9981	0.371
Mof_Mn	Mn	0.3962	0.51282	0.4165	0.958
Mof_O 	O 	0.4072	0.6446	0.3266	-0.329
Mof_O 	O 	0.332	0.5067	0.2903	-0.31
Mof_O 	O 	0.4713	0.6192	0.4921	-0.375
Mof_O 	O 	0.5001	0.4108	0.37835	-0.36
Mof_O 	O 	0.3002	0.3646	0.4431	-0.305
Mof_O 	O 	0.2931	0.5112	0.5094	-0.357
Mof_C 	C 	0.3667	0.5947	0.2754	0.363
Mof_C 	C 	0.3605	0.6366	0.1902	-0.153
Mof_C 	C 	0.4085	0.7271	0.1674	0.146
Mof_C 	C 	0.3066	0.5875	0.1329	0.137
Mof_C 	C 	0.4037	0.7677	0.0894	-0.172
Mof_C 	C 	0.2982	0.6302	0.0556	-0.152
Mof_C 	C 	0.4612	0.8602	0.0662	0.401
Mof_C 	C 	0.3477	0.7193	0.0345	0.141
Mof_C 	C 	0.2312	0.5796	0.9981	0.368
Mof_Mn	Mn	0.1038	0.48718	0.9165	0.956
Mof_O 	O 	0.0928	0.3554	0.8266	-0.329
Mof_O 	O 	0.168	0.4933	0.7903	-0.31
Mof_O 	O 	0.0287	0.3808	0.9921	-0.377
Mof_O 	O 	0.9999	0.5892	0.87835	-0.36
Mof_O 	O 	0.1998	0.6354	0.9431	-0.305
Mof_O 	O 	0.2069	0.4888	0.0094	-0.354
Mof_C 	C 	0.1333	0.4053	0.7754	0.363
Mof_C 	C 	0.1395	0.3634	0.6902	-0.153
Mof_C 	C 	0.0915	0.2729	0.6674	0.146
Mof_C 	C 	0.1934	0.4125	0.6329	0.138
Mof_C 	C 	0.0963	0.2323	0.5894	-0.171
Mof_C 	C 	0.2018	0.3698	0.5556	-0.154
Mof_C 	C 	0.0388	0.1398	0.5662	0.398
Mof_C 	C 	0.1523	0.2807	0.5345	0.14
Mof_C 	C 	0.2688	0.4204	0.4981	0.372
Mof_Mn	Mn	0.6038	0.01282	0.0835	0.954
Mof_O 	O 	0.5928	0.1446	0.1734	-0.329
Mof_O 	O 	0.668	0.0067	0.2097	-0.31
Mof_O 	O 	0.5287	0.1192	0.0079	-0.378
Mof_O 	O 	0.4999	0.9108	0.12165	-0.359
Mof_O 	O 	0.6998	0.8646	0.0569	-0.304
Mof_O 	O 	0.7069	0.0112	0.9906	-0.353
Mof_C 	C 	0.6333	0.0947	0.2246	0.363
Mof_C 	C 	0.6395	0.1366	0.3098	-0.153
Mof_C 	C 	0.5915	0.2271	0.3326	0.146
Mof_C 	C 	0.6934	0.0875	0.3671	0.138
Mof_C 	C 	0.5963	0.2677	0.4106	-0.171
Mof_C 	C 	0.7018	0.1302	0.4444	-0.154
Mof_C 	C 	0.5388	0.3602	0.4338	0.398
Mof_C 	C 	0.6523	0.2193	0.4655	0.14
Mof_C 	C 	0.7688	0.0796	0.5019	0.372
Mof_Mn	Mn	0.8962	0.98718	0.5835	0.958
Mof_O 	O 	0.9072	0.8554	0.6734	-0.329
Mof_O 	O 	0.832	0.9933	0.7097	-0.31
Mof_O 	O 	0.9713	0.8808	0.5079	-0.375
Mof_O 	O 	0.0001	0.0892	0.62165	-0.36
Mof_O 	O 	0.8002	0.1354	0.5569	-0.304
Mof_O 	O 	0.7931	0.9888	0.4906	-0.357
Mof_C 	C 	0.8667	0.9053	0.7246	0.363
Mof_C 	C 	0.8605	0.8634	0.8098	-0.153
Mof_C 	C 	0.9085	0.7729	0.8326	0.146
Mof_C 	C 	0.8066	0.9125	0.8671	0.137
Mof_C 	C 	0.9037	0.7323	0.9106	-0.172
Mof_C 	C 	0.7982	0.8698	0.9444	-0.155
Mof_C 	C 	0.9612	0.6398	0.9338	0.4
Mof_C 	C 	0.8477	0.7807	0.9655	0.14
Mof_C 	C 	0.7312	0.9204	0.0019	0.371
_end
