data_functionalizedCrystal
_audit_creation_method	'EQeq! by Chris Wilmer'
_symmetry_space_group_name_H-M	'P1'
_symmetry_Int_Tables_number	1
_symmetry_cell_setting	triclinic
loop_
_symmetry_equiv_pos_as_xyz
  x,y,z
_cell_length_a	10.366
_cell_length_b	10.4724
_cell_length_c	12.9582
_cell_angle_alpha	95.243
_cell_angle_beta	102.189
_cell_angle_gamma	106.434
loop_
_atom_site_label
_atom_site_type_symbol
_atom_site_fract_x
_atom_site_fract_y
_atom_site_fract_z
_atom_site_charge
Mof_Cu	Cu	0.81163	0.22564	0.24017	0.949
Mof_S 	S 	0.26676	0.21993	0.21507	0.008
Mof_S 	S 	0.81864	0.75839	0.27704	0.107
Mof_C 	C 	0.0893	0.3037	0.3175	0.38
Mof_C 	C 	0.2324	0.3015	0.3221	-0.116
Mof_C 	C 	0.3475	0.3507	0.4061	-0.016
Mof_H 	H 	0.3482	0.3977	0.4708	0.032
Mof_C 	C 	0.4653	0.3222	0.3837	-0.003
Mof_H 	H 	0.5522	0.3489	0.4317	0.031
Mof_C 	C 	0.4366	0.2511	0.2836	-0.119
Mof_C 	C 	0.5306	0.2008	0.2311	0.396
Mof_C 	C 	0.7648	0.9713	0.1801	0.447
Mof_C 	C 	0.7587	0.8275	0.1692	-0.138
Mof_C 	C 	0.7076	0.7342	0.0779	0.001
Mof_H 	H 	0.669	0.7529	0.0117	0.01
Mof_C 	C 	0.7194	0.6075	0.0948	-0.009
Mof_H 	H 	0.6902	0.5332	0.0408	0.022
Mof_C 	C 	0.7779	0.6045	0.1983	-0.122
Mof_C 	C 	0.8099	0.4905	0.247	0.399
Mof_O 	O 	0.0024	0.2603	0.2275	-0.454
Mof_O 	O 	0.0615	0.3429	0.4013	-0.489
Mof_O 	O 	0.6468	0.2102	0.2914	-0.426
Mof_O 	O 	0.4893	0.1546	0.1343	-0.472
Mof_O 	O 	0.8164	0.0435	0.2722	-0.402
Mof_O 	O 	0.7198	0.0172	0.0989	-0.512
Mof_O 	O 	0.8477	0.5042	0.3459	-0.431
Mof_O 	O 	0.7944	0.3862	0.1816	-0.406
Mof_Cu	Cu	0.18837	0.77436	0.75983	0.915
Mof_S 	S 	0.73324	0.78007	0.78493	0.144
Mof_S 	S 	0.18136	0.24161	0.72296	0.018
Mof_C 	C 	0.9107	0.6963	0.6825	0.381
Mof_C 	C 	0.7676	0.6985	0.6779	-0.106
Mof_C 	C 	0.6525	0.6493	0.5939	-0.011
Mof_H 	H 	0.6518	0.6023	0.5292	0.037
Mof_C 	C 	0.5347	0.6778	0.6163	0.013
Mof_H 	H 	0.4478	0.6511	0.5683	0.024
Mof_C 	C 	0.5634	0.7489	0.7164	-0.124
Mof_C 	C 	0.4694	0.7992	0.7689	0.405
Mof_C 	C 	0.2352	0.0287	0.8199	0.238
Mof_C 	C 	0.2413	0.1725	0.8308	-0.069
Mof_C 	C 	0.2924	0.2658	0.9221	-0.046
Mof_H 	H 	0.331	0.2471	0.9883	0.073
Mof_C 	C 	0.2806	0.3925	0.9052	0.02
Mof_H 	H 	0.3098	0.4668	0.9592	0.05
Mof_C 	C 	0.2221	0.3955	0.8017	-0.117
Mof_C 	C 	0.1901	0.5095	0.753	0.393
Mof_O 	O 	0.9976	0.7397	0.7725	-0.328
Mof_O 	O 	0.9385	0.6571	0.5987	-0.414
Mof_O 	O 	0.3532	0.7898	0.7086	-0.423
Mof_O 	O 	0.5107	0.8454	0.8657	-0.393
Mof_O 	O 	0.1836	0.9565	0.7278	-0.338
Mof_O 	O 	0.2802	0.9828	0.9011	-0.368
Mof_O 	O 	0.1523	0.4958	0.6541	-0.474
Mof_O 	O 	0.2056	0.6138	0.8184	-0.417
Mof_Ca	Ca	-1.63773e-17	0.5	0.5	1.168
Mof_Ca	Ca	0.5	0	-0	1.082
_end
