data_functionalizedCrystal
_audit_creation_method	'EQeq! by Chris Wilmer'
_symmetry_space_group_name_H-M	'P1'
_symmetry_Int_Tables_number	1
_symmetry_cell_setting	triclinic
loop_
_symmetry_equiv_pos_as_xyz
  x,y,z
_cell_length_a	11.37
_cell_length_b	11.4274
_cell_length_c	12.1912
_cell_angle_alpha	67.952
_cell_angle_beta	87.743
_cell_angle_gamma	69.803
loop_
_atom_site_label
_atom_site_type_symbol
_atom_site_fract_x
_atom_site_fract_y
_atom_site_fract_z
_atom_site_charge
Mof_Cu	Cu	0.31511	0.63247	0.27502	0.822
Mof_Cu	Cu	0.37101	0.1839	0.58052	0.827
Mof_Cu	Cu	0.5482	0.87651	0.98994	0.796
Mof_Cu	Cu	0.68489	0.36753	0.72498	0.822
Mof_Cu	Cu	0.62899	0.8161	0.41948	0.827
Mof_Cu	Cu	0.4518	0.12349	0.01006	0.796
Mof_H 	H 	0.9142	0.4145	0.3317	0.155
Mof_H 	H 	0.9662	0.493	0.391	0.151
Mof_H 	H 	0.8231	0.5004	0.3996	0.145
Mof_H 	H 	0.683	0.6219	0.1953	0.075
Mof_H 	H 	0.3908	0.8906	0.7161	0.075
Mof_H 	H 	0.769	0.9605	0.9118	0.137
Mof_H 	H 	0.8514	0.98	0.0025	0.169
Mof_H 	H 	0.9184	0.8835	0.9339	0.174
Mof_H 	H 	0.0906	0.606	0.2525	0.018
Mof_H 	H 	0.0811	0.7268	0.1285	0.023
Mof_H 	H 	0.8535	0.8881	0.2607	0.054
Mof_H 	H 	0.8791	0.0221	0.3562	-0.002
Mof_H 	H 	0.0791	0.996	0.419	0.075
Mof_H 	H 	0.3488	0.8568	0.3231	0.007
Mof_H 	H 	0.3537	0.7231	0.4333	-0.007
Mof_H 	H 	0.2908	0.6793	0.7158	0.147
Mof_H 	H 	0.3951	0.6182	0.6405	0.129
Mof_H 	H 	0.4362	0.6504	0.7469	0.129
Mof_H 	H 	0.3065	0.205	0.342	0.133
Mof_H 	H 	0.3377	0.1004	0.2776	0.142
Mof_H 	H 	0.1981	0.1592	0.3113	0.157
Mof_H 	H 	0.0858	0.5855	0.6683	0.155
Mof_H 	H 	0.0338	0.507	0.609	0.151
Mof_H 	H 	0.1769	0.4996	0.6004	0.145
Mof_H 	H 	0.317	0.3781	0.8047	0.075
Mof_H 	H 	0.6092	0.1094	0.2839	0.075
Mof_H 	H 	0.231	0.0395	0.0882	0.137
Mof_H 	H 	0.1486	0.02	0.9975	0.169
Mof_H 	H 	0.0816	0.1165	0.0661	0.174
Mof_H 	H 	0.9094	0.394	0.7475	0.018
Mof_H 	H 	0.9189	0.2732	0.8715	0.023
Mof_H 	H 	0.1465	0.1119	0.7393	0.054
Mof_H 	H 	0.1209	0.9779	0.6438	-0.002
Mof_H 	H 	0.9209	0.004	0.581	0.075
Mof_H 	H 	0.6512	0.1432	0.6769	0.007
Mof_H 	H 	0.6463	0.2769	0.5667	-0.007
Mof_H 	H 	0.7092	0.3207	0.2842	0.147
Mof_H 	H 	0.6049	0.3818	0.3595	0.129
Mof_H 	H 	0.5638	0.3496	0.2531	0.129
Mof_H 	H 	0.6935	0.795	0.658	0.133
Mof_H 	H 	0.6623	0.8996	0.7224	0.142
Mof_H 	H 	0.8019	0.8408	0.6887	0.157
Mof_C 	C 	0.8926	0.496	0.3493	-0.513
Mof_C 	C 	0.8532	0.6184	0.2353	0.167
Mof_C 	C 	0.9134	0.7057	0.1693	-0.13
Mof_C 	C 	0.8265	0.8006	0.0688	0.197
Mof_C 	C 	0.8427	0.9157	0.9711	-0.571
Mof_C 	C 	0.0397	0.7008	0.2022	-0.133
Mof_C 	C 	0.0427	0.7878	0.2665	0.094
Mof_C 	C 	0.9351	0.8796	0.2859	-0.162
Mof_C 	C 	0.9507	0.9574	0.3426	0.053
Mof_C 	C 	0.0683	0.9423	0.3794	-0.162
Mof_C 	C 	0.1721	0.8484	0.3588	0.096
Mof_C 	C 	0.3086	0.822	0.3957	-0.113
Mof_C 	C 	0.3706	0.6799	0.6825	-0.486
Mof_C 	C 	0.3546	0.8213	0.5964	0.174
Mof_C 	C 	0.3257	0.8836	0.4793	-0.16
Mof_C 	C 	0.3206	0.0164	0.4531	0.181
Mof_C 	C 	0.288	0.1297	0.3362	-0.529
Mof_C 	C 	0.4773	0.0144	0.8415	-0.306
Mof_C 	C 	0.411	0.6948	0.1544	-0.252
Mof_C 	C 	0.3404	0.3584	0.4671	-0.241
Mof_C 	C 	0.1074	0.504	0.6507	-0.513
Mof_C 	C 	0.1468	0.3816	0.7647	0.167
Mof_C 	C 	0.0866	0.2943	0.8307	-0.13
Mof_C 	C 	0.1735	0.1994	0.9312	0.197
Mof_C 	C 	0.1573	0.0843	0.0289	-0.571
Mof_C 	C 	0.9603	0.2992	0.7978	-0.133
Mof_C 	C 	0.9573	0.2122	0.7335	0.094
Mof_C 	C 	0.0649	0.1204	0.7141	-0.162
Mof_C 	C 	0.0493	0.0426	0.6574	0.053
Mof_C 	C 	0.9317	0.0577	0.6206	-0.162
Mof_C 	C 	0.8279	0.1516	0.6412	0.096
Mof_C 	C 	0.6914	0.178	0.6043	-0.113
Mof_C 	C 	0.6294	0.3201	0.3175	-0.486
Mof_C 	C 	0.6454	0.1787	0.4036	0.174
Mof_C 	C 	0.6743	0.1164	0.5207	-0.16
Mof_C 	C 	0.6794	0.9836	0.5469	0.181
Mof_C 	C 	0.712	0.8703	0.6638	-0.529
Mof_C 	C 	0.5227	0.9856	0.1585	-0.306
Mof_C 	C 	0.589	0.3052	0.8456	-0.252
Mof_C 	C 	0.6596	0.6416	0.5329	-0.241
Mof_N 	N 	0.7222	0.7735	0.0725	-0.245
Mof_N 	N 	0.7388	0.6615	0.1731	-0.193
Mof_N 	N 	0.1592	0.7727	0.3036	-0.257
Mof_N 	N 	0.3696	0.9099	0.641	-0.19
Mof_N 	N 	0.3463	0.0318	0.5506	-0.236
Mof_N 	N 	0.435	0.087	0.7472	-0.193
Mof_N 	N 	0.4687	0.7453	0.0843	-0.202
Mof_N 	N 	0.3265	0.462	0.3937	-0.219
Mof_N 	N 	0.2778	0.2265	0.9275	-0.245
Mof_N 	N 	0.2612	0.3385	0.8269	-0.193
Mof_N 	N 	0.8408	0.2273	0.6964	-0.257
Mof_N 	N 	0.6304	0.0901	0.359	-0.19
Mof_N 	N 	0.6537	0.9682	0.4494	-0.236
Mof_N 	N 	0.565	0.913	0.2528	-0.193
Mof_N 	N 	0.5313	0.2547	0.9157	-0.202
Mof_N 	N 	0.6735	0.538	0.6063	-0.219
_end
