# CIF file generated by openbabel 3.1.0, see https://openbabel.org
data_I
_chemical_name_common 'image0'
_cell_length_a 32.4109
_cell_length_b 19.2358
_cell_length_c 31.4795
_cell_angle_alpha 90
_cell_angle_beta 109.208
_cell_angle_gamma 90
_space_group_name_H-M_alt 'P 1'
_space_group_name_Hall 'P 1'
loop_
    _symmetry_equiv_pos_as_xyz
    x,y,z
loop_
    _atom_site_label
    _atom_site_type_symbol
    _atom_site_fract_x
    _atom_site_fract_y
    _atom_site_fract_z
    _atom_site_occupancy
    C1       C        0.35752    0.29037    0.56809    1.000
    C2       C        0.35278    0.22273    0.58445    1.000
    C3       C        0.34925    0.16549    0.55644    1.000
    C4       C        0.35292    0.17400    0.51287    1.000
    C5       C        0.14254    0.25971    0.50281    1.000
    C6       C        0.36099    0.29881    0.52557    1.000
    C7       C        0.15668    0.13928    0.50298    1.000
    C8       C        0.31585    0.41339    0.51608    1.000
    C9       C        0.31001    0.39467    0.55948    1.000
    C10      C        0.33138    0.33854    0.58516    1.000
    C11      C        0.31137    0.30032    0.61160    1.000
    C12      C        0.32823    0.22804    0.61634    1.000
    C13      C        0.29380    0.16666    0.61406    1.000
    C14      C        0.28959    0.11289    0.57918    1.000
    C15      C        0.31720    0.11016    0.55385    1.000
    C16      C        0.30153    0.08538    0.50871    1.000
    C17      C        0.32725    0.11832    0.48317    1.000
    C18      C        0.19874    0.35828    0.56780    1.000
    C19      C        0.19507    0.28416    0.57896    1.000
    C20      C        0.16724    0.23836    0.54926    1.000
    C21      C        0.17829    0.16730    0.54882    1.000
    C22      C        0.21899    0.14421    0.57611    1.000
    C23      C        0.24443    0.09559    0.55891    1.000
    C24      C        0.22896    0.07100    0.51495    1.000
    C25      C        0.25781    0.06806    0.48926    1.000
    C26      C        0.26647    0.41074    0.55731    1.000
    C27      C        0.24633    0.37349    0.58336    1.000
    C28      C        0.26898    0.31625    0.60962    1.000
    C29      C        0.23697    0.26028    0.60726    1.000
    C30      C        0.24827    0.19050    0.60702    1.000
    C31      C        0.35899    0.43415    0.50979    1.000
    C32      C        0.33751    0.08876    0.44343    1.000
    C33      C        0.33240    0.17965    0.65499    1.000
    O1       O        0.40095    0.45410    0.58806    1.000
    C34      C        0.39972    0.43954    0.55073    1.000
    O2       O        0.43385    0.42309    0.53814    1.000
    C35      C        0.47581    0.42067    0.57333    1.000
    H1       H        0.47520    0.45140    0.59830    1.000
    H2       H        0.49860    0.43830    0.56150    1.000
    C36      C        0.48754    0.34756    0.59111    1.000
    O3       O        0.46279    0.29868    0.57114    1.000
    O4       O        0.52137    0.34032    0.62416    1.000
    O5       O        0.33378    0.48356    0.43566    1.000
    C37      C        0.35592    0.48747    0.47418    1.000
    O6       O        0.38033    0.54246    0.49288    1.000
    C38      C        0.38114    0.59628    0.46155    1.000
    H3       H        0.39610    0.63770    0.47840    1.000
    H4       H        0.35080    0.60970    0.44420    1.000
    C39      C        0.40452    0.57353    0.42900    1.000
    O7       O        0.42402    0.51765    0.43405    1.000
    O8       O        0.40134    0.61783    0.39827    1.000
    O9       O        0.39233    0.15631    0.42478    1.000
    C40      C        0.38258    0.10781    0.44253    1.000
    O10      O        0.40985    0.05948    0.46721    1.000
    C41      C        0.45535    0.06730    0.47251    1.000
    H5       H        0.45810    0.08810    0.44480    1.000
    H6       H        0.46920    0.02080    0.47640    1.000
    C42      C        0.47954    0.11297    0.51286    1.000
    O11      O        0.45765    0.14422    0.53330    1.000
    O12      O        0.51984    0.11538    0.52055    1.000
    O13      O        0.30930    0.97560    0.44750    1.000
    C43      C        0.32423    0.01565    0.42768    1.000
    O14      O        0.32650    0.00860    0.38640    1.000
    C44      C        0.32000    0.93950    0.36720    1.000
    H7       H        0.30470    0.94220    0.33430    1.000
    H8       H        0.30200    0.91150    0.38080    1.000
    C45      C        0.36510    0.90550    0.37670    1.000
    O15      O        0.38830    0.89973    0.41619    1.000
    O16      O        0.37081    0.88170    0.34290    1.000
    O17      O        0.36834    0.06894    0.65801    1.000
    C46      C        0.37068    0.12965    0.66627    1.000
    O18      O        0.40687    0.16498    0.68475    1.000
    C47      C        0.44799    0.12830    0.69856    1.000
    H9       H        0.44250    0.07760    0.69600    1.000
    H10      H        0.46420    0.13910    0.73040    1.000
    C48      C        0.47522    0.14887    0.66967    1.000
    O19      O        0.45538    0.17112    0.63078    1.000
    O20      O        0.51520    0.13888    0.68702    1.000
    O21      O        0.30065    0.17920    0.71336    1.000
    C49      C        0.32433    0.20724    0.69677    1.000
    O22      O        0.34700    0.26429    0.71049    1.000
    C50      C        0.34787    0.29170    0.75368    1.000
    H11      H        0.31920    0.28380    0.75770    1.000
    H12      H        0.35320    0.34250    0.75450    1.000
    C51      C        0.38357    0.25680    0.79177    1.000
    O23      O        0.39600    0.19821    0.78480    1.000
    O24      O        0.39634    0.28899    0.82852    1.000
    Zn1      Zn       0.48268    0.20253    0.58728    1.000
    Zn2      Zn       0.58128    0.39082    0.65820    1.000
    Zn3      Zn       0.57069    0.18291    0.55420    1.000
    Zn4      Zn       0.56812    0.13607    0.66473    1.000
    O25      O        0.54642    0.19601    0.60839    1.000
    O26      O        0.56954    0.39205    0.71878    1.000
    O27      O        0.59071    0.17440    0.49730    1.000
    C52      C        0.62830    0.15470    0.49790    1.000
    H13      H        0.64440    0.12720    0.52290    1.000
    N1       N        0.64790    0.16800    0.46780    1.000
    C53      C        0.62590    0.21380    0.42880    1.000
    H14      H        0.59390    0.21070    0.42220    1.000
    H15      H        0.63250    0.19660    0.40210    1.000
    C54      C        0.63950    0.28810    0.43660    1.000
    H16      H        0.62480    0.31510    0.40940    1.000
    H17      H        0.67120    0.29150    0.44360    1.000
    H18      H        0.63140    0.30640    0.46180    1.000
    C55      C        0.69600    0.15050    0.47770    1.000
    H19      H        0.71290    0.19360    0.47850    1.000
    H20      H        0.70770    0.12720    0.50730    1.000
    C56      C        0.69970    0.10290    0.44090    1.000
    H21      H        0.73030    0.08920    0.44740    1.000
    H22      H        0.68950    0.12740    0.41200    1.000
    H23      H        0.68180    0.06140    0.43940    1.000
    O28      O        0.58850    0.05280    0.71830    1.000
    O29      O        0.53182    0.04890    0.61971    1.000
    C57      C        0.52360    0.99530    0.63620    1.000
    H24      H        0.54100    0.98390    0.66610    1.000
    N2       N        0.49160    0.95190    0.61430    1.000
    C58      C        0.45820    0.97070    0.57310    1.000
    H25      H        0.47000    0.00620    0.55740    1.000
    H26      H        0.45030    0.92930    0.55340    1.000
    C59      C        0.41880    0.99820    0.58010    1.000
    H27      H        0.40510    0.03270    0.55690    1.000
    H28      H        0.39820    0.96010    0.57840    1.000
    H29      H        0.42670    0.02010    0.60980    1.000
    C60      C        0.48930    0.88330    0.63450    1.000
    H30      H        0.50870    0.88330    0.66620    1.000
    H31      H        0.45910    0.87510    0.63420    1.000
    C61      C        0.50280    0.82440    0.60940    1.000
    H32      H        0.50660    0.78160    0.62710    1.000
    H33      H        0.48010    0.81740    0.58020    1.000
    H34      H        0.53040    0.83640    0.60480    1.000
    O30      O        0.31200    0.96730    0.44400    1.000
    O31      O        0.33440    0.01020    0.38980    1.000
    C62      C        0.32200    0.94800    0.36360    1.000
    H35      H        0.32070    0.95780    0.33230    1.000
    H36      H        0.29230    0.93410    0.36280    1.000
    C63      C        0.35340    0.88750    0.38190    1.000
    O32      O        0.33650    0.83240    0.36230    1.000
    H37      H        0.35330    0.79880    0.37290    1.000
    C64      C        0.55480    0.43970    0.73610    1.000
    H38      H        0.54190    0.47820    0.71750    1.000
    N3       N        0.55550    0.44100    0.77850    1.000
    C65      C        0.58120    0.38430    0.81000    1.000
    H39      H        0.60420    0.36540    0.79900    1.000
    H40      H        0.59520    0.40330    0.84060    1.000
    C66      C        0.55060    0.33070    0.81080    1.000
    H41      H        0.56650    0.28870    0.82460    1.000
    H42      H        0.53200    0.32030    0.78000    1.000
    H43      H        0.53240    0.34650    0.82840    1.000
    C67      C        0.52680    0.49160    0.79280    1.000
    H44      H        0.51350    0.46820    0.81320    1.000
    H45      H        0.50300    0.50850    0.76620    1.000
    C68      C        0.55470    0.55230    0.81690    1.000
    H46      H        0.53650    0.58560    0.82620    1.000
    H47      H        0.56770    0.57530    0.79660    1.000
    H48      H        0.57800    0.53530    0.84350    1.000
    C69      C        0.58530    0.44110    0.74610    1.000
    H49      H        0.59670    0.48090    0.73580    1.000
    N4       N        0.58640    0.43880    0.78820    1.000
    C70      C        0.55240    0.39380    0.79770    1.000
    H50      H        0.56760    0.36220    0.82280    1.000
    H51      H        0.53330    0.42430    0.80830    1.000
    C71      C        0.52450    0.35110    0.76060    1.000
    H52      H        0.52540    0.36940    0.73190    1.000
    H53      H        0.49440    0.35240    0.76100    1.000
    H54      H        0.53500    0.30300    0.76430    1.000
    C72      C        0.60370    0.50450    0.81670    1.000
    H55      H        0.59190    0.54670    0.79890    1.000
    H56      H        0.59460    0.50450    0.84370    1.000
    C73      C        0.65380    0.50370    0.83040    1.000
    H57      H        0.66560    0.54610    0.84730    1.000
    H58      H        0.66240    0.50150    0.80340    1.000
    H59      H        0.66520    0.46300    0.84940    1.000
    C74      C        0.59470    0.11520    0.48480    1.000
    H60      H        0.59870    0.07760    0.50530    1.000
    N5       N        0.59360    0.10330    0.44330    1.000
    C75      C        0.57410    0.15520    0.40780    1.000
    H61      H        0.58910    0.20010    0.41770    1.000
    H62      H        0.58050    0.14080    0.38040    1.000
    C76      C        0.52710    0.16720    0.39520    1.000
    H63      H        0.51640    0.18840    0.36530    1.000
    H64      H        0.52120    0.19840    0.41720    1.000
    H65      H        0.51220    0.12280    0.39480    1.000
    C77      C        0.60260    0.03010    0.43030    1.000
    H66      H        0.62200    0.03210    0.41170    1.000
    H67      H        0.61750    0.00280    0.45770    1.000
    C78      C        0.55980    0.99560    0.40410    1.000
    H68      H        0.56560    0.94950    0.39410    1.000
    H69      H        0.54450    0.02410    0.37780    1.000
    H70      H        0.54160    0.99090    0.42330    1.000
    O33      O        0.58590    0.04170    0.67170    1.000
    C79      C        0.56350    0.00930    0.63880    1.000
    H71      H        0.54170    0.03170    0.61480    1.000
    O34      O        0.57120    0.94040    0.63780    1.000
    C80      C        0.85752    0.79037    0.56809    1.000
    C81      C        0.85278    0.72273    0.58445    1.000
    C82      C        0.84925    0.66549    0.55644    1.000
    C83      C        0.85292    0.67400    0.51287    1.000
    C84      C        0.64254    0.75971    0.50281    1.000
    C85      C        0.86099    0.79881    0.52557    1.000
    C86      C        0.65668    0.63928    0.50298    1.000
    C87      C        0.81585    0.91339    0.51608    1.000
    C88      C        0.81001    0.89467    0.55948    1.000
    C89      C        0.83138    0.83854    0.58516    1.000
    C90      C        0.81137    0.80032    0.61160    1.000
    C91      C        0.82823    0.72804    0.61634    1.000
    C92      C        0.79380    0.66666    0.61406    1.000
    C93      C        0.78959    0.61289    0.57918    1.000
    C94      C        0.81720    0.61016    0.55385    1.000
    C95      C        0.80153    0.58538    0.50871    1.000
    C96      C        0.82725    0.61832    0.48317    1.000
    C97      C        0.69874    0.85828    0.56780    1.000
    C98      C        0.69507    0.78416    0.57896    1.000
    C99      C        0.66724    0.73836    0.54926    1.000
    C100     C        0.67829    0.66730    0.54882    1.000
    C101     C        0.71899    0.64421    0.57611    1.000
    C102     C        0.74443    0.59559    0.55891    1.000
    C103     C        0.72896    0.57100    0.51495    1.000
    C104     C        0.75781    0.56806    0.48926    1.000
    C105     C        0.76647    0.91074    0.55731    1.000
    C106     C        0.74633    0.87349    0.58336    1.000
    C107     C        0.76898    0.81625    0.60962    1.000
    C108     C        0.73697    0.76028    0.60726    1.000
    C109     C        0.74827    0.69050    0.60702    1.000
    C110     C        0.85899    0.93415    0.50979    1.000
    C111     C        0.83751    0.58876    0.44343    1.000
    C112     C        0.83240    0.67965    0.65499    1.000
    O35      O        0.90095    0.95410    0.58806    1.000
    C113     C        0.89972    0.93954    0.55073    1.000
    O36      O        0.93385    0.92309    0.53814    1.000
    C114     C        0.97581    0.92067    0.57333    1.000
    H72      H        0.97520    0.95140    0.59830    1.000
    H73      H        0.99860    0.93830    0.56150    1.000
    C115     C        0.98754    0.84756    0.59111    1.000
    O37      O        0.96279    0.79868    0.57114    1.000
    O38      O        0.02137    0.84032    0.62416    1.000
    O39      O        0.83378    0.98356    0.43566    1.000
    C116     C        0.85592    0.98747    0.47418    1.000
    O40      O        0.88033    0.04246    0.49288    1.000
    C117     C        0.88114    0.09628    0.46155    1.000
    H74      H        0.89610    0.13770    0.47840    1.000
    H75      H        0.85080    0.10970    0.44420    1.000
    C118     C        0.90452    0.07353    0.42900    1.000
    O41      O        0.92402    0.01765    0.43405    1.000
    O42      O        0.90134    0.11783    0.39827    1.000
    O43      O        0.89233    0.65631    0.42478    1.000
    C119     C        0.88258    0.60781    0.44253    1.000
    O44      O        0.90985    0.55948    0.46721    1.000
    C120     C        0.95535    0.56730    0.47251    1.000
    H76      H        0.95810    0.58810    0.44480    1.000
    H77      H        0.96920    0.52080    0.47640    1.000
    C121     C        0.97954    0.61297    0.51286    1.000
    O45      O        0.95765    0.64422    0.53330    1.000
    O46      O        0.01984    0.61538    0.52055    1.000
    O47      O        0.80930    0.47560    0.44750    1.000
    C122     C        0.82423    0.51565    0.42768    1.000
    O48      O        0.82650    0.50860    0.38640    1.000
    C123     C        0.82000    0.43950    0.36720    1.000
    H78      H        0.80470    0.44220    0.33430    1.000
    H79      H        0.80200    0.41150    0.38080    1.000
    C124     C        0.86510    0.40550    0.37670    1.000
    O49      O        0.88830    0.39973    0.41619    1.000
    O50      O        0.87081    0.38170    0.34290    1.000
    O51      O        0.86834    0.56894    0.65801    1.000
    C125     C        0.87068    0.62965    0.66627    1.000
    O52      O        0.90687    0.66498    0.68475    1.000
    C126     C        0.94799    0.62830    0.69856    1.000
    H80      H        0.94250    0.57760    0.69600    1.000
    H81      H        0.96420    0.63910    0.73040    1.000
    C127     C        0.97522    0.64887    0.66967    1.000
    O53      O        0.95538    0.67112    0.63078    1.000
    O54      O        0.01520    0.63888    0.68702    1.000
    O55      O        0.80065    0.67920    0.71336    1.000
    C128     C        0.82433    0.70724    0.69677    1.000
    O56      O        0.84700    0.76429    0.71049    1.000
    C129     C        0.84787    0.79170    0.75368    1.000
    H82      H        0.81920    0.78380    0.75770    1.000
    H83      H        0.85320    0.84250    0.75450    1.000
    C130     C        0.88357    0.75680    0.79177    1.000
    O57      O        0.89600    0.69821    0.78480    1.000
    O58      O        0.89634    0.78899    0.82852    1.000
    Zn5      Zn       0.98268    0.70253    0.58728    1.000
    Zn6      Zn       0.08128    0.89082    0.65820    1.000
    Zn7      Zn       0.07069    0.68291    0.55420    1.000
    Zn8      Zn       0.06812    0.63607    0.66473    1.000
    O59      O        0.04642    0.69601    0.60839    1.000
    O60      O        0.06954    0.89205    0.71878    1.000
    O61      O        0.09071    0.67440    0.49730    1.000
    C131     C        0.12830    0.65470    0.49790    1.000
    H84      H        0.14440    0.62720    0.52290    1.000
    N6       N        0.14790    0.66800    0.46780    1.000
    C132     C        0.12590    0.71380    0.42880    1.000
    H85      H        0.09390    0.71070    0.42220    1.000
    H86      H        0.13250    0.69660    0.40210    1.000
    C133     C        0.13950    0.78810    0.43660    1.000
    H87      H        0.12480    0.81510    0.40940    1.000
    H88      H        0.17120    0.79150    0.44360    1.000
    H89      H        0.13140    0.80640    0.46180    1.000
    C134     C        0.19600    0.65050    0.47770    1.000
    H90      H        0.21290    0.69360    0.47850    1.000
    H91      H        0.20770    0.62720    0.50730    1.000
    C135     C        0.19970    0.60290    0.44090    1.000
    H92      H        0.23030    0.58920    0.44740    1.000
    H93      H        0.18950    0.62740    0.41200    1.000
    H94      H        0.18180    0.56140    0.43940    1.000
    O62      O        0.08850    0.55280    0.71830    1.000
    O63      O        0.03182    0.54890    0.61971    1.000
    C136     C        0.02360    0.49530    0.63620    1.000
    H95      H        0.04100    0.48390    0.66610    1.000
    N7       N        0.99160    0.45190    0.61430    1.000
    C137     C        0.95820    0.47070    0.57310    1.000
    H96      H        0.97000    0.50620    0.55740    1.000
    H97      H        0.95030    0.42930    0.55340    1.000
    C138     C        0.91880    0.49820    0.58010    1.000
    H98      H        0.90510    0.53270    0.55690    1.000
    H99      H        0.89820    0.46010    0.57840    1.000
    H100     H        0.92670    0.52010    0.60980    1.000
    C139     C        0.98930    0.38330    0.63450    1.000
    H101     H        0.00870    0.38330    0.66620    1.000
    H102     H        0.95910    0.37510    0.63420    1.000
    C140     C        0.00280    0.32440    0.60940    1.000
    H103     H        0.00660    0.28160    0.62710    1.000
    H104     H        0.98010    0.31740    0.58020    1.000
    H105     H        0.03040    0.33640    0.60480    1.000
    O64      O        0.81200    0.46730    0.44400    1.000
    O65      O        0.83440    0.51020    0.38980    1.000
    C141     C        0.82200    0.44800    0.36360    1.000
    H106     H        0.82070    0.45780    0.33230    1.000
    H107     H        0.79230    0.43410    0.36280    1.000
    C142     C        0.85340    0.38750    0.38190    1.000
    O66      O        0.83650    0.33240    0.36230    1.000
    H108     H        0.85330    0.29880    0.37290    1.000
    C143     C        0.05480    0.93970    0.73610    1.000
    H109     H        0.04190    0.97820    0.71750    1.000
    N8       N        0.05550    0.94100    0.77850    1.000
    C144     C        0.08120    0.88430    0.81000    1.000
    H110     H        0.10420    0.86540    0.79900    1.000
    H111     H        0.09520    0.90330    0.84060    1.000
    C145     C        0.05060    0.83070    0.81080    1.000
    H112     H        0.06650    0.78870    0.82460    1.000
    H113     H        0.03200    0.82030    0.78000    1.000
    H114     H        0.03240    0.84650    0.82840    1.000
    C146     C        0.02680    0.99160    0.79280    1.000
    H115     H        0.01350    0.96820    0.81320    1.000
    H116     H        0.00300    0.00850    0.76620    1.000
    C147     C        0.05470    0.05230    0.81690    1.000
    H117     H        0.03650    0.08560    0.82620    1.000
    H118     H        0.06770    0.07530    0.79660    1.000
    H119     H        0.07800    0.03530    0.84350    1.000
    C148     C        0.08530    0.94110    0.74610    1.000
    H120     H        0.09670    0.98090    0.73580    1.000
    N9       N        0.08640    0.93880    0.78820    1.000
    C149     C        0.05240    0.89380    0.79770    1.000
    H121     H        0.06760    0.86220    0.82280    1.000
    H122     H        0.03330    0.92430    0.80830    1.000
    C150     C        0.02450    0.85110    0.76060    1.000
    H123     H        0.02540    0.86940    0.73190    1.000
    H124     H        0.99440    0.85240    0.76100    1.000
    H125     H        0.03500    0.80300    0.76430    1.000
    C151     C        0.10370    0.00450    0.81670    1.000
    H126     H        0.09190    0.04670    0.79890    1.000
    H127     H        0.09460    0.00450    0.84370    1.000
    C152     C        0.15380    0.00370    0.83040    1.000
    H128     H        0.16560    0.04610    0.84730    1.000
    H129     H        0.16240    0.00150    0.80340    1.000
    H130     H        0.16520    0.96300    0.84940    1.000
    C153     C        0.09470    0.61520    0.48480    1.000
    H131     H        0.09870    0.57760    0.50530    1.000
    N10      N        0.09360    0.60330    0.44330    1.000
    C154     C        0.07410    0.65520    0.40780    1.000
    H132     H        0.08910    0.70010    0.41770    1.000
    H133     H        0.08050    0.64080    0.38040    1.000
    C155     C        0.02710    0.66720    0.39520    1.000
    H134     H        0.01640    0.68840    0.36530    1.000
    H135     H        0.02120    0.69840    0.41720    1.000
    H136     H        0.01220    0.62280    0.39480    1.000
    C156     C        0.10260    0.53010    0.43030    1.000
    H137     H        0.12200    0.53210    0.41170    1.000
    H138     H        0.11750    0.50280    0.45770    1.000
    C157     C        0.05980    0.49560    0.40410    1.000
    H139     H        0.06560    0.44950    0.39410    1.000
    H140     H        0.04450    0.52410    0.37780    1.000
    H141     H        0.04160    0.49090    0.42330    1.000
    O67      O        0.08590    0.54170    0.67170    1.000
    C158     C        0.06350    0.50930    0.63880    1.000
    H142     H        0.04170    0.53170    0.61480    1.000
    O68      O        0.07120    0.44040    0.63780    1.000
    C159     C        0.64248    0.29037    0.93191    1.000
    C160     C        0.64722    0.22273    0.91555    1.000
    C161     C        0.65075    0.16549    0.94356    1.000
    C162     C        0.64708    0.17400    0.98713    1.000
    C163     C        0.85746    0.25971    0.99719    1.000
    C164     C        0.63901    0.29881    0.97443    1.000
    C165     C        0.84332    0.13928    0.99702    1.000
    C166     C        0.68415    0.41339    0.98392    1.000
    C167     C        0.68999    0.39467    0.94052    1.000
    C168     C        0.66862    0.33854    0.91484    1.000
    C169     C        0.68863    0.30032    0.88840    1.000
    C170     C        0.67177    0.22804    0.88366    1.000
    C171     C        0.70620    0.16666    0.88594    1.000
    C172     C        0.71041    0.11289    0.92082    1.000
    C173     C        0.68280    0.11016    0.94615    1.000
    C174     C        0.69847    0.08538    0.99129    1.000
    C175     C        0.67275    0.11832    0.01683    1.000
    C176     C        0.80126    0.35828    0.93220    1.000
    C177     C        0.80493    0.28416    0.92104    1.000
    C178     C        0.83276    0.23836    0.95074    1.000
    C179     C        0.82171    0.16730    0.95118    1.000
    C180     C        0.78101    0.14421    0.92389    1.000
    C181     C        0.75557    0.09559    0.94109    1.000
    C182     C        0.77104    0.07100    0.98505    1.000
    C183     C        0.74219    0.06806    0.01074    1.000
    C184     C        0.73353    0.41074    0.94269    1.000
    C185     C        0.75367    0.37349    0.91664    1.000
    C186     C        0.73102    0.31625    0.89038    1.000
    C187     C        0.76303    0.26028    0.89274    1.000
    C188     C        0.75173    0.19050    0.89298    1.000
    C189     C        0.64101    0.43415    0.99021    1.000
    C190     C        0.66249    0.08876    0.05657    1.000
    C191     C        0.66760    0.17965    0.84501    1.000
    O69      O        0.59905    0.45410    0.91194    1.000
    C192     C        0.60028    0.43954    0.94927    1.000
    O70      O        0.56615    0.42309    0.96186    1.000
    C193     C        0.52419    0.42067    0.92667    1.000
    H143     H        0.52480    0.45140    0.90170    1.000
    H144     H        0.50140    0.43830    0.93850    1.000
    C194     C        0.51246    0.34756    0.90889    1.000
    O71      O        0.53721    0.29868    0.92886    1.000
    O72      O        0.47863    0.34032    0.87584    1.000
    O73      O        0.66622    0.48356    0.06434    1.000
    C195     C        0.64408    0.48747    0.02582    1.000
    O74      O        0.61967    0.54246    0.00712    1.000
    C196     C        0.61886    0.59628    0.03845    1.000
    H145     H        0.60390    0.63770    0.02160    1.000
    H146     H        0.64920    0.60970    0.05580    1.000
    C197     C        0.59548    0.57353    0.07100    1.000
    O75      O        0.57598    0.51765    0.06595    1.000
    O76      O        0.59866    0.61783    0.10173    1.000
    O77      O        0.60767    0.15631    0.07522    1.000
    C198     C        0.61742    0.10781    0.05747    1.000
    O78      O        0.59015    0.05948    0.03279    1.000
    C199     C        0.54465    0.06730    0.02749    1.000
    H147     H        0.54190    0.08810    0.05520    1.000
    H148     H        0.53080    0.02080    0.02360    1.000
    C200     C        0.52046    0.11297    0.98714    1.000
    O79      O        0.54235    0.14422    0.96670    1.000
    O80      O        0.48016    0.11538    0.97945    1.000
    O81      O        0.69070    0.97560    0.05250    1.000
    C201     C        0.67577    0.01565    0.07232    1.000
    O82      O        0.67350    0.00860    0.11360    1.000
    C202     C        0.68000    0.93950    0.13280    1.000
    H149     H        0.69530    0.94220    0.16570    1.000
    H150     H        0.69800    0.91150    0.11920    1.000
    C203     C        0.63490    0.90550    0.12330    1.000
    O83      O        0.61170    0.89973    0.08381    1.000
    O84      O        0.62919    0.88170    0.15710    1.000
    O85      O        0.63166    0.06894    0.84199    1.000
    C204     C        0.62932    0.12965    0.83373    1.000
    O86      O        0.59313    0.16498    0.81525    1.000
    C205     C        0.55201    0.12830    0.80144    1.000
    H151     H        0.55750    0.07760    0.80400    1.000
    H152     H        0.53580    0.13910    0.76960    1.000
    C206     C        0.52478    0.14887    0.83033    1.000
    O87      O        0.54462    0.17112    0.86922    1.000
    O88      O        0.48480    0.13888    0.81298    1.000
    O89      O        0.69935    0.17920    0.78664    1.000
    C207     C        0.67567    0.20724    0.80323    1.000
    O90      O        0.65300    0.26429    0.78951    1.000
    C208     C        0.65213    0.29170    0.74632    1.000
    H153     H        0.68080    0.28380    0.74230    1.000
    H154     H        0.64680    0.34250    0.74550    1.000
    C209     C        0.61643    0.25680    0.70823    1.000
    O91      O        0.60400    0.19821    0.71520    1.000
    O92      O        0.60366    0.28899    0.67148    1.000
    Zn9      Zn       0.51732    0.20253    0.91272    1.000
    Zn10     Zn       0.41872    0.39082    0.84180    1.000
    Zn11     Zn       0.42931    0.18291    0.94580    1.000
    Zn12     Zn       0.43188    0.13607    0.83527    1.000
    O93      O        0.45358    0.19601    0.89161    1.000
    O94      O        0.43046    0.39205    0.78122    1.000
    O95      O        0.40929    0.17440    0.00270    1.000
    C210     C        0.37170    0.15470    0.00210    1.000
    H155     H        0.35560    0.12720    0.97710    1.000
    N11      N        0.35210    0.16800    0.03220    1.000
    C211     C        0.37410    0.21380    0.07120    1.000
    H156     H        0.40610    0.21070    0.07780    1.000
    H157     H        0.36750    0.19660    0.09790    1.000
    C212     C        0.36050    0.28810    0.06340    1.000
    H158     H        0.37520    0.31510    0.09060    1.000
    H159     H        0.32880    0.29150    0.05640    1.000
    H160     H        0.36860    0.30640    0.03820    1.000
    C213     C        0.30400    0.15050    0.02230    1.000
    H161     H        0.28710    0.19360    0.02150    1.000
    H162     H        0.29230    0.12720    0.99270    1.000
    C214     C        0.30030    0.10290    0.05910    1.000
    H163     H        0.26970    0.08920    0.05260    1.000
    H164     H        0.31050    0.12740    0.08800    1.000
    H165     H        0.31820    0.06140    0.06060    1.000
    O96      O        0.41150    0.05280    0.78170    1.000
    O97      O        0.46818    0.04890    0.88029    1.000
    C215     C        0.47640    0.99530    0.86380    1.000
    H166     H        0.45900    0.98390    0.83390    1.000
    N12      N        0.50840    0.95190    0.88570    1.000
    C216     C        0.54180    0.97070    0.92690    1.000
    H167     H        0.53000    0.00620    0.94260    1.000
    H168     H        0.54970    0.92930    0.94660    1.000
    C217     C        0.58120    0.99820    0.91990    1.000
    H169     H        0.59490    0.03270    0.94310    1.000
    H170     H        0.60180    0.96010    0.92160    1.000
    H171     H        0.57330    0.02010    0.89020    1.000
    C218     C        0.51070    0.88330    0.86550    1.000
    H172     H        0.49130    0.88330    0.83380    1.000
    H173     H        0.54090    0.87510    0.86580    1.000
    C219     C        0.49720    0.82440    0.89060    1.000
    H174     H        0.49340    0.78160    0.87290    1.000
    H175     H        0.51990    0.81740    0.91980    1.000
    H176     H        0.46960    0.83640    0.89520    1.000
    O98      O        0.68800    0.96730    0.05600    1.000
    O99      O        0.66560    0.01020    0.11020    1.000
    C220     C        0.67800    0.94800    0.13640    1.000
    H177     H        0.67930    0.95780    0.16770    1.000
    H178     H        0.70770    0.93410    0.13720    1.000
    C221     C        0.64660    0.88750    0.11810    1.000
    O100     O        0.66350    0.83240    0.13770    1.000
    H179     H        0.64670    0.79880    0.12710    1.000
    C222     C        0.44520    0.43970    0.76390    1.000
    H180     H        0.45810    0.47820    0.78250    1.000
    N13      N        0.44450    0.44100    0.72150    1.000
    C223     C        0.41880    0.38430    0.69000    1.000
    H181     H        0.39580    0.36540    0.70100    1.000
    H182     H        0.40480    0.40330    0.65940    1.000
    C224     C        0.44940    0.33070    0.68920    1.000
    H183     H        0.43350    0.28870    0.67540    1.000
    H184     H        0.46800    0.32030    0.72000    1.000
    H185     H        0.46760    0.34650    0.67160    1.000
    C225     C        0.47320    0.49160    0.70720    1.000
    H186     H        0.48650    0.46820    0.68680    1.000
    H187     H        0.49700    0.50850    0.73380    1.000
    C226     C        0.44530    0.55230    0.68310    1.000
    H188     H        0.46350    0.58560    0.67380    1.000
    H189     H        0.43230    0.57530    0.70340    1.000
    H190     H        0.42200    0.53530    0.65650    1.000
    C227     C        0.41470    0.44110    0.75390    1.000
    H191     H        0.40330    0.48090    0.76420    1.000
    N14      N        0.41360    0.43880    0.71180    1.000
    C228     C        0.44760    0.39380    0.70230    1.000
    H192     H        0.43240    0.36220    0.67720    1.000
    H193     H        0.46670    0.42430    0.69170    1.000
    C229     C        0.47550    0.35110    0.73940    1.000
    H194     H        0.47460    0.36940    0.76810    1.000
    H195     H        0.50560    0.35240    0.73900    1.000
    H196     H        0.46500    0.30300    0.73570    1.000
    C230     C        0.39630    0.50450    0.68330    1.000
    H197     H        0.40810    0.54670    0.70110    1.000
    H198     H        0.40540    0.50450    0.65630    1.000
    C231     C        0.34620    0.50370    0.66960    1.000
    H199     H        0.33440    0.54610    0.65270    1.000
    H200     H        0.33760    0.50150    0.69660    1.000
    H201     H        0.33480    0.46300    0.65060    1.000
    C232     C        0.40530    0.11520    0.01520    1.000
    H202     H        0.40130    0.07760    0.99470    1.000
    N15      N        0.40640    0.10330    0.05670    1.000
    C233     C        0.42590    0.15520    0.09220    1.000
    H203     H        0.41090    0.20010    0.08230    1.000
    H204     H        0.41950    0.14080    0.11960    1.000
    C234     C        0.47290    0.16720    0.10480    1.000
    H205     H        0.48360    0.18840    0.13470    1.000
    H206     H        0.47880    0.19840    0.08280    1.000
    H207     H        0.48780    0.12280    0.10520    1.000
    C235     C        0.39740    0.03010    0.06970    1.000
    H208     H        0.37800    0.03210    0.08830    1.000
    H209     H        0.38250    0.00280    0.04230    1.000
    C236     C        0.44020    0.99560    0.09590    1.000
    H210     H        0.43440    0.94950    0.10590    1.000
    H211     H        0.45550    0.02410    0.12220    1.000
    H212     H        0.45840    0.99090    0.07670    1.000
    O101     O        0.41410    0.04170    0.82830    1.000
    C237     C        0.43650    0.00930    0.86120    1.000
    H213     H        0.45830    0.03170    0.88520    1.000
    O102     O        0.42880    0.94040    0.86220    1.000
    C238     C        0.14248    0.79037    0.93191    1.000
    C239     C        0.14722    0.72273    0.91555    1.000
    C240     C        0.15075    0.66549    0.94356    1.000
    C241     C        0.14708    0.67400    0.98713    1.000
    C242     C        0.35746    0.75971    0.99719    1.000
    C243     C        0.13901    0.79881    0.97443    1.000
    C244     C        0.34332    0.63928    0.99702    1.000
    C245     C        0.18415    0.91339    0.98392    1.000
    C246     C        0.18999    0.89467    0.94052    1.000
    C247     C        0.16862    0.83854    0.91484    1.000
    C248     C        0.18863    0.80032    0.88840    1.000
    C249     C        0.17177    0.72804    0.88366    1.000
    C250     C        0.20620    0.66666    0.88594    1.000
    C251     C        0.21041    0.61289    0.92082    1.000
    C252     C        0.18280    0.61016    0.94615    1.000
    C253     C        0.19847    0.58538    0.99129    1.000
    C254     C        0.17275    0.61832    0.01683    1.000
    C255     C        0.30126    0.85828    0.93220    1.000
    C256     C        0.30493    0.78416    0.92104    1.000
    C257     C        0.33276    0.73836    0.95074    1.000
    C258     C        0.32171    0.66730    0.95118    1.000
    C259     C        0.28101    0.64421    0.92389    1.000
    C260     C        0.25557    0.59559    0.94109    1.000
    C261     C        0.27104    0.57100    0.98505    1.000
    C262     C        0.24219    0.56806    0.01074    1.000
    C263     C        0.23353    0.91074    0.94269    1.000
    C264     C        0.25367    0.87349    0.91664    1.000
    C265     C        0.23102    0.81625    0.89038    1.000
    C266     C        0.26303    0.76028    0.89274    1.000
    C267     C        0.25173    0.69050    0.89298    1.000
    C268     C        0.14101    0.93415    0.99021    1.000
    C269     C        0.16249    0.58876    0.05657    1.000
    C270     C        0.16760    0.67965    0.84501    1.000
    O103     O        0.09905    0.95410    0.91194    1.000
    C271     C        0.10028    0.93954    0.94927    1.000
    O104     O        0.06615    0.92309    0.96186    1.000
    C272     C        0.02419    0.92067    0.92667    1.000
    H214     H        0.02480    0.95140    0.90170    1.000
    H215     H        0.00140    0.93830    0.93850    1.000
    C273     C        0.01246    0.84756    0.90889    1.000
    O105     O        0.03721    0.79868    0.92886    1.000
    O106     O        0.97863    0.84032    0.87584    1.000
    O107     O        0.16622    0.98356    0.06434    1.000
    C274     C        0.14408    0.98747    0.02582    1.000
    O108     O        0.11967    0.04246    0.00712    1.000
    C275     C        0.11886    0.09628    0.03845    1.000
    H216     H        0.10390    0.13770    0.02160    1.000
    H217     H        0.14920    0.10970    0.05580    1.000
    C276     C        0.09548    0.07353    0.07100    1.000
    O109     O        0.07598    0.01765    0.06595    1.000
    O110     O        0.09866    0.11783    0.10173    1.000
    O111     O        0.10767    0.65631    0.07522    1.000
    C277     C        0.11742    0.60781    0.05747    1.000
    O112     O        0.09015    0.55948    0.03279    1.000
    C278     C        0.04465    0.56730    0.02749    1.000
    H218     H        0.04190    0.58810    0.05520    1.000
    H219     H        0.03080    0.52080    0.02360    1.000
    C279     C        0.02046    0.61297    0.98714    1.000
    O113     O        0.04235    0.64422    0.96670    1.000
    O114     O        0.98016    0.61538    0.97945    1.000
    O115     O        0.19070    0.47560    0.05250    1.000
    C280     C        0.17577    0.51565    0.07232    1.000
    O116     O        0.17350    0.50860    0.11360    1.000
    C281     C        0.18000    0.43950    0.13280    1.000
    H220     H        0.19530    0.44220    0.16570    1.000
    H221     H        0.19800    0.41150    0.11920    1.000
    C282     C        0.13490    0.40550    0.12330    1.000
    O117     O        0.11170    0.39973    0.08381    1.000
    O118     O        0.12919    0.38170    0.15710    1.000
    O119     O        0.13166    0.56894    0.84199    1.000
    C283     C        0.12932    0.62965    0.83373    1.000
    O120     O        0.09313    0.66498    0.81525    1.000
    C284     C        0.05201    0.62830    0.80144    1.000
    H222     H        0.05750    0.57760    0.80400    1.000
    H223     H        0.03580    0.63910    0.76960    1.000
    C285     C        0.02478    0.64887    0.83033    1.000
    O121     O        0.04462    0.67112    0.86922    1.000
    O122     O        0.98480    0.63888    0.81298    1.000
    O123     O        0.19935    0.67920    0.78664    1.000
    C286     C        0.17567    0.70724    0.80323    1.000
    O124     O        0.15300    0.76429    0.78951    1.000
    C287     C        0.15213    0.79170    0.74632    1.000
    H224     H        0.18080    0.78380    0.74230    1.000
    H225     H        0.14680    0.84250    0.74550    1.000
    C288     C        0.11643    0.75680    0.70823    1.000
    O125     O        0.10400    0.69821    0.71520    1.000
    O126     O        0.10366    0.78899    0.67148    1.000
    Zn13     Zn       0.01732    0.70253    0.91272    1.000
    Zn14     Zn       0.91872    0.89082    0.84180    1.000
    Zn15     Zn       0.92931    0.68291    0.94580    1.000
    Zn16     Zn       0.93188    0.63607    0.83527    1.000
    O127     O        0.95358    0.69601    0.89161    1.000
    O128     O        0.93046    0.89205    0.78122    1.000
    O129     O        0.90929    0.67440    0.00270    1.000
    C289     C        0.87170    0.65470    0.00210    1.000
    H226     H        0.85560    0.62720    0.97710    1.000
    N16      N        0.85210    0.66800    0.03220    1.000
    C290     C        0.87410    0.71380    0.07120    1.000
    H227     H        0.90610    0.71070    0.07780    1.000
    H228     H        0.86750    0.69660    0.09790    1.000
    C291     C        0.86050    0.78810    0.06340    1.000
    H229     H        0.87520    0.81510    0.09060    1.000
    H230     H        0.82880    0.79150    0.05640    1.000
    H231     H        0.86860    0.80640    0.03820    1.000
    C292     C        0.80400    0.65050    0.02230    1.000
    H232     H        0.78710    0.69360    0.02150    1.000
    H233     H        0.79230    0.62720    0.99270    1.000
    C293     C        0.80030    0.60290    0.05910    1.000
    H234     H        0.76970    0.58920    0.05260    1.000
    H235     H        0.81050    0.62740    0.08800    1.000
    H236     H        0.81820    0.56140    0.06060    1.000
    O130     O        0.91150    0.55280    0.78170    1.000
    O131     O        0.96818    0.54890    0.88029    1.000
    C294     C        0.97640    0.49530    0.86380    1.000
    H237     H        0.95900    0.48390    0.83390    1.000
    N17      N        0.00840    0.45190    0.88570    1.000
    C295     C        0.04180    0.47070    0.92690    1.000
    H238     H        0.03000    0.50620    0.94260    1.000
    H239     H        0.04970    0.42930    0.94660    1.000
    C296     C        0.08120    0.49820    0.91990    1.000
    H240     H        0.09490    0.53270    0.94310    1.000
    H241     H        0.10180    0.46010    0.92160    1.000
    H242     H        0.07330    0.52010    0.89020    1.000
    C297     C        0.01070    0.38330    0.86550    1.000
    H243     H        0.99130    0.38330    0.83380    1.000
    H244     H        0.04090    0.37510    0.86580    1.000
    C298     C        0.99720    0.32440    0.89060    1.000
    H245     H        0.99340    0.28160    0.87290    1.000
    H246     H        0.01990    0.31740    0.91980    1.000
    H247     H        0.96960    0.33640    0.89520    1.000
    O132     O        0.18800    0.46730    0.05600    1.000
    O133     O        0.16560    0.51020    0.11020    1.000
    C299     C        0.17800    0.44800    0.13640    1.000
    H248     H        0.17930    0.45780    0.16770    1.000
    H249     H        0.20770    0.43410    0.13720    1.000
    C300     C        0.14660    0.38750    0.11810    1.000
    O134     O        0.16350    0.33240    0.13770    1.000
    H250     H        0.14670    0.29880    0.12710    1.000
    C301     C        0.94520    0.93970    0.76390    1.000
    H251     H        0.95810    0.97820    0.78250    1.000
    N18      N        0.94450    0.94100    0.72150    1.000
    C302     C        0.91880    0.88430    0.69000    1.000
    H252     H        0.89580    0.86540    0.70100    1.000
    H253     H        0.90480    0.90330    0.65940    1.000
    C303     C        0.94940    0.83070    0.68920    1.000
    H254     H        0.93350    0.78870    0.67540    1.000
    H255     H        0.96800    0.82030    0.72000    1.000
    H256     H        0.96760    0.84650    0.67160    1.000
    C304     C        0.97320    0.99160    0.70720    1.000
    H257     H        0.98650    0.96820    0.68680    1.000
    H258     H        0.99700    0.00850    0.73380    1.000
    C305     C        0.94530    0.05230    0.68310    1.000
    H259     H        0.96350    0.08560    0.67380    1.000
    H260     H        0.93230    0.07530    0.70340    1.000
    H261     H        0.92200    0.03530    0.65650    1.000
    C306     C        0.91470    0.94110    0.75390    1.000
    H262     H        0.90330    0.98090    0.76420    1.000
    N19      N        0.91360    0.93880    0.71180    1.000
    C307     C        0.94760    0.89380    0.70230    1.000
    H263     H        0.93240    0.86220    0.67720    1.000
    H264     H        0.96670    0.92430    0.69170    1.000
    C308     C        0.97550    0.85110    0.73940    1.000
    H265     H        0.97460    0.86940    0.76810    1.000
    H266     H        0.00560    0.85240    0.73900    1.000
    H267     H        0.96500    0.80300    0.73570    1.000
    C309     C        0.89630    0.00450    0.68330    1.000
    H268     H        0.90810    0.04670    0.70110    1.000
    H269     H        0.90540    0.00450    0.65630    1.000
    C310     C        0.84620    0.00370    0.66960    1.000
    H270     H        0.83440    0.04610    0.65270    1.000
    H271     H        0.83760    0.00150    0.69660    1.000
    H272     H        0.83480    0.96300    0.65060    1.000
    C311     C        0.90530    0.61520    0.01520    1.000
    H273     H        0.90130    0.57760    0.99470    1.000
    N20      N        0.90640    0.60330    0.05670    1.000
    C312     C        0.92590    0.65520    0.09220    1.000
    H274     H        0.91090    0.70010    0.08230    1.000
    H275     H        0.91950    0.64080    0.11960    1.000
    C313     C        0.97290    0.66720    0.10480    1.000
    H276     H        0.98360    0.68840    0.13470    1.000
    H277     H        0.97880    0.69840    0.08280    1.000
    H278     H        0.98780    0.62280    0.10520    1.000
    C314     C        0.89740    0.53010    0.06970    1.000
    H279     H        0.87800    0.53210    0.08830    1.000
    H280     H        0.88250    0.50280    0.04230    1.000
    C315     C        0.94020    0.49560    0.09590    1.000
    H281     H        0.93440    0.44950    0.10590    1.000
    H282     H        0.95550    0.52410    0.12220    1.000
    H283     H        0.95840    0.49090    0.07670    1.000
    O135     O        0.91410    0.54170    0.82830    1.000
    C316     C        0.93650    0.50930    0.86120    1.000
    H284     H        0.95830    0.53170    0.88520    1.000
    O136     O        0.92880    0.44040    0.86220    1.000
    C317     C        0.64248    0.70963    0.43191    1.000
    C318     C        0.64722    0.77727    0.41555    1.000
    C319     C        0.65075    0.83451    0.44356    1.000
    C320     C        0.64708    0.82600    0.48713    1.000
    C321     C        0.85746    0.74029    0.49719    1.000
    C322     C        0.63901    0.70119    0.47443    1.000
    C323     C        0.84332    0.86072    0.49702    1.000
    C324     C        0.68415    0.58661    0.48392    1.000
    C325     C        0.68999    0.60533    0.44052    1.000
    C326     C        0.66862    0.66146    0.41484    1.000
    C327     C        0.68863    0.69968    0.38840    1.000
    C328     C        0.67177    0.77196    0.38366    1.000
    C329     C        0.70620    0.83334    0.38594    1.000
    C330     C        0.71041    0.88711    0.42082    1.000
    C331     C        0.68280    0.88984    0.44615    1.000
    C332     C        0.69847    0.91462    0.49129    1.000
    C333     C        0.67275    0.88168    0.51683    1.000
    C334     C        0.80126    0.64172    0.43220    1.000
    C335     C        0.80493    0.71584    0.42104    1.000
    C336     C        0.83276    0.76164    0.45074    1.000
    C337     C        0.82171    0.83270    0.45118    1.000
    C338     C        0.78101    0.85579    0.42389    1.000
    C339     C        0.75557    0.90441    0.44109    1.000
    C340     C        0.77104    0.92900    0.48505    1.000
    C341     C        0.74219    0.93194    0.51074    1.000
    C342     C        0.73353    0.58926    0.44269    1.000
    C343     C        0.75367    0.62651    0.41664    1.000
    C344     C        0.73102    0.68375    0.39038    1.000
    C345     C        0.76303    0.73972    0.39274    1.000
    C346     C        0.75173    0.80950    0.39298    1.000
    C347     C        0.64101    0.56585    0.49021    1.000
    C348     C        0.66249    0.91124    0.55657    1.000
    C349     C        0.66760    0.82035    0.34501    1.000
    O137     O        0.59905    0.54590    0.41194    1.000
    C350     C        0.60028    0.56046    0.44927    1.000
    O138     O        0.56615    0.57691    0.46186    1.000
    C351     C        0.52419    0.57933    0.42667    1.000
    H285     H        0.52480    0.54860    0.40170    1.000
    H286     H        0.50140    0.56170    0.43850    1.000
    C352     C        0.51246    0.65244    0.40889    1.000
    O139     O        0.53721    0.70132    0.42886    1.000
    O140     O        0.47863    0.65968    0.37584    1.000
    O141     O        0.66622    0.51644    0.56434    1.000
    C353     C        0.64408    0.51253    0.52582    1.000
    O142     O        0.61967    0.45754    0.50712    1.000
    C354     C        0.61886    0.40372    0.53845    1.000
    H287     H        0.60390    0.36230    0.52160    1.000
    H288     H        0.64920    0.39030    0.55580    1.000
    C355     C        0.59548    0.42647    0.57100    1.000
    O143     O        0.57598    0.48235    0.56595    1.000
    O144     O        0.59866    0.38217    0.60173    1.000
    O145     O        0.60767    0.84369    0.57522    1.000
    C356     C        0.61742    0.89219    0.55747    1.000
    O146     O        0.59015    0.94052    0.53279    1.000
    C357     C        0.54465    0.93270    0.52749    1.000
    H289     H        0.54190    0.91190    0.55520    1.000
    H290     H        0.53080    0.97920    0.52360    1.000
    C358     C        0.52046    0.88703    0.48714    1.000
    O147     O        0.54235    0.85578    0.46670    1.000
    O148     O        0.48016    0.88462    0.47945    1.000
    O149     O        0.69070    0.02440    0.55250    1.000
    C359     C        0.67577    0.98435    0.57232    1.000
    O150     O        0.67350    0.99140    0.61360    1.000
    C360     C        0.68000    0.06050    0.63280    1.000
    H291     H        0.69530    0.05780    0.66570    1.000
    H292     H        0.69800    0.08850    0.61920    1.000
    C361     C        0.63490    0.09450    0.62330    1.000
    O151     O        0.61170    0.10027    0.58381    1.000
    O152     O        0.62919    0.11830    0.65710    1.000
    O153     O        0.63166    0.93106    0.34199    1.000
    C362     C        0.62932    0.87035    0.33373    1.000
    O154     O        0.59313    0.83502    0.31525    1.000
    C363     C        0.55201    0.87170    0.30144    1.000
    H293     H        0.55750    0.92240    0.30400    1.000
    H294     H        0.53580    0.86090    0.26960    1.000
    C364     C        0.52478    0.85113    0.33033    1.000
    O155     O        0.54462    0.82888    0.36922    1.000
    O156     O        0.48480    0.86112    0.31298    1.000
    O157     O        0.69935    0.82080    0.28664    1.000
    C365     C        0.67567    0.79276    0.30323    1.000
    O158     O        0.65300    0.73571    0.28951    1.000
    C366     C        0.65213    0.70830    0.24632    1.000
    H295     H        0.68080    0.71620    0.24230    1.000
    H296     H        0.64680    0.65750    0.24550    1.000
    C367     C        0.61643    0.74320    0.20823    1.000
    O159     O        0.60400    0.80179    0.21520    1.000
    O160     O        0.60366    0.71101    0.17148    1.000
    Zn17     Zn       0.51732    0.79747    0.41272    1.000
    Zn18     Zn       0.41872    0.60918    0.34180    1.000
    Zn19     Zn       0.42931    0.81709    0.44580    1.000
    Zn20     Zn       0.43188    0.86393    0.33527    1.000
    O161     O        0.45358    0.80399    0.39161    1.000
    O162     O        0.43046    0.60795    0.28122    1.000
    O163     O        0.40929    0.82560    0.50270    1.000
    C368     C        0.37170    0.84530    0.50210    1.000
    H297     H        0.35560    0.87280    0.47710    1.000
    N21      N        0.35210    0.83200    0.53220    1.000
    C369     C        0.37410    0.78620    0.57120    1.000
    H298     H        0.40610    0.78930    0.57780    1.000
    H299     H        0.36750    0.80340    0.59790    1.000
    C370     C        0.36050    0.71190    0.56340    1.000
    H300     H        0.37520    0.68490    0.59060    1.000
    H301     H        0.32880    0.70850    0.55640    1.000
    H302     H        0.36860    0.69360    0.53820    1.000
    C371     C        0.30400    0.84950    0.52230    1.000
    H303     H        0.28710    0.80640    0.52150    1.000
    H304     H        0.29230    0.87280    0.49270    1.000
    C372     C        0.30030    0.89710    0.55910    1.000
    H305     H        0.26970    0.91080    0.55260    1.000
    H306     H        0.31050    0.87260    0.58800    1.000
    H307     H        0.31820    0.93860    0.56060    1.000
    O164     O        0.41150    0.94720    0.28170    1.000
    O165     O        0.46818    0.95110    0.38029    1.000
    C373     C        0.47640    0.00470    0.36380    1.000
    H308     H        0.45900    0.01610    0.33390    1.000
    N22      N        0.50840    0.04810    0.38570    1.000
    C374     C        0.54180    0.02930    0.42690    1.000
    H309     H        0.53000    0.99380    0.44260    1.000
    H310     H        0.54970    0.07070    0.44660    1.000
    C375     C        0.58120    0.00180    0.41990    1.000
    H311     H        0.59490    0.96730    0.44310    1.000
    H312     H        0.60180    0.03990    0.42160    1.000
    H313     H        0.57330    0.97990    0.39020    1.000
    C376     C        0.51070    0.11670    0.36550    1.000
    H314     H        0.49130    0.11670    0.33380    1.000
    H315     H        0.54090    0.12490    0.36580    1.000
    C377     C        0.49720    0.17560    0.39060    1.000
    H316     H        0.49340    0.21840    0.37290    1.000
    H317     H        0.51990    0.18260    0.41980    1.000
    H318     H        0.46960    0.16360    0.39520    1.000
    O166     O        0.68800    0.03270    0.55600    1.000
    O167     O        0.66560    0.98980    0.61020    1.000
    C378     C        0.67800    0.05200    0.63640    1.000
    H319     H        0.67930    0.04220    0.66770    1.000
    H320     H        0.70770    0.06590    0.63720    1.000
    C379     C        0.64660    0.11250    0.61810    1.000
    O168     O        0.66350    0.16760    0.63770    1.000
    H321     H        0.64670    0.20120    0.62710    1.000
    C380     C        0.44520    0.56030    0.26390    1.000
    H322     H        0.45810    0.52180    0.28250    1.000
    N23      N        0.44450    0.55900    0.22150    1.000
    C381     C        0.41880    0.61570    0.19000    1.000
    H323     H        0.39580    0.63460    0.20100    1.000
    H324     H        0.40480    0.59670    0.15940    1.000
    C382     C        0.44940    0.66930    0.18920    1.000
    H325     H        0.43350    0.71130    0.17540    1.000
    H326     H        0.46800    0.67970    0.22000    1.000
    H327     H        0.46760    0.65350    0.17160    1.000
    C383     C        0.47320    0.50840    0.20720    1.000
    H328     H        0.48650    0.53180    0.18680    1.000
    H329     H        0.49700    0.49150    0.23380    1.000
    C384     C        0.44530    0.44770    0.18310    1.000
    H330     H        0.46350    0.41440    0.17380    1.000
    H331     H        0.43230    0.42470    0.20340    1.000
    H332     H        0.42200    0.46470    0.15650    1.000
    C385     C        0.41470    0.55890    0.25390    1.000
    H333     H        0.40330    0.51910    0.26420    1.000
    N24      N        0.41360    0.56120    0.21180    1.000
    C386     C        0.44760    0.60620    0.20230    1.000
    H334     H        0.43240    0.63780    0.17720    1.000
    H335     H        0.46670    0.57570    0.19170    1.000
    C387     C        0.47550    0.64890    0.23940    1.000
    H336     H        0.47460    0.63060    0.26810    1.000
    H337     H        0.50560    0.64760    0.23900    1.000
    H338     H        0.46500    0.69700    0.23570    1.000
    C388     C        0.39630    0.49550    0.18330    1.000
    H339     H        0.40810    0.45330    0.20110    1.000
    H340     H        0.40540    0.49550    0.15630    1.000
    C389     C        0.34620    0.49630    0.16960    1.000
    H341     H        0.33440    0.45390    0.15270    1.000
    H342     H        0.33760    0.49850    0.19660    1.000
    H343     H        0.33480    0.53700    0.15060    1.000
    C390     C        0.40530    0.88480    0.51520    1.000
    H344     H        0.40130    0.92240    0.49470    1.000
    N25      N        0.40640    0.89670    0.55670    1.000
    C391     C        0.42590    0.84480    0.59220    1.000
    H345     H        0.41090    0.79990    0.58230    1.000
    H346     H        0.41950    0.85920    0.61960    1.000
    C392     C        0.47290    0.83280    0.60480    1.000
    H347     H        0.48360    0.81160    0.63470    1.000
    H348     H        0.47880    0.80160    0.58280    1.000
    H349     H        0.48780    0.87720    0.60520    1.000
    C393     C        0.39740    0.96990    0.56970    1.000
    H350     H        0.37800    0.96790    0.58830    1.000
    H351     H        0.38250    0.99720    0.54230    1.000
    C394     C        0.44020    0.00440    0.59590    1.000
    H352     H        0.43440    0.05050    0.60590    1.000
    H353     H        0.45550    0.97590    0.62220    1.000
    H354     H        0.45840    0.00910    0.57670    1.000
    O169     O        0.41410    0.95830    0.32830    1.000
    C395     C        0.43650    0.99070    0.36120    1.000
    H355     H        0.45830    0.96830    0.38520    1.000
    O170     O        0.42880    0.05960    0.36220    1.000
    C396     C        0.14248    0.20963    0.43191    1.000
    C397     C        0.14722    0.27727    0.41555    1.000
    C398     C        0.15075    0.33451    0.44356    1.000
    C399     C        0.14708    0.32600    0.48713    1.000
    C400     C        0.35746    0.24029    0.49719    1.000
    C401     C        0.13901    0.20119    0.47443    1.000
    C402     C        0.34332    0.36072    0.49702    1.000
    C403     C        0.18415    0.08661    0.48392    1.000
    C404     C        0.18999    0.10533    0.44052    1.000
    C405     C        0.16862    0.16146    0.41484    1.000
    C406     C        0.18863    0.19968    0.38840    1.000
    C407     C        0.17177    0.27196    0.38366    1.000
    C408     C        0.20620    0.33334    0.38594    1.000
    C409     C        0.21041    0.38711    0.42082    1.000
    C410     C        0.18280    0.38984    0.44615    1.000
    C411     C        0.19847    0.41462    0.49129    1.000
    C412     C        0.17275    0.38168    0.51683    1.000
    C413     C        0.30126    0.14172    0.43220    1.000
    C414     C        0.30493    0.21584    0.42104    1.000
    C415     C        0.33276    0.26164    0.45074    1.000
    C416     C        0.32171    0.33270    0.45118    1.000
    C417     C        0.28101    0.35579    0.42389    1.000
    C418     C        0.25557    0.40441    0.44109    1.000
    C419     C        0.27104    0.42900    0.48505    1.000
    C420     C        0.24219    0.43194    0.51074    1.000
    C421     C        0.23353    0.08926    0.44269    1.000
    C422     C        0.25367    0.12651    0.41664    1.000
    C423     C        0.23102    0.18375    0.39038    1.000
    C424     C        0.26303    0.23972    0.39274    1.000
    C425     C        0.25173    0.30950    0.39298    1.000
    C426     C        0.14101    0.06585    0.49021    1.000
    C427     C        0.16249    0.41124    0.55657    1.000
    C428     C        0.16760    0.32035    0.34501    1.000
    O171     O        0.09905    0.04590    0.41194    1.000
    C429     C        0.10028    0.06046    0.44927    1.000
    O172     O        0.06615    0.07691    0.46186    1.000
    C430     C        0.02419    0.07933    0.42667    1.000
    H356     H        0.02480    0.04860    0.40170    1.000
    H357     H        0.00140    0.06170    0.43850    1.000
    C431     C        0.01246    0.15244    0.40889    1.000
    O173     O        0.03721    0.20132    0.42886    1.000
    O174     O        0.97863    0.15968    0.37584    1.000
    O175     O        0.16622    0.01644    0.56434    1.000
    C432     C        0.14408    0.01253    0.52582    1.000
    O176     O        0.11967    0.95754    0.50712    1.000
    C433     C        0.11886    0.90372    0.53845    1.000
    H358     H        0.10390    0.86230    0.52160    1.000
    H359     H        0.14920    0.89030    0.55580    1.000
    C434     C        0.09548    0.92647    0.57100    1.000
    O177     O        0.07598    0.98235    0.56595    1.000
    O178     O        0.09866    0.88217    0.60173    1.000
    O179     O        0.10767    0.34369    0.57522    1.000
    C435     C        0.11742    0.39219    0.55747    1.000
    O180     O        0.09015    0.44052    0.53279    1.000
    C436     C        0.04465    0.43270    0.52749    1.000
    H360     H        0.04190    0.41190    0.55520    1.000
    H361     H        0.03080    0.47920    0.52360    1.000
    C437     C        0.02046    0.38703    0.48714    1.000
    O181     O        0.04235    0.35578    0.46670    1.000
    O182     O        0.98016    0.38462    0.47945    1.000
    O183     O        0.19070    0.52440    0.55250    1.000
    C438     C        0.17577    0.48435    0.57232    1.000
    O184     O        0.17350    0.49140    0.61360    1.000
    C439     C        0.18000    0.56050    0.63280    1.000
    H362     H        0.19530    0.55780    0.66570    1.000
    H363     H        0.19800    0.58850    0.61920    1.000
    C440     C        0.13490    0.59450    0.62330    1.000
    O185     O        0.11170    0.60027    0.58381    1.000
    O186     O        0.12919    0.61830    0.65710    1.000
    O187     O        0.13166    0.43106    0.34199    1.000
    C441     C        0.12932    0.37035    0.33373    1.000
    O188     O        0.09313    0.33502    0.31525    1.000
    C442     C        0.05201    0.37170    0.30144    1.000
    H364     H        0.05750    0.42240    0.30400    1.000
    H365     H        0.03580    0.36090    0.26960    1.000
    C443     C        0.02478    0.35113    0.33033    1.000
    O189     O        0.04462    0.32888    0.36922    1.000
    O190     O        0.98480    0.36112    0.31298    1.000
    O191     O        0.19935    0.32080    0.28664    1.000
    C444     C        0.17567    0.29276    0.30323    1.000
    O192     O        0.15300    0.23571    0.28951    1.000
    C445     C        0.15213    0.20830    0.24632    1.000
    H366     H        0.18080    0.21620    0.24230    1.000
    H367     H        0.14680    0.15750    0.24550    1.000
    C446     C        0.11643    0.24320    0.20823    1.000
    O193     O        0.10400    0.30179    0.21520    1.000
    O194     O        0.10366    0.21101    0.17148    1.000
    Zn21     Zn       0.01732    0.29747    0.41272    1.000
    Zn22     Zn       0.91872    0.10918    0.34180    1.000
    Zn23     Zn       0.92931    0.31709    0.44580    1.000
    Zn24     Zn       0.93188    0.36393    0.33527    1.000
    O195     O        0.95358    0.30399    0.39161    1.000
    O196     O        0.93046    0.10795    0.28122    1.000
    O197     O        0.90929    0.32560    0.50270    1.000
    C447     C        0.87170    0.34530    0.50210    1.000
    H368     H        0.85560    0.37280    0.47710    1.000
    N26      N        0.85210    0.33200    0.53220    1.000
    C448     C        0.87410    0.28620    0.57120    1.000
    H369     H        0.90610    0.28930    0.57780    1.000
    H370     H        0.86750    0.30340    0.59790    1.000
    C449     C        0.86050    0.21190    0.56340    1.000
    H371     H        0.87520    0.18490    0.59060    1.000
    H372     H        0.82880    0.20850    0.55640    1.000
    H373     H        0.86860    0.19360    0.53820    1.000
    C450     C        0.80400    0.34950    0.52230    1.000
    H374     H        0.78710    0.30640    0.52150    1.000
    H375     H        0.79230    0.37280    0.49270    1.000
    C451     C        0.80030    0.39710    0.55910    1.000
    H376     H        0.76970    0.41080    0.55260    1.000
    H377     H        0.81050    0.37260    0.58800    1.000
    H378     H        0.81820    0.43860    0.56060    1.000
    O198     O        0.91150    0.44720    0.28170    1.000
    O199     O        0.96818    0.45110    0.38029    1.000
    C452     C        0.97640    0.50470    0.36380    1.000
    H379     H        0.95900    0.51610    0.33390    1.000
    N27      N        0.00840    0.54810    0.38570    1.000
    C453     C        0.04180    0.52930    0.42690    1.000
    H380     H        0.03000    0.49380    0.44260    1.000
    H381     H        0.04970    0.57070    0.44660    1.000
    C454     C        0.08120    0.50180    0.41990    1.000
    H382     H        0.09490    0.46730    0.44310    1.000
    H383     H        0.10180    0.53990    0.42160    1.000
    H384     H        0.07330    0.47990    0.39020    1.000
    C455     C        0.01070    0.61670    0.36550    1.000
    H385     H        0.99130    0.61670    0.33380    1.000
    H386     H        0.04090    0.62490    0.36580    1.000
    C456     C        0.99720    0.67560    0.39060    1.000
    H387     H        0.99340    0.71840    0.37290    1.000
    H388     H        0.01990    0.68260    0.41980    1.000
    H389     H        0.96960    0.66360    0.39520    1.000
    O200     O        0.18800    0.53270    0.55600    1.000
    O201     O        0.16560    0.48980    0.61020    1.000
    C457     C        0.17800    0.55200    0.63640    1.000
    H390     H        0.17930    0.54220    0.66770    1.000
    H391     H        0.20770    0.56590    0.63720    1.000
    C458     C        0.14660    0.61250    0.61810    1.000
    O202     O        0.16350    0.66760    0.63770    1.000
    H392     H        0.14670    0.70120    0.62710    1.000
    C459     C        0.94520    0.06030    0.26390    1.000
    H393     H        0.95810    0.02180    0.28250    1.000
    N28      N        0.94450    0.05900    0.22150    1.000
    C460     C        0.91880    0.11570    0.19000    1.000
    H394     H        0.89580    0.13460    0.20100    1.000
    H395     H        0.90480    0.09670    0.15940    1.000
    C461     C        0.94940    0.16930    0.18920    1.000
    H396     H        0.93350    0.21130    0.17540    1.000
    H397     H        0.96800    0.17970    0.22000    1.000
    H398     H        0.96760    0.15350    0.17160    1.000
    C462     C        0.97320    0.00840    0.20720    1.000
    H399     H        0.98650    0.03180    0.18680    1.000
    H400     H        0.99700    0.99150    0.23380    1.000
    C463     C        0.94530    0.94770    0.18310    1.000
    H401     H        0.96350    0.91440    0.17380    1.000
    H402     H        0.93230    0.92470    0.20340    1.000
    H403     H        0.92200    0.96470    0.15650    1.000
    C464     C        0.91470    0.05890    0.25390    1.000
    H404     H        0.90330    0.01910    0.26420    1.000
    N29      N        0.91360    0.06120    0.21180    1.000
    C465     C        0.94760    0.10620    0.20230    1.000
    H405     H        0.93240    0.13780    0.17720    1.000
    H406     H        0.96670    0.07570    0.19170    1.000
    C466     C        0.97550    0.14890    0.23940    1.000
    H407     H        0.97460    0.13060    0.26810    1.000
    H408     H        0.00560    0.14760    0.23900    1.000
    H409     H        0.96500    0.19700    0.23570    1.000
    C467     C        0.89630    0.99550    0.18330    1.000
    H410     H        0.90810    0.95330    0.20110    1.000
    H411     H        0.90540    0.99550    0.15630    1.000
    C468     C        0.84620    0.99630    0.16960    1.000
    H412     H        0.83440    0.95390    0.15270    1.000
    H413     H        0.83760    0.99850    0.19660    1.000
    H414     H        0.83480    0.03700    0.15060    1.000
    C469     C        0.90530    0.38480    0.51520    1.000
    H415     H        0.90130    0.42240    0.49470    1.000
    N30      N        0.90640    0.39670    0.55670    1.000
    C470     C        0.92590    0.34480    0.59220    1.000
    H416     H        0.91090    0.29990    0.58230    1.000
    H417     H        0.91950    0.35920    0.61960    1.000
    C471     C        0.97290    0.33280    0.60480    1.000
    H418     H        0.98360    0.31160    0.63470    1.000
    H419     H        0.97880    0.30160    0.58280    1.000
    H420     H        0.98780    0.37720    0.60520    1.000
    C472     C        0.89740    0.46990    0.56970    1.000
    H421     H        0.87800    0.46790    0.58830    1.000
    H422     H        0.88250    0.49720    0.54230    1.000
    C473     C        0.94020    0.50440    0.59590    1.000
    H423     H        0.93440    0.55050    0.60590    1.000
    H424     H        0.95550    0.47590    0.62220    1.000
    H425     H        0.95840    0.50910    0.57670    1.000
    O203     O        0.91410    0.45830    0.32830    1.000
    C474     C        0.93650    0.49070    0.36120    1.000
    H426     H        0.95830    0.46830    0.38520    1.000
    O204     O        0.92880    0.55960    0.36220    1.000
    C475     C        0.35752    0.70963    0.06809    1.000
    C476     C        0.35278    0.77727    0.08445    1.000
    C477     C        0.34925    0.83451    0.05644    1.000
    C478     C        0.35292    0.82600    0.01287    1.000
    C479     C        0.14254    0.74029    0.00281    1.000
    C480     C        0.36099    0.70119    0.02557    1.000
    C481     C        0.15668    0.86072    0.00298    1.000
    C482     C        0.31585    0.58661    0.01608    1.000
    C483     C        0.31001    0.60533    0.05948    1.000
    C484     C        0.33138    0.66146    0.08516    1.000
    C485     C        0.31137    0.69968    0.11160    1.000
    C486     C        0.32823    0.77196    0.11634    1.000
    C487     C        0.29380    0.83334    0.11406    1.000
    C488     C        0.28959    0.88711    0.07918    1.000
    C489     C        0.31720    0.88984    0.05385    1.000
    C490     C        0.30153    0.91462    0.00871    1.000
    C491     C        0.32725    0.88168    0.98317    1.000
    C492     C        0.19874    0.64172    0.06780    1.000
    C493     C        0.19507    0.71584    0.07896    1.000
    C494     C        0.16724    0.76164    0.04926    1.000
    C495     C        0.17829    0.83270    0.04882    1.000
    C496     C        0.21899    0.85579    0.07611    1.000
    C497     C        0.24443    0.90441    0.05891    1.000
    C498     C        0.22896    0.92900    0.01495    1.000
    C499     C        0.25781    0.93194    0.98926    1.000
    C500     C        0.26647    0.58926    0.05731    1.000
    C501     C        0.24633    0.62651    0.08336    1.000
    C502     C        0.26898    0.68375    0.10962    1.000
    C503     C        0.23697    0.73972    0.10726    1.000
    C504     C        0.24827    0.80950    0.10702    1.000
    C505     C        0.35899    0.56585    0.00979    1.000
    C506     C        0.33751    0.91124    0.94343    1.000
    C507     C        0.33240    0.82035    0.15499    1.000
    O205     O        0.40095    0.54590    0.08806    1.000
    C508     C        0.39972    0.56046    0.05073    1.000
    O206     O        0.43385    0.57691    0.03814    1.000
    C509     C        0.47581    0.57933    0.07333    1.000
    H427     H        0.47520    0.54860    0.09830    1.000
    H428     H        0.49860    0.56170    0.06150    1.000
    C510     C        0.48754    0.65244    0.09111    1.000
    O207     O        0.46279    0.70132    0.07114    1.000
    O208     O        0.52137    0.65968    0.12416    1.000
    O209     O        0.33378    0.51644    0.93566    1.000
    C511     C        0.35592    0.51253    0.97418    1.000
    O210     O        0.38033    0.45754    0.99288    1.000
    C512     C        0.38114    0.40372    0.96155    1.000
    H429     H        0.39610    0.36230    0.97840    1.000
    H430     H        0.35080    0.39030    0.94420    1.000
    C513     C        0.40452    0.42647    0.92900    1.000
    O211     O        0.42402    0.48235    0.93405    1.000
    O212     O        0.40134    0.38217    0.89827    1.000
    O213     O        0.39233    0.84369    0.92478    1.000
    C514     C        0.38258    0.89219    0.94253    1.000
    O214     O        0.40985    0.94052    0.96721    1.000
    C515     C        0.45535    0.93270    0.97251    1.000
    H431     H        0.45810    0.91190    0.94480    1.000
    H432     H        0.46920    0.97920    0.97640    1.000
    C516     C        0.47954    0.88703    0.01286    1.000
    O215     O        0.45765    0.85578    0.03330    1.000
    O216     O        0.51984    0.88462    0.02055    1.000
    O217     O        0.30930    0.02440    0.94750    1.000
    C517     C        0.32423    0.98435    0.92768    1.000
    O218     O        0.32650    0.99140    0.88640    1.000
    C518     C        0.32000    0.06050    0.86720    1.000
    H433     H        0.30470    0.05780    0.83430    1.000
    H434     H        0.30200    0.08850    0.88080    1.000
    C519     C        0.36510    0.09450    0.87670    1.000
    O219     O        0.38830    0.10027    0.91619    1.000
    O220     O        0.37081    0.11830    0.84290    1.000
    O221     O        0.36834    0.93106    0.15801    1.000
    C520     C        0.37068    0.87035    0.16627    1.000
    O222     O        0.40687    0.83502    0.18475    1.000
    C521     C        0.44799    0.87170    0.19856    1.000
    H435     H        0.44250    0.92240    0.19600    1.000
    H436     H        0.46420    0.86090    0.23040    1.000
    C522     C        0.47522    0.85113    0.16967    1.000
    O223     O        0.45538    0.82888    0.13078    1.000
    O224     O        0.51520    0.86112    0.18702    1.000
    O225     O        0.30065    0.82080    0.21336    1.000
    C523     C        0.32433    0.79276    0.19677    1.000
    O226     O        0.34700    0.73571    0.21049    1.000
    C524     C        0.34787    0.70830    0.25368    1.000
    H437     H        0.31920    0.71620    0.25770    1.000
    H438     H        0.35320    0.65750    0.25450    1.000
    C525     C        0.38357    0.74320    0.29177    1.000
    O227     O        0.39600    0.80179    0.28480    1.000
    O228     O        0.39634    0.71101    0.32852    1.000
    Zn25     Zn       0.48268    0.79747    0.08728    1.000
    Zn26     Zn       0.58128    0.60918    0.15820    1.000
    Zn27     Zn       0.57069    0.81709    0.05420    1.000
    Zn28     Zn       0.56812    0.86393    0.16473    1.000
    O229     O        0.54642    0.80399    0.10839    1.000
    O230     O        0.56954    0.60795    0.21878    1.000
    O231     O        0.59071    0.82560    0.99730    1.000
    C526     C        0.62830    0.84530    0.99790    1.000
    H439     H        0.64440    0.87280    0.02290    1.000
    N31      N        0.64790    0.83200    0.96780    1.000
    C527     C        0.62590    0.78620    0.92880    1.000
    H440     H        0.59390    0.78930    0.92220    1.000
    H441     H        0.63250    0.80340    0.90210    1.000
    C528     C        0.63950    0.71190    0.93660    1.000
    H442     H        0.62480    0.68490    0.90940    1.000
    H443     H        0.67120    0.70850    0.94360    1.000
    H444     H        0.63140    0.69360    0.96180    1.000
    C529     C        0.69600    0.84950    0.97770    1.000
    H445     H        0.71290    0.80640    0.97850    1.000
    H446     H        0.70770    0.87280    0.00730    1.000
    C530     C        0.69970    0.89710    0.94090    1.000
    H447     H        0.73030    0.91080    0.94740    1.000
    H448     H        0.68950    0.87260    0.91200    1.000
    H449     H        0.68180    0.93860    0.93940    1.000
    O232     O        0.58850    0.94720    0.21830    1.000
    O233     O        0.53182    0.95110    0.11971    1.000
    C531     C        0.52360    0.00470    0.13620    1.000
    H450     H        0.54100    0.01610    0.16610    1.000
    N32      N        0.49160    0.04810    0.11430    1.000
    C532     C        0.45820    0.02930    0.07310    1.000
    H451     H        0.47000    0.99380    0.05740    1.000
    H452     H        0.45030    0.07070    0.05340    1.000
    C533     C        0.41880    0.00180    0.08010    1.000
    H453     H        0.40510    0.96730    0.05690    1.000
    H454     H        0.39820    0.03990    0.07840    1.000
    H455     H        0.42670    0.97990    0.10980    1.000
    C534     C        0.48930    0.11670    0.13450    1.000
    H456     H        0.50870    0.11670    0.16620    1.000
    H457     H        0.45910    0.12490    0.13420    1.000
    C535     C        0.50280    0.17560    0.10940    1.000
    H458     H        0.50660    0.21840    0.12710    1.000
    H459     H        0.48010    0.18260    0.08020    1.000
    H460     H        0.53040    0.16360    0.10480    1.000
    O234     O        0.31200    0.03270    0.94400    1.000
    O235     O        0.33440    0.98980    0.88980    1.000
    C536     C        0.32200    0.05200    0.86360    1.000
    H461     H        0.32070    0.04220    0.83230    1.000
    H462     H        0.29230    0.06590    0.86280    1.000
    C537     C        0.35340    0.11250    0.88190    1.000
    O236     O        0.33650    0.16760    0.86230    1.000
    H463     H        0.35330    0.20120    0.87290    1.000
    C538     C        0.55480    0.56030    0.23610    1.000
    H464     H        0.54190    0.52180    0.21750    1.000
    N33      N        0.55550    0.55900    0.27850    1.000
    C539     C        0.58120    0.61570    0.31000    1.000
    H465     H        0.60420    0.63460    0.29900    1.000
    H466     H        0.59520    0.59670    0.34060    1.000
    C540     C        0.55060    0.66930    0.31080    1.000
    H467     H        0.56650    0.71130    0.32460    1.000
    H468     H        0.53200    0.67970    0.28000    1.000
    H469     H        0.53240    0.65350    0.32840    1.000
    C541     C        0.52680    0.50840    0.29280    1.000
    H470     H        0.51350    0.53180    0.31320    1.000
    H471     H        0.50300    0.49150    0.26620    1.000
    C542     C        0.55470    0.44770    0.31690    1.000
    H472     H        0.53650    0.41440    0.32620    1.000
    H473     H        0.56770    0.42470    0.29660    1.000
    H474     H        0.57800    0.46470    0.34350    1.000
    C543     C        0.58530    0.55890    0.24610    1.000
    H475     H        0.59670    0.51910    0.23580    1.000
    N34      N        0.58640    0.56120    0.28820    1.000
    C544     C        0.55240    0.60620    0.29770    1.000
    H476     H        0.56760    0.63780    0.32280    1.000
    H477     H        0.53330    0.57570    0.30830    1.000
    C545     C        0.52450    0.64890    0.26060    1.000
    H478     H        0.52540    0.63060    0.23190    1.000
    H479     H        0.49440    0.64760    0.26100    1.000
    H480     H        0.53500    0.69700    0.26430    1.000
    C546     C        0.60370    0.49550    0.31670    1.000
    H481     H        0.59190    0.45330    0.29890    1.000
    H482     H        0.59460    0.49550    0.34370    1.000
    C547     C        0.65380    0.49630    0.33040    1.000
    H483     H        0.66560    0.45390    0.34730    1.000
    H484     H        0.66240    0.49850    0.30340    1.000
    H485     H        0.66520    0.53700    0.34940    1.000
    C548     C        0.59470    0.88480    0.98480    1.000
    H486     H        0.59870    0.92240    0.00530    1.000
    N35      N        0.59360    0.89670    0.94330    1.000
    C549     C        0.57410    0.84480    0.90780    1.000
    H487     H        0.58910    0.79990    0.91770    1.000
    H488     H        0.58050    0.85920    0.88040    1.000
    C550     C        0.52710    0.83280    0.89520    1.000
    H489     H        0.51640    0.81160    0.86530    1.000
    H490     H        0.52120    0.80160    0.91720    1.000
    H491     H        0.51220    0.87720    0.89480    1.000
    C551     C        0.60260    0.96990    0.93030    1.000
    H492     H        0.62200    0.96790    0.91170    1.000
    H493     H        0.61750    0.99720    0.95770    1.000
    C552     C        0.55980    0.00440    0.90410    1.000
    H494     H        0.56560    0.05050    0.89410    1.000
    H495     H        0.54450    0.97590    0.87780    1.000
    H496     H        0.54160    0.00910    0.92330    1.000
    O237     O        0.58590    0.95830    0.17170    1.000
    C553     C        0.56350    0.99070    0.13880    1.000
    H497     H        0.54170    0.96830    0.11480    1.000
    O238     O        0.57120    0.05960    0.13780    1.000
    C554     C        0.85752    0.20963    0.06809    1.000
    C555     C        0.85278    0.27727    0.08445    1.000
    C556     C        0.84925    0.33451    0.05644    1.000
    C557     C        0.85292    0.32600    0.01287    1.000
    C558     C        0.64254    0.24029    0.00281    1.000
    C559     C        0.86099    0.20119    0.02557    1.000
    C560     C        0.65668    0.36072    0.00298    1.000
    C561     C        0.81585    0.08661    0.01608    1.000
    C562     C        0.81001    0.10533    0.05948    1.000
    C563     C        0.83138    0.16146    0.08516    1.000
    C564     C        0.81137    0.19968    0.11160    1.000
    C565     C        0.82823    0.27196    0.11634    1.000
    C566     C        0.79380    0.33334    0.11406    1.000
    C567     C        0.78959    0.38711    0.07918    1.000
    C568     C        0.81720    0.38984    0.05385    1.000
    C569     C        0.80153    0.41462    0.00871    1.000
    C570     C        0.82725    0.38168    0.98317    1.000
    C571     C        0.69874    0.14172    0.06780    1.000
    C572     C        0.69507    0.21584    0.07896    1.000
    C573     C        0.66724    0.26164    0.04926    1.000
    C574     C        0.67829    0.33270    0.04882    1.000
    C575     C        0.71899    0.35579    0.07611    1.000
    C576     C        0.74443    0.40441    0.05891    1.000
    C577     C        0.72896    0.42900    0.01495    1.000
    C578     C        0.75781    0.43194    0.98926    1.000
    C579     C        0.76647    0.08926    0.05731    1.000
    C580     C        0.74633    0.12651    0.08336    1.000
    C581     C        0.76898    0.18375    0.10962    1.000
    C582     C        0.73697    0.23972    0.10726    1.000
    C583     C        0.74827    0.30950    0.10702    1.000
    C584     C        0.85899    0.06585    0.00979    1.000
    C585     C        0.83751    0.41124    0.94343    1.000
    C586     C        0.83240    0.32035    0.15499    1.000
    O239     O        0.90095    0.04590    0.08806    1.000
    C587     C        0.89972    0.06046    0.05073    1.000
    O240     O        0.93385    0.07691    0.03814    1.000
    C588     C        0.97581    0.07933    0.07333    1.000
    H498     H        0.97520    0.04860    0.09830    1.000
    H499     H        0.99860    0.06170    0.06150    1.000
    C589     C        0.98754    0.15244    0.09111    1.000
    O241     O        0.96279    0.20132    0.07114    1.000
    O242     O        0.02137    0.15968    0.12416    1.000
    O243     O        0.83378    0.01644    0.93566    1.000
    C590     C        0.85592    0.01253    0.97418    1.000
    O244     O        0.88033    0.95754    0.99288    1.000
    C591     C        0.88114    0.90372    0.96155    1.000
    H500     H        0.89610    0.86230    0.97840    1.000
    H501     H        0.85080    0.89030    0.94420    1.000
    C592     C        0.90452    0.92647    0.92900    1.000
    O245     O        0.92402    0.98235    0.93405    1.000
    O246     O        0.90134    0.88217    0.89827    1.000
    O247     O        0.89233    0.34369    0.92478    1.000
    C593     C        0.88258    0.39219    0.94253    1.000
    O248     O        0.90985    0.44052    0.96721    1.000
    C594     C        0.95535    0.43270    0.97251    1.000
    H502     H        0.95810    0.41190    0.94480    1.000
    H503     H        0.96920    0.47920    0.97640    1.000
    C595     C        0.97954    0.38703    0.01286    1.000
    O249     O        0.95765    0.35578    0.03330    1.000
    O250     O        0.01984    0.38462    0.02055    1.000
    O251     O        0.80930    0.52440    0.94750    1.000
    C596     C        0.82423    0.48435    0.92768    1.000
    O252     O        0.82650    0.49140    0.88640    1.000
    C597     C        0.82000    0.56050    0.86720    1.000
    H504     H        0.80470    0.55780    0.83430    1.000
    H505     H        0.80200    0.58850    0.88080    1.000
    C598     C        0.86510    0.59450    0.87670    1.000
    O253     O        0.88830    0.60027    0.91619    1.000
    O254     O        0.87081    0.61830    0.84290    1.000
    O255     O        0.86834    0.43106    0.15801    1.000
    C599     C        0.87068    0.37035    0.16627    1.000
    O256     O        0.90687    0.33502    0.18475    1.000
    C600     C        0.94799    0.37170    0.19856    1.000
    H506     H        0.94250    0.42240    0.19600    1.000
    H507     H        0.96420    0.36090    0.23040    1.000
    C601     C        0.97522    0.35113    0.16967    1.000
    O257     O        0.95538    0.32888    0.13078    1.000
    O258     O        0.01520    0.36112    0.18702    1.000
    O259     O        0.80065    0.32080    0.21336    1.000
    C602     C        0.82433    0.29276    0.19677    1.000
    O260     O        0.84700    0.23571    0.21049    1.000
    C603     C        0.84787    0.20830    0.25368    1.000
    H508     H        0.81920    0.21620    0.25770    1.000
    H509     H        0.85320    0.15750    0.25450    1.000
    C604     C        0.88357    0.24320    0.29177    1.000
    O261     O        0.89600    0.30179    0.28480    1.000
    O262     O        0.89634    0.21101    0.32852    1.000
    Zn29     Zn       0.98268    0.29747    0.08728    1.000
    Zn30     Zn       0.08128    0.10918    0.15820    1.000
    Zn31     Zn       0.07069    0.31709    0.05420    1.000
    Zn32     Zn       0.06812    0.36393    0.16473    1.000
    O263     O        0.04642    0.30399    0.10839    1.000
    O264     O        0.06954    0.10795    0.21878    1.000
    O265     O        0.09071    0.32560    0.99730    1.000
    C605     C        0.12830    0.34530    0.99790    1.000
    H510     H        0.14440    0.37280    0.02290    1.000
    N36      N        0.14790    0.33200    0.96780    1.000
    C606     C        0.12590    0.28620    0.92880    1.000
    H511     H        0.09390    0.28930    0.92220    1.000
    H512     H        0.13250    0.30340    0.90210    1.000
    C607     C        0.13950    0.21190    0.93660    1.000
    H513     H        0.12480    0.18490    0.90940    1.000
    H514     H        0.17120    0.20850    0.94360    1.000
    H515     H        0.13140    0.19360    0.96180    1.000
    C608     C        0.19600    0.34950    0.97770    1.000
    H516     H        0.21290    0.30640    0.97850    1.000
    H517     H        0.20770    0.37280    0.00730    1.000
    C609     C        0.19970    0.39710    0.94090    1.000
    H518     H        0.23030    0.41080    0.94740    1.000
    H519     H        0.18950    0.37260    0.91200    1.000
    H520     H        0.18180    0.43860    0.93940    1.000
    O266     O        0.08850    0.44720    0.21830    1.000
    O267     O        0.03182    0.45110    0.11971    1.000
    C610     C        0.02360    0.50470    0.13620    1.000
    H521     H        0.04100    0.51610    0.16610    1.000
    N37      N        0.99160    0.54810    0.11430    1.000
    C611     C        0.95820    0.52930    0.07310    1.000
    H522     H        0.97000    0.49380    0.05740    1.000
    H523     H        0.95030    0.57070    0.05340    1.000
    C612     C        0.91880    0.50180    0.08010    1.000
    H524     H        0.90510    0.46730    0.05690    1.000
    H525     H        0.89820    0.53990    0.07840    1.000
    H526     H        0.92670    0.47990    0.10980    1.000
    C613     C        0.98930    0.61670    0.13450    1.000
    H527     H        0.00870    0.61670    0.16620    1.000
    H528     H        0.95910    0.62490    0.13420    1.000
    C614     C        0.00280    0.67560    0.10940    1.000
    H529     H        0.00660    0.71840    0.12710    1.000
    H530     H        0.98010    0.68260    0.08020    1.000
    H531     H        0.03040    0.66360    0.10480    1.000
    O268     O        0.81200    0.53270    0.94400    1.000
    O269     O        0.83440    0.48980    0.88980    1.000
    C615     C        0.82200    0.55200    0.86360    1.000
    H532     H        0.82070    0.54220    0.83230    1.000
    H533     H        0.79230    0.56590    0.86280    1.000
    C616     C        0.85340    0.61250    0.88190    1.000
    O270     O        0.83650    0.66760    0.86230    1.000
    H534     H        0.85330    0.70120    0.87290    1.000
    C617     C        0.05480    0.06030    0.23610    1.000
    H535     H        0.04190    0.02180    0.21750    1.000
    N38      N        0.05550    0.05900    0.27850    1.000
    C618     C        0.08120    0.11570    0.31000    1.000
    H536     H        0.10420    0.13460    0.29900    1.000
    H537     H        0.09520    0.09670    0.34060    1.000
    C619     C        0.05060    0.16930    0.31080    1.000
    H538     H        0.06650    0.21130    0.32460    1.000
    H539     H        0.03200    0.17970    0.28000    1.000
    H540     H        0.03240    0.15350    0.32840    1.000
    C620     C        0.02680    0.00840    0.29280    1.000
    H541     H        0.01350    0.03180    0.31320    1.000
    H542     H        0.00300    0.99150    0.26620    1.000
    C621     C        0.05470    0.94770    0.31690    1.000
    H543     H        0.03650    0.91440    0.32620    1.000
    H544     H        0.06770    0.92470    0.29660    1.000
    H545     H        0.07800    0.96470    0.34350    1.000
    C622     C        0.08530    0.05890    0.24610    1.000
    H546     H        0.09670    0.01910    0.23580    1.000
    N39      N        0.08640    0.06120    0.28820    1.000
    C623     C        0.05240    0.10620    0.29770    1.000
    H547     H        0.06760    0.13780    0.32280    1.000
    H548     H        0.03330    0.07570    0.30830    1.000
    C624     C        0.02450    0.14890    0.26060    1.000
    H549     H        0.02540    0.13060    0.23190    1.000
    H550     H        0.99440    0.14760    0.26100    1.000
    H551     H        0.03500    0.19700    0.26430    1.000
    C625     C        0.10370    0.99550    0.31670    1.000
    H552     H        0.09190    0.95330    0.29890    1.000
    H553     H        0.09460    0.99550    0.34370    1.000
    C626     C        0.15380    0.99630    0.33040    1.000
    H554     H        0.16560    0.95390    0.34730    1.000
    H555     H        0.16240    0.99850    0.30340    1.000
    H556     H        0.16520    0.03700    0.34940    1.000
    C627     C        0.09470    0.38480    0.98480    1.000
    H557     H        0.09870    0.42240    0.00530    1.000
    N40      N        0.09360    0.39670    0.94330    1.000
    C628     C        0.07410    0.34480    0.90780    1.000
    H558     H        0.08910    0.29990    0.91770    1.000
    H559     H        0.08050    0.35920    0.88040    1.000
    C629     C        0.02710    0.33280    0.89520    1.000
    H560     H        0.01640    0.31160    0.86530    1.000
    H561     H        0.02120    0.30160    0.91720    1.000
    H562     H        0.01220    0.37720    0.89480    1.000
    C630     C        0.10260    0.46990    0.93030    1.000
    H563     H        0.12200    0.46790    0.91170    1.000
    H564     H        0.11750    0.49720    0.95770    1.000
    C631     C        0.05980    0.50440    0.90410    1.000
    H565     H        0.06560    0.55050    0.89410    1.000
    H566     H        0.04450    0.47590    0.87780    1.000
    H567     H        0.04160    0.50910    0.92330    1.000
    O271     O        0.08590    0.45830    0.17170    1.000
    C632     C        0.06350    0.49070    0.13880    1.000
    H568     H        0.04170    0.46830    0.11480    1.000
    O272     O        0.07120    0.55960    0.13780    1.000
