# CIF file generated by openbabel 3.1.0, see https://openbabel.org
data_I
_chemical_name_common 'image0'
_cell_length_a 14.87
_cell_length_b 10.245
_cell_length_c 18.868
_cell_angle_alpha 90
_cell_angle_beta 99.5
_cell_angle_gamma 90
_space_group_name_H-M_alt 'P 1'
_space_group_name_Hall 'P 1'
loop_
    _symmetry_equiv_pos_as_xyz
    x,y,z
loop_
    _atom_site_label
    _atom_site_type_symbol
    _atom_site_fract_x
    _atom_site_fract_y
    _atom_site_fract_z
    _atom_site_occupancy
    V1       V        0.15930    0.12110    0.58940    1.000
    V2       V        0.76830    0.05990    0.71620    1.000
    P1       P        0.28640    0.37960    0.57420    1.000
    P2       P        0.66060    0.33750    0.67000    1.000
    O1       O        0.19790    0.30430    0.57570    1.000
    O2       O        0.29630    0.42310    0.49900    1.000
    O3       O        0.67080    0.43160    0.60840    1.000
    O4       O        0.73520    0.23590    0.67370    1.000
    O5       O        0.65970    0.40780    0.74070    1.000
    O6       O        0.28970    0.50350    0.61950    1.000
    O7       O        0.20670    0.15210    0.68950    1.000
    C1       C        0.38240    0.27450    0.60850    1.000
    C2       C        0.47130    0.35050    0.62470    1.000
    C3       C        0.55270    0.25490    0.64690    1.000
    H1       H        0.16710    0.16440    0.72430    1.000
    H2       H        0.26320    0.11450    0.71240    1.000
    H3       H        0.38820    0.20880    0.57320    1.000
    H4       H        0.37100    0.23350    0.65190    1.000
    H5       H        0.49930    0.37440    0.67250    1.000
    H6       H        0.51660    0.34970    0.59380    1.000
    H7       H        0.06470    0.66300    0.64450    1.000
    H8       H        0.98810    0.76980    0.63630    1.000
    V3       V        0.65930    0.62110    0.58940    1.000
    V4       V        0.26830    0.55990    0.71620    1.000
    P3       P        0.78640    0.87960    0.57420    1.000
    P4       P        0.16060    0.83750    0.67000    1.000
    O8       O        0.69790    0.80430    0.57570    1.000
    O9       O        0.79630    0.92310    0.49900    1.000
    O10      O        0.17080    0.93160    0.60840    1.000
    O11      O        0.23520    0.73590    0.67370    1.000
    O12      O        0.15970    0.90780    0.74070    1.000
    O13      O        0.78970    0.00350    0.61950    1.000
    O14      O        0.70670    0.65210    0.68950    1.000
    C4       C        0.88240    0.77450    0.60850    1.000
    C5       C        0.97130    0.85050    0.62470    1.000
    C6       C        0.05270    0.75490    0.64690    1.000
    H9       H        0.66710    0.66440    0.72430    1.000
    H10      H        0.76320    0.61450    0.71240    1.000
    H11      H        0.88820    0.70880    0.57320    1.000
    H12      H        0.87100    0.73350    0.65190    1.000
    H13      H        0.99930    0.87440    0.67250    1.000
    H14      H        0.01660    0.84970    0.59380    1.000
    H15      H        0.56470    0.16300    0.64450    1.000
    H16      H        0.48810    0.26980    0.63630    1.000
    V5       V        0.84070    0.12110    0.91060    1.000
    V6       V        0.23170    0.05990    0.78380    1.000
    P5       P        0.71360    0.37960    0.92580    1.000
    P6       P        0.33940    0.33750    0.83000    1.000
    O15      O        0.80210    0.30430    0.92430    1.000
    O16      O        0.70370    0.42310    0.00100    1.000
    O17      O        0.32920    0.43160    0.89160    1.000
    O18      O        0.26480    0.23590    0.82630    1.000
    O19      O        0.34030    0.40780    0.75930    1.000
    O20      O        0.71030    0.50350    0.88050    1.000
    O21      O        0.79330    0.15210    0.81050    1.000
    C7       C        0.61760    0.27450    0.89150    1.000
    C8       C        0.52870    0.35050    0.87530    1.000
    C9       C        0.44730    0.25490    0.85310    1.000
    H17      H        0.83290    0.16440    0.77570    1.000
    H18      H        0.73680    0.11450    0.78760    1.000
    H19      H        0.61180    0.20880    0.92680    1.000
    H20      H        0.62900    0.23350    0.84810    1.000
    H21      H        0.50070    0.37440    0.82750    1.000
    H22      H        0.48340    0.34970    0.90620    1.000
    H23      H        0.93530    0.66300    0.85550    1.000
    H24      H        0.01190    0.76980    0.86370    1.000
    V7       V        0.34070    0.62110    0.91060    1.000
    V8       V        0.73170    0.55990    0.78380    1.000
    P7       P        0.21360    0.87960    0.92580    1.000
    P8       P        0.83940    0.83750    0.83000    1.000
    O22      O        0.30210    0.80430    0.92430    1.000
    O23      O        0.20370    0.92310    0.00100    1.000
    O24      O        0.82920    0.93160    0.89160    1.000
    O25      O        0.76480    0.73590    0.82630    1.000
    O26      O        0.84030    0.90780    0.75930    1.000
    O27      O        0.21030    0.00350    0.88050    1.000
    O28      O        0.29330    0.65210    0.81050    1.000
    C10      C        0.11760    0.77450    0.89150    1.000
    C11      C        0.02870    0.85050    0.87530    1.000
    C12      C        0.94730    0.75490    0.85310    1.000
    H25      H        0.33290    0.66440    0.77570    1.000
    H26      H        0.23680    0.61450    0.78760    1.000
    H27      H        0.11180    0.70880    0.92680    1.000
    H28      H        0.12900    0.73350    0.84810    1.000
    H29      H        0.00070    0.87440    0.82750    1.000
    H30      H        0.98340    0.84970    0.90620    1.000
    H31      H        0.43530    0.16300    0.85550    1.000
    H32      H        0.51190    0.26980    0.86370    1.000
    V9       V        0.84070    0.87890    0.41060    1.000
    V10      V        0.23170    0.94010    0.28380    1.000
    P9       P        0.71360    0.62040    0.42580    1.000
    P10      P        0.33940    0.66250    0.33000    1.000
    O29      O        0.80210    0.69570    0.42430    1.000
    O30      O        0.70370    0.57690    0.50100    1.000
    O31      O        0.32920    0.56840    0.39160    1.000
    O32      O        0.26480    0.76410    0.32630    1.000
    O33      O        0.34030    0.59220    0.25930    1.000
    O34      O        0.71030    0.49650    0.38050    1.000
    O35      O        0.79330    0.84790    0.31050    1.000
    C13      C        0.61760    0.72550    0.39150    1.000
    C14      C        0.52870    0.64950    0.37530    1.000
    C15      C        0.44730    0.74510    0.35310    1.000
    H33      H        0.83290    0.83560    0.27570    1.000
    H34      H        0.73680    0.88550    0.28760    1.000
    H35      H        0.61180    0.79120    0.42680    1.000
    H36      H        0.62900    0.76650    0.34810    1.000
    H37      H        0.50070    0.62560    0.32750    1.000
    H38      H        0.48340    0.65030    0.40620    1.000
    H39      H        0.93530    0.33700    0.35550    1.000
    H40      H        0.01190    0.23020    0.36370    1.000
    V11      V        0.34070    0.37890    0.41060    1.000
    V12      V        0.73170    0.44010    0.28380    1.000
    P11      P        0.21360    0.12040    0.42580    1.000
    P12      P        0.83940    0.16250    0.33000    1.000
    O36      O        0.30210    0.19570    0.42430    1.000
    O37      O        0.20370    0.07690    0.50100    1.000
    O38      O        0.82920    0.06840    0.39160    1.000
    O39      O        0.76480    0.26410    0.32630    1.000
    O40      O        0.84030    0.09220    0.25930    1.000
    O41      O        0.21030    0.99650    0.38050    1.000
    O42      O        0.29330    0.34790    0.31050    1.000
    C16      C        0.11760    0.22550    0.39150    1.000
    C17      C        0.02870    0.14950    0.37530    1.000
    C18      C        0.94730    0.24510    0.35310    1.000
    H41      H        0.33290    0.33560    0.27570    1.000
    H42      H        0.23680    0.38550    0.28760    1.000
    H43      H        0.11180    0.29120    0.42680    1.000
    H44      H        0.12900    0.26650    0.34810    1.000
    H45      H        0.00070    0.12560    0.32750    1.000
    H46      H        0.98340    0.15030    0.40620    1.000
    H47      H        0.43530    0.83700    0.35550    1.000
    H48      H        0.51190    0.73020    0.36370    1.000
    V13      V        0.15930    0.87890    0.08940    1.000
    V14      V        0.76830    0.94010    0.21620    1.000
    P13      P        0.28640    0.62040    0.07420    1.000
    P14      P        0.66060    0.66250    0.17000    1.000
    O43      O        0.19790    0.69570    0.07570    1.000
    O44      O        0.29630    0.57690    0.99900    1.000
    O45      O        0.67080    0.56840    0.10840    1.000
    O46      O        0.73520    0.76410    0.17370    1.000
    O47      O        0.65970    0.59220    0.24070    1.000
    O48      O        0.28970    0.49650    0.11950    1.000
    O49      O        0.20670    0.84790    0.18950    1.000
    C19      C        0.38240    0.72550    0.10850    1.000
    C20      C        0.47130    0.64950    0.12470    1.000
    C21      C        0.55270    0.74510    0.14690    1.000
    H49      H        0.16710    0.83560    0.22430    1.000
    H50      H        0.26320    0.88550    0.21240    1.000
    H51      H        0.38820    0.79120    0.07320    1.000
    H52      H        0.37100    0.76650    0.15190    1.000
    H53      H        0.49930    0.62560    0.17250    1.000
    H54      H        0.51660    0.65030    0.09380    1.000
    H55      H        0.06470    0.33700    0.14450    1.000
    H56      H        0.98810    0.23020    0.13630    1.000
    V15      V        0.65930    0.37890    0.08940    1.000
    V16      V        0.26830    0.44010    0.21620    1.000
    P15      P        0.78640    0.12040    0.07420    1.000
    P16      P        0.16060    0.16250    0.17000    1.000
    O50      O        0.69790    0.19570    0.07570    1.000
    O51      O        0.79630    0.07690    0.99900    1.000
    O52      O        0.17080    0.06840    0.10840    1.000
    O53      O        0.23520    0.26410    0.17370    1.000
    O54      O        0.15970    0.09220    0.24070    1.000
    O55      O        0.78970    0.99650    0.11950    1.000
    O56      O        0.70670    0.34790    0.18950    1.000
    C22      C        0.88240    0.22550    0.10850    1.000
    C23      C        0.97130    0.14950    0.12470    1.000
    C24      C        0.05270    0.24510    0.14690    1.000
    H57      H        0.66710    0.33560    0.22430    1.000
    H58      H        0.76320    0.38550    0.21240    1.000
    H59      H        0.88820    0.29120    0.07320    1.000
    H60      H        0.87100    0.26650    0.15190    1.000
    H61      H        0.99930    0.12560    0.17250    1.000
    H62      H        0.01660    0.15030    0.09380    1.000
    H63      H        0.56470    0.83700    0.14450    1.000
    H64      H        0.48810    0.73020    0.13630    1.000
