data_functionalizedCrystal
_audit_creation_method	'EQeq! by Chris Wilmer'
_symmetry_space_group_name_H-M	'P1'
_symmetry_Int_Tables_number	1
_symmetry_cell_setting	triclinic
loop_
_symmetry_equiv_pos_as_xyz
  x,y,z
_cell_length_a	11.4198
_cell_length_b	9.8979
_cell_length_c	18.4392
_cell_angle_alpha	90
_cell_angle_beta	126.853
_cell_angle_gamma	90
loop_
_atom_site_label
_atom_site_type_symbol
_atom_site_fract_x
_atom_site_fract_y
_atom_site_fract_z
_atom_site_charge
Mof_Fe	Fe	0.37725	0.08216	0.13297	0.83
Mof_Fe	Fe	0.42781	0.1067	0.68833	0.905
Mof_O 	O 	0.4371	0.2028	0.2463	-0.483
Mof_O 	O 	0.5497	0.0643	0.36579	-0.448
Mof_O 	O 	0.5895	0.9984	0.2184	-0.43
Mof_O 	O 	0.6763	0.9999	0.13793	-0.333
Mof_O 	O 	0.4547	0.2594	0.10745	-0.484
Mof_O 	O 	0.4843	0.2098	0.00171	-0.416
Mof_O 	O 	0.3453	0.9186	0.19548	-0.448
Mof_O 	O 	0.1047	0.8945	0.11953	-0.396
Mof_O 	O 	0.3365	0.9754	0.02278	-0.455
Mof_O 	O 	0.1147	0.8955	0.9658	-0.378
Mof_O 	O 	0.1597	0.1558	0.06076	-0.474
Mof_O 	O 	0.2033	0.377	0.09432	-0.416
Mof_C 	C 	0.4962	0.1735	0.3292	0.526
Mof_H 	H 	0.4987	0.2413	0.3649	-0.127
Mof_C 	C 	0.6913	0.9865	0.2096	0.493
Mof_H 	H 	0.7844	0.9659	0.2613	-0.082
Mof_C 	C 	0.4742	0.2894	0.0492	0.523
Mof_H 	H 	0.4817	0.3808	0.041	-0.127
Mof_C 	C 	0.2319	0.8703	0.1829	0.526
Mof_H 	H 	0.2468	0.8101	0.2265	-0.133
Mof_C 	C 	0.2239	0.9029	0.9683	0.583
Mof_H 	H 	0.2249	0.851	0.9267	-0.117
Mof_C 	C 	0.1196	0.2803	0.0532	0.488
Mof_H 	H 	0.02	0.2987	0.0138	-0.145
Mof_Fe	Fe	0.62275	0.58216	0.36703	0.936
Mof_Fe	Fe	0.57219	0.6067	0.81167	0.946
Mof_O 	O 	0.5629	0.7028	0.2537	-0.483
Mof_O 	O 	0.4503	0.5643	0.13421	-0.423
Mof_O 	O 	0.4105	0.4984	0.2816	-0.486
Mof_O 	O 	0.3237	0.4999	0.36207	-0.415
Mof_O 	O 	0.5453	0.7594	0.39255	-0.48
Mof_O 	O 	0.5157	0.7098	0.49829	-0.395
Mof_O 	O 	0.6547	0.4186	0.30452	-0.475
Mof_O 	O 	0.8953	0.3945	0.38047	-0.367
Mof_O 	O 	0.6635	0.4754	0.47722	-0.473
Mof_O 	O 	0.8853	0.3955	0.5342	-0.368
Mof_O 	O 	0.8403	0.6558	0.43924	-0.425
Mof_O 	O 	0.7967	0.877	0.40568	-0.36
Mof_C 	C 	0.5038	0.6735	0.1708	0.53
Mof_H 	H 	0.5013	0.7413	0.1351	-0.13
Mof_C 	C 	0.3087	0.4865	0.2904	0.531
Mof_H 	H 	0.2156	0.4659	0.2387	-0.138
Mof_C 	C 	0.5258	0.7894	0.4508	0.534
Mof_H 	H 	0.5183	0.8808	0.459	-0.096
Mof_C 	C 	0.7681	0.3703	0.3171	0.527
Mof_H 	H 	0.7532	0.3101	0.2735	-0.128
Mof_C 	C 	0.7761	0.4029	0.5317	0.525
Mof_H 	H 	0.7751	0.351	0.5733	-0.103
Mof_C 	C 	0.8804	0.7803	0.4468	0.475
Mof_H 	H 	0.98	0.7987	0.4862	-0.05
Mof_Fe	Fe	0.62275	0.91784	0.86703	1.024
Mof_Fe	Fe	0.57219	0.8933	0.31167	0.983
Mof_O 	O 	0.5629	0.7972	0.7537	-0.471
Mof_O 	O 	0.4503	0.9357	0.63421	-0.368
Mof_O 	O 	0.4105	0.0016	0.7816	-0.511
Mof_O 	O 	0.3237	0.0001	0.86207	-0.399
Mof_O 	O 	0.5453	0.7406	0.89255	-0.469
Mof_O 	O 	0.5157	0.7902	0.99829	-0.33
Mof_O 	O 	0.6547	0.0814	0.80452	-0.487
Mof_O 	O 	0.8953	0.1055	0.88047	-0.329
Mof_O 	O 	0.6635	0.0246	0.97722	-0.411
Mof_O 	O 	0.8853	0.1045	0.0342	-0.349
Mof_O 	O 	0.8403	0.8442	0.93924	-0.373
Mof_O 	O 	0.7967	0.623	0.90568	-0.358
Mof_C 	C 	0.5038	0.8265	0.6708	0.522
Mof_H 	H 	0.5013	0.7587	0.6351	-0.116
Mof_C 	C 	0.3087	0.0135	0.7904	0.523
Mof_H 	H 	0.2156	0.0341	0.7387	-0.14
Mof_C 	C 	0.5258	0.7106	0.9508	0.518
Mof_H 	H 	0.5183	0.6192	0.959	-0.095
Mof_C 	C 	0.7681	0.1297	0.8171	0.511
Mof_H 	H 	0.7532	0.1899	0.7735	-0.112
Mof_C 	C 	0.7761	0.0971	0.0317	0.397
Mof_H 	H 	0.7751	0.149	0.0733	-0.075
Mof_C 	C 	0.8804	0.7197	0.9468	0.459
Mof_H 	H 	0.98	0.7013	0.9862	-0.033
Mof_Fe	Fe	0.37725	0.41784	0.63297	0.933
Mof_Fe	Fe	0.42781	0.3933	0.18833	0.938
Mof_O 	O 	0.4371	0.2972	0.7463	-0.47
Mof_O 	O 	0.5497	0.4357	0.86579	-0.39
Mof_O 	O 	0.5895	0.5016	0.7184	-0.475
Mof_O 	O 	0.6763	0.5001	0.63793	-0.389
Mof_O 	O 	0.4547	0.2406	0.60745	-0.489
Mof_O 	O 	0.4843	0.2902	0.50171	-0.411
Mof_O 	O 	0.3453	0.5814	0.69548	-0.484
Mof_O 	O 	0.1047	0.6055	0.61953	-0.435
Mof_O 	O 	0.3365	0.5246	0.52278	-0.487
Mof_O 	O 	0.1147	0.6045	0.4658	-0.442
Mof_O 	O 	0.1597	0.3442	0.56076	-0.475
Mof_O 	O 	0.2033	0.123	0.59432	-0.423
Mof_C 	C 	0.4962	0.3265	0.8292	0.516
Mof_H 	H 	0.4987	0.2587	0.8649	-0.105
Mof_C 	C 	0.6913	0.5135	0.7096	0.52
Mof_H 	H 	0.7844	0.5341	0.7613	-0.097
Mof_C 	C 	0.4742	0.2106	0.5492	0.539
Mof_H 	H 	0.4817	0.1192	0.541	-0.136
Mof_C 	C 	0.2319	0.6297	0.6829	0.549
Mof_H 	H 	0.2468	0.6899	0.7265	-0.133
Mof_C 	C 	0.2239	0.5971	0.4683	0.546
Mof_H 	H 	0.2249	0.649	0.4267	-0.128
Mof_C 	C 	0.1196	0.2197	0.5532	0.498
Mof_H 	H 	0.02	0.2013	0.5138	-0.144
Mof_Fe	Fe	0.5	0	-0	0.787
Mof_Fe	Fe	0.5	0.5	0.5	0.976
Mof_Fe	Fe	-0	0	-0	0.71
Mof_Fe	Fe	-6.8168e-17	0.5	0.5	0.899
_end
