data_functionalizedCrystal
_audit_creation_method	'EQeq! by Chris Wilmer'
_symmetry_space_group_name_H-M	'P1'
_symmetry_Int_Tables_number	1
_symmetry_cell_setting	triclinic
loop_
_symmetry_equiv_pos_as_xyz
  x,y,z
_cell_length_a	30.8871
_cell_length_b	30.8871
_cell_length_c	30.8871
_cell_angle_alpha	90
_cell_angle_beta	90
_cell_angle_gamma	90
loop_
_atom_site_label
_atom_site_type_symbol
_atom_site_fract_x
_atom_site_fract_y
_atom_site_fract_z
_atom_site_charge
Mof_N 	N 	0.7701	0.6138	0.0355	-0.181
Mof_N 	N 	0.8087	0.6195	0.1407	-0.172
Mof_C 	C 	0.8058	0.6323	0.0224	0.009
Mof_H 	H 	0.8274	0.6435	0.0401	0.015
Mof_H 	H 	0.6897	0.6273	0.0256	0.064
Mof_H 	H 	0.6916	0.5501	0.0254	0.031
Mof_C 	C 	0.8489	0.6115	0.1193	-0.015
Mof_H 	H 	0.8531	0.6072	0.0898	0.024
Mof_H 	H 	0.7621	0.6422	0.2012	0.048
Mof_H 	H 	0.8032	0.5648	0.2329	0.144
Mof_H 	H 	0.7218	0.548	0.9745	0.053
Mof_H 	H 	0.6674	0.6026	0.9746	0.021
Mof_H 	H 	0.823	0.552	0.2129	0.013
Mof_H 	H 	0.7554	0.5528	0.2472	-0.011
Mof_H 	H 	0.7779	0.5972	0.2566	0.006
Mof_H 	H 	0.7417	0.5942	0.2212	0.025
Mof_C 	C 	0.1572	0.3661	0.3357	-0.012
Mof_H 	H 	0.1778	0.3878	0.3323	0.02
Mof_N 	N 	0.2701	0.1138	0.5355	-0.179
Mof_N 	N 	0.3087	0.1195	0.6407	-0.172
Mof_C 	C 	0.3058	0.1323	0.5224	-0.002
Mof_H 	H 	0.3274	0.1435	0.5401	0.018
Mof_H 	H 	0.1897	0.1273	0.5256	0.065
Mof_H 	H 	0.1916	0.0501	0.5254	0.033
Mof_C 	C 	0.3489	0.1115	0.6193	-0.015
Mof_H 	H 	0.3531	0.1072	0.5898	0.024
Mof_H 	H 	0.2621	0.1422	0.7012	0.048
Mof_H 	H 	0.3032	0.0648	0.7329	0.145
Mof_H 	H 	0.2218	0.048	0.4745	0.057
Mof_H 	H 	0.1674	0.1026	0.4746	0.025
Mof_H 	H 	0.323	0.052	0.7129	0.014
Mof_H 	H 	0.2554	0.0528	0.7472	-0.01
Mof_H 	H 	0.2779	0.0972	0.7566	0.006
Mof_H 	H 	0.2417	0.0942	0.7212	0.025
Mof_C 	C 	0.6572	0.8661	0.8357	-0.012
Mof_H 	H 	0.6778	0.8878	0.8323	0.02
Mof_N 	N 	0.2299	0.3862	0.0355	-0.181
Mof_N 	N 	0.1913	0.3805	0.1407	-0.172
Mof_C 	C 	0.1942	0.3677	0.0224	0.009
Mof_H 	H 	0.1726	0.3565	0.0401	0.016
Mof_H 	H 	0.3103	0.3727	0.0256	0.064
Mof_H 	H 	0.3084	0.4499	0.0254	0.031
Mof_C 	C 	0.1511	0.3885	0.1193	-0.015
Mof_H 	H 	0.1469	0.3928	0.0898	0.025
Mof_H 	H 	0.2379	0.3578	0.2012	0.048
Mof_H 	H 	0.1968	0.4352	0.2329	0.144
Mof_H 	H 	0.2782	0.452	0.9745	0.053
Mof_H 	H 	0.3326	0.3974	0.9746	0.021
Mof_H 	H 	0.177	0.448	0.2129	0.013
Mof_H 	H 	0.2446	0.4472	0.2472	-0.011
Mof_H 	H 	0.2221	0.4028	0.2566	0.006
Mof_H 	H 	0.2583	0.4058	0.2212	0.025
Mof_C 	C 	0.8428	0.6339	0.3357	-0.012
Mof_H 	H 	0.8222	0.6122	0.3323	0.02
Mof_N 	N 	0.7299	0.8862	0.5355	-0.179
Mof_N 	N 	0.6913	0.8805	0.6407	-0.172
Mof_C 	C 	0.6942	0.8677	0.5224	-0.002
Mof_H 	H 	0.6726	0.8565	0.5401	0.018
Mof_H 	H 	0.8103	0.8727	0.5256	0.066
Mof_H 	H 	0.8084	0.9499	0.5254	0.031
Mof_C 	C 	0.6511	0.8885	0.6193	-0.015
Mof_H 	H 	0.6469	0.8928	0.5898	0.023
Mof_H 	H 	0.7379	0.8578	0.7012	0.049
Mof_H 	H 	0.6968	0.9352	0.7329	0.143
Mof_H 	H 	0.7782	0.952	0.4745	0.056
Mof_H 	H 	0.8326	0.8974	0.4746	0.024
Mof_H 	H 	0.677	0.948	0.7129	0.013
Mof_H 	H 	0.7446	0.9472	0.7472	-0.011
Mof_H 	H 	0.7221	0.9028	0.7566	0.006
Mof_H 	H 	0.7583	0.9058	0.7212	0.025
Mof_C 	C 	0.3428	0.1339	0.8357	-0.012
Mof_H 	H 	0.3222	0.1122	0.8323	0.021
Mof_N 	N 	0.2299	0.6138	0.9645	-0.18
Mof_N 	N 	0.1913	0.6195	0.8593	-0.172
Mof_C 	C 	0.1942	0.6323	0.9776	-0.012
Mof_H 	H 	0.1726	0.6435	0.9599	0.021
Mof_H 	H 	0.3103	0.6273	0.9744	0.061
Mof_H 	H 	0.3084	0.5501	0.9746	0.028
Mof_C 	C 	0.1511	0.6115	0.8807	-0.015
Mof_H 	H 	0.1469	0.6072	0.9102	0.023
Mof_H 	H 	0.2379	0.6422	0.7988	0.048
Mof_H 	H 	0.1968	0.5648	0.7671	0.144
Mof_H 	H 	0.2782	0.548	0.0255	0.056
Mof_H 	H 	0.3326	0.6026	0.0254	0.024
Mof_H 	H 	0.177	0.552	0.7871	0.013
Mof_H 	H 	0.2446	0.5528	0.7528	-0.011
Mof_H 	H 	0.2221	0.5972	0.7434	0.006
Mof_H 	H 	0.2583	0.5942	0.7788	0.025
Mof_C 	C 	0.8428	0.3661	0.6643	-0.012
Mof_H 	H 	0.8222	0.3878	0.6677	0.02
Mof_N 	N 	0.7299	0.1138	0.4645	-0.179
Mof_N 	N 	0.6913	0.1195	0.3593	-0.172
Mof_C 	C 	0.6942	0.1323	0.4776	-0.002
Mof_H 	H 	0.6726	0.1435	0.4599	0.018
Mof_H 	H 	0.8103	0.1273	0.4744	0.065
Mof_H 	H 	0.8084	0.0501	0.4746	0.033
Mof_C 	C 	0.6511	0.1115	0.3807	-0.015
Mof_H 	H 	0.6469	0.1072	0.4102	0.024
Mof_H 	H 	0.7379	0.1422	0.2988	0.048
Mof_H 	H 	0.6968	0.0648	0.2671	0.145
Mof_H 	H 	0.7782	0.048	0.5255	0.058
Mof_H 	H 	0.8326	0.1026	0.5254	0.024
Mof_H 	H 	0.677	0.052	0.2871	0.014
Mof_H 	H 	0.7446	0.0528	0.2528	-0.01
Mof_H 	H 	0.7221	0.0972	0.2434	0.006
Mof_H 	H 	0.7583	0.0942	0.2788	0.025
Mof_C 	C 	0.3428	0.8661	0.1643	-0.012
Mof_H 	H 	0.3222	0.8878	0.1677	0.02
Mof_N 	N 	0.7701	0.3862	0.9645	-0.18
Mof_N 	N 	0.8087	0.3805	0.8593	-0.172
Mof_C 	C 	0.8058	0.3677	0.9776	-0.012
Mof_H 	H 	0.8274	0.3565	0.9599	0.021
Mof_H 	H 	0.6897	0.3727	0.9744	0.061
Mof_H 	H 	0.6916	0.4499	0.9746	0.028
Mof_C 	C 	0.8489	0.3885	0.8807	-0.015
Mof_H 	H 	0.8531	0.3928	0.9102	0.023
Mof_H 	H 	0.7621	0.3578	0.7988	0.048
Mof_H 	H 	0.8032	0.4352	0.7671	0.144
Mof_H 	H 	0.7218	0.452	0.0255	0.056
Mof_H 	H 	0.6674	0.3974	0.0254	0.024
Mof_H 	H 	0.823	0.448	0.7871	0.013
Mof_H 	H 	0.7554	0.4472	0.7528	-0.011
Mof_H 	H 	0.7779	0.4028	0.7434	0.006
Mof_H 	H 	0.7417	0.4058	0.7788	0.025
Mof_C 	C 	0.1572	0.6339	0.6643	-0.012
Mof_H 	H 	0.1778	0.6122	0.6677	0.02
Mof_N 	N 	0.2701	0.8862	0.4645	-0.179
Mof_N 	N 	0.3087	0.8805	0.3593	-0.172
Mof_C 	C 	0.3058	0.8677	0.4776	-0.002
Mof_H 	H 	0.3274	0.8565	0.4599	0.018
Mof_H 	H 	0.1897	0.8727	0.4744	0.066
Mof_H 	H 	0.1916	0.9499	0.4746	0.031
Mof_C 	C 	0.3489	0.8885	0.3807	-0.015
Mof_H 	H 	0.3531	0.8928	0.4102	0.023
Mof_H 	H 	0.2621	0.8578	0.2988	0.049
Mof_H 	H 	0.3032	0.9352	0.2671	0.143
Mof_H 	H 	0.2218	0.952	0.5255	0.056
Mof_H 	H 	0.1674	0.8974	0.5254	0.025
Mof_H 	H 	0.323	0.948	0.2871	0.014
Mof_H 	H 	0.2554	0.9472	0.2528	-0.011
Mof_H 	H 	0.2779	0.9028	0.2434	0.006
Mof_H 	H 	0.2417	0.9058	0.2788	0.025
Mof_C 	C 	0.6572	0.1339	0.1643	-0.012
Mof_H 	H 	0.6778	0.1122	0.1677	0.021
Mof_N 	N 	0.0355	0.7701	0.6138	-0.181
Mof_N 	N 	0.1407	0.8087	0.6195	-0.172
Mof_C 	C 	0.0224	0.8058	0.6323	0.009
Mof_H 	H 	0.0401	0.8274	0.6435	0.015
Mof_H 	H 	0.0256	0.6897	0.6273	0.064
Mof_H 	H 	0.0254	0.6916	0.5501	0.031
Mof_C 	C 	0.1193	0.8489	0.6115	-0.015
Mof_H 	H 	0.0898	0.8531	0.6072	0.024
Mof_H 	H 	0.2012	0.7621	0.6422	0.048
Mof_H 	H 	0.2329	0.8032	0.5648	0.143
Mof_H 	H 	0.9745	0.7218	0.548	0.052
Mof_H 	H 	0.9746	0.6674	0.6026	0.02
Mof_H 	H 	0.2129	0.823	0.552	0.012
Mof_H 	H 	0.2472	0.7554	0.5528	-0.012
Mof_H 	H 	0.2566	0.7779	0.5972	0.005
Mof_H 	H 	0.2212	0.7417	0.5942	0.024
Mof_C 	C 	0.3357	0.1572	0.3661	-0.013
Mof_H 	H 	0.3323	0.1778	0.3878	0.019
Mof_N 	N 	0.5355	0.2701	0.1138	-0.18
Mof_N 	N 	0.6407	0.3087	0.1195	-0.173
Mof_C 	C 	0.5224	0.3058	0.1323	-0.003
Mof_H 	H 	0.5401	0.3274	0.1435	0.017
Mof_H 	H 	0.5256	0.1897	0.1273	0.064
Mof_H 	H 	0.5254	0.1916	0.0501	0.032
Mof_C 	C 	0.6193	0.3489	0.1115	-0.016
Mof_H 	H 	0.5898	0.3531	0.1072	0.023
Mof_H 	H 	0.7012	0.2621	0.1422	0.047
Mof_H 	H 	0.7329	0.3032	0.0648	0.144
Mof_H 	H 	0.4745	0.2218	0.048	0.056
Mof_H 	H 	0.4746	0.1674	0.1026	0.024
Mof_H 	H 	0.7129	0.323	0.052	0.013
Mof_H 	H 	0.7472	0.2554	0.0528	-0.011
Mof_H 	H 	0.7566	0.2779	0.0972	0.005
Mof_H 	H 	0.7212	0.2417	0.0942	0.024
Mof_C 	C 	0.8357	0.6572	0.8661	-0.013
Mof_H 	H 	0.8323	0.6778	0.8878	0.019
Mof_N 	N 	0.0355	0.2299	0.3862	-0.182
Mof_N 	N 	0.1407	0.1913	0.3805	-0.173
Mof_C 	C 	0.0224	0.1942	0.3677	0.008
Mof_H 	H 	0.0401	0.1726	0.3565	0.015
Mof_H 	H 	0.0256	0.3103	0.3727	0.063
Mof_H 	H 	0.0254	0.3084	0.4499	0.03
Mof_C 	C 	0.1193	0.1511	0.3885	-0.016
Mof_H 	H 	0.0898	0.1469	0.3928	0.024
Mof_H 	H 	0.2012	0.2379	0.3578	0.047
Mof_H 	H 	0.2329	0.1968	0.4352	0.143
Mof_H 	H 	0.9745	0.2782	0.452	0.052
Mof_H 	H 	0.9746	0.3326	0.3974	0.02
Mof_H 	H 	0.2129	0.177	0.448	0.012
Mof_H 	H 	0.2472	0.2446	0.4472	-0.012
Mof_H 	H 	0.2566	0.2221	0.4028	0.005
Mof_H 	H 	0.2212	0.2583	0.4058	0.024
Mof_C 	C 	0.3357	0.8428	0.6339	-0.013
Mof_H 	H 	0.3323	0.8222	0.6122	0.019
Mof_N 	N 	0.5355	0.7299	0.8862	-0.18
Mof_N 	N 	0.6407	0.6913	0.8805	-0.173
Mof_C 	C 	0.5224	0.6942	0.8677	-0.003
Mof_H 	H 	0.5401	0.6726	0.8565	0.017
Mof_H 	H 	0.5256	0.8103	0.8727	0.065
Mof_H 	H 	0.5254	0.8084	0.9499	0.03
Mof_C 	C 	0.6193	0.6511	0.8885	-0.016
Mof_H 	H 	0.5898	0.6469	0.8928	0.022
Mof_H 	H 	0.7012	0.7379	0.8578	0.048
Mof_H 	H 	0.7329	0.6968	0.9352	0.142
Mof_H 	H 	0.4745	0.7782	0.952	0.055
Mof_H 	H 	0.4746	0.8326	0.8974	0.023
Mof_H 	H 	0.7129	0.677	0.948	0.012
Mof_H 	H 	0.7472	0.7446	0.9472	-0.012
Mof_H 	H 	0.7566	0.7221	0.9028	0.005
Mof_H 	H 	0.7212	0.7583	0.9058	0.024
Mof_C 	C 	0.8357	0.3428	0.1339	-0.013
Mof_H 	H 	0.8323	0.3222	0.1122	0.02
Mof_N 	N 	0.9645	0.2299	0.6138	-0.181
Mof_N 	N 	0.8593	0.1913	0.6195	-0.173
Mof_C 	C 	0.9776	0.1942	0.6323	-0.013
Mof_H 	H 	0.9599	0.1726	0.6435	0.02
Mof_H 	H 	0.9744	0.3103	0.6273	0.06
Mof_H 	H 	0.9746	0.3084	0.5501	0.027
Mof_C 	C 	0.8807	0.1511	0.6115	-0.016
Mof_H 	H 	0.9102	0.1469	0.6072	0.022
Mof_H 	H 	0.7988	0.2379	0.6422	0.047
Mof_H 	H 	0.7671	0.1968	0.5648	0.143
Mof_H 	H 	0.0255	0.2782	0.548	0.055
Mof_H 	H 	0.0254	0.3326	0.6026	0.023
Mof_H 	H 	0.7871	0.177	0.552	0.012
Mof_H 	H 	0.7528	0.2446	0.5528	-0.012
Mof_H 	H 	0.7434	0.2221	0.5972	0.005
Mof_H 	H 	0.7788	0.2583	0.5942	0.024
Mof_C 	C 	0.6643	0.8428	0.3661	-0.013
Mof_H 	H 	0.6677	0.8222	0.3878	0.019
Mof_N 	N 	0.4645	0.7299	0.1138	-0.18
Mof_N 	N 	0.3593	0.6913	0.1195	-0.173
Mof_C 	C 	0.4776	0.6942	0.1323	-0.003
Mof_H 	H 	0.4599	0.6726	0.1435	0.017
Mof_H 	H 	0.4744	0.8103	0.1273	0.064
Mof_H 	H 	0.4746	0.8084	0.0501	0.032
Mof_C 	C 	0.3807	0.6511	0.1115	-0.016
Mof_H 	H 	0.4102	0.6469	0.1072	0.023
Mof_H 	H 	0.2988	0.7379	0.1422	0.047
Mof_H 	H 	0.2671	0.6968	0.0648	0.144
Mof_H 	H 	0.5255	0.7782	0.048	0.057
Mof_H 	H 	0.5254	0.8326	0.1026	0.023
Mof_H 	H 	0.2871	0.677	0.052	0.013
Mof_H 	H 	0.2528	0.7446	0.0528	-0.011
Mof_H 	H 	0.2434	0.7221	0.0972	0.005
Mof_H 	H 	0.2788	0.7583	0.0942	0.024
Mof_C 	C 	0.1643	0.3428	0.8661	-0.013
Mof_H 	H 	0.1677	0.3222	0.8878	0.019
Mof_N 	N 	0.9645	0.7701	0.3862	-0.181
Mof_N 	N 	0.8593	0.8087	0.3805	-0.173
Mof_C 	C 	0.9776	0.8058	0.3677	-0.013
Mof_H 	H 	0.9599	0.8274	0.3565	0.02
Mof_H 	H 	0.9744	0.6897	0.3727	0.06
Mof_H 	H 	0.9746	0.6916	0.4499	0.027
Mof_C 	C 	0.8807	0.8489	0.3885	-0.016
Mof_H 	H 	0.9102	0.8531	0.3928	0.022
Mof_H 	H 	0.7988	0.7621	0.3578	0.047
Mof_H 	H 	0.7671	0.8032	0.4352	0.143
Mof_H 	H 	0.0255	0.7218	0.452	0.055
Mof_H 	H 	0.0254	0.6674	0.3974	0.023
Mof_H 	H 	0.7871	0.823	0.448	0.012
Mof_H 	H 	0.7528	0.7554	0.4472	-0.012
Mof_H 	H 	0.7434	0.7779	0.4028	0.005
Mof_H 	H 	0.7788	0.7417	0.4058	0.024
Mof_C 	C 	0.6643	0.1572	0.6339	-0.013
Mof_H 	H 	0.6677	0.1778	0.6122	0.019
Mof_N 	N 	0.4645	0.2701	0.8862	-0.18
Mof_N 	N 	0.3593	0.3087	0.8805	-0.173
Mof_C 	C 	0.4776	0.3058	0.8677	-0.003
Mof_H 	H 	0.4599	0.3274	0.8565	0.017
Mof_H 	H 	0.4744	0.1897	0.8727	0.065
Mof_H 	H 	0.4746	0.1916	0.9499	0.03
Mof_C 	C 	0.3807	0.3489	0.8885	-0.016
Mof_H 	H 	0.4102	0.3531	0.8928	0.022
Mof_H 	H 	0.2988	0.2621	0.8578	0.048
Mof_H 	H 	0.2671	0.3032	0.9352	0.142
Mof_H 	H 	0.5255	0.2218	0.952	0.055
Mof_H 	H 	0.5254	0.1674	0.8974	0.024
Mof_H 	H 	0.2871	0.323	0.948	0.013
Mof_H 	H 	0.2528	0.2554	0.9472	-0.012
Mof_H 	H 	0.2434	0.2779	0.9028	0.005
Mof_H 	H 	0.2788	0.2417	0.9058	0.024
Mof_C 	C 	0.1643	0.6572	0.1339	-0.013
Mof_H 	H 	0.1677	0.6778	0.1122	0.02
Mof_N 	N 	0.6138	0.0355	0.7701	-0.182
Mof_N 	N 	0.6195	0.1407	0.8087	-0.173
Mof_C 	C 	0.6323	0.0224	0.8058	0.008
Mof_H 	H 	0.6435	0.0401	0.8274	0.014
Mof_H 	H 	0.6273	0.0256	0.6897	0.063
Mof_H 	H 	0.5501	0.0254	0.6916	0.03
Mof_C 	C 	0.6115	0.1193	0.8489	-0.016
Mof_H 	H 	0.6072	0.0898	0.8531	0.023
Mof_H 	H 	0.6422	0.2012	0.7621	0.047
Mof_H 	H 	0.5648	0.2329	0.8032	0.143
Mof_H 	H 	0.548	0.9745	0.7218	0.052
Mof_H 	H 	0.6026	0.9746	0.6674	0.02
Mof_H 	H 	0.552	0.2129	0.823	0.012
Mof_H 	H 	0.5528	0.2472	0.7554	-0.012
Mof_H 	H 	0.5972	0.2566	0.7779	0.005
Mof_H 	H 	0.5942	0.2212	0.7417	0.024
Mof_C 	C 	0.3661	0.3357	0.1572	-0.013
Mof_H 	H 	0.3878	0.3323	0.1778	0.019
Mof_N 	N 	0.1138	0.5355	0.2701	-0.18
Mof_N 	N 	0.1195	0.6407	0.3087	-0.173
Mof_C 	C 	0.1323	0.5224	0.3058	-0.003
Mof_H 	H 	0.1435	0.5401	0.3274	0.017
Mof_H 	H 	0.1273	0.5256	0.1897	0.064
Mof_H 	H 	0.0501	0.5254	0.1916	0.032
Mof_C 	C 	0.1115	0.6193	0.3489	-0.016
Mof_H 	H 	0.1072	0.5898	0.3531	0.023
Mof_H 	H 	0.1422	0.7012	0.2621	0.047
Mof_H 	H 	0.0648	0.7329	0.3032	0.144
Mof_H 	H 	0.048	0.4745	0.2218	0.056
Mof_H 	H 	0.1026	0.4746	0.1674	0.024
Mof_H 	H 	0.052	0.7129	0.323	0.013
Mof_H 	H 	0.0528	0.7472	0.2554	-0.011
Mof_H 	H 	0.0972	0.7566	0.2779	0.005
Mof_H 	H 	0.0942	0.7212	0.2417	0.024
Mof_C 	C 	0.8661	0.8357	0.6572	-0.013
Mof_H 	H 	0.8878	0.8323	0.6778	0.019
Mof_N 	N 	0.3862	0.0355	0.2299	-0.182
Mof_N 	N 	0.3805	0.1407	0.1913	-0.173
Mof_C 	C 	0.3677	0.0224	0.1942	0.008
Mof_H 	H 	0.3565	0.0401	0.1726	0.015
Mof_H 	H 	0.3727	0.0256	0.3103	0.063
Mof_H 	H 	0.4499	0.0254	0.3084	0.03
Mof_C 	C 	0.3885	0.1193	0.1511	-0.016
Mof_H 	H 	0.3928	0.0898	0.1469	0.024
Mof_H 	H 	0.3578	0.2012	0.2379	0.047
Mof_H 	H 	0.4352	0.2329	0.1968	0.143
Mof_H 	H 	0.452	0.9745	0.2782	0.052
Mof_H 	H 	0.3974	0.9746	0.3326	0.02
Mof_H 	H 	0.448	0.2129	0.177	0.012
Mof_H 	H 	0.4472	0.2472	0.2446	-0.012
Mof_H 	H 	0.4028	0.2566	0.2221	0.005
Mof_H 	H 	0.4058	0.2212	0.2583	0.024
Mof_C 	C 	0.6339	0.3357	0.8428	-0.013
Mof_H 	H 	0.6122	0.3323	0.8222	0.019
Mof_N 	N 	0.8862	0.5355	0.7299	-0.18
Mof_N 	N 	0.8805	0.6407	0.6913	-0.173
Mof_C 	C 	0.8677	0.5224	0.6942	-0.003
Mof_H 	H 	0.8565	0.5401	0.6726	0.017
Mof_H 	H 	0.8727	0.5256	0.8103	0.065
Mof_H 	H 	0.9499	0.5254	0.8084	0.03
Mof_C 	C 	0.8885	0.6193	0.6511	-0.016
Mof_H 	H 	0.8928	0.5898	0.6469	0.022
Mof_H 	H 	0.8578	0.7012	0.7379	0.048
Mof_H 	H 	0.9352	0.7329	0.6968	0.142
Mof_H 	H 	0.952	0.4745	0.7782	0.055
Mof_H 	H 	0.8974	0.4746	0.8326	0.023
Mof_H 	H 	0.948	0.7129	0.677	0.012
Mof_H 	H 	0.9472	0.7472	0.7446	-0.012
Mof_H 	H 	0.9028	0.7566	0.7221	0.005
Mof_H 	H 	0.9058	0.7212	0.7583	0.024
Mof_C 	C 	0.1339	0.8357	0.3428	-0.013
Mof_H 	H 	0.1122	0.8323	0.3222	0.02
Mof_N 	N 	0.6138	0.9645	0.2299	-0.181
Mof_N 	N 	0.6195	0.8593	0.1913	-0.173
Mof_C 	C 	0.6323	0.9776	0.1942	-0.013
Mof_H 	H 	0.6435	0.9599	0.1726	0.02
Mof_H 	H 	0.6273	0.9744	0.3103	0.06
Mof_H 	H 	0.5501	0.9746	0.3084	0.027
Mof_C 	C 	0.6115	0.8807	0.1511	-0.016
Mof_H 	H 	0.6072	0.9102	0.1469	0.022
Mof_H 	H 	0.6422	0.7988	0.2379	0.047
Mof_H 	H 	0.5648	0.7671	0.1968	0.143
Mof_H 	H 	0.548	0.0255	0.2782	0.055
Mof_H 	H 	0.6026	0.0254	0.3326	0.023
Mof_H 	H 	0.552	0.7871	0.177	0.012
Mof_H 	H 	0.5528	0.7528	0.2446	-0.012
Mof_H 	H 	0.5972	0.7434	0.2221	0.005
Mof_H 	H 	0.5942	0.7788	0.2583	0.024
Mof_C 	C 	0.3661	0.6643	0.8428	-0.013
Mof_H 	H 	0.3878	0.6677	0.8222	0.019
Mof_N 	N 	0.1138	0.4645	0.7299	-0.18
Mof_N 	N 	0.1195	0.3593	0.6913	-0.173
Mof_C 	C 	0.1323	0.4776	0.6942	-0.003
Mof_H 	H 	0.1435	0.4599	0.6726	0.017
Mof_H 	H 	0.1273	0.4744	0.8103	0.064
Mof_H 	H 	0.0501	0.4746	0.8084	0.032
Mof_C 	C 	0.1115	0.3807	0.6511	-0.016
Mof_H 	H 	0.1072	0.4102	0.6469	0.023
Mof_H 	H 	0.1422	0.2988	0.7379	0.047
Mof_H 	H 	0.0648	0.2671	0.6968	0.144
Mof_H 	H 	0.048	0.5255	0.7782	0.057
Mof_H 	H 	0.1026	0.5254	0.8326	0.023
Mof_H 	H 	0.052	0.2871	0.677	0.013
Mof_H 	H 	0.0528	0.2528	0.7446	-0.011
Mof_H 	H 	0.0972	0.2434	0.7221	0.005
Mof_H 	H 	0.0942	0.2788	0.7583	0.024
Mof_C 	C 	0.8661	0.1643	0.3428	-0.013
Mof_H 	H 	0.8878	0.1677	0.3222	0.019
Mof_N 	N 	0.3862	0.9645	0.7701	-0.181
Mof_N 	N 	0.3805	0.8593	0.8087	-0.173
Mof_C 	C 	0.3677	0.9776	0.8058	-0.013
Mof_H 	H 	0.3565	0.9599	0.8274	0.02
Mof_H 	H 	0.3727	0.9744	0.6897	0.06
Mof_H 	H 	0.4499	0.9746	0.6916	0.027
Mof_C 	C 	0.3885	0.8807	0.8489	-0.016
Mof_H 	H 	0.3928	0.9102	0.8531	0.022
Mof_H 	H 	0.3578	0.7988	0.7621	0.047
Mof_H 	H 	0.4352	0.7671	0.8032	0.143
Mof_H 	H 	0.452	0.0255	0.7218	0.055
Mof_H 	H 	0.3974	0.0254	0.6674	0.023
Mof_H 	H 	0.448	0.7871	0.823	0.012
Mof_H 	H 	0.4472	0.7528	0.7554	-0.012
Mof_H 	H 	0.4028	0.7434	0.7779	0.005
Mof_H 	H 	0.4058	0.7788	0.7417	0.024
Mof_C 	C 	0.6339	0.6643	0.1572	-0.013
Mof_H 	H 	0.6122	0.6677	0.1778	0.019
Mof_N 	N 	0.8862	0.4645	0.2701	-0.18
Mof_N 	N 	0.8805	0.3593	0.3087	-0.173
Mof_C 	C 	0.8677	0.4776	0.3058	-0.003
Mof_H 	H 	0.8565	0.4599	0.3274	0.017
Mof_H 	H 	0.8727	0.4744	0.1897	0.065
Mof_H 	H 	0.9499	0.4746	0.1916	0.03
Mof_C 	C 	0.8885	0.3807	0.3489	-0.016
Mof_H 	H 	0.8928	0.4102	0.3531	0.022
Mof_H 	H 	0.8578	0.2988	0.2621	0.048
Mof_H 	H 	0.9352	0.2671	0.3032	0.142
Mof_H 	H 	0.952	0.5255	0.2218	0.055
Mof_H 	H 	0.8974	0.5254	0.1674	0.024
Mof_H 	H 	0.948	0.2871	0.323	0.013
Mof_H 	H 	0.9472	0.2528	0.2554	-0.012
Mof_H 	H 	0.9028	0.2434	0.2779	0.005
Mof_H 	H 	0.9058	0.2788	0.2417	0.024
Mof_C 	C 	0.1339	0.1643	0.6572	-0.013
Mof_H 	H 	0.1122	0.1677	0.6778	0.02
Mof_N 	N 	0.6138	0.7701	0.9645	-0.181
Mof_N 	N 	0.6195	0.8087	0.8593	-0.173
Mof_C 	C 	0.6323	0.8058	0.9776	-0.014
Mof_H 	H 	0.6435	0.8274	0.9599	0.02
Mof_H 	H 	0.6273	0.6897	0.9744	0.06
Mof_H 	H 	0.5501	0.6916	0.9746	0.027
Mof_C 	C 	0.6115	0.8489	0.8807	-0.016
Mof_H 	H 	0.6072	0.8531	0.9102	0.022
Mof_H 	H 	0.6422	0.7621	0.7988	0.047
Mof_H 	H 	0.5648	0.8032	0.7671	0.143
Mof_H 	H 	0.548	0.7218	0.0255	0.055
Mof_H 	H 	0.6026	0.6674	0.0254	0.023
Mof_H 	H 	0.552	0.823	0.7871	0.012
Mof_H 	H 	0.5528	0.7554	0.7528	-0.012
Mof_H 	H 	0.5972	0.7779	0.7434	0.005
Mof_H 	H 	0.5942	0.7417	0.7788	0.024
Mof_C 	C 	0.3661	0.1572	0.6643	-0.013
Mof_H 	H 	0.3878	0.1778	0.6677	0.019
Mof_N 	N 	0.1138	0.2701	0.4645	-0.18
Mof_N 	N 	0.1195	0.3087	0.3593	-0.173
Mof_C 	C 	0.1323	0.3058	0.4776	-0.003
Mof_H 	H 	0.1435	0.3274	0.4599	0.017
Mof_H 	H 	0.1273	0.1897	0.4744	0.064
Mof_H 	H 	0.0501	0.1916	0.4746	0.032
Mof_C 	C 	0.1115	0.3489	0.3807	-0.016
Mof_H 	H 	0.1072	0.3531	0.4102	0.023
Mof_H 	H 	0.1422	0.2621	0.2988	0.048
Mof_H 	H 	0.0648	0.3032	0.2671	0.143
Mof_H 	H 	0.048	0.2218	0.5255	0.056
Mof_H 	H 	0.1026	0.1674	0.5254	0.024
Mof_H 	H 	0.052	0.323	0.2871	0.013
Mof_H 	H 	0.0528	0.2554	0.2528	-0.011
Mof_H 	H 	0.0972	0.2779	0.2434	0.005
Mof_H 	H 	0.0942	0.2417	0.2788	0.024
Mof_C 	C 	0.8661	0.6572	0.1643	-0.013
Mof_H 	H 	0.8878	0.6778	0.1677	0.019
Mof_N 	N 	0.3862	0.2299	0.9645	-0.181
Mof_N 	N 	0.3805	0.1913	0.8593	-0.173
Mof_C 	C 	0.3677	0.1942	0.9776	-0.013
Mof_H 	H 	0.3565	0.1726	0.9599	0.02
Mof_H 	H 	0.3727	0.3103	0.9744	0.06
Mof_H 	H 	0.4499	0.3084	0.9746	0.027
Mof_C 	C 	0.3885	0.1511	0.8807	-0.016
Mof_H 	H 	0.3928	0.1469	0.9102	0.022
Mof_H 	H 	0.3578	0.2379	0.7988	0.047
Mof_H 	H 	0.4352	0.1968	0.7671	0.143
Mof_H 	H 	0.452	0.2782	0.0255	0.055
Mof_H 	H 	0.3974	0.3326	0.0254	0.023
Mof_H 	H 	0.448	0.177	0.7871	0.012
Mof_H 	H 	0.4472	0.2446	0.7528	-0.012
Mof_H 	H 	0.4028	0.2221	0.7434	0.005
Mof_H 	H 	0.4058	0.2583	0.7788	0.024
Mof_C 	C 	0.6339	0.8428	0.6643	-0.013
Mof_H 	H 	0.6122	0.8222	0.6677	0.019
Mof_N 	N 	0.8862	0.7299	0.4645	-0.18
Mof_N 	N 	0.8805	0.6913	0.3593	-0.173
Mof_C 	C 	0.8677	0.6942	0.4776	-0.003
Mof_H 	H 	0.8565	0.6726	0.4599	0.017
Mof_H 	H 	0.8727	0.8103	0.4744	0.065
Mof_H 	H 	0.9499	0.8084	0.4746	0.03
Mof_C 	C 	0.8885	0.6511	0.3807	-0.016
Mof_H 	H 	0.8928	0.6469	0.4102	0.022
Mof_H 	H 	0.8578	0.7379	0.2988	0.048
Mof_H 	H 	0.9352	0.6968	0.2671	0.142
Mof_H 	H 	0.952	0.7782	0.5255	0.055
Mof_H 	H 	0.8974	0.8326	0.5254	0.023
Mof_H 	H 	0.948	0.677	0.2871	0.012
Mof_H 	H 	0.9472	0.7446	0.2528	-0.012
Mof_H 	H 	0.9028	0.7221	0.2434	0.005
Mof_H 	H 	0.9058	0.7583	0.2788	0.024
Mof_C 	C 	0.1339	0.3428	0.1643	-0.013
Mof_H 	H 	0.1122	0.3222	0.1677	0.02
Mof_N 	N 	0.6138	0.2299	0.0355	-0.182
Mof_N 	N 	0.6195	0.1913	0.1407	-0.173
Mof_C 	C 	0.6323	0.1942	0.0224	0.008
Mof_H 	H 	0.6435	0.1726	0.0401	0.015
Mof_H 	H 	0.6273	0.3103	0.0256	0.063
Mof_H 	H 	0.5501	0.3084	0.0254	0.03
Mof_C 	C 	0.6115	0.1511	0.1193	-0.016
Mof_H 	H 	0.6072	0.1469	0.0898	0.023
Mof_H 	H 	0.6422	0.2379	0.2012	0.047
Mof_H 	H 	0.5648	0.1968	0.2329	0.143
Mof_H 	H 	0.548	0.2782	0.9745	0.052
Mof_H 	H 	0.6026	0.3326	0.9746	0.02
Mof_H 	H 	0.552	0.177	0.2129	0.012
Mof_H 	H 	0.5528	0.2446	0.2472	-0.012
Mof_H 	H 	0.5972	0.2221	0.2566	0.005
Mof_H 	H 	0.5942	0.2583	0.2212	0.024
Mof_C 	C 	0.3661	0.8428	0.3357	-0.013
Mof_H 	H 	0.3878	0.8222	0.3323	0.019
Mof_N 	N 	0.1138	0.7299	0.5355	-0.18
Mof_N 	N 	0.1195	0.6913	0.6407	-0.172
Mof_C 	C 	0.1323	0.6942	0.5224	-0.003
Mof_H 	H 	0.1435	0.6726	0.5401	0.017
Mof_H 	H 	0.1273	0.8103	0.5256	0.064
Mof_H 	H 	0.0501	0.8084	0.5254	0.032
Mof_C 	C 	0.1115	0.6511	0.6193	-0.016
Mof_H 	H 	0.1072	0.6469	0.5898	0.023
Mof_H 	H 	0.1422	0.7379	0.7012	0.047
Mof_H 	H 	0.0648	0.6968	0.7329	0.144
Mof_H 	H 	0.048	0.7782	0.4745	0.057
Mof_H 	H 	0.1026	0.8326	0.4746	0.023
Mof_H 	H 	0.052	0.677	0.7129	0.012
Mof_H 	H 	0.0528	0.7446	0.7472	-0.011
Mof_H 	H 	0.0972	0.7221	0.7566	0.005
Mof_H 	H 	0.0942	0.7583	0.7212	0.024
Mof_C 	C 	0.8661	0.3428	0.8357	-0.013
Mof_H 	H 	0.8878	0.3222	0.8323	0.019
Mof_N 	N 	0.3862	0.7701	0.0355	-0.182
Mof_N 	N 	0.3805	0.8087	0.1407	-0.173
Mof_C 	C 	0.3677	0.8058	0.0224	0.008
Mof_H 	H 	0.3565	0.8274	0.0401	0.014
Mof_H 	H 	0.3727	0.6897	0.0256	0.063
Mof_H 	H 	0.4499	0.6916	0.0254	0.03
Mof_C 	C 	0.3885	0.8489	0.1193	-0.016
Mof_H 	H 	0.3928	0.8531	0.0898	0.023
Mof_H 	H 	0.3578	0.7621	0.2012	0.047
Mof_H 	H 	0.4352	0.8032	0.2329	0.143
Mof_H 	H 	0.452	0.7218	0.9745	0.052
Mof_H 	H 	0.3974	0.6674	0.9746	0.02
Mof_H 	H 	0.448	0.823	0.2129	0.012
Mof_H 	H 	0.4472	0.7554	0.2472	-0.012
Mof_H 	H 	0.4028	0.7779	0.2566	0.005
Mof_H 	H 	0.4058	0.7417	0.2212	0.024
Mof_C 	C 	0.6339	0.1572	0.3357	-0.013
Mof_H 	H 	0.6122	0.1778	0.3323	0.019
Mof_N 	N 	0.8862	0.2701	0.5355	-0.18
Mof_N 	N 	0.8805	0.3087	0.6407	-0.173
Mof_C 	C 	0.8677	0.3058	0.5224	-0.003
Mof_H 	H 	0.8565	0.3274	0.5401	0.017
Mof_H 	H 	0.8727	0.1897	0.5256	0.065
Mof_H 	H 	0.9499	0.1916	0.5254	0.03
Mof_C 	C 	0.8885	0.3489	0.6193	-0.016
Mof_H 	H 	0.8928	0.3531	0.5898	0.022
Mof_H 	H 	0.8578	0.2621	0.7012	0.048
Mof_H 	H 	0.9352	0.3032	0.7329	0.142
Mof_H 	H 	0.952	0.2218	0.4745	0.055
Mof_H 	H 	0.8974	0.1674	0.4746	0.024
Mof_H 	H 	0.948	0.323	0.7129	0.012
Mof_H 	H 	0.9472	0.2554	0.7472	-0.012
Mof_H 	H 	0.9028	0.2779	0.7566	0.005
Mof_H 	H 	0.9058	0.2417	0.7212	0.024
Mof_C 	C 	0.1339	0.6572	0.8357	-0.013
Mof_H 	H 	0.1122	0.6778	0.8323	0.02
Mof_N 	N 	0.7701	0.0355	0.3862	-0.182
Mof_N 	N 	0.8087	0.1407	0.3805	-0.173
Mof_C 	C 	0.8058	0.0224	0.3677	0.008
Mof_H 	H 	0.8274	0.0401	0.3565	0.014
Mof_H 	H 	0.6897	0.0256	0.3727	0.063
Mof_H 	H 	0.6916	0.0254	0.4499	0.03
Mof_C 	C 	0.8489	0.1193	0.3885	-0.016
Mof_H 	H 	0.8531	0.0898	0.3928	0.023
Mof_H 	H 	0.7621	0.2012	0.3578	0.047
Mof_H 	H 	0.8032	0.2329	0.4352	0.143
Mof_H 	H 	0.7218	0.9745	0.452	0.052
Mof_H 	H 	0.6674	0.9746	0.3974	0.02
Mof_H 	H 	0.823	0.2129	0.448	0.012
Mof_H 	H 	0.7554	0.2472	0.4472	-0.012
Mof_H 	H 	0.7779	0.2566	0.4028	0.005
Mof_H 	H 	0.7417	0.2212	0.4058	0.024
Mof_C 	C 	0.1572	0.3357	0.6339	-0.013
Mof_H 	H 	0.1778	0.3323	0.6122	0.019
Mof_N 	N 	0.2701	0.5355	0.8862	-0.18
Mof_N 	N 	0.3087	0.6407	0.8805	-0.173
Mof_C 	C 	0.3058	0.5224	0.8677	-0.003
Mof_H 	H 	0.3274	0.5401	0.8565	0.017
Mof_H 	H 	0.1897	0.5256	0.8727	0.065
Mof_H 	H 	0.1916	0.5254	0.9499	0.03
Mof_C 	C 	0.3489	0.6193	0.8885	-0.016
Mof_H 	H 	0.3531	0.5898	0.8928	0.022
Mof_H 	H 	0.2621	0.7012	0.8578	0.048
Mof_H 	H 	0.3032	0.7329	0.9352	0.142
Mof_H 	H 	0.2218	0.4745	0.952	0.055
Mof_H 	H 	0.1674	0.4746	0.8974	0.024
Mof_H 	H 	0.323	0.7129	0.948	0.012
Mof_H 	H 	0.2554	0.7472	0.9472	-0.012
Mof_H 	H 	0.2779	0.7566	0.9028	0.005
Mof_H 	H 	0.2417	0.7212	0.9058	0.024
Mof_C 	C 	0.6572	0.8357	0.1339	-0.013
Mof_H 	H 	0.6778	0.8323	0.1122	0.02
Mof_N 	N 	0.2299	0.0355	0.6138	-0.182
Mof_N 	N 	0.1913	0.1407	0.6195	-0.173
Mof_C 	C 	0.1942	0.0224	0.6323	0.008
Mof_H 	H 	0.1726	0.0401	0.6435	0.015
Mof_H 	H 	0.3103	0.0256	0.6273	0.063
Mof_H 	H 	0.3084	0.0254	0.5501	0.03
Mof_C 	C 	0.1511	0.1193	0.6115	-0.016
Mof_H 	H 	0.1469	0.0898	0.6072	0.023
Mof_H 	H 	0.2379	0.2012	0.6422	0.047
Mof_H 	H 	0.1968	0.2329	0.5648	0.143
Mof_H 	H 	0.2782	0.9745	0.548	0.052
Mof_H 	H 	0.3326	0.9746	0.6026	0.02
Mof_H 	H 	0.177	0.2129	0.552	0.012
Mof_H 	H 	0.2446	0.2472	0.5528	-0.012
Mof_H 	H 	0.2221	0.2566	0.5972	0.005
Mof_H 	H 	0.2583	0.2212	0.5942	0.024
Mof_C 	C 	0.8428	0.3357	0.3661	-0.013
Mof_H 	H 	0.8222	0.3323	0.3878	0.019
Mof_N 	N 	0.7299	0.5355	0.1138	-0.18
Mof_N 	N 	0.6913	0.6407	0.1195	-0.172
Mof_C 	C 	0.6942	0.5224	0.1323	-0.003
Mof_H 	H 	0.6726	0.5401	0.1435	0.017
Mof_H 	H 	0.8103	0.5256	0.1273	0.064
Mof_H 	H 	0.8084	0.5254	0.0501	0.032
Mof_C 	C 	0.6511	0.6193	0.1115	-0.016
Mof_H 	H 	0.6469	0.5898	0.1072	0.023
Mof_H 	H 	0.7379	0.7012	0.1422	0.047
Mof_H 	H 	0.6968	0.7329	0.0648	0.144
Mof_H 	H 	0.7782	0.4745	0.048	0.057
Mof_H 	H 	0.8326	0.4746	0.1026	0.023
Mof_H 	H 	0.677	0.7129	0.052	0.012
Mof_H 	H 	0.7446	0.7472	0.0528	-0.011
Mof_H 	H 	0.7221	0.7566	0.0972	0.005
Mof_H 	H 	0.7583	0.7212	0.0942	0.024
Mof_C 	C 	0.3428	0.8357	0.8661	-0.013
Mof_H 	H 	0.3222	0.8323	0.8878	0.019
Mof_N 	N 	0.2299	0.9645	0.3862	-0.181
Mof_N 	N 	0.1913	0.8593	0.3805	-0.173
Mof_C 	C 	0.1942	0.9776	0.3677	-0.013
Mof_H 	H 	0.1726	0.9599	0.3565	0.02
Mof_H 	H 	0.3103	0.9744	0.3727	0.06
Mof_H 	H 	0.3084	0.9746	0.4499	0.027
Mof_C 	C 	0.1511	0.8807	0.3885	-0.016
Mof_H 	H 	0.1469	0.9102	0.3928	0.022
Mof_H 	H 	0.2379	0.7988	0.3578	0.047
Mof_H 	H 	0.1968	0.7671	0.4352	0.143
Mof_H 	H 	0.2782	0.0255	0.452	0.055
Mof_H 	H 	0.3326	0.0254	0.3974	0.023
Mof_H 	H 	0.177	0.7871	0.448	0.012
Mof_H 	H 	0.2446	0.7528	0.4472	-0.012
Mof_H 	H 	0.2221	0.7434	0.4028	0.005
Mof_H 	H 	0.2583	0.7788	0.4058	0.024
Mof_C 	C 	0.8428	0.6643	0.6339	-0.013
Mof_H 	H 	0.8222	0.6677	0.6122	0.019
Mof_N 	N 	0.7299	0.4645	0.8862	-0.18
Mof_N 	N 	0.6913	0.3593	0.8805	-0.173
Mof_C 	C 	0.6942	0.4776	0.8677	-0.003
Mof_H 	H 	0.6726	0.4599	0.8565	0.017
Mof_H 	H 	0.8103	0.4744	0.8727	0.065
Mof_H 	H 	0.8084	0.4746	0.9499	0.03
Mof_C 	C 	0.6511	0.3807	0.8885	-0.016
Mof_H 	H 	0.6469	0.4102	0.8928	0.022
Mof_H 	H 	0.7379	0.2988	0.8578	0.048
Mof_H 	H 	0.6968	0.2671	0.9352	0.142
Mof_H 	H 	0.7782	0.5255	0.952	0.055
Mof_H 	H 	0.8326	0.5254	0.8974	0.023
Mof_H 	H 	0.677	0.2871	0.948	0.012
Mof_H 	H 	0.7446	0.2528	0.9472	-0.012
Mof_H 	H 	0.7221	0.2434	0.9028	0.005
Mof_H 	H 	0.7583	0.2788	0.9058	0.024
Mof_C 	C 	0.3428	0.1643	0.1339	-0.013
Mof_H 	H 	0.3222	0.1677	0.1122	0.02
Mof_N 	N 	0.7701	0.9645	0.6138	-0.181
Mof_N 	N 	0.8087	0.8593	0.6195	-0.173
Mof_C 	C 	0.8058	0.9776	0.6323	-0.014
Mof_H 	H 	0.8274	0.9599	0.6435	0.02
Mof_H 	H 	0.6897	0.9744	0.6273	0.06
Mof_H 	H 	0.6916	0.9746	0.5501	0.027
Mof_C 	C 	0.8489	0.8807	0.6115	-0.016
Mof_H 	H 	0.8531	0.9102	0.6072	0.022
Mof_H 	H 	0.7621	0.7988	0.6422	0.047
Mof_H 	H 	0.8032	0.7671	0.5648	0.143
Mof_H 	H 	0.7218	0.0255	0.548	0.055
Mof_H 	H 	0.6674	0.0254	0.6026	0.023
Mof_H 	H 	0.823	0.7871	0.552	0.012
Mof_H 	H 	0.7554	0.7528	0.5528	-0.012
Mof_H 	H 	0.7779	0.7434	0.5972	0.005
Mof_H 	H 	0.7417	0.7788	0.5942	0.024
Mof_C 	C 	0.1572	0.6643	0.3661	-0.013
Mof_H 	H 	0.1778	0.6677	0.3878	0.019
Mof_N 	N 	0.2701	0.4645	0.1138	-0.18
Mof_N 	N 	0.3087	0.3593	0.1195	-0.173
Mof_C 	C 	0.3058	0.4776	0.1323	-0.003
Mof_H 	H 	0.3274	0.4599	0.1435	0.017
Mof_H 	H 	0.1897	0.4744	0.1273	0.064
Mof_H 	H 	0.1916	0.4746	0.0501	0.032
Mof_C 	C 	0.3489	0.3807	0.1115	-0.016
Mof_H 	H 	0.3531	0.4102	0.1072	0.023
Mof_H 	H 	0.2621	0.2988	0.1422	0.048
Mof_H 	H 	0.3032	0.2671	0.0648	0.143
Mof_H 	H 	0.2218	0.5255	0.048	0.056
Mof_H 	H 	0.1674	0.5254	0.1026	0.024
Mof_H 	H 	0.323	0.2871	0.052	0.013
Mof_H 	H 	0.2554	0.2528	0.0528	-0.011
Mof_H 	H 	0.2779	0.2434	0.0972	0.005
Mof_H 	H 	0.2417	0.2788	0.0942	0.024
Mof_C 	C 	0.6572	0.1643	0.8661	-0.013
Mof_H 	H 	0.6778	0.1677	0.8878	0.019
Mof_N 	N 	0.0355	0.6138	0.2299	-0.182
Mof_N 	N 	0.1407	0.6195	0.1913	-0.173
Mof_C 	C 	0.0224	0.6323	0.1942	0.008
Mof_H 	H 	0.0401	0.6435	0.1726	0.015
Mof_H 	H 	0.0256	0.6273	0.3103	0.063
Mof_H 	H 	0.0254	0.5501	0.3084	0.03
Mof_C 	C 	0.1193	0.6115	0.1511	-0.016
Mof_H 	H 	0.0898	0.6072	0.1469	0.023
Mof_H 	H 	0.2012	0.6422	0.2379	0.047
Mof_H 	H 	0.2329	0.5648	0.1968	0.143
Mof_H 	H 	0.9745	0.548	0.2782	0.052
Mof_H 	H 	0.9746	0.6026	0.3326	0.02
Mof_H 	H 	0.2129	0.552	0.177	0.012
Mof_H 	H 	0.2472	0.5528	0.2446	-0.012
Mof_H 	H 	0.2566	0.5972	0.2221	0.005
Mof_H 	H 	0.2212	0.5942	0.2583	0.024
Mof_C 	C 	0.3357	0.3661	0.8428	-0.013
Mof_H 	H 	0.3323	0.3878	0.8222	0.019
Mof_N 	N 	0.5355	0.1138	0.7299	-0.18
Mof_N 	N 	0.6407	0.1195	0.6913	-0.172
Mof_C 	C 	0.5224	0.1323	0.6942	-0.003
Mof_H 	H 	0.5401	0.1435	0.6726	0.017
Mof_H 	H 	0.5256	0.1273	0.8103	0.064
Mof_H 	H 	0.5254	0.0501	0.8084	0.032
Mof_C 	C 	0.6193	0.1115	0.6511	-0.016
Mof_H 	H 	0.5898	0.1072	0.6469	0.023
Mof_H 	H 	0.7012	0.1422	0.7379	0.047
Mof_H 	H 	0.7329	0.0648	0.6968	0.144
Mof_H 	H 	0.4745	0.048	0.7782	0.057
Mof_H 	H 	0.4746	0.1026	0.8326	0.023
Mof_H 	H 	0.7129	0.052	0.677	0.012
Mof_H 	H 	0.7472	0.0528	0.7446	-0.011
Mof_H 	H 	0.7566	0.0972	0.7221	0.005
Mof_H 	H 	0.7212	0.0942	0.7583	0.024
Mof_C 	C 	0.8357	0.8661	0.3428	-0.013
Mof_H 	H 	0.8323	0.8878	0.3222	0.019
Mof_N 	N 	0.0355	0.3862	0.7701	-0.182
Mof_N 	N 	0.1407	0.3805	0.8087	-0.173
Mof_C 	C 	0.0224	0.3677	0.8058	0.008
Mof_H 	H 	0.0401	0.3565	0.8274	0.014
Mof_H 	H 	0.0256	0.3727	0.6897	0.063
Mof_H 	H 	0.0254	0.4499	0.6916	0.03
Mof_C 	C 	0.1193	0.3885	0.8489	-0.016
Mof_H 	H 	0.0898	0.3928	0.8531	0.023
Mof_H 	H 	0.2012	0.3578	0.7621	0.047
Mof_H 	H 	0.2329	0.4352	0.8032	0.143
Mof_H 	H 	0.9745	0.452	0.7218	0.052
Mof_H 	H 	0.9746	0.3974	0.6674	0.02
Mof_H 	H 	0.2129	0.448	0.823	0.012
Mof_H 	H 	0.2472	0.4472	0.7554	-0.012
Mof_H 	H 	0.2566	0.4028	0.7779	0.005
Mof_H 	H 	0.2212	0.4058	0.7417	0.024
Mof_C 	C 	0.3357	0.6339	0.1572	-0.013
Mof_H 	H 	0.3323	0.6122	0.1778	0.019
Mof_N 	N 	0.5355	0.8862	0.2701	-0.18
Mof_N 	N 	0.6407	0.8805	0.3087	-0.173
Mof_C 	C 	0.5224	0.8677	0.3058	-0.003
Mof_H 	H 	0.5401	0.8565	0.3274	0.017
Mof_H 	H 	0.5256	0.8727	0.1897	0.065
Mof_H 	H 	0.5254	0.9499	0.1916	0.03
Mof_C 	C 	0.6193	0.8885	0.3489	-0.016
Mof_H 	H 	0.5898	0.8928	0.3531	0.022
Mof_H 	H 	0.7012	0.8578	0.2621	0.048
Mof_H 	H 	0.7329	0.9352	0.3032	0.142
Mof_H 	H 	0.4745	0.952	0.2218	0.055
Mof_H 	H 	0.4746	0.8974	0.1674	0.024
Mof_H 	H 	0.7129	0.948	0.323	0.012
Mof_H 	H 	0.7472	0.9472	0.2554	-0.012
Mof_H 	H 	0.7566	0.9028	0.2779	0.005
Mof_H 	H 	0.7212	0.9058	0.2417	0.024
Mof_C 	C 	0.8357	0.1339	0.6572	-0.013
Mof_H 	H 	0.8323	0.1122	0.6778	0.02
Mof_N 	N 	0.9645	0.6138	0.7701	-0.181
Mof_N 	N 	0.8593	0.6195	0.8087	-0.173
Mof_C 	C 	0.9776	0.6323	0.8058	-0.014
Mof_H 	H 	0.9599	0.6435	0.8274	0.02
Mof_H 	H 	0.9744	0.6273	0.6897	0.06
Mof_H 	H 	0.9746	0.5501	0.6916	0.027
Mof_C 	C 	0.8807	0.6115	0.8489	-0.016
Mof_H 	H 	0.9102	0.6072	0.8531	0.022
Mof_H 	H 	0.7988	0.6422	0.7621	0.047
Mof_H 	H 	0.7671	0.5648	0.8032	0.143
Mof_H 	H 	0.0255	0.548	0.7218	0.055
Mof_H 	H 	0.0254	0.6026	0.6674	0.023
Mof_H 	H 	0.7871	0.552	0.823	0.012
Mof_H 	H 	0.7528	0.5528	0.7554	-0.012
Mof_H 	H 	0.7434	0.5972	0.7779	0.005
Mof_H 	H 	0.7788	0.5942	0.7417	0.024
Mof_C 	C 	0.6643	0.3661	0.1572	-0.013
Mof_H 	H 	0.6677	0.3878	0.1778	0.019
Mof_N 	N 	0.4645	0.1138	0.2701	-0.18
Mof_N 	N 	0.3593	0.1195	0.3087	-0.173
Mof_C 	C 	0.4776	0.1323	0.3058	-0.003
Mof_H 	H 	0.4599	0.1435	0.3274	0.017
Mof_H 	H 	0.4744	0.1273	0.1897	0.064
Mof_H 	H 	0.4746	0.0501	0.1916	0.032
Mof_C 	C 	0.3807	0.1115	0.3489	-0.016
Mof_H 	H 	0.4102	0.1072	0.3531	0.023
Mof_H 	H 	0.2988	0.1422	0.2621	0.048
Mof_H 	H 	0.2671	0.0648	0.3032	0.143
Mof_H 	H 	0.5255	0.048	0.2218	0.056
Mof_H 	H 	0.5254	0.1026	0.1674	0.024
Mof_H 	H 	0.2871	0.052	0.323	0.013
Mof_H 	H 	0.2528	0.0528	0.2554	-0.011
Mof_H 	H 	0.2434	0.0972	0.2779	0.005
Mof_H 	H 	0.2788	0.0942	0.2417	0.024
Mof_C 	C 	0.1643	0.8661	0.6572	-0.013
Mof_H 	H 	0.1677	0.8878	0.6778	0.019
Mof_N 	N 	0.9645	0.3862	0.2299	-0.181
Mof_N 	N 	0.8593	0.3805	0.1913	-0.173
Mof_C 	C 	0.9776	0.3677	0.1942	-0.013
Mof_H 	H 	0.9599	0.3565	0.1726	0.02
Mof_H 	H 	0.9744	0.3727	0.3103	0.06
Mof_H 	H 	0.9746	0.4499	0.3084	0.027
Mof_C 	C 	0.8807	0.3885	0.1511	-0.016
Mof_H 	H 	0.9102	0.3928	0.1469	0.022
Mof_H 	H 	0.7988	0.3578	0.2379	0.047
Mof_H 	H 	0.7671	0.4352	0.1968	0.143
Mof_H 	H 	0.0255	0.452	0.2782	0.055
Mof_H 	H 	0.0254	0.3974	0.3326	0.023
Mof_H 	H 	0.7871	0.448	0.177	0.012
Mof_H 	H 	0.7528	0.4472	0.2446	-0.012
Mof_H 	H 	0.7434	0.4028	0.2221	0.005
Mof_H 	H 	0.7788	0.4058	0.2583	0.024
Mof_C 	C 	0.6643	0.6339	0.8428	-0.013
Mof_H 	H 	0.6677	0.6122	0.8222	0.019
Mof_N 	N 	0.4645	0.8862	0.7299	-0.18
Mof_N 	N 	0.3593	0.8805	0.6913	-0.173
Mof_C 	C 	0.4776	0.8677	0.6942	-0.003
Mof_H 	H 	0.4599	0.8565	0.6726	0.017
Mof_H 	H 	0.4744	0.8727	0.8103	0.065
Mof_H 	H 	0.4746	0.9499	0.8084	0.03
Mof_C 	C 	0.3807	0.8885	0.6511	-0.016
Mof_H 	H 	0.4102	0.8928	0.6469	0.022
Mof_H 	H 	0.2988	0.8578	0.7379	0.048
Mof_H 	H 	0.2671	0.9352	0.6968	0.142
Mof_H 	H 	0.5255	0.952	0.7782	0.055
Mof_H 	H 	0.5254	0.8974	0.8326	0.023
Mof_H 	H 	0.2871	0.948	0.677	0.012
Mof_H 	H 	0.2528	0.9472	0.7446	-0.012
Mof_H 	H 	0.2434	0.9028	0.7221	0.005
Mof_H 	H 	0.2788	0.9058	0.7583	0.024
Mof_C 	C 	0.1643	0.1339	0.3428	-0.013
Mof_H 	H 	0.1677	0.1122	0.3222	0.02
Mof_N 	N 	0.2299	0.3862	0.9645	-0.181
Mof_N 	N 	0.1913	0.3805	0.8593	-0.173
Mof_C 	C 	0.1942	0.3677	0.9776	-0.013
Mof_H 	H 	0.1726	0.3565	0.9599	0.02
Mof_H 	H 	0.3103	0.3727	0.9744	0.06
Mof_H 	H 	0.3084	0.4499	0.9746	0.027
Mof_C 	C 	0.1511	0.3885	0.8807	-0.016
Mof_H 	H 	0.1469	0.3928	0.9102	0.022
Mof_H 	H 	0.2379	0.3578	0.7988	0.047
Mof_H 	H 	0.1968	0.4352	0.7671	0.143
Mof_H 	H 	0.2782	0.452	0.0255	0.055
Mof_H 	H 	0.3326	0.3974	0.0254	0.023
Mof_H 	H 	0.177	0.448	0.7871	0.012
Mof_H 	H 	0.2446	0.4472	0.7528	-0.012
Mof_H 	H 	0.2221	0.4028	0.7434	0.005
Mof_H 	H 	0.2583	0.4058	0.7788	0.024
Mof_C 	C 	0.8428	0.6339	0.6643	-0.013
Mof_H 	H 	0.8222	0.6122	0.6677	0.019
Mof_N 	N 	0.7299	0.8862	0.4645	-0.18
Mof_N 	N 	0.6913	0.8805	0.3593	-0.173
Mof_C 	C 	0.6942	0.8677	0.4776	-0.003
Mof_H 	H 	0.6726	0.8565	0.4599	0.017
Mof_H 	H 	0.8103	0.8727	0.4744	0.065
Mof_H 	H 	0.8084	0.9499	0.4746	0.03
Mof_C 	C 	0.6511	0.8885	0.3807	-0.016
Mof_H 	H 	0.6469	0.8928	0.4102	0.022
Mof_H 	H 	0.7379	0.8578	0.2988	0.048
Mof_H 	H 	0.6968	0.9352	0.2671	0.142
Mof_H 	H 	0.7782	0.952	0.5255	0.055
Mof_H 	H 	0.8326	0.8974	0.5254	0.023
Mof_H 	H 	0.677	0.948	0.2871	0.012
Mof_H 	H 	0.7446	0.9472	0.2528	-0.012
Mof_H 	H 	0.7221	0.9028	0.2434	0.005
Mof_H 	H 	0.7583	0.9058	0.2788	0.024
Mof_C 	C 	0.3428	0.1339	0.1643	-0.013
Mof_H 	H 	0.3222	0.1122	0.1677	0.02
Mof_N 	N 	0.7701	0.6138	0.9645	-0.181
Mof_N 	N 	0.8087	0.6195	0.8593	-0.173
Mof_C 	C 	0.8058	0.6323	0.9776	-0.014
Mof_H 	H 	0.8274	0.6435	0.9599	0.02
Mof_H 	H 	0.6897	0.6273	0.9744	0.06
Mof_H 	H 	0.6916	0.5501	0.9746	0.027
Mof_C 	C 	0.8489	0.6115	0.8807	-0.016
Mof_H 	H 	0.8531	0.6072	0.9102	0.022
Mof_H 	H 	0.7621	0.6422	0.7988	0.047
Mof_H 	H 	0.8032	0.5648	0.7671	0.143
Mof_H 	H 	0.7218	0.548	0.0255	0.055
Mof_H 	H 	0.6674	0.6026	0.0254	0.023
Mof_H 	H 	0.823	0.552	0.7871	0.012
Mof_H 	H 	0.7554	0.5528	0.7528	-0.012
Mof_H 	H 	0.7779	0.5972	0.7434	0.005
Mof_H 	H 	0.7417	0.5942	0.7788	0.024
Mof_C 	C 	0.1572	0.3661	0.6643	-0.013
Mof_H 	H 	0.1778	0.3878	0.6677	0.019
Mof_N 	N 	0.2701	0.1138	0.4645	-0.18
Mof_N 	N 	0.3087	0.1195	0.3593	-0.173
Mof_C 	C 	0.3058	0.1323	0.4776	-0.003
Mof_H 	H 	0.3274	0.1435	0.4599	0.017
Mof_H 	H 	0.1897	0.1273	0.4744	0.064
Mof_H 	H 	0.1916	0.0501	0.4746	0.032
Mof_C 	C 	0.3489	0.1115	0.3807	-0.016
Mof_H 	H 	0.3531	0.1072	0.4102	0.023
Mof_H 	H 	0.2621	0.1422	0.2988	0.048
Mof_H 	H 	0.3032	0.0648	0.2671	0.143
Mof_H 	H 	0.2218	0.048	0.5255	0.056
Mof_H 	H 	0.1674	0.1026	0.5254	0.024
Mof_H 	H 	0.323	0.052	0.2871	0.013
Mof_H 	H 	0.2554	0.0528	0.2528	-0.011
Mof_H 	H 	0.2779	0.0972	0.2434	0.005
Mof_H 	H 	0.2417	0.0942	0.2788	0.024
Mof_C 	C 	0.6572	0.8661	0.1643	-0.013
Mof_H 	H 	0.6778	0.8878	0.1677	0.019
Mof_N 	N 	0.7701	0.3862	0.0355	-0.182
Mof_N 	N 	0.8087	0.3805	0.1407	-0.173
Mof_C 	C 	0.8058	0.3677	0.0224	0.008
Mof_H 	H 	0.8274	0.3565	0.0401	0.014
Mof_H 	H 	0.6897	0.3727	0.0256	0.063
Mof_H 	H 	0.6916	0.4499	0.0254	0.03
Mof_C 	C 	0.8489	0.3885	0.1193	-0.016
Mof_H 	H 	0.8531	0.3928	0.0898	0.023
Mof_H 	H 	0.7621	0.3578	0.2012	0.047
Mof_H 	H 	0.8032	0.4352	0.2329	0.143
Mof_H 	H 	0.7218	0.452	0.9745	0.052
Mof_H 	H 	0.6674	0.3974	0.9746	0.02
Mof_H 	H 	0.823	0.448	0.2129	0.012
Mof_H 	H 	0.7554	0.4472	0.2472	-0.012
Mof_H 	H 	0.7779	0.4028	0.2566	0.005
Mof_H 	H 	0.7417	0.4058	0.2212	0.024
Mof_C 	C 	0.1572	0.6339	0.3357	-0.013
Mof_H 	H 	0.1778	0.6122	0.3323	0.019
Mof_N 	N 	0.2701	0.8862	0.5355	-0.18
Mof_N 	N 	0.3087	0.8805	0.6407	-0.173
Mof_C 	C 	0.3058	0.8677	0.5224	-0.003
Mof_H 	H 	0.3274	0.8565	0.5401	0.017
Mof_H 	H 	0.1897	0.8727	0.5256	0.065
Mof_H 	H 	0.1916	0.9499	0.5254	0.03
Mof_C 	C 	0.3489	0.8885	0.6193	-0.016
Mof_H 	H 	0.3531	0.8928	0.5898	0.022
Mof_H 	H 	0.2621	0.8578	0.7012	0.048
Mof_H 	H 	0.3032	0.9352	0.7329	0.142
Mof_H 	H 	0.2218	0.952	0.4745	0.055
Mof_H 	H 	0.1674	0.8974	0.4746	0.024
Mof_H 	H 	0.323	0.948	0.7129	0.012
Mof_H 	H 	0.2554	0.9472	0.7472	-0.012
Mof_H 	H 	0.2779	0.9028	0.7566	0.005
Mof_H 	H 	0.2417	0.9058	0.7212	0.024
Mof_C 	C 	0.6572	0.1339	0.8357	-0.013
Mof_H 	H 	0.6778	0.1122	0.8323	0.02
Mof_N 	N 	0.2299	0.6138	0.0355	-0.182
Mof_N 	N 	0.1913	0.6195	0.1407	-0.173
Mof_C 	C 	0.1942	0.6323	0.0224	0.008
Mof_H 	H 	0.1726	0.6435	0.0401	0.015
Mof_H 	H 	0.3103	0.6273	0.0256	0.063
Mof_H 	H 	0.3084	0.5501	0.0254	0.03
Mof_C 	C 	0.1511	0.6115	0.1193	-0.016
Mof_H 	H 	0.1469	0.6072	0.0898	0.023
Mof_H 	H 	0.2379	0.6422	0.2012	0.047
Mof_H 	H 	0.1968	0.5648	0.2329	0.143
Mof_H 	H 	0.2782	0.548	0.9745	0.052
Mof_H 	H 	0.3326	0.6026	0.9746	0.02
Mof_H 	H 	0.177	0.552	0.2129	0.012
Mof_H 	H 	0.2446	0.5528	0.2472	-0.012
Mof_H 	H 	0.2221	0.5972	0.2566	0.005
Mof_H 	H 	0.2583	0.5942	0.2212	0.024
Mof_C 	C 	0.8428	0.3661	0.3357	-0.013
Mof_H 	H 	0.8222	0.3878	0.3323	0.019
Mof_N 	N 	0.7299	0.1138	0.5355	-0.18
Mof_N 	N 	0.6913	0.1195	0.6407	-0.172
Mof_C 	C 	0.6942	0.1323	0.5224	-0.003
Mof_H 	H 	0.6726	0.1435	0.5401	0.017
Mof_H 	H 	0.8103	0.1273	0.5256	0.064
Mof_H 	H 	0.8084	0.0501	0.5254	0.032
Mof_C 	C 	0.6511	0.1115	0.6193	-0.016
Mof_H 	H 	0.6469	0.1072	0.5898	0.023
Mof_H 	H 	0.7379	0.1422	0.7012	0.047
Mof_H 	H 	0.6968	0.0648	0.7329	0.144
Mof_H 	H 	0.7782	0.048	0.4745	0.057
Mof_H 	H 	0.8326	0.1026	0.4746	0.023
Mof_H 	H 	0.677	0.052	0.7129	0.012
Mof_H 	H 	0.7446	0.0528	0.7472	-0.011
Mof_H 	H 	0.7221	0.0972	0.7566	0.005
Mof_H 	H 	0.7583	0.0942	0.7212	0.024
Mof_C 	C 	0.3428	0.8661	0.8357	-0.013
Mof_H 	H 	0.3222	0.8878	0.8323	0.019
Mof_N 	N 	0.9645	0.2299	0.3862	-0.181
Mof_N 	N 	0.8593	0.1913	0.3805	-0.173
Mof_C 	C 	0.9776	0.1942	0.3677	-0.013
Mof_H 	H 	0.9599	0.1726	0.3565	0.02
Mof_H 	H 	0.9744	0.3103	0.3727	0.06
Mof_H 	H 	0.9746	0.3084	0.4499	0.027
Mof_C 	C 	0.8807	0.1511	0.3885	-0.016
Mof_H 	H 	0.9102	0.1469	0.3928	0.022
Mof_H 	H 	0.7988	0.2379	0.3578	0.047
Mof_H 	H 	0.7671	0.1968	0.4352	0.143
Mof_H 	H 	0.0255	0.2782	0.452	0.055
Mof_H 	H 	0.0254	0.3326	0.3974	0.023
Mof_H 	H 	0.7871	0.177	0.448	0.012
Mof_H 	H 	0.7528	0.2446	0.4472	-0.012
Mof_H 	H 	0.7434	0.2221	0.4028	0.005
Mof_H 	H 	0.7788	0.2583	0.4058	0.024
Mof_C 	C 	0.6643	0.8428	0.6339	-0.013
Mof_H 	H 	0.6677	0.8222	0.6122	0.019
Mof_N 	N 	0.4645	0.7299	0.8862	-0.18
Mof_N 	N 	0.3593	0.6913	0.8805	-0.173
Mof_C 	C 	0.4776	0.6942	0.8677	-0.003
Mof_H 	H 	0.4599	0.6726	0.8565	0.017
Mof_H 	H 	0.4744	0.8103	0.8727	0.065
Mof_H 	H 	0.4746	0.8084	0.9499	0.03
Mof_C 	C 	0.3807	0.6511	0.8885	-0.016
Mof_H 	H 	0.4102	0.6469	0.8928	0.022
Mof_H 	H 	0.2988	0.7379	0.8578	0.048
Mof_H 	H 	0.2671	0.6968	0.9352	0.142
Mof_H 	H 	0.5255	0.7782	0.952	0.055
Mof_H 	H 	0.5254	0.8326	0.8974	0.023
Mof_H 	H 	0.2871	0.677	0.948	0.012
Mof_H 	H 	0.2528	0.7446	0.9472	-0.012
Mof_H 	H 	0.2434	0.7221	0.9028	0.005
Mof_H 	H 	0.2788	0.7583	0.9058	0.024
Mof_C 	C 	0.1643	0.3428	0.1339	-0.013
Mof_H 	H 	0.1677	0.3222	0.1122	0.02
Mof_N 	N 	0.9645	0.7701	0.6138	-0.181
Mof_N 	N 	0.8593	0.8087	0.6195	-0.173
Mof_C 	C 	0.9776	0.8058	0.6323	-0.014
Mof_H 	H 	0.9599	0.8274	0.6435	0.02
Mof_H 	H 	0.9744	0.6897	0.6273	0.06
Mof_H 	H 	0.9746	0.6916	0.5501	0.027
Mof_C 	C 	0.8807	0.8489	0.6115	-0.016
Mof_H 	H 	0.9102	0.8531	0.6072	0.022
Mof_H 	H 	0.7988	0.7621	0.6422	0.047
Mof_H 	H 	0.7671	0.8032	0.5648	0.143
Mof_H 	H 	0.0255	0.7218	0.548	0.055
Mof_H 	H 	0.0254	0.6674	0.6026	0.023
Mof_H 	H 	0.7871	0.823	0.552	0.012
Mof_H 	H 	0.7528	0.7554	0.5528	-0.012
Mof_H 	H 	0.7434	0.7779	0.5972	0.005
Mof_H 	H 	0.7788	0.7417	0.5942	0.024
Mof_C 	C 	0.6643	0.1572	0.3661	-0.013
Mof_H 	H 	0.6677	0.1778	0.3878	0.019
Mof_N 	N 	0.4645	0.2701	0.1138	-0.18
Mof_N 	N 	0.3593	0.3087	0.1195	-0.173
Mof_C 	C 	0.4776	0.3058	0.1323	-0.003
Mof_H 	H 	0.4599	0.3274	0.1435	0.017
Mof_H 	H 	0.4744	0.1897	0.1273	0.064
Mof_H 	H 	0.4746	0.1916	0.0501	0.032
Mof_C 	C 	0.3807	0.3489	0.1115	-0.016
Mof_H 	H 	0.4102	0.3531	0.1072	0.023
Mof_H 	H 	0.2988	0.2621	0.1422	0.048
Mof_H 	H 	0.2671	0.3032	0.0648	0.143
Mof_H 	H 	0.5255	0.2218	0.048	0.056
Mof_H 	H 	0.5254	0.1674	0.1026	0.024
Mof_H 	H 	0.2871	0.323	0.052	0.013
Mof_H 	H 	0.2528	0.2554	0.0528	-0.011
Mof_H 	H 	0.2434	0.2779	0.0972	0.005
Mof_H 	H 	0.2788	0.2417	0.0942	0.024
Mof_C 	C 	0.1643	0.6572	0.8661	-0.013
Mof_H 	H 	0.1677	0.6778	0.8878	0.019
Mof_N 	N 	0.0355	0.7701	0.3862	-0.182
Mof_N 	N 	0.1407	0.8087	0.3805	-0.173
Mof_C 	C 	0.0224	0.8058	0.3677	0.008
Mof_H 	H 	0.0401	0.8274	0.3565	0.014
Mof_H 	H 	0.0256	0.6897	0.3727	0.063
Mof_H 	H 	0.0254	0.6916	0.4499	0.03
Mof_C 	C 	0.1193	0.8489	0.3885	-0.016
Mof_H 	H 	0.0898	0.8531	0.3928	0.023
Mof_H 	H 	0.2012	0.7621	0.3578	0.047
Mof_H 	H 	0.2329	0.8032	0.4352	0.143
Mof_H 	H 	0.9745	0.7218	0.452	0.052
Mof_H 	H 	0.9746	0.6674	0.3974	0.02
Mof_H 	H 	0.2129	0.823	0.448	0.012
Mof_H 	H 	0.2472	0.7554	0.4472	-0.012
Mof_H 	H 	0.2566	0.7779	0.4028	0.005
Mof_H 	H 	0.2212	0.7417	0.4058	0.024
Mof_C 	C 	0.3357	0.1572	0.6339	-0.013
Mof_H 	H 	0.3323	0.1778	0.6122	0.019
Mof_N 	N 	0.5355	0.2701	0.8862	-0.18
Mof_N 	N 	0.6407	0.3087	0.8805	-0.173
Mof_C 	C 	0.5224	0.3058	0.8677	-0.003
Mof_H 	H 	0.5401	0.3274	0.8565	0.017
Mof_H 	H 	0.5256	0.1897	0.8727	0.065
Mof_H 	H 	0.5254	0.1916	0.9499	0.03
Mof_C 	C 	0.6193	0.3489	0.8885	-0.016
Mof_H 	H 	0.5898	0.3531	0.8928	0.022
Mof_H 	H 	0.7012	0.2621	0.8578	0.048
Mof_H 	H 	0.7329	0.3032	0.9352	0.142
Mof_H 	H 	0.4745	0.2218	0.952	0.055
Mof_H 	H 	0.4746	0.1674	0.8974	0.024
Mof_H 	H 	0.7129	0.323	0.948	0.012
Mof_H 	H 	0.7472	0.2554	0.9472	-0.012
Mof_H 	H 	0.7566	0.2779	0.9028	0.005
Mof_H 	H 	0.7212	0.2417	0.9058	0.024
Mof_C 	C 	0.8357	0.6572	0.1339	-0.013
Mof_H 	H 	0.8323	0.6778	0.1122	0.02
Mof_N 	N 	0.0355	0.2299	0.6138	-0.182
Mof_N 	N 	0.1407	0.1913	0.6195	-0.173
Mof_C 	C 	0.0224	0.1942	0.6323	0.008
Mof_H 	H 	0.0401	0.1726	0.6435	0.015
Mof_H 	H 	0.0256	0.3103	0.6273	0.063
Mof_H 	H 	0.0254	0.3084	0.5501	0.03
Mof_C 	C 	0.1193	0.1511	0.6115	-0.016
Mof_H 	H 	0.0898	0.1469	0.6072	0.023
Mof_H 	H 	0.2012	0.2379	0.6422	0.047
Mof_H 	H 	0.2329	0.1968	0.5648	0.143
Mof_H 	H 	0.9745	0.2782	0.548	0.052
Mof_H 	H 	0.9746	0.3326	0.6026	0.02
Mof_H 	H 	0.2129	0.177	0.552	0.012
Mof_H 	H 	0.2472	0.2446	0.5528	-0.012
Mof_H 	H 	0.2566	0.2221	0.5972	0.005
Mof_H 	H 	0.2212	0.2583	0.5942	0.024
Mof_C 	C 	0.3357	0.8428	0.3661	-0.013
Mof_H 	H 	0.3323	0.8222	0.3878	0.019
Mof_N 	N 	0.5355	0.7299	0.1138	-0.18
Mof_N 	N 	0.6407	0.6913	0.1195	-0.172
Mof_C 	C 	0.5224	0.6942	0.1323	-0.003
Mof_H 	H 	0.5401	0.6726	0.1435	0.017
Mof_H 	H 	0.5256	0.8103	0.1273	0.064
Mof_H 	H 	0.5254	0.8084	0.0501	0.032
Mof_C 	C 	0.6193	0.6511	0.1115	-0.016
Mof_H 	H 	0.5898	0.6469	0.1072	0.023
Mof_H 	H 	0.7012	0.7379	0.1422	0.047
Mof_H 	H 	0.7329	0.6968	0.0648	0.144
Mof_H 	H 	0.4745	0.7782	0.048	0.057
Mof_H 	H 	0.4746	0.8326	0.1026	0.023
Mof_H 	H 	0.7129	0.677	0.052	0.012
Mof_H 	H 	0.7472	0.7446	0.0528	-0.011
Mof_H 	H 	0.7566	0.7221	0.0972	0.005
Mof_H 	H 	0.7212	0.7583	0.0942	0.024
Mof_C 	C 	0.8357	0.3428	0.8661	-0.013
Mof_H 	H 	0.8323	0.3222	0.8878	0.019
Mof_N 	N 	0.3862	0.9645	0.2299	-0.181
Mof_N 	N 	0.3805	0.8593	0.1913	-0.173
Mof_C 	C 	0.3677	0.9776	0.1942	-0.013
Mof_H 	H 	0.3565	0.9599	0.1726	0.02
Mof_H 	H 	0.3727	0.9744	0.3103	0.06
Mof_H 	H 	0.4499	0.9746	0.3084	0.027
Mof_C 	C 	0.3885	0.8807	0.1511	-0.016
Mof_H 	H 	0.3928	0.9102	0.1469	0.022
Mof_H 	H 	0.3578	0.7988	0.2379	0.047
Mof_H 	H 	0.4352	0.7671	0.1968	0.143
Mof_H 	H 	0.452	0.0255	0.2782	0.055
Mof_H 	H 	0.3974	0.0254	0.3326	0.023
Mof_H 	H 	0.448	0.7871	0.177	0.012
Mof_H 	H 	0.4472	0.7528	0.2446	-0.012
Mof_H 	H 	0.4028	0.7434	0.2221	0.005
Mof_H 	H 	0.4058	0.7788	0.2583	0.024
Mof_C 	C 	0.6339	0.6643	0.8428	-0.013
Mof_H 	H 	0.6122	0.6677	0.8222	0.019
Mof_N 	N 	0.8862	0.4645	0.7299	-0.18
Mof_N 	N 	0.8805	0.3593	0.6913	-0.173
Mof_C 	C 	0.8677	0.4776	0.6942	-0.003
Mof_H 	H 	0.8565	0.4599	0.6726	0.017
Mof_H 	H 	0.8727	0.4744	0.8103	0.065
Mof_H 	H 	0.9499	0.4746	0.8084	0.03
Mof_C 	C 	0.8885	0.3807	0.6511	-0.016
Mof_H 	H 	0.8928	0.4102	0.6469	0.022
Mof_H 	H 	0.8578	0.2988	0.7379	0.048
Mof_H 	H 	0.9352	0.2671	0.6968	0.142
Mof_H 	H 	0.952	0.5255	0.7782	0.055
Mof_H 	H 	0.8974	0.5254	0.8326	0.023
Mof_H 	H 	0.948	0.2871	0.677	0.012
Mof_H 	H 	0.9472	0.2528	0.7446	-0.012
Mof_H 	H 	0.9028	0.2434	0.7221	0.005
Mof_H 	H 	0.9058	0.2788	0.7583	0.024
Mof_C 	C 	0.1339	0.1643	0.3428	-0.013
Mof_H 	H 	0.1122	0.1677	0.3222	0.02
Mof_N 	N 	0.6138	0.9645	0.7701	-0.181
Mof_N 	N 	0.6195	0.8593	0.8087	-0.173
Mof_C 	C 	0.6323	0.9776	0.8058	-0.014
Mof_H 	H 	0.6435	0.9599	0.8274	0.02
Mof_H 	H 	0.6273	0.9744	0.6897	0.06
Mof_H 	H 	0.5501	0.9746	0.6916	0.027
Mof_C 	C 	0.6115	0.8807	0.8489	-0.016
Mof_H 	H 	0.6072	0.9102	0.8531	0.022
Mof_H 	H 	0.6422	0.7988	0.7621	0.047
Mof_H 	H 	0.5648	0.7671	0.8032	0.143
Mof_H 	H 	0.548	0.0255	0.7218	0.055
Mof_H 	H 	0.6026	0.0254	0.6674	0.023
Mof_H 	H 	0.552	0.7871	0.823	0.012
Mof_H 	H 	0.5528	0.7528	0.7554	-0.012
Mof_H 	H 	0.5972	0.7434	0.7779	0.005
Mof_H 	H 	0.5942	0.7788	0.7417	0.024
Mof_C 	C 	0.3661	0.6643	0.1572	-0.013
Mof_H 	H 	0.3878	0.6677	0.1778	0.019
Mof_N 	N 	0.1138	0.4645	0.2701	-0.18
Mof_N 	N 	0.1195	0.3593	0.3087	-0.173
Mof_C 	C 	0.1323	0.4776	0.3058	-0.003
Mof_H 	H 	0.1435	0.4599	0.3274	0.017
Mof_H 	H 	0.1273	0.4744	0.1897	0.064
Mof_H 	H 	0.0501	0.4746	0.1916	0.032
Mof_C 	C 	0.1115	0.3807	0.3489	-0.016
Mof_H 	H 	0.1072	0.4102	0.3531	0.023
Mof_H 	H 	0.1422	0.2988	0.2621	0.048
Mof_H 	H 	0.0648	0.2671	0.3032	0.143
Mof_H 	H 	0.048	0.5255	0.2218	0.056
Mof_H 	H 	0.1026	0.5254	0.1674	0.024
Mof_H 	H 	0.052	0.2871	0.323	0.013
Mof_H 	H 	0.0528	0.2528	0.2554	-0.011
Mof_H 	H 	0.0972	0.2434	0.2779	0.005
Mof_H 	H 	0.0942	0.2788	0.2417	0.024
Mof_C 	C 	0.8661	0.1643	0.6572	-0.013
Mof_H 	H 	0.8878	0.1677	0.6778	0.019
Mof_N 	N 	0.3862	0.0355	0.7701	-0.182
Mof_N 	N 	0.3805	0.1407	0.8087	-0.173
Mof_C 	C 	0.3677	0.0224	0.8058	0.008
Mof_H 	H 	0.3565	0.0401	0.8274	0.014
Mof_H 	H 	0.3727	0.0256	0.6897	0.063
Mof_H 	H 	0.4499	0.0254	0.6916	0.03
Mof_C 	C 	0.3885	0.1193	0.8489	-0.016
Mof_H 	H 	0.3928	0.0898	0.8531	0.023
Mof_H 	H 	0.3578	0.2012	0.7621	0.047
Mof_H 	H 	0.4352	0.2329	0.8032	0.143
Mof_H 	H 	0.452	0.9745	0.7218	0.052
Mof_H 	H 	0.3974	0.9746	0.6674	0.02
Mof_H 	H 	0.448	0.2129	0.823	0.012
Mof_H 	H 	0.4472	0.2472	0.7554	-0.012
Mof_H 	H 	0.4028	0.2566	0.7779	0.005
Mof_H 	H 	0.4058	0.2212	0.7417	0.024
Mof_C 	C 	0.6339	0.3357	0.1572	-0.013
Mof_H 	H 	0.6122	0.3323	0.1778	0.019
Mof_N 	N 	0.8862	0.5355	0.2701	-0.18
Mof_N 	N 	0.8805	0.6407	0.3087	-0.173
Mof_C 	C 	0.8677	0.5224	0.3058	-0.003
Mof_H 	H 	0.8565	0.5401	0.3274	0.017
Mof_H 	H 	0.8727	0.5256	0.1897	0.065
Mof_H 	H 	0.9499	0.5254	0.1916	0.03
Mof_C 	C 	0.8885	0.6193	0.3489	-0.016
Mof_H 	H 	0.8928	0.5898	0.3531	0.022
Mof_H 	H 	0.8578	0.7012	0.2621	0.048
Mof_H 	H 	0.9352	0.7329	0.3032	0.142
Mof_H 	H 	0.952	0.4745	0.2218	0.055
Mof_H 	H 	0.8974	0.4746	0.1674	0.024
Mof_H 	H 	0.948	0.7129	0.323	0.012
Mof_H 	H 	0.9472	0.7472	0.2554	-0.012
Mof_H 	H 	0.9028	0.7566	0.2779	0.005
Mof_H 	H 	0.9058	0.7212	0.2417	0.024
Mof_C 	C 	0.1339	0.8357	0.6572	-0.013
Mof_H 	H 	0.1122	0.8323	0.6778	0.02
Mof_N 	N 	0.6138	0.0355	0.2299	-0.182
Mof_N 	N 	0.6195	0.1407	0.1913	-0.173
Mof_C 	C 	0.6323	0.0224	0.1942	0.008
Mof_H 	H 	0.6435	0.0401	0.1726	0.015
Mof_H 	H 	0.6273	0.0256	0.3103	0.063
Mof_H 	H 	0.5501	0.0254	0.3084	0.03
Mof_C 	C 	0.6115	0.1193	0.1511	-0.016
Mof_H 	H 	0.6072	0.0898	0.1469	0.023
Mof_H 	H 	0.6422	0.2012	0.2379	0.047
Mof_H 	H 	0.5648	0.2329	0.1968	0.143
Mof_H 	H 	0.548	0.9745	0.2782	0.052
Mof_H 	H 	0.6026	0.9746	0.3326	0.02
Mof_H 	H 	0.552	0.2129	0.177	0.012
Mof_H 	H 	0.5528	0.2472	0.2446	-0.012
Mof_H 	H 	0.5972	0.2566	0.2221	0.005
Mof_H 	H 	0.5942	0.2212	0.2583	0.024
Mof_C 	C 	0.3661	0.3357	0.8428	-0.013
Mof_H 	H 	0.3878	0.3323	0.8222	0.019
Mof_N 	N 	0.1138	0.5355	0.7299	-0.18
Mof_N 	N 	0.1195	0.6407	0.6913	-0.172
Mof_C 	C 	0.1323	0.5224	0.6942	-0.003
Mof_H 	H 	0.1435	0.5401	0.6726	0.017
Mof_H 	H 	0.1273	0.5256	0.8103	0.064
Mof_H 	H 	0.0501	0.5254	0.8084	0.032
Mof_C 	C 	0.1115	0.6193	0.6511	-0.016
Mof_H 	H 	0.1072	0.5898	0.6469	0.023
Mof_H 	H 	0.1422	0.7012	0.7379	0.047
Mof_H 	H 	0.0648	0.7329	0.6968	0.144
Mof_H 	H 	0.048	0.4745	0.7782	0.057
Mof_H 	H 	0.1026	0.4746	0.8326	0.023
Mof_H 	H 	0.052	0.7129	0.677	0.012
Mof_H 	H 	0.0528	0.7472	0.7446	-0.011
Mof_H 	H 	0.0972	0.7566	0.7221	0.005
Mof_H 	H 	0.0942	0.7212	0.7583	0.024
Mof_C 	C 	0.8661	0.8357	0.3428	-0.013
Mof_H 	H 	0.8878	0.8323	0.3222	0.019
Mof_N 	N 	0.3862	0.2299	0.0355	-0.182
Mof_N 	N 	0.3805	0.1913	0.1407	-0.173
Mof_C 	C 	0.3677	0.1942	0.0224	0.008
Mof_H 	H 	0.3565	0.1726	0.0401	0.015
Mof_H 	H 	0.3727	0.3103	0.0256	0.063
Mof_H 	H 	0.4499	0.3084	0.0254	0.03
Mof_C 	C 	0.3885	0.1511	0.1193	-0.016
Mof_H 	H 	0.3928	0.1469	0.0898	0.024
Mof_H 	H 	0.3578	0.2379	0.2012	0.047
Mof_H 	H 	0.4352	0.1968	0.2329	0.143
Mof_H 	H 	0.452	0.2782	0.9745	0.052
Mof_H 	H 	0.3974	0.3326	0.9746	0.02
Mof_H 	H 	0.448	0.177	0.2129	0.012
Mof_H 	H 	0.4472	0.2446	0.2472	-0.012
Mof_H 	H 	0.4028	0.2221	0.2566	0.005
Mof_H 	H 	0.4058	0.2583	0.2212	0.024
Mof_C 	C 	0.6339	0.8428	0.3357	-0.013
Mof_H 	H 	0.6122	0.8222	0.3323	0.019
Mof_N 	N 	0.8862	0.7299	0.5355	-0.18
Mof_N 	N 	0.8805	0.6913	0.6407	-0.173
Mof_C 	C 	0.8677	0.6942	0.5224	-0.003
Mof_H 	H 	0.8565	0.6726	0.5401	0.017
Mof_H 	H 	0.8727	0.8103	0.5256	0.065
Mof_H 	H 	0.9499	0.8084	0.5254	0.03
Mof_C 	C 	0.8885	0.6511	0.6193	-0.016
Mof_H 	H 	0.8928	0.6469	0.5898	0.022
Mof_H 	H 	0.8578	0.7379	0.7012	0.048
Mof_H 	H 	0.9352	0.6968	0.7329	0.142
Mof_H 	H 	0.952	0.7782	0.4745	0.055
Mof_H 	H 	0.8974	0.8326	0.4746	0.023
Mof_H 	H 	0.948	0.677	0.7129	0.012
Mof_H 	H 	0.9472	0.7446	0.7472	-0.012
Mof_H 	H 	0.9028	0.7221	0.7566	0.005
Mof_H 	H 	0.9058	0.7583	0.7212	0.024
Mof_C 	C 	0.1339	0.3428	0.8357	-0.013
Mof_H 	H 	0.1122	0.3222	0.8323	0.02
Mof_N 	N 	0.6138	0.7701	0.0355	-0.182
Mof_N 	N 	0.6195	0.8087	0.1407	-0.173
Mof_C 	C 	0.6323	0.8058	0.0224	0.008
Mof_H 	H 	0.6435	0.8274	0.0401	0.014
Mof_H 	H 	0.6273	0.6897	0.0256	0.063
Mof_H 	H 	0.5501	0.6916	0.0254	0.03
Mof_C 	C 	0.6115	0.8489	0.1193	-0.016
Mof_H 	H 	0.6072	0.8531	0.0898	0.023
Mof_H 	H 	0.6422	0.7621	0.2012	0.047
Mof_H 	H 	0.5648	0.8032	0.2329	0.143
Mof_H 	H 	0.548	0.7218	0.9745	0.052
Mof_H 	H 	0.6026	0.6674	0.9746	0.02
Mof_H 	H 	0.552	0.823	0.2129	0.012
Mof_H 	H 	0.5528	0.7554	0.2472	-0.012
Mof_H 	H 	0.5972	0.7779	0.2566	0.005
Mof_H 	H 	0.5942	0.7417	0.2212	0.024
Mof_C 	C 	0.3661	0.1572	0.3357	-0.013
Mof_H 	H 	0.3878	0.1778	0.3323	0.019
Mof_N 	N 	0.1138	0.2701	0.5355	-0.18
Mof_N 	N 	0.1195	0.3087	0.6407	-0.173
Mof_C 	C 	0.1323	0.3058	0.5224	-0.003
Mof_H 	H 	0.1435	0.3274	0.5401	0.017
Mof_H 	H 	0.1273	0.1897	0.5256	0.064
Mof_H 	H 	0.0501	0.1916	0.5254	0.032
Mof_C 	C 	0.1115	0.3489	0.6193	-0.016
Mof_H 	H 	0.1072	0.3531	0.5898	0.023
Mof_H 	H 	0.1422	0.2621	0.7012	0.047
Mof_H 	H 	0.0648	0.3032	0.7329	0.144
Mof_H 	H 	0.048	0.2218	0.4745	0.056
Mof_H 	H 	0.1026	0.1674	0.4746	0.024
Mof_H 	H 	0.052	0.323	0.7129	0.013
Mof_H 	H 	0.0528	0.2554	0.7472	-0.011
Mof_H 	H 	0.0972	0.2779	0.7566	0.005
Mof_H 	H 	0.0942	0.2417	0.7212	0.024
Mof_C 	C 	0.8661	0.6572	0.8357	-0.013
Mof_H 	H 	0.8878	0.6778	0.8323	0.019
Mof_N 	N 	0.3862	0.7701	0.9645	-0.181
Mof_N 	N 	0.3805	0.8087	0.8593	-0.173
Mof_C 	C 	0.3677	0.8058	0.9776	-0.013
Mof_H 	H 	0.3565	0.8274	0.9599	0.02
Mof_H 	H 	0.3727	0.6897	0.9744	0.06
Mof_H 	H 	0.4499	0.6916	0.9746	0.027
Mof_C 	C 	0.3885	0.8489	0.8807	-0.016
Mof_H 	H 	0.3928	0.8531	0.9102	0.022
Mof_H 	H 	0.3578	0.7621	0.7988	0.047
Mof_H 	H 	0.4352	0.8032	0.7671	0.143
Mof_H 	H 	0.452	0.7218	0.0255	0.055
Mof_H 	H 	0.3974	0.6674	0.0254	0.023
Mof_H 	H 	0.448	0.823	0.7871	0.012
Mof_H 	H 	0.4472	0.7554	0.7528	-0.012
Mof_H 	H 	0.4028	0.7779	0.7434	0.005
Mof_H 	H 	0.4058	0.7417	0.7788	0.024
Mof_C 	C 	0.6339	0.1572	0.6643	-0.013
Mof_H 	H 	0.6122	0.1778	0.6677	0.019
Mof_N 	N 	0.8862	0.2701	0.4645	-0.18
Mof_N 	N 	0.8805	0.3087	0.3593	-0.173
Mof_C 	C 	0.8677	0.3058	0.4776	-0.003
Mof_H 	H 	0.8565	0.3274	0.4599	0.017
Mof_H 	H 	0.8727	0.1897	0.4744	0.065
Mof_H 	H 	0.9499	0.1916	0.4746	0.03
Mof_C 	C 	0.8885	0.3489	0.3807	-0.016
Mof_H 	H 	0.8928	0.3531	0.4102	0.022
Mof_H 	H 	0.8578	0.2621	0.2988	0.048
Mof_H 	H 	0.9352	0.3032	0.2671	0.142
Mof_H 	H 	0.952	0.2218	0.5255	0.055
Mof_H 	H 	0.8974	0.1674	0.5254	0.024
Mof_H 	H 	0.948	0.323	0.2871	0.013
Mof_H 	H 	0.9472	0.2554	0.2528	-0.012
Mof_H 	H 	0.9028	0.2779	0.2434	0.005
Mof_H 	H 	0.9058	0.2417	0.2788	0.024
Mof_C 	C 	0.1339	0.6572	0.1643	-0.013
Mof_H 	H 	0.1122	0.6778	0.1677	0.02
Mof_N 	N 	0.6138	0.2299	0.9645	-0.181
Mof_N 	N 	0.6195	0.1913	0.8593	-0.173
Mof_C 	C 	0.6323	0.1942	0.9776	-0.013
Mof_H 	H 	0.6435	0.1726	0.9599	0.02
Mof_H 	H 	0.6273	0.3103	0.9744	0.06
Mof_H 	H 	0.5501	0.3084	0.9746	0.027
Mof_C 	C 	0.6115	0.1511	0.8807	-0.016
Mof_H 	H 	0.6072	0.1469	0.9102	0.022
Mof_H 	H 	0.6422	0.2379	0.7988	0.047
Mof_H 	H 	0.5648	0.1968	0.7671	0.143
Mof_H 	H 	0.548	0.2782	0.0255	0.055
Mof_H 	H 	0.6026	0.3326	0.0254	0.023
Mof_H 	H 	0.552	0.177	0.7871	0.012
Mof_H 	H 	0.5528	0.2446	0.7528	-0.012
Mof_H 	H 	0.5972	0.2221	0.7434	0.005
Mof_H 	H 	0.5942	0.2583	0.7788	0.024
Mof_C 	C 	0.3661	0.8428	0.6643	-0.013
Mof_H 	H 	0.3878	0.8222	0.6677	0.019
Mof_N 	N 	0.1138	0.7299	0.4645	-0.18
Mof_N 	N 	0.1195	0.6913	0.3593	-0.173
Mof_C 	C 	0.1323	0.6942	0.4776	-0.003
Mof_H 	H 	0.1435	0.6726	0.4599	0.017
Mof_H 	H 	0.1273	0.8103	0.4744	0.064
Mof_H 	H 	0.0501	0.8084	0.4746	0.032
Mof_C 	C 	0.1115	0.6511	0.3807	-0.016
Mof_H 	H 	0.1072	0.6469	0.4102	0.023
Mof_H 	H 	0.1422	0.7379	0.2988	0.047
Mof_H 	H 	0.0648	0.6968	0.2671	0.144
Mof_H 	H 	0.048	0.7782	0.5255	0.057
Mof_H 	H 	0.1026	0.8326	0.5254	0.023
Mof_H 	H 	0.052	0.677	0.2871	0.013
Mof_H 	H 	0.0528	0.7446	0.2528	-0.011
Mof_H 	H 	0.0972	0.7221	0.2434	0.005
Mof_H 	H 	0.0942	0.7583	0.2788	0.024
Mof_C 	C 	0.8661	0.3428	0.1643	-0.013
Mof_H 	H 	0.8878	0.3222	0.1677	0.019
Mof_N 	N 	0.2299	0.9645	0.6138	-0.181
Mof_N 	N 	0.1913	0.8593	0.6195	-0.173
Mof_C 	C 	0.1942	0.9776	0.6323	-0.013
Mof_H 	H 	0.1726	0.9599	0.6435	0.02
Mof_H 	H 	0.3103	0.9744	0.6273	0.06
Mof_H 	H 	0.3084	0.9746	0.5501	0.027
Mof_C 	C 	0.1511	0.8807	0.6115	-0.016
Mof_H 	H 	0.1469	0.9102	0.6072	0.022
Mof_H 	H 	0.2379	0.7988	0.6422	0.047
Mof_H 	H 	0.1968	0.7671	0.5648	0.143
Mof_H 	H 	0.2782	0.0255	0.548	0.055
Mof_H 	H 	0.3326	0.0254	0.6026	0.023
Mof_H 	H 	0.177	0.7871	0.552	0.012
Mof_H 	H 	0.2446	0.7528	0.5528	-0.012
Mof_H 	H 	0.2221	0.7434	0.5972	0.005
Mof_H 	H 	0.2583	0.7788	0.5942	0.024
Mof_C 	C 	0.8428	0.6643	0.3661	-0.013
Mof_H 	H 	0.8222	0.6677	0.3878	0.019
Mof_N 	N 	0.7299	0.4645	0.1138	-0.18
Mof_N 	N 	0.6913	0.3593	0.1195	-0.173
Mof_C 	C 	0.6942	0.4776	0.1323	-0.003
Mof_H 	H 	0.6726	0.4599	0.1435	0.017
Mof_H 	H 	0.8103	0.4744	0.1273	0.064
Mof_H 	H 	0.8084	0.4746	0.0501	0.032
Mof_C 	C 	0.6511	0.3807	0.1115	-0.016
Mof_H 	H 	0.6469	0.4102	0.1072	0.023
Mof_H 	H 	0.7379	0.2988	0.1422	0.047
Mof_H 	H 	0.6968	0.2671	0.0648	0.144
Mof_H 	H 	0.7782	0.5255	0.048	0.057
Mof_H 	H 	0.8326	0.5254	0.1026	0.023
Mof_H 	H 	0.677	0.2871	0.052	0.013
Mof_H 	H 	0.7446	0.2528	0.0528	-0.011
Mof_H 	H 	0.7221	0.2434	0.0972	0.005
Mof_H 	H 	0.7583	0.2788	0.0942	0.024
Mof_C 	C 	0.3428	0.1643	0.8661	-0.013
Mof_H 	H 	0.3222	0.1677	0.8878	0.019
Mof_N 	N 	0.7701	0.9645	0.3862	-0.181
Mof_N 	N 	0.8087	0.8593	0.3805	-0.173
Mof_C 	C 	0.8058	0.9776	0.3677	-0.013
Mof_H 	H 	0.8274	0.9599	0.3565	0.02
Mof_H 	H 	0.6897	0.9744	0.3727	0.06
Mof_H 	H 	0.6916	0.9746	0.4499	0.027
Mof_C 	C 	0.8489	0.8807	0.3885	-0.016
Mof_H 	H 	0.8531	0.9102	0.3928	0.022
Mof_H 	H 	0.7621	0.7988	0.3578	0.047
Mof_H 	H 	0.8032	0.7671	0.4352	0.143
Mof_H 	H 	0.7218	0.0255	0.452	0.055
Mof_H 	H 	0.6674	0.0254	0.3974	0.023
Mof_H 	H 	0.823	0.7871	0.448	0.012
Mof_H 	H 	0.7554	0.7528	0.4472	-0.012
Mof_H 	H 	0.7779	0.7434	0.4028	0.005
Mof_H 	H 	0.7417	0.7788	0.4058	0.024
Mof_C 	C 	0.1572	0.6643	0.6339	-0.013
Mof_H 	H 	0.1778	0.6677	0.6122	0.019
Mof_N 	N 	0.2701	0.4645	0.8862	-0.18
Mof_N 	N 	0.3087	0.3593	0.8805	-0.173
Mof_C 	C 	0.3058	0.4776	0.8677	-0.003
Mof_H 	H 	0.3274	0.4599	0.8565	0.017
Mof_H 	H 	0.1897	0.4744	0.8727	0.065
Mof_H 	H 	0.1916	0.4746	0.9499	0.03
Mof_C 	C 	0.3489	0.3807	0.8885	-0.016
Mof_H 	H 	0.3531	0.4102	0.8928	0.022
Mof_H 	H 	0.2621	0.2988	0.8578	0.048
Mof_H 	H 	0.3032	0.2671	0.9352	0.142
Mof_H 	H 	0.2218	0.5255	0.952	0.055
Mof_H 	H 	0.1674	0.5254	0.8974	0.024
Mof_H 	H 	0.323	0.2871	0.948	0.013
Mof_H 	H 	0.2554	0.2528	0.9472	-0.012
Mof_H 	H 	0.2779	0.2434	0.9028	0.005
Mof_H 	H 	0.2417	0.2788	0.9058	0.024
Mof_C 	C 	0.6572	0.1643	0.1339	-0.013
Mof_H 	H 	0.6778	0.1677	0.1122	0.02
Mof_N 	N 	0.7701	0.0355	0.6138	-0.182
Mof_N 	N 	0.8087	0.1407	0.6195	-0.173
Mof_C 	C 	0.8058	0.0224	0.6323	0.008
Mof_H 	H 	0.8274	0.0401	0.6435	0.014
Mof_H 	H 	0.6897	0.0256	0.6273	0.063
Mof_H 	H 	0.6916	0.0254	0.5501	0.03
Mof_C 	C 	0.8489	0.1193	0.6115	-0.016
Mof_H 	H 	0.8531	0.0898	0.6072	0.023
Mof_H 	H 	0.7621	0.2012	0.6422	0.047
Mof_H 	H 	0.8032	0.2329	0.5648	0.143
Mof_H 	H 	0.7218	0.9745	0.548	0.052
Mof_H 	H 	0.6674	0.9746	0.6026	0.02
Mof_H 	H 	0.823	0.2129	0.552	0.012
Mof_H 	H 	0.7554	0.2472	0.5528	-0.012
Mof_H 	H 	0.7779	0.2566	0.5972	0.005
Mof_H 	H 	0.7417	0.2212	0.5942	0.024
Mof_C 	C 	0.1572	0.3357	0.3661	-0.013
Mof_H 	H 	0.1778	0.3323	0.3878	0.019
Mof_N 	N 	0.2701	0.5355	0.1138	-0.18
Mof_N 	N 	0.3087	0.6407	0.1195	-0.173
Mof_C 	C 	0.3058	0.5224	0.1323	-0.003
Mof_H 	H 	0.3274	0.5401	0.1435	0.017
Mof_H 	H 	0.1897	0.5256	0.1273	0.064
Mof_H 	H 	0.1916	0.5254	0.0501	0.032
Mof_C 	C 	0.3489	0.6193	0.1115	-0.016
Mof_H 	H 	0.3531	0.5898	0.1072	0.023
Mof_H 	H 	0.2621	0.7012	0.1422	0.047
Mof_H 	H 	0.3032	0.7329	0.0648	0.144
Mof_H 	H 	0.2218	0.4745	0.048	0.056
Mof_H 	H 	0.1674	0.4746	0.1026	0.024
Mof_H 	H 	0.323	0.7129	0.052	0.013
Mof_H 	H 	0.2554	0.7472	0.0528	-0.011
Mof_H 	H 	0.2779	0.7566	0.0972	0.005
Mof_H 	H 	0.2417	0.7212	0.0942	0.024
Mof_C 	C 	0.6572	0.8357	0.8661	-0.013
Mof_H 	H 	0.6778	0.8323	0.8878	0.019
Mof_N 	N 	0.2299	0.0355	0.3862	-0.182
Mof_N 	N 	0.1913	0.1407	0.3805	-0.173
Mof_C 	C 	0.1942	0.0224	0.3677	0.008
Mof_H 	H 	0.1726	0.0401	0.3565	0.015
Mof_H 	H 	0.3103	0.0256	0.3727	0.063
Mof_H 	H 	0.3084	0.0254	0.4499	0.03
Mof_C 	C 	0.1511	0.1193	0.3885	-0.016
Mof_H 	H 	0.1469	0.0898	0.3928	0.024
Mof_H 	H 	0.2379	0.2012	0.3578	0.047
Mof_H 	H 	0.1968	0.2329	0.4352	0.143
Mof_H 	H 	0.2782	0.9745	0.452	0.052
Mof_H 	H 	0.3326	0.9746	0.3974	0.02
Mof_H 	H 	0.177	0.2129	0.448	0.012
Mof_H 	H 	0.2446	0.2472	0.4472	-0.012
Mof_H 	H 	0.2221	0.2566	0.4028	0.005
Mof_H 	H 	0.2583	0.2212	0.4058	0.024
Mof_C 	C 	0.8428	0.3357	0.6339	-0.013
Mof_H 	H 	0.8222	0.3323	0.6122	0.019
Mof_N 	N 	0.7299	0.5355	0.8862	-0.18
Mof_N 	N 	0.6913	0.6407	0.8805	-0.173
Mof_C 	C 	0.6942	0.5224	0.8677	-0.003
Mof_H 	H 	0.6726	0.5401	0.8565	0.017
Mof_H 	H 	0.8103	0.5256	0.8727	0.065
Mof_H 	H 	0.8084	0.5254	0.9499	0.03
Mof_C 	C 	0.6511	0.6193	0.8885	-0.016
Mof_H 	H 	0.6469	0.5898	0.8928	0.022
Mof_H 	H 	0.7379	0.7012	0.8578	0.048
Mof_H 	H 	0.6968	0.7329	0.9352	0.142
Mof_H 	H 	0.7782	0.4745	0.952	0.055
Mof_H 	H 	0.8326	0.4746	0.8974	0.023
Mof_H 	H 	0.677	0.7129	0.948	0.012
Mof_H 	H 	0.7446	0.7472	0.9472	-0.012
Mof_H 	H 	0.7221	0.7566	0.9028	0.005
Mof_H 	H 	0.7583	0.7212	0.9058	0.024
Mof_C 	C 	0.3428	0.8357	0.1339	-0.013
Mof_H 	H 	0.3222	0.8323	0.1122	0.02
Mof_N 	N 	0.9645	0.3862	0.7701	-0.181
Mof_N 	N 	0.8593	0.3805	0.8087	-0.173
Mof_C 	C 	0.9776	0.3677	0.8058	-0.013
Mof_H 	H 	0.9599	0.3565	0.8274	0.02
Mof_H 	H 	0.9744	0.3727	0.6897	0.06
Mof_H 	H 	0.9746	0.4499	0.6916	0.027
Mof_C 	C 	0.8807	0.3885	0.8489	-0.016
Mof_H 	H 	0.9102	0.3928	0.8531	0.022
Mof_H 	H 	0.7988	0.3578	0.7621	0.047
Mof_H 	H 	0.7671	0.4352	0.8032	0.143
Mof_H 	H 	0.0255	0.452	0.7218	0.055
Mof_H 	H 	0.0254	0.3974	0.6674	0.023
Mof_H 	H 	0.7871	0.448	0.823	0.012
Mof_H 	H 	0.7528	0.4472	0.7554	-0.012
Mof_H 	H 	0.7434	0.4028	0.7779	0.005
Mof_H 	H 	0.7788	0.4058	0.7417	0.024
Mof_C 	C 	0.6643	0.6339	0.1572	-0.013
Mof_H 	H 	0.6677	0.6122	0.1778	0.019
Mof_N 	N 	0.4645	0.8862	0.2701	-0.18
Mof_N 	N 	0.3593	0.8805	0.3087	-0.173
Mof_C 	C 	0.4776	0.8677	0.3058	-0.003
Mof_H 	H 	0.4599	0.8565	0.3274	0.017
Mof_H 	H 	0.4744	0.8727	0.1897	0.065
Mof_H 	H 	0.4746	0.9499	0.1916	0.03
Mof_C 	C 	0.3807	0.8885	0.3489	-0.016
Mof_H 	H 	0.4102	0.8928	0.3531	0.022
Mof_H 	H 	0.2988	0.8578	0.2621	0.048
Mof_H 	H 	0.2671	0.9352	0.3032	0.142
Mof_H 	H 	0.5255	0.952	0.2218	0.055
Mof_H 	H 	0.5254	0.8974	0.1674	0.024
Mof_H 	H 	0.2871	0.948	0.323	0.013
Mof_H 	H 	0.2528	0.9472	0.2554	-0.012
Mof_H 	H 	0.2434	0.9028	0.2779	0.005
Mof_H 	H 	0.2788	0.9058	0.2417	0.024
Mof_C 	C 	0.1643	0.1339	0.6572	-0.013
Mof_H 	H 	0.1677	0.1122	0.6778	0.02
Mof_N 	N 	0.9645	0.6138	0.2299	-0.181
Mof_N 	N 	0.8593	0.6195	0.1913	-0.173
Mof_C 	C 	0.9776	0.6323	0.1942	-0.013
Mof_H 	H 	0.9599	0.6435	0.1726	0.02
Mof_H 	H 	0.9744	0.6273	0.3103	0.06
Mof_H 	H 	0.9746	0.5501	0.3084	0.027
Mof_C 	C 	0.8807	0.6115	0.1511	-0.016
Mof_H 	H 	0.9102	0.6072	0.1469	0.022
Mof_H 	H 	0.7988	0.6422	0.2379	0.047
Mof_H 	H 	0.7671	0.5648	0.1968	0.143
Mof_H 	H 	0.0255	0.548	0.2782	0.055
Mof_H 	H 	0.0254	0.6026	0.3326	0.023
Mof_H 	H 	0.7871	0.552	0.177	0.012
Mof_H 	H 	0.7528	0.5528	0.2446	-0.012
Mof_H 	H 	0.7434	0.5972	0.2221	0.005
Mof_H 	H 	0.7788	0.5942	0.2583	0.024
Mof_C 	C 	0.6643	0.3661	0.8428	-0.013
Mof_H 	H 	0.6677	0.3878	0.8222	0.019
Mof_N 	N 	0.4645	0.1138	0.7299	-0.18
Mof_N 	N 	0.3593	0.1195	0.6913	-0.173
Mof_C 	C 	0.4776	0.1323	0.6942	-0.003
Mof_H 	H 	0.4599	0.1435	0.6726	0.017
Mof_H 	H 	0.4744	0.1273	0.8103	0.064
Mof_H 	H 	0.4746	0.0501	0.8084	0.032
Mof_C 	C 	0.3807	0.1115	0.6511	-0.016
Mof_H 	H 	0.4102	0.1072	0.6469	0.023
Mof_H 	H 	0.2988	0.1422	0.7379	0.047
Mof_H 	H 	0.2671	0.0648	0.6968	0.144
Mof_H 	H 	0.5255	0.048	0.7782	0.057
Mof_H 	H 	0.5254	0.1026	0.8326	0.023
Mof_H 	H 	0.2871	0.052	0.677	0.013
Mof_H 	H 	0.2528	0.0528	0.7446	-0.011
Mof_H 	H 	0.2434	0.0972	0.7221	0.005
Mof_H 	H 	0.2788	0.0942	0.7583	0.024
Mof_C 	C 	0.1643	0.8661	0.3428	-0.013
Mof_H 	H 	0.1677	0.8878	0.3222	0.019
Mof_N 	N 	0.0355	0.3862	0.2299	-0.182
Mof_N 	N 	0.1407	0.3805	0.1913	-0.173
Mof_C 	C 	0.0224	0.3677	0.1942	0.008
Mof_H 	H 	0.0401	0.3565	0.1726	0.015
Mof_H 	H 	0.0256	0.3727	0.3103	0.063
Mof_H 	H 	0.0254	0.4499	0.3084	0.03
Mof_C 	C 	0.1193	0.3885	0.1511	-0.016
Mof_H 	H 	0.0898	0.3928	0.1469	0.024
Mof_H 	H 	0.2012	0.3578	0.2379	0.047
Mof_H 	H 	0.2329	0.4352	0.1968	0.143
Mof_H 	H 	0.9745	0.452	0.2782	0.052
Mof_H 	H 	0.9746	0.3974	0.3326	0.02
Mof_H 	H 	0.2129	0.448	0.177	0.012
Mof_H 	H 	0.2472	0.4472	0.2446	-0.012
Mof_H 	H 	0.2566	0.4028	0.2221	0.005
Mof_H 	H 	0.2212	0.4058	0.2583	0.024
Mof_C 	C 	0.3357	0.6339	0.8428	-0.013
Mof_H 	H 	0.3323	0.6122	0.8222	0.019
Mof_N 	N 	0.5355	0.8862	0.7299	-0.18
Mof_N 	N 	0.6407	0.8805	0.6913	-0.173
Mof_C 	C 	0.5224	0.8677	0.6942	-0.003
Mof_H 	H 	0.5401	0.8565	0.6726	0.017
Mof_H 	H 	0.5256	0.8727	0.8103	0.065
Mof_H 	H 	0.5254	0.9499	0.8084	0.03
Mof_C 	C 	0.6193	0.8885	0.6511	-0.016
Mof_H 	H 	0.5898	0.8928	0.6469	0.022
Mof_H 	H 	0.7012	0.8578	0.7379	0.048
Mof_H 	H 	0.7329	0.9352	0.6968	0.142
Mof_H 	H 	0.4745	0.952	0.7782	0.055
Mof_H 	H 	0.4746	0.8974	0.8326	0.023
Mof_H 	H 	0.7129	0.948	0.677	0.012
Mof_H 	H 	0.7472	0.9472	0.7446	-0.012
Mof_H 	H 	0.7566	0.9028	0.7221	0.005
Mof_H 	H 	0.7212	0.9058	0.7583	0.024
Mof_C 	C 	0.8357	0.1339	0.3428	-0.013
Mof_H 	H 	0.8323	0.1122	0.3222	0.02
Mof_N 	N 	0.0355	0.6138	0.7701	-0.182
Mof_N 	N 	0.1407	0.6195	0.8087	-0.173
Mof_C 	C 	0.0224	0.6323	0.8058	0.008
Mof_H 	H 	0.0401	0.6435	0.8274	0.014
Mof_H 	H 	0.0256	0.6273	0.6897	0.063
Mof_H 	H 	0.0254	0.5501	0.6916	0.03
Mof_C 	C 	0.1193	0.6115	0.8489	-0.016
Mof_H 	H 	0.0898	0.6072	0.8531	0.023
Mof_H 	H 	0.2012	0.6422	0.7621	0.047
Mof_H 	H 	0.2329	0.5648	0.8032	0.143
Mof_H 	H 	0.9745	0.548	0.7218	0.052
Mof_H 	H 	0.9746	0.6026	0.6674	0.02
Mof_H 	H 	0.2129	0.552	0.823	0.012
Mof_H 	H 	0.2472	0.5528	0.7554	-0.012
Mof_H 	H 	0.2566	0.5972	0.7779	0.005
Mof_H 	H 	0.2212	0.5942	0.7417	0.024
Mof_C 	C 	0.3357	0.3661	0.1572	-0.013
Mof_H 	H 	0.3323	0.3878	0.1778	0.019
Mof_N 	N 	0.5355	0.1138	0.2701	-0.18
Mof_N 	N 	0.6407	0.1195	0.3087	-0.173
Mof_C 	C 	0.5224	0.1323	0.3058	-0.003
Mof_H 	H 	0.5401	0.1435	0.3274	0.017
Mof_H 	H 	0.5256	0.1273	0.1897	0.064
Mof_H 	H 	0.5254	0.0501	0.1916	0.032
Mof_C 	C 	0.6193	0.1115	0.3489	-0.016
Mof_H 	H 	0.5898	0.1072	0.3531	0.023
Mof_H 	H 	0.7012	0.1422	0.2621	0.047
Mof_H 	H 	0.7329	0.0648	0.3032	0.144
Mof_H 	H 	0.4745	0.048	0.2218	0.056
Mof_H 	H 	0.4746	0.1026	0.1674	0.024
Mof_H 	H 	0.7129	0.052	0.323	0.013
Mof_H 	H 	0.7472	0.0528	0.2554	-0.011
Mof_H 	H 	0.7566	0.0972	0.2779	0.005
Mof_H 	H 	0.7212	0.0942	0.2417	0.024
Mof_C 	C 	0.8357	0.8661	0.6572	-0.013
Mof_H 	H 	0.8323	0.8878	0.6778	0.019
Mof_Cd	Cd	0.75	0.60389	0.10389	0.335
Mof_Cd	Cd	0.25	0.39611	0.10389	0.335
Mof_Cd	Cd	0.25	0.60389	0.89611	0.334
Mof_Cd	Cd	0.75	0.39611	0.89611	0.334
Mof_Cd	Cd	0.10389	0.75	0.60389	0.335
Mof_Cd	Cd	0.10389	0.25	0.39611	0.335
Mof_Cd	Cd	0.89611	0.25	0.60389	0.334
Mof_Cd	Cd	0.89611	0.75	0.39611	0.334
Mof_Cd	Cd	0.60389	0.10389	0.75	0.335
Mof_Cd	Cd	0.39611	0.10389	0.25	0.335
Mof_Cd	Cd	0.60389	0.89611	0.25	0.334
Mof_Cd	Cd	0.39611	0.89611	0.75	0.334
Mof_Cd	Cd	0.60389	0.75	0.89611	0.334
Mof_Cd	Cd	0.39611	0.25	0.89611	0.334
Mof_Cd	Cd	0.60389	0.25	0.10389	0.335
Mof_Cd	Cd	0.39611	0.75	0.10389	0.335
Mof_Cd	Cd	0.75	0.10389	0.39611	0.335
Mof_Cd	Cd	0.25	0.10389	0.60389	0.335
Mof_Cd	Cd	0.25	0.89611	0.39611	0.334
Mof_Cd	Cd	0.75	0.89611	0.60389	0.334
Mof_Cd	Cd	0.10389	0.60389	0.25	0.335
Mof_Cd	Cd	0.10389	0.39611	0.75	0.335
Mof_Cd	Cd	0.89611	0.60389	0.75	0.334
Mof_Cd	Cd	0.89611	0.39611	0.25	0.334
Mof_Cd	Cd	0.25	0.39611	0.89611	0.334
Mof_Cd	Cd	0.75	0.60389	0.89611	0.334
Mof_Cd	Cd	0.75	0.39611	0.10389	0.335
Mof_Cd	Cd	0.25	0.89611	0.60389	0.334
Mof_Cd	Cd	0.25	0.60389	0.10389	0.335
Mof_Cd	Cd	0.89611	0.25	0.39611	0.334
Mof_Cd	Cd	0.89611	0.75	0.60389	0.334
Mof_Cd	Cd	0.10389	0.75	0.39611	0.335
Mof_Cd	Cd	0.60389	0.25	0.89611	0.334
Mof_Cd	Cd	0.10389	0.25	0.60389	0.335
Mof_Cd	Cd	0.39611	0.89611	0.25	0.334
Mof_Cd	Cd	0.60389	0.89611	0.75	0.334
Mof_Cd	Cd	0.39611	0.10389	0.75	0.335
Mof_Cd	Cd	0.89611	0.60389	0.25	0.334
Mof_Cd	Cd	0.60389	0.10389	0.25	0.335
Mof_Cd	Cd	0.39611	0.25	0.10389	0.335
Mof_Cd	Cd	0.60389	0.75	0.10389	0.335
Mof_Cd	Cd	0.39611	0.75	0.89611	0.334
Mof_Cd	Cd	0.75	0.89611	0.39611	0.334
Mof_Cd	Cd	0.75	0.10389	0.60389	0.335
Mof_Cd	Cd	0.25	0.10389	0.39611	0.335
Mof_Cd	Cd	0.89611	0.39611	0.75	0.334
Mof_Cd	Cd	0.10389	0.39611	0.25	0.335
Mof_Cd	Cd	0.10389	0.60389	0.75	0.335
Mof_C 	C 	0.8196	0.6106	0.1804	0.175
Mof_C 	C 	0.7863	0.6266	0.2137	-0.111
Mof_C 	C 	0.7773	0.5785	0.2227	-0.308
Mof_H 	H 	0.75535	0.576	0.24465	0.106
Mof_C 	C 	0.8001	0.5691	0.1999	-0.127
Mof_C 	C 	0.7655	0.579	0.2345	-0.015
Mof_C 	C 	0.3196	0.1106	0.6804	0.175
Mof_C 	C 	0.2863	0.1266	0.7137	-0.11
Mof_C 	C 	0.2773	0.0785	0.7227	-0.31
Mof_H 	H 	0.25535	0.076	0.74465	0.107
Mof_C 	C 	0.3001	0.0691	0.6999	-0.126
Mof_C 	C 	0.2655	0.079	0.7345	-0.016
Mof_C 	C 	0.1804	0.3894	0.1804	0.175
Mof_C 	C 	0.2137	0.3734	0.2137	-0.111
Mof_C 	C 	0.2227	0.4215	0.2227	-0.308
Mof_H 	H 	0.24465	0.424	0.24465	0.106
Mof_C 	C 	0.1999	0.4309	0.1999	-0.127
Mof_C 	C 	0.2345	0.421	0.2345	-0.015
Mof_C 	C 	0.6804	0.8894	0.6804	0.175
Mof_C 	C 	0.7137	0.8734	0.7137	-0.112
Mof_C 	C 	0.7227	0.9215	0.7227	-0.306
Mof_H 	H 	0.74465	0.924	0.74465	0.105
Mof_C 	C 	0.6999	0.9309	0.6999	-0.127
Mof_C 	C 	0.7345	0.921	0.7345	-0.015
Mof_C 	C 	0.1804	0.6106	0.8196	0.175
Mof_C 	C 	0.2137	0.6266	0.7863	-0.111
Mof_C 	C 	0.2227	0.5785	0.7773	-0.308
Mof_H 	H 	0.24465	0.576	0.75535	0.106
Mof_C 	C 	0.1999	0.5691	0.8001	-0.127
Mof_C 	C 	0.2345	0.579	0.7655	-0.015
Mof_C 	C 	0.6804	0.1106	0.3196	0.175
Mof_C 	C 	0.7137	0.1266	0.2863	-0.11
Mof_C 	C 	0.7227	0.0785	0.2773	-0.31
Mof_H 	H 	0.74465	0.076	0.25535	0.107
Mof_C 	C 	0.6999	0.0691	0.3001	-0.126
Mof_C 	C 	0.7345	0.079	0.2655	-0.016
Mof_C 	C 	0.8196	0.3894	0.8196	0.175
Mof_C 	C 	0.7863	0.3734	0.7863	-0.111
Mof_C 	C 	0.7773	0.4215	0.7773	-0.308
Mof_H 	H 	0.75535	0.424	0.75535	0.106
Mof_C 	C 	0.8001	0.4309	0.8001	-0.127
Mof_C 	C 	0.7655	0.421	0.7655	-0.015
Mof_C 	C 	0.3196	0.8894	0.3196	0.176
Mof_C 	C 	0.2863	0.8734	0.2863	-0.113
Mof_C 	C 	0.2773	0.9215	0.2773	-0.304
Mof_H 	H 	0.25535	0.924	0.25535	0.104
Mof_C 	C 	0.3001	0.9309	0.3001	-0.129
Mof_C 	C 	0.2655	0.921	0.2655	-0.014
Mof_C 	C 	0.1804	0.8196	0.6106	0.175
Mof_C 	C 	0.2137	0.7863	0.6266	-0.111
Mof_C 	C 	0.2227	0.7773	0.5785	-0.308
Mof_H 	H 	0.24465	0.75535	0.576	0.106
Mof_C 	C 	0.1999	0.8001	0.5691	-0.127
Mof_C 	C 	0.2345	0.7655	0.579	-0.015
Mof_C 	C 	0.6804	0.3196	0.1106	0.175
Mof_C 	C 	0.7137	0.2863	0.1266	-0.11
Mof_C 	C 	0.7227	0.2773	0.0785	-0.31
Mof_H 	H 	0.74465	0.25535	0.076	0.107
Mof_C 	C 	0.6999	0.3001	0.0691	-0.126
Mof_C 	C 	0.7345	0.2655	0.079	-0.016
Mof_C 	C 	0.1804	0.1804	0.3894	0.175
Mof_C 	C 	0.2137	0.2137	0.3734	-0.111
Mof_C 	C 	0.2227	0.2227	0.4215	-0.308
Mof_H 	H 	0.24465	0.24465	0.424	0.106
Mof_C 	C 	0.1999	0.1999	0.4309	-0.127
Mof_C 	C 	0.2345	0.2345	0.421	-0.015
Mof_C 	C 	0.6804	0.6804	0.8894	0.175
Mof_C 	C 	0.7137	0.7137	0.8734	-0.112
Mof_C 	C 	0.7227	0.7227	0.9215	-0.306
Mof_H 	H 	0.74465	0.74465	0.924	0.105
Mof_C 	C 	0.6999	0.6999	0.9309	-0.127
Mof_C 	C 	0.7345	0.7345	0.921	-0.015
Mof_C 	C 	0.8196	0.1804	0.6106	0.175
Mof_C 	C 	0.7863	0.2137	0.6266	-0.111
Mof_C 	C 	0.7773	0.2227	0.5785	-0.308
Mof_H 	H 	0.75535	0.24465	0.576	0.106
Mof_C 	C 	0.8001	0.1999	0.5691	-0.127
Mof_C 	C 	0.7655	0.2345	0.579	-0.015
Mof_C 	C 	0.3196	0.6804	0.1106	0.175
Mof_C 	C 	0.2863	0.7137	0.1266	-0.11
Mof_C 	C 	0.2773	0.7227	0.0785	-0.31
Mof_H 	H 	0.25535	0.74465	0.076	0.107
Mof_C 	C 	0.3001	0.6999	0.0691	-0.126
Mof_C 	C 	0.2655	0.7345	0.079	-0.016
Mof_C 	C 	0.8196	0.8196	0.3894	0.175
Mof_C 	C 	0.7863	0.7863	0.3734	-0.111
Mof_C 	C 	0.7773	0.7773	0.4215	-0.308
Mof_H 	H 	0.75535	0.75535	0.424	0.106
Mof_C 	C 	0.8001	0.8001	0.4309	-0.127
Mof_C 	C 	0.7655	0.7655	0.421	-0.015
Mof_C 	C 	0.3196	0.3196	0.8894	0.176
Mof_C 	C 	0.2863	0.2863	0.8734	-0.113
Mof_C 	C 	0.2773	0.2773	0.9215	-0.304
Mof_H 	H 	0.25535	0.25535	0.924	0.104
Mof_C 	C 	0.3001	0.3001	0.9309	-0.129
Mof_C 	C 	0.2655	0.2655	0.921	-0.014
Mof_C 	C 	0.6106	0.1804	0.8196	0.175
Mof_C 	C 	0.6266	0.2137	0.7863	-0.111
Mof_C 	C 	0.5785	0.2227	0.7773	-0.308
Mof_H 	H 	0.576	0.24465	0.75535	0.106
Mof_C 	C 	0.5691	0.1999	0.8001	-0.127
Mof_C 	C 	0.579	0.2345	0.7655	-0.015
Mof_C 	C 	0.1106	0.6804	0.3196	0.175
Mof_C 	C 	0.1266	0.7137	0.2863	-0.11
Mof_C 	C 	0.0785	0.7227	0.2773	-0.31
Mof_H 	H 	0.076	0.74465	0.25535	0.107
Mof_C 	C 	0.0691	0.6999	0.3001	-0.126
Mof_C 	C 	0.079	0.7345	0.2655	-0.016
Mof_C 	C 	0.3894	0.1804	0.1804	0.175
Mof_C 	C 	0.3734	0.2137	0.2137	-0.111
Mof_C 	C 	0.4215	0.2227	0.2227	-0.308
Mof_H 	H 	0.424	0.24465	0.24465	0.106
Mof_C 	C 	0.4309	0.1999	0.1999	-0.127
Mof_C 	C 	0.421	0.2345	0.2345	-0.015
Mof_C 	C 	0.8894	0.6804	0.6804	0.175
Mof_C 	C 	0.8734	0.7137	0.7137	-0.112
Mof_C 	C 	0.9215	0.7227	0.7227	-0.306
Mof_H 	H 	0.924	0.74465	0.74465	0.105
Mof_C 	C 	0.9309	0.6999	0.6999	-0.127
Mof_C 	C 	0.921	0.7345	0.7345	-0.015
Mof_C 	C 	0.6106	0.8196	0.1804	0.175
Mof_C 	C 	0.6266	0.7863	0.2137	-0.111
Mof_C 	C 	0.5785	0.7773	0.2227	-0.308
Mof_H 	H 	0.576	0.75535	0.24465	0.106
Mof_C 	C 	0.5691	0.8001	0.1999	-0.127
Mof_C 	C 	0.579	0.7655	0.2345	-0.015
Mof_C 	C 	0.1106	0.3196	0.6804	0.175
Mof_C 	C 	0.1266	0.2863	0.7137	-0.11
Mof_C 	C 	0.0785	0.2773	0.7227	-0.31
Mof_H 	H 	0.076	0.25535	0.74465	0.107
Mof_C 	C 	0.0691	0.3001	0.6999	-0.126
Mof_C 	C 	0.079	0.2655	0.7345	-0.016
Mof_C 	C 	0.3894	0.8196	0.8196	0.175
Mof_C 	C 	0.3734	0.7863	0.7863	-0.111
Mof_C 	C 	0.4215	0.7773	0.7773	-0.308
Mof_H 	H 	0.424	0.75535	0.75535	0.106
Mof_C 	C 	0.4309	0.8001	0.8001	-0.127
Mof_C 	C 	0.421	0.7655	0.7655	-0.015
Mof_C 	C 	0.8894	0.3196	0.3196	0.176
Mof_C 	C 	0.8734	0.2863	0.2863	-0.113
Mof_C 	C 	0.9215	0.2773	0.2773	-0.304
Mof_H 	H 	0.924	0.25535	0.25535	0.104
Mof_C 	C 	0.9309	0.3001	0.3001	-0.129
Mof_C 	C 	0.921	0.2655	0.2655	-0.014
Mof_C 	C 	0.6106	0.8196	0.8196	0.175
Mof_C 	C 	0.6266	0.7863	0.7863	-0.111
Mof_C 	C 	0.5785	0.7773	0.7773	-0.308
Mof_H 	H 	0.576	0.75535	0.75535	0.106
Mof_C 	C 	0.5691	0.8001	0.8001	-0.127
Mof_C 	C 	0.579	0.7655	0.7655	-0.015
Mof_C 	C 	0.1106	0.3196	0.3196	0.175
Mof_C 	C 	0.1266	0.2863	0.2863	-0.111
Mof_C 	C 	0.0785	0.2773	0.2773	-0.309
Mof_H 	H 	0.076	0.25535	0.25535	0.106
Mof_C 	C 	0.0691	0.3001	0.3001	-0.127
Mof_C 	C 	0.079	0.2655	0.2655	-0.016
Mof_C 	C 	0.3894	0.1804	0.8196	0.175
Mof_C 	C 	0.3734	0.2137	0.7863	-0.111
Mof_C 	C 	0.4215	0.2227	0.7773	-0.308
Mof_H 	H 	0.424	0.24465	0.75535	0.106
Mof_C 	C 	0.4309	0.1999	0.8001	-0.127
Mof_C 	C 	0.421	0.2345	0.7655	-0.015
Mof_C 	C 	0.8894	0.6804	0.3196	0.176
Mof_C 	C 	0.8734	0.7137	0.2863	-0.113
Mof_C 	C 	0.9215	0.7227	0.2773	-0.305
Mof_H 	H 	0.924	0.74465	0.25535	0.105
Mof_C 	C 	0.9309	0.6999	0.3001	-0.128
Mof_C 	C 	0.921	0.7345	0.2655	-0.014
Mof_C 	C 	0.6106	0.1804	0.1804	0.175
Mof_C 	C 	0.6266	0.2137	0.2137	-0.111
Mof_C 	C 	0.5785	0.2227	0.2227	-0.308
Mof_H 	H 	0.576	0.24465	0.24465	0.106
Mof_C 	C 	0.5691	0.1999	0.1999	-0.127
Mof_C 	C 	0.579	0.2345	0.2345	-0.015
Mof_C 	C 	0.1106	0.6804	0.6804	0.174
Mof_C 	C 	0.1266	0.7137	0.7137	-0.11
Mof_C 	C 	0.0785	0.7227	0.7227	-0.311
Mof_H 	H 	0.076	0.74465	0.74465	0.108
Mof_C 	C 	0.0691	0.6999	0.6999	-0.125
Mof_C 	C 	0.079	0.7345	0.7345	-0.017
Mof_C 	C 	0.3894	0.8196	0.1804	0.175
Mof_C 	C 	0.3734	0.7863	0.2137	-0.111
Mof_C 	C 	0.4215	0.7773	0.2227	-0.308
Mof_H 	H 	0.424	0.75535	0.24465	0.106
Mof_C 	C 	0.4309	0.8001	0.1999	-0.127
Mof_C 	C 	0.421	0.7655	0.2345	-0.015
Mof_C 	C 	0.8894	0.3196	0.6804	0.176
Mof_C 	C 	0.8734	0.2863	0.7137	-0.113
Mof_C 	C 	0.9215	0.2773	0.7227	-0.305
Mof_H 	H 	0.924	0.25535	0.74465	0.105
Mof_C 	C 	0.9309	0.3001	0.6999	-0.128
Mof_C 	C 	0.921	0.2655	0.7345	-0.014
Mof_C 	C 	0.8196	0.1804	0.3894	0.175
Mof_C 	C 	0.7863	0.2137	0.3734	-0.111
Mof_C 	C 	0.7773	0.2227	0.4215	-0.308
Mof_H 	H 	0.75535	0.24465	0.424	0.106
Mof_C 	C 	0.8001	0.1999	0.4309	-0.127
Mof_C 	C 	0.7655	0.2345	0.421	-0.015
Mof_C 	C 	0.3196	0.6804	0.8894	0.176
Mof_C 	C 	0.2863	0.7137	0.8734	-0.113
Mof_C 	C 	0.2773	0.7227	0.9215	-0.305
Mof_H 	H 	0.25535	0.74465	0.924	0.105
Mof_C 	C 	0.3001	0.6999	0.9309	-0.128
Mof_C 	C 	0.2655	0.7345	0.921	-0.014
Mof_C 	C 	0.1804	0.1804	0.6106	0.175
Mof_C 	C 	0.2137	0.2137	0.6266	-0.111
Mof_C 	C 	0.2227	0.2227	0.5785	-0.308
Mof_H 	H 	0.24465	0.24465	0.576	0.106
Mof_C 	C 	0.1999	0.1999	0.5691	-0.127
Mof_C 	C 	0.2345	0.2345	0.579	-0.015
Mof_C 	C 	0.6804	0.6804	0.1106	0.174
Mof_C 	C 	0.7137	0.7137	0.1266	-0.11
Mof_C 	C 	0.7227	0.7227	0.0785	-0.311
Mof_H 	H 	0.74465	0.74465	0.076	0.108
Mof_C 	C 	0.6999	0.6999	0.0691	-0.125
Mof_C 	C 	0.7345	0.7345	0.079	-0.017
Mof_C 	C 	0.1804	0.8196	0.3894	0.175
Mof_C 	C 	0.2137	0.7863	0.3734	-0.111
Mof_C 	C 	0.2227	0.7773	0.4215	-0.308
Mof_H 	H 	0.24465	0.75535	0.424	0.106
Mof_C 	C 	0.1999	0.8001	0.4309	-0.127
Mof_C 	C 	0.2345	0.7655	0.421	-0.015
Mof_C 	C 	0.6804	0.3196	0.8894	0.176
Mof_C 	C 	0.7137	0.2863	0.8734	-0.113
Mof_C 	C 	0.7227	0.2773	0.9215	-0.305
Mof_H 	H 	0.74465	0.25535	0.924	0.105
Mof_C 	C 	0.6999	0.3001	0.9309	-0.128
Mof_C 	C 	0.7345	0.2655	0.921	-0.014
Mof_C 	C 	0.8196	0.8196	0.6106	0.175
Mof_C 	C 	0.7863	0.7863	0.6266	-0.111
Mof_C 	C 	0.7773	0.7773	0.5785	-0.308
Mof_H 	H 	0.75535	0.75535	0.576	0.106
Mof_C 	C 	0.8001	0.8001	0.5691	-0.127
Mof_C 	C 	0.7655	0.7655	0.579	-0.015
Mof_C 	C 	0.3196	0.3196	0.1106	0.175
Mof_C 	C 	0.2863	0.2863	0.1266	-0.111
Mof_C 	C 	0.2773	0.2773	0.0785	-0.309
Mof_H 	H 	0.25535	0.25535	0.076	0.106
Mof_C 	C 	0.3001	0.3001	0.0691	-0.127
Mof_C 	C 	0.2655	0.2655	0.079	-0.016
Mof_C 	C 	0.1804	0.6106	0.1804	0.175
Mof_C 	C 	0.2137	0.6266	0.2137	-0.111
Mof_C 	C 	0.2227	0.5785	0.2227	-0.308
Mof_H 	H 	0.24465	0.576	0.24465	0.106
Mof_C 	C 	0.1999	0.5691	0.1999	-0.127
Mof_C 	C 	0.2345	0.579	0.2345	-0.015
Mof_C 	C 	0.6804	0.1106	0.6804	0.174
Mof_C 	C 	0.7137	0.1266	0.7137	-0.11
Mof_C 	C 	0.7227	0.0785	0.7227	-0.311
Mof_H 	H 	0.74465	0.076	0.74465	0.108
Mof_C 	C 	0.6999	0.0691	0.6999	-0.125
Mof_C 	C 	0.7345	0.079	0.7345	-0.017
Mof_C 	C 	0.1804	0.3894	0.8196	0.175
Mof_C 	C 	0.2137	0.3734	0.7863	-0.111
Mof_C 	C 	0.2227	0.4215	0.7773	-0.308
Mof_H 	H 	0.24465	0.424	0.75535	0.106
Mof_C 	C 	0.1999	0.4309	0.8001	-0.127
Mof_C 	C 	0.2345	0.421	0.7655	-0.015
Mof_C 	C 	0.6804	0.8894	0.3196	0.176
Mof_C 	C 	0.7137	0.8734	0.2863	-0.113
Mof_C 	C 	0.7227	0.9215	0.2773	-0.305
Mof_H 	H 	0.74465	0.924	0.25535	0.105
Mof_C 	C 	0.6999	0.9309	0.3001	-0.128
Mof_C 	C 	0.7345	0.921	0.2655	-0.014
Mof_C 	C 	0.8196	0.6106	0.8196	0.175
Mof_C 	C 	0.7863	0.6266	0.7863	-0.111
Mof_C 	C 	0.7773	0.5785	0.7773	-0.308
Mof_H 	H 	0.75535	0.576	0.75535	0.106
Mof_C 	C 	0.8001	0.5691	0.8001	-0.127
Mof_C 	C 	0.7655	0.579	0.7655	-0.015
Mof_C 	C 	0.3196	0.1106	0.3196	0.175
Mof_C 	C 	0.2863	0.1266	0.2863	-0.111
Mof_C 	C 	0.2773	0.0785	0.2773	-0.309
Mof_H 	H 	0.25535	0.076	0.25535	0.106
Mof_C 	C 	0.3001	0.0691	0.3001	-0.127
Mof_C 	C 	0.2655	0.079	0.2655	-0.016
Mof_C 	C 	0.8196	0.3894	0.1804	0.175
Mof_C 	C 	0.7863	0.3734	0.2137	-0.111
Mof_C 	C 	0.7773	0.4215	0.2227	-0.308
Mof_H 	H 	0.75535	0.424	0.24465	0.106
Mof_C 	C 	0.8001	0.4309	0.1999	-0.127
Mof_C 	C 	0.7655	0.421	0.2345	-0.015
Mof_C 	C 	0.3196	0.8894	0.6804	0.176
Mof_C 	C 	0.2863	0.8734	0.7137	-0.113
Mof_C 	C 	0.2773	0.9215	0.7227	-0.305
Mof_H 	H 	0.25535	0.924	0.74465	0.105
Mof_C 	C 	0.3001	0.9309	0.6999	-0.128
Mof_C 	C 	0.2655	0.921	0.7345	-0.014
Mof_C 	C 	0.7486	0.6049	-0	0.185
Mof_C 	C 	0.699	0.6116	-0	-0.177
Mof_C 	C 	0.6815	0.565	-0	-0.025
Mof_H 	H 	0.6504	0.5656	-0	0.005
Mof_C 	C 	0.7173	0.5657	-0	-0.165
Mof_C 	C 	0.6713	0.585	-0	-0.004
Mof_H 	H 	0.6504	0.562	-0	0.007
Mof_C 	C 	0.2486	0.1049	0.5	0.183
Mof_C 	C 	0.199	0.1116	0.5	-0.183
Mof_C 	C 	0.1815	0.065	0.5	-0.028
Mof_H 	H 	0.1504	0.0656	0.5	0.005
Mof_C 	C 	0.2173	0.0657	0.5	-0.172
Mof_C 	C 	0.1713	0.085	0.5	-0.006
Mof_H 	H 	0.1504	0.062	0.5	0.007
Mof_C 	C 	0.2514	0.3951	-0	0.185
Mof_C 	C 	0.301	0.3884	-0	-0.177
Mof_C 	C 	0.3185	0.435	-0	-0.025
Mof_H 	H 	0.3496	0.4344	-0	0.005
Mof_C 	C 	0.2827	0.4343	-0	-0.165
Mof_C 	C 	0.3287	0.415	-0	-0.004
Mof_H 	H 	0.3496	0.438	-0	0.007
Mof_C 	C 	0.7514	0.8951	0.5	0.183
Mof_C 	C 	0.801	0.8884	0.5	-0.185
Mof_C 	C 	0.8185	0.935	0.5	-0.026
Mof_H 	H 	0.8496	0.9344	0.5	0.003
Mof_C 	C 	0.7827	0.9343	0.5	-0.17
Mof_C 	C 	0.8287	0.915	0.5	-0.005
Mof_H 	H 	0.8496	0.938	0.5	0.006
Mof_C 	C 	0.2514	0.6049	-0	0.185
Mof_C 	C 	0.301	0.6116	-0	-0.177
Mof_C 	C 	0.3185	0.565	-0	-0.025
Mof_H 	H 	0.3496	0.5656	-0	0.005
Mof_C 	C 	0.2827	0.5657	-0	-0.165
Mof_C 	C 	0.3287	0.585	-0	-0.003
Mof_H 	H 	0.3496	0.562	-0	0.007
Mof_C 	C 	0.7514	0.1049	0.5	0.183
Mof_C 	C 	0.801	0.1116	0.5	-0.184
Mof_C 	C 	0.8185	0.065	0.5	-0.027
Mof_H 	H 	0.8496	0.0656	0.5	0.005
Mof_C 	C 	0.7827	0.0657	0.5	-0.172
Mof_C 	C 	0.8287	0.085	0.5	-0.005
Mof_H 	H 	0.8496	0.062	0.5	0.007
Mof_C 	C 	0.7486	0.3951	-0	0.185
Mof_C 	C 	0.699	0.3884	-0	-0.177
Mof_C 	C 	0.6815	0.435	-0	-0.025
Mof_H 	H 	0.6504	0.4344	-0	0.005
Mof_C 	C 	0.7173	0.4343	-0	-0.165
Mof_C 	C 	0.6713	0.415	-0	-0.004
Mof_H 	H 	0.6504	0.438	-0	0.007
Mof_C 	C 	0.2486	0.8951	0.5	0.183
Mof_C 	C 	0.199	0.8884	0.5	-0.185
Mof_C 	C 	0.1815	0.935	0.5	-0.027
Mof_H 	H 	0.1504	0.9344	0.5	0.004
Mof_C 	C 	0.2173	0.9343	0.5	-0.17
Mof_C 	C 	0.1713	0.915	0.5	-0.006
Mof_H 	H 	0.1504	0.938	0.5	0.007
Mof_C 	C 	2.26801e-33	0.7486	0.6049	0.185
Mof_C 	C 	9.14658e-33	0.699	0.6116	-0.177
Mof_C 	C 	-1.84419e-32	0.6815	0.565	-0.025
Mof_H 	H 	8.97411e-33	0.6504	0.5656	0.005
Mof_C 	C 	-4.73241e-33	0.7173	0.5657	-0.165
Mof_C 	C 	-1.15135e-32	0.6713	0.585	-0.004
Mof_H 	H 	-4.74628e-33	0.6504	0.562	0.007
Mof_C 	C 	0.5	0.2486	0.1049	0.183
Mof_C 	C 	0.5	0.199	0.1116	-0.183
Mof_C 	C 	0.5	0.1815	0.065	-0.028
Mof_H 	H 	0.5	0.1504	0.0656	0.005
Mof_C 	C 	0.5	0.2173	0.0657	-0.172
Mof_C 	C 	0.5	0.1713	0.085	-0.006
Mof_H 	H 	0.5	0.1504	0.062	0.007
Mof_C 	C 	-1.94534e-33	0.2514	0.3951	0.185
Mof_C 	C 	-5.39718e-33	0.301	0.3884	-0.177
Mof_C 	C 	-5.22246e-33	0.3185	0.435	-0.025
Mof_H 	H 	-8.65143e-33	0.3496	0.4344	0.005
Mof_C 	C 	-1.79836e-33	0.2827	0.4343	-0.165
Mof_C 	C 	-5.29745e-33	0.3287	0.415	-0.004
Mof_H 	H 	-8.63793e-33	0.3496	0.438	0.007
Mof_C 	C 	0.5	0.7514	0.8951	0.183
Mof_C 	C 	0.5	0.801	0.8884	-0.185
Mof_C 	C 	0.5	0.8185	0.935	-0.026
Mof_H 	H 	0.5	0.8496	0.9344	0.003
Mof_C 	C 	0.5	0.7827	0.9343	-0.17
Mof_C 	C 	0.5	0.8287	0.915	-0.005
Mof_H 	H 	0.5	0.8496	0.938	0.006
Mof_C 	C 	2.26801e-33	0.2514	0.6049	0.185
Mof_C 	C 	-4.56031e-33	0.301	0.6116	-0.177
Mof_C 	C 	-1.15885e-32	0.3185	0.565	-0.025
Mof_H 	H 	-1.15862e-32	0.3496	0.5656	0.005
Mof_C 	C 	-4.73241e-33	0.2827	0.5657	-0.165
Mof_C 	C 	-1.15135e-32	0.3287	0.585	-0.003
Mof_H 	H 	-1.15997e-32	0.3496	0.562	0.007
Mof_C 	C 	0.5	0.7514	0.1049	0.183
Mof_C 	C 	0.5	0.801	0.1116	-0.184
Mof_C 	C 	0.5	0.8185	0.065	-0.027
Mof_H 	H 	0.5	0.8496	0.0656	0.005
Mof_C 	C 	0.5	0.7827	0.0657	-0.172
Mof_C 	C 	0.5	0.8287	0.085	-0.005
Mof_H 	H 	0.5	0.8496	0.062	0.007
Mof_C 	C 	-1.94534e-33	0.7486	0.3951	0.185
Mof_C 	C 	-1.97046e-33	0.699	0.3884	-0.177
Mof_C 	C 	-8.64918e-33	0.6815	0.435	-0.025
Mof_H 	H 	5.05546e-33	0.6504	0.4344	0.005
Mof_C 	C 	1.62836e-33	0.7173	0.4343	-0.165
Mof_C 	C 	-1.87072e-33	0.6713	0.415	-0.004
Mof_H 	H 	-1.78449e-33	0.6504	0.438	0.007
Mof_C 	C 	0.5	0.2486	0.8951	0.183
Mof_C 	C 	0.5	0.199	0.8884	-0.185
Mof_C 	C 	0.5	0.1815	0.935	-0.027
Mof_H 	H 	0.5	0.1504	0.9344	0.004
Mof_C 	C 	0.5	0.2173	0.9343	-0.17
Mof_C 	C 	0.5	0.1713	0.915	-0.006
Mof_H 	H 	0.5	0.1504	0.938	0.007
Mof_C 	C 	0.6049	0	0.7486	0.185
Mof_C 	C 	0.6116	-6.85345e-33	0.699	-0.177
Mof_C 	C 	0.565	-6.85345e-33	0.6815	-0.025
Mof_H 	H 	0.5656	-6.85345e-33	0.6504	0.005
Mof_C 	C 	0.5657	0	0.7173	-0.165
Mof_C 	C 	0.585	-6.85345e-33	0.6713	-0.004
Mof_H 	H 	0.562	-6.85345e-33	0.6504	0.007
Mof_C 	C 	0.1049	0.5	0.2486	0.183
Mof_C 	C 	0.1116	0.5	0.199	-0.183
Mof_C 	C 	0.065	0.5	0.1815	-0.028
Mof_H 	H 	0.0656	0.5	0.1504	0.005
Mof_C 	C 	0.0657	0.5	0.2173	-0.172
Mof_C 	C 	0.085	0.5	0.1713	-0.006
Mof_H 	H 	0.062	0.5	0.1504	0.007
Mof_C 	C 	0.3951	0	0.2514	0.185
Mof_C 	C 	0.3884	-3.42672e-33	0.301	-0.177
Mof_C 	C 	0.435	-3.42672e-33	0.3185	-0.025
Mof_H 	H 	0.4344	-3.42672e-33	0.3496	0.005
Mof_C 	C 	0.4343	-3.42672e-33	0.2827	-0.165
Mof_C 	C 	0.415	0	0.3287	-0.004
Mof_H 	H 	0.438	-3.42672e-33	0.3496	0.007
Mof_C 	C 	0.8951	0.5	0.7514	0.183
Mof_C 	C 	0.8884	0.5	0.801	-0.185
Mof_C 	C 	0.935	0.5	0.8185	-0.026
Mof_H 	H 	0.9344	0.5	0.8496	0.003
Mof_C 	C 	0.9343	0.5	0.7827	-0.17
Mof_C 	C 	0.915	0.5	0.8287	-0.005
Mof_H 	H 	0.938	0.5	0.8496	0.006
Mof_C 	C 	0.6049	0	0.2514	0.185
Mof_C 	C 	0.6116	-3.42672e-33	0.301	-0.177
Mof_C 	C 	0.565	-3.42672e-33	0.3185	-0.025
Mof_H 	H 	0.5656	-3.42672e-33	0.3496	0.005
Mof_C 	C 	0.5657	-3.42672e-33	0.2827	-0.165
Mof_C 	C 	0.585	0	0.3287	-0.003
Mof_H 	H 	0.562	-3.42672e-33	0.3496	0.007
Mof_C 	C 	0.1049	0.5	0.7514	0.183
Mof_C 	C 	0.1116	0.5	0.801	-0.184
Mof_C 	C 	0.065	0.5	0.8185	-0.027
Mof_H 	H 	0.0656	0.5	0.8496	0.005
Mof_C 	C 	0.0657	0.5	0.7827	-0.172
Mof_C 	C 	0.085	0.5	0.8287	-0.005
Mof_H 	H 	0.062	0.5	0.8496	0.007
Mof_C 	C 	0.3951	0	0.7486	0.185
Mof_C 	C 	0.3884	-6.85345e-33	0.699	-0.177
Mof_C 	C 	0.435	-6.85345e-33	0.6815	-0.025
Mof_H 	H 	0.4344	-6.85345e-33	0.6504	0.005
Mof_C 	C 	0.4343	0	0.7173	-0.165
Mof_C 	C 	0.415	-6.85345e-33	0.6713	-0.004
Mof_H 	H 	0.438	-6.85345e-33	0.6504	0.007
Mof_C 	C 	0.8951	0.5	0.2486	0.183
Mof_C 	C 	0.8884	0.5	0.199	-0.185
Mof_C 	C 	0.935	0.5	0.1815	-0.027
Mof_H 	H 	0.9344	0.5	0.1504	0.004
Mof_C 	C 	0.9343	0.5	0.2173	-0.17
Mof_C 	C 	0.915	0.5	0.1713	-0.006
Mof_H 	H 	0.938	0.5	0.1504	0.007
Mof_C 	C 	0.6049	0.7486	-0	0.185
Mof_C 	C 	0.6116	0.699	-0	-0.177
Mof_C 	C 	0.565	0.6815	-0	-0.025
Mof_H 	H 	0.5656	0.6504	-0	0.005
Mof_C 	C 	0.5657	0.7173	-0	-0.165
Mof_C 	C 	0.585	0.6713	-0	-0.004
Mof_H 	H 	0.562	0.6504	-0	0.007
Mof_C 	C 	0.1049	0.2486	0.5	0.183
Mof_C 	C 	0.1116	0.199	0.5	-0.183
Mof_C 	C 	0.065	0.1815	0.5	-0.028
Mof_H 	H 	0.0656	0.1504	0.5	0.005
Mof_C 	C 	0.0657	0.2173	0.5	-0.172
Mof_C 	C 	0.085	0.1713	0.5	-0.006
Mof_H 	H 	0.062	0.1504	0.5	0.007
Mof_C 	C 	0.3951	0.2514	-0	0.185
Mof_C 	C 	0.3884	0.301	-0	-0.177
Mof_C 	C 	0.435	0.3185	-0	-0.025
Mof_H 	H 	0.4344	0.3496	-0	0.005
Mof_C 	C 	0.4343	0.2827	-0	-0.165
Mof_C 	C 	0.415	0.3287	-0	-0.004
Mof_H 	H 	0.438	0.3496	-0	0.007
Mof_C 	C 	0.8951	0.7514	0.5	0.183
Mof_C 	C 	0.8884	0.801	0.5	-0.185
Mof_C 	C 	0.935	0.8185	0.5	-0.026
Mof_H 	H 	0.9344	0.8496	0.5	0.003
Mof_C 	C 	0.9343	0.7827	0.5	-0.17
Mof_C 	C 	0.915	0.8287	0.5	-0.005
Mof_H 	H 	0.938	0.8496	0.5	0.006
Mof_C 	C 	0.6049	0.2514	-0	0.185
Mof_C 	C 	0.6116	0.301	-0	-0.177
Mof_C 	C 	0.565	0.3185	-0	-0.025
Mof_H 	H 	0.5656	0.3496	-0	0.005
Mof_C 	C 	0.5657	0.2827	-0	-0.165
Mof_C 	C 	0.585	0.3287	-0	-0.003
Mof_H 	H 	0.562	0.3496	-0	0.007
Mof_C 	C 	0.1049	0.7514	0.5	0.183
Mof_C 	C 	0.1116	0.801	0.5	-0.184
Mof_C 	C 	0.065	0.8185	0.5	-0.027
Mof_H 	H 	0.0656	0.8496	0.5	0.005
Mof_C 	C 	0.0657	0.7827	0.5	-0.172
Mof_C 	C 	0.085	0.8287	0.5	-0.005
Mof_H 	H 	0.062	0.8496	0.5	0.007
Mof_C 	C 	0.3951	0.7486	-0	0.185
Mof_C 	C 	0.3884	0.699	-0	-0.177
Mof_C 	C 	0.435	0.6815	-0	-0.025
Mof_H 	H 	0.4344	0.6504	-0	0.005
Mof_C 	C 	0.4343	0.7173	-0	-0.165
Mof_C 	C 	0.415	0.6713	-0	-0.004
Mof_H 	H 	0.438	0.6504	-0	0.007
Mof_C 	C 	0.8951	0.2486	0.5	0.183
Mof_C 	C 	0.8884	0.199	0.5	-0.185
Mof_C 	C 	0.935	0.1815	0.5	-0.027
Mof_H 	H 	0.9344	0.1504	0.5	0.004
Mof_C 	C 	0.9343	0.2173	0.5	-0.17
Mof_C 	C 	0.915	0.1713	0.5	-0.006
Mof_H 	H 	0.938	0.1504	0.5	0.007
Mof_C 	C 	0.7486	0	0.3951	0.185
Mof_C 	C 	0.699	0	0.3884	-0.177
Mof_C 	C 	0.6815	0	0.435	-0.025
Mof_H 	H 	0.6504	0	0.4344	0.005
Mof_C 	C 	0.7173	0	0.4343	-0.165
Mof_C 	C 	0.6713	-3.42672e-33	0.415	-0.004
Mof_H 	H 	0.6504	-3.42672e-33	0.438	0.007
Mof_C 	C 	0.2486	0.5	0.8951	0.183
Mof_C 	C 	0.199	0.5	0.8884	-0.185
Mof_C 	C 	0.1815	0.5	0.935	-0.027
Mof_H 	H 	0.1504	0.5	0.9344	0.004
Mof_C 	C 	0.2173	0.5	0.9343	-0.17
Mof_C 	C 	0.1713	0.5	0.915	-0.006
Mof_H 	H 	0.1504	0.5	0.938	0.007
Mof_C 	C 	0.2514	0	0.6049	0.185
Mof_C 	C 	0.301	0	0.6116	-0.177
Mof_C 	C 	0.3185	0	0.565	-0.025
Mof_H 	H 	0.3496	0	0.5656	0.005
Mof_C 	C 	0.2827	0	0.5657	-0.165
Mof_C 	C 	0.3287	-6.85345e-33	0.585	-0.003
Mof_H 	H 	0.3496	-6.85345e-33	0.562	0.007
Mof_C 	C 	0.7514	0.5	0.1049	0.183
Mof_C 	C 	0.801	0.5	0.1116	-0.184
Mof_C 	C 	0.8185	0.5	0.065	-0.027
Mof_H 	H 	0.8496	0.5	0.0656	0.005
Mof_C 	C 	0.7827	0.5	0.0657	-0.172
Mof_C 	C 	0.8287	0.5	0.085	-0.005
Mof_H 	H 	0.8496	0.5	0.062	0.007
Mof_C 	C 	0.2514	0	0.3951	0.185
Mof_C 	C 	0.301	0	0.3884	-0.177
Mof_C 	C 	0.3185	0	0.435	-0.025
Mof_H 	H 	0.3496	0	0.4344	0.005
Mof_C 	C 	0.2827	0	0.4343	-0.165
Mof_C 	C 	0.3287	-3.42672e-33	0.415	-0.004
Mof_H 	H 	0.3496	-3.42672e-33	0.438	0.007
Mof_C 	C 	0.7514	0.5	0.8951	0.183
Mof_C 	C 	0.801	0.5	0.8884	-0.185
Mof_C 	C 	0.8185	0.5	0.935	-0.026
Mof_H 	H 	0.8496	0.5	0.9344	0.003
Mof_C 	C 	0.7827	0.5	0.9343	-0.17
Mof_C 	C 	0.8287	0.5	0.915	-0.005
Mof_H 	H 	0.8496	0.5	0.938	0.006
Mof_C 	C 	0.7486	0	0.6049	0.185
Mof_C 	C 	0.699	0	0.6116	-0.177
Mof_C 	C 	0.6815	0	0.565	-0.025
Mof_H 	H 	0.6504	0	0.5656	0.005
Mof_C 	C 	0.7173	0	0.5657	-0.165
Mof_C 	C 	0.6713	-6.85345e-33	0.585	-0.004
Mof_H 	H 	0.6504	-6.85345e-33	0.562	0.007
Mof_C 	C 	0.2486	0.5	0.1049	0.183
Mof_C 	C 	0.199	0.5	0.1116	-0.183
Mof_C 	C 	0.1815	0.5	0.065	-0.028
Mof_H 	H 	0.1504	0.5	0.0656	0.005
Mof_C 	C 	0.2173	0.5	0.0657	-0.172
Mof_C 	C 	0.1713	0.5	0.085	-0.006
Mof_H 	H 	0.1504	0.5	0.062	0.007
Mof_C 	C 	4.36932e-33	0.6049	0.2514	0.185
Mof_C 	C 	-2.29815e-33	0.6116	0.301	-0.177
Mof_C 	C 	-9.08599e-33	0.565	0.3185	-0.025
Mof_H 	H 	-5.54266e-33	0.5656	0.3496	0.005
Mof_C 	C 	-2.36677e-33	0.5657	0.2827	-0.165
Mof_C 	C 	-9.04774e-33	0.585	0.3287	-0.003
Mof_H 	H 	-5.54266e-33	0.562	0.3496	0.007
Mof_C 	C 	0.5	0.1049	0.7514	0.183
Mof_C 	C 	0.5	0.1116	0.801	-0.184
Mof_C 	C 	0.5	0.065	0.8185	-0.027
Mof_H 	H 	0.5	0.0656	0.8496	0.005
Mof_C 	C 	0.5	0.0657	0.7827	-0.172
Mof_C 	C 	0.5	0.085	0.8287	-0.005
Mof_H 	H 	0.5	0.062	0.8496	0.007
Mof_C 	C 	-4.04665e-33	0.3951	0.7486	0.185
Mof_C 	C 	-4.23262e-33	0.3884	0.699	-0.177
Mof_C 	C 	-1.11517e-32	0.435	0.6815	-0.025
Mof_H 	H 	2.43861e-33	0.4344	0.6504	0.005
Mof_C 	C 	2.68944e-33	0.4343	0.7173	-0.165
Mof_C 	C 	-4.33647e-33	0.415	0.6713	-0.004
Mof_H 	H 	-4.41484e-33	0.438	0.6504	0.007
Mof_C 	C 	0.5	0.8951	0.2486	0.183
Mof_C 	C 	0.5	0.8884	0.199	-0.185
Mof_C 	C 	0.5	0.935	0.1815	-0.027
Mof_H 	H 	0.5	0.9344	0.1504	0.004
Mof_C 	C 	0.5	0.9343	0.2173	-0.17
Mof_C 	C 	0.5	0.915	0.1713	-0.006
Mof_H 	H 	0.5	0.938	0.1504	0.007
Mof_C 	C 	2.8068e-33	0.6049	0.7486	0.185
Mof_C 	C 	9.47428e-33	0.6116	0.699	-0.177
Mof_C 	C 	-1.80051e-32	0.565	0.6815	-0.025
Mof_H 	H 	9.29206e-33	0.5656	0.6504	0.005
Mof_C 	C 	-4.164e-33	0.5657	0.7173	-0.165
Mof_C 	C 	-1.11899e-32	0.585	0.6713	-0.004
Mof_H 	H 	-4.41484e-33	0.562	0.6504	0.007
Mof_C 	C 	0.5	0.1049	0.2486	0.183
Mof_C 	C 	0.5	0.1116	0.199	-0.183
Mof_C 	C 	0.5	0.065	0.1815	-0.028
Mof_H 	H 	0.5	0.0656	0.1504	0.005
Mof_C 	C 	0.5	0.0657	0.2173	-0.172
Mof_C 	C 	0.5	0.085	0.1713	-0.006
Mof_H 	H 	0.5	0.062	0.1504	0.007
Mof_C 	C 	9.42599e-34	0.3951	0.2514	0.185
Mof_C 	C 	-5.72488e-33	0.3884	0.301	-0.177
Mof_C 	C 	-5.65926e-33	0.435	0.3185	-0.025
Mof_H 	H 	-8.96938e-33	0.4344	0.3496	0.005
Mof_C 	C 	-2.36677e-33	0.4343	0.2827	-0.165
Mof_C 	C 	-5.62102e-33	0.415	0.3287	-0.004
Mof_H 	H 	-8.96938e-33	0.438	0.3496	0.007
Mof_C 	C 	0.5	0.8951	0.7514	0.183
Mof_C 	C 	0.5	0.8884	0.801	-0.185
Mof_C 	C 	0.5	0.935	0.8185	-0.026
Mof_H 	H 	0.5	0.9344	0.8496	0.003
Mof_C 	C 	0.5	0.9343	0.7827	-0.17
Mof_C 	C 	0.5	0.915	0.8287	-0.005
Mof_H 	H 	0.5	0.938	0.8496	0.006
_end
