# CIF file generated by openbabel 3.1.0, see https://openbabel.org
data_I
_chemical_name_common 'image0'
_cell_length_a 17.726
_cell_length_b 17.726
_cell_length_c 38.491
_cell_angle_alpha 90
_cell_angle_beta 90
_cell_angle_gamma 90
_space_group_name_H-M_alt 'P 1'
_space_group_name_Hall 'P 1'
loop_
    _symmetry_equiv_pos_as_xyz
    x,y,z
loop_
    _atom_site_label
    _atom_site_type_symbol
    _atom_site_fract_x
    _atom_site_fract_y
    _atom_site_fract_z
    _atom_site_occupancy
    C1       C        0.25940    0.65250    0.01200    1.000
    C2       C        0.27590    0.71080    0.03835    1.000
    C3       C        0.40070    0.52990    0.13182    1.000
    C4       C        0.46090    0.54910    0.10622    1.000
    Co1      Co       0.31579    0.56676    0.07005    1.000
    F1       F        0.34760    0.68670    0.13870    1.000
    F2       F        0.29970    0.79680    0.14310    1.000
    F3       F        0.40980    0.78150    0.12710    1.000
    F4       F        0.56070    0.62880    0.00720    1.000
    F5       F        0.45760    0.57170    0.99950    1.000
    F6       F        0.45640    0.67850    0.01840    1.000
    N1       N        0.30090    0.68620    0.06969    1.000
    N2       N        0.43670    0.57250    0.07441    1.000
    O1       O        0.28000    0.58603    0.01933    1.000
    O2       O        0.22490    0.66730    0.98413    1.000
    O3       O        0.33419    0.53620    0.12097    1.000
    O4       O        0.41540    0.50840    0.16203    1.000
    C5       C        0.75940    0.15250    0.51200    1.000
    C6       C        0.77590    0.21080    0.53835    1.000
    C7       C        0.90070    0.02990    0.63182    1.000
    C8       C        0.96090    0.04910    0.60622    1.000
    Co2      Co       0.81579    0.06676    0.57005    1.000
    F7       F        0.84760    0.18670    0.63870    1.000
    F8       F        0.79970    0.29680    0.64310    1.000
    F9       F        0.90980    0.28150    0.62710    1.000
    F10      F        0.06070    0.12880    0.50720    1.000
    F11      F        0.95760    0.07170    0.49950    1.000
    F12      F        0.95640    0.17850    0.51840    1.000
    N3       N        0.80090    0.18620    0.56969    1.000
    N4       N        0.93670    0.07250    0.57441    1.000
    O5       O        0.78000    0.08603    0.51933    1.000
    O6       O        0.72490    0.16730    0.48413    1.000
    O7       O        0.83419    0.03620    0.62097    1.000
    O8       O        0.91540    0.00840    0.66203    1.000
    C9       C        0.24060    0.34750    0.51200    1.000
    C10      C        0.22410    0.28920    0.53835    1.000
    C11      C        0.09930    0.47010    0.63182    1.000
    C12      C        0.03910    0.45090    0.60622    1.000
    Co3      Co       0.18421    0.43324    0.57005    1.000
    F13      F        0.15240    0.31330    0.63870    1.000
    F14      F        0.20030    0.20320    0.64310    1.000
    F15      F        0.09020    0.21850    0.62710    1.000
    F16      F        0.93930    0.37120    0.50720    1.000
    F17      F        0.04240    0.42830    0.49950    1.000
    F18      F        0.04360    0.32150    0.51840    1.000
    N5       N        0.19910    0.31380    0.56969    1.000
    N6       N        0.06330    0.42750    0.57441    1.000
    O9       O        0.22000    0.41397    0.51933    1.000
    O10      O        0.27510    0.33270    0.48413    1.000
    O11      O        0.16581    0.46380    0.62097    1.000
    O12      O        0.08460    0.49160    0.66203    1.000
    C13      C        0.74060    0.84750    0.01200    1.000
    C14      C        0.72410    0.78920    0.03835    1.000
    C15      C        0.59930    0.97010    0.13182    1.000
    C16      C        0.53910    0.95090    0.10622    1.000
    Co4      Co       0.68421    0.93324    0.07005    1.000
    F19      F        0.65240    0.81330    0.13870    1.000
    F20      F        0.70030    0.70320    0.14310    1.000
    F21      F        0.59020    0.71850    0.12710    1.000
    F22      F        0.43930    0.87120    0.00720    1.000
    F23      F        0.54240    0.92830    0.99950    1.000
    F24      F        0.54360    0.82150    0.01840    1.000
    N7       N        0.69910    0.81380    0.06969    1.000
    N8       N        0.56330    0.92750    0.07441    1.000
    O13      O        0.72000    0.91397    0.01933    1.000
    O14      O        0.77510    0.83270    0.98413    1.000
    O15      O        0.66581    0.96380    0.12097    1.000
    O16      O        0.58460    0.99160    0.16203    1.000
    C17      C        0.59750    0.00940    0.26200    1.000
    C18      C        0.53920    0.02590    0.28835    1.000
    C19      C        0.72010    0.15070    0.38182    1.000
    C20      C        0.70090    0.21090    0.35622    1.000
    Co5      Co       0.68324    0.06579    0.32005    1.000
    F25      F        0.56330    0.09760    0.38870    1.000
    F26      F        0.45320    0.04970    0.39310    1.000
    F27      F        0.46850    0.15980    0.37710    1.000
    F28      F        0.62120    0.31070    0.25720    1.000
    F29      F        0.67830    0.20760    0.24950    1.000
    F30      F        0.57150    0.20640    0.26840    1.000
    N9       N        0.56380    0.05090    0.31969    1.000
    N10      N        0.67750    0.18670    0.32441    1.000
    O17      O        0.66397    0.03000    0.26933    1.000
    O18      O        0.58270    0.97490    0.23413    1.000
    O19      O        0.71380    0.08419    0.37097    1.000
    O20      O        0.74160    0.16540    0.41203    1.000
    C21      C        0.09750    0.50940    0.76200    1.000
    C22      C        0.03920    0.52590    0.78835    1.000
    C23      C        0.22010    0.65070    0.88182    1.000
    C24      C        0.20090    0.71090    0.85622    1.000
    Co6      Co       0.18324    0.56579    0.82005    1.000
    F31      F        0.06330    0.59760    0.88870    1.000
    F32      F        0.95320    0.54970    0.89310    1.000
    F33      F        0.96850    0.65980    0.87710    1.000
    F34      F        0.12120    0.81070    0.75720    1.000
    F35      F        0.17830    0.70760    0.74950    1.000
    F36      F        0.07150    0.70640    0.76840    1.000
    N11      N        0.06380    0.55090    0.81969    1.000
    N12      N        0.17750    0.68670    0.82441    1.000
    O21      O        0.16397    0.53000    0.76933    1.000
    O22      O        0.08270    0.47490    0.73413    1.000
    O23      O        0.21380    0.58419    0.87097    1.000
    O24      O        0.24160    0.66540    0.91203    1.000
    C25      C        0.90250    0.99060    0.76200    1.000
    C26      C        0.96080    0.97410    0.78835    1.000
    C27      C        0.77990    0.84930    0.88182    1.000
    C28      C        0.79910    0.78910    0.85622    1.000
    Co7      Co       0.81676    0.93421    0.82005    1.000
    F37      F        0.93670    0.90240    0.88870    1.000
    F38      F        0.04680    0.95030    0.89310    1.000
    F39      F        0.03150    0.84020    0.87710    1.000
    F40      F        0.87880    0.68930    0.75720    1.000
    F41      F        0.82170    0.79240    0.74950    1.000
    F42      F        0.92850    0.79360    0.76840    1.000
    N13      N        0.93620    0.94910    0.81969    1.000
    N14      N        0.82250    0.81330    0.82441    1.000
    O25      O        0.83603    0.97000    0.76933    1.000
    O26      O        0.91730    0.02510    0.73413    1.000
    O27      O        0.78620    0.91581    0.87097    1.000
    O28      O        0.75840    0.83460    0.91203    1.000
    C29      C        0.40250    0.49060    0.26200    1.000
    C30      C        0.46080    0.47410    0.28835    1.000
    C31      C        0.27990    0.34930    0.38182    1.000
    C32      C        0.29910    0.28910    0.35622    1.000
    Co8      Co       0.31676    0.43421    0.32005    1.000
    F43      F        0.43670    0.40240    0.38870    1.000
    F44      F        0.54680    0.45030    0.39310    1.000
    F45      F        0.53150    0.34020    0.37710    1.000
    F46      F        0.37880    0.18930    0.25720    1.000
    F47      F        0.32170    0.29240    0.24950    1.000
    F48      F        0.42850    0.29360    0.26840    1.000
    N15      N        0.43620    0.44910    0.31969    1.000
    N16      N        0.32250    0.31330    0.32441    1.000
    O29      O        0.33603    0.47000    0.26933    1.000
    O30      O        0.41730    0.52510    0.23413    1.000
    O31      O        0.28620    0.41581    0.37097    1.000
    O32      O        0.25840    0.33460    0.41203    1.000
    C33      C        0.75940    0.34750    0.51200    1.000
    C34      C        0.77590    0.28920    0.53835    1.000
    C35      C        0.90070    0.47010    0.63182    1.000
    C36      C        0.96090    0.45090    0.60622    1.000
    Co9      Co       0.81579    0.43324    0.57005    1.000
    F49      F        0.84760    0.31330    0.63870    1.000
    F50      F        0.79970    0.20320    0.64310    1.000
    F51      F        0.90980    0.21850    0.62710    1.000
    F52      F        0.06070    0.37120    0.50720    1.000
    F53      F        0.95760    0.42830    0.49950    1.000
    F54      F        0.95640    0.32150    0.51840    1.000
    N17      N        0.80090    0.31380    0.56969    1.000
    N18      N        0.93670    0.42750    0.57441    1.000
    O33      O        0.78000    0.41397    0.51933    1.000
    O34      O        0.72490    0.33270    0.48413    1.000
    O35      O        0.83419    0.46380    0.62097    1.000
    O36      O        0.91540    0.49160    0.66203    1.000
    C37      C        0.25940    0.84750    0.01200    1.000
    C38      C        0.27590    0.78920    0.03835    1.000
    C39      C        0.40070    0.97010    0.13182    1.000
    C40      C        0.46090    0.95090    0.10622    1.000
    Co10     Co       0.31579    0.93324    0.07005    1.000
    F55      F        0.34760    0.81330    0.13870    1.000
    F56      F        0.29970    0.70320    0.14310    1.000
    F57      F        0.40980    0.71850    0.12710    1.000
    F58      F        0.56070    0.87120    0.00720    1.000
    F59      F        0.45760    0.92830    0.99950    1.000
    F60      F        0.45640    0.82150    0.01840    1.000
    N19      N        0.30090    0.81380    0.06969    1.000
    N20      N        0.43670    0.92750    0.07441    1.000
    O37      O        0.28000    0.91397    0.01933    1.000
    O38      O        0.22490    0.83270    0.98413    1.000
    O39      O        0.33419    0.96380    0.12097    1.000
    O40      O        0.41540    0.99160    0.16203    1.000
    C41      C        0.74060    0.65250    0.01200    1.000
    C42      C        0.72410    0.71080    0.03835    1.000
    C43      C        0.59930    0.52990    0.13182    1.000
    C44      C        0.53910    0.54910    0.10622    1.000
    Co11     Co       0.68421    0.56676    0.07005    1.000
    F61      F        0.65240    0.68670    0.13870    1.000
    F62      F        0.70030    0.79680    0.14310    1.000
    F63      F        0.59020    0.78150    0.12710    1.000
    F64      F        0.43930    0.62880    0.00720    1.000
    F65      F        0.54240    0.57170    0.99950    1.000
    F66      F        0.54360    0.67850    0.01840    1.000
    N21      N        0.69910    0.68620    0.06969    1.000
    N22      N        0.56330    0.57250    0.07441    1.000
    O41      O        0.72000    0.58603    0.01933    1.000
    O42      O        0.77510    0.66730    0.98413    1.000
    O43      O        0.66581    0.53620    0.12097    1.000
    O44      O        0.58460    0.50840    0.16203    1.000
    C45      C        0.24060    0.15250    0.51200    1.000
    C46      C        0.22410    0.21080    0.53835    1.000
    C47      C        0.09930    0.02990    0.63182    1.000
    C48      C        0.03910    0.04910    0.60622    1.000
    Co12     Co       0.18421    0.06676    0.57005    1.000
    F67      F        0.15240    0.18670    0.63870    1.000
    F68      F        0.20030    0.29680    0.64310    1.000
    F69      F        0.09020    0.28150    0.62710    1.000
    F70      F        0.93930    0.12880    0.50720    1.000
    F71      F        0.04240    0.07170    0.49950    1.000
    F72      F        0.04360    0.17850    0.51840    1.000
    N23      N        0.19910    0.18620    0.56969    1.000
    N24      N        0.06330    0.07250    0.57441    1.000
    O45      O        0.22000    0.08603    0.51933    1.000
    O46      O        0.27510    0.16730    0.48413    1.000
    O47      O        0.16581    0.03620    0.62097    1.000
    O48      O        0.08460    0.00840    0.66203    1.000
    C49      C        0.09750    0.99060    0.76200    1.000
    C50      C        0.03920    0.97410    0.78835    1.000
    C51      C        0.22010    0.84930    0.88182    1.000
    C52      C        0.20090    0.78910    0.85622    1.000
    Co13     Co       0.18324    0.93421    0.82005    1.000
    F73      F        0.06330    0.90240    0.88870    1.000
    F74      F        0.95320    0.95030    0.89310    1.000
    F75      F        0.96850    0.84020    0.87710    1.000
    F76      F        0.12120    0.68930    0.75720    1.000
    F77      F        0.17830    0.79240    0.74950    1.000
    F78      F        0.07150    0.79360    0.76840    1.000
    N25      N        0.06380    0.94910    0.81969    1.000
    N26      N        0.17750    0.81330    0.82441    1.000
    O49      O        0.16397    0.97000    0.76933    1.000
    O50      O        0.08270    0.02510    0.73413    1.000
    O51      O        0.21380    0.91581    0.87097    1.000
    O52      O        0.24160    0.83460    0.91203    1.000
    C53      C        0.59750    0.49060    0.26200    1.000
    C54      C        0.53920    0.47410    0.28835    1.000
    C55      C        0.72010    0.34930    0.38182    1.000
    C56      C        0.70090    0.28910    0.35622    1.000
    Co14     Co       0.68324    0.43421    0.32005    1.000
    F79      F        0.56330    0.40240    0.38870    1.000
    F80      F        0.45320    0.45030    0.39310    1.000
    F81      F        0.46850    0.34020    0.37710    1.000
    F82      F        0.62120    0.18930    0.25720    1.000
    F83      F        0.67830    0.29240    0.24950    1.000
    F84      F        0.57150    0.29360    0.26840    1.000
    N27      N        0.56380    0.44910    0.31969    1.000
    N28      N        0.67750    0.31330    0.32441    1.000
    O53      O        0.66397    0.47000    0.26933    1.000
    O54      O        0.58270    0.52510    0.23413    1.000
    O55      O        0.71380    0.41581    0.37097    1.000
    O56      O        0.74160    0.33460    0.41203    1.000
    C57      C        0.40250    0.00940    0.26200    1.000
    C58      C        0.46080    0.02590    0.28835    1.000
    C59      C        0.27990    0.15070    0.38182    1.000
    C60      C        0.29910    0.21090    0.35622    1.000
    Co15     Co       0.31676    0.06579    0.32005    1.000
    F85      F        0.43670    0.09760    0.38870    1.000
    F86      F        0.54680    0.04970    0.39310    1.000
    F87      F        0.53150    0.15980    0.37710    1.000
    F88      F        0.37880    0.31070    0.25720    1.000
    F89      F        0.32170    0.20760    0.24950    1.000
    F90      F        0.42850    0.20640    0.26840    1.000
    N29      N        0.43620    0.05090    0.31969    1.000
    N30      N        0.32250    0.18670    0.32441    1.000
    O57      O        0.33603    0.03000    0.26933    1.000
    O58      O        0.41730    0.97490    0.23413    1.000
    O59      O        0.28620    0.08419    0.37097    1.000
    O60      O        0.25840    0.16540    0.41203    1.000
    C61      C        0.90250    0.50940    0.76200    1.000
    C62      C        0.96080    0.52590    0.78835    1.000
    C63      C        0.77990    0.65070    0.88182    1.000
    C64      C        0.79910    0.71090    0.85622    1.000
    Co16     Co       0.81676    0.56579    0.82005    1.000
    F91      F        0.93670    0.59760    0.88870    1.000
    F92      F        0.04680    0.54970    0.89310    1.000
    F93      F        0.03150    0.65980    0.87710    1.000
    F94      F        0.87880    0.81070    0.75720    1.000
    F95      F        0.82170    0.70760    0.74950    1.000
    F96      F        0.92850    0.70640    0.76840    1.000
    N31      N        0.93620    0.55090    0.81969    1.000
    N32      N        0.82250    0.68670    0.82441    1.000
    O61      O        0.83603    0.53000    0.76933    1.000
    O62      O        0.91730    0.47490    0.73413    1.000
    O63      O        0.78620    0.58419    0.87097    1.000
    O64      O        0.75840    0.66540    0.91203    1.000
    C65      C        0.31460    0.75000    0.08741    1.000
    C66      C        0.34230    0.75000    0.12410    1.000
    C67      C        0.18540    0.25000    0.58741    1.000
    C68      C        0.15770    0.25000    0.62410    1.000
    C69      C        0.50000    0.06460    0.33741    1.000
    C70      C        0.50000    0.09230    0.37410    1.000
    C71      C        0.00000    0.56460    0.83741    1.000
    C72      C        0.00000    0.59230    0.87410    1.000
    C73      C        0.00000    0.93540    0.83741    1.000
    C74      C        0.00000    0.90770    0.87410    1.000
    C75      C        0.50000    0.43540    0.33741    1.000
    C76      C        0.50000    0.40770    0.37410    1.000
    C77      C        0.81460    0.25000    0.58741    1.000
    C78      C        0.84230    0.25000    0.62410    1.000
    C79      C        0.68540    0.75000    0.08741    1.000
    C80      C        0.65770    0.75000    0.12410    1.000
    C81      C        0.50000    0.58590    0.05670    1.000
    C82      C        0.50000    0.61550    0.02040    1.000
    Co17     Co       0.50000    0.51855    0.19757    1.000
    C83      C        0.00000    0.08590    0.55670    1.000
    C84      C        0.00000    0.11550    0.52040    1.000
    Co18     Co       0.00000    0.01855    0.69757    1.000
    C85      C        0.00000    0.41410    0.55670    1.000
    C86      C        0.00000    0.38450    0.52040    1.000
    Co19     Co       0.00000    0.48145    0.69757    1.000
    C87      C        0.50000    0.91410    0.05670    1.000
    C88      C        0.50000    0.88450    0.02040    1.000
    Co20     Co       0.50000    0.98145    0.19757    1.000
    C89      C        0.66410    0.25000    0.30670    1.000
    C90      C        0.63450    0.25000    0.27040    1.000
    Co21     Co       0.73145    0.25000    0.44757    1.000
    C91      C        0.83590    0.75000    0.80670    1.000
    C92      C        0.86550    0.75000    0.77040    1.000
    Co22     Co       0.76855    0.75000    0.94757    1.000
    C93      C        0.16410    0.75000    0.80670    1.000
    C94      C        0.13450    0.75000    0.77040    1.000
    Co23     Co       0.23145    0.75000    0.94757    1.000
    C95      C        0.33590    0.25000    0.30670    1.000
    C96      C        0.36550    0.25000    0.27040    1.000
    Co24     Co       0.26855    0.25000    0.44757    1.000
    C97      C        0.24060    0.65250    0.48800    1.000
    C98      C        0.22410    0.71080    0.46165    1.000
    C99      C        0.09930    0.52990    0.36818    1.000
    C100     C        0.03910    0.54910    0.39378    1.000
    Co25     Co       0.18421    0.56676    0.42995    1.000
    F97      F        0.15240    0.68670    0.36130    1.000
    F98      F        0.20030    0.79680    0.35690    1.000
    F99      F        0.09020    0.78150    0.37290    1.000
    F100     F        0.93930    0.62880    0.49280    1.000
    F101     F        0.04240    0.57170    0.50050    1.000
    F102     F        0.04360    0.67850    0.48160    1.000
    N33      N        0.19910    0.68620    0.43031    1.000
    N34      N        0.06330    0.57250    0.42559    1.000
    O65      O        0.22000    0.58603    0.48067    1.000
    O66      O        0.27510    0.66730    0.51587    1.000
    O67      O        0.16581    0.53620    0.37903    1.000
    O68      O        0.08460    0.50840    0.33797    1.000
    C101     C        0.74060    0.15250    0.98800    1.000
    C102     C        0.72410    0.21080    0.96165    1.000
    C103     C        0.59930    0.02990    0.86818    1.000
    C104     C        0.53910    0.04910    0.89378    1.000
    Co26     Co       0.68421    0.06676    0.92995    1.000
    F103     F        0.65240    0.18670    0.86130    1.000
    F104     F        0.70030    0.29680    0.85690    1.000
    F105     F        0.59020    0.28150    0.87290    1.000
    F106     F        0.43930    0.12880    0.99280    1.000
    F107     F        0.54240    0.07170    0.00050    1.000
    F108     F        0.54360    0.17850    0.98160    1.000
    N35      N        0.69910    0.18620    0.93031    1.000
    N36      N        0.56330    0.07250    0.92559    1.000
    O69      O        0.72000    0.08603    0.98067    1.000
    O70      O        0.77510    0.16730    0.01587    1.000
    O71      O        0.66581    0.03620    0.87903    1.000
    O72      O        0.58460    0.00840    0.83797    1.000
    C105     C        0.25940    0.34750    0.98800    1.000
    C106     C        0.27590    0.28920    0.96165    1.000
    C107     C        0.40070    0.47010    0.86818    1.000
    C108     C        0.46090    0.45090    0.89378    1.000
    Co27     Co       0.31579    0.43324    0.92995    1.000
    F109     F        0.34760    0.31330    0.86130    1.000
    F110     F        0.29970    0.20320    0.85690    1.000
    F111     F        0.40980    0.21850    0.87290    1.000
    F112     F        0.56070    0.37120    0.99280    1.000
    F113     F        0.45760    0.42830    0.00050    1.000
    F114     F        0.45640    0.32150    0.98160    1.000
    N37      N        0.30090    0.31380    0.93031    1.000
    N38      N        0.43670    0.42750    0.92559    1.000
    O73      O        0.28000    0.41397    0.98067    1.000
    O74      O        0.22490    0.33270    0.01587    1.000
    O75      O        0.33419    0.46380    0.87903    1.000
    O76      O        0.41540    0.49160    0.83797    1.000
    C109     C        0.75940    0.84750    0.48800    1.000
    C110     C        0.77590    0.78920    0.46165    1.000
    C111     C        0.90070    0.97010    0.36818    1.000
    C112     C        0.96090    0.95090    0.39378    1.000
    Co28     Co       0.81579    0.93324    0.42995    1.000
    F115     F        0.84760    0.81330    0.36130    1.000
    F116     F        0.79970    0.70320    0.35690    1.000
    F117     F        0.90980    0.71850    0.37290    1.000
    F118     F        0.06070    0.87120    0.49280    1.000
    F119     F        0.95760    0.92830    0.50050    1.000
    F120     F        0.95640    0.82150    0.48160    1.000
    N39      N        0.80090    0.81380    0.43031    1.000
    N40      N        0.93670    0.92750    0.42559    1.000
    O77      O        0.78000    0.91397    0.48067    1.000
    O78      O        0.72490    0.83270    0.51587    1.000
    O79      O        0.83419    0.96380    0.37903    1.000
    O80      O        0.91540    0.99160    0.33797    1.000
    C113     C        0.90250    0.00940    0.23800    1.000
    C114     C        0.96080    0.02590    0.21165    1.000
    C115     C        0.77990    0.15070    0.11818    1.000
    C116     C        0.79910    0.21090    0.14378    1.000
    Co29     Co       0.81676    0.06579    0.17995    1.000
    F121     F        0.93670    0.09760    0.11130    1.000
    F122     F        0.04680    0.04970    0.10690    1.000
    F123     F        0.03150    0.15980    0.12290    1.000
    F124     F        0.87880    0.31070    0.24280    1.000
    F125     F        0.82170    0.20760    0.25050    1.000
    F126     F        0.92850    0.20640    0.23160    1.000
    N41      N        0.93620    0.05090    0.18031    1.000
    N42      N        0.82250    0.18670    0.17559    1.000
    O81      O        0.83603    0.03000    0.23067    1.000
    O82      O        0.91730    0.97490    0.26587    1.000
    O83      O        0.78620    0.08419    0.12903    1.000
    O84      O        0.75840    0.16540    0.08797    1.000
    C117     C        0.40250    0.50940    0.73800    1.000
    C118     C        0.46080    0.52590    0.71165    1.000
    C119     C        0.27990    0.65070    0.61818    1.000
    C120     C        0.29910    0.71090    0.64378    1.000
    Co30     Co       0.31676    0.56579    0.67995    1.000
    F127     F        0.43670    0.59760    0.61130    1.000
    F128     F        0.54680    0.54970    0.60690    1.000
    F129     F        0.53150    0.65980    0.62290    1.000
    F130     F        0.37880    0.81070    0.74280    1.000
    F131     F        0.32170    0.70760    0.75050    1.000
    F132     F        0.42850    0.70640    0.73160    1.000
    N43      N        0.43620    0.55090    0.68031    1.000
    N44      N        0.32250    0.68670    0.67559    1.000
    O85      O        0.33603    0.53000    0.73067    1.000
    O86      O        0.41730    0.47490    0.76587    1.000
    O87      O        0.28620    0.58419    0.62903    1.000
    O88      O        0.25840    0.66540    0.58797    1.000
    C121     C        0.59750    0.99060    0.73800    1.000
    C122     C        0.53920    0.97410    0.71165    1.000
    C123     C        0.72010    0.84930    0.61818    1.000
    C124     C        0.70090    0.78910    0.64378    1.000
    Co31     Co       0.68324    0.93421    0.67995    1.000
    F133     F        0.56330    0.90240    0.61130    1.000
    F134     F        0.45320    0.95030    0.60690    1.000
    F135     F        0.46850    0.84020    0.62290    1.000
    F136     F        0.62120    0.68930    0.74280    1.000
    F137     F        0.67830    0.79240    0.75050    1.000
    F138     F        0.57150    0.79360    0.73160    1.000
    N45      N        0.56380    0.94910    0.68031    1.000
    N46      N        0.67750    0.81330    0.67559    1.000
    O89      O        0.66397    0.97000    0.73067    1.000
    O90      O        0.58270    0.02510    0.76587    1.000
    O91      O        0.71380    0.91581    0.62903    1.000
    O92      O        0.74160    0.83460    0.58797    1.000
    C125     C        0.09750    0.49060    0.23800    1.000
    C126     C        0.03920    0.47410    0.21165    1.000
    C127     C        0.22010    0.34930    0.11818    1.000
    C128     C        0.20090    0.28910    0.14378    1.000
    Co32     Co       0.18324    0.43421    0.17995    1.000
    F139     F        0.06330    0.40240    0.11130    1.000
    F140     F        0.95320    0.45030    0.10690    1.000
    F141     F        0.96850    0.34020    0.12290    1.000
    F142     F        0.12120    0.18930    0.24280    1.000
    F143     F        0.17830    0.29240    0.25050    1.000
    F144     F        0.07150    0.29360    0.23160    1.000
    N47      N        0.06380    0.44910    0.18031    1.000
    N48      N        0.17750    0.31330    0.17559    1.000
    O93      O        0.16397    0.47000    0.23067    1.000
    O94      O        0.08270    0.52510    0.26587    1.000
    O95      O        0.21380    0.41581    0.12903    1.000
    O96      O        0.24160    0.33460    0.08797    1.000
    C129     C        0.74060    0.34750    0.98800    1.000
    C130     C        0.72410    0.28920    0.96165    1.000
    C131     C        0.59930    0.47010    0.86818    1.000
    C132     C        0.53910    0.45090    0.89378    1.000
    Co33     Co       0.68421    0.43324    0.92995    1.000
    F145     F        0.65240    0.31330    0.86130    1.000
    F146     F        0.70030    0.20320    0.85690    1.000
    F147     F        0.59020    0.21850    0.87290    1.000
    F148     F        0.43930    0.37120    0.99280    1.000
    F149     F        0.54240    0.42830    0.00050    1.000
    F150     F        0.54360    0.32150    0.98160    1.000
    N49      N        0.69910    0.31380    0.93031    1.000
    N50      N        0.56330    0.42750    0.92559    1.000
    O97      O        0.72000    0.41397    0.98067    1.000
    O98      O        0.77510    0.33270    0.01587    1.000
    O99      O        0.66581    0.46380    0.87903    1.000
    O100     O        0.58460    0.49160    0.83797    1.000
    C133     C        0.24060    0.84750    0.48800    1.000
    C134     C        0.22410    0.78920    0.46165    1.000
    C135     C        0.09930    0.97010    0.36818    1.000
    C136     C        0.03910    0.95090    0.39378    1.000
    Co34     Co       0.18421    0.93324    0.42995    1.000
    F151     F        0.15240    0.81330    0.36130    1.000
    F152     F        0.20030    0.70320    0.35690    1.000
    F153     F        0.09020    0.71850    0.37290    1.000
    F154     F        0.93930    0.87120    0.49280    1.000
    F155     F        0.04240    0.92830    0.50050    1.000
    F156     F        0.04360    0.82150    0.48160    1.000
    N51      N        0.19910    0.81380    0.43031    1.000
    N52      N        0.06330    0.92750    0.42559    1.000
    O101     O        0.22000    0.91397    0.48067    1.000
    O102     O        0.27510    0.83270    0.51587    1.000
    O103     O        0.16581    0.96380    0.37903    1.000
    O104     O        0.08460    0.99160    0.33797    1.000
    C137     C        0.75940    0.65250    0.48800    1.000
    C138     C        0.77590    0.71080    0.46165    1.000
    C139     C        0.90070    0.52990    0.36818    1.000
    C140     C        0.96090    0.54910    0.39378    1.000
    Co35     Co       0.81579    0.56676    0.42995    1.000
    F157     F        0.84760    0.68670    0.36130    1.000
    F158     F        0.79970    0.79680    0.35690    1.000
    F159     F        0.90980    0.78150    0.37290    1.000
    F160     F        0.06070    0.62880    0.49280    1.000
    F161     F        0.95760    0.57170    0.50050    1.000
    F162     F        0.95640    0.67850    0.48160    1.000
    N53      N        0.80090    0.68620    0.43031    1.000
    N54      N        0.93670    0.57250    0.42559    1.000
    O105     O        0.78000    0.58603    0.48067    1.000
    O106     O        0.72490    0.66730    0.51587    1.000
    O107     O        0.83419    0.53620    0.37903    1.000
    O108     O        0.91540    0.50840    0.33797    1.000
    C141     C        0.25940    0.15250    0.98800    1.000
    C142     C        0.27590    0.21080    0.96165    1.000
    C143     C        0.40070    0.02990    0.86818    1.000
    C144     C        0.46090    0.04910    0.89378    1.000
    Co36     Co       0.31579    0.06676    0.92995    1.000
    F163     F        0.34760    0.18670    0.86130    1.000
    F164     F        0.29970    0.29680    0.85690    1.000
    F165     F        0.40980    0.28150    0.87290    1.000
    F166     F        0.56070    0.12880    0.99280    1.000
    F167     F        0.45760    0.07170    0.00050    1.000
    F168     F        0.45640    0.17850    0.98160    1.000
    N55      N        0.30090    0.18620    0.93031    1.000
    N56      N        0.43670    0.07250    0.92559    1.000
    O109     O        0.28000    0.08603    0.98067    1.000
    O110     O        0.22490    0.16730    0.01587    1.000
    O111     O        0.33419    0.03620    0.87903    1.000
    O112     O        0.41540    0.00840    0.83797    1.000
    C145     C        0.40250    0.99060    0.73800    1.000
    C146     C        0.46080    0.97410    0.71165    1.000
    C147     C        0.27990    0.84930    0.61818    1.000
    C148     C        0.29910    0.78910    0.64378    1.000
    Co37     Co       0.31676    0.93421    0.67995    1.000
    F169     F        0.43670    0.90240    0.61130    1.000
    F170     F        0.54680    0.95030    0.60690    1.000
    F171     F        0.53150    0.84020    0.62290    1.000
    F172     F        0.37880    0.68930    0.74280    1.000
    F173     F        0.32170    0.79240    0.75050    1.000
    F174     F        0.42850    0.79360    0.73160    1.000
    N57      N        0.43620    0.94910    0.68031    1.000
    N58      N        0.32250    0.81330    0.67559    1.000
    O113     O        0.33603    0.97000    0.73067    1.000
    O114     O        0.41730    0.02510    0.76587    1.000
    O115     O        0.28620    0.91581    0.62903    1.000
    O116     O        0.25840    0.83460    0.58797    1.000
    C149     C        0.90250    0.49060    0.23800    1.000
    C150     C        0.96080    0.47410    0.21165    1.000
    C151     C        0.77990    0.34930    0.11818    1.000
    C152     C        0.79910    0.28910    0.14378    1.000
    Co38     Co       0.81676    0.43421    0.17995    1.000
    F175     F        0.93670    0.40240    0.11130    1.000
    F176     F        0.04680    0.45030    0.10690    1.000
    F177     F        0.03150    0.34020    0.12290    1.000
    F178     F        0.87880    0.18930    0.24280    1.000
    F179     F        0.82170    0.29240    0.25050    1.000
    F180     F        0.92850    0.29360    0.23160    1.000
    N59      N        0.93620    0.44910    0.18031    1.000
    N60      N        0.82250    0.31330    0.17559    1.000
    O117     O        0.83603    0.47000    0.23067    1.000
    O118     O        0.91730    0.52510    0.26587    1.000
    O119     O        0.78620    0.41581    0.12903    1.000
    O120     O        0.75840    0.33460    0.08797    1.000
    C153     C        0.09750    0.00940    0.23800    1.000
    C154     C        0.03920    0.02590    0.21165    1.000
    C155     C        0.22010    0.15070    0.11818    1.000
    C156     C        0.20090    0.21090    0.14378    1.000
    Co39     Co       0.18324    0.06579    0.17995    1.000
    F181     F        0.06330    0.09760    0.11130    1.000
    F182     F        0.95320    0.04970    0.10690    1.000
    F183     F        0.96850    0.15980    0.12290    1.000
    F184     F        0.12120    0.31070    0.24280    1.000
    F185     F        0.17830    0.20760    0.25050    1.000
    F186     F        0.07150    0.20640    0.23160    1.000
    N61      N        0.06380    0.05090    0.18031    1.000
    N62      N        0.17750    0.18670    0.17559    1.000
    O121     O        0.16397    0.03000    0.23067    1.000
    O122     O        0.08270    0.97490    0.26587    1.000
    O123     O        0.21380    0.08419    0.12903    1.000
    O124     O        0.24160    0.16540    0.08797    1.000
    C157     C        0.59750    0.50940    0.73800    1.000
    C158     C        0.53920    0.52590    0.71165    1.000
    C159     C        0.72010    0.65070    0.61818    1.000
    C160     C        0.70090    0.71090    0.64378    1.000
    Co40     Co       0.68324    0.56579    0.67995    1.000
    F187     F        0.56330    0.59760    0.61130    1.000
    F188     F        0.45320    0.54970    0.60690    1.000
    F189     F        0.46850    0.65980    0.62290    1.000
    F190     F        0.62120    0.81070    0.74280    1.000
    F191     F        0.67830    0.70760    0.75050    1.000
    F192     F        0.57150    0.70640    0.73160    1.000
    N63      N        0.56380    0.55090    0.68031    1.000
    N64      N        0.67750    0.68670    0.67559    1.000
    O125     O        0.66397    0.53000    0.73067    1.000
    O126     O        0.58270    0.47490    0.76587    1.000
    O127     O        0.71380    0.58419    0.62903    1.000
    O128     O        0.74160    0.66540    0.58797    1.000
    C161     C        0.18540    0.75000    0.41259    1.000
    C162     C        0.15770    0.75000    0.37590    1.000
    C163     C        0.31460    0.25000    0.91259    1.000
    C164     C        0.34230    0.25000    0.87590    1.000
    C165     C        0.00000    0.06460    0.16259    1.000
    C166     C        0.00000    0.09230    0.12590    1.000
    C167     C        0.50000    0.56460    0.66259    1.000
    C168     C        0.50000    0.59230    0.62590    1.000
    C169     C        0.50000    0.93540    0.66259    1.000
    C170     C        0.50000    0.90770    0.62590    1.000
    C171     C        0.00000    0.43540    0.16259    1.000
    C172     C        0.00000    0.40770    0.12590    1.000
    C173     C        0.68540    0.25000    0.91259    1.000
    C174     C        0.65770    0.25000    0.87590    1.000
    C175     C        0.81460    0.75000    0.41259    1.000
    C176     C        0.84230    0.75000    0.37590    1.000
    C177     C        0.00000    0.58590    0.44330    1.000
    C178     C        0.00000    0.61550    0.47960    1.000
    Co41     Co       0.00000    0.51855    0.30243    1.000
    C179     C        0.50000    0.08590    0.94330    1.000
    C180     C        0.50000    0.11550    0.97960    1.000
    Co42     Co       0.50000    0.01855    0.80243    1.000
    C181     C        0.50000    0.41410    0.94330    1.000
    C182     C        0.50000    0.38450    0.97960    1.000
    Co43     Co       0.50000    0.48145    0.80243    1.000
    C183     C        0.00000    0.91410    0.44330    1.000
    C184     C        0.00000    0.88450    0.47960    1.000
    Co44     Co       0.00000    0.98145    0.30243    1.000
    C185     C        0.83590    0.25000    0.19330    1.000
    C186     C        0.86550    0.25000    0.22960    1.000
    Co45     Co       0.76855    0.25000    0.05243    1.000
    C187     C        0.66410    0.75000    0.69330    1.000
    C188     C        0.63450    0.75000    0.72960    1.000
    Co46     Co       0.73145    0.75000    0.55243    1.000
    C189     C        0.33590    0.75000    0.69330    1.000
    C190     C        0.36550    0.75000    0.72960    1.000
    Co47     Co       0.26855    0.75000    0.55243    1.000
    C191     C        0.16410    0.25000    0.19330    1.000
    C192     C        0.13450    0.25000    0.22960    1.000
    Co48     Co       0.23145    0.25000    0.05243    1.000
