# CIF file generated by openbabel 3.1.0, see https://openbabel.org
data_I
_chemical_name_common 'image0'
_cell_length_a 38.059
_cell_length_b 14.2182
_cell_length_c 34.848
_cell_angle_alpha 90
_cell_angle_beta 110.753
_cell_angle_gamma 90
_space_group_name_H-M_alt 'P 1'
_space_group_name_Hall 'P 1'
loop_
    _symmetry_equiv_pos_as_xyz
    x,y,z
loop_
    _atom_site_label
    _atom_site_type_symbol
    _atom_site_fract_x
    _atom_site_fract_y
    _atom_site_fract_z
    _atom_site_occupancy
    Zn1      Zn       0.12834    0.37680    0.07065    1.000
    Zn2      Zn       0.89936    0.08698    0.92215    1.000
    Zn3      Zn       0.16638    0.15363    0.27101    1.000
    I1       I        0.18748    0.30740    0.06080    1.000
    I2       I        0.07794    0.28180    0.07721    1.000
    I3       I        0.22507    0.25642    0.29606    1.000
    I4       I        0.12154    0.17351    0.19813    1.000
    I5       I        0.89482    0.06620    0.99422    1.000
    I6       I        0.90829    0.24446    0.89128    1.000
    N1       N        0.10768    0.48350    0.02820    1.000
    C1       C        0.08044    0.54070    0.02860    1.000
    H1       H        0.06950    0.53080    0.04890    1.000
    C2       C        0.06713    0.61280    0.00170    1.000
    H2       H        0.04750    0.65200    0.00340    1.000
    C3       C        0.08248    0.62820    0.97173    1.000
    C4       C        0.10972    0.56680    0.97030    1.000
    H3       H        0.12000    0.57280    0.94920    1.000
    C5       C        0.12225    0.49620    0.99920    1.000
    H4       H        0.14180    0.45560    0.99820    1.000
    C6       C        0.07056    0.70680    0.94255    1.000
    N2       N        0.04147    0.75890    0.94272    1.000
    C7       C        0.03155    0.82760    0.91502    1.000
    N3       N        0.04753    0.84460    0.88737    1.000
    C8       C        0.07686    0.78980    0.89104    1.000
    N4       N        0.08980    0.72070    0.91798    1.000
    C9       C        0.00070    0.89000    0.91595    1.000
    C10      C        0.99285    0.89780    0.95149    1.000
    H5       H        0.00730    0.86410    0.97540    1.000
    C11      C        0.96396    0.95470    0.95210    1.000
    H6       H        0.95920    0.96060    0.97700    1.000
    N5       N        0.94226    0.00250    0.91902    1.000
    C12      C        0.94937    0.99420    0.88480    1.000
    H7       H        0.93390    0.02720    0.86110    1.000
    C13      C        0.97827    0.94000    0.88180    1.000
    H8       H        0.98280    0.93680    0.85680    1.000
    C14      C        0.09757    0.80590    0.86279    1.000
    C15      C        0.13482    0.77980    0.87450    1.000
    H9       H        0.14740    0.75300    0.90080    1.000
    C16      C        0.15364    0.79330    0.84760    1.000
    H10      H        0.17930    0.77520    0.85580    1.000
    N6       N        0.13704    0.83070    0.81042    1.000
    C17      C        0.10105    0.85560    0.79930    1.000
    H11      H        0.08900    0.88140    0.77260    1.000
    C18      C        0.08086    0.84590    0.82430    1.000
    H12      H        0.05550    0.86640    0.81560    1.000
    N7       N        0.15196    0.45070    0.12490    1.000
    C19      C        0.16593    0.40200    0.15998    1.000
    H13      H        0.16330    0.33550    0.15930    1.000
    C20      C        0.18393    0.44550    0.19673    1.000
    H14      H        0.19420    0.40950    0.22110    1.000
    C21      C        0.18697    0.54290    0.19793    1.000
    C22      C        0.17110    0.59230    0.16180    1.000
    H15      H        0.17160    0.65910    0.16160    1.000
    C23      C        0.15490    0.54330    0.12680    1.000
    H16      H        0.14500    0.57760    0.10190    1.000
    C24      C        0.20742    0.59510    0.23631    1.000
    N8       N        0.23667    0.55300    0.26336    1.000
    C25      C        0.25593    0.60760    0.29552    1.000
    N9       N        0.24774    0.69630    0.30131    1.000
    C26      C        0.21657    0.72900    0.27259    1.000
    N10      N        0.19519    0.68180    0.23952    1.000
    C27      C        0.20426    0.82630    0.27676    1.000
    C28      C        0.22658    0.89040    0.30459    1.000
    H17      H        0.25000    0.87090    0.32410    1.000
    C29      C        0.21516    0.98200    0.30428    1.000
    H18      H        0.23130    0.02530    0.32320    1.000
    N11      N        0.18192    0.01250    0.27813    1.000
    C30      C        0.15903    0.94920    0.25290    1.000
    H19      H        0.13480    0.96890    0.23550    1.000
    C31      C        0.16916    0.85720    0.25140    1.000
    H20      H        0.15220    0.81460    0.23290    1.000
    C32      C        0.28899    0.56280    0.32582    1.000
    C33      C        0.31215    0.61060    0.36060    1.000
    H21      H        0.30660    0.67340    0.36580    1.000
    C34      C        0.34303    0.56490    0.38720    1.000
    H22      H        0.35850    0.59740    0.41100    1.000
    N12      N        0.35237    0.47670    0.38099    1.000
    C35      C        0.32975    0.43160    0.34830    1.000
    H23      H        0.33560    0.36840    0.34410    1.000
    C36      C        0.29864    0.47100    0.32040    1.000
    H24      H        0.28360    0.43590    0.29720    1.000
    I7       I        0.17610    0.28760    0.05310    1.000
    I8       I        0.06800    0.30170    0.07650    1.000
    I9       I        0.89660    0.08350    0.98580    1.000
    I10      I        0.90500    0.23760    0.88560    1.000
    Zn4      Zn       0.62834    0.87680    0.07065    1.000
    Zn5      Zn       0.39936    0.58698    0.92215    1.000
    Zn6      Zn       0.66638    0.65363    0.27101    1.000
    I11      I        0.68748    0.80740    0.06080    1.000
    I12      I        0.57794    0.78180    0.07721    1.000
    I13      I        0.72507    0.75642    0.29606    1.000
    I14      I        0.62154    0.67351    0.19813    1.000
    I15      I        0.39482    0.56620    0.99422    1.000
    I16      I        0.40829    0.74446    0.89128    1.000
    N13      N        0.60768    0.98350    0.02820    1.000
    C37      C        0.58044    0.04070    0.02860    1.000
    H25      H        0.56950    0.03080    0.04890    1.000
    C38      C        0.56713    0.11280    0.00170    1.000
    H26      H        0.54750    0.15200    0.00340    1.000
    C39      C        0.58248    0.12820    0.97173    1.000
    C40      C        0.60972    0.06680    0.97030    1.000
    H27      H        0.62000    0.07280    0.94920    1.000
    C41      C        0.62225    0.99620    0.99920    1.000
    H28      H        0.64180    0.95560    0.99820    1.000
    C42      C        0.57056    0.20680    0.94255    1.000
    N14      N        0.54147    0.25890    0.94272    1.000
    C43      C        0.53155    0.32760    0.91502    1.000
    N15      N        0.54753    0.34460    0.88737    1.000
    C44      C        0.57686    0.28980    0.89104    1.000
    N16      N        0.58980    0.22070    0.91798    1.000
    C45      C        0.50070    0.39000    0.91595    1.000
    C46      C        0.49285    0.39780    0.95149    1.000
    H29      H        0.50730    0.36410    0.97540    1.000
    C47      C        0.46396    0.45470    0.95210    1.000
    H30      H        0.45920    0.46060    0.97700    1.000
    N17      N        0.44226    0.50250    0.91902    1.000
    C48      C        0.44937    0.49420    0.88480    1.000
    H31      H        0.43390    0.52720    0.86110    1.000
    C49      C        0.47827    0.44000    0.88180    1.000
    H32      H        0.48280    0.43680    0.85680    1.000
    C50      C        0.59757    0.30590    0.86279    1.000
    C51      C        0.63482    0.27980    0.87450    1.000
    H33      H        0.64740    0.25300    0.90080    1.000
    C52      C        0.65364    0.29330    0.84760    1.000
    H34      H        0.67930    0.27520    0.85580    1.000
    N18      N        0.63704    0.33070    0.81042    1.000
    C53      C        0.60105    0.35560    0.79930    1.000
    H35      H        0.58900    0.38140    0.77260    1.000
    C54      C        0.58086    0.34590    0.82430    1.000
    H36      H        0.55550    0.36640    0.81560    1.000
    N19      N        0.65196    0.95070    0.12490    1.000
    C55      C        0.66593    0.90200    0.15998    1.000
    H37      H        0.66330    0.83550    0.15930    1.000
    C56      C        0.68393    0.94550    0.19673    1.000
    H38      H        0.69420    0.90950    0.22110    1.000
    C57      C        0.68697    0.04290    0.19793    1.000
    C58      C        0.67110    0.09230    0.16180    1.000
    H39      H        0.67160    0.15910    0.16160    1.000
    C59      C        0.65490    0.04330    0.12680    1.000
    H40      H        0.64500    0.07760    0.10190    1.000
    C60      C        0.70742    0.09510    0.23631    1.000
    N20      N        0.73667    0.05300    0.26336    1.000
    C61      C        0.75593    0.10760    0.29552    1.000
    N21      N        0.74774    0.19630    0.30131    1.000
    C62      C        0.71657    0.22900    0.27259    1.000
    N22      N        0.69519    0.18180    0.23952    1.000
    C63      C        0.70426    0.32630    0.27676    1.000
    C64      C        0.72658    0.39040    0.30459    1.000
    H41      H        0.75000    0.37090    0.32410    1.000
    C65      C        0.71516    0.48200    0.30428    1.000
    H42      H        0.73130    0.52530    0.32320    1.000
    N23      N        0.68192    0.51250    0.27813    1.000
    C66      C        0.65903    0.44920    0.25290    1.000
    H43      H        0.63480    0.46890    0.23550    1.000
    C67      C        0.66916    0.35720    0.25140    1.000
    H44      H        0.65220    0.31460    0.23290    1.000
    C68      C        0.78899    0.06280    0.32582    1.000
    C69      C        0.81215    0.11060    0.36060    1.000
    H45      H        0.80660    0.17340    0.36580    1.000
    C70      C        0.84303    0.06490    0.38720    1.000
    H46      H        0.85850    0.09740    0.41100    1.000
    N24      N        0.85237    0.97670    0.38099    1.000
    C71      C        0.82975    0.93160    0.34830    1.000
    H47      H        0.83560    0.86840    0.34410    1.000
    C72      C        0.79864    0.97100    0.32040    1.000
    H48      H        0.78360    0.93590    0.29720    1.000
    I17      I        0.67610    0.78760    0.05310    1.000
    I18      I        0.56800    0.80170    0.07650    1.000
    I19      I        0.39660    0.58350    0.98580    1.000
    I20      I        0.40500    0.73760    0.88560    1.000
    Zn7      Zn       0.12834    0.62320    0.57065    1.000
    Zn8      Zn       0.89936    0.91302    0.42215    1.000
    Zn9      Zn       0.16638    0.84637    0.77101    1.000
    I21      I        0.18748    0.69260    0.56080    1.000
    I22      I        0.07794    0.71820    0.57721    1.000
    I23      I        0.22507    0.74358    0.79606    1.000
    I24      I        0.12154    0.82649    0.69813    1.000
    I25      I        0.89482    0.93380    0.49422    1.000
    I26      I        0.90829    0.75554    0.39128    1.000
    N25      N        0.10768    0.51650    0.52820    1.000
    C73      C        0.08044    0.45930    0.52860    1.000
    H49      H        0.06950    0.46920    0.54890    1.000
    C74      C        0.06713    0.38720    0.50170    1.000
    H50      H        0.04750    0.34800    0.50340    1.000
    C75      C        0.08248    0.37180    0.47173    1.000
    C76      C        0.10972    0.43320    0.47030    1.000
    H51      H        0.12000    0.42720    0.44920    1.000
    C77      C        0.12225    0.50380    0.49920    1.000
    H52      H        0.14180    0.54440    0.49820    1.000
    C78      C        0.07056    0.29320    0.44255    1.000
    N26      N        0.04147    0.24110    0.44272    1.000
    C79      C        0.03155    0.17240    0.41502    1.000
    N27      N        0.04753    0.15540    0.38737    1.000
    C80      C        0.07686    0.21020    0.39104    1.000
    N28      N        0.08980    0.27930    0.41798    1.000
    C81      C        0.00070    0.11000    0.41595    1.000
    C82      C        0.99285    0.10220    0.45149    1.000
    H53      H        0.00730    0.13590    0.47540    1.000
    C83      C        0.96396    0.04530    0.45210    1.000
    H54      H        0.95920    0.03940    0.47700    1.000
    N29      N        0.94226    0.99750    0.41902    1.000
    C84      C        0.94937    0.00580    0.38480    1.000
    H55      H        0.93390    0.97280    0.36110    1.000
    C85      C        0.97827    0.06000    0.38180    1.000
    H56      H        0.98280    0.06320    0.35680    1.000
    C86      C        0.09757    0.19410    0.36279    1.000
    C87      C        0.13482    0.22020    0.37450    1.000
    H57      H        0.14740    0.24700    0.40080    1.000
    C88      C        0.15364    0.20670    0.34760    1.000
    H58      H        0.17930    0.22480    0.35580    1.000
    N30      N        0.13704    0.16930    0.31042    1.000
    C89      C        0.10105    0.14440    0.29930    1.000
    H59      H        0.08900    0.11860    0.27260    1.000
    C90      C        0.08086    0.15410    0.32430    1.000
    H60      H        0.05550    0.13360    0.31560    1.000
    N31      N        0.15196    0.54930    0.62490    1.000
    C91      C        0.16593    0.59800    0.65998    1.000
    H61      H        0.16330    0.66450    0.65930    1.000
    C92      C        0.18393    0.55450    0.69673    1.000
    H62      H        0.19420    0.59050    0.72110    1.000
    C93      C        0.18697    0.45710    0.69793    1.000
    C94      C        0.17110    0.40770    0.66180    1.000
    H63      H        0.17160    0.34090    0.66160    1.000
    C95      C        0.15490    0.45670    0.62680    1.000
    H64      H        0.14500    0.42240    0.60190    1.000
    C96      C        0.20742    0.40490    0.73631    1.000
    N32      N        0.23667    0.44700    0.76336    1.000
    C97      C        0.25593    0.39240    0.79552    1.000
    N33      N        0.24774    0.30370    0.80131    1.000
    C98      C        0.21657    0.27100    0.77259    1.000
    N34      N        0.19519    0.31820    0.73952    1.000
    C99      C        0.20426    0.17370    0.77676    1.000
    C100     C        0.22658    0.10960    0.80459    1.000
    H65      H        0.25000    0.12910    0.82410    1.000
    C101     C        0.21516    0.01800    0.80428    1.000
    H66      H        0.23130    0.97470    0.82320    1.000
    N35      N        0.18192    0.98750    0.77813    1.000
    C102     C        0.15903    0.05080    0.75290    1.000
    H67      H        0.13480    0.03110    0.73550    1.000
    C103     C        0.16916    0.14280    0.75140    1.000
    H68      H        0.15220    0.18540    0.73290    1.000
    C104     C        0.28899    0.43720    0.82582    1.000
    C105     C        0.31215    0.38940    0.86060    1.000
    H69      H        0.30660    0.32660    0.86580    1.000
    C106     C        0.34303    0.43510    0.88720    1.000
    H70      H        0.35850    0.40260    0.91100    1.000
    N36      N        0.35237    0.52330    0.88099    1.000
    C107     C        0.32975    0.56840    0.84830    1.000
    H71      H        0.33560    0.63160    0.84410    1.000
    C108     C        0.29864    0.52900    0.82040    1.000
    H72      H        0.28360    0.56410    0.79720    1.000
    I27      I        0.17610    0.71240    0.55310    1.000
    I28      I        0.06800    0.69830    0.57650    1.000
    I29      I        0.89660    0.91650    0.48580    1.000
    I30      I        0.90500    0.76240    0.38560    1.000
    Zn10     Zn       0.62834    0.12320    0.57065    1.000
    Zn11     Zn       0.39936    0.41302    0.42215    1.000
    Zn12     Zn       0.66638    0.34637    0.77101    1.000
    I31      I        0.68748    0.19260    0.56080    1.000
    I32      I        0.57794    0.21820    0.57721    1.000
    I33      I        0.72507    0.24358    0.79606    1.000
    I34      I        0.62154    0.32649    0.69813    1.000
    I35      I        0.39482    0.43380    0.49422    1.000
    I36      I        0.40829    0.25554    0.39128    1.000
    N37      N        0.60768    0.01650    0.52820    1.000
    C109     C        0.58044    0.95930    0.52860    1.000
    H73      H        0.56950    0.96920    0.54890    1.000
    C110     C        0.56713    0.88720    0.50170    1.000
    H74      H        0.54750    0.84800    0.50340    1.000
    C111     C        0.58248    0.87180    0.47173    1.000
    C112     C        0.60972    0.93320    0.47030    1.000
    H75      H        0.62000    0.92720    0.44920    1.000
    C113     C        0.62225    0.00380    0.49920    1.000
    H76      H        0.64180    0.04440    0.49820    1.000
    C114     C        0.57056    0.79320    0.44255    1.000
    N38      N        0.54147    0.74110    0.44272    1.000
    C115     C        0.53155    0.67240    0.41502    1.000
    N39      N        0.54753    0.65540    0.38737    1.000
    C116     C        0.57686    0.71020    0.39104    1.000
    N40      N        0.58980    0.77930    0.41798    1.000
    C117     C        0.50070    0.61000    0.41595    1.000
    C118     C        0.49285    0.60220    0.45149    1.000
    H77      H        0.50730    0.63590    0.47540    1.000
    C119     C        0.46396    0.54530    0.45210    1.000
    H78      H        0.45920    0.53940    0.47700    1.000
    N41      N        0.44226    0.49750    0.41902    1.000
    C120     C        0.44937    0.50580    0.38480    1.000
    H79      H        0.43390    0.47280    0.36110    1.000
    C121     C        0.47827    0.56000    0.38180    1.000
    H80      H        0.48280    0.56320    0.35680    1.000
    C122     C        0.59757    0.69410    0.36279    1.000
    C123     C        0.63482    0.72020    0.37450    1.000
    H81      H        0.64740    0.74700    0.40080    1.000
    C124     C        0.65364    0.70670    0.34760    1.000
    H82      H        0.67930    0.72480    0.35580    1.000
    N42      N        0.63704    0.66930    0.31042    1.000
    C125     C        0.60105    0.64440    0.29930    1.000
    H83      H        0.58900    0.61860    0.27260    1.000
    C126     C        0.58086    0.65410    0.32430    1.000
    H84      H        0.55550    0.63360    0.31560    1.000
    N43      N        0.65196    0.04930    0.62490    1.000
    C127     C        0.66593    0.09800    0.65998    1.000
    H85      H        0.66330    0.16450    0.65930    1.000
    C128     C        0.68393    0.05450    0.69673    1.000
    H86      H        0.69420    0.09050    0.72110    1.000
    C129     C        0.68697    0.95710    0.69793    1.000
    C130     C        0.67110    0.90770    0.66180    1.000
    H87      H        0.67160    0.84090    0.66160    1.000
    C131     C        0.65490    0.95670    0.62680    1.000
    H88      H        0.64500    0.92240    0.60190    1.000
    C132     C        0.70742    0.90490    0.73631    1.000
    N44      N        0.73667    0.94700    0.76336    1.000
    C133     C        0.75593    0.89240    0.79552    1.000
    N45      N        0.74774    0.80370    0.80131    1.000
    C134     C        0.71657    0.77100    0.77259    1.000
    N46      N        0.69519    0.81820    0.73952    1.000
    C135     C        0.70426    0.67370    0.77676    1.000
    C136     C        0.72658    0.60960    0.80459    1.000
    H89      H        0.75000    0.62910    0.82410    1.000
    C137     C        0.71516    0.51800    0.80428    1.000
    H90      H        0.73130    0.47470    0.82320    1.000
    N47      N        0.68192    0.48750    0.77813    1.000
    C138     C        0.65903    0.55080    0.75290    1.000
    H91      H        0.63480    0.53110    0.73550    1.000
    C139     C        0.66916    0.64280    0.75140    1.000
    H92      H        0.65220    0.68540    0.73290    1.000
    C140     C        0.78899    0.93720    0.82582    1.000
    C141     C        0.81215    0.88940    0.86060    1.000
    H93      H        0.80660    0.82660    0.86580    1.000
    C142     C        0.84303    0.93510    0.88720    1.000
    H94      H        0.85850    0.90260    0.91100    1.000
    N48      N        0.85237    0.02330    0.88099    1.000
    C143     C        0.82975    0.06840    0.84830    1.000
    H95      H        0.83560    0.13160    0.84410    1.000
    C144     C        0.79864    0.02900    0.82040    1.000
    H96      H        0.78360    0.06410    0.79720    1.000
    I37      I        0.67610    0.21240    0.55310    1.000
    I38      I        0.56800    0.19830    0.57650    1.000
    I39      I        0.39660    0.41650    0.48580    1.000
    I40      I        0.40500    0.26240    0.38560    1.000
    Zn13     Zn       0.87166    0.37680    0.42935    1.000
    Zn14     Zn       0.10064    0.08698    0.57785    1.000
    Zn15     Zn       0.83362    0.15363    0.22899    1.000
    I41      I        0.81252    0.30740    0.43920    1.000
    I42      I        0.92206    0.28180    0.42279    1.000
    I43      I        0.77493    0.25642    0.20394    1.000
    I44      I        0.87846    0.17351    0.30187    1.000
    I45      I        0.10518    0.06620    0.50578    1.000
    I46      I        0.09171    0.24446    0.60872    1.000
    N49      N        0.89232    0.48350    0.47180    1.000
    C145     C        0.91956    0.54070    0.47140    1.000
    H97      H        0.93050    0.53080    0.45110    1.000
    C146     C        0.93287    0.61280    0.49830    1.000
    H98      H        0.95250    0.65200    0.49660    1.000
    C147     C        0.91752    0.62820    0.52827    1.000
    C148     C        0.89028    0.56680    0.52970    1.000
    H99      H        0.88000    0.57280    0.55080    1.000
    C149     C        0.87775    0.49620    0.50080    1.000
    H100     H        0.85820    0.45560    0.50180    1.000
    C150     C        0.92944    0.70680    0.55745    1.000
    N50      N        0.95853    0.75890    0.55728    1.000
    C151     C        0.96845    0.82760    0.58498    1.000
    N51      N        0.95247    0.84460    0.61263    1.000
    C152     C        0.92314    0.78980    0.60896    1.000
    N52      N        0.91020    0.72070    0.58202    1.000
    C153     C        0.99930    0.89000    0.58405    1.000
    C154     C        0.00715    0.89780    0.54851    1.000
    H101     H        0.99270    0.86410    0.52460    1.000
    C155     C        0.03604    0.95470    0.54790    1.000
    H102     H        0.04080    0.96060    0.52300    1.000
    N53      N        0.05774    0.00250    0.58098    1.000
    C156     C        0.05063    0.99420    0.61520    1.000
    H103     H        0.06610    0.02720    0.63890    1.000
    C157     C        0.02173    0.94000    0.61820    1.000
    H104     H        0.01720    0.93680    0.64320    1.000
    C158     C        0.90243    0.80590    0.63721    1.000
    C159     C        0.86518    0.77980    0.62550    1.000
    H105     H        0.85260    0.75300    0.59920    1.000
    C160     C        0.84636    0.79330    0.65240    1.000
    H106     H        0.82070    0.77520    0.64420    1.000
    N54      N        0.86296    0.83070    0.68958    1.000
    C161     C        0.89895    0.85560    0.70070    1.000
    H107     H        0.91100    0.88140    0.72740    1.000
    C162     C        0.91914    0.84590    0.67570    1.000
    H108     H        0.94450    0.86640    0.68440    1.000
    N55      N        0.84804    0.45070    0.37510    1.000
    C163     C        0.83407    0.40200    0.34002    1.000
    H109     H        0.83670    0.33550    0.34070    1.000
    C164     C        0.81607    0.44550    0.30327    1.000
    H110     H        0.80580    0.40950    0.27890    1.000
    C165     C        0.81303    0.54290    0.30207    1.000
    C166     C        0.82890    0.59230    0.33820    1.000
    H111     H        0.82840    0.65910    0.33840    1.000
    C167     C        0.84510    0.54330    0.37320    1.000
    H112     H        0.85500    0.57760    0.39810    1.000
    C168     C        0.79258    0.59510    0.26369    1.000
    N56      N        0.76333    0.55300    0.23664    1.000
    C169     C        0.74407    0.60760    0.20448    1.000
    N57      N        0.75226    0.69630    0.19869    1.000
    C170     C        0.78343    0.72900    0.22741    1.000
    N58      N        0.80481    0.68180    0.26048    1.000
    C171     C        0.79574    0.82630    0.22324    1.000
    C172     C        0.77342    0.89040    0.19541    1.000
    H113     H        0.75000    0.87090    0.17590    1.000
    C173     C        0.78484    0.98200    0.19572    1.000
    H114     H        0.76870    0.02530    0.17680    1.000
    N59      N        0.81808    0.01250    0.22187    1.000
    C174     C        0.84097    0.94920    0.24710    1.000
    H115     H        0.86520    0.96890    0.26450    1.000
    C175     C        0.83084    0.85720    0.24860    1.000
    H116     H        0.84780    0.81460    0.26710    1.000
    C176     C        0.71101    0.56280    0.17418    1.000
    C177     C        0.68785    0.61060    0.13940    1.000
    H117     H        0.69340    0.67340    0.13420    1.000
    C178     C        0.65697    0.56490    0.11280    1.000
    H118     H        0.64150    0.59740    0.08900    1.000
    N60      N        0.64763    0.47670    0.11901    1.000
    C179     C        0.67025    0.43160    0.15170    1.000
    H119     H        0.66440    0.36840    0.15590    1.000
    C180     C        0.70136    0.47100    0.17960    1.000
    H120     H        0.71640    0.43590    0.20280    1.000
    I47      I        0.82390    0.28760    0.44690    1.000
    I48      I        0.93200    0.30170    0.42350    1.000
    I49      I        0.10340    0.08350    0.51420    1.000
    I50      I        0.09500    0.23760    0.61440    1.000
    Zn16     Zn       0.37166    0.87680    0.42935    1.000
    Zn17     Zn       0.60064    0.58698    0.57785    1.000
    Zn18     Zn       0.33362    0.65363    0.22899    1.000
    I51      I        0.31252    0.80740    0.43920    1.000
    I52      I        0.42206    0.78180    0.42279    1.000
    I53      I        0.27493    0.75642    0.20394    1.000
    I54      I        0.37846    0.67351    0.30187    1.000
    I55      I        0.60518    0.56620    0.50578    1.000
    I56      I        0.59171    0.74446    0.60872    1.000
    N61      N        0.39232    0.98350    0.47180    1.000
    C181     C        0.41956    0.04070    0.47140    1.000
    H121     H        0.43050    0.03080    0.45110    1.000
    C182     C        0.43287    0.11280    0.49830    1.000
    H122     H        0.45250    0.15200    0.49660    1.000
    C183     C        0.41752    0.12820    0.52827    1.000
    C184     C        0.39028    0.06680    0.52970    1.000
    H123     H        0.38000    0.07280    0.55080    1.000
    C185     C        0.37775    0.99620    0.50080    1.000
    H124     H        0.35820    0.95560    0.50180    1.000
    C186     C        0.42944    0.20680    0.55745    1.000
    N62      N        0.45853    0.25890    0.55728    1.000
    C187     C        0.46845    0.32760    0.58498    1.000
    N63      N        0.45247    0.34460    0.61263    1.000
    C188     C        0.42314    0.28980    0.60896    1.000
    N64      N        0.41020    0.22070    0.58202    1.000
    C189     C        0.49930    0.39000    0.58405    1.000
    C190     C        0.50715    0.39780    0.54851    1.000
    H125     H        0.49270    0.36410    0.52460    1.000
    C191     C        0.53604    0.45470    0.54790    1.000
    H126     H        0.54080    0.46060    0.52300    1.000
    N65      N        0.55774    0.50250    0.58098    1.000
    C192     C        0.55063    0.49420    0.61520    1.000
    H127     H        0.56610    0.52720    0.63890    1.000
    C193     C        0.52173    0.44000    0.61820    1.000
    H128     H        0.51720    0.43680    0.64320    1.000
    C194     C        0.40243    0.30590    0.63721    1.000
    C195     C        0.36518    0.27980    0.62550    1.000
    H129     H        0.35260    0.25300    0.59920    1.000
    C196     C        0.34636    0.29330    0.65240    1.000
    H130     H        0.32070    0.27520    0.64420    1.000
    N66      N        0.36296    0.33070    0.68958    1.000
    C197     C        0.39895    0.35560    0.70070    1.000
    H131     H        0.41100    0.38140    0.72740    1.000
    C198     C        0.41914    0.34590    0.67570    1.000
    H132     H        0.44450    0.36640    0.68440    1.000
    N67      N        0.34804    0.95070    0.37510    1.000
    C199     C        0.33407    0.90200    0.34002    1.000
    H133     H        0.33670    0.83550    0.34070    1.000
    C200     C        0.31607    0.94550    0.30327    1.000
    H134     H        0.30580    0.90950    0.27890    1.000
    C201     C        0.31303    0.04290    0.30207    1.000
    C202     C        0.32890    0.09230    0.33820    1.000
    H135     H        0.32840    0.15910    0.33840    1.000
    C203     C        0.34510    0.04330    0.37320    1.000
    H136     H        0.35500    0.07760    0.39810    1.000
    C204     C        0.29258    0.09510    0.26369    1.000
    N68      N        0.26333    0.05300    0.23664    1.000
    C205     C        0.24407    0.10760    0.20448    1.000
    N69      N        0.25226    0.19630    0.19869    1.000
    C206     C        0.28343    0.22900    0.22741    1.000
    N70      N        0.30481    0.18180    0.26048    1.000
    C207     C        0.29574    0.32630    0.22324    1.000
    C208     C        0.27342    0.39040    0.19541    1.000
    H137     H        0.25000    0.37090    0.17590    1.000
    C209     C        0.28484    0.48200    0.19572    1.000
    H138     H        0.26870    0.52530    0.17680    1.000
    N71      N        0.31808    0.51250    0.22187    1.000
    C210     C        0.34097    0.44920    0.24710    1.000
    H139     H        0.36520    0.46890    0.26450    1.000
    C211     C        0.33084    0.35720    0.24860    1.000
    H140     H        0.34780    0.31460    0.26710    1.000
    C212     C        0.21101    0.06280    0.17418    1.000
    C213     C        0.18785    0.11060    0.13940    1.000
    H141     H        0.19340    0.17340    0.13420    1.000
    C214     C        0.15697    0.06490    0.11280    1.000
    H142     H        0.14150    0.09740    0.08900    1.000
    N72      N        0.14763    0.97670    0.11901    1.000
    C215     C        0.17025    0.93160    0.15170    1.000
    H143     H        0.16440    0.86840    0.15590    1.000
    C216     C        0.20136    0.97100    0.17960    1.000
    H144     H        0.21640    0.93590    0.20280    1.000
    I57      I        0.32390    0.78760    0.44690    1.000
    I58      I        0.43200    0.80170    0.42350    1.000
    I59      I        0.60340    0.58350    0.51420    1.000
    I60      I        0.59500    0.73760    0.61440    1.000
    Zn19     Zn       0.87166    0.62320    0.92935    1.000
    Zn20     Zn       0.10064    0.91302    0.07785    1.000
    Zn21     Zn       0.83362    0.84637    0.72899    1.000
    I61      I        0.81252    0.69260    0.93920    1.000
    I62      I        0.92206    0.71820    0.92279    1.000
    I63      I        0.77493    0.74358    0.70394    1.000
    I64      I        0.87846    0.82649    0.80187    1.000
    I65      I        0.10518    0.93380    0.00578    1.000
    I66      I        0.09171    0.75554    0.10872    1.000
    N73      N        0.89232    0.51650    0.97180    1.000
    C217     C        0.91956    0.45930    0.97140    1.000
    H145     H        0.93050    0.46920    0.95110    1.000
    C218     C        0.93287    0.38720    0.99830    1.000
    H146     H        0.95250    0.34800    0.99660    1.000
    C219     C        0.91752    0.37180    0.02827    1.000
    C220     C        0.89028    0.43320    0.02970    1.000
    H147     H        0.88000    0.42720    0.05080    1.000
    C221     C        0.87775    0.50380    0.00080    1.000
    H148     H        0.85820    0.54440    0.00180    1.000
    C222     C        0.92944    0.29320    0.05745    1.000
    N74      N        0.95853    0.24110    0.05728    1.000
    C223     C        0.96845    0.17240    0.08498    1.000
    N75      N        0.95247    0.15540    0.11263    1.000
    C224     C        0.92314    0.21020    0.10896    1.000
    N76      N        0.91020    0.27930    0.08202    1.000
    C225     C        0.99930    0.11000    0.08405    1.000
    C226     C        0.00715    0.10220    0.04851    1.000
    H149     H        0.99270    0.13590    0.02460    1.000
    C227     C        0.03604    0.04530    0.04790    1.000
    H150     H        0.04080    0.03940    0.02300    1.000
    N77      N        0.05774    0.99750    0.08098    1.000
    C228     C        0.05063    0.00580    0.11520    1.000
    H151     H        0.06610    0.97280    0.13890    1.000
    C229     C        0.02173    0.06000    0.11820    1.000
    H152     H        0.01720    0.06320    0.14320    1.000
    C230     C        0.90243    0.19410    0.13721    1.000
    C231     C        0.86518    0.22020    0.12550    1.000
    H153     H        0.85260    0.24700    0.09920    1.000
    C232     C        0.84636    0.20670    0.15240    1.000
    H154     H        0.82070    0.22480    0.14420    1.000
    N78      N        0.86296    0.16930    0.18958    1.000
    C233     C        0.89895    0.14440    0.20070    1.000
    H155     H        0.91100    0.11860    0.22740    1.000
    C234     C        0.91914    0.15410    0.17570    1.000
    H156     H        0.94450    0.13360    0.18440    1.000
    N79      N        0.84804    0.54930    0.87510    1.000
    C235     C        0.83407    0.59800    0.84002    1.000
    H157     H        0.83670    0.66450    0.84070    1.000
    C236     C        0.81607    0.55450    0.80327    1.000
    H158     H        0.80580    0.59050    0.77890    1.000
    C237     C        0.81303    0.45710    0.80207    1.000
    C238     C        0.82890    0.40770    0.83820    1.000
    H159     H        0.82840    0.34090    0.83840    1.000
    C239     C        0.84510    0.45670    0.87320    1.000
    H160     H        0.85500    0.42240    0.89810    1.000
    C240     C        0.79258    0.40490    0.76369    1.000
    N80      N        0.76333    0.44700    0.73664    1.000
    C241     C        0.74407    0.39240    0.70448    1.000
    N81      N        0.75226    0.30370    0.69869    1.000
    C242     C        0.78343    0.27100    0.72741    1.000
    N82      N        0.80481    0.31820    0.76048    1.000
    C243     C        0.79574    0.17370    0.72324    1.000
    C244     C        0.77342    0.10960    0.69541    1.000
    H161     H        0.75000    0.12910    0.67590    1.000
    C245     C        0.78484    0.01800    0.69572    1.000
    H162     H        0.76870    0.97470    0.67680    1.000
    N83      N        0.81808    0.98750    0.72187    1.000
    C246     C        0.84097    0.05080    0.74710    1.000
    H163     H        0.86520    0.03110    0.76450    1.000
    C247     C        0.83084    0.14280    0.74860    1.000
    H164     H        0.84780    0.18540    0.76710    1.000
    C248     C        0.71101    0.43720    0.67418    1.000
    C249     C        0.68785    0.38940    0.63940    1.000
    H165     H        0.69340    0.32660    0.63420    1.000
    C250     C        0.65697    0.43510    0.61280    1.000
    H166     H        0.64150    0.40260    0.58900    1.000
    N84      N        0.64763    0.52330    0.61901    1.000
    C251     C        0.67025    0.56840    0.65170    1.000
    H167     H        0.66440    0.63160    0.65590    1.000
    C252     C        0.70136    0.52900    0.67960    1.000
    H168     H        0.71640    0.56410    0.70280    1.000
    I67      I        0.82390    0.71240    0.94690    1.000
    I68      I        0.93200    0.69830    0.92350    1.000
    I69      I        0.10340    0.91650    0.01420    1.000
    I70      I        0.09500    0.76240    0.11440    1.000
    Zn22     Zn       0.37166    0.12320    0.92935    1.000
    Zn23     Zn       0.60064    0.41302    0.07785    1.000
    Zn24     Zn       0.33362    0.34637    0.72899    1.000
    I71      I        0.31252    0.19260    0.93920    1.000
    I72      I        0.42206    0.21820    0.92279    1.000
    I73      I        0.27493    0.24358    0.70394    1.000
    I74      I        0.37846    0.32649    0.80187    1.000
    I75      I        0.60518    0.43380    0.00578    1.000
    I76      I        0.59171    0.25554    0.10872    1.000
    N85      N        0.39232    0.01650    0.97180    1.000
    C253     C        0.41956    0.95930    0.97140    1.000
    H169     H        0.43050    0.96920    0.95110    1.000
    C254     C        0.43287    0.88720    0.99830    1.000
    H170     H        0.45250    0.84800    0.99660    1.000
    C255     C        0.41752    0.87180    0.02827    1.000
    C256     C        0.39028    0.93320    0.02970    1.000
    H171     H        0.38000    0.92720    0.05080    1.000
    C257     C        0.37775    0.00380    0.00080    1.000
    H172     H        0.35820    0.04440    0.00180    1.000
    C258     C        0.42944    0.79320    0.05745    1.000
    N86      N        0.45853    0.74110    0.05728    1.000
    C259     C        0.46845    0.67240    0.08498    1.000
    N87      N        0.45247    0.65540    0.11263    1.000
    C260     C        0.42314    0.71020    0.10896    1.000
    N88      N        0.41020    0.77930    0.08202    1.000
    C261     C        0.49930    0.61000    0.08405    1.000
    C262     C        0.50715    0.60220    0.04851    1.000
    H173     H        0.49270    0.63590    0.02460    1.000
    C263     C        0.53604    0.54530    0.04790    1.000
    H174     H        0.54080    0.53940    0.02300    1.000
    N89      N        0.55774    0.49750    0.08098    1.000
    C264     C        0.55063    0.50580    0.11520    1.000
    H175     H        0.56610    0.47280    0.13890    1.000
    C265     C        0.52173    0.56000    0.11820    1.000
    H176     H        0.51720    0.56320    0.14320    1.000
    C266     C        0.40243    0.69410    0.13721    1.000
    C267     C        0.36518    0.72020    0.12550    1.000
    H177     H        0.35260    0.74700    0.09920    1.000
    C268     C        0.34636    0.70670    0.15240    1.000
    H178     H        0.32070    0.72480    0.14420    1.000
    N90      N        0.36296    0.66930    0.18958    1.000
    C269     C        0.39895    0.64440    0.20070    1.000
    H179     H        0.41100    0.61860    0.22740    1.000
    C270     C        0.41914    0.65410    0.17570    1.000
    H180     H        0.44450    0.63360    0.18440    1.000
    N91      N        0.34804    0.04930    0.87510    1.000
    C271     C        0.33407    0.09800    0.84002    1.000
    H181     H        0.33670    0.16450    0.84070    1.000
    C272     C        0.31607    0.05450    0.80327    1.000
    H182     H        0.30580    0.09050    0.77890    1.000
    C273     C        0.31303    0.95710    0.80207    1.000
    C274     C        0.32890    0.90770    0.83820    1.000
    H183     H        0.32840    0.84090    0.83840    1.000
    C275     C        0.34510    0.95670    0.87320    1.000
    H184     H        0.35500    0.92240    0.89810    1.000
    C276     C        0.29258    0.90490    0.76369    1.000
    N92      N        0.26333    0.94700    0.73664    1.000
    C277     C        0.24407    0.89240    0.70448    1.000
    N93      N        0.25226    0.80370    0.69869    1.000
    C278     C        0.28343    0.77100    0.72741    1.000
    N94      N        0.30481    0.81820    0.76048    1.000
    C279     C        0.29574    0.67370    0.72324    1.000
    C280     C        0.27342    0.60960    0.69541    1.000
    H185     H        0.25000    0.62910    0.67590    1.000
    C281     C        0.28484    0.51800    0.69572    1.000
    H186     H        0.26870    0.47470    0.67680    1.000
    N95      N        0.31808    0.48750    0.72187    1.000
    C282     C        0.34097    0.55080    0.74710    1.000
    H187     H        0.36520    0.53110    0.76450    1.000
    C283     C        0.33084    0.64280    0.74860    1.000
    H188     H        0.34780    0.68540    0.76710    1.000
    C284     C        0.21101    0.93720    0.67418    1.000
    C285     C        0.18785    0.88940    0.63940    1.000
    H189     H        0.19340    0.82660    0.63420    1.000
    C286     C        0.15697    0.93510    0.61280    1.000
    H190     H        0.14150    0.90260    0.58900    1.000
    N96      N        0.14763    0.02330    0.61901    1.000
    C287     C        0.17025    0.06840    0.65170    1.000
    H191     H        0.16440    0.13160    0.65590    1.000
    C288     C        0.20136    0.02900    0.67960    1.000
    H192     H        0.21640    0.06410    0.70280    1.000
    I77      I        0.32390    0.21240    0.94690    1.000
    I78      I        0.43200    0.19830    0.92350    1.000
    I79      I        0.60340    0.41650    0.01420    1.000
    I80      I        0.59500    0.26240    0.11440    1.000
