# CIF file generated by openbabel 3.1.0, see https://openbabel.org
data_I
_chemical_name_common 'image0'
_cell_length_a 17.481
_cell_length_b 24.505
_cell_length_c 21.049
_cell_angle_alpha 90
_cell_angle_beta 92.995
_cell_angle_gamma 90
_space_group_name_H-M_alt 'P 1'
_space_group_name_Hall 'P 1'
loop_
    _symmetry_equiv_pos_as_xyz
    x,y,z
loop_
    _atom_site_label
    _atom_site_type_symbol
    _atom_site_fract_x
    _atom_site_fract_y
    _atom_site_fract_z
    _atom_site_occupancy
    Ru1      Ru       0.96438    0.53267    0.47402    1.000
    Ru2      Ru       0.55706    0.61762    0.27879    1.000
    S1       S        0.56192    0.75916    0.44241    1.000
    F1       F        0.17260    0.56930    0.20930    1.000
    F2       F        0.34510    0.46730    0.32740    1.000
    F3       F        0.15140    0.75790    0.60970    1.000
    F4       F        0.24920    0.63580    0.73290    1.000
    F5       F        0.19130    0.60770    0.46830    1.000
    F6       F        0.60580    0.33370    0.31320    1.000
    F7       F        0.58990    0.90330    0.30500    1.000
    O1       O        0.04100    0.53618    0.40610    1.000
    O2       O        0.11210    0.47204    0.45660    1.000
    O3       O        0.02420    0.59115    0.52490    1.000
    O4       O        0.09360    0.52644    0.57650    1.000
    O5       O        0.38600    0.61626    0.30420    1.000
    O6       O        0.49800    0.61912    0.36060    1.000
    O7       O        0.55540    0.53312    0.27998    1.000
    O8       O        0.55680    0.70162    0.27720    1.000
    N1       N        0.88850    0.59410    0.42590    1.000
    N2       N        0.66870    0.62010    0.33820    1.000
    N3       N        0.62560    0.71450    0.42800    1.000
    N4       N        0.61000    0.79930    0.49100    1.000
    C1       C        0.09980    0.50540    0.41100    1.000
    C2       C        0.15630    0.50910    0.36120    1.000
    C3       C        0.13640    0.53760    0.30490    1.000
    C4       C        0.18990    0.54140    0.25890    1.000
    C5       C        0.26110    0.51670    0.26590    1.000
    C6       C        0.27820    0.48730    0.32110    1.000
    C7       C        0.22650    0.48340    0.36790    1.000
    C8       C        0.07600    0.57580    0.56570    1.000
    C9       C        0.11930    0.61770    0.60270    1.000
    C10      C        0.11380    0.67050    0.58630    1.000
    C11      C        0.15770    0.71040    0.61750    1.000
    C12      C        0.20660    0.69540    0.67060    1.000
    C13      C        0.21150    0.63970    0.68810    1.000
    C14      C        0.16590    0.60230    0.65490    1.000
    C15      C        0.42580    0.61830    0.35600    1.000
    C16      C        0.38410    0.61990    0.41710    1.000
    C17      C        0.30460    0.61360    0.41390    1.000
    C18      C        0.26880    0.61550    0.46920    1.000
    C19      C        0.30540    0.62510    0.52780    1.000
    C20      C        0.38560    0.63150    0.53000    1.000
    C21      C        0.42370    0.62820    0.47480    1.000
    C22      C        0.55870    0.42000    0.28270    1.000
    C23      C        0.55870    0.36300    0.28180    1.000
    C24      C        0.55600    0.81540    0.28320    1.000
    C25      C        0.55660    0.87200    0.28490    1.000
    C26      C        0.83610    0.62180    0.42510    1.000
    C27      C        0.76830    0.65340    0.42220    1.000
    C28      C        0.71140    0.63500    0.37680    1.000
    C29      C        0.75960    0.69970    0.46070    1.000
    C30      C        0.68940    0.72920    0.46070    1.000
    C31      C        0.68000    0.77750    0.49810    1.000
    H1       H        0.08730    0.55380    0.29850    1.000
    H2       H        0.29710    0.51970    0.23380    1.000
    H3       H        0.23920    0.46280    0.40520    1.000
    H4       H        0.07880    0.68090    0.55240    1.000
    H5       H        0.23550    0.72230    0.69390    1.000
    H6       H        0.16650    0.56520    0.66810    1.000
    H7       H        0.27690    0.60820    0.37440    1.000
    H8       H        0.27760    0.62740    0.56530    1.000
    H9       H        0.41300    0.63800    0.56940    1.000
    H10      H        0.47790    0.63170    0.47620    1.000
    H11      H        0.59840    0.43950    0.30540    1.000
    H12      H        0.59570    0.79600    0.30590    1.000
    Ru3      Ru       0.46438    0.03267    0.47402    1.000
    Ru4      Ru       0.05706    0.11762    0.27879    1.000
    S2       S        0.06192    0.25916    0.44241    1.000
    F8       F        0.67260    0.06930    0.20930    1.000
    F9       F        0.84510    0.96730    0.32740    1.000
    F10      F        0.65140    0.25790    0.60970    1.000
    F11      F        0.74920    0.13580    0.73290    1.000
    F12      F        0.69130    0.10770    0.46830    1.000
    F13      F        0.10580    0.83370    0.31320    1.000
    F14      F        0.08990    0.40330    0.30500    1.000
    O9       O        0.54100    0.03618    0.40610    1.000
    O10      O        0.61210    0.97204    0.45660    1.000
    O11      O        0.52420    0.09115    0.52490    1.000
    O12      O        0.59360    0.02644    0.57650    1.000
    O13      O        0.88600    0.11626    0.30420    1.000
    O14      O        0.99800    0.11912    0.36060    1.000
    O15      O        0.05540    0.03312    0.27998    1.000
    O16      O        0.05680    0.20162    0.27720    1.000
    N5       N        0.38850    0.09410    0.42590    1.000
    N6       N        0.16870    0.12010    0.33820    1.000
    N7       N        0.12560    0.21450    0.42800    1.000
    N8       N        0.11000    0.29930    0.49100    1.000
    C32      C        0.59980    0.00540    0.41100    1.000
    C33      C        0.65630    0.00910    0.36120    1.000
    C34      C        0.63640    0.03760    0.30490    1.000
    C35      C        0.68990    0.04140    0.25890    1.000
    C36      C        0.76110    0.01670    0.26590    1.000
    C37      C        0.77820    0.98730    0.32110    1.000
    C38      C        0.72650    0.98340    0.36790    1.000
    C39      C        0.57600    0.07580    0.56570    1.000
    C40      C        0.61930    0.11770    0.60270    1.000
    C41      C        0.61380    0.17050    0.58630    1.000
    C42      C        0.65770    0.21040    0.61750    1.000
    C43      C        0.70660    0.19540    0.67060    1.000
    C44      C        0.71150    0.13970    0.68810    1.000
    C45      C        0.66590    0.10230    0.65490    1.000
    C46      C        0.92580    0.11830    0.35600    1.000
    C47      C        0.88410    0.11990    0.41710    1.000
    C48      C        0.80460    0.11360    0.41390    1.000
    C49      C        0.76880    0.11550    0.46920    1.000
    C50      C        0.80540    0.12510    0.52780    1.000
    C51      C        0.88560    0.13150    0.53000    1.000
    C52      C        0.92370    0.12820    0.47480    1.000
    C53      C        0.05870    0.92000    0.28270    1.000
    C54      C        0.05870    0.86300    0.28180    1.000
    C55      C        0.05600    0.31540    0.28320    1.000
    C56      C        0.05660    0.37200    0.28490    1.000
    C57      C        0.33610    0.12180    0.42510    1.000
    C58      C        0.26830    0.15340    0.42220    1.000
    C59      C        0.21140    0.13500    0.37680    1.000
    C60      C        0.25960    0.19970    0.46070    1.000
    C61      C        0.18940    0.22920    0.46070    1.000
    C62      C        0.18000    0.27750    0.49810    1.000
    H13      H        0.58730    0.05380    0.29850    1.000
    H14      H        0.79710    0.01970    0.23380    1.000
    H15      H        0.73920    0.96280    0.40520    1.000
    H16      H        0.57880    0.18090    0.55240    1.000
    H17      H        0.73550    0.22230    0.69390    1.000
    H18      H        0.66650    0.06520    0.66810    1.000
    H19      H        0.77690    0.10820    0.37440    1.000
    H20      H        0.77760    0.12740    0.56530    1.000
    H21      H        0.91300    0.13800    0.56940    1.000
    H22      H        0.97790    0.13170    0.47620    1.000
    H23      H        0.09840    0.93950    0.30540    1.000
    H24      H        0.09570    0.29600    0.30590    1.000
    Ru5      Ru       0.03562    0.53267    0.02598    1.000
    Ru6      Ru       0.44294    0.61762    0.22121    1.000
    S3       S        0.43808    0.75916    0.05759    1.000
    F15      F        0.82740    0.56930    0.29070    1.000
    F16      F        0.65490    0.46730    0.17260    1.000
    F17      F        0.84860    0.75790    0.89030    1.000
    F18      F        0.75080    0.63580    0.76710    1.000
    F19      F        0.80870    0.60770    0.03170    1.000
    F20      F        0.39420    0.33370    0.18680    1.000
    F21      F        0.41010    0.90330    0.19500    1.000
    O17      O        0.95900    0.53618    0.09390    1.000
    O18      O        0.88790    0.47204    0.04340    1.000
    O19      O        0.97580    0.59115    0.97510    1.000
    O20      O        0.90640    0.52644    0.92350    1.000
    O21      O        0.61400    0.61626    0.19580    1.000
    O22      O        0.50200    0.61912    0.13940    1.000
    O23      O        0.44460    0.53312    0.22002    1.000
    O24      O        0.44320    0.70162    0.22280    1.000
    N9       N        0.11150    0.59410    0.07410    1.000
    N10      N        0.33130    0.62010    0.16180    1.000
    N11      N        0.37440    0.71450    0.07200    1.000
    N12      N        0.39000    0.79930    0.00900    1.000
    C63      C        0.90020    0.50540    0.08900    1.000
    C64      C        0.84370    0.50910    0.13880    1.000
    C65      C        0.86360    0.53760    0.19510    1.000
    C66      C        0.81010    0.54140    0.24110    1.000
    C67      C        0.73890    0.51670    0.23410    1.000
    C68      C        0.72180    0.48730    0.17890    1.000
    C69      C        0.77350    0.48340    0.13210    1.000
    C70      C        0.92400    0.57580    0.93430    1.000
    C71      C        0.88070    0.61770    0.89730    1.000
    C72      C        0.88620    0.67050    0.91370    1.000
    C73      C        0.84230    0.71040    0.88250    1.000
    C74      C        0.79340    0.69540    0.82940    1.000
    C75      C        0.78850    0.63970    0.81190    1.000
    C76      C        0.83410    0.60230    0.84510    1.000
    C77      C        0.57420    0.61830    0.14400    1.000
    C78      C        0.61590    0.61990    0.08290    1.000
    C79      C        0.69540    0.61360    0.08610    1.000
    C80      C        0.73120    0.61550    0.03080    1.000
    C81      C        0.69460    0.62510    0.97220    1.000
    C82      C        0.61440    0.63150    0.97000    1.000
    C83      C        0.57630    0.62820    0.02520    1.000
    C84      C        0.44130    0.42000    0.21730    1.000
    C85      C        0.44130    0.36300    0.21820    1.000
    C86      C        0.44400    0.81540    0.21680    1.000
    C87      C        0.44340    0.87200    0.21510    1.000
    C88      C        0.16390    0.62180    0.07490    1.000
    C89      C        0.23170    0.65340    0.07780    1.000
    C90      C        0.28860    0.63500    0.12320    1.000
    C91      C        0.24040    0.69970    0.03930    1.000
    C92      C        0.31060    0.72920    0.03930    1.000
    C93      C        0.32000    0.77750    0.00190    1.000
    H25      H        0.91270    0.55380    0.20150    1.000
    H26      H        0.70290    0.51970    0.26620    1.000
    H27      H        0.76080    0.46280    0.09480    1.000
    H28      H        0.92120    0.68090    0.94760    1.000
    H29      H        0.76450    0.72230    0.80610    1.000
    H30      H        0.83350    0.56520    0.83190    1.000
    H31      H        0.72310    0.60820    0.12560    1.000
    H32      H        0.72240    0.62740    0.93470    1.000
    H33      H        0.58700    0.63800    0.93060    1.000
    H34      H        0.52210    0.63170    0.02380    1.000
    H35      H        0.40160    0.43950    0.19460    1.000
    H36      H        0.40430    0.79600    0.19410    1.000
    Ru7      Ru       0.53562    0.03267    0.02598    1.000
    Ru8      Ru       0.94294    0.11762    0.22121    1.000
    S4       S        0.93808    0.25916    0.05759    1.000
    F22      F        0.32740    0.06930    0.29070    1.000
    F23      F        0.15490    0.96730    0.17260    1.000
    F24      F        0.34860    0.25790    0.89030    1.000
    F25      F        0.25080    0.13580    0.76710    1.000
    F26      F        0.30870    0.10770    0.03170    1.000
    F27      F        0.89420    0.83370    0.18680    1.000
    F28      F        0.91010    0.40330    0.19500    1.000
    O25      O        0.45900    0.03618    0.09390    1.000
    O26      O        0.38790    0.97204    0.04340    1.000
    O27      O        0.47580    0.09115    0.97510    1.000
    O28      O        0.40640    0.02644    0.92350    1.000
    O29      O        0.11400    0.11626    0.19580    1.000
    O30      O        0.00200    0.11912    0.13940    1.000
    O31      O        0.94460    0.03312    0.22002    1.000
    O32      O        0.94320    0.20162    0.22280    1.000
    N13      N        0.61150    0.09410    0.07410    1.000
    N14      N        0.83130    0.12010    0.16180    1.000
    N15      N        0.87440    0.21450    0.07200    1.000
    N16      N        0.89000    0.29930    0.00900    1.000
    C94      C        0.40020    0.00540    0.08900    1.000
    C95      C        0.34370    0.00910    0.13880    1.000
    C96      C        0.36360    0.03760    0.19510    1.000
    C97      C        0.31010    0.04140    0.24110    1.000
    C98      C        0.23890    0.01670    0.23410    1.000
    C99      C        0.22180    0.98730    0.17890    1.000
    C100     C        0.27350    0.98340    0.13210    1.000
    C101     C        0.42400    0.07580    0.93430    1.000
    C102     C        0.38070    0.11770    0.89730    1.000
    C103     C        0.38620    0.17050    0.91370    1.000
    C104     C        0.34230    0.21040    0.88250    1.000
    C105     C        0.29340    0.19540    0.82940    1.000
    C106     C        0.28850    0.13970    0.81190    1.000
    C107     C        0.33410    0.10230    0.84510    1.000
    C108     C        0.07420    0.11830    0.14400    1.000
    C109     C        0.11590    0.11990    0.08290    1.000
    C110     C        0.19540    0.11360    0.08610    1.000
    C111     C        0.23120    0.11550    0.03080    1.000
    C112     C        0.19460    0.12510    0.97220    1.000
    C113     C        0.11440    0.13150    0.97000    1.000
    C114     C        0.07630    0.12820    0.02520    1.000
    C115     C        0.94130    0.92000    0.21730    1.000
    C116     C        0.94130    0.86300    0.21820    1.000
    C117     C        0.94400    0.31540    0.21680    1.000
    C118     C        0.94340    0.37200    0.21510    1.000
    C119     C        0.66390    0.12180    0.07490    1.000
    C120     C        0.73170    0.15340    0.07780    1.000
    C121     C        0.78860    0.13500    0.12320    1.000
    C122     C        0.74040    0.19970    0.03930    1.000
    C123     C        0.81060    0.22920    0.03930    1.000
    C124     C        0.82000    0.27750    0.00190    1.000
    H37      H        0.41270    0.05380    0.20150    1.000
    H38      H        0.20290    0.01970    0.26620    1.000
    H39      H        0.26080    0.96280    0.09480    1.000
    H40      H        0.42120    0.18090    0.94760    1.000
    H41      H        0.26450    0.22230    0.80610    1.000
    H42      H        0.33350    0.06520    0.83190    1.000
    H43      H        0.22310    0.10820    0.12560    1.000
    H44      H        0.22240    0.12740    0.93470    1.000
    H45      H        0.08700    0.13800    0.93060    1.000
    H46      H        0.02210    0.13170    0.02380    1.000
    H47      H        0.90160    0.93950    0.19460    1.000
    H48      H        0.90430    0.29600    0.19410    1.000
    Ru9      Ru       0.03562    0.46733    0.52598    1.000
    Ru10     Ru       0.44294    0.38238    0.72121    1.000
    S5       S        0.43808    0.24084    0.55759    1.000
    F29      F        0.82740    0.43070    0.79070    1.000
    F30      F        0.65490    0.53270    0.67260    1.000
    F31      F        0.84860    0.24210    0.39030    1.000
    F32      F        0.75080    0.36420    0.26710    1.000
    F33      F        0.80870    0.39230    0.53170    1.000
    F34      F        0.39420    0.66630    0.68680    1.000
    F35      F        0.41010    0.09670    0.69500    1.000
    O33      O        0.95900    0.46382    0.59390    1.000
    O34      O        0.88790    0.52796    0.54340    1.000
    O35      O        0.97580    0.40885    0.47510    1.000
    O36      O        0.90640    0.47356    0.42350    1.000
    O37      O        0.61400    0.38374    0.69580    1.000
    O38      O        0.50200    0.38088    0.63940    1.000
    O39      O        0.44460    0.46688    0.72002    1.000
    O40      O        0.44320    0.29838    0.72280    1.000
    N17      N        0.11150    0.40590    0.57410    1.000
    N18      N        0.33130    0.37990    0.66180    1.000
    N19      N        0.37440    0.28550    0.57200    1.000
    N20      N        0.39000    0.20070    0.50900    1.000
    C125     C        0.90020    0.49460    0.58900    1.000
    C126     C        0.84370    0.49090    0.63880    1.000
    C127     C        0.86360    0.46240    0.69510    1.000
    C128     C        0.81010    0.45860    0.74110    1.000
    C129     C        0.73890    0.48330    0.73410    1.000
    C130     C        0.72180    0.51270    0.67890    1.000
    C131     C        0.77350    0.51660    0.63210    1.000
    C132     C        0.92400    0.42420    0.43430    1.000
    C133     C        0.88070    0.38230    0.39730    1.000
    C134     C        0.88620    0.32950    0.41370    1.000
    C135     C        0.84230    0.28960    0.38250    1.000
    C136     C        0.79340    0.30460    0.32940    1.000
    C137     C        0.78850    0.36030    0.31190    1.000
    C138     C        0.83410    0.39770    0.34510    1.000
    C139     C        0.57420    0.38170    0.64400    1.000
    C140     C        0.61590    0.38010    0.58290    1.000
    C141     C        0.69540    0.38640    0.58610    1.000
    C142     C        0.73120    0.38450    0.53080    1.000
    C143     C        0.69460    0.37490    0.47220    1.000
    C144     C        0.61440    0.36850    0.47000    1.000
    C145     C        0.57630    0.37180    0.52520    1.000
    C146     C        0.44130    0.58000    0.71730    1.000
    C147     C        0.44130    0.63700    0.71820    1.000
    C148     C        0.44400    0.18460    0.71680    1.000
    C149     C        0.44340    0.12800    0.71510    1.000
    C150     C        0.16390    0.37820    0.57490    1.000
    C151     C        0.23170    0.34660    0.57780    1.000
    C152     C        0.28860    0.36500    0.62320    1.000
    C153     C        0.24040    0.30030    0.53930    1.000
    C154     C        0.31060    0.27080    0.53930    1.000
    C155     C        0.32000    0.22250    0.50190    1.000
    H49      H        0.91270    0.44620    0.70150    1.000
    H50      H        0.70290    0.48030    0.76620    1.000
    H51      H        0.76080    0.53720    0.59480    1.000
    H52      H        0.92120    0.31910    0.44760    1.000
    H53      H        0.76450    0.27770    0.30610    1.000
    H54      H        0.83350    0.43480    0.33190    1.000
    H55      H        0.72310    0.39180    0.62560    1.000
    H56      H        0.72240    0.37260    0.43470    1.000
    H57      H        0.58700    0.36200    0.43060    1.000
    H58      H        0.52210    0.36830    0.52380    1.000
    H59      H        0.40160    0.56050    0.69460    1.000
    H60      H        0.40430    0.20400    0.69410    1.000
    Ru11     Ru       0.53562    0.96733    0.52598    1.000
    Ru12     Ru       0.94294    0.88238    0.72121    1.000
    S6       S        0.93808    0.74084    0.55759    1.000
    F36      F        0.32740    0.93070    0.79070    1.000
    F37      F        0.15490    0.03270    0.67260    1.000
    F38      F        0.34860    0.74210    0.39030    1.000
    F39      F        0.25080    0.86420    0.26710    1.000
    F40      F        0.30870    0.89230    0.53170    1.000
    F41      F        0.89420    0.16630    0.68680    1.000
    F42      F        0.91010    0.59670    0.69500    1.000
    O41      O        0.45900    0.96382    0.59390    1.000
    O42      O        0.38790    0.02796    0.54340    1.000
    O43      O        0.47580    0.90885    0.47510    1.000
    O44      O        0.40640    0.97356    0.42350    1.000
    O45      O        0.11400    0.88374    0.69580    1.000
    O46      O        0.00200    0.88088    0.63940    1.000
    O47      O        0.94460    0.96688    0.72002    1.000
    O48      O        0.94320    0.79838    0.72280    1.000
    N21      N        0.61150    0.90590    0.57410    1.000
    N22      N        0.83130    0.87990    0.66180    1.000
    N23      N        0.87440    0.78550    0.57200    1.000
    N24      N        0.89000    0.70070    0.50900    1.000
    C156     C        0.40020    0.99460    0.58900    1.000
    C157     C        0.34370    0.99090    0.63880    1.000
    C158     C        0.36360    0.96240    0.69510    1.000
    C159     C        0.31010    0.95860    0.74110    1.000
    C160     C        0.23890    0.98330    0.73410    1.000
    C161     C        0.22180    0.01270    0.67890    1.000
    C162     C        0.27350    0.01660    0.63210    1.000
    C163     C        0.42400    0.92420    0.43430    1.000
    C164     C        0.38070    0.88230    0.39730    1.000
    C165     C        0.38620    0.82950    0.41370    1.000
    C166     C        0.34230    0.78960    0.38250    1.000
    C167     C        0.29340    0.80460    0.32940    1.000
    C168     C        0.28850    0.86030    0.31190    1.000
    C169     C        0.33410    0.89770    0.34510    1.000
    C170     C        0.07420    0.88170    0.64400    1.000
    C171     C        0.11590    0.88010    0.58290    1.000
    C172     C        0.19540    0.88640    0.58610    1.000
    C173     C        0.23120    0.88450    0.53080    1.000
    C174     C        0.19460    0.87490    0.47220    1.000
    C175     C        0.11440    0.86850    0.47000    1.000
    C176     C        0.07630    0.87180    0.52520    1.000
    C177     C        0.94130    0.08000    0.71730    1.000
    C178     C        0.94130    0.13700    0.71820    1.000
    C179     C        0.94400    0.68460    0.71680    1.000
    C180     C        0.94340    0.62800    0.71510    1.000
    C181     C        0.66390    0.87820    0.57490    1.000
    C182     C        0.73170    0.84660    0.57780    1.000
    C183     C        0.78860    0.86500    0.62320    1.000
    C184     C        0.74040    0.80030    0.53930    1.000
    C185     C        0.81060    0.77080    0.53930    1.000
    C186     C        0.82000    0.72250    0.50190    1.000
    H61      H        0.41270    0.94620    0.70150    1.000
    H62      H        0.20290    0.98030    0.76620    1.000
    H63      H        0.26080    0.03720    0.59480    1.000
    H64      H        0.42120    0.81910    0.44760    1.000
    H65      H        0.26450    0.77770    0.30610    1.000
    H66      H        0.33350    0.93480    0.33190    1.000
    H67      H        0.22310    0.89180    0.62560    1.000
    H68      H        0.22240    0.87260    0.43470    1.000
    H69      H        0.08700    0.86200    0.43060    1.000
    H70      H        0.02210    0.86830    0.52380    1.000
    H71      H        0.90160    0.06050    0.69460    1.000
    H72      H        0.90430    0.70400    0.69410    1.000
    Ru13     Ru       0.96438    0.46733    0.97402    1.000
    Ru14     Ru       0.55706    0.38238    0.77879    1.000
    S7       S        0.56192    0.24084    0.94241    1.000
    F43      F        0.17260    0.43070    0.70930    1.000
    F44      F        0.34510    0.53270    0.82740    1.000
    F45      F        0.15140    0.24210    0.10970    1.000
    F46      F        0.24920    0.36420    0.23290    1.000
    F47      F        0.19130    0.39230    0.96830    1.000
    F48      F        0.60580    0.66630    0.81320    1.000
    F49      F        0.58990    0.09670    0.80500    1.000
    O49      O        0.04100    0.46382    0.90610    1.000
    O50      O        0.11210    0.52796    0.95660    1.000
    O51      O        0.02420    0.40885    0.02490    1.000
    O52      O        0.09360    0.47356    0.07650    1.000
    O53      O        0.38600    0.38374    0.80420    1.000
    O54      O        0.49800    0.38088    0.86060    1.000
    O55      O        0.55540    0.46688    0.77998    1.000
    O56      O        0.55680    0.29838    0.77720    1.000
    N25      N        0.88850    0.40590    0.92590    1.000
    N26      N        0.66870    0.37990    0.83820    1.000
    N27      N        0.62560    0.28550    0.92800    1.000
    N28      N        0.61000    0.20070    0.99100    1.000
    C187     C        0.09980    0.49460    0.91100    1.000
    C188     C        0.15630    0.49090    0.86120    1.000
    C189     C        0.13640    0.46240    0.80490    1.000
    C190     C        0.18990    0.45860    0.75890    1.000
    C191     C        0.26110    0.48330    0.76590    1.000
    C192     C        0.27820    0.51270    0.82110    1.000
    C193     C        0.22650    0.51660    0.86790    1.000
    C194     C        0.07600    0.42420    0.06570    1.000
    C195     C        0.11930    0.38230    0.10270    1.000
    C196     C        0.11380    0.32950    0.08630    1.000
    C197     C        0.15770    0.28960    0.11750    1.000
    C198     C        0.20660    0.30460    0.17060    1.000
    C199     C        0.21150    0.36030    0.18810    1.000
    C200     C        0.16590    0.39770    0.15490    1.000
    C201     C        0.42580    0.38170    0.85600    1.000
    C202     C        0.38410    0.38010    0.91710    1.000
    C203     C        0.30460    0.38640    0.91390    1.000
    C204     C        0.26880    0.38450    0.96920    1.000
    C205     C        0.30540    0.37490    0.02780    1.000
    C206     C        0.38560    0.36850    0.03000    1.000
    C207     C        0.42370    0.37180    0.97480    1.000
    C208     C        0.55870    0.58000    0.78270    1.000
    C209     C        0.55870    0.63700    0.78180    1.000
    C210     C        0.55600    0.18460    0.78320    1.000
    C211     C        0.55660    0.12800    0.78490    1.000
    C212     C        0.83610    0.37820    0.92510    1.000
    C213     C        0.76830    0.34660    0.92220    1.000
    C214     C        0.71140    0.36500    0.87680    1.000
    C215     C        0.75960    0.30030    0.96070    1.000
    C216     C        0.68940    0.27080    0.96070    1.000
    C217     C        0.68000    0.22250    0.99810    1.000
    H73      H        0.08730    0.44620    0.79850    1.000
    H74      H        0.29710    0.48030    0.73380    1.000
    H75      H        0.23920    0.53720    0.90520    1.000
    H76      H        0.07880    0.31910    0.05240    1.000
    H77      H        0.23550    0.27770    0.19390    1.000
    H78      H        0.16650    0.43480    0.16810    1.000
    H79      H        0.27690    0.39180    0.87440    1.000
    H80      H        0.27760    0.37260    0.06530    1.000
    H81      H        0.41300    0.36200    0.06940    1.000
    H82      H        0.47790    0.36830    0.97620    1.000
    H83      H        0.59840    0.56050    0.80540    1.000
    H84      H        0.59570    0.20400    0.80590    1.000
    Ru15     Ru       0.46438    0.96733    0.97402    1.000
    Ru16     Ru       0.05706    0.88238    0.77879    1.000
    S8       S        0.06192    0.74084    0.94241    1.000
    F50      F        0.67260    0.93070    0.70930    1.000
    F51      F        0.84510    0.03270    0.82740    1.000
    F52      F        0.65140    0.74210    0.10970    1.000
    F53      F        0.74920    0.86420    0.23290    1.000
    F54      F        0.69130    0.89230    0.96830    1.000
    F55      F        0.10580    0.16630    0.81320    1.000
    F56      F        0.08990    0.59670    0.80500    1.000
    O57      O        0.54100    0.96382    0.90610    1.000
    O58      O        0.61210    0.02796    0.95660    1.000
    O59      O        0.52420    0.90885    0.02490    1.000
    O60      O        0.59360    0.97356    0.07650    1.000
    O61      O        0.88600    0.88374    0.80420    1.000
    O62      O        0.99800    0.88088    0.86060    1.000
    O63      O        0.05540    0.96688    0.77998    1.000
    O64      O        0.05680    0.79838    0.77720    1.000
    N29      N        0.38850    0.90590    0.92590    1.000
    N30      N        0.16870    0.87990    0.83820    1.000
    N31      N        0.12560    0.78550    0.92800    1.000
    N32      N        0.11000    0.70070    0.99100    1.000
    C218     C        0.59980    0.99460    0.91100    1.000
    C219     C        0.65630    0.99090    0.86120    1.000
    C220     C        0.63640    0.96240    0.80490    1.000
    C221     C        0.68990    0.95860    0.75890    1.000
    C222     C        0.76110    0.98330    0.76590    1.000
    C223     C        0.77820    0.01270    0.82110    1.000
    C224     C        0.72650    0.01660    0.86790    1.000
    C225     C        0.57600    0.92420    0.06570    1.000
    C226     C        0.61930    0.88230    0.10270    1.000
    C227     C        0.61380    0.82950    0.08630    1.000
    C228     C        0.65770    0.78960    0.11750    1.000
    C229     C        0.70660    0.80460    0.17060    1.000
    C230     C        0.71150    0.86030    0.18810    1.000
    C231     C        0.66590    0.89770    0.15490    1.000
    C232     C        0.92580    0.88170    0.85600    1.000
    C233     C        0.88410    0.88010    0.91710    1.000
    C234     C        0.80460    0.88640    0.91390    1.000
    C235     C        0.76880    0.88450    0.96920    1.000
    C236     C        0.80540    0.87490    0.02780    1.000
    C237     C        0.88560    0.86850    0.03000    1.000
    C238     C        0.92370    0.87180    0.97480    1.000
    C239     C        0.05870    0.08000    0.78270    1.000
    C240     C        0.05870    0.13700    0.78180    1.000
    C241     C        0.05600    0.68460    0.78320    1.000
    C242     C        0.05660    0.62800    0.78490    1.000
    C243     C        0.33610    0.87820    0.92510    1.000
    C244     C        0.26830    0.84660    0.92220    1.000
    C245     C        0.21140    0.86500    0.87680    1.000
    C246     C        0.25960    0.80030    0.96070    1.000
    C247     C        0.18940    0.77080    0.96070    1.000
    C248     C        0.18000    0.72250    0.99810    1.000
    H85      H        0.58730    0.94620    0.79850    1.000
    H86      H        0.79710    0.98030    0.73380    1.000
    H87      H        0.73920    0.03720    0.90520    1.000
    H88      H        0.57880    0.81910    0.05240    1.000
    H89      H        0.73550    0.77770    0.19390    1.000
    H90      H        0.66650    0.93480    0.16810    1.000
    H91      H        0.77690    0.89180    0.87440    1.000
    H92      H        0.77760    0.87260    0.06530    1.000
    H93      H        0.91300    0.86200    0.06940    1.000
    H94      H        0.97790    0.86830    0.97620    1.000
    H95      H        0.09840    0.06050    0.80540    1.000
    H96      H        0.09570    0.70400    0.80590    1.000
    C249     C        0.50000    0.50880    0.25000    1.000
    C250     C        0.50000    0.44760    0.25000    1.000
    C251     C        0.50000    0.33340    0.25000    1.000
    C252     C        0.50000    0.72470    0.25000    1.000
    C253     C        0.50000    0.78690    0.25000    1.000
    C254     C        0.50000    0.90050    0.25000    1.000
    H97      H        0.50000    0.29470    0.25000    1.000
    H98      H        0.50000    0.93920    0.25000    1.000
    C255     C        0.00000    0.00880    0.25000    1.000
    C256     C        0.00000    0.94760    0.25000    1.000
    C257     C        0.00000    0.83340    0.25000    1.000
    C258     C        0.00000    0.22470    0.25000    1.000
    C259     C        0.00000    0.28690    0.25000    1.000
    C260     C        0.00000    0.40050    0.25000    1.000
    H99      H        0.00000    0.79470    0.25000    1.000
    H100     H        0.00000    0.43920    0.25000    1.000
    C261     C        0.50000    0.49120    0.75000    1.000
    C262     C        0.50000    0.55240    0.75000    1.000
    C263     C        0.50000    0.66660    0.75000    1.000
    C264     C        0.50000    0.27530    0.75000    1.000
    C265     C        0.50000    0.21310    0.75000    1.000
    C266     C        0.50000    0.09950    0.75000    1.000
    H101     H        0.50000    0.70530    0.75000    1.000
    H102     H        0.50000    0.06080    0.75000    1.000
    C267     C        0.00000    0.99120    0.75000    1.000
    C268     C        0.00000    0.05240    0.75000    1.000
    C269     C        0.00000    0.16660    0.75000    1.000
    C270     C        0.00000    0.77530    0.75000    1.000
    C271     C        0.00000    0.71310    0.75000    1.000
    C272     C        0.00000    0.59950    0.75000    1.000
    H103     H        0.00000    0.20530    0.75000    1.000
    H104     H        0.00000    0.56080    0.75000    1.000
