# CIF file generated by openbabel 3.1.0, see https://openbabel.org
data_I
_chemical_name_common 'image0'
_cell_length_a 11.418
_cell_length_b 10.037
_cell_length_c 18.546
_cell_angle_alpha 90
_cell_angle_beta 126.68
_cell_angle_gamma 90
_space_group_name_H-M_alt 'P 1'
_space_group_name_Hall 'P 1'
loop_
    _symmetry_equiv_pos_as_xyz
    x,y,z
loop_
    _atom_site_label
    _atom_site_type_symbol
    _atom_site_fract_x
    _atom_site_fract_y
    _atom_site_fract_z
    _atom_site_occupancy
    Zn1      Zn       0.93538    0.87823    0.69467    1.000
    Zn2      Zn       0.87689    0.57108    0.63188    1.000
    O1       O        0.71230    0.86320    0.60792    1.000
    O2       O        0.66790    0.64702    0.56966    1.000
    O3       O        0.94690    0.68691    0.74942    1.000
    O4       O        0.05940    0.54540    0.86547    1.000
    O5       O        0.95830    0.74787    0.61432    1.000
    O6       O        0.98830    0.70500    0.50759    1.000
    O7       O        0.83600    0.47390    0.52201    1.000
    O8       O        0.60710    0.40490    0.45542    1.000
    O9       O        0.84300    0.41099    0.69197    1.000
    O10      O        0.60360    0.37320    0.61061    1.000
    O11      O        0.08400    0.47980    0.71334    1.000
    O12      O        0.17510    0.48750    0.63607    1.000
    C1       C        0.63050    0.76610    0.56920    1.000
    H1       H        0.53080    0.78230    0.53610    1.000
    C2       C        0.01210    0.65660    0.83140    1.000
    H2       H        0.02570    0.72470    0.86970    1.000
    C3       C        0.98300    0.78080    0.55810    1.000
    H3       H        0.99870    0.87080    0.55490    1.000
    C4       C        0.72260    0.40630    0.46460    1.000
    H4       H        0.72810    0.35260    0.42580    1.000
    C5       C        0.73090    0.35060    0.67380    1.000
    H5       H        0.74680    0.28200    0.71240    1.000
    C6       C        0.18480    0.47000    0.70440    1.000
    H6       H        0.27660    0.44680    0.75560    1.000
    Zn3      Zn       0.06462    0.37823    0.80533    1.000
    Zn4      Zn       0.12311    0.07108    0.86812    1.000
    O13      O        0.28770    0.36320    0.89208    1.000
    O14      O        0.33210    0.14702    0.93034    1.000
    O15      O        0.05310    0.18691    0.75058    1.000
    O16      O        0.94060    0.04540    0.63453    1.000
    O17      O        0.04170    0.24787    0.88568    1.000
    O18      O        0.01170    0.20500    0.99241    1.000
    O19      O        0.16400    0.97390    0.97799    1.000
    O20      O        0.39290    0.90490    0.04458    1.000
    O21      O        0.15700    0.91099    0.80803    1.000
    O22      O        0.39640    0.87320    0.88939    1.000
    O23      O        0.91600    0.97980    0.78666    1.000
    O24      O        0.82490    0.98750    0.86393    1.000
    C7       C        0.36950    0.26610    0.93080    1.000
    H7       H        0.46920    0.28230    0.96390    1.000
    C8       C        0.98790    0.15660    0.66860    1.000
    H8       H        0.97430    0.22470    0.63030    1.000
    C9       C        0.01700    0.28080    0.94190    1.000
    H9       H        0.00130    0.37080    0.94510    1.000
    C10      C        0.27740    0.90630    0.03540    1.000
    H10      H        0.27190    0.85260    0.07420    1.000
    C11      C        0.26910    0.85060    0.82620    1.000
    H11      H        0.25320    0.78200    0.78760    1.000
    C12      C        0.81520    0.97000    0.79560    1.000
    H12      H        0.72340    0.94680    0.74440    1.000
    Zn5      Zn       0.06462    0.12177    0.30533    1.000
    Zn6      Zn       0.12311    0.42892    0.36812    1.000
    O25      O        0.28770    0.13680    0.39208    1.000
    O26      O        0.33210    0.35298    0.43034    1.000
    O27      O        0.05310    0.31309    0.25058    1.000
    O28      O        0.94060    0.45460    0.13453    1.000
    O29      O        0.04170    0.25213    0.38568    1.000
    O30      O        0.01170    0.29500    0.49241    1.000
    O31      O        0.16400    0.52610    0.47799    1.000
    O32      O        0.39290    0.59510    0.54458    1.000
    O33      O        0.15700    0.58901    0.30803    1.000
    O34      O        0.39640    0.62680    0.38939    1.000
    O35      O        0.91600    0.52020    0.28666    1.000
    O36      O        0.82490    0.51250    0.36393    1.000
    C13      C        0.36950    0.23390    0.43080    1.000
    H13      H        0.46920    0.21770    0.46390    1.000
    C14      C        0.98790    0.34340    0.16860    1.000
    H14      H        0.97430    0.27530    0.13030    1.000
    C15      C        0.01700    0.21920    0.44190    1.000
    H15      H        0.00130    0.12920    0.44510    1.000
    C16      C        0.27740    0.59370    0.53540    1.000
    H16      H        0.27190    0.64740    0.57420    1.000
    C17      C        0.26910    0.64940    0.32620    1.000
    H17      H        0.25320    0.71800    0.28760    1.000
    C18      C        0.81520    0.53000    0.29560    1.000
    H18      H        0.72340    0.55320    0.24440    1.000
    Zn7      Zn       0.93538    0.62177    0.19467    1.000
    Zn8      Zn       0.87689    0.92892    0.13188    1.000
    O37      O        0.71230    0.63680    0.10792    1.000
    O38      O        0.66790    0.85298    0.06966    1.000
    O39      O        0.94690    0.81309    0.24942    1.000
    O40      O        0.05940    0.95460    0.36547    1.000
    O41      O        0.95830    0.75213    0.11432    1.000
    O42      O        0.98830    0.79500    0.00759    1.000
    O43      O        0.83600    0.02610    0.02201    1.000
    O44      O        0.60710    0.09510    0.95542    1.000
    O45      O        0.84300    0.08901    0.19197    1.000
    O46      O        0.60360    0.12680    0.11061    1.000
    O47      O        0.08400    0.02020    0.21334    1.000
    O48      O        0.17510    0.01250    0.13607    1.000
    C19      C        0.63050    0.73390    0.06920    1.000
    H19      H        0.53080    0.71770    0.03610    1.000
    C20      C        0.01210    0.84340    0.33140    1.000
    H20      H        0.02570    0.77530    0.36970    1.000
    C21      C        0.98300    0.71920    0.05810    1.000
    H21      H        0.99870    0.62920    0.05490    1.000
    C22      C        0.72260    0.09370    0.96460    1.000
    H22      H        0.72810    0.14740    0.92580    1.000
    C23      C        0.73090    0.14940    0.17380    1.000
    H23      H        0.74680    0.21800    0.21240    1.000
    C24      C        0.18480    0.03000    0.20440    1.000
    H24      H        0.27660    0.05320    0.25560    1.000
    Zn9      Zn       0.00000    0.50000    0.50000    1.000
    Zn10     Zn       0.00000    0.00000    0.00000    1.000
    Zn11     Zn       0.50000    0.50000    0.50000    1.000
    Zn12     Zn       0.50000    0.00000    0.00000    1.000
