# CIF file generated by openbabel 3.1.0, see https://openbabel.org
data_I
_chemical_name_common 'image0'
_cell_length_a 33.7186
_cell_length_b 7.9481
_cell_length_c 20.591
_cell_angle_alpha 90
_cell_angle_beta 90
_cell_angle_gamma 90
_space_group_name_H-M_alt 'P 1'
_space_group_name_Hall 'P 1'
loop_
    _symmetry_equiv_pos_as_xyz
    x,y,z
loop_
    _atom_site_label
    _atom_site_type_symbol
    _atom_site_fract_x
    _atom_site_fract_y
    _atom_site_fract_z
    _atom_site_occupancy
    C1       C        0.87639    0.22020    0.97224    1.000
    H1       H        0.89630    0.17920    0.94380    1.000
    C2       C        0.83683    0.19170    0.95700    1.000
    H2       H        0.82950    0.13210    0.91890    1.000
    C3       C        0.80722    0.24940    0.99800    1.000
    C4       C        0.81901    0.33620    0.05350    1.000
    H3       H        0.79910    0.37720    0.08200    1.000
    C5       C        0.85889    0.36030    0.06590    1.000
    H4       H        0.86620    0.41990    0.10400    1.000
    C6       C        0.76504    0.22440    0.98200    1.000
    C7       C        0.96411    0.25090    0.24748    1.000
    C8       C        0.96418    0.21240    0.31373    1.000
    H5       H        0.93990    0.19880    0.33610    1.000
    Cu1      Cu       0.94524    0.33315    0.05044    1.000
    N1       N        0.88762    0.30280    0.02601    1.000
    O1       O        0.93048    0.37070    0.13967    1.000
    O2       O        0.90662    0.09440    0.17795    1.000
    O3       O        0.88838    0.35730    0.24241    1.000
    O4       O        0.03838    0.18710    0.46008    1.000
    O5       O        0.95914    0.05990    0.06995    1.000
    P1       P        0.91955    0.27588    0.20077    1.000
    H6       H        0.76100    0.19900    0.93740    1.000
    H7       H        0.89820    0.02100    0.20400    1.000
    H8       H        0.94760    0.04400    0.11260    1.000
    H9       H        0.98750    0.04700    0.07500    1.000
    C9       C        0.37639    0.72020    0.97224    1.000
    H10      H        0.39630    0.67920    0.94380    1.000
    C10      C        0.33683    0.69170    0.95700    1.000
    H11      H        0.32950    0.63210    0.91890    1.000
    C11      C        0.30722    0.74940    0.99800    1.000
    C12      C        0.31901    0.83620    0.05350    1.000
    H12      H        0.29910    0.87720    0.08200    1.000
    C13      C        0.35889    0.86030    0.06590    1.000
    H13      H        0.36620    0.91990    0.10400    1.000
    C14      C        0.26504    0.72440    0.98200    1.000
    C15      C        0.46411    0.75090    0.24748    1.000
    C16      C        0.46418    0.71240    0.31373    1.000
    H14      H        0.43990    0.69880    0.33610    1.000
    Cu2      Cu       0.44524    0.83315    0.05044    1.000
    N2       N        0.38762    0.80280    0.02601    1.000
    O6       O        0.43048    0.87070    0.13967    1.000
    O7       O        0.40662    0.59440    0.17795    1.000
    O8       O        0.38838    0.85730    0.24241    1.000
    O9       O        0.53838    0.68710    0.46008    1.000
    O10      O        0.45914    0.55990    0.06995    1.000
    P2       P        0.41955    0.77588    0.20077    1.000
    H15      H        0.26100    0.69900    0.93740    1.000
    H16      H        0.39820    0.52100    0.20400    1.000
    H17      H        0.44760    0.54400    0.11260    1.000
    H18      H        0.48750    0.54700    0.07500    1.000
    C17      C        0.12361    0.27980    0.47224    1.000
    H19      H        0.10370    0.32080    0.44380    1.000
    C18      C        0.16317    0.30830    0.45700    1.000
    H20      H        0.17050    0.36790    0.41890    1.000
    C19      C        0.19278    0.25060    0.49800    1.000
    C20      C        0.18099    0.16380    0.55350    1.000
    H21      H        0.20090    0.12280    0.58200    1.000
    C21      C        0.14111    0.13970    0.56590    1.000
    H22      H        0.13380    0.08010    0.60400    1.000
    C22      C        0.23496    0.27560    0.48200    1.000
    C23      C        0.03589    0.24910    0.74748    1.000
    C24      C        0.03582    0.28760    0.81373    1.000
    H23      H        0.06010    0.30120    0.83610    1.000
    Cu3      Cu       0.05476    0.16685    0.55044    1.000
    N3       N        0.11238    0.19720    0.52601    1.000
    O11      O        0.06952    0.12930    0.63967    1.000
    O12      O        0.09338    0.40560    0.67795    1.000
    O13      O        0.11162    0.14270    0.74241    1.000
    O14      O        0.96162    0.31290    0.96008    1.000
    O15      O        0.04086    0.44010    0.56995    1.000
    P3       P        0.08045    0.22412    0.70077    1.000
    H24      H        0.23900    0.30100    0.43740    1.000
    H25      H        0.10180    0.47900    0.70400    1.000
    H26      H        0.05240    0.45600    0.61260    1.000
    H27      H        0.01250    0.45300    0.57500    1.000
    C25      C        0.62361    0.77980    0.47224    1.000
    H28      H        0.60370    0.82080    0.44380    1.000
    C26      C        0.66317    0.80830    0.45700    1.000
    H29      H        0.67050    0.86790    0.41890    1.000
    C27      C        0.69278    0.75060    0.49800    1.000
    C28      C        0.68099    0.66380    0.55350    1.000
    H30      H        0.70090    0.62280    0.58200    1.000
    C29      C        0.64111    0.63970    0.56590    1.000
    H31      H        0.63380    0.58010    0.60400    1.000
    C30      C        0.73496    0.77560    0.48200    1.000
    C31      C        0.53589    0.74910    0.74748    1.000
    C32      C        0.53582    0.78760    0.81373    1.000
    H32      H        0.56010    0.80120    0.83610    1.000
    Cu4      Cu       0.55476    0.66685    0.55044    1.000
    N4       N        0.61238    0.69720    0.52601    1.000
    O16      O        0.56952    0.62930    0.63967    1.000
    O17      O        0.59338    0.90560    0.67795    1.000
    O18      O        0.61162    0.64270    0.74241    1.000
    O19      O        0.46162    0.81290    0.96008    1.000
    O20      O        0.54086    0.94010    0.56995    1.000
    P4       P        0.58045    0.72412    0.70077    1.000
    H33      H        0.73900    0.80100    0.43740    1.000
    H34      H        0.60180    0.97900    0.70400    1.000
    H35      H        0.55240    0.95600    0.61260    1.000
    H36      H        0.51250    0.95300    0.57500    1.000
    C33      C        0.12361    0.72020    0.52776    1.000
    H37      H        0.10370    0.67920    0.55620    1.000
    C34      C        0.16317    0.69170    0.54300    1.000
    H38      H        0.17050    0.63210    0.58110    1.000
    C35      C        0.19278    0.74940    0.50200    1.000
    C36      C        0.18099    0.83620    0.44650    1.000
    H39      H        0.20090    0.87720    0.41800    1.000
    C37      C        0.14111    0.86030    0.43410    1.000
    H40      H        0.13380    0.91990    0.39600    1.000
    C38      C        0.23496    0.72440    0.51800    1.000
    C39      C        0.03589    0.75090    0.25252    1.000
    C40      C        0.03582    0.71240    0.18627    1.000
    H41      H        0.06010    0.69880    0.16390    1.000
    Cu5      Cu       0.05476    0.83315    0.44956    1.000
    N5       N        0.11238    0.80280    0.47399    1.000
    O21      O        0.06952    0.87070    0.36033    1.000
    O22      O        0.09338    0.59440    0.32205    1.000
    O23      O        0.11162    0.85730    0.25759    1.000
    O24      O        0.96162    0.68710    0.03992    1.000
    O25      O        0.04086    0.55990    0.43005    1.000
    P5       P        0.08045    0.77588    0.29923    1.000
    H42      H        0.23900    0.69900    0.56260    1.000
    H43      H        0.10180    0.52100    0.29600    1.000
    H44      H        0.05240    0.54400    0.38740    1.000
    H45      H        0.01250    0.54700    0.42500    1.000
    C41      C        0.62361    0.22020    0.52776    1.000
    H46      H        0.60370    0.17920    0.55620    1.000
    C42      C        0.66317    0.19170    0.54300    1.000
    H47      H        0.67050    0.13210    0.58110    1.000
    C43      C        0.69278    0.24940    0.50200    1.000
    C44      C        0.68099    0.33620    0.44650    1.000
    H48      H        0.70090    0.37720    0.41800    1.000
    C45      C        0.64111    0.36030    0.43410    1.000
    H49      H        0.63380    0.41990    0.39600    1.000
    C46      C        0.73496    0.22440    0.51800    1.000
    C47      C        0.53589    0.25090    0.25252    1.000
    C48      C        0.53582    0.21240    0.18627    1.000
    H50      H        0.56010    0.19880    0.16390    1.000
    Cu6      Cu       0.55476    0.33315    0.44956    1.000
    N6       N        0.61238    0.30280    0.47399    1.000
    O26      O        0.56952    0.37070    0.36033    1.000
    O27      O        0.59338    0.09440    0.32205    1.000
    O28      O        0.61162    0.35730    0.25759    1.000
    O29      O        0.46162    0.18710    0.03992    1.000
    O30      O        0.54086    0.05990    0.43005    1.000
    P6       P        0.58045    0.27588    0.29923    1.000
    H51      H        0.73900    0.19900    0.56260    1.000
    H52      H        0.60180    0.02100    0.29600    1.000
    H53      H        0.55240    0.04400    0.38740    1.000
    H54      H        0.51250    0.04700    0.42500    1.000
    C49      C        0.87639    0.77980    0.02776    1.000
    H55      H        0.89630    0.82080    0.05620    1.000
    C50      C        0.83683    0.80830    0.04300    1.000
    H56      H        0.82950    0.86790    0.08110    1.000
    C51      C        0.80722    0.75060    0.00200    1.000
    C52      C        0.81901    0.66380    0.94650    1.000
    H57      H        0.79910    0.62280    0.91800    1.000
    C53      C        0.85889    0.63970    0.93410    1.000
    H58      H        0.86620    0.58010    0.89600    1.000
    C54      C        0.76504    0.77560    0.01800    1.000
    C55      C        0.96411    0.74910    0.75252    1.000
    C56      C        0.96418    0.78760    0.68627    1.000
    H59      H        0.93990    0.80120    0.66390    1.000
    Cu7      Cu       0.94524    0.66685    0.94956    1.000
    N7       N        0.88762    0.69720    0.97399    1.000
    O31      O        0.93048    0.62930    0.86033    1.000
    O32      O        0.90662    0.90560    0.82205    1.000
    O33      O        0.88838    0.64270    0.75759    1.000
    O34      O        0.03838    0.81290    0.53992    1.000
    O35      O        0.95914    0.94010    0.93005    1.000
    P7       P        0.91955    0.72412    0.79923    1.000
    H60      H        0.76100    0.80100    0.06260    1.000
    H61      H        0.89820    0.97900    0.79600    1.000
    H62      H        0.94760    0.95600    0.88740    1.000
    H63      H        0.98750    0.95300    0.92500    1.000
    C57      C        0.37639    0.27980    0.02776    1.000
    H64      H        0.39630    0.32080    0.05620    1.000
    C58      C        0.33683    0.30830    0.04300    1.000
    H65      H        0.32950    0.36790    0.08110    1.000
    C59      C        0.30722    0.25060    0.00200    1.000
    C60      C        0.31901    0.16380    0.94650    1.000
    H66      H        0.29910    0.12280    0.91800    1.000
    C61      C        0.35889    0.13970    0.93410    1.000
    H67      H        0.36620    0.08010    0.89600    1.000
    C62      C        0.26504    0.27560    0.01800    1.000
    C63      C        0.46411    0.24910    0.75252    1.000
    C64      C        0.46418    0.28760    0.68627    1.000
    H68      H        0.43990    0.30120    0.66390    1.000
    Cu8      Cu       0.44524    0.16685    0.94956    1.000
    N8       N        0.38762    0.19720    0.97399    1.000
    O36      O        0.43048    0.12930    0.86033    1.000
    O37      O        0.40662    0.40560    0.82205    1.000
    O38      O        0.38838    0.14270    0.75759    1.000
    O39      O        0.53838    0.31290    0.53992    1.000
    O40      O        0.45914    0.44010    0.93005    1.000
    P8       P        0.41955    0.22412    0.79923    1.000
    H69      H        0.26100    0.30100    0.06260    1.000
    H70      H        0.39820    0.47900    0.79600    1.000
    H71      H        0.44760    0.45600    0.88740    1.000
    H72      H        0.48750    0.45300    0.92500    1.000
    C65      C        0.12361    0.77980    0.02776    1.000
    H73      H        0.10370    0.82080    0.05620    1.000
    C66      C        0.16317    0.80830    0.04300    1.000
    H74      H        0.17050    0.86790    0.08110    1.000
    C67      C        0.19278    0.75060    0.00200    1.000
    C68      C        0.18099    0.66380    0.94650    1.000
    H75      H        0.20090    0.62280    0.91800    1.000
    C69      C        0.14111    0.63970    0.93410    1.000
    H76      H        0.13380    0.58010    0.89600    1.000
    C70      C        0.23496    0.77560    0.01800    1.000
    C71      C        0.03589    0.74910    0.75252    1.000
    C72      C        0.03582    0.78760    0.68627    1.000
    H77      H        0.06010    0.80120    0.66390    1.000
    Cu9      Cu       0.05476    0.66685    0.94956    1.000
    N9       N        0.11238    0.69720    0.97399    1.000
    O41      O        0.06952    0.62930    0.86033    1.000
    O42      O        0.09338    0.90560    0.82205    1.000
    O43      O        0.11162    0.64270    0.75759    1.000
    O44      O        0.96162    0.81290    0.53992    1.000
    O45      O        0.04086    0.94010    0.93005    1.000
    P9       P        0.08045    0.72412    0.79923    1.000
    H78      H        0.23900    0.80100    0.06260    1.000
    H79      H        0.10180    0.97900    0.79600    1.000
    H80      H        0.05240    0.95600    0.88740    1.000
    H81      H        0.01250    0.95300    0.92500    1.000
    C73      C        0.62361    0.27980    0.02776    1.000
    H82      H        0.60370    0.32080    0.05620    1.000
    C74      C        0.66317    0.30830    0.04300    1.000
    H83      H        0.67050    0.36790    0.08110    1.000
    C75      C        0.69278    0.25060    0.00200    1.000
    C76      C        0.68099    0.16380    0.94650    1.000
    H84      H        0.70090    0.12280    0.91800    1.000
    C77      C        0.64111    0.13970    0.93410    1.000
    H85      H        0.63380    0.08010    0.89600    1.000
    C78      C        0.73496    0.27560    0.01800    1.000
    C79      C        0.53589    0.24910    0.75252    1.000
    C80      C        0.53582    0.28760    0.68627    1.000
    H86      H        0.56010    0.30120    0.66390    1.000
    Cu10     Cu       0.55476    0.16685    0.94956    1.000
    N10      N        0.61238    0.19720    0.97399    1.000
    O46      O        0.56952    0.12930    0.86033    1.000
    O47      O        0.59338    0.40560    0.82205    1.000
    O48      O        0.61162    0.14270    0.75759    1.000
    O49      O        0.46162    0.31290    0.53992    1.000
    O50      O        0.54086    0.44010    0.93005    1.000
    P10      P        0.58045    0.22412    0.79923    1.000
    H87      H        0.73900    0.30100    0.06260    1.000
    H88      H        0.60180    0.47900    0.79600    1.000
    H89      H        0.55240    0.45600    0.88740    1.000
    H90      H        0.51250    0.45300    0.92500    1.000
    C81      C        0.87639    0.72020    0.52776    1.000
    H91      H        0.89630    0.67920    0.55620    1.000
    C82      C        0.83683    0.69170    0.54300    1.000
    H92      H        0.82950    0.63210    0.58110    1.000
    C83      C        0.80722    0.74940    0.50200    1.000
    C84      C        0.81901    0.83620    0.44650    1.000
    H93      H        0.79910    0.87720    0.41800    1.000
    C85      C        0.85889    0.86030    0.43410    1.000
    H94      H        0.86620    0.91990    0.39600    1.000
    C86      C        0.76504    0.72440    0.51800    1.000
    C87      C        0.96411    0.75090    0.25252    1.000
    C88      C        0.96418    0.71240    0.18627    1.000
    H95      H        0.93990    0.69880    0.16390    1.000
    Cu11     Cu       0.94524    0.83315    0.44956    1.000
    N11      N        0.88762    0.80280    0.47399    1.000
    O51      O        0.93048    0.87070    0.36033    1.000
    O52      O        0.90662    0.59440    0.32205    1.000
    O53      O        0.88838    0.85730    0.25759    1.000
    O54      O        0.03838    0.68710    0.03992    1.000
    O55      O        0.95914    0.55990    0.43005    1.000
    P11      P        0.91955    0.77588    0.29923    1.000
    H96      H        0.76100    0.69900    0.56260    1.000
    H97      H        0.89820    0.52100    0.29600    1.000
    H98      H        0.94760    0.54400    0.38740    1.000
    H99      H        0.98750    0.54700    0.42500    1.000
    C89      C        0.37639    0.22020    0.52776    1.000
    H100     H        0.39630    0.17920    0.55620    1.000
    C90      C        0.33683    0.19170    0.54300    1.000
    H101     H        0.32950    0.13210    0.58110    1.000
    C91      C        0.30722    0.24940    0.50200    1.000
    C92      C        0.31901    0.33620    0.44650    1.000
    H102     H        0.29910    0.37720    0.41800    1.000
    C93      C        0.35889    0.36030    0.43410    1.000
    H103     H        0.36620    0.41990    0.39600    1.000
    C94      C        0.26504    0.22440    0.51800    1.000
    C95      C        0.46411    0.25090    0.25252    1.000
    C96      C        0.46418    0.21240    0.18627    1.000
    H104     H        0.43990    0.19880    0.16390    1.000
    Cu12     Cu       0.44524    0.33315    0.44956    1.000
    N12      N        0.38762    0.30280    0.47399    1.000
    O56      O        0.43048    0.37070    0.36033    1.000
    O57      O        0.40662    0.09440    0.32205    1.000
    O58      O        0.38838    0.35730    0.25759    1.000
    O59      O        0.53838    0.18710    0.03992    1.000
    O60      O        0.45914    0.05990    0.43005    1.000
    P12      P        0.41955    0.27588    0.29923    1.000
    H105     H        0.26100    0.19900    0.56260    1.000
    H106     H        0.39820    0.02100    0.29600    1.000
    H107     H        0.44760    0.04400    0.38740    1.000
    H108     H        0.48750    0.04700    0.42500    1.000
    C97      C        0.87639    0.27980    0.47224    1.000
    H109     H        0.89630    0.32080    0.44380    1.000
    C98      C        0.83683    0.30830    0.45700    1.000
    H110     H        0.82950    0.36790    0.41890    1.000
    C99      C        0.80722    0.25060    0.49800    1.000
    C100     C        0.81901    0.16380    0.55350    1.000
    H111     H        0.79910    0.12280    0.58200    1.000
    C101     C        0.85889    0.13970    0.56590    1.000
    H112     H        0.86620    0.08010    0.60400    1.000
    C102     C        0.76504    0.27560    0.48200    1.000
    C103     C        0.96411    0.24910    0.74748    1.000
    C104     C        0.96418    0.28760    0.81373    1.000
    H113     H        0.93990    0.30120    0.83610    1.000
    Cu13     Cu       0.94524    0.16685    0.55044    1.000
    N13      N        0.88762    0.19720    0.52601    1.000
    O61      O        0.93048    0.12930    0.63967    1.000
    O62      O        0.90662    0.40560    0.67795    1.000
    O63      O        0.88838    0.14270    0.74241    1.000
    O64      O        0.03838    0.31290    0.96008    1.000
    O65      O        0.95914    0.44010    0.56995    1.000
    P13      P        0.91955    0.22412    0.70077    1.000
    H114     H        0.76100    0.30100    0.43740    1.000
    H115     H        0.89820    0.47900    0.70400    1.000
    H116     H        0.94760    0.45600    0.61260    1.000
    H117     H        0.98750    0.45300    0.57500    1.000
    C105     C        0.37639    0.77980    0.47224    1.000
    H118     H        0.39630    0.82080    0.44380    1.000
    C106     C        0.33683    0.80830    0.45700    1.000
    H119     H        0.32950    0.86790    0.41890    1.000
    C107     C        0.30722    0.75060    0.49800    1.000
    C108     C        0.31901    0.66380    0.55350    1.000
    H120     H        0.29910    0.62280    0.58200    1.000
    C109     C        0.35889    0.63970    0.56590    1.000
    H121     H        0.36620    0.58010    0.60400    1.000
    C110     C        0.26504    0.77560    0.48200    1.000
    C111     C        0.46411    0.74910    0.74748    1.000
    C112     C        0.46418    0.78760    0.81373    1.000
    H122     H        0.43990    0.80120    0.83610    1.000
    Cu14     Cu       0.44524    0.66685    0.55044    1.000
    N14      N        0.38762    0.69720    0.52601    1.000
    O66      O        0.43048    0.62930    0.63967    1.000
    O67      O        0.40662    0.90560    0.67795    1.000
    O68      O        0.38838    0.64270    0.74241    1.000
    O69      O        0.53838    0.81290    0.96008    1.000
    O70      O        0.45914    0.94010    0.56995    1.000
    P14      P        0.41955    0.72412    0.70077    1.000
    H123     H        0.26100    0.80100    0.43740    1.000
    H124     H        0.39820    0.97900    0.70400    1.000
    H125     H        0.44760    0.95600    0.61260    1.000
    H126     H        0.48750    0.95300    0.57500    1.000
    C113     C        0.12361    0.22020    0.97224    1.000
    H127     H        0.10370    0.17920    0.94380    1.000
    C114     C        0.16317    0.19170    0.95700    1.000
    H128     H        0.17050    0.13210    0.91890    1.000
    C115     C        0.19278    0.24940    0.99800    1.000
    C116     C        0.18099    0.33620    0.05350    1.000
    H129     H        0.20090    0.37720    0.08200    1.000
    C117     C        0.14111    0.36030    0.06590    1.000
    H130     H        0.13380    0.41990    0.10400    1.000
    C118     C        0.23496    0.22440    0.98200    1.000
    C119     C        0.03589    0.25090    0.24748    1.000
    C120     C        0.03582    0.21240    0.31373    1.000
    H131     H        0.06010    0.19880    0.33610    1.000
    Cu15     Cu       0.05476    0.33315    0.05044    1.000
    N15      N        0.11238    0.30280    0.02601    1.000
    O71      O        0.06952    0.37070    0.13967    1.000
    O72      O        0.09338    0.09440    0.17795    1.000
    O73      O        0.11162    0.35730    0.24241    1.000
    O74      O        0.96162    0.18710    0.46008    1.000
    O75      O        0.04086    0.05990    0.06995    1.000
    P15      P        0.08045    0.27588    0.20077    1.000
    H132     H        0.23900    0.19900    0.93740    1.000
    H133     H        0.10180    0.02100    0.20400    1.000
    H134     H        0.05240    0.04400    0.11260    1.000
    H135     H        0.01250    0.04700    0.07500    1.000
    C121     C        0.62361    0.72020    0.97224    1.000
    H136     H        0.60370    0.67920    0.94380    1.000
    C122     C        0.66317    0.69170    0.95700    1.000
    H137     H        0.67050    0.63210    0.91890    1.000
    C123     C        0.69278    0.74940    0.99800    1.000
    C124     C        0.68099    0.83620    0.05350    1.000
    H138     H        0.70090    0.87720    0.08200    1.000
    C125     C        0.64111    0.86030    0.06590    1.000
    H139     H        0.63380    0.91990    0.10400    1.000
    C126     C        0.73496    0.72440    0.98200    1.000
    C127     C        0.53589    0.75090    0.24748    1.000
    C128     C        0.53582    0.71240    0.31373    1.000
    H140     H        0.56010    0.69880    0.33610    1.000
    Cu16     Cu       0.55476    0.83315    0.05044    1.000
    N16      N        0.61238    0.80280    0.02601    1.000
    O76      O        0.56952    0.87070    0.13967    1.000
    O77      O        0.59338    0.59440    0.17795    1.000
    O78      O        0.61162    0.85730    0.24241    1.000
    O79      O        0.46162    0.68710    0.46008    1.000
    O80      O        0.54086    0.55990    0.06995    1.000
    P16      P        0.58045    0.77588    0.20077    1.000
    H141     H        0.73900    0.69900    0.93740    1.000
    H142     H        0.60180    0.52100    0.20400    1.000
    H143     H        0.55240    0.54400    0.11260    1.000
    H144     H        0.51250    0.54700    0.07500    1.000
    C129     C        0.00000    0.26940    0.21510    1.000
    H145     H        0.00000    0.29420    0.17000    1.000
    C130     C        0.00000    0.19300    0.34670    1.000
    O81      O        0.00000    0.92860    0.43059    1.000
    P17      P        0.00000    0.12468    0.42989    1.000
    C131     C        0.50000    0.76940    0.21510    1.000
    H146     H        0.50000    0.79420    0.17000    1.000
    C132     C        0.50000    0.69300    0.34670    1.000
    O82      O        0.50000    0.42860    0.43059    1.000
    P18      P        0.50000    0.62468    0.42989    1.000
    C133     C        0.00000    0.23060    0.71510    1.000
    H147     H        0.00000    0.20580    0.67000    1.000
    C134     C        0.00000    0.30700    0.84670    1.000
    O83      O        0.00000    0.57140    0.93059    1.000
    P19      P        0.00000    0.37532    0.92989    1.000
    C135     C        0.50000    0.73060    0.71510    1.000
    H148     H        0.50000    0.70580    0.67000    1.000
    C136     C        0.50000    0.80700    0.84670    1.000
    O84      O        0.50000    0.07140    0.93059    1.000
    P20      P        0.50000    0.87532    0.92989    1.000
    C137     C        0.00000    0.76940    0.28490    1.000
    H149     H        0.00000    0.79420    0.33000    1.000
    C138     C        0.00000    0.69300    0.15330    1.000
    O85      O        0.00000    0.42860    0.06941    1.000
    P21      P        0.00000    0.62468    0.07011    1.000
    C139     C        0.50000    0.26940    0.28490    1.000
    H150     H        0.50000    0.29420    0.33000    1.000
    C140     C        0.50000    0.19300    0.15330    1.000
    O86      O        0.50000    0.92860    0.06941    1.000
    P22      P        0.50000    0.12468    0.07011    1.000
    C141     C        0.00000    0.73060    0.78490    1.000
    H151     H        0.00000    0.70580    0.83000    1.000
    C142     C        0.00000    0.80700    0.65330    1.000
    O87      O        0.00000    0.07140    0.56941    1.000
    P23      P        0.00000    0.87532    0.57011    1.000
    C143     C        0.50000    0.23060    0.78490    1.000
    H152     H        0.50000    0.20580    0.83000    1.000
    C144     C        0.50000    0.30700    0.65330    1.000
    O88      O        0.50000    0.57140    0.56941    1.000
    P24      P        0.50000    0.37532    0.57011    1.000
