data_functionalizedCrystal
_audit_creation_method	'EQeq! by Chris Wilmer'
_symmetry_space_group_name_H-M	'P1'
_symmetry_Int_Tables_number	1
_symmetry_cell_setting	triclinic
loop_
_symmetry_equiv_pos_as_xyz
  x,y,z
_cell_length_a	15.356
_cell_length_b	15.356
_cell_length_c	12.617
_cell_angle_alpha	90
_cell_angle_beta	90
_cell_angle_gamma	120
loop_
_atom_site_label
_atom_site_type_symbol
_atom_site_fract_x
_atom_site_fract_y
_atom_site_fract_z
_atom_site_charge
Mof_Zn	Zn	0.6476	0.6828	0.9932	1.158
Mof_Zn	Zn	0.7717	0.9316	0.1944	1.197
Mof_P 	P 	0.5653	0.7394	0.1813	0.53
Mof_P 	P 	0.8439	0.7741	0.1299	0.56
Mof_O 	O 	0.793	0.752	0.022	-0.319
Mof_O 	O 	0.783	0.69	0.208	-0.467
Mof_O 	O 	0.547	0.655	0.101	-0.417
Mof_O 	O 	0.608	0.726	0.287	-0.484
Mof_O 	O 	0.64	0.84	0.134	-0.47
Mof_O 	O 	0.946	0.785	0.109	-0.37
Mof_O 	O 	0.86	0.871	0.177	-0.487
Mof_O 	O 	0.47	0.741	0.206	-0.436
Mof_Zn	Zn	0.31427	0.01613	0.32653	1.222
Mof_Zn	Zn	0.43837	0.26493	0.52773	1.185
Mof_P 	P 	0.23197	0.07273	0.51463	0.52
Mof_P 	P 	0.51057	0.10743	0.46323	0.566
Mof_O 	O 	0.45967	0.08533	0.35533	-0.427
Mof_O 	O 	0.44967	0.02333	0.54133	-0.506
Mof_O 	O 	0.21367	0.98833	0.43433	-0.51
Mof_O 	O 	0.27467	0.05933	0.62033	-0.515
Mof_O 	O 	0.30667	0.17333	0.46733	-0.528
Mof_O 	O 	0.61267	0.11833	0.44233	-0.444
Mof_O 	O 	0.52667	0.20433	0.51033	-0.52
Mof_O 	O 	0.13667	0.07433	0.53933	-0.497
Mof_Zn	Zn	0.98093	0.34947	0.65987	1.239
Mof_Zn	Zn	0.10503	0.59827	0.86107	1.148
Mof_P 	P 	0.89863	0.40607	0.84797	0.532
Mof_P 	P 	0.17723	0.44077	0.79657	0.568
Mof_O 	O 	0.12633	0.41867	0.68867	-0.479
Mof_O 	O 	0.11633	0.35667	0.87467	-0.595
Mof_O 	O 	0.88033	0.32167	0.76767	-0.52
Mof_O 	O 	0.94133	0.39267	0.95367	-0.537
Mof_O 	O 	0.97333	0.50667	0.80067	-0.509
Mof_O 	O 	0.27933	0.45167	0.77567	-0.478
Mof_O 	O 	0.19333	0.53767	0.84367	-0.574
Mof_O 	O 	0.80333	0.40767	0.87267	-0.497
Mof_Zn	Zn	0.3172	0.9648	0.9932	1.161
Mof_Zn	Zn	0.0684	0.8401	0.1944	1.175
Mof_P 	P 	0.2606	0.8259	0.1813	0.531
Mof_P 	P 	0.2259	0.0698	0.1299	0.549
Mof_O 	O 	0.248	0.041	0.022	-0.343
Mof_O 	O 	0.31	0.093	0.208	-0.477
Mof_O 	O 	0.345	0.892	0.101	-0.412
Mof_O 	O 	0.274	0.882	0.287	-0.486
Mof_O 	O 	0.16	0.8	0.134	-0.491
Mof_O 	O 	0.215	0.161	0.109	-0.413
Mof_O 	O 	0.129	0.989	0.177	-0.512
Mof_O 	O 	0.259	0.729	0.206	-0.445
Mof_Zn	Zn	0.98387	0.29813	0.32653	1.251
Mof_Zn	Zn	0.73507	0.17343	0.52773	1.185
Mof_P 	P 	0.92727	0.15923	0.51463	0.582
Mof_P 	P 	0.89257	0.40313	0.46323	0.565
Mof_O 	O 	0.91467	0.37433	0.35533	-0.405
Mof_O 	O 	0.97667	0.42633	0.54133	-0.473
Mof_O 	O 	0.01167	0.22533	0.43433	-0.583
Mof_O 	O 	0.94067	0.21533	0.62033	-0.489
Mof_O 	O 	0.82667	0.13333	0.46733	-0.529
Mof_O 	O 	0.88167	0.49433	0.44233	-0.429
Mof_O 	O 	0.79567	0.32233	0.51033	-0.519
Mof_O 	O 	0.92567	0.06233	0.53933	-0.452
Mof_Zn	Zn	0.65053	0.63147	0.65987	1.225
Mof_Zn	Zn	0.40173	0.50677	0.86107	1.165
Mof_P 	P 	0.59393	0.49257	0.84797	0.532
Mof_P 	P 	0.55923	0.73647	0.79657	0.568
Mof_O 	O 	0.58133	0.70767	0.68867	-0.443
Mof_O 	O 	0.64333	0.75967	0.87467	-0.565
Mof_O 	O 	0.67833	0.55867	0.76767	-0.527
Mof_O 	O 	0.60733	0.54867	0.95367	-0.573
Mof_O 	O 	0.49333	0.46667	0.80067	-0.548
Mof_O 	O 	0.54833	0.82767	0.77567	-0.47
Mof_O 	O 	0.46233	0.65567	0.84367	-0.563
Mof_O 	O 	0.59233	0.39567	0.87267	-0.501
Mof_Zn	Zn	0.0352	0.3524	0.9932	1.135
Mof_Zn	Zn	0.1599	0.2283	0.1944	1.188
Mof_P 	P 	0.1741	0.4347	0.1813	0.53
Mof_P 	P 	0.9302	0.1561	0.1299	0.614
Mof_O 	O 	0.959	0.207	0.022	-0.306
Mof_O 	O 	0.907	0.217	0.208	-0.462
Mof_O 	O 	0.108	0.453	0.101	-0.441
Mof_O 	O 	0.118	0.392	0.287	-0.513
Mof_O 	O 	0.2	0.36	0.134	-0.482
Mof_O 	O 	0.839	0.054	0.109	-0.412
Mof_O 	O 	0.011	0.14	0.177	-0.573
Mof_O 	O 	0.271	0.53	0.206	-0.441
Mof_Zn	Zn	0.70187	0.68573	0.32653	1.228
Mof_Zn	Zn	0.82657	0.56163	0.52773	1.188
Mof_P 	P 	0.84077	0.76803	0.51463	0.529
Mof_P 	P 	0.59687	0.48943	0.46323	0.566
Mof_O 	O 	0.62567	0.54033	0.35533	-0.422
Mof_O 	O 	0.57367	0.55033	0.54133	-0.501
Mof_O 	O 	0.77467	0.78633	0.43433	-0.506
Mof_O 	O 	0.78467	0.72533	0.62033	-0.497
Mof_O 	O 	0.86667	0.69333	0.46733	-0.511
Mof_O 	O 	0.50567	0.38733	0.44233	-0.443
Mof_O 	O 	0.67767	0.47333	0.51033	-0.519
Mof_O 	O 	0.93767	0.86333	0.53933	-0.434
Mof_Zn	Zn	0.36853	0.01907	0.65987	1.222
Mof_Zn	Zn	0.49323	0.89497	0.86107	1.168
Mof_P 	P 	0.50743	0.10137	0.84797	0.532
Mof_P 	P 	0.26353	0.82277	0.79657	0.569
Mof_O 	O 	0.29233	0.87367	0.68867	-0.446
Mof_O 	O 	0.24033	0.88367	0.87467	-0.576
Mof_O 	O 	0.44133	0.11967	0.76767	-0.534
Mof_O 	O 	0.45133	0.05867	0.95367	-0.577
Mof_O 	O 	0.53333	0.02667	0.80067	-0.549
Mof_O 	O 	0.17233	0.72067	0.77567	-0.494
Mof_O 	O 	0.34433	0.80667	0.84367	-0.563
Mof_O 	O 	0.60433	0.19667	0.87267	-0.501
Mof_Zn	Zn	0.33333	0.66667	0.1521	1.21
Mof_Zn	Zn	-0	0	0.48543	1.159
Mof_Zn	Zn	0.66667	0.33333	0.81877	1.185
_end
