# CIF file generated by openbabel 3.1.0, see https://openbabel.org
data_I
_chemical_name_common 'image0'
_cell_length_a 10.4361
_cell_length_b 11.2002
_cell_length_c 11.7349
_cell_angle_alpha 93.473
_cell_angle_beta 110.054
_cell_angle_gamma 106.436
_space_group_name_H-M_alt 'P 1'
_space_group_name_Hall 'P 1'
loop_
    _symmetry_equiv_pos_as_xyz
    x,y,z
loop_
    _atom_site_label
    _atom_site_type_symbol
    _atom_site_fract_x
    _atom_site_fract_y
    _atom_site_fract_z
    _atom_site_occupancy
    Eu1      Eu       0.10745    0.53458    0.68375    1.000
    O1       O        0.19120    0.70720    0.86160    1.000
    O2       O        0.34070    0.70620    0.76940    1.000
    O3       O        0.15510    0.51890    0.50280    1.000
    O4       O        0.12440    0.45960    0.31000    1.000
    O5       O        0.00790    0.31550    0.60210    1.000
    O6       O        0.92620    0.28300    0.39790    1.000
    O7       O        0.02100    0.17800    0.14900    1.000
    H1       H        0.07460    0.24280    0.19740    1.000
    C1       C        0.31000    0.75760    0.84940    1.000
    C2       C        0.40980    0.88380    0.92710    1.000
    C3       C        0.37020    0.94340    0.00680    1.000
    H2       H        0.28120    0.90500    0.01170    1.000
    C4       C        0.54140    0.93870    0.91740    1.000
    C5       C        0.20310    0.49050    0.42010    1.000
    C6       C        0.35540    0.49590    0.46050    1.000
    C7       C        0.39810    0.42250    0.39020    1.000
    C8       C        0.45480    0.56970    0.56720    1.000
    H3       H        0.42530    0.61750    0.61460    1.000
    C9       C        0.97140    0.24920    0.50030    1.000
    C10      C        0.98500    0.12130    0.49660    1.000
    C11      C        0.00950    0.06910    0.60350    1.000
    H4       H        0.01510    0.11570    0.67440    1.000
    C12      C        0.97430    0.04930    0.39090    1.000
    C13      C        0.97300    0.42100    0.90600    1.000
    H5       H        0.90590    0.46310    0.88120    1.000
    C14      C        0.07100    0.28600    0.98800    1.000
    C15      C        0.13200    0.33700    0.90700    1.000
    H6       H        0.20280    0.31450    0.88810    1.000
    C16      C        0.06300    0.16800    0.04400    1.000
    H7       H        0.99360    0.09530    0.98250    1.000
    H8       H        0.15640    0.15500    0.07010    1.000
    N1       N        0.58500    0.87600    0.84900    1.000
    N2       N        0.30400    0.34100    0.28800    1.000
    N3       N        0.96600    0.09600    0.27700    1.000
    N4       N        0.07450    0.42520    0.85790    1.000
    N5       N        0.97900    0.34700    0.99400    1.000
    Eu2      Eu       0.89255    0.46542    0.31625    1.000
    O8       O        0.80880    0.29280    0.13840    1.000
    O9       O        0.65930    0.29380    0.23060    1.000
    O10      O        0.84490    0.48110    0.49720    1.000
    O11      O        0.87560    0.54040    0.69000    1.000
    O12      O        0.99210    0.68450    0.39790    1.000
    O13      O        0.07380    0.71700    0.60210    1.000
    O14      O        0.97900    0.82200    0.85100    1.000
    H9       H        0.92540    0.75720    0.80260    1.000
    C17      C        0.69000    0.24240    0.15060    1.000
    C18      C        0.59020    0.11620    0.07290    1.000
    C19      C        0.62980    0.05660    0.99320    1.000
    H10      H        0.71880    0.09500    0.98830    1.000
    C20      C        0.45860    0.06130    0.08260    1.000
    C21      C        0.79690    0.50950    0.57990    1.000
    C22      C        0.64460    0.50410    0.53950    1.000
    C23      C        0.60190    0.57750    0.60980    1.000
    C24      C        0.54520    0.43030    0.43280    1.000
    H11      H        0.57470    0.38250    0.38540    1.000
    C25      C        0.02860    0.75080    0.49970    1.000
    C26      C        0.01500    0.87870    0.50340    1.000
    C27      C        0.99050    0.93090    0.39650    1.000
    H12      H        0.98490    0.88430    0.32560    1.000
    C28      C        0.02570    0.95070    0.60910    1.000
    C29      C        0.02700    0.57900    0.09400    1.000
    H13      H        0.09410    0.53690    0.11880    1.000
    C30      C        0.92900    0.71400    0.01200    1.000
    C31      C        0.86800    0.66300    0.09300    1.000
    H14      H        0.79720    0.68550    0.11190    1.000
    C32      C        0.93700    0.83200    0.95600    1.000
    H15      H        0.00640    0.90470    0.01750    1.000
    H16      H        0.84360    0.84500    0.92990    1.000
    N6       N        0.41500    0.12400    0.15100    1.000
    N7       N        0.69600    0.65900    0.71200    1.000
    N8       N        0.03400    0.90400    0.72300    1.000
    N9       N        0.92550    0.57480    0.14210    1.000
    N10      N        0.02100    0.65300    0.00600    1.000
