# CIF file generated by openbabel 3.1.0, see https://openbabel.org
data_I
_chemical_name_common 'NATNOM_charged'
_cell_length_a 9.8108
_cell_length_b 9.8108
_cell_length_c 23.417
_cell_angle_alpha 90
_cell_angle_beta 90
_cell_angle_gamma 108.967
_space_group_name_H-M_alt 'P 1'
_space_group_name_Hall 'P 1'
loop_
    _symmetry_equiv_pos_as_xyz
    x,y,z
loop_
    _atom_site_label
    _atom_site_type_symbol
    _atom_site_fract_x
    _atom_site_fract_y
    _atom_site_fract_z
    _atom_site_occupancy
    Cu1      Cu       0.00000    0.00000    0.75000    1.000
    Cu2      Cu       0.00000    0.00000    0.25000    1.000
    H1       H        0.85840    0.18600    0.69170    1.000
    H2       H        0.70720    0.17740    0.61640    1.000
    H3       H        0.60840    0.74740    0.61490    1.000
    H4       H        0.76290    0.76970    0.68990    1.000
    H5       H        0.14160    0.81400    0.69170    1.000
    H6       H        0.29280    0.82260    0.61640    1.000
    H7       H        0.39160    0.25260    0.61490    1.000
    H8       H        0.23710    0.23030    0.68990    1.000
    H9       H        0.81400    0.14160    0.80830    1.000
    H10      H        0.82260    0.29280    0.88360    1.000
    H11      H        0.25260    0.39160    0.88510    1.000
    H12      H        0.23030    0.23710    0.81010    1.000
    H13      H        0.18600    0.85840    0.80830    1.000
    H14      H        0.17740    0.70720    0.88360    1.000
    H15      H        0.74740    0.60840    0.88510    1.000
    H16      H        0.76970    0.76290    0.81010    1.000
    H17      H        0.14160    0.81400    0.30830    1.000
    H18      H        0.29280    0.82260    0.38360    1.000
    H19      H        0.39160    0.25260    0.38510    1.000
    H20      H        0.23710    0.23030    0.31010    1.000
    H21      H        0.85840    0.18600    0.30830    1.000
    H22      H        0.70720    0.17740    0.38360    1.000
    H23      H        0.60840    0.74740    0.38510    1.000
    H24      H        0.76290    0.76970    0.31010    1.000
    H25      H        0.18600    0.85840    0.19170    1.000
    H26      H        0.17740    0.70720    0.11640    1.000
    H27      H        0.74740    0.60840    0.11490    1.000
    H28      H        0.76970    0.76290    0.18990    1.000
    H29      H        0.81400    0.14160    0.19170    1.000
    H30      H        0.82260    0.29280    0.11640    1.000
    H31      H        0.25260    0.39160    0.11490    1.000
    H32      H        0.23030    0.23710    0.18990    1.000
    H33      H        0.70810    0.06570    0.50000    1.000
    H34      H        0.69050    0.89730    0.50000    1.000
    H35      H        0.29190    0.93430    0.50000    1.000
    H36      H        0.30950    0.10270    0.50000    1.000
    H37      H        0.93430    0.29190    0.00000    1.000
    H38      H        0.10270    0.30950    0.00000    1.000
    H39      H        0.06570    0.70810    0.00000    1.000
    H40      H        0.89730    0.69050    0.00000    1.000
    C1       C        0.80810    0.09470    0.67550    1.000
    C2       C        0.71680    0.09040    0.63070    1.000
    C3       C        0.63910    0.96130    0.60635    1.000
    C4       C        0.65910    0.84030    0.62966    1.000
    C5       C        0.75260    0.85520    0.67428    1.000
    C6       C        0.54150    0.94550    0.55428    1.000
    C7       C        0.19190    0.90530    0.67550    1.000
    C8       C        0.28320    0.90960    0.63070    1.000
    C9       C        0.36090    0.03870    0.60635    1.000
    C10      C        0.34090    0.15970    0.62966    1.000
    C11      C        0.24740    0.14480    0.67428    1.000
    C12      C        0.45850    0.05450    0.55428    1.000
    C13      C        0.90530    0.19190    0.82450    1.000
    C14      C        0.90960    0.28320    0.86930    1.000
    C15      C        0.03870    0.36090    0.89365    1.000
    C16      C        0.15970    0.34090    0.87034    1.000
    C17      C        0.14480    0.24740    0.82572    1.000
    C18      C        0.05450    0.45850    0.94572    1.000
    C19      C        0.09470    0.80810    0.82450    1.000
    C20      C        0.09040    0.71680    0.86930    1.000
    C21      C        0.96130    0.63910    0.89365    1.000
    C22      C        0.84030    0.65910    0.87034    1.000
    C23      C        0.85520    0.75260    0.82572    1.000
    C24      C        0.94550    0.54150    0.94572    1.000
    C25      C        0.19190    0.90530    0.32450    1.000
    C26      C        0.28320    0.90960    0.36930    1.000
    C27      C        0.36090    0.03870    0.39365    1.000
    C28      C        0.34090    0.15970    0.37034    1.000
    C29      C        0.24740    0.14480    0.32572    1.000
    C30      C        0.45850    0.05450    0.44572    1.000
    C31      C        0.80810    0.09470    0.32450    1.000
    C32      C        0.71680    0.09040    0.36930    1.000
    C33      C        0.63910    0.96130    0.39365    1.000
    C34      C        0.65910    0.84030    0.37034    1.000
    C35      C        0.75260    0.85520    0.32572    1.000
    C36      C        0.54150    0.94550    0.44572    1.000
    C37      C        0.09470    0.80810    0.17550    1.000
    C38      C        0.09040    0.71680    0.13070    1.000
    C39      C        0.96130    0.63910    0.10635    1.000
    C40      C        0.84030    0.65910    0.12966    1.000
    C41      C        0.85520    0.75260    0.17428    1.000
    C42      C        0.94550    0.54150    0.05428    1.000
    C43      C        0.90530    0.19190    0.17550    1.000
    C44      C        0.90960    0.28320    0.13070    1.000
    C45      C        0.03870    0.36090    0.10635    1.000
    C46      C        0.15970    0.34090    0.12966    1.000
    C47      C        0.14480    0.24740    0.17428    1.000
    C48      C        0.05450    0.45850    0.05428    1.000
    C49      C        0.63710    0.96730    0.50000    1.000
    C50      C        0.36290    0.03270    0.50000    1.000
    C51      C        0.03270    0.36290    0.00000    1.000
    C52      C        0.96730    0.63710    0.00000    1.000
    N1       N        0.83056    0.98024    0.69755    1.000
    N2       N        0.16944    0.01976    0.69755    1.000
    N3       N        0.01976    0.16944    0.80245    1.000
    N4       N        0.98024    0.83056    0.80245    1.000
    N5       N        0.16944    0.01976    0.30245    1.000
    N6       N        0.83056    0.98024    0.30245    1.000
    N7       N        0.98024    0.83056    0.19755    1.000
    N8       N        0.01976    0.16944    0.19755    1.000
    O1       O        0.43540    0.80500    0.54910    1.000
    O2       O        0.56460    0.19500    0.54910    1.000
    O3       O        0.19500    0.56460    0.95090    1.000
    O4       O        0.80500    0.43540    0.95090    1.000
    O5       O        0.56460    0.19500    0.45090    1.000
    O6       O        0.43540    0.80500    0.45090    1.000
    O7       O        0.80500    0.43540    0.04910    1.000
    O8       O        0.19500    0.56460    0.04910    1.000
    N9       N        0.00000    0.50000    0.63350    1.000
    O9       O        0.88290    0.45490    0.60690    1.000
    O10      O        0.11710    0.54510    0.60690    1.000
    O11      O        0.00000    0.50000    0.68710    1.000
    N10      N        0.50000    0.00000    0.86650    1.000
    O12      O        0.54510    0.11710    0.89310    1.000
    O13      O        0.45490    0.88290    0.89310    1.000
    O14      O        0.50000    0.00000    0.81290    1.000
    N11      N        0.00000    0.50000    0.36650    1.000
    O15      O        0.11710    0.54510    0.39310    1.000
    O16      O        0.88290    0.45490    0.39310    1.000
    O17      O        0.00000    0.50000    0.31290    1.000
    N12      N        0.50000    0.00000    0.13350    1.000
    O18      O        0.45490    0.88290    0.10690    1.000
    O19      O        0.54510    0.11710    0.10690    1.000
    O20      O        0.50000    0.00000    0.18710    1.000
    Cl1      Cl       0.50000    0.50000    0.50000    1.000
    Cl2      Cl       0.50000    0.50000    0.00000    1.000
