data_functionalizedCrystal
_audit_creation_method	'EQeq! by Chris Wilmer'
_symmetry_space_group_name_H-M	'P1'
_symmetry_Int_Tables_number	1
_symmetry_cell_setting	triclinic
loop_
_symmetry_equiv_pos_as_xyz
  x,y,z
_cell_length_a	20.014
_cell_length_b	37.956
_cell_length_c	25.085
_cell_angle_alpha	90
_cell_angle_beta	109.384
_cell_angle_gamma	90
loop_
_atom_site_label
_atom_site_type_symbol
_atom_site_fract_x
_atom_site_fract_y
_atom_site_fract_z
_atom_site_charge
Mof_Cu	Cu	0.53904	0.12661	0.33228	0.766
Mof_Cu	Cu	0.55122	0.97368	0.36623	0.826
Mof_Cu	Cu	0.09482	0.25486	0.50078	0.806
Mof_Cu	Cu	0.79563	0.21764	0.38377	0.826
Mof_Cu	Cu	0.00591	0.32871	0.43257	0.805
Mof_Cu	Cu	0.31445	0.20669	0.382	0.831
Mof_Cu	Cu	0.14895	0.33082	0.40653	0.812
Mof_Cu	Cu	0.61018	0.09318	0.24663	0.779
Mof_Br	Br	0.13121	0.321	0.51096	-0.748
Mof_C 	C 	0.219	0.20598	0.54553	0.115
Mof_C 	C 	0.1457	0.18362	0.44929	0.081
Mof_H 	H 	0.1411	0.2064	0.4348	-0.052
Mof_C 	C 	0.1162	0.12204	0.4363	0.193
Mof_C 	C 	0.1626	0.11575	0.4908	-0.223
Mof_H 	H 	0.1696	0.0928	0.5044	0.095
Mof_C 	C 	0.1888	0.1776	0.50532	-0.163
Mof_C 	C 	0.198	0.14274	0.5248	0.091
Mof_H 	H 	0.2284	0.1379	0.5611	-0.049
Mof_C 	C 	0.1097	0.15606	0.415	-0.221
Mof_H 	H 	0.0814	0.1605	0.3779	0.09
Mof_C 	C 	0.2841	0.23443	0.61903	0.108
Mof_C 	C 	0.3387	0.24487	0.67231	-0.168
Mof_C 	C 	0.3792	0.22016	0.7108	0.073
Mof_H 	H 	0.3746	0.1964	0.7011	-0.054
Mof_C 	C 	0.4265	0.23008	0.7635	-0.208
Mof_H 	H 	0.4526	0.213	0.7882	0.068
Mof_C 	C 	0.3474	0.28019	0.6887	0.082
Mof_H 	H 	0.3215	0.2974	0.664	-0.051
Mof_C 	C 	0.4346	0.26525	0.7793	0.182
Mof_C 	C 	0.3942	0.29029	0.7414	-0.223
Mof_H 	H 	0.3986	0.314	0.7513	0.097
Mof_C 	C 	0.6058	0.90402	0.38188	0.117
Mof_C 	C 	0.6704	0.91388	0.36996	-0.177
Mof_C 	C 	0.6969	0.89388	0.3353	0.086
Mof_H 	H 	0.6713	0.8745	0.3165	-0.043
Mof_C 	C 	0.7612	0.9023	0.3282	-0.225
Mof_H 	H 	0.7777	0.8888	0.3043	0.092
Mof_C 	C 	0.7094	0.94306	0.3971	0.09
Mof_H 	H 	0.6922	0.957	0.4202	-0.053
Mof_C 	C 	0.8007	0.93075	0.3566	0.196
Mof_C 	C 	0.773	0.95161	0.3903	-0.224
Mof_H 	H 	0.7977	0.9714	0.4082	0.089
Mof_C 	C 	0.5122	0.90654	0.40662	0.139
Mof_C 	C 	0.4583	0.95642	0.4423	0.135
Mof_H 	H 	0.4955	0.9705	0.4405	-0.079
Mof_C 	C 	0.4071	0.97069	0.4613	-0.258
Mof_H 	H 	0.4116	0.994	0.4734	0.107
Mof_C 	C 	0.4555	0.92126	0.4256	-0.188
Mof_C 	C 	0.4011	0.90062	0.4311	0.117
Mof_H 	H 	0.4004	0.8766	0.4236	-0.057
Mof_C 	C 	0.3471	0.91546	0.4479	-0.245
Mof_H 	H 	0.3096	0.9014	0.4492	0.109
Mof_C 	C 	0.3489	0.9514	0.4629	0.219
Mof_C 	C 	0.7265	0.14184	0.41284	-0.17
Mof_C 	C 	0.7628	0.15477	0.4666	0.08
Mof_H 	H 	0.7588	0.1785	0.474	-0.041
Mof_C 	C 	0.7332	0.1066	0.4024	0.091
Mof_H 	H 	0.7089	0.0972	0.367	-0.05
Mof_C 	C 	0.6826	0.16556	0.36761	0.12
Mof_C 	C 	0.8049	0.13332	0.5095	-0.218
Mof_H 	H 	0.8276	0.1426	0.5452	0.091
Mof_C 	C 	0.7764	0.08497	0.4448	-0.221
Mof_H 	H 	0.781	0.0613	0.4372	0.088
Mof_C 	C 	0.813	0.09825	0.4988	0.182
Mof_C 	C 	0.6487	0.24266	0.28042	-0.167
Mof_C 	C 	0.7013	0.24999	0.25645	0.074
Mof_H 	H 	0.7395	0.2348	0.2625	-0.046
Mof_C 	C 	0.6962	0.27993	0.22386	-0.237
Mof_H 	H 	0.7317	0.2849	0.2086	0.096
Mof_C 	C 	0.5929	0.26634	0.27218	0.077
Mof_H 	H 	0.5587	0.2621	0.289	-0.03
Mof_C 	C 	0.6499	0.20988	0.31179	0.122
Mof_C 	C 	0.639	0.30254	0.2136	0.202
Mof_C 	C 	0.5881	0.29604	0.23933	-0.221
Mof_H 	H 	0.5508	0.3117	0.2343	0.089
Mof_C 	C 	0.5932	0.02829	0.30547	0.118
Mof_C 	C 	0.6342	0.00538	0.27978	-0.17
Mof_C 	C 	0.6068	0.97353	0.2544	0.082
Mof_H 	H 	0.5645	0.965	0.2572	-0.065
Mof_C 	C 	0.706	0.96643	0.2208	0.204
Mof_C 	C 	0.6996	0.01693	0.2774	0.082
Mof_H 	H 	0.719	0.0379	0.295	-0.036
Mof_C 	C 	0.6426	0.95456	0.2251	-0.235
Mof_H 	H 	0.6236	0.9334	0.2079	0.09
Mof_C 	C 	0.7353	0.99742	0.2491	-0.224
Mof_H 	H 	0.7795	0.0049	0.2489	0.094
Mof_C 	C 	0.4126	0.03669	0.3663	0.049
Mof_H 	H 	0.4044	0.018	0.341	-0.02
Mof_C 	C 	0.4364	0.09182	0.44226	-0.21
Mof_H 	H 	0.4447	0.1105	0.4677	0.091
Mof_C 	C 	0.4764	0.05494	0.38038	-0.174
Mof_C 	C 	0.527	0.04933	0.34997	0.103
Mof_C 	C 	0.4874	0.08279	0.41929	0.073
Mof_H 	H 	0.5298	0.0952	0.4296	-0.037
Mof_C 	C 	0.3723	0.07365	0.4283	0.19
Mof_C 	C 	0.3605	0.04594	0.3896	-0.214
Mof_H 	H 	0.3179	0.0336	0.3793	0.093
Mof_C 	C 	0.9632	0.19272	0.46297	-0.176
Mof_C 	C 	0.0145	0.18406	0.51522	0.111
Mof_H 	H 	0.0389	0.202	0.5389	-0.064
Mof_C 	C 	0.9273	0.16537	0.4279	0.111
Mof_H 	H 	0.8931	0.1704	0.3933	-0.065
Mof_C 	C 	0.9426	0.13063	0.4447	-0.244
Mof_H 	H 	0.9186	0.1126	0.4211	0.103
Mof_C 	C 	0.9477	0.22943	0.44509	0.135
Mof_C 	C 	0.0291	0.14982	0.53184	-0.26
Mof_H 	H 	0.0629	0.1448	0.5667	0.106
Mof_C 	C 	0.9937	0.12232	0.4969	0.238
Mof_C 	C 	0.8921	0.27614	0.40575	0.12
Mof_C 	C 	0.7691	0.29932	0.38549	0.091
Mof_H 	H 	0.7609	0.2816	0.4082	-0.056
Mof_C 	C 	0.7164	0.32361	0.3614	-0.22
Mof_H 	H 	0.6734	0.322	0.368	0.093
Mof_C 	C 	0.7273	0.35058	0.32742	0.195
Mof_C 	C 	0.7919	0.35135	0.3168	-0.223
Mof_H 	H 	0.7992	0.3685	0.2929	0.093
Mof_C 	C 	0.8449	0.32707	0.34131	0.093
Mof_H 	H 	0.8876	0.3284	0.3342	-0.053
Mof_C 	C 	0.8348	0.3006	0.37662	-0.175
Mof_C 	C 	0.3323	0.14671	0.31122	0.127
Mof_C 	C 	0.2589	0.13398	0.28758	-0.154
Mof_C 	C 	0.2329	0.12303	0.2315	0.066
Mof_H 	H 	0.2595	0.1276	0.2081	-0.046
Mof_C 	C 	0.2178	0.12805	0.3217	0.063
Mof_H 	H 	0.2341	0.1349	0.3595	-0.013
Mof_C 	C 	0.1695	0.1058	0.2095	-0.219
Mof_H 	H 	0.1544	0.0986	0.1719	0.088
Mof_C 	C 	0.1284	0.0991	0.242	0.169
Mof_C 	C 	0.1516	0.1116	0.2989	-0.196
Mof_H 	H 	0.1226	0.1089	0.3209	0.086
Mof_C 	C 	0.4821	0.19976	0.38808	-0.172
Mof_C 	C 	0.4724	0.23484	0.37265	0.026
Mof_H 	H 	0.4299	0.2422	0.3462	-0.024
Mof_C 	C 	0.5258	0.25908	0.3965	-0.199
Mof_H 	H 	0.519	0.2826	0.3854	0.086
Mof_C 	C 	0.599	0.21343	0.4541	-0.204
Mof_H 	H 	0.6405	0.2061	0.4818	0.084
Mof_C 	C 	0.5902	0.24859	0.4373	0.167
Mof_C 	C 	0.429	0.17367	0.35595	0.098
Mof_C 	C 	0.5452	0.18941	0.42928	0.051
Mof_H 	H 	0.5515	0.1659	0.4403	-0.032
Mof_N 	N 	0.55048	0.07648	0.32784	-0.281
Mof_N 	N 	0.5529	0.01851	0.33751	-0.288
Mof_N 	N 	0.59285	0.0627	0.29893	-0.267
Mof_N 	N 	0.28177	0.20434	0.58956	-0.282
Mof_N 	N 	0.22591	0.25406	0.59433	-0.244
Mof_N 	N 	0.18441	0.23569	0.54694	-0.245
Mof_N 	N 	0.99596	0.25473	0.45586	-0.249
Mof_N 	N 	0.95978	0.285	0.43083	-0.251
Mof_N 	N 	0.88178	0.24139	0.41393	-0.283
Mof_N 	N 	0.52924	0.87303	0.40746	-0.249
Mof_N 	N 	0.59037	0.87111	0.39172	-0.258
Mof_N 	N 	0.55752	0.92674	0.38935	-0.288
Mof_N 	N 	0.38513	0.12939	0.30188	-0.268
Mof_N 	N 	0.44717	0.14676	0.33006	-0.274
Mof_N 	N 	0.35738	0.17476	0.34545	-0.274
Mof_N 	N 	0.70685	0.19632	0.35301	-0.285
Mof_N 	N 	0.61502	0.16027	0.3365	-0.264
Mof_N 	N 	0.59385	0.18862	0.30081	-0.268
Mof_N 	N 	0.6748	0.37549	0.3034	-0.321
Mof_H 	H 	0.635	0.3744	0.3095	0.131
Mof_H 	H 	0.6822	0.392	0.2825	0.133
Mof_N 	N 	0.6319	0.331	0.178	-0.327
Mof_H 	H 	0.6631	0.3348	0.162	0.138
Mof_H 	H 	0.5962	0.3449	0.1719	0.134
Mof_N 	N 	0.3229	0.08179	0.4543	-0.328
Mof_H 	H 	0.3316	0.0982	0.4792	0.153
Mof_H 	H 	0.2836	0.0704	0.4453	0.14
Mof_N 	N 	0.7417	0.9473	0.1914	-0.326
Mof_H 	H 	0.7245	0.9277	0.1754	0.145
Mof_H 	H 	0.7811	0.9551	0.1891	0.135
Mof_N 	N 	0.6452	0.27255	0.4605	-0.313
Mof_H 	H 	0.6842	0.2656	0.4851	0.11
Mof_H 	H 	0.64	0.2943	0.4503	0.132
Mof_N 	N 	0.0771	0.09427	0.4032	-0.318
Mof_H 	H 	0.0489	0.0983	0.3695	0.129
Mof_H 	H 	0.0814	0.0732	0.4167	0.127
Mof_N 	N 	0.0112	0.08793	0.5123	-0.346
Mof_H 	H 	0.0441	0.0832	0.5437	0.141
Mof_H 	H 	0.9892	0.0711	0.4907	0.145
Mof_N 	N 	0.4829	0.27487	0.8317	-0.313
Mof_H 	H 	0.5075	0.259	0.8542	0.114
Mof_H 	H 	0.488	0.2967	0.8415	0.135
Mof_N 	N 	0.8542	0.07619	0.5432	-0.318
Mof_H 	H 	0.874	0.0847	0.5765	0.132
Mof_H 	H 	0.8595	0.0543	0.5368	0.126
Mof_N 	N 	0.8673	0.93818	0.3532	-0.324
Mof_H 	H 	0.8847	0.925	0.3333	0.131
Mof_H 	H 	0.891	0.9559	0.3712	0.131
Mof_N 	N 	0.2968	0.9669	0.4786	-0.336
Mof_H 	H 	0.2998	0.9888	0.4876	0.132
Mof_H 	H 	0.261	0.9547	0.4795	0.145
Mof_N 	N 	0.062	0.0818	0.2188	-0.311
Mof_H 	H 	0.0475	0.0754	0.184	0.123
Mof_H 	H 	0.0363	0.0777	0.2397	0.118
Mof_Cu	Cu	0.03904	0.62661	0.33228	0.764
Mof_Cu	Cu	0.05122	0.47368	0.36623	0.825
Mof_Cu	Cu	0.59482	0.75486	0.50078	0.808
Mof_Cu	Cu	0.29563	0.71764	0.38377	0.827
Mof_Cu	Cu	0.50591	0.82871	0.43257	0.809
Mof_Cu	Cu	0.81445	0.70669	0.382	0.832
Mof_Cu	Cu	0.64895	0.83082	0.40653	0.813
Mof_Cu	Cu	0.11018	0.59318	0.24663	0.779
Mof_Br	Br	0.63121	0.821	0.51096	-0.745
Mof_C 	C 	0.719	0.70598	0.54553	0.117
Mof_C 	C 	0.6457	0.68362	0.44929	0.084
Mof_H 	H 	0.6411	0.7064	0.4348	-0.051
Mof_C 	C 	0.6162	0.62204	0.4363	0.197
Mof_C 	C 	0.6626	0.61575	0.4908	-0.223
Mof_H 	H 	0.6696	0.5928	0.5044	0.097
Mof_C 	C 	0.6888	0.6776	0.50532	-0.163
Mof_C 	C 	0.698	0.64274	0.5248	0.094
Mof_H 	H 	0.7284	0.6379	0.5611	-0.049
Mof_C 	C 	0.6097	0.65606	0.415	-0.221
Mof_H 	H 	0.5814	0.6605	0.3779	0.094
Mof_C 	C 	0.7841	0.73443	0.61903	0.109
Mof_C 	C 	0.8387	0.74487	0.67231	-0.167
Mof_C 	C 	0.8792	0.72016	0.7108	0.074
Mof_H 	H 	0.8746	0.6964	0.7011	-0.054
Mof_C 	C 	0.9265	0.73008	0.7635	-0.206
Mof_H 	H 	0.9526	0.713	0.7882	0.07
Mof_C 	C 	0.8474	0.78019	0.6887	0.082
Mof_H 	H 	0.8215	0.7974	0.664	-0.051
Mof_C 	C 	0.9346	0.76525	0.7793	0.182
Mof_C 	C 	0.8942	0.79029	0.7414	-0.222
Mof_H 	H 	0.8986	0.814	0.7513	0.098
Mof_C 	C 	0.1058	0.40402	0.38188	0.116
Mof_C 	C 	0.1704	0.41388	0.36996	-0.177
Mof_C 	C 	0.1969	0.39388	0.3353	0.085
Mof_H 	H 	0.1713	0.3745	0.3165	-0.044
Mof_C 	C 	0.2612	0.4023	0.3282	-0.224
Mof_H 	H 	0.2777	0.3888	0.3043	0.092
Mof_C 	C 	0.2094	0.44306	0.3971	0.09
Mof_H 	H 	0.1922	0.457	0.4202	-0.054
Mof_C 	C 	0.3007	0.43075	0.3566	0.196
Mof_C 	C 	0.273	0.45161	0.3903	-0.224
Mof_H 	H 	0.2977	0.4714	0.4082	0.089
Mof_C 	C 	0.0122	0.40654	0.40662	0.128
Mof_C 	C 	0.9583	0.45642	0.4423	0.127
Mof_H 	H 	0.9955	0.4705	0.4405	-0.072
Mof_C 	C 	0.9071	0.47069	0.4613	-0.251
Mof_H 	H 	0.9116	0.494	0.4734	0.106
Mof_C 	C 	0.9555	0.42126	0.4256	-0.172
Mof_C 	C 	0.9011	0.40062	0.4311	0.109
Mof_H 	H 	0.9004	0.3766	0.4236	-0.052
Mof_C 	C 	0.8471	0.41546	0.4479	-0.239
Mof_H 	H 	0.8096	0.4014	0.4492	0.107
Mof_C 	C 	0.8489	0.4514	0.4629	0.215
Mof_C 	C 	0.2265	0.64184	0.41284	-0.169
Mof_C 	C 	0.2628	0.65477	0.4666	0.079
Mof_H 	H 	0.2588	0.6785	0.474	-0.04
Mof_C 	C 	0.2332	0.6066	0.4024	0.09
Mof_H 	H 	0.2089	0.5972	0.367	-0.05
Mof_C 	C 	0.1826	0.66556	0.36761	0.119
Mof_C 	C 	0.3049	0.63332	0.5095	-0.218
Mof_H 	H 	0.3276	0.6426	0.5452	0.09
Mof_C 	C 	0.2764	0.58497	0.4448	-0.221
Mof_H 	H 	0.281	0.5613	0.4372	0.087
Mof_C 	C 	0.313	0.59825	0.4988	0.181
Mof_C 	C 	0.1487	0.74266	0.28042	-0.167
Mof_C 	C 	0.2013	0.74999	0.25645	0.074
Mof_H 	H 	0.2395	0.7348	0.2625	-0.046
Mof_C 	C 	0.1962	0.77993	0.22386	-0.237
Mof_H 	H 	0.2317	0.7849	0.2086	0.096
Mof_C 	C 	0.0929	0.76634	0.27218	0.076
Mof_H 	H 	0.0587	0.7621	0.289	-0.032
Mof_C 	C 	0.1499	0.70988	0.31179	0.122
Mof_C 	C 	0.139	0.80254	0.2136	0.201
Mof_C 	C 	0.0881	0.79604	0.23933	-0.221
Mof_H 	H 	0.0508	0.8117	0.2343	0.087
Mof_C 	C 	0.0932	0.52829	0.30547	0.117
Mof_C 	C 	0.1342	0.50538	0.27978	-0.171
Mof_C 	C 	0.1068	0.47353	0.2544	0.082
Mof_H 	H 	0.0645	0.465	0.2572	-0.067
Mof_C 	C 	0.206	0.46643	0.2208	0.204
Mof_C 	C 	0.1996	0.51693	0.2774	0.082
Mof_H 	H 	0.219	0.5379	0.295	-0.036
Mof_C 	C 	0.1426	0.45456	0.2251	-0.235
Mof_H 	H 	0.1236	0.4334	0.2079	0.089
Mof_C 	C 	0.2353	0.49742	0.2491	-0.224
Mof_H 	H 	0.2795	0.5049	0.2489	0.094
Mof_C 	C 	0.9126	0.53669	0.3663	0.051
Mof_H 	H 	0.9044	0.518	0.341	-0.019
Mof_C 	C 	0.9364	0.59182	0.44226	-0.221
Mof_H 	H 	0.9447	0.6105	0.4677	0.096
Mof_C 	C 	0.9764	0.55494	0.38038	-0.172
Mof_C 	C 	0.027	0.54933	0.34997	0.096
Mof_C 	C 	0.9874	0.58279	0.41929	0.094
Mof_H 	H 	0.0298	0.5952	0.4296	-0.05
Mof_C 	C 	0.8723	0.57365	0.4283	0.195
Mof_C 	C 	0.8605	0.54594	0.3896	-0.217
Mof_H 	H 	0.8179	0.5336	0.3793	0.094
Mof_C 	C 	0.4632	0.69272	0.46297	-0.182
Mof_C 	C 	0.5145	0.68406	0.51522	0.114
Mof_H 	H 	0.5389	0.702	0.5389	-0.063
Mof_C 	C 	0.4273	0.66537	0.4279	0.107
Mof_H 	H 	0.3931	0.6704	0.3933	-0.064
Mof_C 	C 	0.4426	0.63063	0.4447	-0.234
Mof_H 	H 	0.4186	0.6126	0.4211	0.099
Mof_C 	C 	0.4477	0.72943	0.44509	0.135
Mof_C 	C 	0.5291	0.64982	0.53184	-0.242
Mof_H 	H 	0.5629	0.6448	0.5667	0.101
Mof_C 	C 	0.4937	0.62232	0.4969	0.215
Mof_C 	C 	0.3921	0.77614	0.40575	0.119
Mof_C 	C 	0.2691	0.79932	0.38549	0.092
Mof_H 	H 	0.2609	0.7816	0.4082	-0.056
Mof_C 	C 	0.2164	0.82361	0.3614	-0.22
Mof_H 	H 	0.1734	0.822	0.368	0.092
Mof_C 	C 	0.2273	0.85058	0.32742	0.195
Mof_C 	C 	0.2919	0.85135	0.3168	-0.224
Mof_H 	H 	0.2992	0.8685	0.2929	0.093
Mof_C 	C 	0.3449	0.82707	0.34131	0.094
Mof_H 	H 	0.3876	0.8284	0.3342	-0.055
Mof_C 	C 	0.3348	0.8006	0.37662	-0.176
Mof_C 	C 	0.8323	0.64671	0.31122	0.127
Mof_C 	C 	0.7589	0.63398	0.28758	-0.155
Mof_C 	C 	0.7329	0.62303	0.2315	0.067
Mof_H 	H 	0.7595	0.6276	0.2081	-0.046
Mof_C 	C 	0.7178	0.62805	0.3217	0.064
Mof_H 	H 	0.7341	0.6349	0.3595	-0.013
Mof_C 	C 	0.6695	0.6058	0.2095	-0.22
Mof_H 	H 	0.6544	0.5986	0.1719	0.089
Mof_C 	C 	0.6284	0.5991	0.242	0.171
Mof_C 	C 	0.6516	0.6116	0.2989	-0.197
Mof_H 	H 	0.6226	0.6089	0.3209	0.087
Mof_C 	C 	0.9821	0.69976	0.38808	-0.164
Mof_C 	C 	0.9724	0.73484	0.37265	0.038
Mof_H 	H 	0.9299	0.7422	0.3462	-0.026
Mof_C 	C 	0.0258	0.75908	0.3965	-0.212
Mof_H 	H 	0.019	0.7826	0.3854	0.087
Mof_C 	C 	0.099	0.71343	0.4541	-0.201
Mof_H 	H 	0.1405	0.7061	0.4818	0.083
Mof_C 	C 	0.0902	0.74859	0.4373	0.168
Mof_C 	C 	0.929	0.67367	0.35595	0.097
Mof_C 	C 	0.0452	0.68941	0.42928	0.039
Mof_H 	H 	0.0515	0.6659	0.4403	-0.03
Mof_N 	N 	0.05048	0.57648	0.32784	-0.282
Mof_N 	N 	0.0529	0.51851	0.33751	-0.289
Mof_N 	N 	0.09285	0.5627	0.29893	-0.267
Mof_N 	N 	0.78177	0.70434	0.58956	-0.282
Mof_N 	N 	0.72591	0.75406	0.59433	-0.244
Mof_N 	N 	0.68441	0.73569	0.54694	-0.245
Mof_N 	N 	0.49596	0.75473	0.45586	-0.252
Mof_N 	N 	0.45978	0.785	0.43083	-0.254
Mof_N 	N 	0.38178	0.74139	0.41393	-0.283
Mof_N 	N 	0.02924	0.37303	0.40746	-0.249
Mof_N 	N 	0.09037	0.37111	0.39172	-0.258
Mof_N 	N 	0.05752	0.42674	0.38935	-0.287
Mof_N 	N 	0.88513	0.62939	0.30188	-0.268
Mof_N 	N 	0.94717	0.64676	0.33006	-0.271
Mof_N 	N 	0.85738	0.67476	0.34545	-0.274
Mof_N 	N 	0.20685	0.69632	0.35301	-0.285
Mof_N 	N 	0.11502	0.66027	0.3365	-0.265
Mof_N 	N 	0.09385	0.68862	0.30081	-0.269
Mof_N 	N 	0.1748	0.87549	0.3034	-0.321
Mof_H 	H 	0.135	0.8744	0.3095	0.129
Mof_H 	H 	0.1822	0.892	0.2825	0.132
Mof_N 	N 	0.1319	0.831	0.178	-0.327
Mof_H 	H 	0.1631	0.8348	0.162	0.137
Mof_H 	H 	0.0962	0.8449	0.1719	0.132
Mof_N 	N 	0.8229	0.58179	0.4543	-0.329
Mof_H 	H 	0.8316	0.5982	0.4792	0.153
Mof_H 	H 	0.7836	0.5704	0.4453	0.14
Mof_N 	N 	0.2417	0.4473	0.1914	-0.326
Mof_H 	H 	0.2245	0.4277	0.1754	0.145
Mof_H 	H 	0.2811	0.4551	0.1891	0.135
Mof_N 	N 	0.1452	0.77255	0.4605	-0.314
Mof_H 	H 	0.1842	0.7656	0.4851	0.11
Mof_H 	H 	0.14	0.7943	0.4503	0.131
Mof_N 	N 	0.5771	0.59427	0.4032	-0.319
Mof_H 	H 	0.5489	0.5983	0.3695	0.132
Mof_H 	H 	0.5814	0.5732	0.4167	0.13
Mof_N 	N 	0.5112	0.58793	0.5123	-0.329
Mof_H 	H 	0.5441	0.5832	0.5437	0.139
Mof_H 	H 	0.4892	0.5711	0.4907	0.134
Mof_N 	N 	0.9829	0.77487	0.8317	-0.303
Mof_H 	H 	0.0075	0.759	0.8542	0.104
Mof_H 	H 	0.988	0.7967	0.8415	0.135
Mof_N 	N 	0.3542	0.57619	0.5432	-0.317
Mof_H 	H 	0.374	0.5847	0.5765	0.131
Mof_H 	H 	0.3595	0.5543	0.5368	0.125
Mof_N 	N 	0.3673	0.43818	0.3532	-0.323
Mof_H 	H 	0.3847	0.425	0.3333	0.129
Mof_H 	H 	0.391	0.4559	0.3712	0.129
Mof_N 	N 	0.7968	0.4669	0.4786	-0.335
Mof_H 	H 	0.7998	0.4888	0.4876	0.132
Mof_H 	H 	0.761	0.4547	0.4795	0.145
Mof_N 	N 	0.562	0.5818	0.2188	-0.312
Mof_H 	H 	0.5475	0.5754	0.184	0.126
Mof_H 	H 	0.5363	0.5777	0.2397	0.121
Mof_Cu	Cu	0.46096	0.12661	0.16772	0.767
Mof_Cu	Cu	0.44878	0.97368	0.13377	0.827
Mof_Cu	Cu	0.90518	0.25486	0.99922	0.81
Mof_Cu	Cu	0.20437	0.21764	0.11623	0.827
Mof_Cu	Cu	0.99409	0.32871	0.06743	0.813
Mof_Cu	Cu	0.68555	0.20669	0.118	0.832
Mof_Cu	Cu	0.85105	0.33082	0.09347	0.814
Mof_Cu	Cu	0.38982	0.09318	0.25337	0.78
Mof_Br	Br	0.86879	0.321	0.98904	-0.744
Mof_C 	C 	0.781	0.20598	0.95447	0.117
Mof_C 	C 	0.8543	0.18362	0.05071	0.085
Mof_H 	H 	0.8589	0.2064	0.0652	-0.05
Mof_C 	C 	0.8838	0.12204	0.0637	0.199
Mof_C 	C 	0.8374	0.11575	0.0092	-0.224
Mof_H 	H 	0.8304	0.0928	0.9956	0.098
Mof_C 	C 	0.8112	0.1776	0.99468	-0.164
Mof_C 	C 	0.802	0.14274	0.9752	0.095
Mof_H 	H 	0.7716	0.1379	0.9389	-0.049
Mof_C 	C 	0.8903	0.15606	0.085	-0.222
Mof_H 	H 	0.9186	0.1605	0.1221	0.096
Mof_C 	C 	0.7159	0.23443	0.88097	0.109
Mof_C 	C 	0.6613	0.24487	0.82769	-0.168
Mof_C 	C 	0.6208	0.22016	0.7892	0.073
Mof_H 	H 	0.6254	0.1964	0.7989	-0.054
Mof_C 	C 	0.5735	0.23008	0.7365	-0.208
Mof_H 	H 	0.5474	0.213	0.7118	0.068
Mof_C 	C 	0.6526	0.28019	0.8113	0.082
Mof_H 	H 	0.6785	0.2974	0.836	-0.051
Mof_C 	C 	0.5654	0.26525	0.7207	0.182
Mof_C 	C 	0.6058	0.29029	0.7586	-0.223
Mof_H 	H 	0.6014	0.314	0.7487	0.097
Mof_C 	C 	0.3942	0.90402	0.11812	0.117
Mof_C 	C 	0.3296	0.91388	0.13004	-0.176
Mof_C 	C 	0.3031	0.89388	0.1647	0.085
Mof_H 	H 	0.3287	0.8745	0.1835	-0.043
Mof_C 	C 	0.2388	0.9023	0.1718	-0.224
Mof_H 	H 	0.2223	0.8888	0.1957	0.092
Mof_C 	C 	0.2906	0.94306	0.1029	0.089
Mof_H 	H 	0.3078	0.957	0.0798	-0.053
Mof_C 	C 	0.1993	0.93075	0.1434	0.194
Mof_C 	C 	0.227	0.95161	0.1097	-0.223
Mof_H 	H 	0.2023	0.9714	0.0918	0.088
Mof_C 	C 	0.4878	0.90654	0.09338	0.14
Mof_C 	C 	0.5417	0.95642	0.0577	0.136
Mof_H 	H 	0.5045	0.9705	0.0595	-0.079
Mof_C 	C 	0.5929	0.97069	0.0387	-0.258
Mof_H 	H 	0.5884	0.994	0.0266	0.107
Mof_C 	C 	0.5445	0.92126	0.0744	-0.188
Mof_C 	C 	0.5989	0.90062	0.0689	0.117
Mof_H 	H 	0.5996	0.8766	0.0764	-0.057
Mof_C 	C 	0.6529	0.91546	0.0521	-0.245
Mof_H 	H 	0.6904	0.9014	0.0508	0.109
Mof_C 	C 	0.6511	0.9514	0.0371	0.219
Mof_C 	C 	0.2735	0.14184	0.08716	-0.173
Mof_C 	C 	0.2372	0.15477	0.0334	0.086
Mof_H 	H 	0.2412	0.1785	0.026	-0.042
Mof_C 	C 	0.2668	0.1066	0.0976	0.095
Mof_H 	H 	0.2911	0.0972	0.133	-0.051
Mof_C 	C 	0.3174	0.16556	0.13239	0.121
Mof_C 	C 	0.1951	0.13332	0.9905	-0.227
Mof_H 	H 	0.1724	0.1426	0.9548	0.092
Mof_C 	C 	0.2236	0.08497	0.0552	-0.225
Mof_H 	H 	0.219	0.0613	0.0628	0.089
Mof_C 	C 	0.187	0.09825	0.0012	0.188
Mof_C 	C 	0.3513	0.24266	0.21958	-0.167
Mof_C 	C 	0.2987	0.24999	0.24355	0.074
Mof_H 	H 	0.2605	0.2348	0.2375	-0.046
Mof_C 	C 	0.3038	0.27993	0.27614	-0.237
Mof_H 	H 	0.2683	0.2849	0.2914	0.097
Mof_C 	C 	0.4071	0.26634	0.22782	0.077
Mof_H 	H 	0.4413	0.2621	0.211	-0.03
Mof_C 	C 	0.3501	0.20988	0.18821	0.122
Mof_C 	C 	0.361	0.30254	0.2864	0.202
Mof_C 	C 	0.4119	0.29604	0.26067	-0.221
Mof_H 	H 	0.4492	0.3117	0.2657	0.089
Mof_C 	C 	0.4068	0.02829	0.19453	0.118
Mof_C 	C 	0.3658	0.00538	0.22022	-0.17
Mof_C 	C 	0.3932	0.97353	0.2456	0.082
Mof_H 	H 	0.4355	0.965	0.2428	-0.065
Mof_C 	C 	0.294	0.96643	0.2792	0.203
Mof_C 	C 	0.3004	0.01693	0.2226	0.082
Mof_H 	H 	0.281	0.0379	0.205	-0.036
Mof_C 	C 	0.3574	0.95456	0.2749	-0.234
Mof_H 	H 	0.3764	0.9334	0.2921	0.09
Mof_C 	C 	0.2647	0.99742	0.2509	-0.223
Mof_H 	H 	0.2205	0.0049	0.2511	0.093
Mof_C 	C 	0.5874	0.03669	0.1337	0.049
Mof_H 	H 	0.5956	0.018	0.159	-0.02
Mof_C 	C 	0.5636	0.09182	0.05774	-0.21
Mof_H 	H 	0.5553	0.1105	0.0323	0.091
Mof_C 	C 	0.5236	0.05494	0.11962	-0.174
Mof_C 	C 	0.473	0.04933	0.15003	0.103
Mof_C 	C 	0.5126	0.08279	0.08071	0.073
Mof_H 	H 	0.4702	0.0952	0.0704	-0.037
Mof_C 	C 	0.6277	0.07365	0.0717	0.19
Mof_C 	C 	0.6395	0.04594	0.1104	-0.214
Mof_H 	H 	0.6821	0.0336	0.1207	0.093
Mof_C 	C 	0.0368	0.19272	0.03703	-0.187
Mof_C 	C 	0.9855	0.18406	0.98478	0.118
Mof_H 	H 	0.9611	0.202	0.9611	-0.062
Mof_C 	C 	0.0727	0.16537	0.0721	0.103
Mof_H 	H 	0.1069	0.1704	0.1067	-0.063
Mof_C 	C 	0.0574	0.13063	0.0553	-0.227
Mof_H 	H 	0.0814	0.1126	0.0789	0.096
Mof_C 	C 	0.0523	0.22943	0.05491	0.135
Mof_C 	C 	0.9709	0.14982	0.96816	-0.227
Mof_H 	H 	0.9371	0.1448	0.9333	0.097
Mof_C 	C 	0.0063	0.12232	0.0031	0.196
Mof_C 	C 	0.1079	0.27614	0.09425	0.119
Mof_C 	C 	0.2309	0.29932	0.11451	0.092
Mof_H 	H 	0.2391	0.2816	0.0918	-0.056
Mof_C 	C 	0.2836	0.32361	0.1386	-0.221
Mof_H 	H 	0.3266	0.322	0.132	0.093
Mof_C 	C 	0.2727	0.35058	0.17258	0.195
Mof_C 	C 	0.2081	0.35135	0.1832	-0.225
Mof_H 	H 	0.2008	0.3685	0.2071	0.093
Mof_C 	C 	0.1551	0.32707	0.15869	0.095
Mof_H 	H 	0.1124	0.3284	0.1658	-0.056
Mof_C 	C 	0.1652	0.3006	0.12338	-0.177
Mof_C 	C 	0.6677	0.14671	0.18878	0.127
Mof_C 	C 	0.7411	0.13398	0.21242	-0.155
Mof_C 	C 	0.7671	0.12303	0.2685	0.068
Mof_H 	H 	0.7405	0.1276	0.2919	-0.046
Mof_C 	C 	0.7822	0.12805	0.1783	0.065
Mof_H 	H 	0.7659	0.1349	0.1405	-0.013
Mof_C 	C 	0.8305	0.1058	0.2905	-0.221
Mof_H 	H 	0.8456	0.0986	0.3281	0.09
Mof_C 	C 	0.8716	0.0991	0.258	0.173
Mof_C 	C 	0.8484	0.1116	0.2011	-0.198
Mof_H 	H 	0.8774	0.1089	0.1791	0.088
Mof_C 	C 	0.5179	0.19976	0.11192	-0.172
Mof_C 	C 	0.5276	0.23484	0.12735	0.027
Mof_H 	H 	0.5701	0.2422	0.1538	-0.024
Mof_C 	C 	0.4742	0.25908	0.1035	-0.199
Mof_H 	H 	0.481	0.2826	0.1146	0.086
Mof_C 	C 	0.401	0.21343	0.0459	-0.204
Mof_H 	H 	0.3595	0.2061	0.0182	0.084
Mof_C 	C 	0.4098	0.24859	0.0627	0.167
Mof_C 	C 	0.571	0.17367	0.14405	0.098
Mof_C 	C 	0.4548	0.18941	0.07072	0.051
Mof_H 	H 	0.4485	0.1659	0.0597	-0.032
Mof_N 	N 	0.44952	0.07648	0.17216	-0.281
Mof_N 	N 	0.4471	0.01851	0.16249	-0.288
Mof_N 	N 	0.40715	0.0627	0.20107	-0.267
Mof_N 	N 	0.71823	0.20434	0.91044	-0.282
Mof_N 	N 	0.77409	0.25406	0.90567	-0.244
Mof_N 	N 	0.81559	0.23569	0.95306	-0.245
Mof_N 	N 	0.00404	0.25473	0.04414	-0.255
Mof_N 	N 	0.04022	0.285	0.06917	-0.256
Mof_N 	N 	0.11822	0.24139	0.08607	-0.283
Mof_N 	N 	0.47076	0.87303	0.09254	-0.249
Mof_N 	N 	0.40963	0.87111	0.10828	-0.258
Mof_N 	N 	0.44248	0.92674	0.11065	-0.288
Mof_N 	N 	0.61487	0.12939	0.19812	-0.268
Mof_N 	N 	0.55283	0.14676	0.16994	-0.274
Mof_N 	N 	0.64262	0.17476	0.15455	-0.274
Mof_N 	N 	0.29315	0.19632	0.14699	-0.286
Mof_N 	N 	0.38498	0.16027	0.1635	-0.265
Mof_N 	N 	0.40615	0.18862	0.19919	-0.268
Mof_N 	N 	0.3252	0.37549	0.1966	-0.322
Mof_H 	H 	0.365	0.3744	0.1905	0.131
Mof_H 	H 	0.3178	0.392	0.2175	0.133
Mof_N 	N 	0.3681	0.331	0.322	-0.327
Mof_H 	H 	0.3369	0.3348	0.338	0.138
Mof_H 	H 	0.4038	0.3449	0.3281	0.134
Mof_N 	N 	0.6771	0.08179	0.0457	-0.328
Mof_H 	H 	0.6684	0.0982	0.0208	0.153
Mof_H 	H 	0.7164	0.0704	0.0547	0.14
Mof_N 	N 	0.2583	0.9473	0.3086	-0.326
Mof_H 	H 	0.2755	0.9277	0.3246	0.145
Mof_H 	H 	0.2189	0.9551	0.3109	0.134
Mof_N 	N 	0.3548	0.27255	0.0395	-0.313
Mof_H 	H 	0.3158	0.2656	0.0149	0.111
Mof_H 	H 	0.36	0.2943	0.0497	0.132
Mof_N 	N 	0.9229	0.09427	0.0968	-0.32
Mof_H 	H 	0.9511	0.0983	0.1305	0.135
Mof_H 	H 	0.9186	0.0732	0.0833	0.132
Mof_N 	N 	0.9888	0.08793	0.9877	-0.314
Mof_H 	H 	0.9559	0.0832	0.9563	0.137
Mof_H 	H 	0.0108	0.0711	0.0093	0.125
Mof_N 	N 	0.5171	0.27487	0.6683	-0.313
Mof_H 	H 	0.4925	0.259	0.6458	0.114
Mof_H 	H 	0.512	0.2967	0.6585	0.135
Mof_N 	N 	0.1458	0.07619	0.9568	-0.319
Mof_H 	H 	0.126	0.0847	0.9235	0.129
Mof_H 	H 	0.1405	0.0543	0.9632	0.124
Mof_N 	N 	0.1327	0.93818	0.1468	-0.322
Mof_H 	H 	0.1153	0.925	0.1667	0.128
Mof_H 	H 	0.109	0.9559	0.1288	0.127
Mof_N 	N 	0.7032	0.9669	0.0214	-0.336
Mof_H 	H 	0.7002	0.9888	0.0124	0.132
Mof_H 	H 	0.739	0.9547	0.0205	0.145
Mof_N 	N 	0.938	0.0818	0.2812	-0.314
Mof_H 	H 	0.9525	0.0754	0.316	0.129
Mof_H 	H 	0.9637	0.0777	0.2603	0.125
Mof_Cu	Cu	0.96096	0.62661	0.16772	0.769
Mof_Cu	Cu	0.94878	0.47368	0.13377	0.829
Mof_Cu	Cu	0.40518	0.75486	0.99922	0.808
Mof_Cu	Cu	0.70437	0.71764	0.11623	0.827
Mof_Cu	Cu	0.49409	0.82871	0.06743	0.81
Mof_Cu	Cu	0.18555	0.70669	0.118	0.832
Mof_Cu	Cu	0.35105	0.83082	0.09347	0.814
Mof_Cu	Cu	0.88982	0.59318	0.25337	0.781
Mof_Br	Br	0.36879	0.821	0.98904	-0.746
Mof_C 	C 	0.281	0.70598	0.95447	0.116
Mof_C 	C 	0.3543	0.68362	0.05071	0.084
Mof_H 	H 	0.3589	0.7064	0.0652	-0.05
Mof_C 	C 	0.3838	0.62204	0.0637	0.195
Mof_C 	C 	0.3374	0.61575	0.0092	-0.217
Mof_H 	H 	0.3304	0.5928	0.9956	0.094
Mof_C 	C 	0.3112	0.6776	0.99468	-0.163
Mof_C 	C 	0.302	0.64274	0.9752	0.089
Mof_H 	H 	0.2716	0.6379	0.9389	-0.047
Mof_C 	C 	0.3903	0.65606	0.085	-0.22
Mof_H 	H 	0.4186	0.6605	0.1221	0.093
Mof_C 	C 	0.2159	0.73443	0.88097	0.109
Mof_C 	C 	0.1613	0.74487	0.82769	-0.168
Mof_C 	C 	0.1208	0.72016	0.7892	0.073
Mof_H 	H 	0.1254	0.6964	0.7989	-0.055
Mof_C 	C 	0.0735	0.73008	0.7365	-0.209
Mof_H 	H 	0.0474	0.713	0.7118	0.066
Mof_C 	C 	0.1526	0.78019	0.8113	0.081
Mof_H 	H 	0.1785	0.7974	0.836	-0.051
Mof_C 	C 	0.0654	0.76525	0.7207	0.181
Mof_C 	C 	0.1058	0.79029	0.7586	-0.224
Mof_H 	H 	0.1014	0.814	0.7487	0.096
Mof_C 	C 	0.8942	0.40402	0.11812	0.117
Mof_C 	C 	0.8296	0.41388	0.13004	-0.176
Mof_C 	C 	0.8031	0.39388	0.1647	0.085
Mof_H 	H 	0.8287	0.3745	0.1835	-0.042
Mof_C 	C 	0.7388	0.4023	0.1718	-0.224
Mof_H 	H 	0.7223	0.3888	0.1957	0.092
Mof_C 	C 	0.7906	0.44306	0.1029	0.089
Mof_H 	H 	0.8078	0.457	0.0798	-0.053
Mof_C 	C 	0.6993	0.43075	0.1434	0.195
Mof_C 	C 	0.727	0.45161	0.1097	-0.223
Mof_H 	H 	0.7023	0.4714	0.0918	0.089
Mof_C 	C 	0.9878	0.40654	0.09338	0.15
Mof_C 	C 	0.0417	0.45642	0.0577	0.143
Mof_H 	H 	0.0045	0.4705	0.0595	-0.085
Mof_C 	C 	0.0929	0.47069	0.0387	-0.265
Mof_H 	H 	0.0884	0.494	0.0266	0.108
Mof_C 	C 	0.0445	0.42126	0.0744	-0.202
Mof_C 	C 	0.0989	0.40062	0.0689	0.125
Mof_H 	H 	0.0996	0.3766	0.0764	-0.061
Mof_C 	C 	0.1529	0.41546	0.0521	-0.251
Mof_H 	H 	0.1904	0.4014	0.0508	0.111
Mof_C 	C 	0.1511	0.4514	0.0371	0.223
Mof_C 	C 	0.7735	0.64184	0.08716	-0.17
Mof_C 	C 	0.7372	0.65477	0.0334	0.081
Mof_H 	H 	0.7412	0.6785	0.026	-0.041
Mof_C 	C 	0.7668	0.6066	0.0976	0.091
Mof_H 	H 	0.7911	0.5972	0.133	-0.05
Mof_C 	C 	0.8174	0.66556	0.13239	0.12
Mof_C 	C 	0.6951	0.63332	0.9905	-0.22
Mof_H 	H 	0.6724	0.6426	0.9548	0.09
Mof_C 	C 	0.7236	0.58497	0.0552	-0.222
Mof_H 	H 	0.719	0.5613	0.0628	0.088
Mof_C 	C 	0.687	0.59825	0.0012	0.183
Mof_C 	C 	0.8513	0.74266	0.21958	-0.167
Mof_C 	C 	0.7987	0.74999	0.24355	0.075
Mof_H 	H 	0.7605	0.7348	0.2375	-0.046
Mof_C 	C 	0.8038	0.77993	0.27614	-0.237
Mof_H 	H 	0.7683	0.7849	0.2914	0.097
Mof_C 	C 	0.9071	0.76634	0.22782	0.077
Mof_H 	H 	0.9413	0.7621	0.211	-0.028
Mof_C 	C 	0.8501	0.70988	0.18821	0.123
Mof_C 	C 	0.861	0.80254	0.2864	0.203
Mof_C 	C 	0.9119	0.79604	0.26067	-0.221
Mof_H 	H 	0.9492	0.8117	0.2657	0.092
Mof_C 	C 	0.9068	0.52829	0.19453	0.118
Mof_C 	C 	0.8658	0.50538	0.22022	-0.169
Mof_C 	C 	0.8932	0.47353	0.2456	0.082
Mof_H 	H 	0.9355	0.465	0.2428	-0.063
Mof_C 	C 	0.794	0.46643	0.2792	0.203
Mof_C 	C 	0.8004	0.51693	0.2226	0.081
Mof_H 	H 	0.781	0.5379	0.205	-0.036
Mof_C 	C 	0.8574	0.45456	0.2749	-0.234
Mof_H 	H 	0.8764	0.4334	0.2921	0.091
Mof_C 	C 	0.7647	0.49742	0.2509	-0.223
Mof_H 	H 	0.7205	0.5049	0.2511	0.093
Mof_C 	C 	0.0874	0.53669	0.1337	0.048
Mof_H 	H 	0.0956	0.518	0.159	-0.021
Mof_C 	C 	0.0636	0.59182	0.05774	-0.201
Mof_H 	H 	0.0553	0.6105	0.0323	0.086
Mof_C 	C 	0.0236	0.55494	0.11962	-0.176
Mof_C 	C 	0.973	0.54933	0.15003	0.11
Mof_C 	C 	0.0126	0.58279	0.08071	0.055
Mof_H 	H 	0.9702	0.5952	0.0704	-0.026
Mof_C 	C 	0.1277	0.57365	0.0717	0.186
Mof_C 	C 	0.1395	0.54594	0.1104	-0.212
Mof_H 	H 	0.1821	0.5336	0.1207	0.092
Mof_C 	C 	0.5368	0.69272	0.03703	-0.182
Mof_C 	C 	0.4855	0.68406	0.98478	0.114
Mof_H 	H 	0.4611	0.702	0.9611	-0.063
Mof_C 	C 	0.5727	0.66537	0.0721	0.107
Mof_H 	H 	0.6069	0.6704	0.1067	-0.064
Mof_C 	C 	0.5574	0.63063	0.0553	-0.235
Mof_H 	H 	0.5814	0.6126	0.0789	0.099
Mof_C 	C 	0.5523	0.72943	0.05491	0.135
Mof_C 	C 	0.4709	0.64982	0.96816	-0.244
Mof_H 	H 	0.4371	0.6448	0.9333	0.102
Mof_C 	C 	0.5063	0.62232	0.0031	0.217
Mof_C 	C 	0.6079	0.77614	0.09425	0.12
Mof_C 	C 	0.7309	0.79932	0.11451	0.092
Mof_H 	H 	0.7391	0.7816	0.0918	-0.057
Mof_C 	C 	0.7836	0.82361	0.1386	-0.221
Mof_H 	H 	0.8266	0.822	0.132	0.093
Mof_C 	C 	0.7727	0.85058	0.17258	0.196
Mof_C 	C 	0.7081	0.85135	0.1832	-0.224
Mof_H 	H 	0.7008	0.8685	0.2071	0.093
Mof_C 	C 	0.6551	0.82707	0.15869	0.094
Mof_H 	H 	0.6124	0.8284	0.1658	-0.055
Mof_C 	C 	0.6652	0.8006	0.12338	-0.176
Mof_C 	C 	0.1677	0.64671	0.18878	0.127
Mof_C 	C 	0.2411	0.63398	0.21242	-0.155
Mof_C 	C 	0.2671	0.62303	0.2685	0.067
Mof_H 	H 	0.2405	0.6276	0.2919	-0.046
Mof_C 	C 	0.2822	0.62805	0.1783	0.064
Mof_H 	H 	0.2659	0.6349	0.1405	-0.013
Mof_C 	C 	0.3305	0.6058	0.2905	-0.22
Mof_H 	H 	0.3456	0.5986	0.3281	0.089
Mof_C 	C 	0.3716	0.5991	0.258	0.171
Mof_C 	C 	0.3484	0.6116	0.2011	-0.197
Mof_H 	H 	0.3774	0.6089	0.1791	0.087
Mof_C 	C 	0.0179	0.69976	0.11192	-0.178
Mof_C 	C 	0.0276	0.73484	0.12735	0.016
Mof_H 	H 	0.0701	0.7422	0.1538	-0.021
Mof_C 	C 	0.9742	0.75908	0.1035	-0.187
Mof_H 	H 	0.981	0.7826	0.1146	0.085
Mof_C 	C 	0.901	0.71343	0.0459	-0.207
Mof_H 	H 	0.8595	0.7061	0.0182	0.085
Mof_C 	C 	0.9098	0.74859	0.0627	0.165
Mof_C 	C 	0.071	0.67367	0.14405	0.098
Mof_C 	C 	0.9548	0.68941	0.07072	0.062
Mof_H 	H 	0.9485	0.6659	0.0597	-0.034
Mof_N 	N 	0.94952	0.57648	0.17216	-0.281
Mof_N 	N 	0.9471	0.51851	0.16249	-0.288
Mof_N 	N 	0.90715	0.5627	0.20107	-0.266
Mof_N 	N 	0.21823	0.70434	0.91044	-0.282
Mof_N 	N 	0.27409	0.75406	0.90567	-0.244
Mof_N 	N 	0.31559	0.73569	0.95306	-0.245
Mof_N 	N 	0.50404	0.75473	0.04414	-0.252
Mof_N 	N 	0.54022	0.785	0.06917	-0.254
Mof_N 	N 	0.61822	0.74139	0.08607	-0.283
Mof_N 	N 	0.97076	0.37303	0.09254	-0.25
Mof_N 	N 	0.90963	0.37111	0.10828	-0.257
Mof_N 	N 	0.94248	0.42674	0.11065	-0.288
Mof_N 	N 	0.11487	0.62939	0.19812	-0.269
Mof_N 	N 	0.05283	0.64676	0.16994	-0.276
Mof_N 	N 	0.14262	0.67476	0.15455	-0.274
Mof_N 	N 	0.79315	0.69632	0.14699	-0.285
Mof_N 	N 	0.88498	0.66027	0.1635	-0.264
Mof_N 	N 	0.90615	0.68862	0.19919	-0.266
Mof_N 	N 	0.8252	0.87549	0.1966	-0.322
Mof_H 	H 	0.865	0.8744	0.1905	0.132
Mof_H 	H 	0.8178	0.892	0.2175	0.133
Mof_N 	N 	0.8681	0.831	0.322	-0.328
Mof_H 	H 	0.8369	0.8348	0.338	0.138
Mof_H 	H 	0.9038	0.8449	0.3281	0.135
Mof_N 	N 	0.1771	0.58179	0.0457	-0.327
Mof_H 	H 	0.1684	0.5982	0.0208	0.153
Mof_H 	H 	0.2164	0.5704	0.0547	0.14
Mof_N 	N 	0.7583	0.4473	0.3086	-0.326
Mof_H 	H 	0.7755	0.4277	0.3246	0.145
Mof_H 	H 	0.7189	0.4551	0.3109	0.135
Mof_N 	N 	0.8548	0.77255	0.0395	-0.313
Mof_H 	H 	0.8158	0.7656	0.0149	0.11
Mof_H 	H 	0.86	0.7943	0.0497	0.132
Mof_N 	N 	0.4229	0.59427	0.0968	-0.318
Mof_H 	H 	0.4511	0.5983	0.1305	0.132
Mof_H 	H 	0.4186	0.5732	0.0833	0.13
Mof_N 	N 	0.4888	0.58793	0.9877	-0.33
Mof_H 	H 	0.4559	0.5832	0.9563	0.139
Mof_H 	H 	0.5108	0.5711	0.0093	0.135
Mof_N 	N 	0.0171	0.77487	0.6683	-0.322
Mof_H 	H 	0.9925	0.759	0.6458	0.124
Mof_H 	H 	0.012	0.7967	0.6585	0.134
Mof_N 	N 	0.6458	0.57619	0.9568	-0.318
Mof_H 	H 	0.626	0.5847	0.9235	0.131
Mof_H 	H 	0.6405	0.5543	0.9632	0.125
Mof_N 	N 	0.6327	0.43818	0.1468	-0.323
Mof_H 	H 	0.6153	0.425	0.1667	0.129
Mof_H 	H 	0.609	0.4559	0.1288	0.129
Mof_N 	N 	0.2032	0.4669	0.0214	-0.337
Mof_H 	H 	0.2002	0.4888	0.0124	0.132
Mof_H 	H 	0.239	0.4547	0.0205	0.146
Mof_N 	N 	0.438	0.5818	0.2812	-0.312
Mof_H 	H 	0.4525	0.5754	0.316	0.126
Mof_H 	H 	0.4637	0.5777	0.2603	0.121
Mof_Cu	Cu	0.46096	0.87339	0.66772	0.767
Mof_Cu	Cu	0.44878	0.02632	0.63377	0.827
Mof_Cu	Cu	0.90518	0.74514	0.49922	0.81
Mof_Cu	Cu	0.20437	0.78236	0.61623	0.827
Mof_Cu	Cu	0.99409	0.67129	0.56743	0.813
Mof_Cu	Cu	0.68555	0.79331	0.618	0.832
Mof_Cu	Cu	0.85105	0.66918	0.59347	0.814
Mof_Cu	Cu	0.38982	0.90682	0.75337	0.78
Mof_Br	Br	0.86879	0.679	0.48904	-0.744
Mof_C 	C 	0.781	0.79402	0.45447	0.117
Mof_C 	C 	0.8543	0.81638	0.55071	0.085
Mof_H 	H 	0.8589	0.7936	0.5652	-0.05
Mof_C 	C 	0.8838	0.87796	0.5637	0.2
Mof_C 	C 	0.8374	0.88425	0.5092	-0.224
Mof_H 	H 	0.8304	0.9072	0.4956	0.098
Mof_C 	C 	0.8112	0.8224	0.49468	-0.164
Mof_C 	C 	0.802	0.85726	0.4752	0.095
Mof_H 	H 	0.7716	0.8621	0.4389	-0.049
Mof_C 	C 	0.8903	0.84394	0.585	-0.222
Mof_H 	H 	0.9186	0.8395	0.6221	0.096
Mof_C 	C 	0.7159	0.76557	0.38097	0.109
Mof_C 	C 	0.6613	0.75513	0.32769	-0.168
Mof_C 	C 	0.6208	0.77984	0.2892	0.073
Mof_H 	H 	0.6254	0.8036	0.2989	-0.054
Mof_C 	C 	0.5735	0.76992	0.2365	-0.208
Mof_H 	H 	0.5474	0.787	0.2118	0.068
Mof_C 	C 	0.6526	0.71981	0.3113	0.082
Mof_H 	H 	0.6785	0.7026	0.336	-0.051
Mof_C 	C 	0.5654	0.73475	0.2207	0.182
Mof_C 	C 	0.6058	0.70971	0.2586	-0.223
Mof_H 	H 	0.6014	0.686	0.2487	0.097
Mof_C 	C 	0.3942	0.09598	0.61812	0.117
Mof_C 	C 	0.3296	0.08612	0.63004	-0.176
Mof_C 	C 	0.3031	0.10612	0.6647	0.085
Mof_H 	H 	0.3287	0.1255	0.6835	-0.043
Mof_C 	C 	0.2388	0.0977	0.6718	-0.224
Mof_H 	H 	0.2223	0.1112	0.6957	0.092
Mof_C 	C 	0.2906	0.05694	0.6029	0.089
Mof_H 	H 	0.3078	0.043	0.5798	-0.053
Mof_C 	C 	0.1993	0.06925	0.6434	0.194
Mof_C 	C 	0.227	0.04839	0.6097	-0.223
Mof_H 	H 	0.2023	0.0286	0.5918	0.088
Mof_C 	C 	0.4878	0.09346	0.59338	0.139
Mof_C 	C 	0.5417	0.04358	0.5577	0.136
Mof_H 	H 	0.5045	0.0295	0.5595	-0.079
Mof_C 	C 	0.5929	0.02931	0.5387	-0.258
Mof_H 	H 	0.5884	0.006	0.5266	0.107
Mof_C 	C 	0.5445	0.07874	0.5744	-0.188
Mof_C 	C 	0.5989	0.09938	0.5689	0.117
Mof_H 	H 	0.5996	0.1234	0.5764	-0.057
Mof_C 	C 	0.6529	0.08454	0.5521	-0.245
Mof_H 	H 	0.6904	0.0986	0.5508	0.109
Mof_C 	C 	0.6511	0.0486	0.5371	0.219
Mof_C 	C 	0.2735	0.85816	0.58716	-0.169
Mof_C 	C 	0.2372	0.84523	0.5334	0.079
Mof_H 	H 	0.2412	0.8215	0.526	-0.04
Mof_C 	C 	0.2668	0.8934	0.5976	0.09
Mof_H 	H 	0.2911	0.9028	0.633	-0.05
Mof_C 	C 	0.3174	0.83444	0.63239	0.119
Mof_C 	C 	0.1951	0.86668	0.4905	-0.217
Mof_H 	H 	0.1724	0.8574	0.4548	0.089
Mof_C 	C 	0.2236	0.91503	0.5552	-0.22
Mof_H 	H 	0.219	0.9387	0.5628	0.087
Mof_C 	C 	0.187	0.90175	0.5012	0.18
Mof_C 	C 	0.3513	0.75734	0.71958	-0.167
Mof_C 	C 	0.2987	0.75001	0.74355	0.074
Mof_H 	H 	0.2605	0.7652	0.7375	-0.046
Mof_C 	C 	0.3038	0.72007	0.77614	-0.237
Mof_H 	H 	0.2683	0.7151	0.7914	0.097
Mof_C 	C 	0.4071	0.73366	0.72782	0.077
Mof_H 	H 	0.4413	0.7379	0.711	-0.03
Mof_C 	C 	0.3501	0.79012	0.68821	0.122
Mof_C 	C 	0.361	0.69746	0.7864	0.202
Mof_C 	C 	0.4119	0.70396	0.76067	-0.221
Mof_H 	H 	0.4492	0.6883	0.7657	0.089
Mof_C 	C 	0.4068	0.97171	0.69453	0.118
Mof_C 	C 	0.3658	0.99462	0.72022	-0.17
Mof_C 	C 	0.3932	0.02647	0.7456	0.082
Mof_H 	H 	0.4355	0.035	0.7428	-0.065
Mof_C 	C 	0.294	0.03357	0.7792	0.203
Mof_C 	C 	0.3004	0.98307	0.7226	0.082
Mof_H 	H 	0.281	0.9621	0.705	-0.036
Mof_C 	C 	0.3574	0.04544	0.7749	-0.234
Mof_H 	H 	0.3764	0.0666	0.7921	0.09
Mof_C 	C 	0.2647	0.00258	0.7509	-0.223
Mof_H 	H 	0.2205	0.9951	0.7511	0.093
Mof_C 	C 	0.5874	0.96331	0.6337	0.049
Mof_H 	H 	0.5956	0.982	0.659	-0.02
Mof_C 	C 	0.5636	0.90818	0.55774	-0.21
Mof_H 	H 	0.5553	0.8895	0.5323	0.091
Mof_C 	C 	0.5236	0.94506	0.61962	-0.174
Mof_C 	C 	0.473	0.95067	0.65003	0.103
Mof_C 	C 	0.5126	0.91721	0.58071	0.073
Mof_H 	H 	0.4702	0.9048	0.5704	-0.037
Mof_C 	C 	0.6277	0.92635	0.5717	0.19
Mof_C 	C 	0.6395	0.95406	0.6104	-0.214
Mof_H 	H 	0.6821	0.9664	0.6207	0.093
Mof_C 	C 	0.0368	0.80728	0.53703	-0.188
Mof_C 	C 	0.9855	0.81594	0.48478	0.118
Mof_H 	H 	0.9611	0.798	0.4611	-0.062
Mof_C 	C 	0.0727	0.83463	0.5721	0.102
Mof_H 	H 	0.1069	0.8296	0.6067	-0.063
Mof_C 	C 	0.0574	0.86937	0.5553	-0.225
Mof_H 	H 	0.0814	0.8874	0.5789	0.095
Mof_C 	C 	0.0523	0.77057	0.55491	0.135
Mof_C 	C 	0.9709	0.85018	0.46816	-0.225
Mof_H 	H 	0.9371	0.8552	0.4333	0.096
Mof_C 	C 	0.0063	0.87768	0.5031	0.193
Mof_C 	C 	0.1079	0.72386	0.59425	0.119
Mof_C 	C 	0.2309	0.70068	0.61451	0.092
Mof_H 	H 	0.2391	0.7184	0.5918	-0.057
Mof_C 	C 	0.2836	0.67639	0.6386	-0.221
Mof_H 	H 	0.3266	0.678	0.632	0.093
Mof_C 	C 	0.2727	0.64942	0.67258	0.195
Mof_C 	C 	0.2081	0.64865	0.6832	-0.225
Mof_H 	H 	0.2008	0.6315	0.7071	0.093
Mof_C 	C 	0.1551	0.67293	0.65869	0.095
Mof_H 	H 	0.1124	0.6716	0.6658	-0.056
Mof_C 	C 	0.1652	0.6994	0.62338	-0.177
Mof_C 	C 	0.6677	0.85329	0.68878	0.127
Mof_C 	C 	0.7411	0.86602	0.71242	-0.155
Mof_C 	C 	0.7671	0.87697	0.7685	0.068
Mof_H 	H 	0.7405	0.8724	0.7919	-0.046
Mof_C 	C 	0.7822	0.87195	0.6783	0.065
Mof_H 	H 	0.7659	0.8651	0.6405	-0.013
Mof_C 	C 	0.8305	0.8942	0.7905	-0.221
Mof_H 	H 	0.8456	0.9014	0.8281	0.09
Mof_C 	C 	0.8716	0.9009	0.758	0.174
Mof_C 	C 	0.8484	0.8884	0.7011	-0.198
Mof_H 	H 	0.8774	0.8911	0.6791	0.088
Mof_C 	C 	0.5179	0.80024	0.61192	-0.172
Mof_C 	C 	0.5276	0.76516	0.62735	0.026
Mof_H 	H 	0.5701	0.7578	0.6538	-0.024
Mof_C 	C 	0.4742	0.74092	0.6035	-0.199
Mof_H 	H 	0.481	0.7174	0.6146	0.086
Mof_C 	C 	0.401	0.78657	0.5459	-0.204
Mof_H 	H 	0.3595	0.7939	0.5182	0.084
Mof_C 	C 	0.4098	0.75141	0.5627	0.167
Mof_C 	C 	0.571	0.82633	0.64405	0.098
Mof_C 	C 	0.4548	0.81059	0.57072	0.051
Mof_H 	H 	0.4485	0.8341	0.5597	-0.032
Mof_N 	N 	0.44952	0.92352	0.67216	-0.281
Mof_N 	N 	0.4471	0.98149	0.66249	-0.288
Mof_N 	N 	0.40715	0.9373	0.70107	-0.267
Mof_N 	N 	0.71823	0.79566	0.41044	-0.282
Mof_N 	N 	0.77409	0.74594	0.40567	-0.244
Mof_N 	N 	0.81559	0.76431	0.45306	-0.245
Mof_N 	N 	0.00404	0.74527	0.54414	-0.256
Mof_N 	N 	0.04022	0.715	0.56917	-0.257
Mof_N 	N 	0.11822	0.75861	0.58607	-0.284
Mof_N 	N 	0.47076	0.12697	0.59254	-0.249
Mof_N 	N 	0.40963	0.12889	0.60828	-0.258
Mof_N 	N 	0.44248	0.07326	0.61065	-0.288
Mof_N 	N 	0.61487	0.87061	0.69812	-0.268
Mof_N 	N 	0.55283	0.85324	0.66994	-0.274
Mof_N 	N 	0.64262	0.82524	0.65455	-0.274
Mof_N 	N 	0.29315	0.80368	0.64699	-0.285
Mof_N 	N 	0.38498	0.83973	0.6635	-0.264
Mof_N 	N 	0.40615	0.81138	0.69919	-0.268
Mof_N 	N 	0.3252	0.62451	0.6966	-0.322
Mof_H 	H 	0.365	0.6256	0.6905	0.131
Mof_H 	H 	0.3178	0.608	0.7175	0.133
Mof_N 	N 	0.3681	0.669	0.822	-0.327
Mof_H 	H 	0.3369	0.6652	0.838	0.138
Mof_H 	H 	0.4038	0.6551	0.8281	0.133
Mof_N 	N 	0.6771	0.91821	0.5457	-0.328
Mof_H 	H 	0.6684	0.9018	0.5208	0.153
Mof_H 	H 	0.7164	0.9296	0.5547	0.14
Mof_N 	N 	0.2583	0.0527	0.8086	-0.326
Mof_H 	H 	0.2755	0.0723	0.8246	0.145
Mof_H 	H 	0.2189	0.0449	0.8109	0.134
Mof_N 	N 	0.3548	0.72745	0.5395	-0.313
Mof_H 	H 	0.3158	0.7344	0.5149	0.11
Mof_H 	H 	0.36	0.7057	0.5497	0.132
Mof_N 	N 	0.9229	0.90573	0.5968	-0.32
Mof_H 	H 	0.9511	0.9017	0.6305	0.135
Mof_H 	H 	0.9186	0.9268	0.5833	0.132
Mof_N 	N 	0.9888	0.91207	0.4877	-0.312
Mof_H 	H 	0.9559	0.9168	0.4563	0.136
Mof_H 	H 	0.0108	0.9289	0.5093	0.124
Mof_N 	N 	0.5171	0.72513	0.1683	-0.313
Mof_H 	H 	0.4925	0.741	0.1458	0.114
Mof_H 	H 	0.512	0.7033	0.1585	0.135
Mof_N 	N 	0.1458	0.92381	0.4568	-0.317
Mof_H 	H 	0.126	0.9153	0.4235	0.129
Mof_H 	H 	0.1405	0.9457	0.4632	0.124
Mof_N 	N 	0.1327	0.06182	0.6468	-0.322
Mof_H 	H 	0.1153	0.075	0.6667	0.128
Mof_H 	H 	0.109	0.0441	0.6288	0.127
Mof_N 	N 	0.7032	0.0331	0.5214	-0.336
Mof_H 	H 	0.7002	0.0112	0.5124	0.132
Mof_H 	H 	0.739	0.0453	0.5205	0.145
Mof_N 	N 	0.938	0.9182	0.7812	-0.314
Mof_H 	H 	0.9525	0.9246	0.816	0.129
Mof_H 	H 	0.9637	0.9223	0.7603	0.126
Mof_Cu	Cu	0.96096	0.37339	0.66772	0.77
Mof_Cu	Cu	0.94878	0.52632	0.63377	0.83
Mof_Cu	Cu	0.40518	0.24514	0.49922	0.808
Mof_Cu	Cu	0.70437	0.28236	0.61623	0.827
Mof_Cu	Cu	0.49409	0.17129	0.56743	0.809
Mof_Cu	Cu	0.18555	0.29331	0.618	0.832
Mof_Cu	Cu	0.35105	0.16918	0.59347	0.813
Mof_Cu	Cu	0.88982	0.40682	0.75337	0.781
Mof_Br	Br	0.36879	0.179	0.48904	-0.745
Mof_C 	C 	0.281	0.29402	0.45447	0.117
Mof_C 	C 	0.3543	0.31638	0.55071	0.084
Mof_H 	H 	0.3589	0.2936	0.5652	-0.051
Mof_C 	C 	0.3838	0.37796	0.5637	0.197
Mof_C 	C 	0.3374	0.38425	0.5092	-0.223
Mof_H 	H 	0.3304	0.4072	0.4956	0.097
Mof_C 	C 	0.3112	0.3224	0.49468	-0.163
Mof_C 	C 	0.302	0.35726	0.4752	0.094
Mof_H 	H 	0.2716	0.3621	0.4389	-0.049
Mof_C 	C 	0.3903	0.34394	0.585	-0.221
Mof_H 	H 	0.4186	0.3395	0.6221	0.094
Mof_C 	C 	0.2159	0.26557	0.38097	0.109
Mof_C 	C 	0.1613	0.25513	0.32769	-0.168
Mof_C 	C 	0.1208	0.27984	0.2892	0.073
Mof_H 	H 	0.1254	0.3036	0.2989	-0.055
Mof_C 	C 	0.0735	0.26992	0.2365	-0.209
Mof_H 	H 	0.0474	0.287	0.2118	0.066
Mof_C 	C 	0.1526	0.21981	0.3113	0.081
Mof_H 	H 	0.1785	0.2026	0.336	-0.051
Mof_C 	C 	0.0654	0.23475	0.2207	0.181
Mof_C 	C 	0.1058	0.20971	0.2586	-0.223
Mof_H 	H 	0.1014	0.186	0.2487	0.096
Mof_C 	C 	0.8942	0.59598	0.61812	0.117
Mof_C 	C 	0.8296	0.58612	0.63004	-0.176
Mof_C 	C 	0.8031	0.60612	0.6647	0.085
Mof_H 	H 	0.8287	0.6255	0.6835	-0.042
Mof_C 	C 	0.7388	0.5977	0.6718	-0.224
Mof_H 	H 	0.7223	0.6112	0.6957	0.092
Mof_C 	C 	0.7906	0.55694	0.6029	0.089
Mof_H 	H 	0.8078	0.543	0.5798	-0.053
Mof_C 	C 	0.6993	0.56925	0.6434	0.195
Mof_C 	C 	0.727	0.54839	0.6097	-0.223
Mof_H 	H 	0.7023	0.5286	0.5918	0.089
Mof_C 	C 	0.9878	0.59346	0.59338	0.152
Mof_C 	C 	0.0417	0.54358	0.5577	0.145
Mof_H 	H 	0.0045	0.5295	0.5595	-0.086
Mof_C 	C 	0.0929	0.52931	0.5387	-0.266
Mof_H 	H 	0.0884	0.506	0.5266	0.108
Mof_C 	C 	0.0445	0.57874	0.5744	-0.204
Mof_C 	C 	0.0989	0.59938	0.5689	0.126
Mof_H 	H 	0.0996	0.6234	0.5764	-0.062
Mof_C 	C 	0.1529	0.58454	0.5521	-0.252
Mof_H 	H 	0.1904	0.5986	0.5508	0.111
Mof_C 	C 	0.1511	0.5486	0.5371	0.223
Mof_C 	C 	0.7735	0.35816	0.58716	-0.169
Mof_C 	C 	0.7372	0.34523	0.5334	0.079
Mof_H 	H 	0.7412	0.3215	0.526	-0.04
Mof_C 	C 	0.7668	0.3934	0.5976	0.09
Mof_H 	H 	0.7911	0.4028	0.633	-0.05
Mof_C 	C 	0.8174	0.33444	0.63239	0.119
Mof_C 	C 	0.6951	0.36668	0.4905	-0.218
Mof_H 	H 	0.6724	0.3574	0.4548	0.09
Mof_C 	C 	0.7236	0.41503	0.5552	-0.221
Mof_H 	H 	0.719	0.4387	0.5628	0.087
Mof_C 	C 	0.687	0.40175	0.5012	0.181
Mof_C 	C 	0.8513	0.25734	0.71958	-0.167
Mof_C 	C 	0.7987	0.25001	0.74355	0.075
Mof_H 	H 	0.7605	0.2652	0.7375	-0.046
Mof_C 	C 	0.8038	0.22007	0.77614	-0.237
Mof_H 	H 	0.7683	0.2151	0.7914	0.097
Mof_C 	C 	0.9071	0.23366	0.72782	0.078
Mof_H 	H 	0.9413	0.2379	0.711	-0.028
Mof_C 	C 	0.8501	0.29012	0.68821	0.123
Mof_C 	C 	0.861	0.19746	0.7864	0.203
Mof_C 	C 	0.9119	0.20396	0.76067	-0.221
Mof_H 	H 	0.9492	0.1883	0.7657	0.092
Mof_C 	C 	0.9068	0.47171	0.69453	0.119
Mof_C 	C 	0.8658	0.49462	0.72022	-0.169
Mof_C 	C 	0.8932	0.52647	0.7456	0.082
Mof_H 	H 	0.9355	0.535	0.7428	-0.063
Mof_C 	C 	0.794	0.53357	0.7792	0.203
Mof_C 	C 	0.8004	0.48307	0.7226	0.081
Mof_H 	H 	0.781	0.4621	0.705	-0.036
Mof_C 	C 	0.8574	0.54544	0.7749	-0.234
Mof_H 	H 	0.8764	0.5666	0.7921	0.091
Mof_C 	C 	0.7647	0.50258	0.7509	-0.223
Mof_H 	H 	0.7205	0.4951	0.7511	0.093
Mof_C 	C 	0.0874	0.46331	0.6337	0.048
Mof_H 	H 	0.0956	0.482	0.659	-0.021
Mof_C 	C 	0.0636	0.40818	0.55774	-0.199
Mof_H 	H 	0.0553	0.3895	0.5323	0.085
Mof_C 	C 	0.0236	0.44506	0.61962	-0.176
Mof_C 	C 	0.973	0.45067	0.65003	0.111
Mof_C 	C 	0.0126	0.41721	0.58071	0.052
Mof_H 	H 	0.9702	0.4048	0.5704	-0.024
Mof_C 	C 	0.1277	0.42635	0.5717	0.185
Mof_C 	C 	0.1395	0.45406	0.6104	-0.212
Mof_H 	H 	0.1821	0.4664	0.6207	0.092
Mof_C 	C 	0.5368	0.30728	0.53703	-0.182
Mof_C 	C 	0.4855	0.31594	0.48478	0.114
Mof_H 	H 	0.4611	0.298	0.4611	-0.063
Mof_C 	C 	0.5727	0.33463	0.5721	0.107
Mof_H 	H 	0.6069	0.3296	0.6067	-0.064
Mof_C 	C 	0.5574	0.36937	0.5553	-0.234
Mof_H 	H 	0.5814	0.3874	0.5789	0.099
Mof_C 	C 	0.5523	0.27057	0.55491	0.135
Mof_C 	C 	0.4709	0.35018	0.46816	-0.242
Mof_H 	H 	0.4371	0.3552	0.4333	0.101
Mof_C 	C 	0.5063	0.37768	0.5031	0.215
Mof_C 	C 	0.6079	0.22386	0.59425	0.12
Mof_C 	C 	0.7309	0.20068	0.61451	0.092
Mof_H 	H 	0.7391	0.2184	0.5918	-0.057
Mof_C 	C 	0.7836	0.17639	0.6386	-0.221
Mof_H 	H 	0.8266	0.178	0.632	0.094
Mof_C 	C 	0.7727	0.14942	0.67258	0.196
Mof_C 	C 	0.7081	0.14865	0.6832	-0.224
Mof_H 	H 	0.7008	0.1315	0.7071	0.093
Mof_C 	C 	0.6551	0.17293	0.65869	0.094
Mof_H 	H 	0.6124	0.1716	0.6658	-0.055
Mof_C 	C 	0.6652	0.1994	0.62338	-0.177
Mof_C 	C 	0.1677	0.35329	0.68878	0.127
Mof_C 	C 	0.2411	0.36602	0.71242	-0.155
Mof_C 	C 	0.2671	0.37697	0.7685	0.067
Mof_H 	H 	0.2405	0.3724	0.7919	-0.046
Mof_C 	C 	0.2822	0.37195	0.6783	0.064
Mof_H 	H 	0.2659	0.3651	0.6405	-0.013
Mof_C 	C 	0.3305	0.3942	0.7905	-0.22
Mof_H 	H 	0.3456	0.4014	0.8281	0.089
Mof_C 	C 	0.3716	0.4009	0.758	0.171
Mof_C 	C 	0.3484	0.3884	0.7011	-0.197
Mof_H 	H 	0.3774	0.3911	0.6791	0.087
Mof_C 	C 	0.0179	0.30024	0.61192	-0.179
Mof_C 	C 	0.0276	0.26516	0.62735	0.014
Mof_H 	H 	0.0701	0.2578	0.6538	-0.02
Mof_C 	C 	0.9742	0.24092	0.6035	-0.185
Mof_H 	H 	0.981	0.2174	0.6146	0.084
Mof_C 	C 	0.901	0.28657	0.5459	-0.207
Mof_H 	H 	0.8595	0.2939	0.5182	0.085
Mof_C 	C 	0.9098	0.25141	0.5627	0.165
Mof_C 	C 	0.071	0.32633	0.64405	0.098
Mof_C 	C 	0.9548	0.31059	0.57072	0.064
Mof_H 	H 	0.9485	0.3341	0.5597	-0.034
Mof_N 	N 	0.94952	0.42352	0.67216	-0.28
Mof_N 	N 	0.9471	0.48149	0.66249	-0.288
Mof_N 	N 	0.90715	0.4373	0.70107	-0.266
Mof_N 	N 	0.21823	0.29566	0.41044	-0.282
Mof_N 	N 	0.27409	0.24594	0.40567	-0.244
Mof_N 	N 	0.31559	0.26431	0.45306	-0.245
Mof_N 	N 	0.50404	0.24527	0.54414	-0.252
Mof_N 	N 	0.54022	0.215	0.56917	-0.254
Mof_N 	N 	0.61822	0.25861	0.58607	-0.283
Mof_N 	N 	0.97076	0.62697	0.59254	-0.25
Mof_N 	N 	0.90963	0.62889	0.60828	-0.257
Mof_N 	N 	0.94248	0.57326	0.61065	-0.288
Mof_N 	N 	0.11487	0.37061	0.69812	-0.269
Mof_N 	N 	0.05283	0.35324	0.66994	-0.277
Mof_N 	N 	0.14262	0.32524	0.65455	-0.274
Mof_N 	N 	0.79315	0.30368	0.64699	-0.285
Mof_N 	N 	0.88498	0.33973	0.6635	-0.264
Mof_N 	N 	0.90615	0.31138	0.69919	-0.266
Mof_N 	N 	0.8252	0.12451	0.6966	-0.322
Mof_H 	H 	0.865	0.1256	0.6905	0.132
Mof_H 	H 	0.8178	0.108	0.7175	0.133
Mof_N 	N 	0.8681	0.169	0.822	-0.328
Mof_H 	H 	0.8369	0.1652	0.838	0.138
Mof_H 	H 	0.9038	0.1551	0.8281	0.135
Mof_N 	N 	0.1771	0.41821	0.5457	-0.327
Mof_H 	H 	0.1684	0.4018	0.5208	0.153
Mof_H 	H 	0.2164	0.4296	0.5547	0.14
Mof_N 	N 	0.7583	0.5527	0.8086	-0.326
Mof_H 	H 	0.7755	0.5723	0.8246	0.145
Mof_H 	H 	0.7189	0.5449	0.8109	0.135
Mof_N 	N 	0.8548	0.22745	0.5395	-0.313
Mof_H 	H 	0.8158	0.2344	0.5149	0.11
Mof_H 	H 	0.86	0.2057	0.5497	0.132
Mof_N 	N 	0.4229	0.40573	0.5968	-0.319
Mof_H 	H 	0.4511	0.4017	0.6305	0.132
Mof_H 	H 	0.4186	0.4268	0.5833	0.13
Mof_N 	N 	0.4888	0.41207	0.4877	-0.329
Mof_H 	H 	0.4559	0.4168	0.4563	0.139
Mof_H 	H 	0.5108	0.4289	0.5093	0.134
Mof_N 	N 	0.0171	0.22513	0.1683	-0.32
Mof_H 	H 	0.9925	0.241	0.1458	0.123
Mof_H 	H 	0.012	0.2033	0.1585	0.134
Mof_N 	N 	0.6458	0.42381	0.4568	-0.317
Mof_H 	H 	0.626	0.4153	0.4235	0.131
Mof_H 	H 	0.6405	0.4457	0.4632	0.125
Mof_N 	N 	0.6327	0.56182	0.6468	-0.323
Mof_H 	H 	0.6153	0.575	0.6667	0.129
Mof_H 	H 	0.609	0.5441	0.6288	0.129
Mof_N 	N 	0.2032	0.5331	0.5214	-0.337
Mof_H 	H 	0.2002	0.5112	0.5124	0.132
Mof_H 	H 	0.239	0.5453	0.5205	0.145
Mof_N 	N 	0.438	0.4182	0.7812	-0.312
Mof_H 	H 	0.4525	0.4246	0.816	0.126
Mof_H 	H 	0.4637	0.4223	0.7603	0.121
Mof_Cu	Cu	0.53904	0.87339	0.83228	0.767
Mof_Cu	Cu	0.55122	0.02632	0.86623	0.827
Mof_Cu	Cu	0.09482	0.74514	0.00078	0.807
Mof_Cu	Cu	0.79563	0.78236	0.88377	0.827
Mof_Cu	Cu	0.00591	0.67129	0.93257	0.805
Mof_Cu	Cu	0.31445	0.79331	0.882	0.832
Mof_Cu	Cu	0.14895	0.66918	0.90653	0.813
Mof_Cu	Cu	0.61018	0.90682	0.74663	0.78
Mof_Br	Br	0.13121	0.679	0.01096	-0.745
Mof_C 	C 	0.219	0.79402	0.04553	0.117
Mof_C 	C 	0.1457	0.81638	0.94929	0.081
Mof_H 	H 	0.1411	0.7936	0.9348	-0.051
Mof_C 	C 	0.1162	0.87796	0.9363	0.197
Mof_C 	C 	0.1626	0.88425	0.9908	-0.23
Mof_H 	H 	0.1696	0.9072	0.0044	0.1
Mof_C 	C 	0.1888	0.8224	0.00532	-0.162
Mof_C 	C 	0.198	0.85726	0.0248	0.098
Mof_H 	H 	0.2284	0.8621	0.0611	-0.05
Mof_C 	C 	0.1097	0.84394	0.915	-0.221
Mof_H 	H 	0.0814	0.8395	0.8779	0.092
Mof_C 	C 	0.2841	0.76557	0.11903	0.109
Mof_C 	C 	0.3387	0.75513	0.17231	-0.168
Mof_C 	C 	0.3792	0.77984	0.2108	0.073
Mof_H 	H 	0.3746	0.8036	0.2011	-0.054
Mof_C 	C 	0.4265	0.76992	0.2635	-0.208
Mof_H 	H 	0.4526	0.787	0.2882	0.068
Mof_C 	C 	0.3474	0.71981	0.1887	0.082
Mof_H 	H 	0.3215	0.7026	0.164	-0.051
Mof_C 	C 	0.4346	0.73475	0.2793	0.182
Mof_C 	C 	0.3942	0.70971	0.2414	-0.223
Mof_H 	H 	0.3986	0.686	0.2513	0.097
Mof_C 	C 	0.6058	0.09598	0.88188	0.117
Mof_C 	C 	0.6704	0.08612	0.86996	-0.177
Mof_C 	C 	0.6969	0.10612	0.8353	0.086
Mof_H 	H 	0.6713	0.1255	0.8165	-0.043
Mof_C 	C 	0.7612	0.0977	0.8282	-0.225
Mof_H 	H 	0.7777	0.1112	0.8043	0.092
Mof_C 	C 	0.7094	0.05694	0.8971	0.09
Mof_H 	H 	0.6922	0.043	0.9202	-0.053
Mof_C 	C 	0.8007	0.06925	0.8566	0.196
Mof_C 	C 	0.773	0.04839	0.8903	-0.224
Mof_H 	H 	0.7977	0.0286	0.9082	0.089
Mof_C 	C 	0.5122	0.09346	0.90662	0.139
Mof_C 	C 	0.4583	0.04358	0.9423	0.135
Mof_H 	H 	0.4955	0.0295	0.9405	-0.079
Mof_C 	C 	0.4071	0.02931	0.9613	-0.258
Mof_H 	H 	0.4116	0.006	0.9734	0.107
Mof_C 	C 	0.4555	0.07874	0.9256	-0.188
Mof_C 	C 	0.4011	0.09938	0.9311	0.117
Mof_H 	H 	0.4004	0.1234	0.9236	-0.057
Mof_C 	C 	0.3471	0.08454	0.9479	-0.245
Mof_H 	H 	0.3096	0.0986	0.9492	0.109
Mof_C 	C 	0.3489	0.0486	0.9629	0.218
Mof_C 	C 	0.7265	0.85816	0.91284	-0.17
Mof_C 	C 	0.7628	0.84523	0.9666	0.079
Mof_H 	H 	0.7588	0.8215	0.974	-0.041
Mof_C 	C 	0.7332	0.8934	0.9024	0.091
Mof_H 	H 	0.7089	0.9028	0.867	-0.05
Mof_C 	C 	0.6826	0.83444	0.86761	0.119
Mof_C 	C 	0.8049	0.86668	0.0095	-0.218
Mof_H 	H 	0.8276	0.8574	0.0452	0.09
Mof_C 	C 	0.7764	0.91503	0.9448	-0.221
Mof_H 	H 	0.781	0.9387	0.9372	0.088
Mof_C 	C 	0.813	0.90175	0.9988	0.182
Mof_C 	C 	0.6487	0.75734	0.78042	-0.167
Mof_C 	C 	0.7013	0.75001	0.75645	0.074
Mof_H 	H 	0.7395	0.7652	0.7625	-0.046
Mof_C 	C 	0.6962	0.72007	0.72386	-0.237
Mof_H 	H 	0.7317	0.7151	0.7086	0.096
Mof_C 	C 	0.5929	0.73366	0.77218	0.077
Mof_H 	H 	0.5587	0.7379	0.789	-0.03
Mof_C 	C 	0.6499	0.79012	0.81179	0.122
Mof_C 	C 	0.639	0.69746	0.7136	0.202
Mof_C 	C 	0.5881	0.70396	0.73933	-0.221
Mof_H 	H 	0.5508	0.6883	0.7343	0.089
Mof_C 	C 	0.5932	0.97171	0.80547	0.118
Mof_C 	C 	0.6342	0.99462	0.77978	-0.17
Mof_C 	C 	0.6068	0.02647	0.7544	0.082
Mof_H 	H 	0.5645	0.035	0.7572	-0.065
Mof_C 	C 	0.706	0.03357	0.7208	0.204
Mof_C 	C 	0.6996	0.98307	0.7774	0.082
Mof_H 	H 	0.719	0.9621	0.795	-0.036
Mof_C 	C 	0.6426	0.04544	0.7251	-0.235
Mof_H 	H 	0.6236	0.0666	0.7079	0.09
Mof_C 	C 	0.7353	0.00258	0.7491	-0.224
Mof_H 	H 	0.7795	0.9951	0.7489	0.094
Mof_C 	C 	0.4126	0.96331	0.8663	0.049
Mof_H 	H 	0.4044	0.982	0.841	-0.02
Mof_C 	C 	0.4364	0.90818	0.94226	-0.21
Mof_H 	H 	0.4447	0.8895	0.9677	0.09
Mof_C 	C 	0.4764	0.94506	0.88038	-0.174
Mof_C 	C 	0.527	0.95067	0.84997	0.103
Mof_C 	C 	0.4874	0.91721	0.91929	0.073
Mof_H 	H 	0.5298	0.9048	0.9296	-0.037
Mof_C 	C 	0.3723	0.92635	0.9283	0.19
Mof_C 	C 	0.3605	0.95406	0.8896	-0.214
Mof_H 	H 	0.3179	0.9664	0.8793	0.093
Mof_C 	C 	0.9632	0.80728	0.96297	-0.177
Mof_C 	C 	0.0145	0.81594	0.01522	0.112
Mof_H 	H 	0.0389	0.798	0.0389	-0.064
Mof_C 	C 	0.9273	0.83463	0.9279	0.111
Mof_H 	H 	0.8931	0.8296	0.8933	-0.065
Mof_C 	C 	0.9426	0.86937	0.9447	-0.243
Mof_H 	H 	0.9186	0.8874	0.9211	0.103
Mof_C 	C 	0.9477	0.77057	0.94509	0.135
Mof_C 	C 	0.0291	0.85018	0.03184	-0.258
Mof_H 	H 	0.0629	0.8552	0.0667	0.106
Mof_C 	C 	0.9937	0.87768	0.9969	0.236
Mof_C 	C 	0.8921	0.72386	0.90575	0.12
Mof_C 	C 	0.7691	0.70068	0.88549	0.091
Mof_H 	H 	0.7609	0.7184	0.9082	-0.056
Mof_C 	C 	0.7164	0.67639	0.8614	-0.22
Mof_H 	H 	0.6734	0.678	0.868	0.093
Mof_C 	C 	0.7273	0.64942	0.82742	0.195
Mof_C 	C 	0.7919	0.64865	0.8168	-0.223
Mof_H 	H 	0.7992	0.6315	0.7929	0.093
Mof_C 	C 	0.8449	0.67293	0.84131	0.093
Mof_H 	H 	0.8876	0.6716	0.8342	-0.053
Mof_C 	C 	0.8348	0.6994	0.87662	-0.175
Mof_C 	C 	0.3323	0.85329	0.81122	0.127
Mof_C 	C 	0.2589	0.86602	0.78758	-0.154
Mof_C 	C 	0.2329	0.87697	0.7315	0.066
Mof_H 	H 	0.2595	0.8724	0.7081	-0.046
Mof_C 	C 	0.2178	0.87195	0.8217	0.063
Mof_H 	H 	0.2341	0.8651	0.8595	-0.013
Mof_C 	C 	0.1695	0.8942	0.7095	-0.218
Mof_H 	H 	0.1544	0.9014	0.6719	0.088
Mof_C 	C 	0.1284	0.9009	0.742	0.169
Mof_C 	C 	0.1516	0.8884	0.7989	-0.196
Mof_H 	H 	0.1226	0.8911	0.8209	0.085
Mof_C 	C 	0.4821	0.80024	0.88808	-0.172
Mof_C 	C 	0.4724	0.76516	0.87265	0.026
Mof_H 	H 	0.4299	0.7578	0.8462	-0.024
Mof_C 	C 	0.5258	0.74092	0.8965	-0.199
Mof_H 	H 	0.519	0.7174	0.8854	0.086
Mof_C 	C 	0.599	0.78657	0.9541	-0.204
Mof_H 	H 	0.6405	0.7939	0.9818	0.084
Mof_C 	C 	0.5902	0.75141	0.9373	0.167
Mof_C 	C 	0.429	0.82633	0.85595	0.098
Mof_C 	C 	0.5452	0.81059	0.92928	0.051
Mof_H 	H 	0.5515	0.8341	0.9403	-0.032
Mof_N 	N 	0.55048	0.92352	0.82784	-0.281
Mof_N 	N 	0.5529	0.98149	0.83751	-0.288
Mof_N 	N 	0.59285	0.9373	0.79893	-0.267
Mof_N 	N 	0.28177	0.79566	0.08956	-0.282
Mof_N 	N 	0.22591	0.74594	0.09433	-0.244
Mof_N 	N 	0.18441	0.76431	0.04694	-0.245
Mof_N 	N 	0.99596	0.74527	0.95586	-0.249
Mof_N 	N 	0.95978	0.715	0.93083	-0.251
Mof_N 	N 	0.88178	0.75861	0.91393	-0.283
Mof_N 	N 	0.52924	0.12697	0.90746	-0.249
Mof_N 	N 	0.59037	0.12889	0.89172	-0.258
Mof_N 	N 	0.55752	0.07326	0.88935	-0.288
Mof_N 	N 	0.38513	0.87061	0.80188	-0.268
Mof_N 	N 	0.44717	0.85324	0.83006	-0.274
Mof_N 	N 	0.35738	0.82524	0.84545	-0.274
Mof_N 	N 	0.70685	0.80368	0.85301	-0.285
Mof_N 	N 	0.61502	0.83973	0.8365	-0.264
Mof_N 	N 	0.59385	0.81138	0.80081	-0.268
Mof_N 	N 	0.6748	0.62451	0.8034	-0.321
Mof_H 	H 	0.635	0.6256	0.8095	0.131
Mof_H 	H 	0.6822	0.608	0.7825	0.133
Mof_N 	N 	0.6319	0.669	0.678	-0.327
Mof_H 	H 	0.6631	0.6652	0.662	0.138
Mof_H 	H 	0.5962	0.6551	0.6719	0.134
Mof_N 	N 	0.3229	0.91821	0.9543	-0.328
Mof_H 	H 	0.3316	0.9018	0.9792	0.153
Mof_H 	H 	0.2836	0.9296	0.9453	0.14
Mof_N 	N 	0.7417	0.0527	0.6914	-0.326
Mof_H 	H 	0.7245	0.0723	0.6754	0.145
Mof_H 	H 	0.7811	0.0449	0.6891	0.135
Mof_N 	N 	0.6452	0.72745	0.9605	-0.313
Mof_H 	H 	0.6842	0.7344	0.9851	0.11
Mof_H 	H 	0.64	0.7057	0.9503	0.131
Mof_N 	N 	0.0771	0.90573	0.9032	-0.318
Mof_H 	H 	0.0489	0.9017	0.8695	0.129
Mof_H 	H 	0.0814	0.9268	0.9167	0.127
Mof_N 	N 	0.0112	0.91207	0.0123	-0.344
Mof_H 	H 	0.0441	0.9168	0.0437	0.141
Mof_H 	H 	0.9892	0.9289	0.9907	0.144
Mof_N 	N 	0.4829	0.72513	0.3317	-0.313
Mof_H 	H 	0.5075	0.741	0.3542	0.114
Mof_H 	H 	0.488	0.7033	0.3415	0.135
Mof_N 	N 	0.8542	0.92381	0.0432	-0.318
Mof_H 	H 	0.874	0.9153	0.0765	0.132
Mof_H 	H 	0.8595	0.9457	0.0368	0.126
Mof_N 	N 	0.8673	0.06182	0.8532	-0.324
Mof_H 	H 	0.8847	0.075	0.8333	0.131
Mof_H 	H 	0.891	0.0441	0.8712	0.131
Mof_N 	N 	0.2968	0.0331	0.9786	-0.336
Mof_H 	H 	0.2998	0.0112	0.9876	0.131
Mof_H 	H 	0.261	0.0453	0.9795	0.144
Mof_N 	N 	0.062	0.9182	0.7188	-0.311
Mof_H 	H 	0.0475	0.9246	0.684	0.123
Mof_H 	H 	0.0363	0.9223	0.7397	0.117
Mof_Cu	Cu	0.03904	0.37339	0.83228	0.764
Mof_Cu	Cu	0.05122	0.52632	0.86623	0.825
Mof_Cu	Cu	0.59482	0.24514	0.00078	0.809
Mof_Cu	Cu	0.29563	0.28236	0.88377	0.827
Mof_Cu	Cu	0.50591	0.17129	0.93257	0.809
Mof_Cu	Cu	0.81445	0.29331	0.882	0.832
Mof_Cu	Cu	0.64895	0.16918	0.90653	0.813
Mof_Cu	Cu	0.11018	0.40682	0.74663	0.779
Mof_Br	Br	0.63121	0.179	0.01096	-0.745
Mof_C 	C 	0.719	0.29402	0.04553	0.117
Mof_C 	C 	0.6457	0.31638	0.94929	0.083
Mof_H 	H 	0.6411	0.2936	0.9348	-0.051
Mof_C 	C 	0.6162	0.37796	0.9363	0.198
Mof_C 	C 	0.6626	0.38425	0.9908	-0.225
Mof_H 	H 	0.6696	0.4072	0.0044	0.098
Mof_C 	C 	0.6888	0.3224	0.00532	-0.163
Mof_C 	C 	0.698	0.35726	0.0248	0.095
Mof_H 	H 	0.7284	0.3621	0.0611	-0.049
Mof_C 	C 	0.6097	0.34394	0.915	-0.221
Mof_H 	H 	0.5814	0.3395	0.8779	0.094
Mof_C 	C 	0.7841	0.26557	0.11903	0.109
Mof_C 	C 	0.8387	0.25513	0.17231	-0.167
Mof_C 	C 	0.8792	0.27984	0.2108	0.074
Mof_H 	H 	0.8746	0.3036	0.2011	-0.054
Mof_C 	C 	0.9265	0.26992	0.2635	-0.206
Mof_H 	H 	0.9526	0.287	0.2882	0.07
Mof_C 	C 	0.8474	0.21981	0.1887	0.082
Mof_H 	H 	0.8215	0.2026	0.164	-0.051
Mof_C 	C 	0.9346	0.23475	0.2793	0.182
Mof_C 	C 	0.8942	0.20971	0.2414	-0.222
Mof_H 	H 	0.8986	0.186	0.2513	0.098
Mof_C 	C 	0.1058	0.59598	0.88188	0.116
Mof_C 	C 	0.1704	0.58612	0.86996	-0.177
Mof_C 	C 	0.1969	0.60612	0.8353	0.085
Mof_H 	H 	0.1713	0.6255	0.8165	-0.044
Mof_C 	C 	0.2612	0.5977	0.8282	-0.224
Mof_H 	H 	0.2777	0.6112	0.8043	0.092
Mof_C 	C 	0.2094	0.55694	0.8971	0.09
Mof_H 	H 	0.1922	0.543	0.9202	-0.054
Mof_C 	C 	0.3007	0.56925	0.8566	0.196
Mof_C 	C 	0.273	0.54839	0.8903	-0.224
Mof_H 	H 	0.2977	0.5286	0.9082	0.089
Mof_C 	C 	0.0122	0.59346	0.90662	0.126
Mof_C 	C 	0.9583	0.54358	0.9423	0.126
Mof_H 	H 	0.9955	0.5295	0.9405	-0.071
Mof_C 	C 	0.9071	0.52931	0.9613	-0.25
Mof_H 	H 	0.9116	0.506	0.9734	0.106
Mof_C 	C 	0.9555	0.57874	0.9256	-0.17
Mof_C 	C 	0.9011	0.59938	0.9311	0.107
Mof_H 	H 	0.9004	0.6234	0.9236	-0.052
Mof_C 	C 	0.8471	0.58454	0.9479	-0.238
Mof_H 	H 	0.8096	0.5986	0.9492	0.107
Mof_C 	C 	0.8489	0.5486	0.9629	0.214
Mof_C 	C 	0.2265	0.35816	0.91284	-0.166
Mof_C 	C 	0.2628	0.34523	0.9666	0.073
Mof_H 	H 	0.2588	0.3215	0.974	-0.039
Mof_C 	C 	0.2332	0.3934	0.9024	0.087
Mof_H 	H 	0.2089	0.4028	0.867	-0.049
Mof_C 	C 	0.1826	0.33444	0.86761	0.118
Mof_C 	C 	0.3049	0.36668	0.0095	-0.21
Mof_H 	H 	0.3276	0.3574	0.0452	0.087
Mof_C 	C 	0.2764	0.41503	0.9448	-0.217
Mof_H 	H 	0.281	0.4387	0.9372	0.086
Mof_C 	C 	0.313	0.40175	0.9988	0.175
Mof_C 	C 	0.1487	0.25734	0.78042	-0.167
Mof_C 	C 	0.2013	0.25001	0.75645	0.074
Mof_H 	H 	0.2395	0.2652	0.7625	-0.046
Mof_C 	C 	0.1962	0.22007	0.72386	-0.236
Mof_H 	H 	0.2317	0.2151	0.7086	0.096
Mof_C 	C 	0.0929	0.23366	0.77218	0.076
Mof_H 	H 	0.0587	0.2379	0.789	-0.032
Mof_C 	C 	0.1499	0.29012	0.81179	0.122
Mof_C 	C 	0.139	0.19746	0.7136	0.2
Mof_C 	C 	0.0881	0.20396	0.73933	-0.221
Mof_H 	H 	0.0508	0.1883	0.7343	0.087
Mof_C 	C 	0.0932	0.47171	0.80547	0.117
Mof_C 	C 	0.1342	0.49462	0.77978	-0.171
Mof_C 	C 	0.1068	0.52647	0.7544	0.082
Mof_H 	H 	0.0645	0.535	0.7572	-0.068
Mof_C 	C 	0.206	0.53357	0.7208	0.204
Mof_C 	C 	0.1996	0.48307	0.7774	0.082
Mof_H 	H 	0.219	0.4621	0.795	-0.036
Mof_C 	C 	0.1426	0.54544	0.7251	-0.235
Mof_H 	H 	0.1236	0.5666	0.7079	0.089
Mof_C 	C 	0.2353	0.50258	0.7491	-0.224
Mof_H 	H 	0.2795	0.4951	0.7489	0.094
Mof_C 	C 	0.9126	0.46331	0.8663	0.051
Mof_H 	H 	0.9044	0.482	0.841	-0.019
Mof_C 	C 	0.9364	0.40818	0.94226	-0.223
Mof_H 	H 	0.9447	0.3895	0.9677	0.097
Mof_C 	C 	0.9764	0.44506	0.88038	-0.172
Mof_C 	C 	0.027	0.45067	0.84997	0.095
Mof_C 	C 	0.9874	0.41721	0.91929	0.097
Mof_H 	H 	0.0298	0.4048	0.9296	-0.052
Mof_C 	C 	0.8723	0.42635	0.9283	0.196
Mof_C 	C 	0.8605	0.45406	0.8896	-0.217
Mof_H 	H 	0.8179	0.4664	0.8793	0.094
Mof_C 	C 	0.4632	0.30728	0.96297	-0.183
Mof_C 	C 	0.5145	0.31594	0.01522	0.115
Mof_H 	H 	0.5389	0.298	0.0389	-0.063
Mof_C 	C 	0.4273	0.33463	0.9279	0.106
Mof_H 	H 	0.3931	0.3296	0.8933	-0.064
Mof_C 	C 	0.4426	0.36937	0.9447	-0.233
Mof_H 	H 	0.4186	0.3874	0.9211	0.099
Mof_C 	C 	0.4477	0.27057	0.94509	0.135
Mof_C 	C 	0.5291	0.35018	0.03184	-0.24
Mof_H 	H 	0.5629	0.3552	0.0667	0.101
Mof_C 	C 	0.4937	0.37768	0.9969	0.213
Mof_C 	C 	0.3921	0.22386	0.90575	0.119
Mof_C 	C 	0.2691	0.20068	0.88549	0.091
Mof_H 	H 	0.2609	0.2184	0.9082	-0.057
Mof_C 	C 	0.2164	0.17639	0.8614	-0.22
Mof_H 	H 	0.1734	0.178	0.868	0.092
Mof_C 	C 	0.2273	0.14942	0.82742	0.195
Mof_C 	C 	0.2919	0.14865	0.8168	-0.224
Mof_H 	H 	0.2992	0.1315	0.7929	0.093
Mof_C 	C 	0.3449	0.17293	0.84131	0.094
Mof_H 	H 	0.3876	0.1716	0.8342	-0.055
Mof_C 	C 	0.3348	0.1994	0.87662	-0.176
Mof_C 	C 	0.8323	0.35329	0.81122	0.127
Mof_C 	C 	0.7589	0.36602	0.78758	-0.155
Mof_C 	C 	0.7329	0.37697	0.7315	0.067
Mof_H 	H 	0.7595	0.3724	0.7081	-0.046
Mof_C 	C 	0.7178	0.37195	0.8217	0.064
Mof_H 	H 	0.7341	0.3651	0.8595	-0.013
Mof_C 	C 	0.6695	0.3942	0.7095	-0.22
Mof_H 	H 	0.6544	0.4014	0.6719	0.089
Mof_C 	C 	0.6284	0.4009	0.742	0.171
Mof_C 	C 	0.6516	0.3884	0.7989	-0.197
Mof_H 	H 	0.6226	0.3911	0.8209	0.087
Mof_C 	C 	0.9821	0.30024	0.88808	-0.162
Mof_C 	C 	0.9724	0.26516	0.87265	0.04
Mof_H 	H 	0.9299	0.2578	0.8462	-0.027
Mof_C 	C 	0.0258	0.24092	0.8965	-0.214
Mof_H 	H 	0.019	0.2174	0.8854	0.087
Mof_C 	C 	0.099	0.28657	0.9541	-0.201
Mof_H 	H 	0.1405	0.2939	0.9818	0.082
Mof_C 	C 	0.0902	0.25141	0.9373	0.168
Mof_C 	C 	0.929	0.32633	0.85595	0.097
Mof_C 	C 	0.0452	0.31059	0.92928	0.037
Mof_H 	H 	0.0515	0.3341	0.9403	-0.03
Mof_N 	N 	0.05048	0.42352	0.82784	-0.282
Mof_N 	N 	0.0529	0.48149	0.83751	-0.289
Mof_N 	N 	0.09285	0.4373	0.79893	-0.267
Mof_N 	N 	0.78177	0.29566	0.08956	-0.282
Mof_N 	N 	0.72591	0.24594	0.09433	-0.244
Mof_N 	N 	0.68441	0.26431	0.04694	-0.245
Mof_N 	N 	0.49596	0.24527	0.95586	-0.253
Mof_N 	N 	0.45978	0.215	0.93083	-0.254
Mof_N 	N 	0.38178	0.25861	0.91393	-0.283
Mof_N 	N 	0.02924	0.62697	0.90746	-0.249
Mof_N 	N 	0.09037	0.62889	0.89172	-0.258
Mof_N 	N 	0.05752	0.57326	0.88935	-0.288
Mof_N 	N 	0.88513	0.37061	0.80188	-0.268
Mof_N 	N 	0.94717	0.35324	0.83006	-0.271
Mof_N 	N 	0.85738	0.32524	0.84545	-0.274
Mof_N 	N 	0.20685	0.30368	0.85301	-0.285
Mof_N 	N 	0.11502	0.33973	0.8365	-0.265
Mof_N 	N 	0.09385	0.31138	0.80081	-0.269
Mof_N 	N 	0.1748	0.12451	0.8034	-0.321
Mof_H 	H 	0.135	0.1256	0.8095	0.129
Mof_H 	H 	0.1822	0.108	0.7825	0.132
Mof_N 	N 	0.1319	0.169	0.678	-0.327
Mof_H 	H 	0.1631	0.1652	0.662	0.137
Mof_H 	H 	0.0962	0.1551	0.6719	0.132
Mof_N 	N 	0.8229	0.41821	0.9543	-0.329
Mof_H 	H 	0.8316	0.4018	0.9792	0.154
Mof_H 	H 	0.7836	0.4296	0.9453	0.14
Mof_N 	N 	0.2417	0.5527	0.6914	-0.326
Mof_H 	H 	0.2245	0.5723	0.6754	0.145
Mof_H 	H 	0.2811	0.5449	0.6891	0.135
Mof_N 	N 	0.1452	0.22745	0.9605	-0.313
Mof_H 	H 	0.1842	0.2344	0.9851	0.11
Mof_H 	H 	0.14	0.2057	0.9503	0.131
Mof_N 	N 	0.5771	0.40573	0.9032	-0.319
Mof_H 	H 	0.5489	0.4017	0.8695	0.132
Mof_H 	H 	0.5814	0.4268	0.9167	0.13
Mof_N 	N 	0.5112	0.41207	0.0123	-0.327
Mof_H 	H 	0.5441	0.4168	0.0437	0.138
Mof_H 	H 	0.4892	0.4289	0.9907	0.133
Mof_N 	N 	0.9829	0.22513	0.3317	-0.305
Mof_H 	H 	0.0075	0.241	0.3542	0.105
Mof_H 	H 	0.988	0.2033	0.3415	0.135
Mof_N 	N 	0.3542	0.42381	0.0432	-0.316
Mof_H 	H 	0.374	0.4153	0.0765	0.13
Mof_H 	H 	0.3595	0.4457	0.0368	0.125
Mof_N 	N 	0.3673	0.56182	0.8532	-0.323
Mof_H 	H 	0.3847	0.575	0.8333	0.129
Mof_H 	H 	0.391	0.5441	0.8712	0.129
Mof_N 	N 	0.7968	0.5331	0.9786	-0.335
Mof_H 	H 	0.7998	0.5112	0.9876	0.132
Mof_H 	H 	0.761	0.5453	0.9795	0.144
Mof_N 	N 	0.562	0.4182	0.7188	-0.312
Mof_H 	H 	0.5475	0.4246	0.684	0.126
Mof_H 	H 	0.5363	0.4223	0.7397	0.121
Mof_Cu	Cu	0.5	0.19028	0.25	0.77
Mof_Cu	Cu	1.2649e-17	0.69028	0.25	0.767
Mof_Cu	Cu	0.5	0.80972	0.75	0.77
Mof_Cu	Cu	4.69433e-33	0.30972	0.75	0.766
_end
