data_functionalizedCrystal
_audit_creation_method	'EQeq! by Chris Wilmer'
_symmetry_space_group_name_H-M	'P1'
_symmetry_Int_Tables_number	1
_symmetry_cell_setting	triclinic
loop_
_symmetry_equiv_pos_as_xyz
  x,y,z
_cell_length_a	12.537
_cell_length_b	14.977
_cell_length_c	15.404
_cell_angle_alpha	90
_cell_angle_beta	90
_cell_angle_gamma	90
loop_
_atom_site_label
_atom_site_type_symbol
_atom_site_fract_x
_atom_site_fract_y
_atom_site_fract_z
_atom_site_charge
Mof_Mg	Mg	0.99616	0.53021	0.9499	1.591
Mof_Mg	Mg	0.79941	0.67543	0.83546	1.348
Mof_C 	C 	0.9068	0.3361	0.7189	0.076
Mof_H 	H 	0.9581	0.3226	0.7614	-0.42
Mof_C 	C 	0.8165	0.3001	0.586	0.245
Mof_H 	H 	0.8059	0.2612	0.5388	-0.341
Mof_C 	C 	0.8906	0.2782	0.6498	-1.022
Mof_O 	O 	0.9419	0.4619	0.8507	-0.507
Mof_O 	O 	0.8051	0.5439	0.8039	-1.277
Mof_C 	C 	0.8477	0.4135	0.7252	-1.056
Mof_C 	C 	0.867	0.4788	0.7993	0.147
Mof_C 	C 	0.7579	0.3786	0.5912	-0.943
Mof_C 	C 	0.7738	0.4351	0.6619	0.272
Mof_H 	H 	0.734	0.4882	0.6666	-0.701
Mof_C 	C 	0.1347	0.4446	0.0428	55.41
Mof_O 	O 	0.1079	0.5205	0.0675	-17.225
Mof_C 	C 	0.9564	0.194	0.6429	0.712
Mof_O 	O 	0.0938	0.4222	0.9776	-19.493
Mof_O 	O 	0.0389	0.1899	0.6881	-1.5
Mof_O 	O 	0.9238	0.1349	0.5914	-0.711
Mof_C 	C 	0.6749	0.4031	0.5258	0.614
Mof_O 	O 	0.6587	0.3525	0.4634	-0.729
Mof_O 	O 	0.6221	0.4734	0.5365	-0.544
Mof_C 	C 	0.1957	0.3992	0.0835	-96.643
Mof_H 	H 	0.2498	0.4368	0.1097	26.915
Mof_H 	H 	0.2295	0.3564	0.045	26.908
Mof_H 	H 	0.1572	0.3676	0.1286	26.729
Mof_Mg	Mg	0.50384	0.46979	0.4499	1.768
Mof_Mg	Mg	0.70059	0.32457	0.33546	1.38
Mof_C 	C 	0.5932	0.6639	0.2189	-0.171
Mof_H 	H 	0.5419	0.6774	0.2614	-0.145
Mof_C 	C 	0.6835	0.6999	0.086	0.044
Mof_H 	H 	0.6941	0.7388	0.0388	-0.335
Mof_C 	C 	0.6094	0.7218	0.1498	-0.708
Mof_O 	O 	0.5581	0.5381	0.3507	0.667
Mof_O 	O 	0.6949	0.4561	0.3039	-0.937
Mof_C 	C 	0.6523	0.5865	0.2252	-0.505
Mof_C 	C 	0.633	0.5212	0.2993	-0.194
Mof_C 	C 	0.7421	0.6214	0.0912	-0.682
Mof_C 	C 	0.7262	0.5649	0.1619	-0.007
Mof_H 	H 	0.766	0.5118	0.1666	-0.384
Mof_C 	C 	0.3653	0.5554	0.5428	138.875
Mof_O 	O 	0.3921	0.4795	0.5675	-41.426
Mof_C 	C 	0.5436	0.806	0.1429	0.293
Mof_O 	O 	0.4062	0.5778	0.4776	-47.118
Mof_O 	O 	0.4611	0.8101	0.1881	-1.117
Mof_O 	O 	0.5762	0.8651	0.0914	-0.739
Mof_C 	C 	0.8251	0.5969	0.0258	0.414
Mof_O 	O 	0.8413	0.6475	0.9634	-0.803
Mof_O 	O 	0.8779	0.5266	0.0365	-0.633
Mof_C 	C 	0.3043	0.6008	0.5835	-242.517
Mof_H 	H 	0.2502	0.5632	0.6097	68.037
Mof_H 	H 	0.2705	0.6436	0.545	68.129
Mof_H 	H 	0.3428	0.6324	0.6286	67.708
Mof_Mg	Mg	0.00384	0.03021	0.5501	1.522
Mof_Mg	Mg	0.20059	0.17543	0.66454	1.363
Mof_C 	C 	0.0932	0.8361	0.7811	-0.08
Mof_H 	H 	0.0419	0.8226	0.7386	-0.778
Mof_C 	C 	0.1835	0.8001	0.914	0.118
Mof_H 	H 	0.1941	0.7612	0.9612	-0.396
Mof_C 	C 	0.1094	0.7782	0.8502	-1.183
Mof_O 	O 	0.0581	0.9619	0.6493	-0.822
Mof_O 	O 	0.1949	0.0439	0.6961	-1.28
Mof_C 	C 	0.1523	0.9135	0.7748	-1.176
Mof_C 	C 	0.133	0.9788	0.7007	0.266
Mof_C 	C 	0.2421	0.8786	0.9088	-1.05
Mof_C 	C 	0.2262	0.9351	0.8381	0.211
Mof_H 	H 	0.266	0.9882	0.8334	-0.524
Mof_C 	C 	0.8653	0.9446	0.4572	46.887
Mof_O 	O 	0.8921	0.0205	0.4325	-14.331
Mof_C 	C 	0.0436	0.694	0.8571	-0.169
Mof_O 	O 	0.9062	0.9222	0.5224	-16.64
Mof_O 	O 	0.9611	0.6899	0.8119	-1.168
Mof_O 	O 	0.0762	0.6349	0.9086	-0.984
Mof_C 	C 	0.3251	0.9031	0.9742	0.724
Mof_O 	O 	0.3413	0.8525	0.0366	-1.199
Mof_O 	O 	0.3779	0.9734	0.9635	-0.828
Mof_C 	C 	0.8043	0.8992	0.4165	-81.658
Mof_H 	H 	0.7502	0.9368	0.3903	22.753
Mof_H 	H 	0.7705	0.8564	0.455	22.61
Mof_H 	H 	0.8428	0.8676	0.3714	22.537
Mof_Mg	Mg	0.49616	0.96979	0.0501	1.55
Mof_Mg	Mg	0.29941	0.82457	0.16454	1.355
Mof_C 	C 	0.4068	0.1639	0.2811	0.049
Mof_H 	H 	0.4581	0.1774	0.2386	-0.346
Mof_C 	C 	0.3165	0.1999	0.414	0.15
Mof_H 	H 	0.3059	0.2388	0.4612	-0.32
Mof_C 	C 	0.3906	0.2218	0.3502	-0.783
Mof_O 	O 	0.4419	0.0381	0.1493	-0.389
Mof_O 	O 	0.3051	0.9561	0.1961	-1.251
Mof_C 	C 	0.3477	0.0865	0.2748	-0.866
Mof_C 	C 	0.367	0.0212	0.2007	0.336
Mof_C 	C 	0.2579	0.1214	0.4088	-0.941
Mof_C 	C 	0.2738	0.0649	0.3381	0.241
Mof_H 	H 	0.234	0.0118	0.3334	-0.609
Mof_C 	C 	0.6347	0.0554	0.9572	51.303
Mof_O 	O 	0.6079	0.9795	0.9325	-15.725
Mof_C 	C 	0.4564	0.306	0.3571	0.205
Mof_O 	O 	0.5938	0.0778	0.0224	-17.83
Mof_O 	O 	0.5389	0.3101	0.3119	-0.96
Mof_O 	O 	0.4238	0.3651	0.4086	-0.247
Mof_C 	C 	0.1749	0.0969	0.4742	0.542
Mof_O 	O 	0.1587	0.1475	0.5366	-1.079
Mof_O 	O 	0.1221	0.0266	0.4635	-1.158
Mof_C 	C 	0.6957	0.1008	0.9165	-89.646
Mof_H 	H 	0.7498	0.0632	0.8903	25.043
Mof_H 	H 	0.7295	0.1436	0.955	25.047
Mof_H 	H 	0.6572	0.1324	0.8714	24.855
_end
