data_functionalizedCrystal
_audit_creation_method	'EQeq! by Chris Wilmer'
_symmetry_space_group_name_H-M	'P1'
_symmetry_Int_Tables_number	1
_symmetry_cell_setting	triclinic
loop_
_symmetry_equiv_pos_as_xyz
  x,y,z
_cell_length_a	35.4076
_cell_length_b	14.8501
_cell_length_c	30.9056
_cell_angle_alpha	90
_cell_angle_beta	101.972
_cell_angle_gamma	90
loop_
_atom_site_label
_atom_site_type_symbol
_atom_site_fract_x
_atom_site_fract_y
_atom_site_fract_z
_atom_site_charge
Mof_I 	I 	0.76774	0.73436	0.70723	-0.001
Mof_I 	I 	0.4714	0.65192	0.3704	-0.354
Mof_I 	I 	0.87059	0.65295	0.80719	-0.409
Mof_I 	I 	0.64343	0.90904	0.48596	-0.37
Mof_I 	I 	0.6037	0.76281	0.59934	-0.279
Mof_I 	I 	0.37808	0.73782	0.44353	-0.382
Mof_Zn	Zn	0.41438	0.62461	0.40699	1.164
Mof_Zn	Zn	0.62307	0.9038	0.55972	1.163
Mof_Zn	Zn	0.8282	0.6395	0.73012	1.155
Mof_N 	N 	0.81578	0.503	0.7208	-0.27
Mof_N 	N 	0.81774	0.174	0.7471	-0.137
Mof_N 	N 	0.42848	0.5192	0.4521	-0.268
Mof_N 	N 	0.77699	0.0482	0.726	-0.143
Mof_N 	N 	0.66634	0.967	0.6049	-0.269
Mof_N 	N 	0.47543	0.2309	0.52951	-0.147
Mof_N 	N 	0.36203	0.1611	0.6841	-0.279
Mof_N 	N 	0.7646	0.1864	0.6866	-0.141
Mof_N 	N 	0.57694	0.9903	0.5571	-0.278
Mof_N 	N 	0.42557	0.2794	0.5651	-0.134
Mof_N 	N 	0.46138	0.1481	0.59	-0.135
Mof_C 	C 	0.8071	0.0896	0.7517	0.103
Mof_C 	C 	0.4334	0.2071	0.5916	0.107
Mof_C 	C 	0.7575	0.099	0.6929	0.085
Mof_C 	C 	0.7254	0.0546	0.6618	0.045
Mof_C 	C 	0.4815	0.1641	0.5589	0.092
Mof_C 	C 	0.4414	0.3693	0.5065	0.049
Mof_C 	C 	0.8021	0.3184	0.7145	0.052
Mof_C 	C 	0.7945	0.22	0.7155	0.104
Mof_C 	C 	0.5626	0.0414	0.5224	0.08
Mof_H 	H 	0.574	0.0387	0.4972	-0.007
Mof_C 	C 	0.6776	0.0498	0.5954	0.067
Mof_H 	H 	0.6653	0.0772	0.5684	0.001
Mof_C 	C 	0.351	0.2175	0.6491	0.065
Mof_H 	H 	0.3266	0.2466	0.6455	-0.01
Mof_C 	C 	0.5143	0.1019	0.5574	0.058
Mof_C 	C 	0.4674	0.3927	0.4807	-0.114
Mof_H 	H 	0.4898	0.3573	0.4809	0.071
Mof_C 	C 	0.4089	0.1914	0.6237	0.065
Mof_C 	C 	0.7063	0.0963	0.6236	-0.112
Mof_H 	H 	0.7128	0.1559	0.6168	0.084
Mof_C 	C 	0.44762	0.2886	0.5352	0.092
Mof_C 	C 	0.7833	0.4701	0.6959	0.069
Mof_H 	H 	0.7648	0.5112	0.6803	-0.008
Mof_C 	C 	0.4031	0.4951	0.477	0.066
Mof_H 	H 	0.3807	0.5308	0.4758	-0.011
Mof_C 	C 	0.7142	0.9681	0.6708	-0.121
Mof_H 	H 	0.7269	0.9379	0.6969	0.085
Mof_C 	C 	0.4601	0.4687	0.4546	0.067
Mof_H 	H 	0.4784	0.4859	0.4376	-0.007
Mof_C 	C 	0.6848	0.9263	0.6419	0.069
Mof_H 	H 	0.6773	0.8672	0.6484	-0.003
Mof_C 	C 	0.8422	0.4441	0.7421	0.057
Mof_H 	H 	0.8657	0.4666	0.7593	-0.012
Mof_C 	C 	0.7756	0.3792	0.6918	-0.119
Mof_H 	H 	0.7523	0.3585	0.6736	0.077
Mof_C 	C 	0.3734	0.234	0.619	-0.114
Mof_H 	H 	0.3648	0.2742	0.5951	0.084
Mof_C 	C 	0.4085	0.4219	0.5039	-0.116
Mof_H 	H 	0.3898	0.4066	0.5207	0.079
Mof_C 	C 	0.5317	0.0985	0.5216	-0.13
Mof_H 	H 	0.5225	0.1351	0.4964	0.079
Mof_C 	C 	0.8363	0.3522	0.7399	-0.112
Mof_H 	H 	0.8553	0.3124	0.7555	0.08
Mof_C 	C 	0.3957	0.1216	0.6882	0.084
Mof_H 	H 	0.4039	0.0827	0.7127	-0.021
Mof_C 	C 	0.5298	0.0504	0.5934	-0.131
Mof_H 	H 	0.5196	0.0532	0.6195	0.088
Mof_C 	C 	0.4199	0.1335	0.6587	-0.123
Mof_H 	H 	0.4438	0.1022	0.6627	0.085
Mof_C 	C 	0.5601	0.9949	0.5912	0.086
Mof_H 	H 	0.5696	0.9571	0.6158	-0.02
Mof_C 	C 	0.83062	0.03802	0.78878	0.051
Mof_C 	C 	0.82372	0.94673	0.79517	-0.117
Mof_H 	H 	0.804	0.9156	0.7752	0.07
Mof_C 	C 	0.86035	0.08	0.8179	-0.113
Mof_H 	H 	0.8658	0.142	0.8146	0.09
Mof_C 	C 	0.84578	0.9023	0.83078	0.059
Mof_H 	H 	0.8402	0.8411	0.8359	-0.009
Mof_C 	C 	0.88198	0.0299	0.85186	0.067
Mof_H 	H 	0.9028	0.0585	0.8713	-0.004
Mof_N 	N 	0.87504	0.9435	0.85858	-0.266
Mof_I 	I 	0.61133	0.762	0.5904	-0.076
Mof_I 	I 	0.7574	0.7249	0.6924	-0.324
Mof_I 	I 	0.26774	0.23436	0.70723	-0.001
Mof_I 	I 	0.9714	0.15192	0.3704	-0.354
Mof_I 	I 	0.37059	0.15295	0.80719	-0.409
Mof_I 	I 	0.14343	0.40904	0.48596	-0.37
Mof_I 	I 	0.1037	0.26281	0.59934	-0.279
Mof_I 	I 	0.87808	0.23782	0.44353	-0.382
Mof_Zn	Zn	0.91438	0.12461	0.40699	1.164
Mof_Zn	Zn	0.12307	0.4038	0.55972	1.163
Mof_Zn	Zn	0.3282	0.1395	0.73012	1.155
Mof_N 	N 	0.31578	0.003	0.7208	-0.27
Mof_N 	N 	0.31774	0.674	0.7471	-0.137
Mof_N 	N 	0.92848	0.0192	0.4521	-0.268
Mof_N 	N 	0.27699	0.5482	0.726	-0.143
Mof_N 	N 	0.16634	0.467	0.6049	-0.269
Mof_N 	N 	0.97543	0.7309	0.52951	-0.147
Mof_N 	N 	0.86203	0.6611	0.6841	-0.279
Mof_N 	N 	0.2646	0.6864	0.6866	-0.141
Mof_N 	N 	0.07694	0.4903	0.5571	-0.278
Mof_N 	N 	0.92557	0.7794	0.5651	-0.134
Mof_N 	N 	0.96138	0.6481	0.59	-0.135
Mof_C 	C 	0.3071	0.5896	0.7517	0.103
Mof_C 	C 	0.9334	0.7071	0.5916	0.107
Mof_C 	C 	0.2575	0.599	0.6929	0.085
Mof_C 	C 	0.2254	0.5546	0.6618	0.045
Mof_C 	C 	0.9815	0.6641	0.5589	0.092
Mof_C 	C 	0.9414	0.8693	0.5065	0.049
Mof_C 	C 	0.3021	0.8184	0.7145	0.052
Mof_C 	C 	0.2945	0.72	0.7155	0.104
Mof_C 	C 	0.0626	0.5414	0.5224	0.08
Mof_H 	H 	0.074	0.5387	0.4972	-0.007
Mof_C 	C 	0.1776	0.5498	0.5954	0.067
Mof_H 	H 	0.1653	0.5772	0.5684	0.001
Mof_C 	C 	0.851	0.7175	0.6491	0.065
Mof_H 	H 	0.8266	0.7466	0.6455	-0.01
Mof_C 	C 	0.0143	0.6019	0.5574	0.058
Mof_C 	C 	0.9674	0.8927	0.4807	-0.114
Mof_H 	H 	0.9898	0.8573	0.4809	0.071
Mof_C 	C 	0.9089	0.6914	0.6237	0.065
Mof_C 	C 	0.2063	0.5963	0.6236	-0.111
Mof_H 	H 	0.2128	0.6559	0.6168	0.084
Mof_C 	C 	0.94762	0.7886	0.5352	0.092
Mof_C 	C 	0.2833	0.9701	0.6959	0.069
Mof_H 	H 	0.2648	0.0112	0.6803	-0.008
Mof_C 	C 	0.9031	0.9951	0.477	0.066
Mof_H 	H 	0.8807	0.0308	0.4758	-0.011
Mof_C 	C 	0.2142	0.4681	0.6708	-0.121
Mof_H 	H 	0.2269	0.4379	0.6969	0.085
Mof_C 	C 	0.9601	0.9687	0.4546	0.067
Mof_H 	H 	0.9784	0.9859	0.4376	-0.007
Mof_C 	C 	0.1848	0.4263	0.6419	0.069
Mof_H 	H 	0.1773	0.3672	0.6484	-0.003
Mof_C 	C 	0.3422	0.9441	0.7421	0.057
Mof_H 	H 	0.3657	0.9666	0.7593	-0.012
Mof_C 	C 	0.2756	0.8792	0.6918	-0.118
Mof_H 	H 	0.2523	0.8585	0.6736	0.077
Mof_C 	C 	0.8734	0.734	0.619	-0.114
Mof_H 	H 	0.8648	0.7742	0.5951	0.084
Mof_C 	C 	0.9085	0.9219	0.5039	-0.116
Mof_H 	H 	0.8898	0.9066	0.5207	0.079
Mof_C 	C 	0.0317	0.5985	0.5216	-0.13
Mof_H 	H 	0.0225	0.6351	0.4964	0.079
Mof_C 	C 	0.3363	0.8522	0.7399	-0.112
Mof_H 	H 	0.3553	0.8124	0.7555	0.08
Mof_C 	C 	0.8957	0.6216	0.6882	0.084
Mof_H 	H 	0.9039	0.5827	0.7127	-0.021
Mof_C 	C 	0.0298	0.5504	0.5934	-0.131
Mof_H 	H 	0.0196	0.5532	0.6195	0.088
Mof_C 	C 	0.9199	0.6335	0.6587	-0.123
Mof_H 	H 	0.9438	0.6022	0.6627	0.085
Mof_C 	C 	0.0601	0.4949	0.5912	0.087
Mof_H 	H 	0.0696	0.4571	0.6158	-0.02
Mof_C 	C 	0.33062	0.53802	0.78878	0.051
Mof_C 	C 	0.32372	0.44673	0.79517	-0.117
Mof_H 	H 	0.304	0.4156	0.7752	0.07
Mof_C 	C 	0.36035	0.58	0.8179	-0.113
Mof_H 	H 	0.3658	0.642	0.8146	0.09
Mof_C 	C 	0.34578	0.4023	0.83078	0.059
Mof_H 	H 	0.3402	0.3411	0.8359	-0.009
Mof_C 	C 	0.38198	0.5299	0.85186	0.067
Mof_H 	H 	0.4028	0.5585	0.8713	-0.004
Mof_N 	N 	0.37504	0.4435	0.85858	-0.266
Mof_I 	I 	0.11133	0.262	0.5904	-0.076
Mof_I 	I 	0.2574	0.2249	0.6924	-0.324
Mof_I 	I 	0.76774	0.26564	0.20723	-0.001
Mof_I 	I 	0.4714	0.34808	0.8704	-0.354
Mof_I 	I 	0.87059	0.34705	0.30719	-0.409
Mof_I 	I 	0.64343	0.09096	0.98596	-0.37
Mof_I 	I 	0.6037	0.23719	0.09934	-0.279
Mof_I 	I 	0.37808	0.26218	0.94353	-0.382
Mof_Zn	Zn	0.41438	0.37539	0.90699	1.164
Mof_Zn	Zn	0.62307	0.0962	0.05972	1.163
Mof_Zn	Zn	0.8282	0.3605	0.23012	1.155
Mof_N 	N 	0.81578	0.497	0.2208	-0.27
Mof_N 	N 	0.81774	0.826	0.2471	-0.137
Mof_N 	N 	0.42848	0.4808	0.9521	-0.268
Mof_N 	N 	0.77699	0.9518	0.226	-0.143
Mof_N 	N 	0.66634	0.033	0.1049	-0.269
Mof_N 	N 	0.47543	0.7691	0.02951	-0.147
Mof_N 	N 	0.36203	0.8389	0.1841	-0.279
Mof_N 	N 	0.7646	0.8136	0.1866	-0.141
Mof_N 	N 	0.57694	0.0097	0.0571	-0.278
Mof_N 	N 	0.42557	0.7206	0.0651	-0.134
Mof_N 	N 	0.46138	0.8519	0.09	-0.135
Mof_C 	C 	0.8071	0.9104	0.2517	0.103
Mof_C 	C 	0.4334	0.7929	0.0916	0.107
Mof_C 	C 	0.7575	0.901	0.1929	0.085
Mof_C 	C 	0.7254	0.9454	0.1618	0.045
Mof_C 	C 	0.4815	0.8359	0.0589	0.093
Mof_C 	C 	0.4414	0.6307	0.0065	0.049
Mof_C 	C 	0.8021	0.6816	0.2145	0.052
Mof_C 	C 	0.7945	0.78	0.2155	0.104
Mof_C 	C 	0.5626	0.9586	0.0224	0.081
Mof_H 	H 	0.574	0.9613	0.9972	-0.008
Mof_C 	C 	0.6776	0.9502	0.0954	0.067
Mof_H 	H 	0.6653	0.9228	0.0684	0.001
Mof_C 	C 	0.351	0.7825	0.1491	0.065
Mof_H 	H 	0.3266	0.7534	0.1455	-0.01
Mof_C 	C 	0.5143	0.8981	0.0574	0.058
Mof_C 	C 	0.4674	0.6073	0.9807	-0.114
Mof_H 	H 	0.4898	0.6427	0.9809	0.071
Mof_C 	C 	0.4089	0.8086	0.1237	0.065
Mof_C 	C 	0.7063	0.9037	0.1236	-0.112
Mof_H 	H 	0.7128	0.8441	0.1168	0.084
Mof_C 	C 	0.44762	0.7114	0.0352	0.092
Mof_C 	C 	0.7833	0.5299	0.1959	0.069
Mof_H 	H 	0.7648	0.4888	0.1803	-0.008
Mof_C 	C 	0.4031	0.5049	0.977	0.066
Mof_H 	H 	0.3807	0.4692	0.9758	-0.011
Mof_C 	C 	0.7142	0.0319	0.1708	-0.122
Mof_H 	H 	0.7269	0.0621	0.1969	0.085
Mof_C 	C 	0.4601	0.5313	0.9546	0.067
Mof_H 	H 	0.4784	0.5141	0.9376	-0.007
Mof_C 	C 	0.6848	0.0737	0.1419	0.069
Mof_H 	H 	0.6773	0.1328	0.1484	-0.003
Mof_C 	C 	0.8422	0.5559	0.2421	0.057
Mof_H 	H 	0.8657	0.5334	0.2593	-0.012
Mof_C 	C 	0.7756	0.6208	0.1918	-0.119
Mof_H 	H 	0.7523	0.6415	0.1736	0.077
Mof_C 	C 	0.3734	0.766	0.119	-0.114
Mof_H 	H 	0.3648	0.7258	0.0951	0.084
Mof_C 	C 	0.4085	0.5781	0.0039	-0.116
Mof_H 	H 	0.3898	0.5934	0.0207	0.079
Mof_C 	C 	0.5317	0.9015	0.0216	-0.129
Mof_H 	H 	0.5225	0.8649	0.9964	0.079
Mof_C 	C 	0.8363	0.6478	0.2399	-0.112
Mof_H 	H 	0.8553	0.6876	0.2555	0.08
Mof_C 	C 	0.3957	0.8784	0.1882	0.084
Mof_H 	H 	0.4039	0.9173	0.2127	-0.021
Mof_C 	C 	0.5298	0.9496	0.0934	-0.131
Mof_H 	H 	0.5196	0.9468	0.1195	0.088
Mof_C 	C 	0.4199	0.8665	0.1587	-0.123
Mof_H 	H 	0.4438	0.8978	0.1627	0.085
Mof_C 	C 	0.5601	0.0051	0.0912	0.086
Mof_H 	H 	0.5696	0.0429	0.1158	-0.02
Mof_C 	C 	0.83062	0.96198	0.28878	0.051
Mof_C 	C 	0.82372	0.05327	0.29517	-0.117
Mof_H 	H 	0.804	0.0844	0.2752	0.07
Mof_C 	C 	0.86035	0.92	0.3179	-0.113
Mof_H 	H 	0.8658	0.858	0.3146	0.09
Mof_C 	C 	0.84578	0.0977	0.33078	0.059
Mof_H 	H 	0.8402	0.1589	0.3359	-0.009
Mof_C 	C 	0.88198	0.9701	0.35186	0.067
Mof_H 	H 	0.9028	0.9415	0.3713	-0.004
Mof_N 	N 	0.87504	0.0565	0.35858	-0.266
Mof_I 	I 	0.61133	0.238	0.0904	-0.076
Mof_I 	I 	0.7574	0.2751	0.1924	-0.324
Mof_I 	I 	0.26774	0.76564	0.20723	-0.001
Mof_I 	I 	0.9714	0.84808	0.8704	-0.354
Mof_I 	I 	0.37059	0.84705	0.30719	-0.409
Mof_I 	I 	0.14343	0.59096	0.98596	-0.37
Mof_I 	I 	0.1037	0.73719	0.09934	-0.279
Mof_I 	I 	0.87808	0.76218	0.94353	-0.382
Mof_Zn	Zn	0.91438	0.87539	0.90699	1.164
Mof_Zn	Zn	0.12307	0.5962	0.05972	1.163
Mof_Zn	Zn	0.3282	0.8605	0.23012	1.155
Mof_N 	N 	0.31578	0.997	0.2208	-0.27
Mof_N 	N 	0.31774	0.326	0.2471	-0.137
Mof_N 	N 	0.92848	0.9808	0.9521	-0.269
Mof_N 	N 	0.27699	0.4518	0.226	-0.143
Mof_N 	N 	0.16634	0.533	0.1049	-0.269
Mof_N 	N 	0.97543	0.2691	0.02951	-0.147
Mof_N 	N 	0.86203	0.3389	0.1841	-0.279
Mof_N 	N 	0.2646	0.3136	0.1866	-0.141
Mof_N 	N 	0.07694	0.5097	0.0571	-0.278
Mof_N 	N 	0.92557	0.2206	0.0651	-0.134
Mof_N 	N 	0.96138	0.3519	0.09	-0.135
Mof_C 	C 	0.3071	0.4104	0.2517	0.103
Mof_C 	C 	0.9334	0.2929	0.0916	0.107
Mof_C 	C 	0.2575	0.401	0.1929	0.085
Mof_C 	C 	0.2254	0.4454	0.1618	0.045
Mof_C 	C 	0.9815	0.3359	0.0589	0.092
Mof_C 	C 	0.9414	0.1307	0.0065	0.049
Mof_C 	C 	0.3021	0.1816	0.2145	0.052
Mof_C 	C 	0.2945	0.28	0.2155	0.104
Mof_C 	C 	0.0626	0.4586	0.0224	0.08
Mof_H 	H 	0.074	0.4613	0.9972	-0.007
Mof_C 	C 	0.1776	0.4502	0.0954	0.067
Mof_H 	H 	0.1653	0.4228	0.0684	0.001
Mof_C 	C 	0.851	0.2825	0.1491	0.065
Mof_H 	H 	0.8266	0.2534	0.1455	-0.01
Mof_C 	C 	0.0143	0.3981	0.0574	0.058
Mof_C 	C 	0.9674	0.1073	0.9807	-0.114
Mof_H 	H 	0.9898	0.1427	0.9809	0.071
Mof_C 	C 	0.9089	0.3086	0.1237	0.065
Mof_C 	C 	0.2063	0.4037	0.1236	-0.111
Mof_H 	H 	0.2128	0.3441	0.1168	0.084
Mof_C 	C 	0.94762	0.2114	0.0352	0.092
Mof_C 	C 	0.2833	0.0299	0.1959	0.069
Mof_H 	H 	0.2648	0.9888	0.1803	-0.008
Mof_C 	C 	0.9031	0.0049	0.977	0.067
Mof_H 	H 	0.8807	0.9692	0.9758	-0.012
Mof_C 	C 	0.2142	0.5319	0.1708	-0.121
Mof_H 	H 	0.2269	0.5621	0.1969	0.085
Mof_C 	C 	0.9601	0.0313	0.9546	0.067
Mof_H 	H 	0.9784	0.0141	0.9376	-0.007
Mof_C 	C 	0.1848	0.5737	0.1419	0.069
Mof_H 	H 	0.1773	0.6328	0.1484	-0.003
Mof_C 	C 	0.3422	0.0559	0.2421	0.057
Mof_H 	H 	0.3657	0.0334	0.2593	-0.012
Mof_C 	C 	0.2756	0.1208	0.1918	-0.118
Mof_H 	H 	0.2523	0.1415	0.1736	0.077
Mof_C 	C 	0.8734	0.266	0.119	-0.114
Mof_H 	H 	0.8648	0.2258	0.0951	0.084
Mof_C 	C 	0.9085	0.0781	0.0039	-0.116
Mof_H 	H 	0.8898	0.0934	0.0207	0.079
Mof_C 	C 	0.0317	0.4015	0.0216	-0.13
Mof_H 	H 	0.0225	0.3649	0.9964	0.08
Mof_C 	C 	0.3363	0.1478	0.2399	-0.111
Mof_H 	H 	0.3553	0.1876	0.2555	0.08
Mof_C 	C 	0.8957	0.3784	0.1882	0.084
Mof_H 	H 	0.9039	0.4173	0.2127	-0.021
Mof_C 	C 	0.0298	0.4496	0.0934	-0.131
Mof_H 	H 	0.0196	0.4468	0.1195	0.088
Mof_C 	C 	0.9199	0.3665	0.1587	-0.123
Mof_H 	H 	0.9438	0.3978	0.1627	0.085
Mof_C 	C 	0.0601	0.5051	0.0912	0.087
Mof_H 	H 	0.0696	0.5429	0.1158	-0.02
Mof_C 	C 	0.33062	0.46198	0.28878	0.051
Mof_C 	C 	0.32372	0.55327	0.29517	-0.117
Mof_H 	H 	0.304	0.5844	0.2752	0.07
Mof_C 	C 	0.36035	0.42	0.3179	-0.113
Mof_H 	H 	0.3658	0.358	0.3146	0.09
Mof_C 	C 	0.34578	0.5977	0.33078	0.059
Mof_H 	H 	0.3402	0.6589	0.3359	-0.009
Mof_C 	C 	0.38198	0.4701	0.35186	0.067
Mof_H 	H 	0.4028	0.4415	0.3713	-0.004
Mof_N 	N 	0.37504	0.5565	0.35858	-0.266
Mof_I 	I 	0.11133	0.738	0.0904	-0.076
Mof_I 	I 	0.2574	0.7751	0.1924	-0.324
Mof_I 	I 	0.23226	0.73436	0.79277	-0.001
Mof_I 	I 	0.5286	0.65192	0.1296	-0.354
Mof_I 	I 	0.12941	0.65295	0.69281	-0.409
Mof_I 	I 	0.35657	0.90904	0.01404	-0.37
Mof_I 	I 	0.3963	0.76281	0.90066	-0.279
Mof_I 	I 	0.62192	0.73782	0.05647	-0.382
Mof_Zn	Zn	0.58562	0.62461	0.09301	1.164
Mof_Zn	Zn	0.37693	0.9038	0.94028	1.163
Mof_Zn	Zn	0.1718	0.6395	0.76988	1.155
Mof_N 	N 	0.18422	0.503	0.7792	-0.27
Mof_N 	N 	0.18226	0.174	0.7529	-0.137
Mof_N 	N 	0.57152	0.5192	0.0479	-0.268
Mof_N 	N 	0.22301	0.0482	0.774	-0.143
Mof_N 	N 	0.33366	0.967	0.8951	-0.269
Mof_N 	N 	0.52457	0.2309	0.97049	-0.147
Mof_N 	N 	0.63797	0.1611	0.8159	-0.279
Mof_N 	N 	0.2354	0.1864	0.8134	-0.141
Mof_N 	N 	0.42306	0.9903	0.9429	-0.278
Mof_N 	N 	0.57443	0.2794	0.9349	-0.134
Mof_N 	N 	0.53862	0.1481	0.91	-0.135
Mof_C 	C 	0.1929	0.0896	0.7483	0.103
Mof_C 	C 	0.5666	0.2071	0.9084	0.107
Mof_C 	C 	0.2425	0.099	0.8071	0.085
Mof_C 	C 	0.2746	0.0546	0.8382	0.045
Mof_C 	C 	0.5185	0.1641	0.9411	0.093
Mof_C 	C 	0.5586	0.3693	0.9935	0.049
Mof_C 	C 	0.1979	0.3184	0.7855	0.052
Mof_C 	C 	0.2055	0.22	0.7845	0.104
Mof_C 	C 	0.4374	0.0414	0.9776	0.081
Mof_H 	H 	0.426	0.0387	0.0028	-0.008
Mof_C 	C 	0.3224	0.0498	0.9046	0.067
Mof_H 	H 	0.3347	0.0772	0.9316	0.001
Mof_C 	C 	0.649	0.2175	0.8509	0.065
Mof_H 	H 	0.6734	0.2466	0.8545	-0.01
Mof_C 	C 	0.4857	0.1019	0.9426	0.058
Mof_C 	C 	0.5326	0.3927	0.0193	-0.114
Mof_H 	H 	0.5102	0.3573	0.0191	0.071
Mof_C 	C 	0.5911	0.1914	0.8763	0.065
Mof_C 	C 	0.2937	0.0963	0.8764	-0.112
Mof_H 	H 	0.2872	0.1559	0.8832	0.084
Mof_C 	C 	0.55238	0.2886	0.9648	0.092
Mof_C 	C 	0.2167	0.4701	0.8041	0.069
Mof_H 	H 	0.2352	0.5112	0.8197	-0.008
Mof_C 	C 	0.5969	0.4951	0.023	0.066
Mof_H 	H 	0.6193	0.5308	0.0242	-0.011
Mof_C 	C 	0.2858	0.9681	0.8292	-0.122
Mof_H 	H 	0.2731	0.9379	0.8031	0.085
Mof_C 	C 	0.5399	0.4687	0.0454	0.067
Mof_H 	H 	0.5216	0.4859	0.0624	-0.007
Mof_C 	C 	0.3152	0.9263	0.8581	0.069
Mof_H 	H 	0.3227	0.8672	0.8516	-0.003
Mof_C 	C 	0.1578	0.4441	0.7579	0.057
Mof_H 	H 	0.1343	0.4666	0.7407	-0.012
Mof_C 	C 	0.2244	0.3792	0.8082	-0.119
Mof_H 	H 	0.2477	0.3585	0.8264	0.077
Mof_C 	C 	0.6266	0.234	0.881	-0.114
Mof_H 	H 	0.6352	0.2742	0.9049	0.084
Mof_C 	C 	0.5915	0.4219	0.9961	-0.116
Mof_H 	H 	0.6102	0.4066	0.9793	0.079
Mof_C 	C 	0.4683	0.0985	0.9784	-0.129
Mof_H 	H 	0.4775	0.1351	0.0036	0.079
Mof_C 	C 	0.1637	0.3522	0.7601	-0.112
Mof_H 	H 	0.1447	0.3124	0.7445	0.08
Mof_C 	C 	0.6043	0.1216	0.8118	0.084
Mof_H 	H 	0.5961	0.0827	0.7873	-0.021
Mof_C 	C 	0.4702	0.0504	0.9066	-0.131
Mof_H 	H 	0.4804	0.0532	0.8805	0.088
Mof_C 	C 	0.5801	0.1335	0.8413	-0.123
Mof_H 	H 	0.5562	0.1022	0.8373	0.085
Mof_C 	C 	0.4399	0.9949	0.9088	0.086
Mof_H 	H 	0.4304	0.9571	0.8842	-0.02
Mof_C 	C 	0.16938	0.03802	0.71122	0.051
Mof_C 	C 	0.17628	0.94673	0.70483	-0.117
Mof_H 	H 	0.196	0.9156	0.7248	0.07
Mof_C 	C 	0.13965	0.08	0.6821	-0.113
Mof_H 	H 	0.1342	0.142	0.6854	0.09
Mof_C 	C 	0.15422	0.9023	0.66922	0.059
Mof_H 	H 	0.1598	0.8411	0.6641	-0.009
Mof_C 	C 	0.11802	0.0299	0.64814	0.067
Mof_H 	H 	0.0972	0.0585	0.6287	-0.004
Mof_N 	N 	0.12496	0.9435	0.64142	-0.266
Mof_I 	I 	0.38867	0.762	0.9096	-0.076
Mof_I 	I 	0.2426	0.7249	0.8076	-0.324
Mof_I 	I 	0.73226	0.23436	0.79277	-0.001
Mof_I 	I 	0.0286	0.15192	0.1296	-0.354
Mof_I 	I 	0.62941	0.15295	0.69281	-0.409
Mof_I 	I 	0.85657	0.40904	0.01404	-0.37
Mof_I 	I 	0.8963	0.26281	0.90066	-0.279
Mof_I 	I 	0.12192	0.23782	0.05647	-0.382
Mof_Zn	Zn	0.08562	0.12461	0.09301	1.164
Mof_Zn	Zn	0.87693	0.4038	0.94028	1.163
Mof_Zn	Zn	0.6718	0.1395	0.76988	1.155
Mof_N 	N 	0.68422	0.003	0.7792	-0.27
Mof_N 	N 	0.68226	0.674	0.7529	-0.137
Mof_N 	N 	0.07152	0.0192	0.0479	-0.269
Mof_N 	N 	0.72301	0.5482	0.774	-0.143
Mof_N 	N 	0.83366	0.467	0.8951	-0.269
Mof_N 	N 	0.02457	0.7309	0.97049	-0.147
Mof_N 	N 	0.13797	0.6611	0.8159	-0.279
Mof_N 	N 	0.7354	0.6864	0.8134	-0.141
Mof_N 	N 	0.92306	0.4903	0.9429	-0.278
Mof_N 	N 	0.07443	0.7794	0.9349	-0.134
Mof_N 	N 	0.03862	0.6481	0.91	-0.135
Mof_C 	C 	0.6929	0.5896	0.7483	0.103
Mof_C 	C 	0.0666	0.7071	0.9084	0.107
Mof_C 	C 	0.7425	0.599	0.8071	0.085
Mof_C 	C 	0.7746	0.5546	0.8382	0.045
Mof_C 	C 	0.0185	0.6641	0.9411	0.092
Mof_C 	C 	0.0586	0.8693	0.9935	0.049
Mof_C 	C 	0.6979	0.8184	0.7855	0.052
Mof_C 	C 	0.7055	0.72	0.7845	0.104
Mof_C 	C 	0.9374	0.5414	0.9776	0.08
Mof_H 	H 	0.926	0.5387	0.0028	-0.007
Mof_C 	C 	0.8224	0.5498	0.9046	0.067
Mof_H 	H 	0.8347	0.5772	0.9316	0.001
Mof_C 	C 	0.149	0.7175	0.8509	0.065
Mof_H 	H 	0.1734	0.7466	0.8545	-0.01
Mof_C 	C 	0.9857	0.6019	0.9426	0.058
Mof_C 	C 	0.0326	0.8927	0.0193	-0.114
Mof_H 	H 	0.0102	0.8573	0.0191	0.071
Mof_C 	C 	0.0911	0.6914	0.8763	0.065
Mof_C 	C 	0.7937	0.5963	0.8764	-0.111
Mof_H 	H 	0.7872	0.6559	0.8832	0.084
Mof_C 	C 	0.05238	0.7886	0.9648	0.092
Mof_C 	C 	0.7167	0.9701	0.8041	0.069
Mof_H 	H 	0.7352	0.0112	0.8197	-0.008
Mof_C 	C 	0.0969	0.9951	0.023	0.067
Mof_H 	H 	0.1193	0.0308	0.0242	-0.012
Mof_C 	C 	0.7858	0.4681	0.8292	-0.121
Mof_H 	H 	0.7731	0.4379	0.8031	0.085
Mof_C 	C 	0.0399	0.9687	0.0454	0.067
Mof_H 	H 	0.0216	0.9859	0.0624	-0.007
Mof_C 	C 	0.8152	0.4263	0.8581	0.069
Mof_H 	H 	0.8227	0.3672	0.8516	-0.003
Mof_C 	C 	0.6578	0.9441	0.7579	0.057
Mof_H 	H 	0.6343	0.9666	0.7407	-0.012
Mof_C 	C 	0.7244	0.8792	0.8082	-0.118
Mof_H 	H 	0.7477	0.8585	0.8264	0.077
Mof_C 	C 	0.1266	0.734	0.881	-0.114
Mof_H 	H 	0.1352	0.7742	0.9049	0.084
Mof_C 	C 	0.0915	0.9219	0.9961	-0.116
Mof_H 	H 	0.1102	0.9066	0.9793	0.079
Mof_C 	C 	0.9683	0.5985	0.9784	-0.13
Mof_H 	H 	0.9775	0.6351	0.0036	0.08
Mof_C 	C 	0.6637	0.8522	0.7601	-0.111
Mof_H 	H 	0.6447	0.8124	0.7445	0.08
Mof_C 	C 	0.1043	0.6216	0.8118	0.084
Mof_H 	H 	0.0961	0.5827	0.7873	-0.021
Mof_C 	C 	0.9702	0.5504	0.9066	-0.131
Mof_H 	H 	0.9804	0.5532	0.8805	0.088
Mof_C 	C 	0.0801	0.6335	0.8413	-0.123
Mof_H 	H 	0.0562	0.6022	0.8373	0.085
Mof_C 	C 	0.9399	0.4949	0.9088	0.087
Mof_H 	H 	0.9304	0.4571	0.8842	-0.02
Mof_C 	C 	0.66938	0.53802	0.71122	0.051
Mof_C 	C 	0.67628	0.44673	0.70483	-0.117
Mof_H 	H 	0.696	0.4156	0.7248	0.07
Mof_C 	C 	0.63965	0.58	0.6821	-0.113
Mof_H 	H 	0.6342	0.642	0.6854	0.09
Mof_C 	C 	0.65422	0.4023	0.66922	0.059
Mof_H 	H 	0.6598	0.3411	0.6641	-0.009
Mof_C 	C 	0.61802	0.5299	0.64814	0.067
Mof_H 	H 	0.5972	0.5585	0.6287	-0.004
Mof_N 	N 	0.62496	0.4435	0.64142	-0.266
Mof_I 	I 	0.88867	0.262	0.9096	-0.076
Mof_I 	I 	0.7426	0.2249	0.8076	-0.324
Mof_I 	I 	0.23226	0.26564	0.29277	-0.001
Mof_I 	I 	0.5286	0.34808	0.6296	-0.354
Mof_I 	I 	0.12941	0.34705	0.19281	-0.409
Mof_I 	I 	0.35657	0.09096	0.51404	-0.37
Mof_I 	I 	0.3963	0.23719	0.40066	-0.279
Mof_I 	I 	0.62192	0.26218	0.55647	-0.382
Mof_Zn	Zn	0.58562	0.37539	0.59301	1.164
Mof_Zn	Zn	0.37693	0.0962	0.44028	1.163
Mof_Zn	Zn	0.1718	0.3605	0.26988	1.155
Mof_N 	N 	0.18422	0.497	0.2792	-0.27
Mof_N 	N 	0.18226	0.826	0.2529	-0.137
Mof_N 	N 	0.57152	0.4808	0.5479	-0.268
Mof_N 	N 	0.22301	0.9518	0.274	-0.143
Mof_N 	N 	0.33366	0.033	0.3951	-0.269
Mof_N 	N 	0.52457	0.7691	0.47049	-0.147
Mof_N 	N 	0.63797	0.8389	0.3159	-0.279
Mof_N 	N 	0.2354	0.8136	0.3134	-0.141
Mof_N 	N 	0.42306	0.0097	0.4429	-0.278
Mof_N 	N 	0.57443	0.7206	0.4349	-0.134
Mof_N 	N 	0.53862	0.8519	0.41	-0.135
Mof_C 	C 	0.1929	0.9104	0.2483	0.103
Mof_C 	C 	0.5666	0.7929	0.4084	0.107
Mof_C 	C 	0.2425	0.901	0.3071	0.085
Mof_C 	C 	0.2746	0.9454	0.3382	0.045
Mof_C 	C 	0.5185	0.8359	0.4411	0.092
Mof_C 	C 	0.5586	0.6307	0.4935	0.049
Mof_C 	C 	0.1979	0.6816	0.2855	0.052
Mof_C 	C 	0.2055	0.78	0.2845	0.104
Mof_C 	C 	0.4374	0.9586	0.4776	0.08
Mof_H 	H 	0.426	0.9613	0.5028	-0.007
Mof_C 	C 	0.3224	0.9502	0.4046	0.067
Mof_H 	H 	0.3347	0.9228	0.4316	0.001
Mof_C 	C 	0.649	0.7825	0.3509	0.065
Mof_H 	H 	0.6734	0.7534	0.3545	-0.01
Mof_C 	C 	0.4857	0.8981	0.4426	0.058
Mof_C 	C 	0.5326	0.6073	0.5193	-0.114
Mof_H 	H 	0.5102	0.6427	0.5191	0.071
Mof_C 	C 	0.5911	0.8086	0.3763	0.065
Mof_C 	C 	0.2937	0.9037	0.3764	-0.112
Mof_H 	H 	0.2872	0.8441	0.3832	0.084
Mof_C 	C 	0.55238	0.7114	0.4648	0.092
Mof_C 	C 	0.2167	0.5299	0.3041	0.069
Mof_H 	H 	0.2352	0.4888	0.3197	-0.008
Mof_C 	C 	0.5969	0.5049	0.523	0.066
Mof_H 	H 	0.6193	0.4692	0.5242	-0.011
Mof_C 	C 	0.2858	0.0319	0.3292	-0.121
Mof_H 	H 	0.2731	0.0621	0.3031	0.085
Mof_C 	C 	0.5399	0.5313	0.5454	0.067
Mof_H 	H 	0.5216	0.5141	0.5624	-0.007
Mof_C 	C 	0.3152	0.0737	0.3581	0.069
Mof_H 	H 	0.3227	0.1328	0.3516	-0.003
Mof_C 	C 	0.1578	0.5559	0.2579	0.057
Mof_H 	H 	0.1343	0.5334	0.2407	-0.012
Mof_C 	C 	0.2244	0.6208	0.3082	-0.119
Mof_H 	H 	0.2477	0.6415	0.3264	0.077
Mof_C 	C 	0.6266	0.766	0.381	-0.114
Mof_H 	H 	0.6352	0.7258	0.4049	0.084
Mof_C 	C 	0.5915	0.5781	0.4961	-0.116
Mof_H 	H 	0.6102	0.5934	0.4793	0.079
Mof_C 	C 	0.4683	0.9015	0.4784	-0.13
Mof_H 	H 	0.4775	0.8649	0.5036	0.079
Mof_C 	C 	0.1637	0.6478	0.2601	-0.112
Mof_H 	H 	0.1447	0.6876	0.2445	0.08
Mof_C 	C 	0.6043	0.8784	0.3118	0.084
Mof_H 	H 	0.5961	0.9173	0.2873	-0.021
Mof_C 	C 	0.4702	0.9496	0.4066	-0.131
Mof_H 	H 	0.4804	0.9468	0.3805	0.088
Mof_C 	C 	0.5801	0.8665	0.3413	-0.123
Mof_H 	H 	0.5562	0.8978	0.3373	0.085
Mof_C 	C 	0.4399	0.0051	0.4088	0.086
Mof_H 	H 	0.4304	0.0429	0.3842	-0.02
Mof_C 	C 	0.16938	0.96198	0.21122	0.051
Mof_C 	C 	0.17628	0.05327	0.20483	-0.117
Mof_H 	H 	0.196	0.0844	0.2248	0.07
Mof_C 	C 	0.13965	0.92	0.1821	-0.113
Mof_H 	H 	0.1342	0.858	0.1854	0.09
Mof_C 	C 	0.15422	0.0977	0.16922	0.059
Mof_H 	H 	0.1598	0.1589	0.1641	-0.009
Mof_C 	C 	0.11802	0.9701	0.14814	0.067
Mof_H 	H 	0.0972	0.9415	0.1287	-0.004
Mof_N 	N 	0.12496	0.0565	0.14142	-0.266
Mof_I 	I 	0.38867	0.238	0.4096	-0.076
Mof_I 	I 	0.2426	0.2751	0.3076	-0.324
Mof_I 	I 	0.73226	0.76564	0.29277	-0.001
Mof_I 	I 	0.0286	0.84808	0.6296	-0.354
Mof_I 	I 	0.62941	0.84705	0.19281	-0.409
Mof_I 	I 	0.85657	0.59096	0.51404	-0.37
Mof_I 	I 	0.8963	0.73719	0.40066	-0.279
Mof_I 	I 	0.12192	0.76218	0.55647	-0.382
Mof_Zn	Zn	0.08562	0.87539	0.59301	1.164
Mof_Zn	Zn	0.87693	0.5962	0.44028	1.163
Mof_Zn	Zn	0.6718	0.8605	0.26988	1.155
Mof_N 	N 	0.68422	0.997	0.2792	-0.27
Mof_N 	N 	0.68226	0.326	0.2529	-0.137
Mof_N 	N 	0.07152	0.9808	0.5479	-0.268
Mof_N 	N 	0.72301	0.4518	0.274	-0.143
Mof_N 	N 	0.83366	0.533	0.3951	-0.269
Mof_N 	N 	0.02457	0.2691	0.47049	-0.147
Mof_N 	N 	0.13797	0.3389	0.3159	-0.279
Mof_N 	N 	0.7354	0.3136	0.3134	-0.141
Mof_N 	N 	0.92306	0.5097	0.4429	-0.278
Mof_N 	N 	0.07443	0.2206	0.4349	-0.134
Mof_N 	N 	0.03862	0.3519	0.41	-0.135
Mof_C 	C 	0.6929	0.4104	0.2483	0.103
Mof_C 	C 	0.0666	0.2929	0.4084	0.107
Mof_C 	C 	0.7425	0.401	0.3071	0.085
Mof_C 	C 	0.7746	0.4454	0.3382	0.045
Mof_C 	C 	0.0185	0.3359	0.4411	0.092
Mof_C 	C 	0.0586	0.1307	0.4935	0.049
Mof_C 	C 	0.6979	0.1816	0.2855	0.052
Mof_C 	C 	0.7055	0.28	0.2845	0.104
Mof_C 	C 	0.9374	0.4586	0.4776	0.08
Mof_H 	H 	0.926	0.4613	0.5028	-0.007
Mof_C 	C 	0.8224	0.4502	0.4046	0.067
Mof_H 	H 	0.8347	0.4228	0.4316	0.001
Mof_C 	C 	0.149	0.2825	0.3509	0.065
Mof_H 	H 	0.1734	0.2534	0.3545	-0.01
Mof_C 	C 	0.9857	0.3981	0.4426	0.058
Mof_C 	C 	0.0326	0.1073	0.5193	-0.114
Mof_H 	H 	0.0102	0.1427	0.5191	0.071
Mof_C 	C 	0.0911	0.3086	0.3763	0.065
Mof_C 	C 	0.7937	0.4037	0.3764	-0.111
Mof_H 	H 	0.7872	0.3441	0.3832	0.084
Mof_C 	C 	0.05238	0.2114	0.4648	0.092
Mof_C 	C 	0.7167	0.0299	0.3041	0.069
Mof_H 	H 	0.7352	0.9888	0.3197	-0.008
Mof_C 	C 	0.0969	0.0049	0.523	0.066
Mof_H 	H 	0.1193	0.9692	0.5242	-0.011
Mof_C 	C 	0.7858	0.5319	0.3292	-0.121
Mof_H 	H 	0.7731	0.5621	0.3031	0.085
Mof_C 	C 	0.0399	0.0313	0.5454	0.067
Mof_H 	H 	0.0216	0.0141	0.5624	-0.007
Mof_C 	C 	0.8152	0.5737	0.3581	0.069
Mof_H 	H 	0.8227	0.6328	0.3516	-0.003
Mof_C 	C 	0.6578	0.0559	0.2579	0.057
Mof_H 	H 	0.6343	0.0334	0.2407	-0.012
Mof_C 	C 	0.7244	0.1208	0.3082	-0.118
Mof_H 	H 	0.7477	0.1415	0.3264	0.077
Mof_C 	C 	0.1266	0.266	0.381	-0.114
Mof_H 	H 	0.1352	0.2258	0.4049	0.084
Mof_C 	C 	0.0915	0.0781	0.4961	-0.116
Mof_H 	H 	0.1102	0.0934	0.4793	0.079
Mof_C 	C 	0.9683	0.4015	0.4784	-0.13
Mof_H 	H 	0.9775	0.3649	0.5036	0.079
Mof_C 	C 	0.6637	0.1478	0.2601	-0.112
Mof_H 	H 	0.6447	0.1876	0.2445	0.08
Mof_C 	C 	0.1043	0.3784	0.3118	0.084
Mof_H 	H 	0.0961	0.4173	0.2873	-0.021
Mof_C 	C 	0.9702	0.4496	0.4066	-0.131
Mof_H 	H 	0.9804	0.4468	0.3805	0.088
Mof_C 	C 	0.0801	0.3665	0.3413	-0.123
Mof_H 	H 	0.0562	0.3978	0.3373	0.085
Mof_C 	C 	0.9399	0.5051	0.4088	0.087
Mof_H 	H 	0.9304	0.5429	0.3842	-0.02
Mof_C 	C 	0.66938	0.46198	0.21122	0.051
Mof_C 	C 	0.67628	0.55327	0.20483	-0.117
Mof_H 	H 	0.696	0.5844	0.2248	0.07
Mof_C 	C 	0.63965	0.42	0.1821	-0.113
Mof_H 	H 	0.6342	0.358	0.1854	0.09
Mof_C 	C 	0.65422	0.5977	0.16922	0.059
Mof_H 	H 	0.6598	0.6589	0.1641	-0.009
Mof_C 	C 	0.61802	0.4701	0.14814	0.067
Mof_H 	H 	0.5972	0.4415	0.1287	-0.004
Mof_N 	N 	0.62496	0.5565	0.14142	-0.266
Mof_I 	I 	0.88867	0.738	0.4096	-0.076
Mof_I 	I 	0.7426	0.7751	0.3076	-0.324
_end
