# CIF file generated by openbabel 3.1.0, see https://openbabel.org
data_I
_chemical_name_common 'ja5063423_si_002_clean'
_cell_length_a 14.2089
_cell_length_b 14.2089
_cell_length_c 14.2089
_cell_angle_alpha 60
_cell_angle_beta 60
_cell_angle_gamma 60
_space_group_name_H-M_alt 'P 1'
_space_group_name_Hall 'P 1'
loop_
    _symmetry_equiv_pos_as_xyz
    x,y,z
loop_
    _atom_site_label
    _atom_site_type_symbol
    _atom_site_fract_x
    _atom_site_fract_y
    _atom_site_fract_z
    _atom_site_occupancy
    Zn1      Zn       0.19397    0.19397    0.41809    1.000
    Zn2      Zn       0.19397    0.41809    0.19397    1.000
    Zn3      Zn       0.41809    0.19397    0.19397    1.000
    Zn4      Zn       0.80633    0.80633    0.80633    1.000
    Zn5      Zn       0.80633    0.58101    0.80633    1.000
    Zn6      Zn       0.80633    0.80633    0.58101    1.000
    Zn7      Zn       0.19397    0.19397    0.19397    1.000
    Zn8      Zn       0.58101    0.80633    0.80633    1.000
    H1       H        0.02590    0.33710    0.61030    1.000
    H2       H        0.02670    0.02590    0.61030    1.000
    H3       H        0.02670    0.61030    0.33710    1.000
    H4       H        0.61030    0.33710    0.02670    1.000
    H5       H        0.02670    0.33710    0.02590    1.000
    H6       H        0.61030    0.02590    0.33710    1.000
    H7       H        0.02590    0.61030    0.02670    1.000
    H8       H        0.33710    0.02590    0.02670    1.000
    H9       H        0.33710    0.02670    0.61030    1.000
    H10      H        0.33710    0.61030    0.02590    1.000
    H11      H        0.61030    0.02670    0.02590    1.000
    H12      H        0.02590    0.02670    0.33710    1.000
    C1       C        0.57030    0.92970    0.92970    1.000
    C2       C        0.04100    0.04060    0.53220    1.000
    C3       C        0.53220    0.04060    0.38620    1.000
    C4       C        0.57030    0.92970    0.57030    1.000
    C5       C        0.99990    0.99990    0.50010    1.000
    C6       C        0.57030    0.57030    0.92970    1.000
    C7       C        0.50010    0.99990    0.99990    1.000
    C8       C        0.04060    0.38620    0.53220    1.000
    C9       C        0.04060    0.04100    0.38620    1.000
    C10      C        0.38620    0.04060    0.04100    1.000
    C11      C        0.92970    0.92970    0.57030    1.000
    C12      C        0.53220    0.04100    0.04060    1.000
    C13      C        0.04100    0.53220    0.38620    1.000
    C14      C        0.99990    0.50010    0.50010    1.000
    C15      C        0.50010    0.99990    0.50010    1.000
    C16      C        0.38620    0.53220    0.04060    1.000
    C17      C        0.92970    0.57030    0.92970    1.000
    C18      C        0.99990    0.50010    0.99990    1.000
    C19      C        0.53220    0.38620    0.04100    1.000
    C20      C        0.04100    0.38620    0.04060    1.000
    C21      C        0.04060    0.53220    0.04100    1.000
    C22      C        0.92970    0.57030    0.57030    1.000
    C23      C        0.50010    0.50010    0.99990    1.000
    C24      C        0.38620    0.04100    0.53220    1.000
    N1       N        0.10120    0.10140    0.44720    1.000
    N2       N        0.10120    0.35020    0.10140    1.000
    N3       N        0.35020    0.44720    0.10140    1.000
    N4       N        0.10140    0.44720    0.10120    1.000
    N5       N        0.10140    0.10120    0.35020    1.000
    N6       N        0.44720    0.35020    0.10120    1.000
    N7       N        0.35020    0.10140    0.10120    1.000
    N8       N        0.44720    0.10120    0.10140    1.000
    N9       N        0.10120    0.44720    0.35020    1.000
    N10      N        0.35020    0.10120    0.44720    1.000
    N11      N        0.44720    0.10140    0.35020    1.000
    N12      N        0.10140    0.35020    0.44720    1.000
    O1       O        0.53410    0.89550    0.67430    1.000
    O2       O        0.89610    0.53410    0.67430    1.000
    O3       O        0.89610    0.67430    0.89550    1.000
    O4       O        0.53410    0.67430    0.89610    1.000
    O5       O        0.89550    0.67430    0.53410    1.000
    O6       O        0.67430    0.89550    0.89610    1.000
    O7       O        0.67430    0.89610    0.53410    1.000
    O8       O        0.53410    0.89610    0.89550    1.000
    O9       O        0.25000    0.25000    0.25000    1.000
    O10      O        0.89550    0.89610    0.67430    1.000
    O11      O        0.89550    0.53410    0.89610    1.000
    O12      O        0.89610    0.89550    0.53410    1.000
    O13      O        0.67430    0.53410    0.89550    1.000
    O14      O        0.75000    0.75000    0.75000    1.000
